AV-unprocessed.smi:1352|AV-procd|sdf|5528|dock5
  -GOLD-   22720 5113D 1   1.00000     0.00000
 Structure written by MMmdl.
 47 48  0  0  0  0  0  0  0  0  2 V2000
  153.7212  141.4850  161.2252 C   0  0  0  0  0  0  0  0  0  0  0  0
  153.0618  142.1293  159.9974 C   0  0  2  0  0  0  0  0  0  0  0  0
  152.6007  143.5666  160.2995 C   0  0  0  0  0  0  0  0  0  0  0  0
  151.8814  144.1987  159.0940 C   0  0  1  0  0  0  0  0  0  0  0  0
  152.8449  144.5976  157.9622 C   0  0  0  0  0  0  0  0  0  0  0  0
  150.7475  143.2793  158.5982 C   0  0  0  0  0  0  0  0  0  0  0  0
  151.2398  141.9093  158.2971 N   0  3  2  0  0  0  0  0  0  0  0  0
  150.1896  141.0588  157.6819 C   0  0  0  0  0  0  0  0  0  0  0  0
  150.5141  139.5561  157.7884 C   0  0  0  0  0  0  0  0  0  0  0  0
  149.3032  138.7530  157.9101 N   0  0  0  0  0  0  0  0  0  0  0  0
  149.0670  137.8618  158.8848 C   0  0  0  0  0  0  0  0  0  0  0  0
  149.8786  137.6120  159.7773 O   0  0  0  0  0  0  0  0  0  0  0  0
  147.7168  137.1337  158.8194 C   0  0  0  0  0  0  0  0  0  0  0  0
  147.4652  136.2641  159.9810 N   0  0  0  0  0  0  0  0  0  0  0  0
  146.6748  136.7935  161.0206 C   0  0  0  0  0  0  0  0  0  0  0  0
  146.3847  136.0846  162.1231 C   0  0  0  0  0  0  0  0  0  0  0  0
  146.9072  134.7432  162.2292 C   0  0  0  0  0  0  0  0  0  0  0  0
  147.6616  134.2257  161.2391 C   0  0  0  0  0  0  0  0  0  0  0  0
  147.9781  134.9958  160.0307 C   0  0  0  0  0  0  0  0  0  0  0  0
  148.6616  134.5298  159.1184 O   0  0  0  0  0  0  0  0  0  0  0  0
  151.8787  141.2850  159.4861 C   0  0  0  0  0  0  0  0  0  0  0  0
  153.0220  141.4104  162.0587 H   0  0  0  0  0  0  0  0  0  0  0  0
  154.5785  142.0683  161.5621 H   0  0  0  0  0  0  0  0  0  0  0  0
  154.0771  140.4795  160.9984 H   0  0  0  0  0  0  0  0  0  0  0  0
  153.8158  142.1668  159.2105 H   0  0  0  0  0  0  0  0  0  0  0  0
  151.9195  143.5533  161.1518 H   0  0  0  0  0  0  0  0  0  0  0  0
  153.4489  144.1838  160.5988 H   0  0  0  0  0  0  0  0  0  0  0  0
  151.4212  145.1243  159.4422 H   0  0  0  0  0  0  0  0  0  0  0  0
  153.3334  143.7317  157.5159 H   0  0  0  0  0  0  0  0  0  0  0  0
  153.6247  145.2657  158.3288 H   0  0  0  0  0  0  0  0  0  0  0  0
  152.3151  145.1211  157.1661 H   0  0  0  0  0  0  0  0  0  0  0  0
  149.9628  143.2161  159.3540 H   0  0  0  0  0  0  0  0  0  0  0  0
  150.2894  143.7168  157.7098 H   0  0  0  0  0  0  0  0  0  0  0  0
  149.2210  141.2809  158.1324 H   0  0  0  0  0  0  0  0  0  0  0  0
  150.1019  141.3149  156.6252 H   0  0  0  0  0  0  0  0  0  0  0  0
  151.0929  139.2275  156.9232 H   0  0  0  0  0  0  0  0  0  0  0  0
  151.1254  139.3502  158.6660 H   0  0  0  0  0  0  0  0  0  0  0  0
  148.5855  138.8965  157.2140 H   0  0  0  0  0  0  0  0  0  0  0  0
  146.9134  137.8665  158.7226 H   0  0  0  0  0  0  0  0  0  0  0  0
  147.6881  136.5555  157.8949 H   0  0  0  0  0  0  0  0  0  0  0  0
  146.3175  137.8005  160.8617 H   0  0  0  0  0  0  0  0  0  0  0  0
  145.7739  136.5052  162.9083 H   0  0  0  0  0  0  0  0  0  0  0  0
  146.6916  134.1508  163.1063 H   0  0  0  0  0  0  0  0  0  0  0  0
  148.0429  133.2198  161.3357 H   0  0  0  0  0  0  0  0  0  0  0  0
  152.2409  140.2884  159.2367 H   0  0  0  0  0  0  0  0  0  0  0  0
  151.1343  141.1600  160.2745 H   0  0  0  0  0  0  0  0  0  0  0  0
  151.9605  142.0204  157.5981 H   0  0  0  0  0  0  0  0  0  0  0  0
  1  2  1  0  0  0  0
  1 22  1  0  0  0  0
  1 23  1  0  0  0  0
  1 24  1  0  0  0  0
  2 21  1  0  0  0  0
  2  3  1  0  0  0  0
  2 25  1  0  0  0  0
  3  4  1  0  0  0  0
  3 26  1  0  0  0  0
  3 27  1  0  0  0  0
  4  5  1  0  0  0  0
  4  6  1  0  0  0  0
  4 28  1  0  0  0  0
  5 29  1  0  0  0  0
  5 30  1  0  0  0  0
  5 31  1  0  0  0  0
  6  7  1  0  0  0  0
  6 32  1  0  0  0  0
  6 33  1  0  0  0  0
  7  8  1  0  0  0  0
  7 21  1  0  0  0  0
  7 47  1  0  0  0  0
  8  9  1  0  0  0  0
  8 34  1  0  0  0  0
  8 35  1  0  0  0  0
  9 10  1  0  0  0  0
  9 36  1  0  0  0  0
  9 37  1  0  0  0  0
 10 11  1  0  0  0  0
 10 38  1  0  0  0  0
 11 12  2  0  0  0  0
 11 13  1  0  0  0  0
 13 14  1  0  0  0  0
 13 39  1  0  0  0  0
 13 40  1  0  0  0  0
 14 19  1  0  0  0  0
 14 15  1  0  0  0  0
 15 16  2  0  0  0  0
 15 41  1  0  0  0  0
 16 17  1  0  0  0  0
 16 42  1  0  0  0  0
 17 18  2  0  0  0  0
 17 43  1  0  0  0  0
 18 19  1  0  0  0  0
 18 44  1  0  0  0  0
 19 20  2  0  0  0  0
 21 45  1  0  0  0  0
 21 46  1  0  0  0  0
M  CHG  1   7   1
M  END
> <s_m_source_file>
AV-unprocessed.smi

> <i_m_source_file_index>
1352

> <i_lp_mmshare_version>
43012

> <i_f3d_flags>
0

> <s_epik_input>
W0NIM11bQ0BASF0xW0NIMl1bQ0BASF0oW0NIM10pW0NIMl1OKFtDSDJdMSlbQ0gyXVtDSDJdW05IXUMoPU8pW0NIMl1uMltjSF1bY0hdW2NIXVtjSF1jMj1P

> <s_epik_cmdline>
J2VwaWtfcHl0aG9uJywgJy1waCcsICc3LjAnLCAnLXRuJywgJzgnLCAnLW1hJywgJzIwMCcsICctbWV0YWxfYmluZGluZycsICctaW1hZScsICc8aW5maWxlLm1hZT4nLCAnLW9tYWUnLCAnPG91dGZpbGUubWFlPic=

> <r_lp_tautomer_probability>
1

> <r_epik_Ionization_Penalty>
0.00156146

> <r_epik_Ionization_Penalty_Charging>
0.00156138

> <r_epik_Ionization_Penalty_Neutral>
8.12891e-08

> <r_epik_State_Penalty>
0.00104868

> <r_epik_Charging_Adjusted_Penalty>
0.00261006

> <i_epik_Tot_Q>
1

> <i_epik_Tot_abs_Q>
1

> <r_epik_Metal_State_Penalty>
-0

> <b_epik_Metal_Only>
0

> <s_lp_Force_Field>
OPLS_2005

> <r_lp_Energy>
27.9536

> <b_lp_Chiralities_Consistent>
1

> <s_lp_Variant>
AV-unprocessed.smi:1352-1

> <Gold.Version>
5.8.1

> <Gold.Id.Protein>
6NUR|6NUR_protein|mol2

> <Gold.PLP.Fitness>
46.4471

> <Gold.PLP.PLP>
-45.0910

> <Gold.PLP.part.hbond>
-2.0000

> <Gold.PLP.part.metal>
0.0000

> <Gold.PLP.part.buried>
-6.2980

> <Gold.PLP.part.nonpolar>
-36.4229

> <Gold.PLP.part.repulsive>
0.2089

> <Gold.PLP.ligand.clash>
0.0000

> <Gold.PLP.ligand.torsion>
0.8230

> <Gold.PLP.Chemscore.Hbond>
0.9920

> <Gold.PLP.Chemscore.CHOScore>
0.0000

> <Gold.PLP.Chemscore.Metal>
0.0000

> <Gold.Chemscore.Hbonds>
donor molecule, donor type, donor heavy atom, donor atom, acceptor molecule, acceptor atom, score
      P1  H  6896  6907       L1    20  0.95
      P1  H  6931  6943       L1    12  0.02

> <Gold.PLP.Chemscore.Internal.Correction>
0.0260

> <Gold.Rescore>
     Score         DG    S(hbond)    S(metal)    S(lipo)     H(rot)  DE(clash)    DE(int)     intcor
     14.96     -17.97       0.98        0.00     118.86       1.83       0.23       2.78       ----

> <Gold.Chemscore.Fitness>
14.9620

> <Gold.Chemscore.DG>
-17.9686

> <Gold.Chemscore.ZeroCoef>
-5.4800

> <Gold.Chemscore.Hbond>
0.9804

> <Gold.Chemscore.Metal>
0.0000

> <Gold.Chemscore.Lipo>
118.8585

> <Gold.Chemscore.Internal_Hbond>
0.0000

> <Gold.Chemscore.DEClash>
0.2309

> <Gold.Chemscore.DEInternal>
2.7758

> <Gold.Chemscore.Rot>
1.8329

> <Gold.Chemscore.Internal.Correction>
   9.000000E+99

> <Gold.Chemscore.Hbonds>
donor molecule, donor type, donor heavy atom, donor atom, acceptor molecule, acceptor atom, score
      P1  H  6896  6907       L1    20  0.71
      P1  H  6931  6943       L1    12  0.02

> <Gold.Chemscore.Hbond.Weighted>
-3.2744

> <Gold.Chemscore.Metal.Weighted>
-0.0000

> <Gold.Chemscore.Lipo.Weighted>
-13.9064

> <Gold.Chemscore.Internal_Hbond.Weighted>
0.0000

> <Gold.Chemscore.DEClash.Weighted>
0.2309

> <Gold.Chemscore.DEInternal.Weighted>
2.7758

> <Gold.Chemscore.Rot.Weighted>
4.6922

> <Gold.Chemscore.Internal.Correction.Weighted>
   9.000000E+99

> <Gold.Protein.RotatedTorsions>
[ 6907 6896 6895 6894 ] final  -69.96 input  -60.11 | X-H torsion
[ 7974 7965 7964 7962 ] final  -41.13 input  175.53 | X-H torsion
[ 8008 7997 7996 7995 ] final  108.42 input   59.86 | X-H torsion
[ 10167 10162 10161 10158 ] final   78.29 input  -65.29 | X-H torsion
[ 10718 10713 10712 10709 ] final   86.19 input   66.30 | X-H torsion
[ 10763 10752 10751 10750 ] final   67.48 input  -60.55 | X-H torsion
[ 11005 11000 10999 10996 ] final  -14.38 input  -57.11 | X-H torsion

> <Gold.Protein.ActiveResidues>
 VAL166  LYS551  ARG553  GLY616  TRP617  ASP618  TYR619  PRO620  LYS621  CYS622 
 ASP623  PHE694  ASN695  SER759  ASP760  ASP761  ALA762  ILE779  LEU786  VAL792 
 PHE793  MET794  SER795  GLU796  ALA797  LYS798  CYS799  TRP800  GLU811  SER814 

> <Gold.Protein.RotatedAtoms>
  150.7280  134.5522  159.5799 H   0  0  0  0  0  0  0  0  0  0  0  0  # atno 6907 bound_to 6896
  152.3006  134.7612  160.0367 H   0  0  0  0  0  0  0  0  0  0  0  0  # atno 6908 bound_to 6896
  151.8194  133.3357  159.3616 H   0  0  0  0  0  0  0  0  0  0  0  0  # atno 6909 bound_to 6896
  146.0240  140.6815  142.9164 H   0  0  0  0  0  0  0  0  0  0  0  0  # atno 7974 bound_to 7965
  156.1901  140.3077  155.9316 H   0  0  0  0  0  0  0  0  0  0  0  0  # atno 8008 bound_to 7997
  155.3192  140.0455  157.3055 H   0  0  0  0  0  0  0  0  0  0  0  0  # atno 8009 bound_to 7997
  154.5442  140.2271  155.8599 H   0  0  0  0  0  0  0  0  0  0  0  0  # atno 8010 bound_to 7997
  139.9725  144.5884  150.7973 H   0  0  0  0  0  0  0  0  0  0  0  0  # atno 10167 bound_to 10162
  157.6925  131.0205  150.2935 H   0  0  0  0  0  0  0  0  0  0  0  0  # atno 10718 bound_to 10713
  153.0188  135.5282  154.6986 H   0  0  0  0  0  0  0  0  0  0  0  0  # atno 10763 bound_to 10752
  154.6101  135.2877  155.0443 H   0  0  0  0  0  0  0  0  0  0  0  0  # atno 10764 bound_to 10752
  154.1468  135.6569  153.5007 H   0  0  0  0  0  0  0  0  0  0  0  0  # atno 10765 bound_to 10752
  140.7858  133.8326  155.9334 H   0  0  0  0  0  0  0  0  0  0  0  0  # atno 11005 bound_to 11000
  144.7002  140.3617  143.7162 LP  0  0  0  0  0  0  0  0  0  0  0  0  # atno 17320 bound_to 7965
  145.7148  139.1694  143.2518 LP  0  0  0  0  0  0  0  0  0  0  0  0  # atno 17321 bound_to 7965
  140.7517  143.2977  151.3161 LP  0  0  0  0  0  0  0  0  0  0  0  0  # atno 17342 bound_to 10162
  139.6470  144.0432  152.2598 LP  0  0  0  0  0  0  0  0  0  0  0  0  # atno 17343 bound_to 10162
  156.3462  130.3823  149.7367 LP  0  0  0  0  0  0  0  0  0  0  0  0  # atno 17370 bound_to 10713
  156.4860  130.8063  151.3075 LP  0  0  0  0  0  0  0  0  0  0  0  0  # atno 17371 bound_to 10713
  140.9438  134.1867  157.4778 LP  0  0  0  0  0  0  0  0  0  0  0  0  # atno 17394 bound_to 11000
  139.8737  134.9882  156.5402 LP  0  0  0  0  0  0  0  0  0  0  0  0  # atno 17395 bound_to 11000

$$$$
