AV-unprocessed.smi:1258|AV-procd|sdf|5290|dock9
  -GOLD-   22720 4413D 1   1.00000     0.00000
 Structure written by MMmdl.
 33 34  0  0  0  0  0  0  0  0  1 V2000
  150.0876  142.2449  158.2934 C   0  0  0  0  0  0  0  0  0  0  0  0
  149.4007  141.5133  157.1313 C   0  0  1  0  0  0  0  0  0  0  0  0
  147.9279  141.9431  156.9909 C   0  0  0  0  0  0  0  0  0  0  0  0
  147.2366  141.2203  155.8248 C   0  0  0  0  0  0  0  0  0  0  0  0
  147.9921  141.4445  154.5046 C   0  0  0  0  0  0  0  0  0  0  0  0
  149.4770  141.0333  154.6079 C   0  0  2  0  0  0  0  0  0  0  0  0
  149.6303  139.5828  154.7117 N   0  0  0  0  0  0  0  0  0  0  0  0
  150.7975  138.9257  154.7956 C   0  0  0  0  0  0  0  0  0  0  0  0
  151.8928  139.4888  154.7840 O   0  0  0  0  0  0  0  0  0  0  0  0
  150.7107  137.4001  154.8978 C   0  0  0  0  0  0  0  0  0  0  0  0
  151.1843  136.9190  156.1828 N   0  0  0  0  0  0  0  0  0  0  0  0
  150.6993  137.0855  157.4151 C   0  0  0  0  0  0  0  0  0  0  0  0
  151.4407  136.4649  158.3202 N   0  0  0  0  0  0  0  0  0  0  0  0
  152.4432  135.8843  157.5613 N   0  0  0  0  0  0  0  0  0  0  0  0
  152.2962  136.1498  156.2921 N   0  0  0  0  0  0  0  0  0  0  0  0
  150.1583  141.7294  155.8036 C   0  0  0  0  0  0  0  0  0  0  0  0
  150.0993  143.3233  158.1320 H   0  0  0  0  0  0  0  0  0  0  0  0
  151.1201  141.9146  158.4104 H   0  0  0  0  0  0  0  0  0  0  0  0
  149.5728  142.0553  159.2357 H   0  0  0  0  0  0  0  0  0  0  0  0
  149.4186  140.4476  157.3636 H   0  0  0  0  0  0  0  0  0  0  0  0
  147.3891  141.7387  157.9168 H   0  0  0  0  0  0  0  0  0  0  0  0
  147.8712  143.0209  156.8332 H   0  0  0  0  0  0  0  0  0  0  0  0
  147.1746  140.1527  156.0389 H   0  0  0  0  0  0  0  0  0  0  0  0
  146.2096  141.5738  155.7271 H   0  0  0  0  0  0  0  0  0  0  0  0
  147.4975  140.9070  153.6949 H   0  0  0  0  0  0  0  0  0  0  0  0
  147.9351  142.5010  154.2400 H   0  0  0  0  0  0  0  0  0  0  0  0
  149.9900  141.3572  153.7004 H   0  0  0  0  0  0  0  0  0  0  0  0
  148.7798  139.0385  154.7257 H   0  0  0  0  0  0  0  0  0  0  0  0
  149.6845  137.0594  154.7483 H   0  0  0  0  0  0  0  0  0  0  0  0
  151.3180  136.9526  154.1106 H   0  0  0  0  0  0  0  0  0  0  0  0
  149.8102  137.6537  157.6457 H   0  0  0  0  0  0  0  0  0  0  0  0
  150.2204  142.7991  155.5983 H   0  0  0  0  0  0  0  0  0  0  0  0
  151.1879  141.3817  155.8978 H   0  0  0  0  0  0  0  0  0  0  0  0
  1  2  1  0  0  0  0
  1 17  1  0  0  0  0
  1 18  1  0  0  0  0
  1 19  1  0  0  0  0
  2 16  1  0  0  0  0
  2  3  1  0  0  0  0
  2 20  1  0  0  0  0
  3  4  1  0  0  0  0
  3 21  1  0  0  0  0
  3 22  1  0  0  0  0
  4  5  1  0  0  0  0
  4 23  1  0  0  0  0
  4 24  1  0  0  0  0
  5  6  1  0  0  0  0
  5 25  1  0  0  0  0
  5 26  1  0  0  0  0
  6  7  1  0  0  0  0
  6 16  1  0  0  0  0
  6 27  1  0  0  0  0
  7  8  1  0  0  0  0
  7 28  1  0  0  0  0
  8  9  2  0  0  0  0
  8 10  1  0  0  0  0
 10 11  1  0  0  0  0
 10 29  1  0  0  0  0
 10 30  1  0  0  0  0
 11 15  1  0  0  0  0
 11 12  1  0  0  0  0
 12 13  2  0  0  0  0
 12 31  1  0  0  0  0
 13 14  1  0  0  0  0
 14 15  2  0  0  0  0
 16 32  1  0  0  0  0
 16 33  1  0  0  0  0
M  END
> <s_m_source_file>
AV-unprocessed.smi

> <i_m_source_file_index>
1258

> <i_lp_mmshare_version>
43012

> <i_f3d_flags>
0

> <s_epik_input>
W0NIM11bQ0BASF0xW0NIMl1bQ0gyXVtDSDJdW0NASF0oW0NIMl0xKVtOSF1DKD1PKVtDSDJdbjJbY0hdbm5uMg==

> <s_epik_cmdline>
J2VwaWtfcHl0aG9uJywgJy1waCcsICc3LjAnLCAnLXRuJywgJzgnLCAnLW1hJywgJzIwMCcsICctbWV0YWxfYmluZGluZycsICctaW1hZScsICc8aW5maWxlLm1hZT4nLCAnLW9tYWUnLCAnPG91dGZpbGUubWFlPic=

> <r_lp_tautomer_probability>
1

> <r_epik_Ionization_Penalty>
5.03816e-07

> <r_epik_Ionization_Penalty_Charging>
0

> <r_epik_Ionization_Penalty_Neutral>
5.03816e-07

> <r_epik_State_Penalty>
-0

> <r_epik_Charging_Adjusted_Penalty>
0

> <i_epik_Tot_Q>
0

> <i_epik_Tot_abs_Q>
0

> <r_epik_Metal_State_Penalty>
-0

> <b_epik_Metal_Only>
0

> <s_lp_Force_Field>
OPLS_2005

> <r_lp_Energy>
10.3289

> <b_lp_Chiralities_Consistent>
1

> <s_lp_Variant>
AV-unprocessed.smi:1258-4

> <Gold.Version>
5.8.1

> <Gold.Id.Protein>
6NUR|6NUR_protein|mol2

> <Gold.PLP.Fitness>
32.2529

> <Gold.PLP.PLP>
-24.6231

> <Gold.PLP.part.hbond>
-3.9446

> <Gold.PLP.part.metal>
0.0000

> <Gold.PLP.part.buried>
-3.9412

> <Gold.PLP.part.nonpolar>
-17.2073

> <Gold.PLP.part.repulsive>
0.1408

> <Gold.PLP.ligand.clash>
0.0000

> <Gold.PLP.ligand.torsion>
0.0747

> <Gold.PLP.Chemscore.Hbond>
2.5903

> <Gold.PLP.Chemscore.CHOScore>
0.0000

> <Gold.PLP.Chemscore.Metal>
0.0000

> <Gold.Chemscore.Hbonds>
donor molecule, donor type, donor heavy atom, donor atom, acceptor molecule, acceptor atom, score
      P1  H  6896  6907       L1    13  0.57
      P1  H  7989  7998       L1     9  0.99
      P1  H 10752 10763       L1    15  1.00

> <Gold.PLP.Chemscore.Internal.Correction>
0.0083

> <Gold.Rescore>
     Score         DG    S(hbond)    S(metal)    S(lipo)     H(rot)  DE(clash)    DE(int)     intcor
     12.08     -13.24       2.37        0.00      40.69       1.92       0.00       1.16       ----

> <Gold.Chemscore.Fitness>
12.0755

> <Gold.Chemscore.DG>
-13.2356

> <Gold.Chemscore.ZeroCoef>
-5.4800

> <Gold.Chemscore.Hbond>
2.3660

> <Gold.Chemscore.Metal>
0.0000

> <Gold.Chemscore.Lipo>
40.6861

> <Gold.Chemscore.Internal_Hbond>
0.0000

> <Gold.Chemscore.DEClash>
0.0000

> <Gold.Chemscore.DEInternal>
1.1601

> <Gold.Chemscore.Rot>
1.9169

> <Gold.Chemscore.Internal.Correction>
   9.000000E+99

> <Gold.Chemscore.Hbonds>
donor molecule, donor type, donor heavy atom, donor atom, acceptor molecule, acceptor atom, score
      P1  H  6896  6907       L1    13  0.16
      P1  H  7989  7998       L1     9  0.37
      P1  H 10752 10763       L1    15  0.95

> <Gold.Chemscore.Hbond.Weighted>
-7.9026

> <Gold.Chemscore.Metal.Weighted>
-0.0000

> <Gold.Chemscore.Lipo.Weighted>
-4.7603

> <Gold.Chemscore.Internal_Hbond.Weighted>
0.0000

> <Gold.Chemscore.DEClash.Weighted>
0.0000

> <Gold.Chemscore.DEInternal.Weighted>
1.1601

> <Gold.Chemscore.Rot.Weighted>
4.9073

> <Gold.Chemscore.Internal.Correction.Weighted>
   9.000000E+99

> <Gold.Protein.RotatedTorsions>
[ 6907 6896 6895 6894 ] final  -19.65 input  -60.11 | X-H torsion
[ 7974 7965 7964 7962 ] final  -54.48 input  175.53 | X-H torsion
[ 8008 7997 7996 7995 ] final  106.25 input   59.86 | X-H torsion
[ 10167 10162 10161 10158 ] final -164.45 input  -65.29 | X-H torsion
[ 10718 10713 10712 10709 ] final  -30.81 input   66.30 | X-H torsion
[ 10763 10752 10751 10750 ] final   78.26 input  -60.55 | X-H torsion
[ 11005 11000 10999 10996 ] final   91.16 input  -57.11 | X-H torsion

> <Gold.Protein.ActiveResidues>
 VAL166  LYS551  ARG553  GLY616  TRP617  ASP618  TYR619  PRO620  LYS621  CYS622 
 ASP623  PHE694  ASN695  SER759  ASP760  ASP761  ALA762  ILE779  LEU786  VAL792 
 PHE793  MET794  SER795  GLU796  ALA797  LYS798  CYS799  TRP800  GLU811  SER814 

> <Gold.Protein.RotatedAtoms>
  151.2599  135.0650  159.9093 H   0  0  0  0  0  0  0  0  0  0  0  0  # atno 6907 bound_to 6896
  152.5367  134.0242  159.8006 H   0  0  0  0  0  0  0  0  0  0  0  0  # atno 6908 bound_to 6896
  151.0463  133.5612  159.2677 H   0  0  0  0  0  0  0  0  0  0  0  0  # atno 6909 bound_to 6896
  145.8851  140.8114  142.9820 H   0  0  0  0  0  0  0  0  0  0  0  0  # atno 7974 bound_to 7965
  156.1727  140.3116  155.9003 H   0  0  0  0  0  0  0  0  0  0  0  0  # atno 8008 bound_to 7997
  155.3553  140.0473  157.3063 H   0  0  0  0  0  0  0  0  0  0  0  0  # atno 8009 bound_to 7997
  154.5258  140.2214  155.8904 H   0  0  0  0  0  0  0  0  0  0  0  0  # atno 8010 bound_to 7997
  139.6250  144.0550  152.1966 H   0  0  0  0  0  0  0  0  0  0  0  0  # atno 10167 bound_to 10162
  156.3952  130.4380  149.7364 H   0  0  0  0  0  0  0  0  0  0  0  0  # atno 10718 bound_to 10713
  153.0861  135.4883  154.8599 H   0  0  0  0  0  0  0  0  0  0  0  0  # atno 10763 bound_to 10752
  154.7212  135.3040  154.9047 H   0  0  0  0  0  0  0  0  0  0  0  0  # atno 10764 bound_to 10752
  153.9711  135.6801  153.4800 H   0  0  0  0  0  0  0  0  0  0  0  0  # atno 10765 bound_to 10752
  139.8843  134.8657  156.3388 H   0  0  0  0  0  0  0  0  0  0  0  0  # atno 11005 bound_to 11000
  144.6728  140.1444  143.7434 LP  0  0  0  0  0  0  0  0  0  0  0  0  # atno 17320 bound_to 7965
  145.8976  139.2412  143.1512 LP  0  0  0  0  0  0  0  0  0  0  0  0  # atno 17321 bound_to 7965
  140.0201  144.6159  150.7573 LP  0  0  0  0  0  0  0  0  0  0  0  0  # atno 17342 bound_to 10162
  140.7405  143.2806  151.3611 LP  0  0  0  0  0  0  0  0  0  0  0  0  # atno 17343 bound_to 10162
  156.4402  130.7857  151.2878 LP  0  0  0  0  0  0  0  0  0  0  0  0  # atno 17370 bound_to 10713
  157.7501  131.0127  150.3395 LP  0  0  0  0  0  0  0  0  0  0  0  0  # atno 17371 bound_to 10713
  140.9673  133.7350  156.0484 LP  0  0  0  0  0  0  0  0  0  0  0  0  # atno 17394 bound_to 11000
  140.7915  134.3612  157.5463 LP  0  0  0  0  0  0  0  0  0  0  0  0  # atno 17395 bound_to 11000

$$$$
