AV-unprocessed.smi:487|AV-procd|sdf|2700|dock6
  -GOLD-   2262023133D 1   1.00000     0.00000
 Structure written by MMmdl.
 40 41  0  0  0  0  0  0  0  0  2 V2000
  150.0328  140.1068  157.1616 O   0  0  0  0  0  0  0  0  0  0  0  0
  149.7235  141.0865  156.4839 C   0  0  0  0  0  0  0  0  0  0  0  0
  148.8926  140.8789  155.2056 C   0  0  0  0  0  0  0  0  0  0  0  0
  147.6411  141.6566  155.1453 N   0  0  0  0  0  0  0  0  0  0  0  0
  147.3359  142.3031  153.9345 C   0  0  0  0  0  0  0  0  0  0  0  0
  146.2212  143.0437  153.7854 C   0  0  0  0  0  0  0  0  0  0  0  0
  145.3174  143.1668  154.9222 C   0  0  0  0  0  0  0  0  0  0  0  0
  144.2943  143.8383  154.8042 O   0  0  0  0  0  0  0  0  0  0  0  0
  145.6582  142.5225  156.0765 N   0  5  0  0  0  0  0  0  0  0  0  0
  146.7965  141.7744  156.2144 C   0  0  0  0  0  0  0  0  0  0  0  0
  147.0909  141.2107  157.2685 O   0  0  0  0  0  0  0  0  0  0  0  0
  150.0862  142.3403  156.8062 N   0  0  0  0  0  0  0  0  0  0  0  0
  150.8605  142.7402  157.9782 C   0  0  0  0  0  0  0  0  0  0  0  0
  151.3619  144.1916  157.7935 C   0  0  0  0  0  0  0  0  0  0  0  0
  150.9523  145.1661  158.9148 C   0  0  0  0  0  0  0  0  0  0  0  0
  151.0836  144.6761  160.3721 C   0  0  0  0  0  0  0  0  0  0  0  0
  152.4491  144.0961  160.7805 C   0  0  0  0  0  0  0  0  0  0  0  0
  152.5954  142.5676  160.6144 C   0  0  0  0  0  0  0  0  0  0  0  0
  153.0887  142.1036  159.2329 C   0  0  0  0  0  0  0  0  0  0  0  0
  151.9993  141.7210  158.2097 C   0  0  0  0  0  0  0  0  0  0  0  0
  149.5239  141.1251  154.3508 H   0  0  0  0  0  0  0  0  0  0  0  0
  148.6810  139.8136  155.1000 H   0  0  0  0  0  0  0  0  0  0  0  0
  148.0599  142.1660  153.1448 H   0  0  0  0  0  0  0  0  0  0  0  0
  146.0029  143.5360  152.8493 H   0  0  0  0  0  0  0  0  0  0  0  0
  149.7797  143.0821  156.1928 H   0  0  0  0  0  0  0  0  0  0  0  0
  150.1844  142.6990  158.8310 H   0  0  0  0  0  0  0  0  0  0  0  0
  152.4439  144.2130  157.6758 H   0  0  0  0  0  0  0  0  0  0  0  0
  150.9904  144.6031  156.8534 H   0  0  0  0  0  0  0  0  0  0  0  0
  151.5293  146.0838  158.7958 H   0  0  0  0  0  0  0  0  0  0  0  0
  149.9127  145.4545  158.7549 H   0  0  0  0  0  0  0  0  0  0  0  0
  150.8861  145.5390  161.0091 H   0  0  0  0  0  0  0  0  0  0  0  0
  150.2899  143.9718  160.6201 H   0  0  0  0  0  0  0  0  0  0  0  0
  153.2632  144.6298  160.2889 H   0  0  0  0  0  0  0  0  0  0  0  0
  152.5725  144.3067  161.8435 H   0  0  0  0  0  0  0  0  0  0  0  0
  153.3446  142.2459  161.3389 H   0  0  0  0  0  0  0  0  0  0  0  0
  151.6814  142.0456  160.9003 H   0  0  0  0  0  0  0  0  0  0  0  0
  153.7719  142.8421  158.8140 H   0  0  0  0  0  0  0  0  0  0  0  0
  153.7060  141.2165  159.3792 H   0  0  0  0  0  0  0  0  0  0  0  0
  151.5560  140.7723  158.5149 H   0  0  0  0  0  0  0  0  0  0  0  0
  152.4963  141.5179  157.2599 H   0  0  0  0  0  0  0  0  0  0  0  0
  1  2  2  0  0  0  0
  2  3  1  0  0  0  0
  2 12  1  0  0  0  0
  3  4  1  0  0  0  0
  3 21  1  0  0  0  0
  3 22  1  0  0  0  0
  4 10  1  0  0  0  0
  4  5  1  0  0  0  0
  5  6  2  0  0  0  0
  5 23  1  0  0  0  0
  6  7  1  0  0  0  0
  6 24  1  0  0  0  0
  7  8  2  0  0  0  0
  7  9  1  0  0  0  0
  9 10  1  0  0  0  0
 10 11  2  0  0  0  0
 12 13  1  0  0  0  0
 12 25  1  0  0  0  0
 13 20  1  0  0  0  0
 13 14  1  0  0  0  0
 13 26  1  0  0  0  0
 14 15  1  0  0  0  0
 14 27  1  0  0  0  0
 14 28  1  0  0  0  0
 15 16  1  0  0  0  0
 15 29  1  0  0  0  0
 15 30  1  0  0  0  0
 16 17  1  0  0  0  0
 16 31  1  0  0  0  0
 16 32  1  0  0  0  0
 17 18  1  0  0  0  0
 17 33  1  0  0  0  0
 17 34  1  0  0  0  0
 18 19  1  0  0  0  0
 18 35  1  0  0  0  0
 18 36  1  0  0  0  0
 19 20  1  0  0  0  0
 19 37  1  0  0  0  0
 19 38  1  0  0  0  0
 20 39  1  0  0  0  0
 20 40  1  0  0  0  0
M  CHG  1   9  -1
M  END
> <s_m_source_file>
AV-unprocessed.smi

> <i_m_source_file_index>
487

> <i_lp_mmshare_version>
43012

> <i_f3d_flags>
0

> <s_epik_input>
Tz1jMVtuSF1jKD1PKVtjSF1bY0hdbjFbQ0gyXUMoPU8pW05IXVtDSF0yW0NIMl1bQ0gyXVtDSDJdW0NIMl1bQ0gyXVtDSDJdW0NIMl0y

> <s_epik_cmdline>
J2VwaWtfcHl0aG9uJywgJy1waCcsICc3LjAnLCAnLXRuJywgJzgnLCAnLW1hJywgJzIwMCcsICctbWV0YWxfYmluZGluZycsICctaW1hZScsICc8aW5maWxlLm1hZT4nLCAnLW9tYWUnLCAnPG91dGZpbGUubWFlPic=

> <r_lp_tautomer_probability>
0.999537

> <r_epik_Ionization_Penalty>
3.09244

> <r_epik_Ionization_Penalty_Charging>
2.84692e-08

> <r_epik_Ionization_Penalty_Neutral>
3.09244

> <r_epik_State_Penalty>
3.09149

> <r_epik_Charging_Adjusted_Penalty>
3.09149

> <i_epik_Tot_Q>
-1

> <i_epik_Tot_abs_Q>
1

> <r_epik_Metal_State_Penalty>
0.461034

> <b_epik_Metal_Only>
1

> <s_lp_Force_Field>
OPLS_2005

> <r_lp_Energy>
30.2877

> <b_lp_Chiralities_Consistent>
1

> <s_lp_Variant>
AV-unprocessed.smi:487-2

> <Gold.Version>
5.8.1

> <Gold.Id.Protein>
6NUR|6NUR_protein|mol2

> <Gold.PLP.Fitness>
43.6217

> <Gold.PLP.PLP>
-41.5102

> <Gold.PLP.part.hbond>
-1.0000

> <Gold.PLP.part.metal>
0.0000

> <Gold.PLP.part.buried>
-7.3010

> <Gold.PLP.part.nonpolar>
-33.6313

> <Gold.PLP.part.repulsive>
0.3603

> <Gold.PLP.ligand.clash>
0.0072

> <Gold.PLP.ligand.torsion>
0.4470

> <Gold.PLP.Chemscore.Hbond>
1.0000

> <Gold.PLP.Chemscore.CHOScore>
0.0000

> <Gold.PLP.Chemscore.Metal>
0.0000

> <Gold.Chemscore.Hbonds>
donor molecule, donor type, donor heavy atom, donor atom, acceptor molecule, acceptor atom, score
      L1  H    12    25       P1  8028  1.00

> <Gold.PLP.Chemscore.Internal.Correction>
0.0127

> <Gold.Rescore>
     Score         DG    S(hbond)    S(metal)    S(lipo)     H(rot)  DE(clash)    DE(int)     intcor
     14.00     -17.07       0.99        0.00     106.73       1.64       0.19       2.87       ----

> <Gold.Chemscore.Fitness>
14.0029

> <Gold.Chemscore.DG>
-17.0680

> <Gold.Chemscore.ZeroCoef>
-5.4800

> <Gold.Chemscore.Hbond>
0.9907

> <Gold.Chemscore.Metal>
0.0000

> <Gold.Chemscore.Lipo>
106.7266

> <Gold.Chemscore.Internal_Hbond>
0.0000

> <Gold.Chemscore.DEClash>
0.1907

> <Gold.Chemscore.DEInternal>
2.8744

> <Gold.Chemscore.Rot>
1.6438

> <Gold.Chemscore.Internal.Correction>
   9.000000E+99

> <Gold.Chemscore.Hbonds>
donor molecule, donor type, donor heavy atom, donor atom, acceptor molecule, acceptor atom, score
      L1  H    12    25       P1  8028  0.98

> <Gold.Chemscore.Hbond.Weighted>
-3.3090

> <Gold.Chemscore.Metal.Weighted>
-0.0000

> <Gold.Chemscore.Lipo.Weighted>
-12.4870

> <Gold.Chemscore.Internal_Hbond.Weighted>
0.0000

> <Gold.Chemscore.DEClash.Weighted>
0.1907

> <Gold.Chemscore.DEInternal.Weighted>
2.8744

> <Gold.Chemscore.Rot.Weighted>
4.2080

> <Gold.Chemscore.Internal.Correction.Weighted>
   9.000000E+99

> <Gold.Protein.RotatedTorsions>
[ 6907 6896 6895 6894 ] final  111.25 input  -60.11 | X-H torsion
[ 7974 7965 7964 7962 ] final   38.55 input  175.53 | X-H torsion
[ 8008 7997 7996 7995 ] final  -10.91 input   59.86 | X-H torsion
[ 10167 10162 10161 10158 ] final  151.72 input  -65.29 | X-H torsion
[ 10718 10713 10712 10709 ] final  107.59 input   66.30 | X-H torsion
[ 10763 10752 10751 10750 ] final   43.16 input  -60.55 | X-H torsion
[ 11005 11000 10999 10996 ] final   51.46 input  -57.11 | X-H torsion

> <Gold.Protein.ActiveResidues>
 VAL166  LYS551  ARG553  GLY616  TRP617  ASP618  TYR619  PRO620  LYS621  CYS622 
 ASP623  PHE694  ASN695  SER759  ASP760  ASP761  ALA762  ILE779  LEU786  VAL792 
 PHE793  MET794  SER795  GLU796  ALA797  LYS798  CYS799  TRP800  GLU811  SER814 

> <Gold.Protein.RotatedAtoms>
  152.4979  133.8684  159.7285 H   0  0  0  0  0  0  0  0  0  0  0  0  # atno 6907 bound_to 6896
  150.9177  133.6910  159.2846 H   0  0  0  0  0  0  0  0  0  0  0  0  # atno 6908 bound_to 6896
  151.4297  135.1012  159.9691 H   0  0  0  0  0  0  0  0  0  0  0  0  # atno 6909 bound_to 6896
  146.1053  139.5758  142.9387 H   0  0  0  0  0  0  0  0  0  0  0  0  # atno 7974 bound_to 7965
  154.5511  140.2316  155.8483 H   0  0  0  0  0  0  0  0  0  0  0  0  # atno 8008 bound_to 7997
  156.1948  140.3068  155.9365 H   0  0  0  0  0  0  0  0  0  0  0  0  # atno 8009 bound_to 7997
  155.3068  140.0434  157.3023 H   0  0  0  0  0  0  0  0  0  0  0  0  # atno 8010 bound_to 7997
  139.4838  144.5417  151.7552 H   0  0  0  0  0  0  0  0  0  0  0  0  # atno 10167 bound_to 10162
  157.6622  131.0876  150.6179 H   0  0  0  0  0  0  0  0  0  0  0  0  # atno 10718 bound_to 10713
  152.9867  135.6110  154.3066 H   0  0  0  0  0  0  0  0  0  0  0  0  # atno 10763 bound_to 10752
  154.2784  135.2777  155.2710 H   0  0  0  0  0  0  0  0  0  0  0  0  # atno 10764 bound_to 10752
  154.5060  135.5854  153.6624 H   0  0  0  0  0  0  0  0  0  0  0  0  # atno 10765 bound_to 10752
  140.0931  134.5182  155.8833 H   0  0  0  0  0  0  0  0  0  0  0  0  # atno 11005 bound_to 11000
  145.5773  141.0387  143.2141 LP  0  0  0  0  0  0  0  0  0  0  0  0  # atno 17320 bound_to 7965
  144.7466  139.7305  143.7290 LP  0  0  0  0  0  0  0  0  0  0  0  0  # atno 17321 bound_to 7965
  140.4958  144.1243  150.5960 LP  0  0  0  0  0  0  0  0  0  0  0  0  # atno 17342 bound_to 10162
  140.4119  143.2653  151.9822 LP  0  0  0  0  0  0  0  0  0  0  0  0  # atno 17343 bound_to 10162
  156.6481  130.4477  149.5729 LP  0  0  0  0  0  0  0  0  0  0  0  0  # atno 17370 bound_to 10713
  156.2158  130.6707  151.1317 LP  0  0  0  0  0  0  0  0  0  0  0  0  # atno 17371 bound_to 10713
  141.2084  133.6673  156.6368 LP  0  0  0  0  0  0  0  0  0  0  0  0  # atno 17394 bound_to 11000
  140.3324  134.7917  157.4336 LP  0  0  0  0  0  0  0  0  0  0  0  0  # atno 17395 bound_to 11000

$$$$
