AV-unprocessed.smi:92|AV-procd|sdf|843|dock9
  -GOLD-   2262017283D 1   1.00000     0.00000
 Structure written by MMmdl.
 61 64  0  0  0  0  0  0  0  0  2 V2000
  153.8965  126.9838  157.3730 C   0  0  0  0  0  0  0  0  0  0  0  0
  153.7274  128.5011  157.2138 C   0  0  0  0  0  0  0  0  0  0  0  0
  153.6562  128.9196  155.7880 N   0  3  2  0  0  0  0  0  0  0  0  0
  153.6326  130.3900  155.6000 C   0  0  0  0  0  0  0  0  0  0  0  0
  152.2741  130.9784  156.0038 C   0  0  0  0  0  0  0  0  0  0  0  0
  151.1116  130.3443  155.2039 C   0  0  2  0  0  0  0  0  0  0  0  0
  149.8144  130.9422  155.5628 N   0  0  0  0  0  0  0  0  0  0  0  0
  149.5205  131.3220  156.9391 C   0  0  0  0  0  0  0  0  0  0  0  0
  149.1275  131.6369  154.6262 C   0  0  0  0  0  0  0  0  0  0  0  0
  149.4190  132.9545  154.4873 N   0  0  0  0  0  0  0  0  0  0  0  0
  148.7684  133.6929  153.5833 C   0  0  0  0  0  0  0  0  0  0  0  0
  147.8087  133.3184  152.7352 N   0  0  0  0  0  0  0  0  0  0  0  0
  147.5206  131.9915  152.8645 C   0  0  0  0  0  0  0  0  0  0  0  0
  148.1355  131.0813  153.7701 C   0  0  0  0  0  0  0  0  0  0  0  0
  147.5977  129.8117  153.5999 N   0  0  0  0  0  0  0  0  0  0  0  0
  146.7202  129.9610  152.6460 C   0  0  0  0  0  0  0  0  0  0  0  0
  146.5821  131.2459  152.1721 N   0  0  0  0  0  0  0  0  0  0  0  0
  145.7164  131.6826  151.1159 C   0  0  0  0  0  0  0  0  0  0  0  0
  146.0478  132.9305  150.2923 C   0  0  0  0  0  0  0  0  0  0  0  0
  144.5501  133.3008  150.2229 C   0  0  0  0  0  0  0  0  0  0  0  0
  144.2269  134.7709  150.5320 C   0  0  0  0  0  0  0  0  0  0  0  0
  144.6357  135.6230  149.4811 O   0  0  0  0  0  0  0  0  0  0  0  0
  143.7937  132.9308  148.9276 C   0  0  0  0  0  0  0  0  0  0  0  0
  142.7073  132.0537  149.1457 O   0  0  0  0  0  0  0  0  0  0  0  0
  144.3671  132.3423  151.4210 C   0  0  0  0  0  0  0  0  0  0  0  0
  151.1642  128.7914  155.3184 C   0  0  1  0  0  0  0  0  0  0  0  0
  150.1646  128.0712  154.3942 C   0  0  0  0  0  0  0  0  0  0  0  0
  152.5845  128.2637  154.9942 C   0  0  0  0  0  0  0  0  0  0  0  0
  154.0422  126.7234  158.4217 H   0  0  0  0  0  0  0  0  0  0  0  0
  154.7648  126.6235  156.8207 H   0  0  0  0  0  0  0  0  0  0  0  0
  153.0223  126.4348  157.0242 H   0  0  0  0  0  0  0  0  0  0  0  0
  152.8550  128.8455  157.7688 H   0  0  0  0  0  0  0  0  0  0  0  0
  154.5903  128.9797  157.6786 H   0  0  0  0  0  0  0  0  0  0  0  0
  154.4381  130.8573  156.1681 H   0  0  0  0  0  0  0  0  0  0  0  0
  153.8311  130.6124  154.5506 H   0  0  0  0  0  0  0  0  0  0  0  0
  152.1347  130.8320  157.0749 H   0  0  0  0  0  0  0  0  0  0  0  0
  152.2860  132.0568  155.8416 H   0  0  0  0  0  0  0  0  0  0  0  0
  151.2803  130.5972  154.1563 H   0  0  0  0  0  0  0  0  0  0  0  0
  149.5625  132.4012  157.0848 H   0  0  0  0  0  0  0  0  0  0  0  0
  150.2236  130.8584  157.6312 H   0  0  0  0  0  0  0  0  0  0  0  0
  148.5189  130.9863  157.2088 H   0  0  0  0  0  0  0  0  0  0  0  0
  149.0548  134.7334  153.5353 H   0  0  0  0  0  0  0  0  0  0  0  0
  146.1389  129.1327  152.2675 H   0  0  0  0  0  0  0  0  0  0  0  0
  145.5840  130.8174  150.4653 H   0  0  0  0  0  0  0  0  0  0  0  0
  146.6365  133.6550  150.8577 H   0  0  0  0  0  0  0  0  0  0  0  0
  146.5123  132.7215  149.3280 H   0  0  0  0  0  0  0  0  0  0  0  0
  143.1599  134.9122  150.7081 H   0  0  0  0  0  0  0  0  0  0  0  0
  144.7347  135.0985  151.4398 H   0  0  0  0  0  0  0  0  0  0  0  0
  145.3064  135.1837  148.9810 H   0  0  0  0  0  0  0  0  0  0  0  0
  143.4047  133.8245  148.4386 H   0  0  0  0  0  0  0  0  0  0  0  0
  144.4598  132.4489  148.2115 H   0  0  0  0  0  0  0  0  0  0  0  0
  141.9400  132.5691  149.3421 H   0  0  0  0  0  0  0  0  0  0  0  0
  143.5118  131.6703  151.3452 H   0  0  0  0  0  0  0  0  0  0  0  0
  144.3670  132.8606  152.3814 H   0  0  0  0  0  0  0  0  0  0  0  0
  150.9263  128.5085  156.3434 H   0  0  0  0  0  0  0  0  0  0  0  0
  150.3028  128.3656  153.3533 H   0  0  0  0  0  0  0  0  0  0  0  0
  149.1309  128.2742  154.6642 H   0  0  0  0  0  0  0  0  0  0  0  0
  150.2908  126.9896  154.4502 H   0  0  0  0  0  0  0  0  0  0  0  0
  152.8008  128.4409  153.9396 H   0  0  0  0  0  0  0  0  0  0  0  0
  152.6291  127.1830  155.1247 H   0  0  0  0  0  0  0  0  0  0  0  0
  154.5303  128.6133  155.3846 H   0  0  0  0  0  0  0  0  0  0  0  0
  1  2  1  0  0  0  0
  1 29  1  0  0  0  0
  1 30  1  0  0  0  0
  1 31  1  0  0  0  0
  2  3  1  0  0  0  0
  2 32  1  0  0  0  0
  2 33  1  0  0  0  0
  3 28  1  0  0  0  0
  3  4  1  0  0  0  0
  3 61  1  0  0  0  0
  4  5  1  0  0  0  0
  4 34  1  0  0  0  0
  4 35  1  0  0  0  0
  5  6  1  0  0  0  0
  5 36  1  0  0  0  0
  5 37  1  0  0  0  0
  6  7  1  0  0  0  0
  6 26  1  0  0  0  0
  6 38  1  0  0  0  0
  7  8  1  0  0  0  0
  7  9  1  0  0  0  0
  8 39  1  0  0  0  0
  8 40  1  0  0  0  0
  8 41  1  0  0  0  0
  9 14  1  0  0  0  0
  9 10  2  0  0  0  0
 10 11  1  0  0  0  0
 11 12  2  0  0  0  0
 11 42  1  0  0  0  0
 12 13  1  0  0  0  0
 13 17  1  0  0  0  0
 13 14  2  0  0  0  0
 14 15  1  0  0  0  0
 15 16  2  0  0  0  0
 16 17  1  0  0  0  0
 16 43  1  0  0  0  0
 17 18  1  0  0  0  0
 18 25  1  0  0  0  0
 18 19  1  0  0  0  0
 18 44  1  0  0  0  0
 19 20  1  0  0  0  0
 19 45  1  0  0  0  0
 19 46  1  0  0  0  0
 20 21  1  0  0  0  0
 20 23  1  0  0  0  0
 20 25  1  0  0  0  0
 21 22  1  0  0  0  0
 21 47  1  0  0  0  0
 21 48  1  0  0  0  0
 22 49  1  0  0  0  0
 23 24  1  0  0  0  0
 23 50  1  0  0  0  0
 23 51  1  0  0  0  0
 24 52  1  0  0  0  0
 25 53  1  0  0  0  0
 25 54  1  0  0  0  0
 26 27  1  0  0  0  0
 26 28  1  0  0  0  0
 26 55  1  0  0  0  0
 27 56  1  0  0  0  0
 27 57  1  0  0  0  0
 27 58  1  0  0  0  0
 28 59  1  0  0  0  0
 28 60  1  0  0  0  0
M  CHG  1   3   1
M  END
> <s_m_source_file>
AV-unprocessed.smi

> <i_m_source_file_index>
92

> <i_lp_mmshare_version>
43012

> <i_f3d_flags>
0

> <s_epik_input>
W0NIM11bQ0gyXU4xW0NIMl1bQ0gyXVtDQEhdKFtDQEBIXShbQ0gzXSlbQ0gyXTEpTihbQ0gzXSljKG5bY0hdbjIpYyhjMjMpbltjSF1uM1tDSF0oW0NIMl00KVtDSDJdQzQoW0NIMl1bT0hdKVtDSDJdW09IXQ==

> <s_epik_cmdline>
J2VwaWtfcHl0aG9uJywgJy1waCcsICc3LjAnLCAnLXRuJywgJzgnLCAnLW1hJywgJzIwMCcsICctbWV0YWxfYmluZGluZycsICctaW1hZScsICc8aW5maWxlLm1hZT4nLCAnLW9tYWUnLCAnPG91dGZpbGUubWFlPic=

> <r_lp_tautomer_probability>
1

> <r_epik_Ionization_Penalty>
0.00235514

> <r_epik_Ionization_Penalty_Charging>
0.00137877

> <r_epik_Ionization_Penalty_Neutral>
0.000976366

> <r_epik_State_Penalty>
-0

> <r_epik_Charging_Adjusted_Penalty>
0.00137877

> <i_epik_Tot_Q>
1

> <i_epik_Tot_abs_Q>
1

> <r_epik_Metal_State_Penalty>
-0

> <b_epik_Metal_Only>
0

> <s_lp_Force_Field>
OPLS_2005

> <r_lp_Energy>
56.5643

> <b_lp_Chiralities_Consistent>
1

> <s_lp_Variant>
AV-unprocessed.smi:92-3

> <Gold.Version>
5.8.1

> <Gold.Id.Protein>
6NUR|6NUR_protein|mol2

> <Gold.PLP.Fitness>
51.1032

> <Gold.PLP.PLP>
-45.6093

> <Gold.PLP.part.hbond>
-4.4921

> <Gold.PLP.part.metal>
0.0000

> <Gold.PLP.part.buried>
-2.6993

> <Gold.PLP.part.nonpolar>
-38.5583

> <Gold.PLP.part.repulsive>
0.3759

> <Gold.PLP.ligand.clash>
0.0000

> <Gold.PLP.ligand.torsion>
3.4739

> <Gold.PLP.Chemscore.Hbond>
2.9750

> <Gold.PLP.Chemscore.CHOScore>
0.7544

> <Gold.PLP.Chemscore.Metal>
0.0000

> <Gold.Chemscore.Hbonds>
donor molecule, donor type, donor heavy atom, donor atom, acceptor molecule, acceptor atom, score
      L1  H    22    49       P1  7921  1.00
      L1  H    24    52       P1 10186  0.91
      P1  H 10785 10796       L1    24  1.00
      L1  C    11    42       P1  7948  0.89

> <Gold.PLP.Chemscore.Internal.Correction>
1.2535

> <Gold.Rescore>
     Score         DG    S(hbond)    S(metal)    S(lipo)     H(rot)  DE(clash)    DE(int)     intcor
     11.49     -16.11       2.59        0.00      87.33       3.22       0.17       4.46       ----

> <Gold.Chemscore.Fitness>
11.4905

> <Gold.Chemscore.DG>
-16.1126

> <Gold.Chemscore.ZeroCoef>
-5.4800

> <Gold.Chemscore.Hbond>
2.5938

> <Gold.Chemscore.Metal>
0.0000

> <Gold.Chemscore.Lipo>
87.3293

> <Gold.Chemscore.Internal_Hbond>
0.0000

> <Gold.Chemscore.DEClash>
0.1658

> <Gold.Chemscore.DEInternal>
4.4563

> <Gold.Chemscore.Rot>
3.2219

> <Gold.Chemscore.Internal.Correction>
   9.000000E+99

> <Gold.Chemscore.Hbonds>
donor molecule, donor type, donor heavy atom, donor atom, acceptor molecule, acceptor atom, score
      L1  H    22    49       P1  7921  0.97
      L1  H    24    52       P1 10186  0.83
      P1  H 10785 10796       L1    24  0.78

> <Gold.Chemscore.Hbond.Weighted>
-8.6632

> <Gold.Chemscore.Metal.Weighted>
-0.0000

> <Gold.Chemscore.Lipo.Weighted>
-10.2175

> <Gold.Chemscore.Internal_Hbond.Weighted>
0.0000

> <Gold.Chemscore.DEClash.Weighted>
0.1658

> <Gold.Chemscore.DEInternal.Weighted>
4.4563

> <Gold.Chemscore.Rot.Weighted>
8.2482

> <Gold.Chemscore.Internal.Correction.Weighted>
   9.000000E+99

> <Gold.Protein.RotatedTorsions>
[ 6907 6896 6895 6894 ] final -150.95 input  -60.11 | X-H torsion
[ 7974 7965 7964 7962 ] final -162.39 input  175.53 | X-H torsion
[ 8008 7997 7996 7995 ] final  -60.82 input   59.86 | X-H torsion
[ 10167 10162 10161 10158 ] final  109.37 input  -65.29 | X-H torsion
[ 10718 10713 10712 10709 ] final   47.45 input   66.30 | X-H torsion
[ 10763 10752 10751 10750 ] final   11.28 input  -60.55 | X-H torsion
[ 11005 11000 10999 10996 ] final  -92.40 input  -57.11 | X-H torsion

> <Gold.Protein.ActiveResidues>
 VAL166  LYS551  ARG553  GLY616  TRP617  ASP618  TYR619  PRO620  LYS621  CYS622 
 ASP623  PHE694  ASN695  SER759  ASP760  ASP761  ALA762  ILE779  LEU786  VAL792 
 PHE793  MET794  SER795  GLU796  ALA797  LYS798  CYS799  TRP800  GLU811  SER814 

> <Gold.Protein.RotatedAtoms>
  151.2059  133.4583  159.2596 H   0  0  0  0  0  0  0  0  0  0  0  0  # atno 6907 bound_to 6896
  151.1023  134.9979  159.8465 H   0  0  0  0  0  0  0  0  0  0  0  0  # atno 6908 bound_to 6896
  152.5444  134.1985  159.8755 H   0  0  0  0  0  0  0  0  0  0  0  0  # atno 6909 bound_to 6896
  144.7359  140.3260  143.6162 H   0  0  0  0  0  0  0  0  0  0  0  0  # atno 7974 bound_to 7965
  154.4417  140.1031  156.6333 H   0  0  0  0  0  0  0  0  0  0  0  0  # atno 8008 bound_to 7997
  155.5581  140.3487  155.4466 H   0  0  0  0  0  0  0  0  0  0  0  0  # atno 8009 bound_to 7997
  156.0480  140.1297  157.0071 H   0  0  0  0  0  0  0  0  0  0  0  0  # atno 8010 bound_to 7997
  139.6772  144.7121  151.1581 H   0  0  0  0  0  0  0  0  0  0  0  0  # atno 10167 bound_to 10162
  157.4586  130.8182  149.7863 H   0  0  0  0  0  0  0  0  0  0  0  0  # atno 10718 bound_to 10713
  153.1943  135.6847  153.8312 H   0  0  0  0  0  0  0  0  0  0  0  0  # atno 10763 bound_to 10752
  153.7600  135.3211  155.3336 H   0  0  0  0  0  0  0  0  0  0  0  0  # atno 10764 bound_to 10752
  154.8135  135.4701  154.0680 H   0  0  0  0  0  0  0  0  0  0  0  0  # atno 10765 bound_to 10752
  141.1523  133.7818  157.0014 H   0  0  0  0  0  0  0  0  0  0  0  0  # atno 11005 bound_to 11000
  145.7520  139.1797  143.2316 LP  0  0  0  0  0  0  0  0  0  0  0  0  # atno 17320 bound_to 7965
  146.1053  140.7494  142.9529 LP  0  0  0  0  0  0  0  0  0  0  0  0  # atno 17321 bound_to 7965
  140.7639  143.5754  150.8951 LP  0  0  0  0  0  0  0  0  0  0  0  0  # atno 17342 bound_to 10162
  139.9423  143.6367  152.3050 LP  0  0  0  0  0  0  0  0  0  0  0  0  # atno 17343 bound_to 10162
  156.0018  130.3876  150.2576 LP  0  0  0  0  0  0  0  0  0  0  0  0  # atno 17370 bound_to 10713
  157.0752  131.0128  151.3176 LP  0  0  0  0  0  0  0  0  0  0  0  0  # atno 17371 bound_to 10713
  140.0937  134.9577  157.1817 LP  0  0  0  0  0  0  0  0  0  0  0  0  # atno 17394 bound_to 11000
  140.3411  134.2703  155.7212 LP  0  0  0  0  0  0  0  0  0  0  0  0  # atno 17395 bound_to 11000

$$$$
