AV-unprocessed.smi:1826|AV-procd|sdf|7418|dock6
  -GOLD-   22720 9103D 1   1.00000     0.00000
 Structure written by MMmdl.
 40 42  0  0  0  0  0  0  0  0  2 V2000
  149.0847  142.3697  154.4912 O   0  0  0  0  0  0  0  0  0  0  0  0
  149.7662  141.3442  155.1837 C   0  0  0  0  0  0  0  0  0  0  0  0
  150.5197  141.8367  156.3779 C   0  0  0  0  0  0  0  0  0  0  0  0
  150.6034  143.1282  156.8078 N   0  3  0  0  0  0  0  0  0  0  0  0
  151.4099  143.1988  157.9438 C   0  0  0  0  0  0  0  0  0  0  0  0
  151.7902  144.2853  158.7253 C   0  0  0  0  0  0  0  0  0  0  0  0
  152.6334  144.0115  159.8222 C   0  0  0  0  0  0  0  0  0  0  0  0
  153.0644  142.6995  160.1074 C   0  0  0  0  0  0  0  0  0  0  0  0
  152.6703  141.6058  159.3087 C   0  0  0  0  0  0  0  0  0  0  0  0
  151.8374  141.8851  158.2255 C   0  0  0  0  0  0  0  0  0  0  0  0
  151.2614  141.0794  157.2365 N   0  0  0  0  0  0  0  0  0  0  0  0
  151.5238  139.6296  157.2399 C   0  0  0  0  0  0  0  0  0  0  0  0
  151.6336  138.9829  155.8331 C   0  0  1  0  0  0  0  0  0  0  0  0
  152.9254  139.1132  155.2649 O   0  0  0  0  0  0  0  0  0  0  0  0
  151.1425  137.5420  155.8375 C   0  0  0  0  0  0  0  0  0  0  0  0
  150.0059  137.1856  155.0816 C   0  0  0  0  0  0  0  0  0  0  0  0
  149.5368  135.8575  155.0843 C   0  0  0  0  0  0  0  0  0  0  0  0
  150.1984  134.8679  155.8426 C   0  0  0  0  0  0  0  0  0  0  0  0
  149.6840  133.4359  155.8519 C   0  0  0  0  0  0  0  0  0  0  0  0
  150.4938  132.6405  156.5517 F   0  0  0  0  0  0  0  0  0  0  0  0
  148.4727  133.4089  156.4062 F   0  0  0  0  0  0  0  0  0  0  0  0
  149.5995  132.9563  154.6107 F   0  0  0  0  0  0  0  0  0  0  0  0
  151.3289  135.2274  156.6077 C   0  0  0  0  0  0  0  0  0  0  0  0
  151.7991  136.5546  156.6040 C   0  0  0  0  0  0  0  0  0  0  0  0
  149.3161  143.1999  154.8795 H   0  0  0  0  0  0  0  0  0  0  0  0
  149.0443  140.5917  155.5018 H   0  0  0  0  0  0  0  0  0  0  0  0
  150.4620  140.8591  154.4991 H   0  0  0  0  0  0  0  0  0  0  0  0
  151.4619  145.2911  158.5072 H   0  0  0  0  0  0  0  0  0  0  0  0
  152.9567  144.8240  160.4566 H   0  0  0  0  0  0  0  0  0  0  0  0
  153.7112  142.5277  160.9556 H   0  0  0  0  0  0  0  0  0  0  0  0
  153.0073  140.6058  159.5368 H   0  0  0  0  0  0  0  0  0  0  0  0
  152.4145  139.4391  157.8395 H   0  0  0  0  0  0  0  0  0  0  0  0
  150.7096  139.1587  157.7917 H   0  0  0  0  0  0  0  0  0  0  0  0
  150.9770  139.5413  155.1644 H   0  0  0  0  0  0  0  0  0  0  0  0
  152.8332  139.1833  154.3268 H   0  0  0  0  0  0  0  0  0  0  0  0
  149.4867  137.9312  154.4973 H   0  0  0  0  0  0  0  0  0  0  0  0
  148.6631  135.6021  154.5026 H   0  0  0  0  0  0  0  0  0  0  0  0
  151.8411  134.4866  157.2037 H   0  0  0  0  0  0  0  0  0  0  0  0
  152.6646  136.8101  157.1978 H   0  0  0  0  0  0  0  0  0  0  0  0
  150.1428  143.9023  156.3464 H   0  0  0  0  0  0  0  0  0  0  0  0
  1  2  1  0  0  0  0
  1 25  1  0  0  0  0
  2  3  1  0  0  0  0
  2 26  1  0  0  0  0
  2 27  1  0  0  0  0
  3 11  1  0  0  0  0
  3  4  2  0  0  0  0
  4  5  1  0  0  0  0
  4 40  1  0  0  0  0
  5 10  2  0  0  0  0
  5  6  1  0  0  0  0
  6  7  2  0  0  0  0
  6 28  1  0  0  0  0
  7  8  1  0  0  0  0
  7 29  1  0  0  0  0
  8  9  2  0  0  0  0
  8 30  1  0  0  0  0
  9 10  1  0  0  0  0
  9 31  1  0  0  0  0
 10 11  1  0  0  0  0
 11 12  1  0  0  0  0
 12 13  1  0  0  0  0
 12 32  1  0  0  0  0
 12 33  1  0  0  0  0
 13 14  1  0  0  0  0
 13 15  1  0  0  0  0
 13 34  1  0  0  0  0
 14 35  1  0  0  0  0
 15 24  1  0  0  0  0
 15 16  2  0  0  0  0
 16 17  1  0  0  0  0
 16 36  1  0  0  0  0
 17 18  2  0  0  0  0
 17 37  1  0  0  0  0
 18 19  1  0  0  0  0
 18 23  1  0  0  0  0
 19 20  1  0  0  0  0
 19 21  1  0  0  0  0
 19 22  1  0  0  0  0
 23 24  2  0  0  0  0
 23 38  1  0  0  0  0
 24 39  1  0  0  0  0
M  CHG  1   4   1
M  END
> <s_m_source_file>
AV-unprocessed.smi

> <i_m_source_file_index>
1826

> <i_lp_mmshare_version>
43012

> <i_f3d_flags>
0

> <s_epik_input>
W2NIXTFbY0hdW2NIXVtjSF1jKGMxMiluKGMobjIpW0NIMl1bT0hdKVtDSDJdW0NASF0oW09IXSljM1tjSF1bY0hdYyhDKEYpKEYpRilbY0hdW2NIXTM=

> <s_epik_cmdline>
J2VwaWtfcHl0aG9uJywgJy1waCcsICc3LjAnLCAnLXRuJywgJzgnLCAnLW1hJywgJzIwMCcsICctbWV0YWxfYmluZGluZycsICctaW1hZScsICc8aW5maWxlLm1hZT4nLCAnLW9tYWUnLCAnPG91dGZpbGUubWFlPic=

> <r_epik_Ionization_Penalty>
1.35643

> <r_epik_Ionization_Penalty_Charging>
1.35557

> <r_epik_Ionization_Penalty_Neutral>
0.000856405

> <r_epik_State_Penalty>
1.43401

> <r_epik_Charging_Adjusted_Penalty>
2.78958

> <i_epik_Tot_Q>
1

> <i_epik_Tot_abs_Q>
1

> <r_epik_Metal_State_Penalty>
5.47166

> <b_epik_Metal_Only>
0

> <s_lp_Force_Field>
OPLS_2005

> <r_lp_Energy>
22.2169

> <b_lp_Chiralities_Consistent>
1

> <s_lp_Variant>
AV-unprocessed.smi:1826-4

> <Gold.Version>
5.8.1

> <Gold.Id.Protein>
6NUR|6NUR_protein|mol2

> <Gold.PLP.Fitness>
59.2664

> <Gold.PLP.PLP>
-48.3702

> <Gold.PLP.part.hbond>
-4.0000

> <Gold.PLP.part.metal>
0.0000

> <Gold.PLP.part.buried>
-4.7457

> <Gold.PLP.part.nonpolar>
-39.7044

> <Gold.PLP.part.repulsive>
0.0344

> <Gold.PLP.ligand.clash>
1.1226

> <Gold.PLP.ligand.torsion>
0.7819

> <Gold.PLP.Chemscore.Hbond>
4.0772

> <Gold.PLP.Chemscore.CHOScore>
0.0000

> <Gold.PLP.Chemscore.Metal>
0.0000

> <Gold.Chemscore.Hbonds>
donor molecule, donor type, donor heavy atom, donor atom, acceptor molecule, acceptor atom, score
      L1  H     1    25       P1  8028  1.00
      L1  H     4    40       P1  8028  2.00
      P1  H  7997  8010       L1    14  1.00
      P1  H  8011  8017       L1     1  0.08

> <Gold.PLP.Chemscore.Internal.Correction>
1.3510

> <Gold.Rescore>
     Score         DG    S(hbond)    S(metal)    S(lipo)     H(rot)  DE(clash)    DE(int)     intcor
     20.95     -21.64       2.96        0.00     118.97       2.98       0.06       0.63       ----

> <Gold.Chemscore.Fitness>
20.9506

> <Gold.Chemscore.DG>
-21.6406

> <Gold.Chemscore.ZeroCoef>
-5.4800

> <Gold.Chemscore.Hbond>
2.9568

> <Gold.Chemscore.Metal>
0.0000

> <Gold.Chemscore.Lipo>
118.9675

> <Gold.Chemscore.Internal_Hbond>
0.0000

> <Gold.Chemscore.DEClash>
0.0604

> <Gold.Chemscore.DEInternal>
0.6295

> <Gold.Chemscore.Rot>
2.9822

> <Gold.Chemscore.Internal.Correction>
   9.000000E+99

> <Gold.Chemscore.Hbonds>
donor molecule, donor type, donor heavy atom, donor atom, acceptor molecule, acceptor atom, score
      L1  H     1    25       P1  8028  0.95
      L1  H     4    40       P1  8028  0.99
      P1  H  7997  8010       L1    14  0.93
      P1  H  8011  8017       L1     1  0.03

> <Gold.Chemscore.Hbond.Weighted>
-9.8757

> <Gold.Chemscore.Metal.Weighted>
-0.0000

> <Gold.Chemscore.Lipo.Weighted>
-13.9192

> <Gold.Chemscore.Internal_Hbond.Weighted>
0.0000

> <Gold.Chemscore.DEClash.Weighted>
0.0604

> <Gold.Chemscore.DEInternal.Weighted>
0.6295

> <Gold.Chemscore.Rot.Weighted>
7.6343

> <Gold.Chemscore.Internal.Correction.Weighted>
   9.000000E+99

> <Gold.Protein.RotatedTorsions>
[ 6907 6896 6895 6894 ] final   38.49 input  -60.11 | X-H torsion
[ 7974 7965 7964 7962 ] final -113.45 input  175.53 | X-H torsion
[ 8008 7997 7996 7995 ] final   84.09 input   59.86 | X-H torsion
[ 10167 10162 10161 10158 ] final  -99.74 input  -65.29 | X-H torsion
[ 10718 10713 10712 10709 ] final   86.73 input   66.30 | X-H torsion
[ 10763 10752 10751 10750 ] final  161.75 input  -60.55 | X-H torsion
[ 11005 11000 10999 10996 ] final  -76.75 input  -57.11 | X-H torsion

> <Gold.Protein.ActiveResidues>
 VAL166  LYS551  ARG553  GLY616  TRP617  ASP618  TYR619  PRO620  LYS621  CYS622 
 ASP623  PHE694  ASN695  SER759  ASP760  ASP761  ALA762  ILE779  LEU786  VAL792 
 PHE793  MET794  SER795  GLU796  ALA797  LYS798  CYS799  TRP800  GLU811  SER814 

> <Gold.Protein.RotatedAtoms>
  152.1571  134.8942  160.0543 H   0  0  0  0  0  0  0  0  0  0  0  0  # atno 6907 bound_to 6896
  151.9952  133.3800  159.4168 H   0  0  0  0  0  0  0  0  0  0  0  0  # atno 6908 bound_to 6896
  150.6883  134.3816  159.5080 H   0  0  0  0  0  0  0  0  0  0  0  0  # atno 6909 bound_to 6896
  145.1319  140.8729  143.3753 H   0  0  0  0  0  0  0  0  0  0  0  0  # atno 7974 bound_to 7965
  155.9326  140.3414  155.6261 H   0  0  0  0  0  0  0  0  0  0  0  0  # atno 8008 bound_to 7997
  155.7139  140.0775  157.2378 H   0  0  0  0  0  0  0  0  0  0  0  0  # atno 8009 bound_to 7997
  154.4088  140.1617  156.2314 H   0  0  0  0  0  0  0  0  0  0  0  0  # atno 8010 bound_to 7997
  140.2592  143.3419  152.0642 H   0  0  0  0  0  0  0  0  0  0  0  0  # atno 10167 bound_to 10162
  157.6932  131.0227  150.3017 H   0  0  0  0  0  0  0  0  0  0  0  0  # atno 10718 bound_to 10713
  154.2678  135.2766  155.2751 H   0  0  0  0  0  0  0  0  0  0  0  0  # atno 10763 bound_to 10752
  154.5328  135.5725  153.6776 H   0  0  0  0  0  0  0  0  0  0  0  0  # atno 10764 bound_to 10752
  152.9950  135.6232  154.2832 H   0  0  0  0  0  0  0  0  0  0  0  0  # atno 10765 bound_to 10752
  141.1656  133.6995  156.7716 H   0  0  0  0  0  0  0  0  0  0  0  0  # atno 11005 bound_to 11000
  145.0626  139.3093  143.5872 LP  0  0  0  0  0  0  0  0  0  0  0  0  # atno 17320 bound_to 7965
  146.3513  140.0073  142.8670 LP  0  0  0  0  0  0  0  0  0  0  0  0  # atno 17321 bound_to 7965
  139.5022  144.6730  151.6198 LP  0  0  0  0  0  0  0  0  0  0  0  0  # atno 17342 bound_to 10162
  140.5979  143.9662  150.6367 LP  0  0  0  0  0  0  0  0  0  0  0  0  # atno 17343 bound_to 10162
  156.3532  130.3834  149.7312 LP  0  0  0  0  0  0  0  0  0  0  0  0  # atno 17370 bound_to 10713
  156.4782  130.8029  151.3044 LP  0  0  0  0  0  0  0  0  0  0  0  0  # atno 17371 bound_to 10713
  140.2460  134.8577  157.3620 LP  0  0  0  0  0  0  0  0  0  0  0  0  # atno 17394 bound_to 11000
  140.1749  134.4562  155.7808 LP  0  0  0  0  0  0  0  0  0  0  0  0  # atno 17395 bound_to 11000

$$$$
