AV-unprocessed.smi:243|AV-procd|sdf|1852|dock8
  -GOLD-   2262020473D 1   1.00000     0.00000
 Structure written by MMmdl.
 58 61  0  0  0  0  0  0  0  0  2 V2000
  146.2625  132.2475  152.3011 C   0  0  0  0  0  0  0  0  0  0  0  0
  146.6072  131.8868  153.7567 C   0  0  0  0  0  0  0  0  0  0  0  0
  147.3228  132.9561  154.4996 N   0  3  2  0  0  0  0  0  0  0  0  0
  146.4983  134.1591  154.7755 C   0  0  0  0  0  0  0  0  0  0  0  0
  147.2127  135.0783  155.7763 C   0  0  0  0  0  0  0  0  0  0  0  0
  148.6177  135.4620  155.2546 C   0  0  1  0  0  0  0  0  0  0  0  0
  149.3333  136.4742  156.0485 N   0  0  0  0  0  0  0  0  0  0  0  0
  149.6358  136.2025  157.4493 C   0  0  0  0  0  0  0  0  0  0  0  0
  149.5656  137.7448  155.6249 C   0  0  0  0  0  0  0  0  0  0  0  0
  149.0599  138.1652  154.4370 N   0  0  0  0  0  0  0  0  0  0  0  0
  149.2685  139.4148  154.0134 C   0  0  0  0  0  0  0  0  0  0  0  0
  149.9457  140.3952  154.6120 N   0  0  0  0  0  0  0  0  0  0  0  0
  150.4576  139.9834  155.8067 C   0  0  0  0  0  0  0  0  0  0  0  0
  150.3106  138.6908  156.3862 C   0  0  0  0  0  0  0  0  0  0  0  0
  150.9716  138.6461  157.6082 N   0  0  0  0  0  0  0  0  0  0  0  0
  151.4756  139.8418  157.7445 C   0  0  0  0  0  0  0  0  0  0  0  0
  151.2255  140.7060  156.7030 N   0  0  0  0  0  0  0  0  0  0  0  0
  151.6764  142.0840  156.5854 C   0  0  0  0  0  0  0  0  0  0  0  0
  151.0821  143.0180  157.6660 C   0  0  2  0  0  0  0  0  0  0  0  0
  149.6786  143.0982  157.4880 O   0  0  0  0  0  0  0  0  0  0  0  0
  151.6520  144.4344  157.6499 C   0  0  0  0  0  0  0  0  0  0  0  0
  151.6156  144.8330  159.1185 C   0  0  0  0  0  0  0  0  0  0  0  0
  151.9947  143.6333  159.7700 O   0  0  0  0  0  0  0  0  0  0  0  0
  151.3649  142.5430  159.1054 C   0  0  0  0  0  0  0  0  0  0  0  0
  149.4567  134.2039  154.8967 C   0  0  1  0  0  0  0  0  0  0  0  0
  149.9800  133.4015  156.1016 C   0  0  0  0  0  0  0  0  0  0  0  0
  148.6531  133.3020  153.9351 C   0  0  0  0  0  0  0  0  0  0  0  0
  145.7392  131.4207  151.8207 H   0  0  0  0  0  0  0  0  0  0  0  0
  147.1550  132.4499  151.7094 H   0  0  0  0  0  0  0  0  0  0  0  0
  145.6098  133.1182  152.2408 H   0  0  0  0  0  0  0  0  0  0  0  0
  145.6919  131.6404  154.2960 H   0  0  0  0  0  0  0  0  0  0  0  0
  147.2169  130.9827  153.7721 H   0  0  0  0  0  0  0  0  0  0  0  0
  146.3013  134.7007  153.8498 H   0  0  0  0  0  0  0  0  0  0  0  0
  145.5322  133.8587  155.1829 H   0  0  0  0  0  0  0  0  0  0  0  0
  146.6151  135.9759  155.9397 H   0  0  0  0  0  0  0  0  0  0  0  0
  147.2649  134.5604  156.7324 H   0  0  0  0  0  0  0  0  0  0  0  0
  148.4349  135.9713  154.3069 H   0  0  0  0  0  0  0  0  0  0  0  0
  149.3455  137.0427  158.0812 H   0  0  0  0  0  0  0  0  0  0  0  0
  150.7020  136.0219  157.5831 H   0  0  0  0  0  0  0  0  0  0  0  0
  149.1086  135.3186  157.8069 H   0  0  0  0  0  0  0  0  0  0  0  0
  148.8309  139.6651  153.0583 H   0  0  0  0  0  0  0  0  0  0  0  0
  152.0557  140.1246  158.6110 H   0  0  0  0  0  0  0  0  0  0  0  0
  152.7664  142.0973  156.6303 H   0  0  0  0  0  0  0  0  0  0  0  0
  151.4077  142.4433  155.5911 H   0  0  0  0  0  0  0  0  0  0  0  0
  149.4857  143.8566  156.9586 H   0  0  0  0  0  0  0  0  0  0  0  0
  152.6916  144.4194  157.3201 H   0  0  0  0  0  0  0  0  0  0  0  0
  151.1080  145.1232  157.0020 H   0  0  0  0  0  0  0  0  0  0  0  0
  152.2960  145.6520  159.3521 H   0  0  0  0  0  0  0  0  0  0  0  0
  150.6081  145.1190  159.4249 H   0  0  0  0  0  0  0  0  0  0  0  0
  150.4502  142.2737  159.6366 H   0  0  0  0  0  0  0  0  0  0  0  0
  152.0255  141.6760  159.1359 H   0  0  0  0  0  0  0  0  0  0  0  0
  150.3385  134.5316  154.3458 H   0  0  0  0  0  0  0  0  0  0  0  0
  149.1716  133.0648  156.7505 H   0  0  0  0  0  0  0  0  0  0  0  0
  150.6706  133.9957  156.6995 H   0  0  0  0  0  0  0  0  0  0  0  0
  150.5278  132.5177  155.7743 H   0  0  0  0  0  0  0  0  0  0  0  0
  149.2146  132.3913  153.7218 H   0  0  0  0  0  0  0  0  0  0  0  0
  148.5206  133.8160  152.9823 H   0  0  0  0  0  0  0  0  0  0  0  0
  147.5167  132.5543  155.4059 H   0  0  0  0  0  0  0  0  0  0  0  0
  1  2  1  0  0  0  0
  1 28  1  0  0  0  0
  1 29  1  0  0  0  0
  1 30  1  0  0  0  0
  2  3  1  0  0  0  0
  2 31  1  0  0  0  0
  2 32  1  0  0  0  0
  3 27  1  0  0  0  0
  3  4  1  0  0  0  0
  3 58  1  0  0  0  0
  4  5  1  0  0  0  0
  4 33  1  0  0  0  0
  4 34  1  0  0  0  0
  5  6  1  0  0  0  0
  5 35  1  0  0  0  0
  5 36  1  0  0  0  0
  6  7  1  0  0  0  0
  6 25  1  0  0  0  0
  6 37  1  0  0  0  0
  7  8  1  0  0  0  0
  7  9  1  0  0  0  0
  8 38  1  0  0  0  0
  8 39  1  0  0  0  0
  8 40  1  0  0  0  0
  9 14  1  0  0  0  0
  9 10  2  0  0  0  0
 10 11  1  0  0  0  0
 11 12  2  0  0  0  0
 11 41  1  0  0  0  0
 12 13  1  0  0  0  0
 13 17  1  0  0  0  0
 13 14  2  0  0  0  0
 14 15  1  0  0  0  0
 15 16  2  0  0  0  0
 16 17  1  0  0  0  0
 16 42  1  0  0  0  0
 17 18  1  0  0  0  0
 18 19  1  0  0  0  0
 18 43  1  0  0  0  0
 18 44  1  0  0  0  0
 19 24  1  0  0  0  0
 19 20  1  0  0  0  0
 19 21  1  0  0  0  0
 20 45  1  0  0  0  0
 21 22  1  0  0  0  0
 21 46  1  0  0  0  0
 21 47  1  0  0  0  0
 22 23  1  0  0  0  0
 22 48  1  0  0  0  0
 22 49  1  0  0  0  0
 23 24  1  0  0  0  0
 24 50  1  0  0  0  0
 24 51  1  0  0  0  0
 25 26  1  0  0  0  0
 25 27  1  0  0  0  0
 25 52  1  0  0  0  0
 26 53  1  0  0  0  0
 26 54  1  0  0  0  0
 26 55  1  0  0  0  0
 27 56  1  0  0  0  0
 27 57  1  0  0  0  0
M  CHG  1   3   1
M  END
> <s_m_source_file>
AV-unprocessed.smi

> <i_m_source_file_index>
243

> <i_lp_mmshare_version>
43012

> <i_f3d_flags>
0

> <s_epik_input>
W0NIM11bQ0gyXU4xW0NIMl1bQ0gyXVtDQEhdKFtDQEBIXShbQ0gzXSlbQ0gyXTEpTihbQ0gzXSljKG5bY0hdbjIpYyhjMjMpbltjSF1uM1tDSDJdW0NAQF00KFtPSF0pW0NIMl1bQ0gyXU9bQ0gyXTQ=

> <s_epik_cmdline>
J2VwaWtfcHl0aG9uJywgJy1waCcsICc3LjAnLCAnLXRuJywgJzgnLCAnLW1hJywgJzIwMCcsICctbWV0YWxfYmluZGluZycsICctaW1hZScsICc8aW5maWxlLm1hZT4nLCAnLW9tYWUnLCAnPG91dGZpbGUubWFlPic=

> <r_lp_tautomer_probability>
1

> <r_epik_Ionization_Penalty>
0.00253099

> <r_epik_Ionization_Penalty_Charging>
0.00137877

> <r_epik_Ionization_Penalty_Neutral>
0.00115221

> <r_epik_State_Penalty>
-0

> <r_epik_Charging_Adjusted_Penalty>
0.00137877

> <i_epik_Tot_Q>
1

> <i_epik_Tot_abs_Q>
1

> <r_epik_Metal_State_Penalty>
-0

> <b_epik_Metal_Only>
0

> <s_lp_Force_Field>
OPLS_2005

> <r_lp_Energy>
49.3868

> <b_lp_Chiralities_Consistent>
1

> <s_lp_Variant>
AV-unprocessed.smi:243-5

> <Gold.Version>
5.8.1

> <Gold.Id.Protein>
6NUR|6NUR_protein|mol2

> <Gold.PLP.Fitness>
45.9453

> <Gold.PLP.PLP>
-37.2449

> <Gold.PLP.part.hbond>
-2.0000

> <Gold.PLP.part.metal>
0.0000

> <Gold.PLP.part.buried>
-5.8293

> <Gold.PLP.part.nonpolar>
-29.8371

> <Gold.PLP.part.repulsive>
0.3095

> <Gold.PLP.ligand.clash>
0.0000

> <Gold.PLP.ligand.torsion>
0.2151

> <Gold.PLP.Chemscore.Hbond>
1.9440

> <Gold.PLP.Chemscore.CHOScore>
1.0000

> <Gold.PLP.Chemscore.Metal>
0.0000

> <Gold.Chemscore.Hbonds>
donor molecule, donor type, donor heavy atom, donor atom, acceptor molecule, acceptor atom, score
      L1  H    20    45       P1  8028  1.00
      P1  H  7989  7998       L1    12  0.84
      L1  C    11    41       P1  7957  1.00

> <Gold.PLP.Chemscore.Internal.Correction>
0.2986

> <Gold.Rescore>
     Score         DG    S(hbond)    S(metal)    S(lipo)     H(rot)  DE(clash)    DE(int)     intcor
     12.71     -16.10       1.81        0.00      88.21       2.24       1.61       1.78       ----

> <Gold.Chemscore.Fitness>
12.7121

> <Gold.Chemscore.DG>
-16.1034

> <Gold.Chemscore.ZeroCoef>
-5.4800

> <Gold.Chemscore.Hbond>
1.8060

> <Gold.Chemscore.Metal>
0.0000

> <Gold.Chemscore.Lipo>
88.2097

> <Gold.Chemscore.Internal_Hbond>
0.0000

> <Gold.Chemscore.DEClash>
1.6147

> <Gold.Chemscore.DEInternal>
1.7766

> <Gold.Chemscore.Rot>
2.2379

> <Gold.Chemscore.Internal.Correction>
   9.000000E+99

> <Gold.Chemscore.Hbonds>
donor molecule, donor type, donor heavy atom, donor atom, acceptor molecule, acceptor atom, score
      L1  H    20    45       P1  8028  0.81
      P1  H  7989  7998       L1    12  0.26

> <Gold.Chemscore.Hbond.Weighted>
-6.0320

> <Gold.Chemscore.Metal.Weighted>
-0.0000

> <Gold.Chemscore.Lipo.Weighted>
-10.3205

> <Gold.Chemscore.Internal_Hbond.Weighted>
0.0000

> <Gold.Chemscore.DEClash.Weighted>
1.6147

> <Gold.Chemscore.DEInternal.Weighted>
1.7766

> <Gold.Chemscore.Rot.Weighted>
5.7291

> <Gold.Chemscore.Internal.Correction.Weighted>
   9.000000E+99

> <Gold.Protein.RotatedTorsions>
[ 6907 6896 6895 6894 ] final   49.76 input  -60.11 | X-H torsion
[ 7974 7965 7964 7962 ] final -154.50 input  175.53 | X-H torsion
[ 8008 7997 7996 7995 ] final -111.18 input   59.86 | X-H torsion
[ 10167 10162 10161 10158 ] final   15.45 input  -65.29 | X-H torsion
[ 10718 10713 10712 10709 ] final  -70.64 input   66.30 | X-H torsion
[ 10763 10752 10751 10750 ] final   66.23 input  -60.55 | X-H torsion
[ 11005 11000 10999 10996 ] final  -63.07 input  -57.11 | X-H torsion

> <Gold.Protein.ActiveResidues>
 VAL166  LYS551  ARG553  GLY616  TRP617  ASP618  TYR619  PRO620  LYS621  CYS622 
 ASP623  PHE694  ASN695  SER759  ASP760  ASP761  ALA762  ILE779  LEU786  VAL792 
 PHE793  MET794  SER795  GLU796  ALA797  LYS798  CYS799  TRP800  GLU811  SER814 

> <Gold.Protein.RotatedAtoms>
  152.2944  134.7684  160.0370 H   0  0  0  0  0  0  0  0  0  0  0  0  # atno 6907 bound_to 6896
  151.8220  133.3390  159.3595 H   0  0  0  0  0  0  0  0  0  0  0  0  # atno 6908 bound_to 6896
  150.7244  134.5494  159.5831 H   0  0  0  0  0  0  0  0  0  0  0  0  # atno 6909 bound_to 6896
  144.7686  140.4380  143.5923 H   0  0  0  0  0  0  0  0  0  0  0  0  # atno 7974 bound_to 7965
  154.9859  140.0395  157.2298 H   0  0  0  0  0  0  0  0  0  0  0  0  # atno 8008 bound_to 7997
  154.7672  140.2795  155.6144 H   0  0  0  0  0  0  0  0  0  0  0  0  # atno 8009 bound_to 7997
  156.2915  140.2617  156.2466 H   0  0  0  0  0  0  0  0  0  0  0  0  # atno 8010 bound_to 7997
  140.5866  143.8877  150.6836 H   0  0  0  0  0  0  0  0  0  0  0  0  # atno 10167 bound_to 10162
  156.0398  130.4335  150.2326 H   0  0  0  0  0  0  0  0  0  0  0  0  # atno 10718 bound_to 10713
  153.0131  135.5328  154.6792 H   0  0  0  0  0  0  0  0  0  0  0  0  # atno 10763 bound_to 10752
  154.5956  135.2863  155.0591 H   0  0  0  0  0  0  0  0  0  0  0  0  # atno 10764 bound_to 10752
  154.1668  135.6538  153.5052 H   0  0  0  0  0  0  0  0  0  0  0  0  # atno 10765 bound_to 10752
  141.1381  133.6647  156.5623 H   0  0  0  0  0  0  0  0  0  0  0  0  # atno 11005 bound_to 11000
  145.6392  139.1547  143.2925 LP  0  0  0  0  0  0  0  0  0  0  0  0  # atno 17320 bound_to 7965
  146.1815  140.6490  142.9187 LP  0  0  0  0  0  0  0  0  0  0  0  0  # atno 17321 bound_to 7965
  140.2390  143.3678  152.1502 LP  0  0  0  0  0  0  0  0  0  0  0  0  # atno 17342 bound_to 10162
  139.5201  144.7029  151.5441 LP  0  0  0  0  0  0  0  0  0  0  0  0  # atno 17343 bound_to 10162
  157.0422  131.0038  151.3280 LP  0  0  0  0  0  0  0  0  0  0  0  0  # atno 17370 bound_to 10713
  157.5201  130.7993  149.7800 LP  0  0  0  0  0  0  0  0  0  0  0  0  # atno 17371 bound_to 10713
  140.3978  134.7383  157.4761 LP  0  0  0  0  0  0  0  0  0  0  0  0  # atno 17394 bound_to 11000
  140.0518  134.6119  155.8852 LP  0  0  0  0  0  0  0  0  0  0  0  0  # atno 17395 bound_to 11000

$$$$
