AV-unprocessed.smi:1208|AV-procd|sdf|5062|dock1
  -GOLD-   22720 4103D 1   1.00000     0.00000
 Structure written by MMmdl.
 35 36  0  0  0  0  0  0  0  0  2 V2000
  152.5355  137.5273  158.9226 C   0  0  0  0  0  0  0  0  0  0  0  0
  151.5559  138.3177  158.0435 C   0  0  1  0  0  0  0  0  0  0  0  0
  150.2097  138.1815  158.5943 N   0  0  0  0  0  0  0  0  0  0  0  0
  149.5167  137.0377  158.7082 C   0  0  0  0  0  0  0  0  0  0  0  0
  149.9783  135.9299  158.4322 O   0  0  0  0  0  0  0  0  0  0  0  0
  148.0748  137.1716  159.2089 C   0  0  0  0  0  0  0  0  0  0  0  0
  147.8727  136.4109  160.4482 N   0  0  0  0  0  0  0  0  0  0  0  0
  147.7955  137.2531  161.6398 N   0  5  0  0  0  0  0  0  0  0  0  0
  147.5051  136.6808  162.8378 C   0  0  0  0  0  0  0  0  0  0  0  0
  147.3843  137.3297  163.8742 O   0  0  0  0  0  0  0  0  0  0  0  0
  147.3381  135.2377  162.8834 C   0  0  0  0  0  0  0  0  0  0  0  0
  147.4516  134.4808  161.7742 C   0  0  0  0  0  0  0  0  0  0  0  0
  147.7333  135.0544  160.4636 C   0  0  0  0  0  0  0  0  0  0  0  0
  147.8252  134.3690  159.4455 O   0  0  0  0  0  0  0  0  0  0  0  0
  151.9424  139.8093  157.9509 C   0  0  2  0  0  0  0  0  0  0  0  0
  152.0129  140.5503  159.2890 C   0  0  0  0  0  0  0  0  0  0  0  0
  151.8158  141.9833  158.8547 C   0  0  0  0  0  0  0  0  0  0  0  0
  150.7756  141.8311  157.7489 C   0  0  0  0  0  0  0  0  0  0  0  0
  150.9753  140.5334  157.1926 O   0  0  0  0  0  0  0  0  0  0  0  0
  153.5496  137.5786  158.5256 H   0  0  0  0  0  0  0  0  0  0  0  0
  152.2564  136.4744  158.9722 H   0  0  0  0  0  0  0  0  0  0  0  0
  152.5579  137.9155  159.9415 H   0  0  0  0  0  0  0  0  0  0  0  0
  151.5911  137.8880  157.0409 H   0  0  0  0  0  0  0  0  0  0  0  0
  149.7355  139.0373  158.8445 H   0  0  0  0  0  0  0  0  0  0  0  0
  147.8477  138.2286  159.3569 H   0  0  0  0  0  0  0  0  0  0  0  0
  147.3783  136.8317  158.4397 H   0  0  0  0  0  0  0  0  0  0  0  0
  147.1218  134.7617  163.8284 H   0  0  0  0  0  0  0  0  0  0  0  0
  147.3218  133.4119  161.8556 H   0  0  0  0  0  0  0  0  0  0  0  0
  152.9036  139.9140  157.4441 H   0  0  0  0  0  0  0  0  0  0  0  0
  151.1956  140.2444  159.9441 H   0  0  0  0  0  0  0  0  0  0  0  0
  152.9534  140.3897  159.8178 H   0  0  0  0  0  0  0  0  0  0  0  0
  151.4888  142.6378  159.6630 H   0  0  0  0  0  0  0  0  0  0  0  0
  152.7463  142.3805  158.4466 H   0  0  0  0  0  0  0  0  0  0  0  0
  149.7681  141.8755  158.1641 H   0  0  0  0  0  0  0  0  0  0  0  0
  150.8630  142.6079  156.9889 H   0  0  0  0  0  0  0  0  0  0  0  0
  1  2  1  0  0  0  0
  1 20  1  0  0  0  0
  1 21  1  0  0  0  0
  1 22  1  0  0  0  0
  2  3  1  0  0  0  0
  2 15  1  0  0  0  0
  2 23  1  0  0  0  0
  3  4  1  0  0  0  0
  3 24  1  0  0  0  0
  4  5  2  0  0  0  0
  4  6  1  0  0  0  0
  6 25  1  0  0  0  0
  6 26  1  0  0  0  0
  6  7  1  0  0  0  0
  7  8  1  0  0  0  0
  7 13  1  0  0  0  0
  8  9  1  0  0  0  0
  9 10  2  0  0  0  0
  9 11  1  0  0  0  0
 11 27  1  0  0  0  0
 11 12  2  0  0  0  0
 12 28  1  0  0  0  0
 12 13  1  0  0  0  0
 13 14  2  0  0  0  0
 15 19  1  0  0  0  0
 15 16  1  0  0  0  0
 15 29  1  0  0  0  0
 16 17  1  0  0  0  0
 16 30  1  0  0  0  0
 16 31  1  0  0  0  0
 17 18  1  0  0  0  0
 17 32  1  0  0  0  0
 17 33  1  0  0  0  0
 18 19  1  0  0  0  0
 18 34  1  0  0  0  0
 18 35  1  0  0  0  0
M  CHG  1   8  -1
M  END
> <s_m_source_file>
AV-unprocessed.smi

> <i_m_source_file_index>
1208

> <i_lp_mmshare_version>
43012

> <i_f3d_flags>
0

> <s_epik_input>
TzFbQ0gyXVtDSDJdW0NIMl1bQ0BIXTFbQ0BIXShbQ0gzXSlbTkhdQyg9TylbQ0gyXW4yW25IXWMoPU8pW2NIXVtjSF1jMj1P

> <s_epik_cmdline>
J2VwaWtfcHl0aG9uJywgJy1waCcsICc3LjAnLCAnLXRuJywgJzgnLCAnLW1hJywgJzIwMCcsICctbWV0YWxfYmluZGluZycsICctaW1hZScsICc8aW5maWxlLm1hZT4nLCAnLW9tYWUnLCAnPG91dGZpbGUubWFlPic=

> <r_lp_tautomer_probability>
1

> <r_epik_Ionization_Penalty>
0.0975494

> <r_epik_Ionization_Penalty_Charging>
0.0975494

> <r_epik_Ionization_Penalty_Neutral>
2.30132e-08

> <r_epik_State_Penalty>
0.034345

> <r_epik_Charging_Adjusted_Penalty>
0.131894

> <i_epik_Tot_Q>
-1

> <i_epik_Tot_abs_Q>
1

> <r_epik_Metal_State_Penalty>
0.034345

> <b_epik_Metal_Only>
0

> <s_lp_Force_Field>
OPLS_2005

> <r_lp_Energy>
33.0818

> <b_lp_Chiralities_Consistent>
1

> <s_lp_Variant>
AV-unprocessed.smi:1208-2

> <Gold.Version>
5.8.1

> <Gold.Id.Protein>
6NUR|6NUR_protein|mol2

> <Gold.PLP.Fitness>
43.8671

> <Gold.PLP.PLP>
-30.8146

> <Gold.PLP.part.hbond>
-3.4171

> <Gold.PLP.part.metal>
0.0000

> <Gold.PLP.part.buried>
-2.6372

> <Gold.PLP.part.nonpolar>
-24.5762

> <Gold.PLP.part.repulsive>
0.2028

> <Gold.PLP.ligand.clash>
0.0000

> <Gold.PLP.ligand.torsion>
0.2348

> <Gold.PLP.Chemscore.Hbond>
4.5040

> <Gold.PLP.Chemscore.CHOScore>
0.0000

> <Gold.PLP.Chemscore.Metal>
0.0000

> <Gold.Chemscore.Hbonds>
donor molecule, donor type, donor heavy atom, donor atom, acceptor molecule, acceptor atom, score
      P1  H  6896  6908       L1     5  1.00
      P1  H  6931  6943       L1     8  2.00
      P1  H  6934  6947       L1     8  1.34

> <Gold.PLP.Chemscore.Internal.Correction>
0.0101

> <Gold.Rescore>
     Score         DG    S(hbond)    S(metal)    S(lipo)     H(rot)  DE(clash)    DE(int)     intcor
     11.77     -13.67       2.00        0.00      56.41       1.99       0.17       1.73       ----

> <Gold.Chemscore.Fitness>
11.7655

> <Gold.Chemscore.DG>
-13.6703

> <Gold.Chemscore.ZeroCoef>
-5.4800

> <Gold.Chemscore.Hbond>
2.0045

> <Gold.Chemscore.Metal>
0.0000

> <Gold.Chemscore.Lipo>
56.4112

> <Gold.Chemscore.Internal_Hbond>
0.0000

> <Gold.Chemscore.DEClash>
0.1739

> <Gold.Chemscore.DEInternal>
1.7310

> <Gold.Chemscore.Rot>
1.9940

> <Gold.Chemscore.Internal.Correction>
   9.000000E+99

> <Gold.Chemscore.Hbonds>
donor molecule, donor type, donor heavy atom, donor atom, acceptor molecule, acceptor atom, score
      P1  H  6896  6908       L1     5  0.97
      P1  H  6931  6943       L1     8  0.49
      P1  H  6934  6947       L1     8  0.29

> <Gold.Chemscore.Hbond.Weighted>
-6.6949

> <Gold.Chemscore.Metal.Weighted>
-0.0000

> <Gold.Chemscore.Lipo.Weighted>
-6.6001

> <Gold.Chemscore.Internal_Hbond.Weighted>
0.0000

> <Gold.Chemscore.DEClash.Weighted>
0.1739

> <Gold.Chemscore.DEInternal.Weighted>
1.7310

> <Gold.Chemscore.Rot.Weighted>
5.1047

> <Gold.Chemscore.Internal.Correction.Weighted>
   9.000000E+99

> <Gold.Protein.RotatedTorsions>
[ 6907 6896 6895 6894 ] final -179.04 input  -60.11 | X-H torsion
[ 7974 7965 7964 7962 ] final   74.43 input  175.53 | X-H torsion
[ 8008 7997 7996 7995 ] final  -65.54 input   59.86 | X-H torsion
[ 10167 10162 10161 10158 ] final  124.67 input  -65.29 | X-H torsion
[ 10718 10713 10712 10709 ] final  -52.80 input   66.30 | X-H torsion
[ 10763 10752 10751 10750 ] final  -94.28 input  -60.55 | X-H torsion
[ 11005 11000 10999 10996 ] final  106.59 input  -57.11 | X-H torsion

> <Gold.Protein.ActiveResidues>
 VAL166  LYS551  ARG553  GLY616  TRP617  ASP618  TYR619  PRO620  LYS621  CYS622 
 ASP623  PHE694  ASN695  SER759  ASP760  ASP761  ALA762  ILE779  LEU786  VAL792 
 PHE793  MET794  SER795  GLU796  ALA797  LYS798  CYS799  TRP800  GLU811  SER814 

> <Gold.Protein.RotatedAtoms>
  151.6470  133.3323  159.3142 H   0  0  0  0  0  0  0  0  0  0  0  0  # atno 6907 bound_to 6896
  150.7979  134.7056  159.6584 H   0  0  0  0  0  0  0  0  0  0  0  0  # atno 6908 bound_to 6896
  152.4068  134.6197  160.0099 H   0  0  0  0  0  0  0  0  0  0  0  0  # atno 6909 bound_to 6896
  145.7284  139.2674  143.1555 H   0  0  0  0  0  0  0  0  0  0  0  0  # atno 7974 bound_to 7965
  154.4678  140.0931  156.7066 H   0  0  0  0  0  0  0  0  0  0  0  0  # atno 8008 bound_to 7997
  155.4809  140.3467  155.4321 H   0  0  0  0  0  0  0  0  0  0  0  0  # atno 8009 bound_to 7997
  156.0986  140.1416  156.9486 H   0  0  0  0  0  0  0  0  0  0  0  0  # atno 8010 bound_to 7997
  139.5728  144.6948  151.3732 H   0  0  0  0  0  0  0  0  0  0  0  0  # atno 10167 bound_to 10162
  156.1590  130.4150  149.9823 H   0  0  0  0  0  0  0  0  0  0  0  0  # atno 10718 bound_to 10713
  154.7040  135.5163  153.8568 H   0  0  0  0  0  0  0  0  0  0  0  0  # atno 10763 bound_to 10752
  153.0726  135.6606  154.0223 H   0  0  0  0  0  0  0  0  0  0  0  0  # atno 10764 bound_to 10752
  154.0077  135.3005  155.3375 H   0  0  0  0  0  0  0  0  0  0  0  0  # atno 10765 bound_to 10752
  139.8816  134.9374  156.5690 H   0  0  0  0  0  0  0  0  0  0  0  0  # atno 11005 bound_to 11000
  146.0560  140.8020  142.9758 LP  0  0  0  0  0  0  0  0  0  0  0  0  # atno 17320 bound_to 7965
  144.6899  140.3125  143.7245 LP  0  0  0  0  0  0  0  0  0  0  0  0  # atno 17321 bound_to 7965
  140.7012  143.7626  150.7406 LP  0  0  0  0  0  0  0  0  0  0  0  0  # atno 17342 bound_to 10162
  140.1138  143.4675  152.2354 LP  0  0  0  0  0  0  0  0  0  0  0  0  # atno 17343 bound_to 10162
  156.7658  130.9168  151.3643 LP  0  0  0  0  0  0  0  0  0  0  0  0  # atno 17370 bound_to 10713
  157.6718  130.9058  150.0057 LP  0  0  0  0  0  0  0  0  0  0  0  0  # atno 17371 bound_to 10713
  140.8112  133.8427  155.8812 LP  0  0  0  0  0  0  0  0  0  0  0  0  # atno 17394 bound_to 11000
  140.9504  134.1786  157.4732 LP  0  0  0  0  0  0  0  0  0  0  0  0  # atno 17395 bound_to 11000

$$$$
