AV-unprocessed.smi:2694|AV-procd|sdf|10405|dock3
  -GOLD-   2272014433D 1   1.00000     0.00000
 Structure written by MMmdl.
 42 44  0  0  0  0  0  0  0  0  1 V2000
  150.8933  139.9604  155.1192 O   0  0  0  0  0  0  0  0  0  0  0  0
  150.9263  140.5204  156.2148 C   0  0  0  0  0  0  0  0  0  0  0  0
  151.2034  141.9495  156.3613 C   0  0  0  0  0  0  0  0  0  0  0  0
  151.2351  142.5284  157.5858 C   0  0  0  0  0  0  0  0  0  0  0  0
  151.5563  144.0032  157.7867 C   0  0  0  0  0  0  0  0  0  0  0  0
  152.6746  144.3367  158.7892 C   0  0  0  0  0  0  0  0  0  0  0  0
  151.8187  145.5191  159.2563 C   0  0  0  0  0  0  0  0  0  0  0  0
  150.5978  144.7675  158.7150 C   0  0  0  0  0  0  0  0  0  0  0  0
  151.0021  141.7693  158.7378 N   0  0  0  0  0  0  0  0  0  0  0  0
  150.7500  140.5038  158.6349 C   0  0  0  0  0  0  0  0  0  0  0  0
  150.7130  139.8529  157.3857 N   0  0  0  0  0  0  0  0  0  0  0  0
  150.4393  138.4049  157.4000 C   0  0  0  0  0  0  0  0  0  0  0  0
  149.9279  137.8920  158.7677 C   0  0  2  0  0  0  0  0  0  0  0  0
  150.6404  136.7150  159.0878 O   0  0  0  0  0  0  0  0  0  0  0  0
  148.4217  137.5741  158.8010 C   0  0  0  0  0  0  0  0  0  0  0  0
  148.0294  137.3666  160.1515 O   0  0  0  0  0  0  0  0  0  0  0  0
  147.6046  136.1126  160.5355 C   0  0  0  0  0  0  0  0  0  0  0  0
  147.6772  134.9639  159.7073 C   0  0  0  0  0  0  0  0  0  0  0  0
  147.2058  133.7195  160.1690 C   0  0  0  0  0  0  0  0  0  0  0  0
  146.6606  133.6054  161.4606 C   0  0  0  0  0  0  0  0  0  0  0  0
  146.5933  134.7367  162.2938 C   0  0  0  0  0  0  0  0  0  0  0  0
  147.0664  135.9815  161.8351 C   0  0  0  0  0  0  0  0  0  0  0  0
  146.9852  137.3509  162.8834 Cl  0  0  0  0  0  0  0  0  0  0  0  0
  151.3909  142.5380  155.4752 H   0  0  0  0  0  0  0  0  0  0  0  0
  151.6969  144.5196  156.8353 H   0  0  0  0  0  0  0  0  0  0  0  0
  152.8050  143.5875  159.5715 H   0  0  0  0  0  0  0  0  0  0  0  0
  153.6262  144.6139  158.3352 H   0  0  0  0  0  0  0  0  0  0  0  0
  151.8138  145.6820  160.3344 H   0  0  0  0  0  0  0  0  0  0  0  0
  152.0290  146.4379  158.7066 H   0  0  0  0  0  0  0  0  0  0  0  0
  149.8663  145.3923  158.2023 H   0  0  0  0  0  0  0  0  0  0  0  0
  150.1284  144.1357  159.4717 H   0  0  0  0  0  0  0  0  0  0  0  0
  150.5629  139.8688  159.5024 H   0  0  0  0  0  0  0  0  0  0  0  0
  149.7236  138.1349  156.6208 H   0  0  0  0  0  0  0  0  0  0  0  0
  151.3508  137.8683  157.1292 H   0  0  0  0  0  0  0  0  0  0  0  0
  150.1577  138.6177  159.5489 H   0  0  0  0  0  0  0  0  0  0  0  0
  151.2034  136.4956  158.3613 H   0  0  0  0  0  0  0  0  0  0  0  0
  147.8680  138.3901  158.3340 H   0  0  0  0  0  0  0  0  0  0  0  0
  148.2121  136.6611  158.2412 H   0  0  0  0  0  0  0  0  0  0  0  0
  148.0933  135.0093  158.7127 H   0  0  0  0  0  0  0  0  0  0  0  0
  147.2632  132.8509  159.5298 H   0  0  0  0  0  0  0  0  0  0  0  0
  146.2985  132.6511  161.8135 H   0  0  0  0  0  0  0  0  0  0  0  0
  146.1791  134.6489  163.2874 H   0  0  0  0  0  0  0  0  0  0  0  0
  1  2  2  0  0  0  0
  2 11  1  0  0  0  0
  2  3  1  0  0  0  0
  3  4  2  0  0  0  0
  3 24  1  0  0  0  0
  4  5  1  0  0  0  0
  4  9  1  0  0  0  0
  5  8  1  0  0  0  0
  5  6  1  0  0  0  0
  5 25  1  0  0  0  0
  6  7  1  0  0  0  0
  6 26  1  0  0  0  0
  6 27  1  0  0  0  0
  7  8  1  0  0  0  0
  7 28  1  0  0  0  0
  7 29  1  0  0  0  0
  8 30  1  0  0  0  0
  8 31  1  0  0  0  0
  9 10  2  0  0  0  0
 10 11  1  0  0  0  0
 10 32  1  0  0  0  0
 11 12  1  0  0  0  0
 12 13  1  0  0  0  0
 12 33  1  0  0  0  0
 12 34  1  0  0  0  0
 13 14  1  0  0  0  0
 13 15  1  0  0  0  0
 13 35  1  0  0  0  0
 14 36  1  0  0  0  0
 15 16  1  0  0  0  0
 15 37  1  0  0  0  0
 15 38  1  0  0  0  0
 16 17  1  0  0  0  0
 17 22  1  0  0  0  0
 17 18  2  0  0  0  0
 18 19  1  0  0  0  0
 18 39  1  0  0  0  0
 19 20  2  0  0  0  0
 19 40  1  0  0  0  0
 20 21  1  0  0  0  0
 20 41  1  0  0  0  0
 21 22  2  0  0  0  0
 21 42  1  0  0  0  0
 22 23  1  0  0  0  0
M  END
> <s_m_source_file>
AV-unprocessed.smi

> <i_m_source_file_index>
2694

> <i_lp_mmshare_version>
43012

> <i_f3d_flags>
0

> <s_epik_input>
W0NIMl0xW0NIMl1bQ0gyXVtDSF0xYyhbY0hdYzI9TyluW2NIXW4yW0NIMl1bQ0BIXShbT0hdKVtDSDJdT2MzW2NIXVtjSF1bY0hdW2NIXWMzQ2w=

> <s_epik_cmdline>
J2VwaWtfcHl0aG9uJywgJy1waCcsICc3LjAnLCAnLXRuJywgJzgnLCAnLW1hJywgJzIwMCcsICctbWV0YWxfYmluZGluZycsICctaW1hZScsICc8aW5maWxlLm1hZT4nLCAnLW9tYWUnLCAnPG91dGZpbGUubWFlPic=

> <r_lp_tautomer_probability>
1

> <r_epik_Ionization_Penalty>
1.78212e-05

> <r_epik_Ionization_Penalty_Charging>
5.61663e-08

> <r_epik_Ionization_Penalty_Neutral>
1.7765e-05

> <r_epik_State_Penalty>
-0

> <r_epik_Charging_Adjusted_Penalty>
5.61663e-08

> <i_epik_Tot_Q>
0

> <i_epik_Tot_abs_Q>
0

> <r_epik_Metal_State_Penalty>
-0

> <b_epik_Metal_Only>
0

> <s_lp_Force_Field>
OPLS_2005

> <r_lp_Energy>
26.4785

> <b_lp_Chiralities_Consistent>
1

> <s_lp_Variant>
AV-unprocessed.smi:2694-1

> <Gold.Version>
5.8.1

> <Gold.Id.Protein>
6NUR|6NUR_protein|mol2

> <Gold.PLP.Fitness>
59.0985

> <Gold.PLP.PLP>
-53.2916

> <Gold.PLP.part.hbond>
-4.0000

> <Gold.PLP.part.metal>
0.0000

> <Gold.PLP.part.buried>
-5.3091

> <Gold.PLP.part.nonpolar>
-43.7201

> <Gold.PLP.part.repulsive>
0.0523

> <Gold.PLP.ligand.clash>
0.3162

> <Gold.PLP.ligand.torsion>
1.4573

> <Gold.PLP.Chemscore.Hbond>
2.8562

> <Gold.PLP.Chemscore.CHOScore>
0.0000

> <Gold.PLP.Chemscore.Metal>
0.0000

> <Gold.Chemscore.Hbonds>
donor molecule, donor type, donor heavy atom, donor atom, acceptor molecule, acceptor atom, score
      P1  H  6896  6908       L1    14  0.35
      P1  H  6931  6943       L1    16  0.34
      P1  H  6934  6947       L1    16  0.69
      P1  H  7989  7998       L1     1  1.00

> <Gold.PLP.Chemscore.Internal.Correction>
0.4690

> <Gold.Rescore>
     Score         DG    S(hbond)    S(metal)    S(lipo)     H(rot)  DE(clash)    DE(int)     intcor
     20.28     -21.78       2.29        0.00     127.03       2.42       0.01       1.49       ----

> <Gold.Chemscore.Fitness>
20.2764

> <Gold.Chemscore.DG>
-21.7757

> <Gold.Chemscore.ZeroCoef>
-5.4800

> <Gold.Chemscore.Hbond>
2.2872

> <Gold.Chemscore.Metal>
0.0000

> <Gold.Chemscore.Lipo>
127.0345

> <Gold.Chemscore.Internal_Hbond>
0.0000

> <Gold.Chemscore.DEClash>
0.0053

> <Gold.Chemscore.DEInternal>
1.4940

> <Gold.Chemscore.Rot>
2.4245

> <Gold.Chemscore.Internal.Correction>
   9.000000E+99

> <Gold.Chemscore.Hbonds>
donor molecule, donor type, donor heavy atom, donor atom, acceptor molecule, acceptor atom, score
      P1  H  6896  6908       L1    14  0.01
      P1  H  6931  6943       L1    16  0.20
      P1  H  6934  6947       L1    16  0.48
      P1  H  7989  7998       L1     1  0.94

> <Gold.Chemscore.Hbond.Weighted>
-7.6392

> <Gold.Chemscore.Metal.Weighted>
-0.0000

> <Gold.Chemscore.Lipo.Weighted>
-14.8630

> <Gold.Chemscore.Internal_Hbond.Weighted>
0.0000

> <Gold.Chemscore.DEClash.Weighted>
0.0053

> <Gold.Chemscore.DEInternal.Weighted>
1.4940

> <Gold.Chemscore.Rot.Weighted>
6.2066

> <Gold.Chemscore.Internal.Correction.Weighted>
   9.000000E+99

> <Gold.Protein.RotatedTorsions>
[ 6907 6896 6895 6894 ] final -151.61 input  -60.11 | X-H torsion
[ 7974 7965 7964 7962 ] final   71.60 input  175.53 | X-H torsion
[ 8008 7997 7996 7995 ] final  -74.30 input   59.86 | X-H torsion
[ 10167 10162 10161 10158 ] final  -27.13 input  -65.29 | X-H torsion
[ 10718 10713 10712 10709 ] final  -50.80 input   66.30 | X-H torsion
[ 10763 10752 10751 10750 ] final   27.06 input  -60.55 | X-H torsion
[ 11005 11000 10999 10996 ] final  -39.24 input  -57.11 | X-H torsion

> <Gold.Protein.ActiveResidues>
 VAL166  LYS551  ARG553  GLY616  TRP617  ASP618  TYR619  PRO620  LYS621  CYS622 
 ASP623  PHE694  ASN695  SER759  ASP760  ASP761  ALA762  ILE779  LEU786  VAL792 
 PHE793  MET794  SER795  GLU796  ALA797  LYS798  CYS799  TRP800  GLU811  SER814 

> <Gold.Protein.RotatedAtoms>
  151.2157  133.4531  159.2599 H   0  0  0  0  0  0  0  0  0  0  0  0  # atno 6907 bound_to 6896
  151.0933  134.9929  159.8423 H   0  0  0  0  0  0  0  0  0  0  0  0  # atno 6908 bound_to 6896
  152.5437  134.2089  159.8795 H   0  0  0  0  0  0  0  0  0  0  0  0  # atno 6909 bound_to 6896
  145.7638  139.2812  143.1360 H   0  0  0  0  0  0  0  0  0  0  0  0  # atno 7974 bound_to 7965
  154.5319  140.0764  156.8360 H   0  0  0  0  0  0  0  0  0  0  0  0  # atno 8008 bound_to 7997
  155.3357  140.3404  155.4221 H   0  0  0  0  0  0  0  0  0  0  0  0  # atno 8009 bound_to 7997
  156.1790  140.1645  156.8296 H   0  0  0  0  0  0  0  0  0  0  0  0  # atno 8010 bound_to 7997
  140.7279  143.4119  151.1092 H   0  0  0  0  0  0  0  0  0  0  0  0  # atno 10167 bound_to 10162
  156.1767  130.4150  149.9566 H   0  0  0  0  0  0  0  0  0  0  0  0  # atno 10718 bound_to 10713
  153.0581  135.6546  154.0529 H   0  0  0  0  0  0  0  0  0  0  0  0  # atno 10763 bound_to 10752
  154.0203  135.2920  155.3383 H   0  0  0  0  0  0  0  0  0  0  0  0  # atno 10764 bound_to 10752
  154.6906  135.5284  153.8454 H   0  0  0  0  0  0  0  0  0  0  0  0  # atno 10765 bound_to 10752
  141.0087  133.6918  156.2160 H   0  0  0  0  0  0  0  0  0  0  0  0  # atno 11005 bound_to 11000
  146.0237  140.8323  142.9910 LP  0  0  0  0  0  0  0  0  0  0  0  0  # atno 17320 bound_to 7965
  144.6825  140.2667  143.7311 LP  0  0  0  0  0  0  0  0  0  0  0  0  # atno 17321 bound_to 7965
  139.7753  143.8434  152.3128 LP  0  0  0  0  0  0  0  0  0  0  0  0  # atno 17342 bound_to 10162
  139.8366  144.7229  150.9383 LP  0  0  0  0  0  0  0  0  0  0  0  0  # atno 17343 bound_to 10162
  156.7349  130.9057  151.3628 LP  0  0  0  0  0  0  0  0  0  0  0  0  # atno 17370 bound_to 10713
  157.6841  130.9168  150.0340 LP  0  0  0  0  0  0  0  0  0  0  0  0  # atno 17371 bound_to 10713
  140.6769  134.4808  157.5588 LP  0  0  0  0  0  0  0  0  0  0  0  0  # atno 17394 bound_to 11000
  139.9078  134.8411  156.1641 LP  0  0  0  0  0  0  0  0  0  0  0  0  # atno 17395 bound_to 11000

$$$$
