AV-unprocessed.smi:2724|AV-procd|sdf|10511|dock1
  -GOLD-   2272014553D 1   1.00000     0.00000
 Structure written by MMmdl.
 26 27  0  0  0  0  0  0  0  0  2 V2000
  150.9918  144.0914  161.8964 O   0  0  0  0  0  0  0  0  0  0  0  0
  151.9534  144.2725  160.8778 C   0  0  2  0  0  0  0  0  0  0  0  0
  151.4810  145.2968  159.8474 C   0  0  0  0  0  0  0  0  0  0  0  0
  152.3252  144.9918  158.6109 C   0  0  0  0  0  0  0  0  0  0  0  0
  152.5818  143.4782  158.6458 C   0  0  0  0  0  0  0  0  0  0  0  0
  152.1766  142.9937  160.0533 C   0  0  1  0  0  0  0  0  0  0  0  0
  153.1733  142.0227  160.6736 C   0  0  0  0  0  0  0  0  0  0  0  0
  153.6276  140.8841  159.9678 C   0  0  0  0  0  0  0  0  0  0  0  0
  154.5549  140.0132  160.5766 C   0  0  0  0  0  0  0  0  0  0  0  0
  155.0098  140.2977  161.8799 C   0  0  0  0  0  0  0  0  0  0  0  0
  154.5540  141.3928  162.5261 N   0  3  0  0  0  0  0  0  0  0  0  0
  153.6659  142.2509  161.9775 C   0  0  0  0  0  0  0  0  0  0  0  0
  150.3686  144.8006  161.8543 H   0  0  0  0  0  0  0  0  0  0  0  0
  152.8877  144.6249  161.3164 H   0  0  0  0  0  0  0  0  0  0  0  0
  150.4271  145.1367  159.6134 H   0  0  0  0  0  0  0  0  0  0  0  0
  151.5929  146.3255  160.1914 H   0  0  0  0  0  0  0  0  0  0  0  0
  151.8384  145.3108  157.6889 H   0  0  0  0  0  0  0  0  0  0  0  0
  153.2753  145.5233  158.6811 H   0  0  0  0  0  0  0  0  0  0  0  0
  151.9969  142.9600  157.8849 H   0  0  0  0  0  0  0  0  0  0  0  0
  153.6314  143.2827  158.4234 H   0  0  0  0  0  0  0  0  0  0  0  0
  151.2155  142.4856  159.9507 H   0  0  0  0  0  0  0  0  0  0  0  0
  153.2701  140.6765  158.9696 H   0  0  0  0  0  0  0  0  0  0  0  0
  154.9122  139.1398  160.0508 H   0  0  0  0  0  0  0  0  0  0  0  0
  155.7185  139.6875  162.4208 H   0  0  0  0  0  0  0  0  0  0  0  0
  153.3794  143.0892  162.5959 H   0  0  0  0  0  0  0  0  0  0  0  0
  154.8950  141.5803  163.4695 H   0  0  0  0  0  0  0  0  0  0  0  0
  1  2  1  0  0  0  0
  1 13  1  0  0  0  0
  2  6  1  0  0  0  0
  2  3  1  0  0  0  0
  2 14  1  0  0  0  0
  3  4  1  0  0  0  0
  3 15  1  0  0  0  0
  3 16  1  0  0  0  0
  4  5  1  0  0  0  0
  4 17  1  0  0  0  0
  4 18  1  0  0  0  0
  5  6  1  0  0  0  0
  5 19  1  0  0  0  0
  5 20  1  0  0  0  0
  6  7  1  0  0  0  0
  6 21  1  0  0  0  0
  7 12  1  0  0  0  0
  7  8  2  0  0  0  0
  8  9  1  0  0  0  0
  8 22  1  0  0  0  0
  9 10  2  0  0  0  0
  9 23  1  0  0  0  0
 10 11  1  0  0  0  0
 10 24  1  0  0  0  0
 11 12  2  0  0  0  0
 11 26  1  0  0  0  0
 12 25  1  0  0  0  0
M  CHG  1  11   1
M  END
> <s_m_source_file>
AV-unprocessed.smi

> <i_m_source_file_index>
2724

> <i_lp_mmshare_version>
43012

> <i_f3d_flags>
0

> <s_epik_input>
W09IXVtDQEBIXTFbQ0gyXVtDSDJdW0NIMl1bQ0BIXTFjMltjSF1bY0hdW2NIXW5bY0hdMg==

> <s_epik_cmdline>
J2VwaWtfcHl0aG9uJywgJy1waCcsICc3LjAnLCAnLXRuJywgJzgnLCAnLW1hJywgJzIwMCcsICctbWV0YWxfYmluZGluZycsICctaW1hZScsICc8aW5maWxlLm1hZT4nLCAnLW9tYWUnLCAnPG91dGZpbGUubWFlPic=

> <r_epik_Ionization_Penalty>
2.09455

> <r_epik_Ionization_Penalty_Charging>
2.09455

> <r_epik_Ionization_Penalty_Neutral>
5.26757e-08

> <r_epik_State_Penalty>
2.23025

> <r_epik_Charging_Adjusted_Penalty>
4.3248

> <i_epik_Tot_Q>
1

> <i_epik_Tot_abs_Q>
1

> <r_epik_Metal_State_Penalty>
6.30911

> <b_epik_Metal_Only>
0

> <s_lp_Force_Field>
OPLS_2005

> <r_lp_Energy>
27.5674

> <b_lp_Chiralities_Consistent>
1

> <s_lp_Variant>
AV-unprocessed.smi:2724-5

> <Gold.Version>
5.8.1

> <Gold.Id.Protein>
6NUR|6NUR_protein|mol2

> <Gold.PLP.Fitness>
40.8055

> <Gold.PLP.PLP>
-41.0949

> <Gold.PLP.part.hbond>
-3.7093

> <Gold.PLP.part.metal>
0.0000

> <Gold.PLP.part.buried>
-3.9422

> <Gold.PLP.part.nonpolar>
-31.7335

> <Gold.PLP.part.repulsive>
0.0000

> <Gold.PLP.ligand.clash>
0.0000

> <Gold.PLP.ligand.torsion>
0.1450

> <Gold.PLP.Chemscore.Hbond>
0.0000

> <Gold.PLP.Chemscore.CHOScore>
0.0000

> <Gold.PLP.Chemscore.Metal>
0.0000

> <Gold.PLP.Chemscore.Internal.Correction>
0.0007

> <Gold.Rescore>
     Score         DG    S(hbond)    S(metal)    S(lipo)     H(rot)  DE(clash)    DE(int)     intcor
     14.52     -15.03       0.06        0.00     109.56       1.35       0.40       0.11       ----

> <Gold.Chemscore.Fitness>
14.5224

> <Gold.Chemscore.DG>
-15.0302

> <Gold.Chemscore.ZeroCoef>
-5.4800

> <Gold.Chemscore.Hbond>
0.0559

> <Gold.Chemscore.Metal>
0.0000

> <Gold.Chemscore.Lipo>
109.5600

> <Gold.Chemscore.Internal_Hbond>
0.0000

> <Gold.Chemscore.DEClash>
0.4008

> <Gold.Chemscore.DEInternal>
0.1070

> <Gold.Chemscore.Rot>
1.3496

> <Gold.Chemscore.Internal.Correction>
   9.000000E+99

> <Gold.Chemscore.Hbond.Weighted>
-0.1867

> <Gold.Chemscore.Metal.Weighted>
-0.0000

> <Gold.Chemscore.Lipo.Weighted>
-12.8185

> <Gold.Chemscore.Internal_Hbond.Weighted>
0.0000

> <Gold.Chemscore.DEClash.Weighted>
0.4008

> <Gold.Chemscore.DEInternal.Weighted>
0.1070

> <Gold.Chemscore.Rot.Weighted>
3.4550

> <Gold.Chemscore.Internal.Correction.Weighted>
   9.000000E+99

> <Gold.Protein.RotatedTorsions>
[ 6907 6896 6895 6894 ] final  -50.58 input  -60.11 | X-H torsion
[ 7974 7965 7964 7962 ] final  152.51 input  175.53 | X-H torsion
[ 8008 7997 7996 7995 ] final  -55.73 input   59.86 | X-H torsion
[ 10167 10162 10161 10158 ] final  177.91 input  -65.29 | X-H torsion
[ 10718 10713 10712 10709 ] final   92.70 input   66.30 | X-H torsion
[ 10763 10752 10751 10750 ] final -170.55 input  -60.55 | X-H torsion
[ 11005 11000 10999 10996 ] final   -6.77 input  -57.11 | X-H torsion

> <Gold.Protein.ActiveResidues>
 VAL166  LYS551  ARG553  GLY616  TRP617  ASP618  TYR619  PRO620  LYS621  CYS622 
 ASP623  PHE694  ASN695  SER759  ASP760  ASP761  ALA762  ILE779  LEU786  VAL792 
 PHE793  MET794  SER795  GLU796  ALA797  LYS798  CYS799  TRP800  GLU811  SER814 

> <Gold.Protein.RotatedAtoms>
  150.8694  134.8064  159.7142 H   0  0  0  0  0  0  0  0  0  0  0  0  # atno 6907 bound_to 6896
  152.4704  134.4972  159.9723 H   0  0  0  0  0  0  0  0  0  0  0  0  # atno 6908 bound_to 6896
  151.5063  133.3455  159.2913 H   0  0  0  0  0  0  0  0  0  0  0  0  # atno 6909 bound_to 6896
  144.8217  139.6678  143.6097 H   0  0  0  0  0  0  0  0  0  0  0  0  # atno 7974 bound_to 7965
  154.4205  140.1146  156.5524 H   0  0  0  0  0  0  0  0  0  0  0  0  # atno 8008 bound_to 7997
  155.6396  140.3496  155.4691 H   0  0  0  0  0  0  0  0  0  0  0  0  # atno 8009 bound_to 7997
  155.9881  140.1174  157.0653 H   0  0  0  0  0  0  0  0  0  0  0  0  # atno 8010 bound_to 7997
  139.5272  144.2742  152.0602 H   0  0  0  0  0  0  0  0  0  0  0  0  # atno 10167 bound_to 10162
  157.6958  131.0452  150.3922 H   0  0  0  0  0  0  0  0  0  0  0  0  # atno 10718 bound_to 10713
  154.6402  135.2897  155.0112 H   0  0  0  0  0  0  0  0  0  0  0  0  # atno 10763 bound_to 10752
  154.1241  135.6543  153.4913 H   0  0  0  0  0  0  0  0  0  0  0  0  # atno 10764 bound_to 10752
  153.0323  135.5295  154.7266 H   0  0  0  0  0  0  0  0  0  0  0  0  # atno 10765 bound_to 10752
  140.7055  133.8953  155.8714 H   0  0  0  0  0  0  0  0  0  0  0  0  # atno 11005 bound_to 11000
  146.2523  139.6225  142.9419 LP  0  0  0  0  0  0  0  0  0  0  0  0  # atno 17320 bound_to 7965
  145.5090  141.0436  143.2498 LP  0  0  0  0  0  0  0  0  0  0  0  0  # atno 17321 bound_to 7965
  140.2200  144.4475  150.6346 LP  0  0  0  0  0  0  0  0  0  0  0  0  # atno 17342 bound_to 10162
  140.6424  143.2206  151.6260 LP  0  0  0  0  0  0  0  0  0  0  0  0  # atno 17343 bound_to 10162
  156.4324  130.3975  149.6751 LP  0  0  0  0  0  0  0  0  0  0  0  0  # atno 17370 bound_to 10713
  156.3964  130.7653  151.2657 LP  0  0  0  0  0  0  0  0  0  0  0  0  # atno 17371 bound_to 10713
  141.0128  134.0997  157.4204 LP  0  0  0  0  0  0  0  0  0  0  0  0  # atno 17394 bound_to 11000
  139.8885  135.0098  156.6625 LP  0  0  0  0  0  0  0  0  0  0  0  0  # atno 17395 bound_to 11000

$$$$
