AV-unprocessed.smi:618|AV-procd|sdf|3083|dock9
  -GOLD-   22720 0 03D 1   1.00000     0.00000
 Structure written by MMmdl.
 40 42  0  0  0  0  0  0  0  0  1 V2000
  150.5655  134.6196  156.0962 O   0  0  0  0  0  0  0  0  0  0  0  0
  150.0168  135.0741  155.0929 C   0  0  0  0  0  0  0  0  0  0  0  0
  149.2538  134.3432  154.2681 N   0  0  0  0  0  0  0  0  0  0  0  0
  148.9288  132.9317  154.4451 C   0  0  0  0  0  0  0  0  0  0  0  0
  147.4219  132.7316  154.7122 C   0  0  1  0  0  0  0  0  0  0  0  0
  146.5301  133.3234  153.5944 C   0  0  0  0  0  0  0  0  0  0  0  0
  146.5472  132.4744  152.4182 N   0  0  0  0  0  0  0  0  0  0  0  0
  145.6821  132.8586  151.3270 C   0  0  0  0  0  0  0  0  0  0  0  0
  145.5983  131.6000  150.4462 C   0  0  0  0  0  0  0  0  0  0  0  0
  146.0138  130.4457  151.3844 C   0  0  0  0  0  0  0  0  0  0  0  0
  146.1303  131.1381  152.7435 C   0  0  1  0  0  0  0  0  0  0  0  0
  147.0770  130.5119  153.7745 C   0  0  0  0  0  0  0  0  0  0  0  0
  147.0992  131.3490  154.9356 O   0  0  0  0  0  0  0  0  0  0  0  0
  150.0784  136.3536  154.6870 N   0  0  0  0  0  0  0  0  0  0  0  0
  150.7675  137.4402  155.2903 C   0  0  0  0  0  0  0  0  0  0  0  0
  151.5662  137.3302  156.4545 C   0  0  0  0  0  0  0  0  0  0  0  0
  152.2124  138.4807  156.9459 C   0  0  0  0  0  0  0  0  0  0  0  0
  152.0439  139.6951  156.2528 C   0  0  0  0  0  0  0  0  0  0  0  0
  151.2973  139.8114  155.1344 N   0  0  0  0  0  0  0  0  0  0  0  0
  150.6807  138.7042  154.6693 C   0  0  0  0  0  0  0  0  0  0  0  0
  148.8441  134.8042  153.4691 H   0  0  0  0  0  0  0  0  0  0  0  0
  149.2037  132.4189  153.5231 H   0  0  0  0  0  0  0  0  0  0  0  0
  149.5374  132.4796  155.2295 H   0  0  0  0  0  0  0  0  0  0  0  0
  147.1832  133.2604  155.6355 H   0  0  0  0  0  0  0  0  0  0  0  0
  145.5073  133.4132  153.9634 H   0  0  0  0  0  0  0  0  0  0  0  0
  146.8577  134.3310  153.3368 H   0  0  0  0  0  0  0  0  0  0  0  0
  144.6904  133.1134  151.7041 H   0  0  0  0  0  0  0  0  0  0  0  0
  146.0723  133.7231  150.7889 H   0  0  0  0  0  0  0  0  0  0  0  0
  144.5915  131.4633  150.0505 H   0  0  0  0  0  0  0  0  0  0  0  0
  146.2849  131.6679  149.6016 H   0  0  0  0  0  0  0  0  0  0  0  0
  145.2889  129.6313  151.3983 H   0  0  0  0  0  0  0  0  0  0  0  0
  146.9770  130.0384  151.0741 H   0  0  0  0  0  0  0  0  0  0  0  0
  145.1309  131.1772  153.1821 H   0  0  0  0  0  0  0  0  0  0  0  0
  146.7335  129.5171  154.0581 H   0  0  0  0  0  0  0  0  0  0  0  0
  148.0803  130.3988  153.3640 H   0  0  0  0  0  0  0  0  0  0  0  0
  149.5094  136.5926  153.8880 H   0  0  0  0  0  0  0  0  0  0  0  0
  151.7076  136.3926  156.9691 H   0  0  0  0  0  0  0  0  0  0  0  0
  152.8275  138.4323  157.8324 H   0  0  0  0  0  0  0  0  0  0  0  0
  152.5265  140.5956  156.6025 H   0  0  0  0  0  0  0  0  0  0  0  0
  150.0935  138.8344  153.7716 H   0  0  0  0  0  0  0  0  0  0  0  0
  1  2  2  0  0  0  0
  2  3  1  0  0  0  0
  2 14  1  0  0  0  0
  3  4  1  0  0  0  0
  3 21  1  0  0  0  0
  4  5  1  0  0  0  0
  4 22  1  0  0  0  0
  4 23  1  0  0  0  0
  5 13  1  0  0  0  0
  5  6  1  0  0  0  0
  5 24  1  0  0  0  0
  6  7  1  0  0  0  0
  6 25  1  0  0  0  0
  6 26  1  0  0  0  0
  7 11  1  0  0  0  0
  7  8  1  0  0  0  0
  8  9  1  0  0  0  0
  8 27  1  0  0  0  0
  8 28  1  0  0  0  0
  9 10  1  0  0  0  0
  9 29  1  0  0  0  0
  9 30  1  0  0  0  0
 10 11  1  0  0  0  0
 10 31  1  0  0  0  0
 10 32  1  0  0  0  0
 11 12  1  0  0  0  0
 11 33  1  0  0  0  0
 12 13  1  0  0  0  0
 12 34  1  0  0  0  0
 12 35  1  0  0  0  0
 14 15  1  0  0  0  0
 14 36  1  0  0  0  0
 15 20  1  0  0  0  0
 15 16  2  0  0  0  0
 16 17  1  0  0  0  0
 16 37  1  0  0  0  0
 17 18  2  0  0  0  0
 17 38  1  0  0  0  0
 18 19  1  0  0  0  0
 18 39  1  0  0  0  0
 19 20  2  0  0  0  0
 20 40  1  0  0  0  0
M  END
> <s_m_source_file>
AV-unprocessed.smi

> <i_m_source_file_index>
618

> <i_lp_mmshare_version>
43012

> <i_f3d_flags>
0

> <s_epik_input>
W2NIXTFuW2NIXVtjSF1bY0hdYzFbTkhdQyg9TylbTkhdW0NIMl1bQ0BIXShbQ0gyXTIpT1tDSDJdW0NAQEhdKE4yMylbQ0gyXVtDSDJdW0NIMl0z

> <s_epik_cmdline>
J2VwaWtfcHl0aG9uJywgJy1waCcsICc3LjAnLCAnLXRuJywgJzgnLCAnLW1hJywgJzIwMCcsICctbWV0YWxfYmluZGluZycsICctaW1hZScsICc8aW5maWxlLm1hZT4nLCAnLW9tYWUnLCAnPG91dGZpbGUubWFlPic=

> <r_epik_Ionization_Penalty>
1.07277

> <r_epik_Ionization_Penalty_Charging>
0

> <r_epik_Ionization_Penalty_Neutral>
1.07277

> <r_epik_State_Penalty>
1.13623

> <r_epik_Charging_Adjusted_Penalty>
1.13623

> <i_epik_Tot_Q>
0

> <i_epik_Tot_abs_Q>
0

> <r_epik_Metal_State_Penalty>
1.13277

> <b_epik_Metal_Only>
0

> <s_lp_Force_Field>
OPLS_2005

> <r_lp_Energy>
52.4756

> <b_lp_Chiralities_Consistent>
1

> <s_lp_Variant>
AV-unprocessed.smi:618-10

> <Gold.Version>
5.8.1

> <Gold.Id.Protein>
6NUR|6NUR_protein|mol2

> <Gold.PLP.Fitness>
43.1161

> <Gold.PLP.PLP>
-31.5824

> <Gold.PLP.part.hbond>
-3.9093

> <Gold.PLP.part.metal>
0.0000

> <Gold.PLP.part.buried>
-4.1027

> <Gold.PLP.part.nonpolar>
-24.3336

> <Gold.PLP.part.repulsive>
0.3772

> <Gold.PLP.ligand.clash>
0.0000

> <Gold.PLP.ligand.torsion>
0.0213

> <Gold.PLP.Chemscore.Hbond>
2.8560

> <Gold.PLP.Chemscore.CHOScore>
1.0000

> <Gold.PLP.Chemscore.Metal>
0.0000

> <Gold.Chemscore.Hbonds>
donor molecule, donor type, donor heavy atom, donor atom, acceptor molecule, acceptor atom, score
      L1  H     3    21       P1  7948  0.80
      L1  H    14    36       P1  7948  0.78
      P1  H  7989  7998       L1    19  1.00
      L1  C    20    40       P1  7957  0.06

> <Gold.PLP.Chemscore.Internal.Correction>
0.0083

> <Gold.Rescore>
     Score         DG    S(hbond)    S(metal)    S(lipo)     H(rot)  DE(clash)    DE(int)     intcor
     17.21     -18.51       1.90        0.00      84.38       1.25       0.03       1.28       ----

> <Gold.Chemscore.Fitness>
17.2067

> <Gold.Chemscore.DG>
-18.5142

> <Gold.Chemscore.ZeroCoef>
-5.4800

> <Gold.Chemscore.Hbond>
1.9017

> <Gold.Chemscore.Metal>
0.0000

> <Gold.Chemscore.Lipo>
84.3825

> <Gold.Chemscore.Internal_Hbond>
0.0000

> <Gold.Chemscore.DEClash>
0.0291

> <Gold.Chemscore.DEInternal>
1.2784

> <Gold.Chemscore.Rot>
1.2461

> <Gold.Chemscore.Internal.Correction>
   9.000000E+99

> <Gold.Chemscore.Hbonds>
donor molecule, donor type, donor heavy atom, donor atom, acceptor molecule, acceptor atom, score
      L1  H     3    21       P1  7948  0.26
      L1  H    14    36       P1  7948  0.61
      P1  H  7989  7998       L1    19  0.44

> <Gold.Chemscore.Hbond.Weighted>
-6.3515

> <Gold.Chemscore.Metal.Weighted>
-0.0000

> <Gold.Chemscore.Lipo.Weighted>
-9.8728

> <Gold.Chemscore.Internal_Hbond.Weighted>
0.0000

> <Gold.Chemscore.DEClash.Weighted>
0.0291

> <Gold.Chemscore.DEInternal.Weighted>
1.2784

> <Gold.Chemscore.Rot.Weighted>
3.1901

> <Gold.Chemscore.Internal.Correction.Weighted>
   9.000000E+99

> <Gold.Protein.RotatedTorsions>
[ 6907 6896 6895 6894 ] final -114.15 input  -60.11 | X-H torsion
[ 7974 7965 7964 7962 ] final -172.55 input  175.53 | X-H torsion
[ 8008 7997 7996 7995 ] final -132.43 input   59.86 | X-H torsion
[ 10167 10162 10161 10158 ] final   11.43 input  -65.29 | X-H torsion
[ 10718 10713 10712 10709 ] final   39.18 input   66.30 | X-H torsion
[ 10763 10752 10751 10750 ] final  175.90 input  -60.55 | X-H torsion
[ 11005 11000 10999 10996 ] final  126.17 input  -57.11 | X-H torsion

> <Gold.Protein.ActiveResidues>
 VAL166  LYS551  ARG553  GLY616  TRP617  ASP618  TYR619  PRO620  LYS621  CYS622 
 ASP623  PHE694  ASN695  SER759  ASP760  ASP761  ALA762  ILE779  LEU786  VAL792 
 PHE793  MET794  SER795  GLU796  ALA797  LYS798  CYS799  TRP800  GLU811  SER814 

> <Gold.Protein.RotatedAtoms>
  150.7881  133.8842  159.3294 H   0  0  0  0  0  0  0  0  0  0  0  0  # atno 6907 bound_to 6896
  151.6687  135.0977  160.0203 H   0  0  0  0  0  0  0  0  0  0  0  0  # atno 6908 bound_to 6896
  152.3949  133.6694  159.6303 H   0  0  0  0  0  0  0  0  0  0  0  0  # atno 6909 bound_to 6896
  144.7145  140.1756  143.6363 H   0  0  0  0  0  0  0  0  0  0  0  0  # atno 7974 bound_to 7965
  155.3288  140.0466  157.3042 H   0  0  0  0  0  0  0  0  0  0  0  0  # atno 8008 bound_to 7997
  154.5339  140.2266  155.8721 H   0  0  0  0  0  0  0  0  0  0  0  0  # atno 8009 bound_to 7997
  156.1816  140.3072  155.9166 H   0  0  0  0  0  0  0  0  0  0  0  0  # atno 8010 bound_to 7997
  140.6132  143.8364  150.7089 H   0  0  0  0  0  0  0  0  0  0  0  0  # atno 10167 bound_to 10162
  157.3675  130.7683  149.7094 H   0  0  0  0  0  0  0  0  0  0  0  0  # atno 10718 bound_to 10713
  154.4739  135.2772  155.1622 H   0  0  0  0  0  0  0  0  0  0  0  0  # atno 10763 bound_to 10752
  154.3359  135.6180  153.5577 H   0  0  0  0  0  0  0  0  0  0  0  0  # atno 10764 bound_to 10752
  152.9867  135.5777  154.5126 H   0  0  0  0  0  0  0  0  0  0  0  0  # atno 10765 bound_to 10752
  139.9442  134.9632  156.8667 H   0  0  0  0  0  0  0  0  0  0  0  0  # atno 11005 bound_to 11000
  145.8904  139.2372  143.1553 LP  0  0  0  0  0  0  0  0  0  0  0  0  # atno 17320 bound_to 7965
  145.9909  140.8603  143.0067 LP  0  0  0  0  0  0  0  0  0  0  0  0  # atno 17321 bound_to 7965
  140.1937  143.4016  152.1844 LP  0  0  0  0  0  0  0  0  0  0  0  0  # atno 17342 bound_to 10162
  139.5377  144.7226  151.4836 LP  0  0  0  0  0  0  0  0  0  0  0  0  # atno 17343 bound_to 10162
  155.9749  130.4096  150.3889 LP  0  0  0  0  0  0  0  0  0  0  0  0  # atno 17370 bound_to 10713
  157.1975  131.0430  151.2668 LP  0  0  0  0  0  0  0  0  0  0  0  0  # atno 17371 bound_to 10713
  140.5875  134.0293  155.7487 LP  0  0  0  0  0  0  0  0  0  0  0  0  # atno 17394 bound_to 11000
  141.1088  133.9651  157.2949 LP  0  0  0  0  0  0  0  0  0  0  0  0  # atno 17395 bound_to 11000

$$$$
