AV-unprocessed.smi:2056|AV-procd|sdf|8339|dock1
  -GOLD-   2272011 03D 1   1.00000     0.00000
 Structure written by MMmdl.
 33 33  0  0  0  0  0  0  0  0  2 V2000
  147.7045  136.0382  162.7838 C   0  0  0  0  0  0  0  0  0  0  0  0
  146.9378  134.9918  161.9472 C   0  0  0  0  0  0  0  0  0  0  0  0
  147.6514  133.6340  162.0972 C   0  0  0  0  0  0  0  0  0  0  0  0
  145.5049  134.8502  162.5035 C   0  0  0  0  0  0  0  0  0  0  0  0
  146.9280  135.3669  160.4357 C   0  0  0  0  0  0  0  0  0  0  0  0
  148.2016  136.0476  159.9049 C   0  0  0  0  0  0  0  0  0  0  0  0
  148.4790  137.1853  160.2879 O   0  0  0  0  0  0  0  0  0  0  0  0
  148.8747  135.2601  159.0313 N   0  5  0  0  0  0  0  0  0  0  0  0
  148.9699  135.6287  157.7448 C   0  0  0  0  0  0  0  0  0  0  0  0
  148.7999  136.8903  157.3350 N   0  0  0  0  0  0  0  0  0  0  0  0
  148.9549  137.0577  155.9557 C   0  0  0  0  0  0  0  0  0  0  0  0
  148.7902  138.4173  155.3360 C   0  0  0  0  0  0  0  0  0  0  0  0
  149.9879  138.7864  154.4528 C   0  0  0  0  0  0  0  0  0  0  0  0
  150.2225  138.0326  153.3740 N   0  0  0  0  0  0  0  0  0  0  0  0
  150.6840  139.7612  154.7290 O   0  0  0  0  0  0  0  0  0  0  0  0
  149.2470  135.8870  155.3039 C   0  0  0  0  0  0  0  0  0  0  0  0
  149.3514  134.5445  156.4059 S   0  0  0  0  0  0  0  0  0  0  0  0
  147.7886  135.7284  163.8259 H   0  0  0  0  0  0  0  0  0  0  0  0
  147.2059  137.0080  162.7778 H   0  0  0  0  0  0  0  0  0  0  0  0
  148.7152  136.1864  162.4020 H   0  0  0  0  0  0  0  0  0  0  0  0
  148.6785  133.6828  161.7341 H   0  0  0  0  0  0  0  0  0  0  0  0
  147.1409  132.8524  161.5336 H   0  0  0  0  0  0  0  0  0  0  0  0
  147.6885  133.3148  163.1394 H   0  0  0  0  0  0  0  0  0  0  0  0
  145.5142  134.4917  163.5332 H   0  0  0  0  0  0  0  0  0  0  0  0
  144.9195  134.1427  161.9154 H   0  0  0  0  0  0  0  0  0  0  0  0
  144.9717  135.8011  162.5027 H   0  0  0  0  0  0  0  0  0  0  0  0
  146.7143  134.4768  159.8399 H   0  0  0  0  0  0  0  0  0  0  0  0
  146.0957  136.0443  160.2396 H   0  0  0  0  0  0  0  0  0  0  0  0
  147.8860  138.4554  154.7278 H   0  0  0  0  0  0  0  0  0  0  0  0
  148.6686  139.1744  156.1119 H   0  0  0  0  0  0  0  0  0  0  0  0
  150.9878  138.2626  152.7568 H   0  0  0  0  0  0  0  0  0  0  0  0
  149.6178  137.2511  153.1672 H   0  0  0  0  0  0  0  0  0  0  0  0
  149.4106  135.7334  154.2480 H   0  0  0  0  0  0  0  0  0  0  0  0
  1  2  1  0  0  0  0
  1 18  1  0  0  0  0
  1 19  1  0  0  0  0
  1 20  1  0  0  0  0
  2  3  1  0  0  0  0
  2  4  1  0  0  0  0
  2  5  1  0  0  0  0
  3 21  1  0  0  0  0
  3 22  1  0  0  0  0
  3 23  1  0  0  0  0
  4 24  1  0  0  0  0
  4 25  1  0  0  0  0
  4 26  1  0  0  0  0
  5  6  1  0  0  0  0
  5 27  1  0  0  0  0
  5 28  1  0  0  0  0
  6  7  2  0  0  0  0
  6  8  1  0  0  0  0
  8  9  1  0  0  0  0
  9 17  1  0  0  0  0
  9 10  2  0  0  0  0
 10 11  1  0  0  0  0
 11 12  1  0  0  0  0
 11 16  2  0  0  0  0
 12 13  1  0  0  0  0
 12 29  1  0  0  0  0
 12 30  1  0  0  0  0
 13 14  1  0  0  0  0
 13 15  2  0  0  0  0
 14 31  1  0  0  0  0
 14 32  1  0  0  0  0
 16 17  1  0  0  0  0
 16 33  1  0  0  0  0
M  CHG  1   8  -1
M  END
> <s_m_source_file>
AV-unprocessed.smi

> <i_m_source_file_index>
2056

> <i_lp_mmshare_version>
43012

> <i_f3d_flags>
0

> <s_epik_input>
W0NIM11DKFtDSDNdKShbQ0gzXSlbQ0gyXUMoPU8pW05IXWMxbmMoW2NIXXMxKVtDSDJdQyg9TylbTkgyXQ==

> <s_epik_cmdline>
J2VwaWtfcHl0aG9uJywgJy1waCcsICc3LjAnLCAnLXRuJywgJzgnLCAnLW1hJywgJzIwMCcsICctbWV0YWxfYmluZGluZycsICctaW1hZScsICc8aW5maWxlLm1hZT4nLCAnLW9tYWUnLCAnPG91dGZpbGUubWFlPic=

> <r_lp_tautomer_probability>
1

> <r_epik_Ionization_Penalty>
5.16109

> <r_epik_Ionization_Penalty_Charging>
4.76142

> <r_epik_Ionization_Penalty_Neutral>
0.39967

> <r_epik_State_Penalty>
4.76123

> <r_epik_Charging_Adjusted_Penalty>
9.52265

> <i_epik_Tot_Q>
-1

> <i_epik_Tot_abs_Q>
1

> <r_epik_Metal_State_Penalty>
0.964035

> <b_epik_Metal_Only>
1

> <s_lp_Force_Field>
OPLS_2005

> <r_lp_Energy>
1.47772

> <b_lp_Chiralities_Consistent>
1

> <s_lp_Variant>
AV-unprocessed.smi:2056-2

> <Gold.Version>
5.8.1

> <Gold.Id.Protein>
6NUR|6NUR_protein|mol2

> <Gold.PLP.Fitness>
45.2053

> <Gold.PLP.PLP>
-30.0814

> <Gold.PLP.part.hbond>
-6.7041

> <Gold.PLP.part.metal>
0.0000

> <Gold.PLP.part.buried>
-3.9639

> <Gold.PLP.part.nonpolar>
-19.5369

> <Gold.PLP.part.repulsive>
0.1517

> <Gold.PLP.ligand.clash>
0.0000

> <Gold.PLP.ligand.torsion>
1.2193

> <Gold.PLP.Chemscore.Hbond>
4.8110

> <Gold.PLP.Chemscore.CHOScore>
1.0000

> <Gold.PLP.Chemscore.Metal>
0.0000

> <Gold.Chemscore.Hbonds>
donor molecule, donor type, donor heavy atom, donor atom, acceptor molecule, acceptor atom, score
      L1  H    14    32       P1  7948  0.86
      P1  H  6896  6908       L1     8  1.85
      P1  H  6931  6943       L1     7  0.66
      P1  H  6934  6947       L1     7  0.14
      P1  H  7989  7998       L1    15  1.00
      L1  C    16    33       P1  7948  1.00

> <Gold.PLP.Chemscore.Internal.Correction>
0.1295

> <Gold.Rescore>
     Score         DG    S(hbond)    S(metal)    S(lipo)     H(rot)  DE(clash)    DE(int)     intcor
     13.79     -17.51       3.54        0.00      49.19       2.16       0.00       3.72       ----

> <Gold.Chemscore.Fitness>
13.7927

> <Gold.Chemscore.DG>
-17.5146

> <Gold.Chemscore.ZeroCoef>
-5.4800

> <Gold.Chemscore.Hbond>
3.5353

> <Gold.Chemscore.Metal>
0.0000

> <Gold.Chemscore.Lipo>
49.1868

> <Gold.Chemscore.Internal_Hbond>
0.0000

> <Gold.Chemscore.DEClash>
0.0000

> <Gold.Chemscore.DEInternal>
3.7219

> <Gold.Chemscore.Rot>
2.1594

> <Gold.Chemscore.Internal.Correction>
   9.000000E+99

> <Gold.Chemscore.Hbonds>
donor molecule, donor type, donor heavy atom, donor atom, acceptor molecule, acceptor atom, score
      L1  H    14    32       P1  7948  0.59
      P1  H  6896  6908       L1     8  0.42
      P1  H  6931  6943       L1     7  0.63
      P1  H  6934  6947       L1     7  0.15
      P1  H  7989  7998       L1    15  1.00

> <Gold.Chemscore.Hbond.Weighted>
-11.8079

> <Gold.Chemscore.Metal.Weighted>
-0.0000

> <Gold.Chemscore.Lipo.Weighted>
-5.7549

> <Gold.Chemscore.Internal_Hbond.Weighted>
0.0000

> <Gold.Chemscore.DEClash.Weighted>
0.0000

> <Gold.Chemscore.DEInternal.Weighted>
3.7219

> <Gold.Chemscore.Rot.Weighted>
5.5281

> <Gold.Chemscore.Internal.Correction.Weighted>
   9.000000E+99

> <Gold.Protein.RotatedTorsions>
[ 6907 6896 6895 6894 ] final  148.32 input  -60.11 | X-H torsion
[ 7974 7965 7964 7962 ] final   83.62 input  175.53 | X-H torsion
[ 8008 7997 7996 7995 ] final -178.47 input   59.86 | X-H torsion
[ 10167 10162 10161 10158 ] final -162.25 input  -65.29 | X-H torsion
[ 10718 10713 10712 10709 ] final -178.28 input   66.30 | X-H torsion
[ 10763 10752 10751 10750 ] final   67.06 input  -60.55 | X-H torsion
[ 11005 11000 10999 10996 ] final -156.23 input  -57.11 | X-H torsion

> <Gold.Protein.ActiveResidues>
 VAL166  LYS551  ARG553  GLY616  TRP617  ASP618  TYR619  PRO620  LYS621  CYS622 
 ASP623  PHE694  ASN695  SER759  ASP760  ASP761  ALA762  ILE779  LEU786  VAL792 
 PHE793  MET794  SER795  GLU796  ALA797  LYS798  CYS799  TRP800  GLU811  SER814 

> <Gold.Protein.RotatedAtoms>
  152.1430  133.4475  159.4775 H   0  0  0  0  0  0  0  0  0  0  0  0  # atno 6907 bound_to 6896
  150.6888  134.2282  159.4433 H   0  0  0  0  0  0  0  0  0  0  0  0  # atno 6908 bound_to 6896
  152.0174  134.9842  160.0620 H   0  0  0  0  0  0  0  0  0  0  0  0  # atno 6909 bound_to 6896
  145.6095  139.2366  143.2200 H   0  0  0  0  0  0  0  0  0  0  0  0  # atno 7974 bound_to 7965
  156.0192  140.1257  157.0375 H   0  0  0  0  0  0  0  0  0  0  0  0  # atno 8008 bound_to 7997
  154.4305  140.1072  156.6009 H   0  0  0  0  0  0  0  0  0  0  0  0  # atno 8009 bound_to 7997
  155.5969  140.3470  155.4585 H   0  0  0  0  0  0  0  0  0  0  0  0  # atno 8010 bound_to 7997
  139.6406  144.0268  152.2088 H   0  0  0  0  0  0  0  0  0  0  0  0  # atno 10167 bound_to 10162
  156.8420  130.9689  151.3099 H   0  0  0  0  0  0  0  0  0  0  0  0  # atno 10718 bound_to 10713
  153.0168  135.5298  154.6920 H   0  0  0  0  0  0  0  0  0  0  0  0  # atno 10763 bound_to 10752
  154.6052  135.2872  155.0494 H   0  0  0  0  0  0  0  0  0  0  0  0  # atno 10764 bound_to 10752
  154.1536  135.6559  153.5022 H   0  0  0  0  0  0  0  0  0  0  0  0  # atno 10765 bound_to 10752
  140.6778  134.4177  157.5228 H   0  0  0  0  0  0  0  0  0  0  0  0  # atno 11005 bound_to 11000
  146.1515  140.6919  142.9320 LP  0  0  0  0  0  0  0  0  0  0  0  0  # atno 17320 bound_to 7965
  144.7276  140.4572  143.6962 LP  0  0  0  0  0  0  0  0  0  0  0  0  # atno 17321 bound_to 7965
  139.9956  144.6330  150.7775 LP  0  0  0  0  0  0  0  0  0  0  0  0  # atno 17342 bound_to 10162
  140.7488  143.2929  151.3282 LP  0  0  0  0  0  0  0  0  0  0  0  0  # atno 17343 bound_to 10162
  157.6350  130.8760  149.9343 LP  0  0  0  0  0  0  0  0  0  0  0  0  # atno 17370 bound_to 10713
  156.0875  130.3666  150.0459 LP  0  0  0  0  0  0  0  0  0  0  0  0  # atno 17371 bound_to 10713
  139.8961  134.8667  156.2102 LP  0  0  0  0  0  0  0  0  0  0  0  0  # atno 17394 bound_to 11000
  141.0341  133.6972  156.1482 LP  0  0  0  0  0  0  0  0  0  0  0  0  # atno 17395 bound_to 11000

$$$$
