AV-unprocessed.smi:1513|AV-procd|sdf|6111|dock6
  -GOLD-   22720 6243D 1   1.00000     0.00000
 Structure written by MMmdl.
 33 34  0  0  0  0  0  0  0  0  2 V2000
  148.0718  144.8509  159.2670 N   0  5  0  0  0  0  0  0  0  0  0  0
  147.0020  143.6470  159.1927 S   0  0  0  0  0  0  0  0  0  0  0  0
  146.4918  143.2195  160.5044 O   0  0  0  0  0  0  0  0  0  0  0  0
  146.0448  143.7835  158.0840 O   0  0  0  0  0  0  0  0  0  0  0  0
  148.1234  142.4360  158.7080 N   0  0  0  0  0  0  0  0  0  0  0  0
  148.8333  142.5545  157.4356 C   0  0  0  0  0  0  0  0  0  0  0  0
  149.9748  141.5575  157.3045 C   0  0  0  0  0  0  0  0  0  0  0  0
  149.9330  140.5723  156.2959 C   0  0  0  0  0  0  0  0  0  0  0  0
  151.0012  139.6637  156.1809 C   0  0  0  0  0  0  0  0  0  0  0  0
  152.0746  139.7776  157.0839 C   0  0  0  0  0  0  0  0  0  0  0  0
  152.1289  140.7134  158.0544 N   0  0  0  0  0  0  0  0  0  0  0  0
  151.1003  141.5886  158.1679 C   0  0  0  0  0  0  0  0  0  0  0  0
  151.1740  142.5422  159.1953 N   0  0  0  0  0  0  0  0  0  0  0  0
  152.1943  142.2501  160.1937 C   0  0  0  0  0  0  0  0  0  0  0  0
  152.0816  143.2422  161.3643 C   0  0  0  0  0  0  0  0  0  0  0  0
  152.1597  144.5770  160.8696 O   0  0  0  0  0  0  0  0  0  0  0  0
  151.1092  144.8700  159.9522 C   0  0  0  0  0  0  0  0  0  0  0  0
  151.2049  143.9256  158.7416 C   0  0  0  0  0  0  0  0  0  0  0  0
  148.1496  145.2682  158.3318 H   0  0  0  0  0  0  0  0  0  0  0  0
  148.6664  142.0435  159.4763 H   0  0  0  0  0  0  0  0  0  0  0  0
  148.1180  142.4303  156.6221 H   0  0  0  0  0  0  0  0  0  0  0  0
  149.2407  143.5610  157.3376 H   0  0  0  0  0  0  0  0  0  0  0  0
  149.0951  140.5115  155.6170 H   0  0  0  0  0  0  0  0  0  0  0  0
  150.9975  138.8987  155.4187 H   0  0  0  0  0  0  0  0  0  0  0  0
  152.9125  139.0987  157.0261 H   0  0  0  0  0  0  0  0  0  0  0  0
  152.0783  141.2283  160.5567 H   0  0  0  0  0  0  0  0  0  0  0  0
  153.1834  142.3224  159.7396 H   0  0  0  0  0  0  0  0  0  0  0  0
  151.1471  143.0982  161.9080 H   0  0  0  0  0  0  0  0  0  0  0  0
  152.8910  143.0774  162.0754 H   0  0  0  0  0  0  0  0  0  0  0  0
  150.1415  144.7708  160.4471 H   0  0  0  0  0  0  0  0  0  0  0  0
  151.1976  145.9069  159.6283 H   0  0  0  0  0  0  0  0  0  0  0  0
  152.1294  144.1151  158.1943 H   0  0  0  0  0  0  0  0  0  0  0  0
  150.3770  144.1080  158.0556 H   0  0  0  0  0  0  0  0  0  0  0  0
  1  2  1  0  0  0  0
  1 19  1  0  0  0  0
  2  3  2  0  0  0  0
  2  4  2  0  0  0  0
  2  5  1  0  0  0  0
  5  6  1  0  0  0  0
  5 20  1  0  0  0  0
  6  7  1  0  0  0  0
  6 21  1  0  0  0  0
  6 22  1  0  0  0  0
  7 12  1  0  0  0  0
  7  8  2  0  0  0  0
  8  9  1  0  0  0  0
  8 23  1  0  0  0  0
  9 10  2  0  0  0  0
  9 24  1  0  0  0  0
 10 11  1  0  0  0  0
 10 25  1  0  0  0  0
 11 12  2  0  0  0  0
 12 13  1  0  0  0  0
 13 18  1  0  0  0  0
 13 14  1  0  0  0  0
 14 15  1  0  0  0  0
 14 26  1  0  0  0  0
 14 27  1  0  0  0  0
 15 16  1  0  0  0  0
 15 28  1  0  0  0  0
 15 29  1  0  0  0  0
 16 17  1  0  0  0  0
 17 18  1  0  0  0  0
 17 30  1  0  0  0  0
 17 31  1  0  0  0  0
 18 32  1  0  0  0  0
 18 33  1  0  0  0  0
M  CHG  1   1  -1
M  END
> <s_m_source_file>
AV-unprocessed.smi

> <i_m_source_file_index>
1513

> <i_lp_mmshare_version>
43012

> <i_f3d_flags>
0

> <s_epik_input>
W05IMl1TKD1PKSg9TylbTkhdW0NIMl1jMVtjSF1bY0hdW2NIXW5jMU4yW0NIMl1bQ0gyXU9bQ0gyXVtDSDJdMg==

> <s_epik_cmdline>
J2VwaWtfcHl0aG9uJywgJy1waCcsICc3LjAnLCAnLXRuJywgJzgnLCAnLW1hJywgJzIwMCcsICctbWV0YWxfYmluZGluZycsICctaW1hZScsICc8aW5maWxlLm1hZT4nLCAnLW9tYWUnLCAnPG91dGZpbGUubWFlPic=

> <r_lp_tautomer_probability>
1

> <r_epik_Ionization_Penalty>
2.76303

> <r_epik_Ionization_Penalty_Charging>
2.75358

> <r_epik_Ionization_Penalty_Neutral>
0.00945191

> <r_epik_State_Penalty>
2.93489

> <r_epik_Charging_Adjusted_Penalty>
5.68847

> <i_epik_Tot_Q>
-1

> <i_epik_Tot_abs_Q>
1

> <r_epik_Metal_State_Penalty>
0.838637

> <b_epik_Metal_Only>
1

> <s_lp_Force_Field>
OPLS_2005

> <r_lp_Energy>
17.6636

> <b_lp_Chiralities_Consistent>
1

> <s_lp_Variant>
AV-unprocessed.smi:1513-4

> <Gold.Version>
5.8.1

> <Gold.Id.Protein>
6NUR|6NUR_protein|mol2

> <Gold.PLP.Fitness>
36.3283

> <Gold.PLP.PLP>
-28.3812

> <Gold.PLP.part.hbond>
-4.5742

> <Gold.PLP.part.metal>
0.0000

> <Gold.PLP.part.buried>
-2.0225

> <Gold.PLP.part.nonpolar>
-22.0411

> <Gold.PLP.part.repulsive>
0.2945

> <Gold.PLP.ligand.clash>
0.0000

> <Gold.PLP.ligand.torsion>
0.2465

> <Gold.PLP.Chemscore.Hbond>
2.7556

> <Gold.PLP.Chemscore.CHOScore>
0.0000

> <Gold.PLP.Chemscore.Metal>
0.0000

> <Gold.Chemscore.Hbonds>
donor molecule, donor type, donor heavy atom, donor atom, acceptor molecule, acceptor atom, score
      L1  H     1    19       P1  8029  0.37
      P1  H  6933  6944       L1     3  0.15
      P1  H  6934  6946       L1     3  0.08

> <Gold.PLP.Chemscore.Internal.Correction>
0.1732

> <Gold.Rescore>
     Score         DG    S(hbond)    S(metal)    S(lipo)     H(rot)  DE(clash)    DE(int)     intcor
     12.83     -13.83       1.97        0.00      68.78       2.45       0.40       0.60       ----

> <Gold.Chemscore.Fitness>
12.8314

> <Gold.Chemscore.DG>
-13.8296

> <Gold.Chemscore.ZeroCoef>
-5.4800

> <Gold.Chemscore.Hbond>
1.9659

> <Gold.Chemscore.Metal>
0.0000

> <Gold.Chemscore.Lipo>
68.7845

> <Gold.Chemscore.Internal_Hbond>
0.0000

> <Gold.Chemscore.DEClash>
0.3962

> <Gold.Chemscore.DEInternal>
0.6021

> <Gold.Chemscore.Rot>
2.4470

> <Gold.Chemscore.Internal.Correction>
   9.000000E+99

> <Gold.Chemscore.Hbonds>
donor molecule, donor type, donor heavy atom, donor atom, acceptor molecule, acceptor atom, score
      L1  H     1    19       P1  8029  0.37
      P1  H  6933  6944       L1     3  0.04
      P1  H  6934  6946       L1     3  0.07

> <Gold.Chemscore.Hbond.Weighted>
-6.5661

> <Gold.Chemscore.Metal.Weighted>
-0.0000

> <Gold.Chemscore.Lipo.Weighted>
-8.0478

> <Gold.Chemscore.Internal_Hbond.Weighted>
0.0000

> <Gold.Chemscore.DEClash.Weighted>
0.3962

> <Gold.Chemscore.DEInternal.Weighted>
0.6021

> <Gold.Chemscore.Rot.Weighted>
6.2642

> <Gold.Chemscore.Internal.Correction.Weighted>
   9.000000E+99

> <Gold.Protein.RotatedTorsions>
[ 6907 6896 6895 6894 ] final  119.54 input  -60.11 | X-H torsion
[ 7974 7965 7964 7962 ] final    9.69 input  175.53 | X-H torsion
[ 8008 7997 7996 7995 ] final   11.94 input   59.86 | X-H torsion
[ 10167 10162 10161 10158 ] final   84.29 input  -65.29 | X-H torsion
[ 10718 10713 10712 10709 ] final  116.06 input   66.30 | X-H torsion
[ 10763 10752 10751 10750 ] final    0.13 input  -60.55 | X-H torsion
[ 11005 11000 10999 10996 ] final  120.01 input  -57.11 | X-H torsion

> <Gold.Protein.ActiveResidues>
 VAL166  LYS551  ARG553  GLY616  TRP617  ASP618  TYR619  PRO620  LYS621  CYS622 
 ASP623  PHE694  ASN695  SER759  ASP760  ASP761  ALA762  ILE779  LEU786  VAL792 
 PHE793  MET794  SER795  GLU796  ALA797  LYS798  CYS799  TRP800  GLU811  SER814 

> <Gold.Protein.RotatedAtoms>
  152.4464  133.7545  159.6712 H   0  0  0  0  0  0  0  0  0  0  0  0  # atno 6907 bound_to 6896
  150.8365  133.7994  159.3083 H   0  0  0  0  0  0  0  0  0  0  0  0  # atno 6908 bound_to 6896
  151.5632  135.1067  160.0029 H   0  0  0  0  0  0  0  0  0  0  0  0  # atno 6909 bound_to 6896
  146.2400  139.9746  142.8443 H   0  0  0  0  0  0  0  0  0  0  0  0  # atno 7974 bound_to 7965
  154.8138  140.2872  155.5835 H   0  0  0  0  0  0  0  0  0  0  0  0  # atno 8008 bound_to 7997
  156.2991  140.2563  156.2961 H   0  0  0  0  0  0  0  0  0  0  0  0  # atno 8009 bound_to 7997
  154.9417  140.0381  157.2089 H   0  0  0  0  0  0  0  0  0  0  0  0  # atno 8010 bound_to 7997
  139.9096  144.6280  150.8551 H   0  0  0  0  0  0  0  0  0  0  0  0  # atno 10167 bound_to 10162
  157.6183  131.1020  150.7419 H   0  0  0  0  0  0  0  0  0  0  0  0  # atno 10718 bound_to 10713
  153.3246  135.6971  153.7001 H   0  0  0  0  0  0  0  0  0  0  0  0  # atno 10763 bound_to 10752
  153.5827  135.3495  155.2882 H   0  0  0  0  0  0  0  0  0  0  0  0  # atno 10764 bound_to 10752
  154.8605  135.4299  154.2419 H   0  0  0  0  0  0  0  0  0  0  0  0  # atno 10765 bound_to 10752
  139.9168  134.9632  156.7741 H   0  0  0  0  0  0  0  0  0  0  0  0  # atno 11005 bound_to 11000
  145.1649  140.9692  143.4355 LP  0  0  0  0  0  0  0  0  0  0  0  0  # atno 17320 bound_to 7965
  145.0082  139.3535  143.6133 LP  0  0  0  0  0  0  0  0  0  0  0  0  # atno 17321 bound_to 7965
  140.7688  143.3376  151.2277 LP  0  0  0  0  0  0  0  0  0  0  0  0  # atno 17342 bound_to 10162
  139.6954  143.9622  152.2880 LP  0  0  0  0  0  0  0  0  0  0  0  0  # atno 17343 bound_to 10162
  156.7782  130.4850  149.5406 LP  0  0  0  0  0  0  0  0  0  0  0  0  # atno 17370 bound_to 10713
  156.1316  130.6182  151.0342 LP  0  0  0  0  0  0  0  0  0  0  0  0  # atno 17371 bound_to 10713
  140.6597  133.9656  155.7798 LP  0  0  0  0  0  0  0  0  0  0  0  0  # atno 17394 bound_to 11000
  141.0652  134.0287  157.3604 LP  0  0  0  0  0  0  0  0  0  0  0  0  # atno 17395 bound_to 11000

$$$$
