AV-unprocessed.smi:656|AV-procd|sdf|3219|dock9
  -GOLD-   22720 0153D 1   1.00000     0.00000
 Structure written by MMmdl.
 41 42  0  0  0  0  0  0  0  0  2 V2000
  141.5774  138.0642  153.2486 C   0  0  0  0  0  0  0  0  0  0  0  0
  142.5462  137.2336  154.0973 C   0  0  0  0  0  0  0  0  0  0  0  0
  143.7910  136.7985  153.3044 C   0  0  0  0  0  0  0  0  0  0  0  0
  144.7238  137.9238  153.0402 N   0  3  2  0  0  0  0  0  0  0  0  0
  145.6506  137.6274  151.9169 C   0  0  0  0  0  0  0  0  0  0  0  0
  146.5228  138.8478  151.5680 C   0  0  0  0  0  0  0  0  0  0  0  0
  147.3006  139.3691  152.7883 C   0  0  2  0  0  0  0  0  0  0  0  0
  148.3677  138.4365  153.1516 N   0  0  0  0  0  0  0  0  0  0  0  0
  149.2391  138.6082  154.1568 C   0  0  0  0  0  0  0  0  0  0  0  0
  149.2267  139.5860  154.9046 O   0  0  0  0  0  0  0  0  0  0  0  0
  150.1071  137.5842  154.2288 N   0  0  0  0  0  0  0  0  0  0  0  0
  151.1509  137.3876  155.1708 C   0  0  0  0  0  0  0  0  0  0  0  0
  151.7671  138.5656  155.6444 C   0  0  0  0  0  0  0  0  0  0  0  0
  152.8128  138.4429  156.5753 C   0  0  0  0  0  0  0  0  0  0  0  0
  153.1728  137.1432  156.9707 C   0  0  0  0  0  0  0  0  0  0  0  0
  152.5544  136.0423  156.4912 N   0  0  0  0  0  0  0  0  0  0  0  0
  151.5600  136.1669  155.6054 N   0  0  0  0  0  0  0  0  0  0  0  0
  146.3220  139.6114  153.9543 C   0  0  0  0  0  0  0  0  0  0  0  0
  145.4606  138.3717  154.2521 C   0  0  0  0  0  0  0  0  0  0  0  0
  140.7041  138.3576  153.8317 H   0  0  0  0  0  0  0  0  0  0  0  0
  141.2260  137.4988  152.3850 H   0  0  0  0  0  0  0  0  0  0  0  0
  142.0532  138.9745  152.8824 H   0  0  0  0  0  0  0  0  0  0  0  0
  142.8511  137.8182  154.9663 H   0  0  0  0  0  0  0  0  0  0  0  0
  142.0110  136.3654  154.4804 H   0  0  0  0  0  0  0  0  0  0  0  0
  144.3168  135.9923  153.8184 H   0  0  0  0  0  0  0  0  0  0  0  0
  143.4529  136.3864  152.3524 H   0  0  0  0  0  0  0  0  0  0  0  0
  146.2776  136.7733  152.1775 H   0  0  0  0  0  0  0  0  0  0  0  0
  145.0781  137.3390  151.0344 H   0  0  0  0  0  0  0  0  0  0  0  0
  147.2103  138.5987  150.7586 H   0  0  0  0  0  0  0  0  0  0  0  0
  145.8826  139.6441  151.1860 H   0  0  0  0  0  0  0  0  0  0  0  0
  147.7658  140.3179  152.5143 H   0  0  0  0  0  0  0  0  0  0  0  0
  148.4592  137.6058  152.5855 H   0  0  0  0  0  0  0  0  0  0  0  0
  150.0064  136.8574  153.5359 H   0  0  0  0  0  0  0  0  0  0  0  0
  151.4495  139.5407  155.3050 H   0  0  0  0  0  0  0  0  0  0  0  0
  153.3192  139.3110  156.9704 H   0  0  0  0  0  0  0  0  0  0  0  0
  153.9692  136.9825  157.6822 H   0  0  0  0  0  0  0  0  0  0  0  0
  146.8586  139.9178  154.8530 H   0  0  0  0  0  0  0  0  0  0  0  0
  145.6667  140.4456  153.7006 H   0  0  0  0  0  0  0  0  0  0  0  0
  144.7628  138.6196  155.0508 H   0  0  0  0  0  0  0  0  0  0  0  0
  146.0852  137.5580  154.6240 H   0  0  0  0  0  0  0  0  0  0  0  0
  144.1547  138.7011  152.7367 H   0  0  0  0  0  0  0  0  0  0  0  0
  1  2  1  0  0  0  0
  1 20  1  0  0  0  0
  1 21  1  0  0  0  0
  1 22  1  0  0  0  0
  2  3  1  0  0  0  0
  2 23  1  0  0  0  0
  2 24  1  0  0  0  0
  3  4  1  0  0  0  0
  3 25  1  0  0  0  0
  3 26  1  0  0  0  0
  4 19  1  0  0  0  0
  4  5  1  0  0  0  0
  4 41  1  0  0  0  0
  5  6  1  0  0  0  0
  5 27  1  0  0  0  0
  5 28  1  0  0  0  0
  6  7  1  0  0  0  0
  6 29  1  0  0  0  0
  6 30  1  0  0  0  0
  7  8  1  0  0  0  0
  7 18  1  0  0  0  0
  7 31  1  0  0  0  0
  8  9  1  0  0  0  0
  8 32  1  0  0  0  0
  9 10  2  0  0  0  0
  9 11  1  0  0  0  0
 11 12  1  0  0  0  0
 11 33  1  0  0  0  0
 12 17  1  0  0  0  0
 12 13  2  0  0  0  0
 13 14  1  0  0  0  0
 13 34  1  0  0  0  0
 14 15  2  0  0  0  0
 14 35  1  0  0  0  0
 15 16  1  0  0  0  0
 15 36  1  0  0  0  0
 16 17  2  0  0  0  0
 18 19  1  0  0  0  0
 18 37  1  0  0  0  0
 18 38  1  0  0  0  0
 19 39  1  0  0  0  0
 19 40  1  0  0  0  0
M  CHG  1   4   1
M  END
> <s_m_source_file>
AV-unprocessed.smi

> <i_m_source_file_index>
656

> <i_lp_mmshare_version>
43012

> <i_f3d_flags>
0

> <s_epik_input>
W0NIM11bQ0gyXVtDSDJdTjFbQ0gyXVtDSDJdW0NIXShbQ0gyXVtDSDJdMSlbTkhdQyg9TylbTkhdYzJbY0hdW2NIXVtjSF1ubjI=

> <s_epik_cmdline>
J2VwaWtfcHl0aG9uJywgJy1waCcsICc3LjAnLCAnLXRuJywgJzgnLCAnLW1hJywgJzIwMCcsICctbWV0YWxfYmluZGluZycsICctaW1hZScsICc8aW5maWxlLm1hZT4nLCAnLW9tYWUnLCAnPG91dGZpbGUubWFlPic=

> <r_lp_tautomer_probability>
1

> <r_epik_Ionization_Penalty>
0.00614766

> <r_epik_Ionization_Penalty_Charging>
0.00269617

> <r_epik_Ionization_Penalty_Neutral>
0.00345149

> <r_epik_State_Penalty>
-0

> <r_epik_Charging_Adjusted_Penalty>
0.00269617

> <i_epik_Tot_Q>
1

> <i_epik_Tot_abs_Q>
1

> <r_epik_Metal_State_Penalty>
-0

> <b_epik_Metal_Only>
0

> <s_lp_Force_Field>
OPLS_2005

> <r_lp_Energy>
22.9398

> <b_lp_Chiralities_Consistent>
1

> <s_lp_Variant>
AV-unprocessed.smi:656-2

> <Gold.Version>
5.8.1

> <Gold.Id.Protein>
6NUR|6NUR_protein|mol2

> <Gold.PLP.Fitness>
38.7553

> <Gold.PLP.PLP>
-25.6526

> <Gold.PLP.part.hbond>
-6.0021

> <Gold.PLP.part.metal>
0.0000

> <Gold.PLP.part.buried>
3.2539

> <Gold.PLP.part.nonpolar>
-24.3685

> <Gold.PLP.part.repulsive>
0.2579

> <Gold.PLP.ligand.clash>
0.0000

> <Gold.PLP.ligand.torsion>
0.3872

> <Gold.PLP.Chemscore.Hbond>
4.6192

> <Gold.PLP.Chemscore.CHOScore>
0.0000

> <Gold.PLP.Chemscore.Metal>
0.0000

> <Gold.Chemscore.Hbonds>
donor molecule, donor type, donor heavy atom, donor atom, acceptor molecule, acceptor atom, score
      L1  H     4    41       P1 10175  2.00
      L1  H     8    32       P1  7948  1.00
      L1  H    11    33       P1  7948  0.92
      P1  H 10752 10764       L1    16  0.65

> <Gold.PLP.Chemscore.Internal.Correction>
0.0195

> <Gold.Rescore>
     Score         DG    S(hbond)    S(metal)    S(lipo)     H(rot)  DE(clash)    DE(int)     intcor
     13.53     -16.41       2.40        0.00      56.75       1.45       0.38       2.50       ----

> <Gold.Chemscore.Fitness>
13.5314

> <Gold.Chemscore.DG>
-16.4143

> <Gold.Chemscore.ZeroCoef>
-5.4800

> <Gold.Chemscore.Hbond>
2.3984

> <Gold.Chemscore.Metal>
0.0000

> <Gold.Chemscore.Lipo>
56.7537

> <Gold.Chemscore.Internal_Hbond>
0.0000

> <Gold.Chemscore.DEClash>
0.3824

> <Gold.Chemscore.DEInternal>
2.5004

> <Gold.Chemscore.Rot>
1.4518

> <Gold.Chemscore.Internal.Correction>
   9.000000E+99

> <Gold.Chemscore.Hbonds>
donor molecule, donor type, donor heavy atom, donor atom, acceptor molecule, acceptor atom, score
      L1  H     4    41       P1 10175  0.99
      L1  H     8    32       P1  7948  0.99
      L1  H    11    33       P1  7948  0.21
      P1  H 10752 10764       L1    16  0.04

> <Gold.Chemscore.Hbond.Weighted>
-8.0106

> <Gold.Chemscore.Metal.Weighted>
-0.0000

> <Gold.Chemscore.Lipo.Weighted>
-6.6402

> <Gold.Chemscore.Internal_Hbond.Weighted>
0.0000

> <Gold.Chemscore.DEClash.Weighted>
0.3824

> <Gold.Chemscore.DEInternal.Weighted>
2.5004

> <Gold.Chemscore.Rot.Weighted>
3.7165

> <Gold.Chemscore.Internal.Correction.Weighted>
   9.000000E+99

> <Gold.Protein.RotatedTorsions>
[ 6907 6896 6895 6894 ] final  113.66 input  -60.11 | X-H torsion
[ 7974 7965 7964 7962 ] final   15.79 input  175.53 | X-H torsion
[ 8008 7997 7996 7995 ] final   89.43 input   59.86 | X-H torsion
[ 10167 10162 10161 10158 ] final   15.73 input  -65.29 | X-H torsion
[ 10718 10713 10712 10709 ] final   92.24 input   66.30 | X-H torsion
[ 10763 10752 10751 10750 ] final    9.29 input  -60.55 | X-H torsion
[ 11005 11000 10999 10996 ] final   91.69 input  -57.11 | X-H torsion

> <Gold.Protein.ActiveResidues>
 VAL166  LYS551  ARG553  GLY616  TRP617  ASP618  TYR619  PRO620  LYS621  CYS622 
 ASP623  PHE694  ASN695  SER759  ASP760  ASP761  ALA762  ILE779  LEU786  VAL792 
 PHE793  MET794  SER795  GLU796  ALA797  LYS798  CYS799  TRP800  GLU811  SER814 

> <Gold.Protein.RotatedAtoms>
  152.4848  133.8345  159.7120 H   0  0  0  0  0  0  0  0  0  0  0  0  # atno 6907 bound_to 6896
  150.8926  133.7214  159.2907 H   0  0  0  0  0  0  0  0  0  0  0  0  # atno 6908 bound_to 6896
  151.4682  135.1047  159.9796 H   0  0  0  0  0  0  0  0  0  0  0  0  # atno 6909 bound_to 6896
  146.2268  139.8842  142.8565 H   0  0  0  0  0  0  0  0  0  0  0  0  # atno 7974 bound_to 7965
  155.9999  140.3361  155.6835 H   0  0  0  0  0  0  0  0  0  0  0  0  # atno 8008 bound_to 7997
  155.6305  140.0684  157.2668 H   0  0  0  0  0  0  0  0  0  0  0  0  # atno 8009 bound_to 7997
  154.4246  140.1760  156.1455 H   0  0  0  0  0  0  0  0  0  0  0  0  # atno 8010 bound_to 7997
  140.5847  143.8913  150.6820 H   0  0  0  0  0  0  0  0  0  0  0  0  # atno 10167 bound_to 10162
  157.6959  131.0436  150.3851 H   0  0  0  0  0  0  0  0  0  0  0  0  # atno 10718 bound_to 10713
  153.2156  135.6874  153.8061 H   0  0  0  0  0  0  0  0  0  0  0  0  # atno 10763 bound_to 10752
  153.7278  135.3257  155.3281 H   0  0  0  0  0  0  0  0  0  0  0  0  # atno 10764 bound_to 10752
  154.8244  135.4628  154.0982 H   0  0  0  0  0  0  0  0  0  0  0  0  # atno 10765 bound_to 10752
  139.8835  134.8689  156.3465 H   0  0  0  0  0  0  0  0  0  0  0  0  # atno 11005 bound_to 11000
  145.2482  141.0034  143.3896 LP  0  0  0  0  0  0  0  0  0  0  0  0  # atno 17320 bound_to 7965
  144.9396  139.4204  143.6455 LP  0  0  0  0  0  0  0  0  0  0  0  0  # atno 17321 bound_to 7965
  140.2421  143.3656  152.1478 LP  0  0  0  0  0  0  0  0  0  0  0  0  # atno 17342 bound_to 10162
  139.5190  144.7014  151.5482 LP  0  0  0  0  0  0  0  0  0  0  0  0  # atno 17343 bound_to 10162
  156.4261  130.3962  149.6792 LP  0  0  0  0  0  0  0  0  0  0  0  0  # atno 17370 bound_to 10713
  156.4026  130.7682  151.2691 LP  0  0  0  0  0  0  0  0  0  0  0  0  # atno 17371 bound_to 10713
  140.9623  133.7380  156.0419 LP  0  0  0  0  0  0  0  0  0  0  0  0  # atno 17394 bound_to 11000
  140.7974  134.3548  157.5449 LP  0  0  0  0  0  0  0  0  0  0  0  0  # atno 17395 bound_to 11000

$$$$
