AV-unprocessed.smi:957|AV-procd|sdf|4265|dock2
  -GOLD-   22720 2173D 1   1.00000     0.00000
 Structure written by MMmdl.
 30 31  0  0  0  0  0  0  0  0  2 V2000
  148.9939  140.1583  154.0806 C   0  0  0  0  0  0  0  0  0  0  0  0
  149.4462  139.0832  155.0763 C   0  0  0  0  0  0  0  0  0  0  0  0
  150.8685  138.8092  154.9661 N   0  0  0  0  0  0  0  0  0  0  0  0
  151.4683  137.8525  154.2409 C   0  0  0  0  0  0  0  0  0  0  0  0
  152.7972  137.8296  154.3236 N   0  0  0  0  0  0  0  0  0  0  0  0
  153.1085  138.8647  155.1800 N   0  0  0  0  0  0  0  0  0  0  0  0
  151.9374  139.4097  155.5354 C   0  0  0  0  0  0  0  0  0  0  0  0
  151.8294  140.5854  156.4666 C   0  0  2  0  0  0  0  0  0  0  0  0
  151.4937  140.1509  157.9062 C   0  0  0  0  0  0  0  0  0  0  0  0
  151.3753  141.3766  158.8248 C   0  0  0  0  0  0  0  0  0  0  0  0
  150.3626  142.3877  158.2625 C   0  0  0  0  0  0  0  0  0  0  0  0
  150.7265  142.7806  156.8838 N   0  3  0  0  0  0  0  0  0  0  0  0
  150.8135  141.6294  155.9583 C   0  0  0  0  0  0  0  0  0  0  0  0
  147.9228  140.3411  154.1691 H   0  0  0  0  0  0  0  0  0  0  0  0
  149.1941  139.8512  153.0537 H   0  0  0  0  0  0  0  0  0  0  0  0
  149.5066  141.1048  154.2520 H   0  0  0  0  0  0  0  0  0  0  0  0
  149.2170  139.3793  156.1001 H   0  0  0  0  0  0  0  0  0  0  0  0
  148.8995  138.1574  154.8935 H   0  0  0  0  0  0  0  0  0  0  0  0
  150.9168  137.1509  153.6322 H   0  0  0  0  0  0  0  0  0  0  0  0
  152.7980  141.0823  156.5046 H   0  0  0  0  0  0  0  0  0  0  0  0
  150.5543  139.5963  157.9203 H   0  0  0  0  0  0  0  0  0  0  0  0
  152.2602  139.4747  158.2861 H   0  0  0  0  0  0  0  0  0  0  0  0
  151.0755  141.0649  159.8259 H   0  0  0  0  0  0  0  0  0  0  0  0
  152.3512  141.8530  158.9287 H   0  0  0  0  0  0  0  0  0  0  0  0
  149.3592  141.9595  158.2609 H   0  0  0  0  0  0  0  0  0  0  0  0
  150.3285  143.2787  158.8898 H   0  0  0  0  0  0  0  0  0  0  0  0
  150.0352  143.4293  156.5345 H   0  0  0  0  0  0  0  0  0  0  0  0
  151.1041  141.9925  154.9719 H   0  0  0  0  0  0  0  0  0  0  0  0
  149.8226  141.1849  155.8550 H   0  0  0  0  0  0  0  0  0  0  0  0
  151.6240  143.2429  156.9078 H   0  0  0  0  0  0  0  0  0  0  0  0
  1  2  1  0  0  0  0
  1 14  1  0  0  0  0
  1 15  1  0  0  0  0
  1 16  1  0  0  0  0
  2  3  1  0  0  0  0
  2 17  1  0  0  0  0
  2 18  1  0  0  0  0
  3  7  1  0  0  0  0
  3  4  1  0  0  0  0
  4  5  2  0  0  0  0
  4 19  1  0  0  0  0
  5  6  1  0  0  0  0
  6  7  2  0  0  0  0
  7  8  1  0  0  0  0
  8 13  1  0  0  0  0
  8  9  1  0  0  0  0
  8 20  1  0  0  0  0
  9 10  1  0  0  0  0
  9 21  1  0  0  0  0
  9 22  1  0  0  0  0
 10 11  1  0  0  0  0
 10 23  1  0  0  0  0
 10 24  1  0  0  0  0
 11 12  1  0  0  0  0
 11 25  1  0  0  0  0
 11 26  1  0  0  0  0
 12 13  1  0  0  0  0
 12 27  1  0  0  0  0
 12 30  1  0  0  0  0
 13 28  1  0  0  0  0
 13 29  1  0  0  0  0
M  CHG  1  12   1
M  END
> <s_m_source_file>
AV-unprocessed.smi

> <i_m_source_file_index>
957

> <i_lp_mmshare_version>
43012

> <i_f3d_flags>
0

> <s_epik_input>
W0NIM11bQ0gyXW4xW2NIXW5uYzFbQ0BASF0yW0NIMl1bQ0gyXVtDSDJdW05IXVtDSDJdMg==

> <s_epik_cmdline>
J2VwaWtfcHl0aG9uJywgJy1waCcsICc3LjAnLCAnLXRuJywgJzgnLCAnLW1hJywgJzIwMCcsICctbWV0YWxfYmluZGluZycsICctaW1hZScsICc8aW5maWxlLm1hZT4nLCAnLW9tYWUnLCAnPG91dGZpbGUubWFlPic=

> <r_lp_tautomer_probability>
1

> <r_epik_Ionization_Penalty>
0.000442722

> <r_epik_Ionization_Penalty_Charging>
0.000426856

> <r_epik_Ionization_Penalty_Neutral>
1.58656e-05

> <r_epik_State_Penalty>
-0

> <r_epik_Charging_Adjusted_Penalty>
0.000426856

> <i_epik_Tot_Q>
1

> <i_epik_Tot_abs_Q>
1

> <r_epik_Metal_State_Penalty>
-0

> <b_epik_Metal_Only>
0

> <s_lp_Force_Field>
OPLS_2005

> <r_lp_Energy>
16.0383

> <b_lp_Chiralities_Consistent>
1

> <s_lp_Variant>
AV-unprocessed.smi:957-1

> <Gold.Version>
5.8.1

> <Gold.Id.Protein>
6NUR|6NUR_protein|mol2

> <Gold.PLP.Fitness>
37.8177

> <Gold.PLP.PLP>
-26.2529

> <Gold.PLP.part.hbond>
-3.0000

> <Gold.PLP.part.metal>
0.0000

> <Gold.PLP.part.buried>
-4.0250

> <Gold.PLP.part.nonpolar>
-19.6707

> <Gold.PLP.part.repulsive>
0.1060

> <Gold.PLP.ligand.clash>
0.0000

> <Gold.PLP.ligand.torsion>
0.8802

> <Gold.PLP.Chemscore.Hbond>
3.3257

> <Gold.PLP.Chemscore.CHOScore>
1.1072

> <Gold.PLP.Chemscore.Metal>
0.0000

> <Gold.Chemscore.Hbonds>
donor molecule, donor type, donor heavy atom, donor atom, acceptor molecule, acceptor atom, score
      L1  H    12    27       P1  8028  2.00
      P1  H  7997  8009       L1     6  0.94
      P1  H 10752 10765       L1     5  0.31
      L1  C     4    19       P1  7948  0.14
      L1  C     4    19       P1  7949  0.98

> <Gold.PLP.Chemscore.Internal.Correction>
0.0267

> <Gold.Rescore>
     Score         DG    S(hbond)    S(metal)    S(lipo)     H(rot)  DE(clash)    DE(int)     intcor
     12.52     -13.15       1.85        0.00      40.23       1.26       0.00       0.63       ----

> <Gold.Chemscore.Fitness>
12.5215

> <Gold.Chemscore.DG>
-13.1541

> <Gold.Chemscore.ZeroCoef>
-5.4800

> <Gold.Chemscore.Hbond>
1.8520

> <Gold.Chemscore.Metal>
0.0000

> <Gold.Chemscore.Lipo>
40.2312

> <Gold.Chemscore.Internal_Hbond>
0.0000

> <Gold.Chemscore.DEClash>
0.0009

> <Gold.Chemscore.DEInternal>
0.6317

> <Gold.Chemscore.Rot>
1.2573

> <Gold.Chemscore.Internal.Correction>
   9.000000E+99

> <Gold.Chemscore.Hbonds>
donor molecule, donor type, donor heavy atom, donor atom, acceptor molecule, acceptor atom, score
      L1  H    12    27       P1  8028  0.99
      P1  H  7997  8009       L1     6  0.19
      P1  H 10752 10765       L1     5  0.06

> <Gold.Chemscore.Hbond.Weighted>
-6.1858

> <Gold.Chemscore.Metal.Weighted>
-0.0000

> <Gold.Chemscore.Lipo.Weighted>
-4.7070

> <Gold.Chemscore.Internal_Hbond.Weighted>
0.0000

> <Gold.Chemscore.DEClash.Weighted>
0.0009

> <Gold.Chemscore.DEInternal.Weighted>
0.6317

> <Gold.Chemscore.Rot.Weighted>
3.2188

> <Gold.Chemscore.Internal.Correction.Weighted>
   9.000000E+99

> <Gold.Protein.RotatedTorsions>
[ 6907 6896 6895 6894 ] final -113.29 input  -60.11 | X-H torsion
[ 7974 7965 7964 7962 ] final  -99.73 input  175.53 | X-H torsion
[ 8008 7997 7996 7995 ] final -152.72 input   59.86 | X-H torsion
[ 10167 10162 10161 10158 ] final -107.88 input  -65.29 | X-H torsion
[ 10718 10713 10712 10709 ] final  119.85 input   66.30 | X-H torsion
[ 10763 10752 10751 10750 ] final  145.47 input  -60.55 | X-H torsion
[ 11005 11000 10999 10996 ] final   27.71 input  -57.11 | X-H torsion

> <Gold.Protein.ActiveResidues>
 VAL166  LYS551  ARG553  GLY616  TRP617  ASP618  TYR619  PRO620  LYS621  CYS622 
 ASP623  PHE694  ASN695  SER759  ASP760  ASP761  ALA762  ILE779  LEU786  VAL792 
 PHE793  MET794  SER795  GLU796  ALA797  LYS798  CYS799  TRP800  GLU811  SER814 

> <Gold.Protein.RotatedAtoms>
  150.7819  133.8965  159.3328 H   0  0  0  0  0  0  0  0  0  0  0  0  # atno 6907 bound_to 6896
  151.6826  135.0957  160.0228 H   0  0  0  0  0  0  0  0  0  0  0  0  # atno 6908 bound_to 6896
  152.3872  133.6590  159.6244 H   0  0  0  0  0  0  0  0  0  0  0  0  # atno 6909 bound_to 6896
  145.3038  140.9384  143.2808 H   0  0  0  0  0  0  0  0  0  0  0  0  # atno 7974 bound_to 7965
  155.6595  140.0721  157.2559 H   0  0  0  0  0  0  0  0  0  0  0  0  # atno 8008 bound_to 7997
  154.4145  140.1718  156.1812 H   0  0  0  0  0  0  0  0  0  0  0  0  # atno 8009 bound_to 7997
  155.9709  140.3362  155.6578 H   0  0  0  0  0  0  0  0  0  0  0  0  # atno 8010 bound_to 7997
  140.1722  143.4034  152.1346 H   0  0  0  0  0  0  0  0  0  0  0  0  # atno 10167 bound_to 10162
  157.5933  131.1061  150.7953 H   0  0  0  0  0  0  0  0  0  0  0  0  # atno 10718 bound_to 10713
  154.0059  135.2919  155.3397 H   0  0  0  0  0  0  0  0  0  0  0  0  # atno 10763 bound_to 10752
  154.7132  135.5141  153.8701 H   0  0  0  0  0  0  0  0  0  0  0  0  # atno 10764 bound_to 10752
  153.0745  135.6659  154.0296 H   0  0  0  0  0  0  0  0  0  0  0  0  # atno 10765 bound_to 10752
  140.3234  134.2518  155.7713 H   0  0  0  0  0  0  0  0  0  0  0  0  # atno 11005 bound_to 11000
  144.9072  139.4575  143.6604 LP  0  0  0  0  0  0  0  0  0  0  0  0  # atno 17320 bound_to 7965
  146.3142  139.7859  142.8996 LP  0  0  0  0  0  0  0  0  0  0  0  0  # atno 17321 bound_to 7965
  139.5333  144.7182  151.4981 LP  0  0  0  0  0  0  0  0  0  0  0  0  # atno 17342 bound_to 10162
  140.6575  143.8569  150.6851 LP  0  0  0  0  0  0  0  0  0  0  0  0  # atno 17343 bound_to 10162
  156.8370  130.5035  149.5325 LP  0  0  0  0  0  0  0  0  0  0  0  0  # atno 17370 bound_to 10713
  156.0991  130.5955  150.9863 LP  0  0  0  0  0  0  0  0  0  0  0  0  # atno 17371 bound_to 10713
  141.2081  133.7787  157.0078 LP  0  0  0  0  0  0  0  0  0  0  0  0  # atno 17394 bound_to 11000
  140.0923  134.9585  157.1795 LP  0  0  0  0  0  0  0  0  0  0  0  0  # atno 17395 bound_to 11000

$$$$
