AV-unprocessed.smi:1585|AV-procd|sdf|6371|dock5
  -GOLD-   22720 7 03D 1   1.00000     0.00000
 Structure written by MMmdl.
 42 43  0  0  0  0  0  0  0  0  3 V2000
  151.7234  142.0733  159.1114 C   0  0  0  0  0  0  0  0  0  0  0  0
  151.5084  141.3559  157.8228 C   0  0  0  0  0  0  0  0  0  0  0  0
  150.5612  141.4678  156.8447 C   0  0  0  0  0  0  0  0  0  0  0  0
  150.9460  140.4730  155.9048 C   0  0  0  0  0  0  0  0  0  0  0  0
  150.3240  140.1953  154.7484 N   0  5  0  0  0  0  0  0  0  0  0  0
  148.9730  140.1601  154.6949 C   0  0  0  0  0  0  0  0  0  0  0  0
  148.2006  140.1519  155.6561 O   0  0  0  0  0  0  0  0  0  0  0  0
  148.4847  140.1291  153.4485 N   0  0  0  0  0  0  0  0  0  0  0  0
  147.0700  140.0668  153.1056 C   0  0  0  0  0  0  0  0  0  0  0  0
  146.7530  138.7850  152.3167 C   0  0  2  0  0  0  0  0  0  0  0  0
  145.7210  139.0796  151.3952 O   0  0  0  0  0  0  0  0  0  0  0  0
  146.2443  137.6657  153.2476 C   0  0  0  0  0  0  0  0  0  0  0  0
  146.2976  136.3220  152.6163 N   0  3  0  0  0  0  0  0  0  0  0  0
  145.2162  136.1301  151.6149 C   0  0  0  0  0  0  0  0  0  0  0  0
  145.3781  134.7952  150.8687 C   0  0  0  0  0  0  0  0  0  0  0  0
  145.4269  133.6178  151.8506 C   0  0  0  0  0  0  0  0  0  0  0  0
  146.5260  133.8526  152.8948 C   0  0  0  0  0  0  0  0  0  0  0  0
  146.3363  135.2062  153.5999 C   0  0  0  0  0  0  0  0  0  0  0  0
  152.0404  139.8271  156.2714 N   0  0  0  0  0  0  0  0  0  0  0  0
  152.4034  140.3823  157.5043 O   0  0  0  0  0  0  0  0  0  0  0  0
  151.4747  143.1299  159.0114 H   0  0  0  0  0  0  0  0  0  0  0  0
  152.7629  142.0007  159.4317 H   0  0  0  0  0  0  0  0  0  0  0  0
  151.0966  141.6505  159.8965 H   0  0  0  0  0  0  0  0  0  0  0  0
  149.7232  142.1474  156.8089 H   0  0  0  0  0  0  0  0  0  0  0  0
  149.1477  140.1378  152.6873 H   0  0  0  0  0  0  0  0  0  0  0  0
  146.5034  140.0672  154.0385 H   0  0  0  0  0  0  0  0  0  0  0  0
  146.7694  140.9595  152.5540 H   0  0  0  0  0  0  0  0  0  0  0  0
  147.6419  138.4607  151.7760 H   0  0  0  0  0  0  0  0  0  0  0  0
  145.1482  139.7238  151.7847 H   0  0  0  0  0  0  0  0  0  0  0  0
  146.8186  137.6465  154.1750 H   0  0  0  0  0  0  0  0  0  0  0  0
  145.2171  137.8986  153.5335 H   0  0  0  0  0  0  0  0  0  0  0  0
  144.2463  136.1693  152.1136 H   0  0  0  0  0  0  0  0  0  0  0  0
  145.2341  136.9458  150.8911 H   0  0  0  0  0  0  0  0  0  0  0  0
  144.5567  134.6597  150.1647 H   0  0  0  0  0  0  0  0  0  0  0  0
  146.2935  134.8165  150.2757 H   0  0  0  0  0  0  0  0  0  0  0  0
  144.4618  133.5112  152.3478 H   0  0  0  0  0  0  0  0  0  0  0  0
  145.6078  132.6856  151.3143 H   0  0  0  0  0  0  0  0  0  0  0  0
  146.5207  133.0455  153.6280 H   0  0  0  0  0  0  0  0  0  0  0  0
  147.5036  133.8254  152.4114 H   0  0  0  0  0  0  0  0  0  0  0  0
  147.1508  135.3485  154.3088 H   0  0  0  0  0  0  0  0  0  0  0  0
  145.4123  135.1988  154.1803 H   0  0  0  0  0  0  0  0  0  0  0  0
  147.1659  136.2922  152.1003 H   0  0  0  0  0  0  0  0  0  0  0  0
  1  2  1  0  0  0  0
  1 21  1  0  0  0  0
  1 22  1  0  0  0  0
  1 23  1  0  0  0  0
  2 20  1  0  0  0  0
  2  3  2  0  0  0  0
  3  4  1  0  0  0  0
  3 24  1  0  0  0  0
  4  5  1  0  0  0  0
  4 19  2  0  0  0  0
  5  6  1  0  0  0  0
  6  7  2  0  0  0  0
  6  8  1  0  0  0  0
  8  9  1  0  0  0  0
  8 25  1  0  0  0  0
  9 10  1  0  0  0  0
  9 26  1  0  0  0  0
  9 27  1  0  0  0  0
 10 11  1  0  0  0  0
 10 12  1  0  0  0  0
 10 28  1  0  0  0  0
 11 29  1  0  0  0  0
 12 13  1  0  0  0  0
 12 30  1  0  0  0  0
 12 31  1  0  0  0  0
 13 18  1  0  0  0  0
 13 14  1  0  0  0  0
 13 42  1  0  0  0  0
 14 15  1  0  0  0  0
 14 32  1  0  0  0  0
 14 33  1  0  0  0  0
 15 16  1  0  0  0  0
 15 34  1  0  0  0  0
 15 35  1  0  0  0  0
 16 17  1  0  0  0  0
 16 36  1  0  0  0  0
 16 37  1  0  0  0  0
 17 18  1  0  0  0  0
 17 38  1  0  0  0  0
 17 39  1  0  0  0  0
 18 40  1  0  0  0  0
 18 41  1  0  0  0  0
 19 20  1  0  0  0  0
M  CHG  1   5  -1
M  CHG  1  13   1
M  END
> <s_m_source_file>
AV-unprocessed.smi

> <i_m_source_file_index>
1585

> <i_lp_mmshare_version>
43012

> <i_f3d_flags>
0

> <s_epik_input>
W0NIM11jMVtjSF1jKG5vMSlbTkhdQyg9TylbTkhdW0NIMl1bQ0BIXShbT0hdKVtDSDJdTjJbQ0gyXVtDSDJdW0NIMl1bQ0gyXVtDSDJdMg==

> <s_epik_cmdline>
J2VwaWtfcHl0aG9uJywgJy1waCcsICc3LjAnLCAnLXRuJywgJzgnLCAnLW1hJywgJzIwMCcsICctbWV0YWxfYmluZGluZycsICctaW1hZScsICc8aW5maWxlLm1hZT4nLCAnLW9tYWUnLCAnPG91dGZpbGUubWFlPic=

> <r_epik_Ionization_Penalty>
6.29903

> <r_epik_Ionization_Penalty_Charging>
6.29893

> <r_epik_Ionization_Penalty_Neutral>
0.000107719

> <r_epik_State_Penalty>
6.29786

> <r_epik_Charging_Adjusted_Penalty>
12.5968

> <i_epik_Tot_Q>
0

> <i_epik_Tot_abs_Q>
2

> <r_epik_Metal_State_Penalty>
2.22942

> <b_epik_Metal_Only>
1

> <s_lp_Force_Field>
OPLS_2005

> <r_lp_Energy>
8.76377

> <b_lp_Chiralities_Consistent>
1

> <s_lp_Variant>
AV-unprocessed.smi:1585-3

> <Gold.Version>
5.8.1

> <Gold.Id.Protein>
6NUR|6NUR_protein|mol2

> <Gold.PLP.Fitness>
47.4305

> <Gold.PLP.PLP>
-34.4821

> <Gold.PLP.part.hbond>
-6.2494

> <Gold.PLP.part.metal>
0.0000

> <Gold.PLP.part.buried>
-2.8870

> <Gold.PLP.part.nonpolar>
-25.1289

> <Gold.PLP.part.repulsive>
0.2675

> <Gold.PLP.ligand.clash>
0.0000

> <Gold.PLP.ligand.torsion>
1.1314

> <Gold.PLP.Chemscore.Hbond>
5.0000

> <Gold.PLP.Chemscore.CHOScore>
0.0000

> <Gold.PLP.Chemscore.Metal>
0.0000

> <Gold.Chemscore.Hbonds>
donor molecule, donor type, donor heavy atom, donor atom, acceptor molecule, acceptor atom, score
      L1  H     8    25       P1  7957  1.00
      L1  H    11    29       P1 10175  1.00
      L1  H    13    42       P1  7948  2.00
      P1  H  7989  7998       L1     5  1.00

> <Gold.PLP.Chemscore.Internal.Correction>
0.2111

> <Gold.Rescore>
     Score         DG    S(hbond)    S(metal)    S(lipo)     H(rot)  DE(clash)    DE(int)     intcor
     15.65     -17.99       3.40        0.00      63.52       2.45       0.05       2.29       ----

> <Gold.Chemscore.Fitness>
15.6529

> <Gold.Chemscore.DG>
-17.9944

> <Gold.Chemscore.ZeroCoef>
-5.4800

> <Gold.Chemscore.Hbond>
3.3963

> <Gold.Chemscore.Metal>
0.0000

> <Gold.Chemscore.Lipo>
63.5245

> <Gold.Chemscore.Internal_Hbond>
0.0000

> <Gold.Chemscore.DEClash>
0.0542

> <Gold.Chemscore.DEInternal>
2.2873

> <Gold.Chemscore.Rot>
2.4459

> <Gold.Chemscore.Internal.Correction>
   9.000000E+99

> <Gold.Chemscore.Hbonds>
donor molecule, donor type, donor heavy atom, donor atom, acceptor molecule, acceptor atom, score
      L1  H     8    25       P1  7957  0.97
      L1  H    11    29       P1 10175  0.70
      L1  H    13    42       P1  7948  0.99
      P1  H  7989  7998       L1     5  0.25

> <Gold.Chemscore.Hbond.Weighted>
-11.3436

> <Gold.Chemscore.Metal.Weighted>
-0.0000

> <Gold.Chemscore.Lipo.Weighted>
-7.4324

> <Gold.Chemscore.Internal_Hbond.Weighted>
0.0000

> <Gold.Chemscore.DEClash.Weighted>
0.0542

> <Gold.Chemscore.DEInternal.Weighted>
2.2873

> <Gold.Chemscore.Rot.Weighted>
6.2615

> <Gold.Chemscore.Internal.Correction.Weighted>
   9.000000E+99

> <Gold.Protein.RotatedTorsions>
[ 6907 6896 6895 6894 ] final  160.48 input  -60.11 | X-H torsion
[ 7974 7965 7964 7962 ] final   14.81 input  175.53 | X-H torsion
[ 8008 7997 7996 7995 ] final    7.38 input   59.86 | X-H torsion
[ 10167 10162 10161 10158 ] final   77.14 input  -65.29 | X-H torsion
[ 10718 10713 10712 10709 ] final   70.99 input   66.30 | X-H torsion
[ 10763 10752 10751 10750 ] final  132.77 input  -60.55 | X-H torsion
[ 11005 11000 10999 10996 ] final  119.69 input  -57.11 | X-H torsion

> <Gold.Protein.ActiveResidues>
 VAL166  LYS551  ARG553  GLY616  TRP617  ASP618  TYR619  PRO620  LYS621  CYS622 
 ASP623  PHE694  ASN695  SER759  ASP760  ASP761  ALA762  ILE779  LEU786  VAL792 
 PHE793  MET794  SER795  GLU796  ALA797  LYS798  CYS799  TRP800  GLU811  SER814 

> <Gold.Protein.RotatedAtoms>
  151.9700  133.3723  159.4067 H   0  0  0  0  0  0  0  0  0  0  0  0  # atno 6907 bound_to 6896
  150.6950  134.4150  159.5188 H   0  0  0  0  0  0  0  0  0  0  0  0  # atno 6908 bound_to 6896
  152.1852  134.8719  160.0573 H   0  0  0  0  0  0  0  0  0  0  0  0  # atno 6909 bound_to 6896
  146.2295  139.8986  142.8543 H   0  0  0  0  0  0  0  0  0  0  0  0  # atno 7974 bound_to 7965
  154.7531  140.2770  155.6276 H   0  0  0  0  0  0  0  0  0  0  0  0  # atno 8008 bound_to 7997
  156.2900  140.2674  156.2216 H   0  0  0  0  0  0  0  0  0  0  0  0  # atno 8009 bound_to 7997
  155.0112  140.0372  157.2390 H   0  0  0  0  0  0  0  0  0  0  0  0  # atno 8010 bound_to 7997
  139.9848  144.5800  150.7869 H   0  0  0  0  0  0  0  0  0  0  0  0  # atno 10167 bound_to 10162
  157.6428  130.9505  150.0726 H   0  0  0  0  0  0  0  0  0  0  0  0  # atno 10718 bound_to 10713
  153.7962  135.3148  155.3384 H   0  0  0  0  0  0  0  0  0  0  0  0  # atno 10763 bound_to 10752
  154.8107  135.4669  154.0511 H   0  0  0  0  0  0  0  0  0  0  0  0  # atno 10764 bound_to 10752
  153.1845  135.6899  153.8521 H   0  0  0  0  0  0  0  0  0  0  0  0  # atno 10765 bound_to 10752
  139.9156  134.9630  156.7693 H   0  0  0  0  0  0  0  0  0  0  0  0  # atno 11005 bound_to 11000
  145.2346  140.9986  143.3971 LP  0  0  0  0  0  0  0  0  0  0  0  0  # atno 17320 bound_to 7965
  144.9502  139.4091  143.6406 LP  0  0  0  0  0  0  0  0  0  0  0  0  # atno 17321 bound_to 7965
  140.7476  143.2909  151.3333 LP  0  0  0  0  0  0  0  0  0  0  0  0  # atno 17342 bound_to 10162
  139.6383  144.0588  152.2534 LP  0  0  0  0  0  0  0  0  0  0  0  0  # atno 17343 bound_to 10162
  156.1726  130.3647  149.9144 LP  0  0  0  0  0  0  0  0  0  0  0  0  # atno 17370 bound_to 10713
  156.7116  130.8972  151.3610 LP  0  0  0  0  0  0  0  0  0  0  0  0  # atno 17371 bound_to 10713
  140.6634  133.9624  155.7817 LP  0  0  0  0  0  0  0  0  0  0  0  0  # atno 17394 bound_to 11000
  141.0628  134.0322  157.3636 LP  0  0  0  0  0  0  0  0  0  0  0  0  # atno 17395 bound_to 11000

$$$$
