AV-unprocessed.smi:2597|AV-procd|sdf|10174|dock9
  -GOLD-   2272014183D 1   1.00000     0.00000
 Structure written by MMmdl.
 30 31  0  0  0  0  0  0  0  0  1 V2000
  148.8725  138.5480  151.0465 N   0  0  0  0  0  0  0  0  0  0  0  0
  147.7497  139.2851  151.5995 C   0  0  1  0  0  0  0  0  0  0  0  0
  146.8265  138.3368  152.3928 C   0  0  0  0  0  0  0  0  0  0  0  0
  145.6443  139.1019  153.0094 C   0  0  0  0  0  0  0  0  0  0  0  0
  146.1170  140.2870  153.8668 C   0  0  0  0  0  0  0  0  0  0  0  0
  147.0143  141.2396  153.0556 C   0  0  0  0  0  0  0  0  0  0  0  0
  148.2218  140.5280  152.4061 C   0  0  1  0  0  0  0  0  0  0  0  0
  149.2910  140.2803  153.3769 N   0  0  0  0  0  0  0  0  0  0  0  0
  149.6810  139.0604  153.8923 C   0  0  0  0  0  0  0  0  0  0  0  0
  150.7306  139.3687  154.7129 C   0  0  0  0  0  0  0  0  0  0  0  0
  151.5956  138.4836  155.5638 C   0  0  0  0  0  0  0  0  0  0  0  0
  151.7268  137.2413  154.9039 O   0  0  0  0  0  0  0  0  0  0  0  0
  150.9447  140.7436  154.6534 N   0  0  0  0  0  0  0  0  0  0  0  0
  150.0835  141.2762  153.8458 N   0  0  0  0  0  0  0  0  0  0  0  0
  147.1762  139.6522  150.7474 H   0  0  0  0  0  0  0  0  0  0  0  0
  148.6438  141.2268  151.6821 H   0  0  0  0  0  0  0  0  0  0  0  0
  149.7181  139.0926  151.1384 H   0  0  0  0  0  0  0  0  0  0  0  0
  149.0161  137.6972  151.5714 H   0  0  0  0  0  0  0  0  0  0  0  0
  146.4439  137.5576  151.7327 H   0  0  0  0  0  0  0  0  0  0  0  0
  147.3752  137.8158  153.1766 H   0  0  0  0  0  0  0  0  0  0  0  0
  144.9965  139.4687  152.2124 H   0  0  0  0  0  0  0  0  0  0  0  0
  145.0382  138.4250  153.6119 H   0  0  0  0  0  0  0  0  0  0  0  0
  145.2521  140.8330  154.2443 H   0  0  0  0  0  0  0  0  0  0  0  0
  146.6481  139.9213  154.7452 H   0  0  0  0  0  0  0  0  0  0  0  0
  146.4121  141.6970  152.2697 H   0  0  0  0  0  0  0  0  0  0  0  0
  147.3556  142.0608  153.6870 H   0  0  0  0  0  0  0  0  0  0  0  0
  149.2017  138.1252  153.6436 H   0  0  0  0  0  0  0  0  0  0  0  0
  152.5817  138.9239  155.7120 H   0  0  0  0  0  0  0  0  0  0  0  0
  151.1517  138.3238  156.5467 H   0  0  0  0  0  0  0  0  0  0  0  0
  151.7012  137.3939  153.9716 H   0  0  0  0  0  0  0  0  0  0  0  0
  1  2  1  0  0  0  0
  1 17  1  0  0  0  0
  1 18  1  0  0  0  0
  2 15  1  0  0  0  0
  2  7  1  0  0  0  0
  2  3  1  0  0  0  0
  3  4  1  0  0  0  0
  3 19  1  0  0  0  0
  3 20  1  0  0  0  0
  4  5  1  0  0  0  0
  4 21  1  0  0  0  0
  4 22  1  0  0  0  0
  5  6  1  0  0  0  0
  5 23  1  0  0  0  0
  5 24  1  0  0  0  0
  6  7  1  0  0  0  0
  6 25  1  0  0  0  0
  6 26  1  0  0  0  0
  7 16  1  0  0  0  0
  7  8  1  0  0  0  0
  8 14  1  0  0  0  0
  8  9  1  0  0  0  0
  9 10  2  0  0  0  0
  9 27  1  0  0  0  0
 10 11  1  0  0  0  0
 10 13  1  0  0  0  0
 11 12  1  0  0  0  0
 11 28  1  0  0  0  0
 11 29  1  0  0  0  0
 12 30  1  0  0  0  0
 13 14  2  0  0  0  0
M  END
> <s_m_source_file>
AV-unprocessed.smi

> <i_m_source_file_index>
2597

> <i_lp_mmshare_version>
43012

> <i_f3d_flags>
0

> <s_epik_input>
W05IMl1bQ0BIXTFbQ0gyXVtDSDJdW0NIMl1bQ0gyXVtDQEhdMW4yW2NIXWMobm4yKVtDSDJdW09IXQ==

> <s_epik_cmdline>
J2VwaWtfcHl0aG9uJywgJy1waCcsICc3LjAnLCAnLXRuJywgJzgnLCAnLW1hJywgJzIwMCcsICctbWV0YWxfYmluZGluZycsICctaW1hZScsICc8aW5maWxlLm1hZT4nLCAnLW9tYWUnLCAnPG91dGZpbGUubWFlPic=

> <r_lp_tautomer_probability>
1

> <r_epik_Ionization_Penalty>
2.21303

> <r_epik_Ionization_Penalty_Charging>
0

> <r_epik_Ionization_Penalty_Neutral>
2.21303

> <r_epik_State_Penalty>
2.3573

> <r_epik_Charging_Adjusted_Penalty>
2.3573

> <i_epik_Tot_Q>
0

> <i_epik_Tot_abs_Q>
0

> <r_epik_Metal_State_Penalty>
2.35724

> <b_epik_Metal_Only>
0

> <s_lp_Force_Field>
OPLS_2005

> <r_lp_Energy>
16.8416

> <b_lp_Chiralities_Consistent>
1

> <s_lp_Variant>
AV-unprocessed.smi:2597-5

> <Gold.Version>
5.8.1

> <Gold.Id.Protein>
6NUR|6NUR_protein|mol2

> <Gold.PLP.Fitness>
39.3764

> <Gold.PLP.PLP>
-25.0162

> <Gold.PLP.part.hbond>
-6.8351

> <Gold.PLP.part.metal>
0.0000

> <Gold.PLP.part.buried>
-1.9143

> <Gold.PLP.part.nonpolar>
-16.8583

> <Gold.PLP.part.repulsive>
0.2273

> <Gold.PLP.ligand.clash>
0.0000

> <Gold.PLP.ligand.torsion>
0.7610

> <Gold.PLP.Chemscore.Hbond>
4.2730

> <Gold.PLP.Chemscore.CHOScore>
1.0000

> <Gold.PLP.Chemscore.Metal>
0.0000

> <Gold.Chemscore.Hbonds>
donor molecule, donor type, donor heavy atom, donor atom, acceptor molecule, acceptor atom, score
      L1  H     1    18       P1  7948  0.75
      P1  H  7954  7966       L1     1  0.12
      P1  H  8011  8017       L1    14  0.54
      P1  H 10752 10765       L1    12  0.09
      L1  C     9    27       P1  7948  0.86

> <Gold.PLP.Chemscore.Internal.Correction>
0.0631

> <Gold.Rescore>
     Score         DG    S(hbond)    S(metal)    S(lipo)     H(rot)  DE(clash)    DE(int)     intcor
     17.01     -18.47       3.85        0.00      40.90       1.82       1.09       0.37       ----

> <Gold.Chemscore.Fitness>
17.0083

> <Gold.Chemscore.DG>
-18.4670

> <Gold.Chemscore.ZeroCoef>
-5.4800

> <Gold.Chemscore.Hbond>
3.8522

> <Gold.Chemscore.Metal>
0.0000

> <Gold.Chemscore.Lipo>
40.9018

> <Gold.Chemscore.Internal_Hbond>
0.0000

> <Gold.Chemscore.DEClash>
1.0869

> <Gold.Chemscore.DEInternal>
0.3718

> <Gold.Chemscore.Rot>
1.8222

> <Gold.Chemscore.Internal.Correction>
   9.000000E+99

> <Gold.Chemscore.Hbonds>
donor molecule, donor type, donor heavy atom, donor atom, acceptor molecule, acceptor atom, score
      L1  H     1    18       P1  7948  0.37
      P1  H  8011  8017       L1    14  0.07

> <Gold.Chemscore.Hbond.Weighted>
-12.8665

> <Gold.Chemscore.Metal.Weighted>
-0.0000

> <Gold.Chemscore.Lipo.Weighted>
-4.7855

> <Gold.Chemscore.Internal_Hbond.Weighted>
0.0000

> <Gold.Chemscore.DEClash.Weighted>
1.0869

> <Gold.Chemscore.DEInternal.Weighted>
0.3718

> <Gold.Chemscore.Rot.Weighted>
4.6649

> <Gold.Chemscore.Internal.Correction.Weighted>
   9.000000E+99

> <Gold.Protein.RotatedTorsions>
[ 6907 6896 6895 6894 ] final  -81.01 input  -60.11 | X-H torsion
[ 7974 7965 7964 7962 ] final  166.59 input  175.53 | X-H torsion
[ 8008 7997 7996 7995 ] final  -74.60 input   59.86 | X-H torsion
[ 10167 10162 10161 10158 ] final   88.45 input  -65.29 | X-H torsion
[ 10718 10713 10712 10709 ] final -102.30 input   66.30 | X-H torsion
[ 10763 10752 10751 10750 ] final  163.98 input  -60.55 | X-H torsion
[ 11005 11000 10999 10996 ] final  -91.60 input  -57.11 | X-H torsion

> <Gold.Protein.ActiveResidues>
 VAL166  LYS551  ARG553  GLY616  TRP617  ASP618  TYR619  PRO620  LYS621  CYS622 
 ASP623  PHE694  ASN695  SER759  ASP760  ASP761  ALA762  ILE779  LEU786  VAL792 
 PHE793  MET794  SER795  GLU796  ALA797  LYS798  CYS799  TRP800  GLU811  SER814 

> <Gold.Protein.RotatedAtoms>
  150.6919  134.3883  159.5064 H   0  0  0  0  0  0  0  0  0  0  0  0  # atno 6907 bound_to 6896
  152.1675  134.8859  160.0546 H   0  0  0  0  0  0  0  0  0  0  0  0  # atno 6908 bound_to 6896
  151.9898  133.3752  159.4177 H   0  0  0  0  0  0  0  0  0  0  0  0  # atno 6909 bound_to 6896
  144.7456  139.8638  143.6383 H   0  0  0  0  0  0  0  0  0  0  0  0  # atno 7974 bound_to 7965
  154.5344  140.0758  156.8402 H   0  0  0  0  0  0  0  0  0  0  0  0  # atno 8008 bound_to 7997
  155.3307  140.3401  155.4221 H   0  0  0  0  0  0  0  0  0  0  0  0  # atno 8009 bound_to 7997
  156.1814  140.1653  156.8254 H   0  0  0  0  0  0  0  0  0  0  0  0  # atno 8010 bound_to 7997
  139.8671  144.6513  150.8991 H   0  0  0  0  0  0  0  0  0  0  0  0  # atno 10167 bound_to 10162
  156.0224  130.5414  150.7088 H   0  0  0  0  0  0  0  0  0  0  0  0  # atno 10718 bound_to 10713
  154.3019  135.2759  155.2607 H   0  0  0  0  0  0  0  0  0  0  0  0  # atno 10763 bound_to 10752
  154.5040  135.5800  153.6556 H   0  0  0  0  0  0  0  0  0  0  0  0  # atno 10764 bound_to 10752
  152.9899  135.6165  154.3190 H   0  0  0  0  0  0  0  0  0  0  0  0  # atno 10765 bound_to 10752
  141.1541  133.7766  156.9902 H   0  0  0  0  0  0  0  0  0  0  0  0  # atno 11005 bound_to 11000
  146.1329  139.4368  143.0157 LP  0  0  0  0  0  0  0  0  0  0  0  0  # atno 17320 bound_to 7965
  145.7135  141.0098  143.1440 LP  0  0  0  0  0  0  0  0  0  0  0  0  # atno 17321 bound_to 7965
  140.7766  143.3695  151.1676 LP  0  0  0  0  0  0  0  0  0  0  0  0  # atno 17342 bound_to 10162
  139.7318  143.9060  152.3022 LP  0  0  0  0  0  0  0  0  0  0  0  0  # atno 17343 bound_to 10162
  157.4731  131.0895  151.0620 LP  0  0  0  0  0  0  0  0  0  0  0  0  # atno 17370 bound_to 10713
  157.1074  130.6007  149.5474 LP  0  0  0  0  0  0  0  0  0  0  0  0  # atno 17371 bound_to 10713
  140.1008  134.9536  157.1920 LP  0  0  0  0  0  0  0  0  0  0  0  0  # atno 17394 bound_to 11000
  140.3321  134.2798  155.7226 LP  0  0  0  0  0  0  0  0  0  0  0  0  # atno 17395 bound_to 11000

$$$$
