AV-unprocessed.smi:652|AV-procd|sdf|3200|dock1
  -GOLD-   22720 0133D 1   1.00000     0.00000
 Structure written by MMmdl.
 49 50  0  0  0  0  0  0  0  0  3 V2000
  149.6101  132.0592  154.3921 C   0  0  0  0  0  0  0  0  0  0  0  0
  150.3947  133.0673  155.2422 C   0  0  0  0  0  0  0  0  0  0  0  0
  150.8431  132.4530  156.5781 C   0  0  0  0  0  0  0  0  0  0  0  0
  149.5713  134.2510  155.4735 N   0  0  0  0  0  0  0  0  0  0  0  0
  149.8987  135.5063  155.1285 C   0  0  0  0  0  0  0  0  0  0  0  0
  150.9513  135.8012  154.5622 O   0  0  0  0  0  0  0  0  0  0  0  0
  148.8807  136.5968  155.4729 C   0  0  0  0  0  0  0  0  0  0  0  0
  149.5486  137.8455  156.0820 C   0  0  0  0  0  0  0  0  0  0  0  0
  150.3794  138.5816  155.0924 N   0  3  1  0  0  0  0  0  0  0  0  0
  149.6002  139.1292  153.9556 C   0  0  0  0  0  0  0  0  0  0  0  0
  148.8502  140.4096  154.3627 C   0  0  0  0  0  0  0  0  0  0  0  0
  149.7831  141.3632  154.8566 O   0  0  0  0  0  0  0  0  0  0  0  0
  150.4620  140.9124  156.0251 C   0  0  2  0  0  0  0  0  0  0  0  0
  151.3910  142.0402  156.4984 C   0  0  0  0  0  0  0  0  0  0  0  0
  150.6416  143.1514  157.0658 N   0  0  0  0  0  0  0  0  0  0  0  0
  151.0618  143.7528  158.2596 C   0  0  0  0  0  0  0  0  0  0  0  0
  152.2052  143.3531  158.9900 C   0  0  0  0  0  0  0  0  0  0  0  0
  152.5170  144.0463  160.1719 C   0  0  0  0  0  0  0  0  0  0  0  0
  151.6663  145.0987  160.5536 C   0  0  0  0  0  0  0  0  0  0  0  0
  150.5764  145.4646  159.8425 N   0  0  0  0  0  0  0  0  0  0  0  0
  150.3043  144.7814  158.7164 N   0  3  0  0  0  0  0  0  0  0  0  0
  151.2547  139.6324  155.6739 C   0  0  0  0  0  0  0  0  0  0  0  0
  150.2125  131.1759  154.1774 H   0  0  0  0  0  0  0  0  0  0  0  0
  149.3146  132.4951  153.4370 H   0  0  0  0  0  0  0  0  0  0  0  0
  148.7047  131.7276  154.9018 H   0  0  0  0  0  0  0  0  0  0  0  0
  151.2826  133.3576  154.6774 H   0  0  0  0  0  0  0  0  0  0  0  0
  151.4592  131.5685  156.4140 H   0  0  0  0  0  0  0  0  0  0  0  0
  149.9879  132.1537  157.1850 H   0  0  0  0  0  0  0  0  0  0  0  0
  151.4352  133.1588  157.1615 H   0  0  0  0  0  0  0  0  0  0  0  0
  148.6847  134.1011  155.9331 H   0  0  0  0  0  0  0  0  0  0  0  0
  148.3417  136.8483  154.5597 H   0  0  0  0  0  0  0  0  0  0  0  0
  148.1447  136.1967  156.1725 H   0  0  0  0  0  0  0  0  0  0  0  0
  148.7590  138.5100  156.4372 H   0  0  0  0  0  0  0  0  0  0  0  0
  150.1399  137.5823  156.9590 H   0  0  0  0  0  0  0  0  0  0  0  0
  150.2925  139.3607  153.1449 H   0  0  0  0  0  0  0  0  0  0  0  0
  148.9099  138.3821  153.5626 H   0  0  0  0  0  0  0  0  0  0  0  0
  148.3388  140.8341  153.4986 H   0  0  0  0  0  0  0  0  0  0  0  0
  148.0855  140.2020  155.1127 H   0  0  0  0  0  0  0  0  0  0  0  0
  149.7379  140.6996  156.8133 H   0  0  0  0  0  0  0  0  0  0  0  0
  152.0674  141.6570  157.2634 H   0  0  0  0  0  0  0  0  0  0  0  0
  152.0051  142.3924  155.6686 H   0  0  0  0  0  0  0  0  0  0  0  0
  149.9559  143.6175  156.4888 H   0  0  0  0  0  0  0  0  0  0  0  0
  152.8345  142.5377  158.6660 H   0  0  0  0  0  0  0  0  0  0  0  0
  153.3787  143.7819  160.7669 H   0  0  0  0  0  0  0  0  0  0  0  0
  151.8632  145.6630  161.4534 H   0  0  0  0  0  0  0  0  0  0  0  0
  151.7870  139.2570  156.5469 H   0  0  0  0  0  0  0  0  0  0  0  0
  152.0206  139.8744  154.9358 H   0  0  0  0  0  0  0  0  0  0  0  0
  150.9909  137.8834  154.6931 H   0  0  0  0  0  0  0  0  0  0  0  0
  149.4835  145.0525  158.1745 H   0  0  0  0  0  0  0  0  0  0  0  0
  1  2  1  0  0  0  0
  1 23  1  0  0  0  0
  1 24  1  0  0  0  0
  1 25  1  0  0  0  0
  2  3  1  0  0  0  0
  2  4  1  0  0  0  0
  2 26  1  0  0  0  0
  3 27  1  0  0  0  0
  3 28  1  0  0  0  0
  3 29  1  0  0  0  0
  4  5  1  0  0  0  0
  4 30  1  0  0  0  0
  5  6  2  0  0  0  0
  5  7  1  0  0  0  0
  7  8  1  0  0  0  0
  7 31  1  0  0  0  0
  7 32  1  0  0  0  0
  8  9  1  0  0  0  0
  8 33  1  0  0  0  0
  8 34  1  0  0  0  0
  9 22  1  0  0  0  0
  9 10  1  0  0  0  0
  9 48  1  0  0  0  0
 10 11  1  0  0  0  0
 10 35  1  0  0  0  0
 10 36  1  0  0  0  0
 11 12  1  0  0  0  0
 11 37  1  0  0  0  0
 11 38  1  0  0  0  0
 12 13  1  0  0  0  0
 13 14  1  0  0  0  0
 13 22  1  0  0  0  0
 13 39  1  0  0  0  0
 14 15  1  0  0  0  0
 14 40  1  0  0  0  0
 14 41  1  0  0  0  0
 15 16  1  0  0  0  0
 15 42  1  0  0  0  0
 16 21  1  0  0  0  0
 16 17  2  0  0  0  0
 17 18  1  0  0  0  0
 17 43  1  0  0  0  0
 18 19  2  0  0  0  0
 18 44  1  0  0  0  0
 19 20  1  0  0  0  0
 19 45  1  0  0  0  0
 20 21  2  0  0  0  0
 21 49  1  0  0  0  0
 22 46  1  0  0  0  0
 22 47  1  0  0  0  0
M  CHG  1   9   1
M  CHG  1  21   1
M  END
> <s_m_source_file>
AV-unprocessed.smi

> <i_m_source_file_index>
652

> <i_lp_mmshare_version>
43012

> <i_f3d_flags>
0

> <s_epik_input>
W0NIM11bQ0hdKFtDSDNdKVtOSF1DKD1PKVtDSDJdW0NIMl1OMVtDSDJdW0NIMl1PW0NASF0oW0NIMl0xKVtDSDJdW05IXWMyW2NIXVtjSF1bY0hdbm4y

> <s_epik_cmdline>
J2VwaWtfcHl0aG9uJywgJy1waCcsICc3LjAnLCAnLXRuJywgJzgnLCAnLW1hJywgJzIwMCcsICctbWV0YWxfYmluZGluZycsICctaW1hZScsICc8aW5maWxlLm1hZT4nLCAnLW9tYWUnLCAnPG91dGZpbGUubWFlPic=

> <r_lp_tautomer_probability>
0.966961

> <r_epik_Ionization_Penalty>
2.79885

> <r_epik_Ionization_Penalty_Charging>
2.79884

> <r_epik_Ionization_Penalty_Neutral>
3.2567e-06

> <r_epik_State_Penalty>
2.43203

> <r_epik_Charging_Adjusted_Penalty>
5.23087

> <i_epik_Tot_Q>
2

> <i_epik_Tot_abs_Q>
2

> <r_epik_Metal_State_Penalty>
2.43963

> <b_epik_Metal_Only>
0

> <s_lp_Force_Field>
OPLS_2005

> <r_lp_Energy>
31.8364

> <b_lp_Chiralities_Consistent>
1

> <s_lp_Variant>
AV-unprocessed.smi:652-9

> <Gold.Version>
5.8.1

> <Gold.Id.Protein>
6NUR|6NUR_protein|mol2

> <Gold.PLP.Fitness>
52.7415

> <Gold.PLP.PLP>
-38.0749

> <Gold.PLP.part.hbond>
-5.7552

> <Gold.PLP.part.metal>
0.0000

> <Gold.PLP.part.buried>
-4.2943

> <Gold.PLP.part.nonpolar>
-29.6086

> <Gold.PLP.part.repulsive>
0.8326

> <Gold.PLP.ligand.clash>
0.0000

> <Gold.PLP.ligand.torsion>
0.4304

> <Gold.PLP.Chemscore.Hbond>
5.1014

> <Gold.PLP.Chemscore.CHOScore>
0.0000

> <Gold.PLP.Chemscore.Metal>
0.0000

> <Gold.Chemscore.Hbonds>
donor molecule, donor type, donor heavy atom, donor atom, acceptor molecule, acceptor atom, score
      L1  H    15    42       P1  8028  2.00
      L1  H    21    49       P1  8029  2.00
      P1  H  7989  7998       L1    12  0.08
      P1  H 10752 10765       L1     6  1.00

> <Gold.PLP.Chemscore.Internal.Correction>
0.2231

> <Gold.Rescore>
     Score         DG    S(hbond)    S(metal)    S(lipo)     H(rot)  DE(clash)    DE(int)     intcor
     18.54     -19.14       2.75        0.00      89.30       2.33       0.18       0.41       ----

> <Gold.Chemscore.Fitness>
18.5379

> <Gold.Chemscore.DG>
-19.1368

> <Gold.Chemscore.ZeroCoef>
-5.4800

> <Gold.Chemscore.Hbond>
2.7485

> <Gold.Chemscore.Metal>
0.0000

> <Gold.Chemscore.Lipo>
89.3015

> <Gold.Chemscore.Internal_Hbond>
0.0000

> <Gold.Chemscore.DEClash>
0.1842

> <Gold.Chemscore.DEInternal>
0.4147

> <Gold.Chemscore.Rot>
2.3326

> <Gold.Chemscore.Internal.Correction>
   9.000000E+99

> <Gold.Chemscore.Hbonds>
donor molecule, donor type, donor heavy atom, donor atom, acceptor molecule, acceptor atom, score
      L1  H    15    42       P1  8028  1.00
      L1  H    21    49       P1  8029  0.33
      P1  H 10752 10765       L1     6  0.97

> <Gold.Chemscore.Hbond.Weighted>
-9.1799

> <Gold.Chemscore.Metal.Weighted>
-0.0000

> <Gold.Chemscore.Lipo.Weighted>
-10.4483

> <Gold.Chemscore.Internal_Hbond.Weighted>
0.0000

> <Gold.Chemscore.DEClash.Weighted>
0.1842

> <Gold.Chemscore.DEInternal.Weighted>
0.4147

> <Gold.Chemscore.Rot.Weighted>
5.9714

> <Gold.Chemscore.Internal.Correction.Weighted>
   9.000000E+99

> <Gold.Protein.RotatedTorsions>
[ 6907 6896 6895 6894 ] final   65.18 input  -60.11 | X-H torsion
[ 7974 7965 7964 7962 ] final -119.95 input  175.53 | X-H torsion
[ 8008 7997 7996 7995 ] final -179.71 input   59.86 | X-H torsion
[ 10167 10162 10161 10158 ] final   33.00 input  -65.29 | X-H torsion
[ 10718 10713 10712 10709 ] final  165.90 input   66.30 | X-H torsion
[ 10763 10752 10751 10750 ] final  168.20 input  -60.55 | X-H torsion
[ 11005 11000 10999 10996 ] final   10.84 input  -57.11 | X-H torsion

> <Gold.Protein.ActiveResidues>
 VAL166  LYS551  ARG553  GLY616  TRP617  ASP618  TYR619  PRO620  LYS621  CYS622 
 ASP623  PHE694  ASN695  SER759  ASP760  ASP761  ALA762  ILE779  LEU786  VAL792 
 PHE793  MET794  SER795  GLU796  ALA797  LYS798  CYS799  TRP800  GLU811  SER814 

> <Gold.Protein.RotatedAtoms>
  152.4388  134.5633  159.9900 H   0  0  0  0  0  0  0  0  0  0  0  0  # atno 6907 bound_to 6896
  151.5736  133.3381  159.3002 H   0  0  0  0  0  0  0  0  0  0  0  0  # atno 6908 bound_to 6896
  150.8290  134.7569  159.6902 H   0  0  0  0  0  0  0  0  0  0  0  0  # atno 6909 bound_to 6896
  145.0568  140.8260  143.4176 H   0  0  0  0  0  0  0  0  0  0  0  0  # atno 7974 bound_to 7965
  156.0336  140.1287  157.0232 H   0  0  0  0  0  0  0  0  0  0  0  0  # atno 8008 bound_to 7997
  154.4360  140.1044  156.6205 H   0  0  0  0  0  0  0  0  0  0  0  0  # atno 8009 bound_to 7997
  155.5771  140.3467  155.4532 H   0  0  0  0  0  0  0  0  0  0  0  0  # atno 8010 bound_to 7997
  140.4447  144.1136  150.6180 H   0  0  0  0  0  0  0  0  0  0  0  0  # atno 10167 bound_to 10162
  157.0736  131.0373  151.2602 H   0  0  0  0  0  0  0  0  0  0  0  0  # atno 10718 bound_to 10713
  154.3651  135.2753  155.2298 H   0  0  0  0  0  0  0  0  0  0  0  0  # atno 10763 bound_to 10752
  154.4470  135.5940  153.6170 H   0  0  0  0  0  0  0  0  0  0  0  0  # atno 10764 bound_to 10752
  152.9841  135.6032  154.3875 H   0  0  0  0  0  0  0  0  0  0  0  0  # atno 10765 bound_to 10752
  140.5100  134.0662  155.7815 H   0  0  0  0  0  0  0  0  0  0  0  0  # atno 11005 bound_to 11000
  145.1459  139.2544  143.5466 LP  0  0  0  0  0  0  0  0  0  0  0  0  # atno 17320 bound_to 7965
  146.3522  140.1148  142.8602 LP  0  0  0  0  0  0  0  0  0  0  0  0  # atno 17321 bound_to 7965
  140.4277  143.2582  151.9635 LP  0  0  0  0  0  0  0  0  0  0  0  0  # atno 17342 bound_to 10162
  139.4792  144.5773  151.7991 LP  0  0  0  0  0  0  0  0  0  0  0  0  # atno 17343 bound_to 10162
  157.4858  130.7792  149.7458 LP  0  0  0  0  0  0  0  0  0  0  0  0  # atno 17370 bound_to 10713
  155.9943  130.3918  150.2863 LP  0  0  0  0  0  0  0  0  0  0  0  0  # atno 17371 bound_to 10713
  141.1391  133.9170  157.2368 LP  0  0  0  0  0  0  0  0  0  0  0  0  # atno 17394 bound_to 11000
  139.9664  135.0140  156.9399 LP  0  0  0  0  0  0  0  0  0  0  0  0  # atno 17395 bound_to 11000

$$$$
