AV-unprocessed.smi:1784|AV-procd|sdf|7198|dock3
  -GOLD-   22720 8443D 1   1.00000     0.00000
 Structure written by MMmdl.
 44 46  0  0  0  0  0  0  0  0  2 V2000
  150.7887  140.6121  156.2988 O   0  0  0  0  0  0  0  0  0  0  0  0
  150.3558  141.7443  156.0842 C   0  0  0  0  0  0  0  0  0  0  0  0
  150.8713  142.8550  156.6293 N   0  0  0  0  0  0  0  0  0  0  0  0
  151.9768  142.8847  157.5805 C   0  0  0  0  0  0  0  0  0  0  0  0
  152.1902  144.2995  158.1434 C   0  0  2  0  0  0  0  0  0  0  0  0
  152.5670  144.3193  159.6243 C   0  0  0  0  0  0  0  0  0  0  0  0
  152.1011  145.6956  160.0404 C   0  0  0  0  0  0  0  0  0  0  0  0
  150.8058  145.8339  159.2472 C   0  0  0  0  0  0  0  0  0  0  0  0
  150.9944  145.0727  158.0576 O   0  0  0  0  0  0  0  0  0  0  0  0
  149.3018  142.0298  155.3020 N   0  0  0  0  0  0  0  0  0  0  0  0
  148.4626  141.1157  154.6053 C   0  0  0  0  0  0  0  0  0  0  0  0
  148.8451  139.7610  154.4298 C   0  0  0  0  0  0  0  0  0  0  0  0
  147.9893  138.8704  153.7553 C   0  0  0  0  0  0  0  0  0  0  0  0
  146.7640  139.3485  153.2612 C   0  0  0  0  0  0  0  0  0  0  0  0
  146.4374  140.6470  153.4265 N   0  3  0  0  0  0  0  0  0  0  0  0
  147.2243  141.5570  154.0538 C   0  0  0  0  0  0  0  0  0  0  0  0
  146.7508  142.8863  154.1414 N   0  0  0  0  0  0  0  0  0  0  0  0
  145.7341  143.2459  155.1230 C   0  0  0  0  0  0  0  0  0  0  0  0
  145.2487  144.6297  154.7005 C   0  0  0  0  0  0  0  0  0  0  0  0
  145.3266  144.5547  153.1785 C   0  0  0  0  0  0  0  0  0  0  0  0
  146.5411  143.6564  152.9196 C   0  0  0  0  0  0  0  0  0  0  0  0
  150.4518  143.7427  156.3954 H   0  0  0  0  0  0  0  0  0  0  0  0
  151.8189  142.1674  158.3879 H   0  0  0  0  0  0  0  0  0  0  0  0
  152.8751  142.5619  157.0541 H   0  0  0  0  0  0  0  0  0  0  0  0
  152.9637  144.8187  157.5749 H   0  0  0  0  0  0  0  0  0  0  0  0
  152.0122  143.5579  160.1747 H   0  0  0  0  0  0  0  0  0  0  0  0
  153.6317  144.1574  159.7949 H   0  0  0  0  0  0  0  0  0  0  0  0
  151.9557  145.7949  161.1163 H   0  0  0  0  0  0  0  0  0  0  0  0
  152.8226  146.4485  159.7199 H   0  0  0  0  0  0  0  0  0  0  0  0
  149.9715  145.4039  159.8024 H   0  0  0  0  0  0  0  0  0  0  0  0
  150.5636  146.8728  159.0223 H   0  0  0  0  0  0  0  0  0  0  0  0
  148.9971  142.9920  155.3017 H   0  0  0  0  0  0  0  0  0  0  0  0
  149.7892  139.3914  154.8012 H   0  0  0  0  0  0  0  0  0  0  0  0
  148.2694  137.8356  153.6214 H   0  0  0  0  0  0  0  0  0  0  0  0
  146.0431  138.7394  152.7353 H   0  0  0  0  0  0  0  0  0  0  0  0
  144.9036  142.5394  155.0868 H   0  0  0  0  0  0  0  0  0  0  0  0
  146.1399  143.2506  156.1351 H   0  0  0  0  0  0  0  0  0  0  0  0
  144.2480  144.8598  155.0676 H   0  0  0  0  0  0  0  0  0  0  0  0
  145.9321  145.3952  155.0713 H   0  0  0  0  0  0  0  0  0  0  0  0
  144.4262  144.0767  152.7897 H   0  0  0  0  0  0  0  0  0  0  0  0
  145.4161  145.5342  152.7074 H   0  0  0  0  0  0  0  0  0  0  0  0
  147.4239  144.2694  152.7351 H   0  0  0  0  0  0  0  0  0  0  0  0
  146.3822  143.0156  152.0512 H   0  0  0  0  0  0  0  0  0  0  0  0
  145.5449  140.9652  153.0489 H   0  0  0  0  0  0  0  0  0  0  0  0
  1  2  2  0  0  0  0
  2  3  1  0  0  0  0
  2 10  1  0  0  0  0
  3  4  1  0  0  0  0
  3 22  1  0  0  0  0
  4  5  1  0  0  0  0
  4 23  1  0  0  0  0
  4 24  1  0  0  0  0
  5  9  1  0  0  0  0
  5  6  1  0  0  0  0
  5 25  1  0  0  0  0
  6  7  1  0  0  0  0
  6 26  1  0  0  0  0
  6 27  1  0  0  0  0
  7  8  1  0  0  0  0
  7 28  1  0  0  0  0
  7 29  1  0  0  0  0
  8  9  1  0  0  0  0
  8 30  1  0  0  0  0
  8 31  1  0  0  0  0
 10 11  1  0  0  0  0
 10 32  1  0  0  0  0
 11 16  1  0  0  0  0
 11 12  2  0  0  0  0
 12 13  1  0  0  0  0
 12 33  1  0  0  0  0
 13 14  2  0  0  0  0
 13 34  1  0  0  0  0
 14 15  1  0  0  0  0
 14 35  1  0  0  0  0
 15 16  2  0  0  0  0
 15 44  1  0  0  0  0
 16 17  1  0  0  0  0
 17 21  1  0  0  0  0
 17 18  1  0  0  0  0
 18 19  1  0  0  0  0
 18 36  1  0  0  0  0
 18 37  1  0  0  0  0
 19 20  1  0  0  0  0
 19 38  1  0  0  0  0
 19 39  1  0  0  0  0
 20 21  1  0  0  0  0
 20 40  1  0  0  0  0
 20 41  1  0  0  0  0
 21 42  1  0  0  0  0
 21 43  1  0  0  0  0
M  CHG  1  15   1
M  END
> <s_m_source_file>
AV-unprocessed.smi

> <i_m_source_file_index>
1784

> <i_lp_mmshare_version>
43012

> <i_f3d_flags>
0

> <s_epik_input>
TzFbQ0gyXVtDSDJdW0NIMl1bQ0BIXTFbQ0gyXVtOSF1DKD1PKVtOSF1jMltjSF1bY0hdW2NIXW5jMk4zW0NIMl1bQ0gyXVtDSDJdW0NIMl0z

> <s_epik_cmdline>
J2VwaWtfcHl0aG9uJywgJy1waCcsICc3LjAnLCAnLXRuJywgJzgnLCAnLW1hJywgJzIwMCcsICctbWV0YWxfYmluZGluZycsICctaW1hZScsICc8aW5maWxlLm1hZT4nLCAnLW9tYWUnLCAnPG91dGZpbGUubWFlPic=

> <r_lp_tautomer_probability>
0.999994

> <r_epik_Ionization_Penalty>
1.11624

> <r_epik_Ionization_Penalty_Charging>
1.11622

> <r_epik_Ionization_Penalty_Neutral>
1.90191e-05

> <r_epik_State_Penalty>
1.17466

> <r_epik_Charging_Adjusted_Penalty>
2.29088

> <i_epik_Tot_Q>
1

> <i_epik_Tot_abs_Q>
1

> <r_epik_Metal_State_Penalty>
1.25978

> <b_epik_Metal_Only>
0

> <s_lp_Force_Field>
OPLS_2005

> <r_lp_Energy>
50.7996

> <b_lp_Chiralities_Consistent>
1

> <s_lp_Variant>
AV-unprocessed.smi:1784-3

> <Gold.Version>
5.8.1

> <Gold.Id.Protein>
6NUR|6NUR_protein|mol2

> <Gold.PLP.Fitness>
53.1677

> <Gold.PLP.PLP>
-42.4617

> <Gold.PLP.part.hbond>
-3.0000

> <Gold.PLP.part.metal>
0.0000

> <Gold.PLP.part.buried>
-5.5097

> <Gold.PLP.part.nonpolar>
-34.5135

> <Gold.PLP.part.repulsive>
0.6033

> <Gold.PLP.ligand.clash>
0.0000

> <Gold.PLP.ligand.torsion>
0.8387

> <Gold.PLP.Chemscore.Hbond>
3.9840

> <Gold.PLP.Chemscore.CHOScore>
0.0000

> <Gold.PLP.Chemscore.Metal>
0.0000

> <Gold.Chemscore.Hbonds>
donor molecule, donor type, donor heavy atom, donor atom, acceptor molecule, acceptor atom, score
      L1  H     3    22       P1  8028  0.98
      L1  H    10    32       P1  8028  1.00
      L1  H    15    44       P1 10175  1.92

> <Gold.PLP.Chemscore.Internal.Correction>
0.4313

> <Gold.Rescore>
     Score         DG    S(hbond)    S(metal)    S(lipo)     H(rot)  DE(clash)    DE(int)     intcor
     17.44     -24.53       2.88        0.00     111.29       1.40       4.93       2.16       ----

> <Gold.Chemscore.Fitness>
17.4427

> <Gold.Chemscore.DG>
-24.5273

> <Gold.Chemscore.ZeroCoef>
-5.4800

> <Gold.Chemscore.Hbond>
2.8793

> <Gold.Chemscore.Metal>
0.0000

> <Gold.Chemscore.Lipo>
111.2856

> <Gold.Chemscore.Internal_Hbond>
0.0000

> <Gold.Chemscore.DEClash>
4.9267

> <Gold.Chemscore.DEInternal>
2.1579

> <Gold.Chemscore.Rot>
1.4023

> <Gold.Chemscore.Internal.Correction>
   9.000000E+99

> <Gold.Chemscore.Hbonds>
donor molecule, donor type, donor heavy atom, donor atom, acceptor molecule, acceptor atom, score
      L1  H     3    22       P1  8028  0.91
      L1  H    10    32       P1  8028  1.00
      L1  H    15    44       P1 10175  0.35

> <Gold.Chemscore.Hbond.Weighted>
-9.6167

> <Gold.Chemscore.Metal.Weighted>
-0.0000

> <Gold.Chemscore.Lipo.Weighted>
-13.0204

> <Gold.Chemscore.Internal_Hbond.Weighted>
0.0000

> <Gold.Chemscore.DEClash.Weighted>
4.9267

> <Gold.Chemscore.DEInternal.Weighted>
2.1579

> <Gold.Chemscore.Rot.Weighted>
3.5898

> <Gold.Chemscore.Internal.Correction.Weighted>
   9.000000E+99

> <Gold.Protein.RotatedTorsions>
[ 6907 6896 6895 6894 ] final   -8.36 input  -60.11 | X-H torsion
[ 7974 7965 7964 7962 ] final  152.07 input  175.53 | X-H torsion
[ 8008 7997 7996 7995 ] final  137.42 input   59.86 | X-H torsion
[ 10167 10162 10161 10158 ] final -176.28 input  -65.29 | X-H torsion
[ 10718 10713 10712 10709 ] final   22.00 input   66.30 | X-H torsion
[ 10763 10752 10751 10750 ] final  -77.56 input  -60.55 | X-H torsion
[ 11005 11000 10999 10996 ] final  165.94 input  -57.11 | X-H torsion

> <Gold.Protein.ActiveResidues>
 VAL166  LYS551  ARG553  GLY616  TRP617  ASP618  TYR619  PRO620  LYS621  CYS622 
 ASP623  PHE694  ASN695  SER759  ASP760  ASP761  ALA762  ILE779  LEU786  VAL792 
 PHE793  MET794  SER795  GLU796  ALA797  LYS798  CYS799  TRP800  GLU811  SER814 

> <Gold.Protein.RotatedAtoms>
  151.4350  135.1014  159.9653 H   0  0  0  0  0  0  0  0  0  0  0  0  # atno 6907 bound_to 6896
  152.4943  133.8582  159.7247 H   0  0  0  0  0  0  0  0  0  0  0  0  # atno 6908 bound_to 6896
  150.9128  133.6917  159.2878 H   0  0  0  0  0  0  0  0  0  0  0  0  # atno 6909 bound_to 6896
  144.8248  139.6620  143.6085 H   0  0  0  0  0  0  0  0  0  0  0  0  # atno 7974 bound_to 7965
  156.3002  140.2420  156.3906 H   0  0  0  0  0  0  0  0  0  0  0  0  # atno 8008 bound_to 7997
  154.8617  140.0419  157.1689 H   0  0  0  0  0  0  0  0  0  0  0  0  # atno 8009 bound_to 7997
  154.8889  140.2960  155.5386 H   0  0  0  0  0  0  0  0  0  0  0  0  # atno 8010 bound_to 7997
  139.5538  144.2042  152.1123 H   0  0  0  0  0  0  0  0  0  0  0  0  # atno 10167 bound_to 10162
  157.1462  130.6654  149.5997 H   0  0  0  0  0  0  0  0  0  0  0  0  # atno 10718 bound_to 10713
  154.5146  135.5759  153.6631 H   0  0  0  0  0  0  0  0  0  0  0  0  # atno 10763 bound_to 10752
  152.9904  135.6167  154.2835 H   0  0  0  0  0  0  0  0  0  0  0  0  # atno 10764 bound_to 10752
  154.2752  135.2852  155.2701 H   0  0  0  0  0  0  0  0  0  0  0  0  # atno 10765 bound_to 10752
  140.2613  134.7900  157.3592 H   0  0  0  0  0  0  0  0  0  0  0  0  # atno 11005 bound_to 11000
  146.2553  139.6289  142.9399 LP  0  0  0  0  0  0  0  0  0  0  0  0  # atno 17320 bound_to 7965
  145.5025  141.0437  143.2533 LP  0  0  0  0  0  0  0  0  0  0  0  0  # atno 17321 bound_to 7965
  140.1542  144.5086  150.6669 LP  0  0  0  0  0  0  0  0  0  0  0  0  # atno 17342 bound_to 10162
  140.6806  143.2325  151.5394 LP  0  0  0  0  0  0  0  0  0  0  0  0  # atno 17343 bound_to 10162
  155.9779  130.4760  150.6622 LP  0  0  0  0  0  0  0  0  0  0  0  0  # atno 17370 bound_to 10713
  157.4262  131.0843  151.1083 LP  0  0  0  0  0  0  0  0  0  0  0  0  # atno 17371 bound_to 10713
  140.1462  134.4908  155.7995 LP  0  0  0  0  0  0  0  0  0  0  0  0  # atno 17394 bound_to 11000
  141.2190  133.6844  156.7298 LP  0  0  0  0  0  0  0  0  0  0  0  0  # atno 17395 bound_to 11000

$$$$
