AV-unprocessed.smi:1131|AV-procd|sdf|4853|dock2
  -GOLD-   22720 3423D 1   1.00000     0.00000
 Structure written by MMmdl.
 32 33  0  0  0  0  0  0  0  0  2 V2000
  150.5120  140.3231  155.0063 O   0  0  0  0  0  0  0  0  0  0  0  0
  149.8483  141.3356  155.2342 C   0  0  0  0  0  0  0  0  0  0  0  0
  148.6228  141.6793  154.3767 C   0  0  0  0  0  0  0  0  0  0  0  0
  147.5833  140.6380  154.4134 N   0  0  0  0  0  0  0  0  0  0  0  0
  147.8708  139.4048  153.8022 C   0  0  0  0  0  0  0  0  0  0  0  0
  146.9790  138.3959  153.7840 C   0  0  0  0  0  0  0  0  0  0  0  0
  145.6854  138.6068  154.4216 C   0  0  0  0  0  0  0  0  0  0  0  0
  144.8611  137.6944  154.4203 O   0  0  0  0  0  0  0  0  0  0  0  0
  145.4517  139.8229  154.9963 N   0  5  0  0  0  0  0  0  0  0  0  0
  146.3674  140.8409  155.0048 C   0  0  0  0  0  0  0  0  0  0  0  0
  146.1354  141.9318  155.5276 O   0  0  0  0  0  0  0  0  0  0  0  0
  150.1149  142.1789  156.2433 N   0  0  0  0  0  0  0  0  0  0  0  0
  151.2157  142.0453  157.1922 C   0  0  0  0  0  0  0  0  0  0  0  0
  151.2111  143.1745  158.2398 C   0  0  1  0  0  0  0  0  0  0  0  0
  152.0708  142.9265  159.4647 C   0  0  0  0  0  0  0  0  0  0  0  0
  152.2462  144.3362  160.0217 C   0  0  0  0  0  0  0  0  0  0  0  0
  152.1920  145.2111  158.8981 O   0  0  0  0  0  0  0  0  0  0  0  0
  151.8071  144.4873  157.7334 C   0  0  0  0  0  0  0  0  0  0  0  0
  148.2208  142.6301  154.7282 H   0  0  0  0  0  0  0  0  0  0  0  0
  148.9325  141.8633  153.3462 H   0  0  0  0  0  0  0  0  0  0  0  0
  148.8480  139.3330  153.3480 H   0  0  0  0  0  0  0  0  0  0  0  0
  147.2139  137.4556  153.3077 H   0  0  0  0  0  0  0  0  0  0  0  0
  149.5131  142.9820  156.3556 H   0  0  0  0  0  0  0  0  0  0  0  0
  151.1951  141.0676  157.6771 H   0  0  0  0  0  0  0  0  0  0  0  0
  152.1457  142.0821  156.6245 H   0  0  0  0  0  0  0  0  0  0  0  0
  150.1865  143.3632  158.5650 H   0  0  0  0  0  0  0  0  0  0  0  0
  151.6141  142.2431  160.1812 H   0  0  0  0  0  0  0  0  0  0  0  0
  153.0392  142.5173  159.1731 H   0  0  0  0  0  0  0  0  0  0  0  0
  151.4234  144.5854  160.6929 H   0  0  0  0  0  0  0  0  0  0  0  0
  153.1799  144.4516  160.5727 H   0  0  0  0  0  0  0  0  0  0  0  0
  152.6998  144.3012  157.1345 H   0  0  0  0  0  0  0  0  0  0  0  0
  151.1057  145.0577  157.1242 H   0  0  0  0  0  0  0  0  0  0  0  0
  1  2  2  0  0  0  0
  2  3  1  0  0  0  0
  2 12  1  0  0  0  0
  3  4  1  0  0  0  0
  3 19  1  0  0  0  0
  3 20  1  0  0  0  0
  4 10  1  0  0  0  0
  4  5  1  0  0  0  0
  5  6  2  0  0  0  0
  5 21  1  0  0  0  0
  6  7  1  0  0  0  0
  6 22  1  0  0  0  0
  7  8  2  0  0  0  0
  7  9  1  0  0  0  0
  9 10  1  0  0  0  0
 10 11  2  0  0  0  0
 12 13  1  0  0  0  0
 12 23  1  0  0  0  0
 13 14  1  0  0  0  0
 13 24  1  0  0  0  0
 13 25  1  0  0  0  0
 14 18  1  0  0  0  0
 14 15  1  0  0  0  0
 14 26  1  0  0  0  0
 15 16  1  0  0  0  0
 15 27  1  0  0  0  0
 15 28  1  0  0  0  0
 16 17  1  0  0  0  0
 16 29  1  0  0  0  0
 16 30  1  0  0  0  0
 17 18  1  0  0  0  0
 18 31  1  0  0  0  0
 18 32  1  0  0  0  0
M  CHG  1   9  -1
M  END
> <s_m_source_file>
AV-unprocessed.smi

> <i_m_source_file_index>
1131

> <i_lp_mmshare_version>
43012

> <i_f3d_flags>
0

> <s_epik_input>
W0NIMl0xT1tDSDJdW0NIMl1bQ0BIXTFbQ0gyXVtOSF1DKD1PKVtDSDJdbjJbY0hdW2NIXWMoPU8pW25IXWMyPU8=

> <s_epik_cmdline>
J2VwaWtfcHl0aG9uJywgJy1waCcsICc3LjAnLCAnLXRuJywgJzgnLCAnLW1hJywgJzIwMCcsICctbWV0YWxfYmluZGluZycsICctaW1hZScsICc8aW5maWxlLm1hZT4nLCAnLW9tYWUnLCAnPG91dGZpbGUubWFlPic=

> <r_lp_tautomer_probability>
0.999537

> <r_epik_Ionization_Penalty>
3.07866

> <r_epik_Ionization_Penalty_Charging>
2.6898e-08

> <r_epik_Ionization_Penalty_Neutral>
3.07866

> <r_epik_State_Penalty>
3.07769

> <r_epik_Charging_Adjusted_Penalty>
3.07769

> <i_epik_Tot_Q>
-1

> <i_epik_Tot_abs_Q>
1

> <r_epik_Metal_State_Penalty>
0.459839

> <b_epik_Metal_Only>
1

> <s_lp_Force_Field>
OPLS_2005

> <r_lp_Energy>
26.9978

> <b_lp_Chiralities_Consistent>
1

> <s_lp_Variant>
AV-unprocessed.smi:1131-4

> <Gold.Version>
5.8.1

> <Gold.Id.Protein>
6NUR|6NUR_protein|mol2

> <Gold.PLP.Fitness>
39.5095

> <Gold.PLP.PLP>
-30.9840

> <Gold.PLP.part.hbond>
-2.0000

> <Gold.PLP.part.metal>
0.0000

> <Gold.PLP.part.buried>
-4.7514

> <Gold.PLP.part.nonpolar>
-24.7764

> <Gold.PLP.part.repulsive>
0.5188

> <Gold.PLP.ligand.clash>
0.0000

> <Gold.PLP.ligand.torsion>
0.2190

> <Gold.PLP.Chemscore.Hbond>
1.9760

> <Gold.PLP.Chemscore.CHOScore>
1.0000

> <Gold.PLP.Chemscore.Metal>
0.0000

> <Gold.Chemscore.Hbonds>
donor molecule, donor type, donor heavy atom, donor atom, acceptor molecule, acceptor atom, score
      L1  H    12    23       P1  8028  0.98
      P1  H  7989  7998       L1     1  1.00
      L1  C     5    21       P1  7957  1.00

> <Gold.PLP.Chemscore.Internal.Correction>
0.0356

> <Gold.Rescore>
     Score         DG    S(hbond)    S(metal)    S(lipo)     H(rot)  DE(clash)    DE(int)     intcor
     13.99     -14.35       1.64        0.00      73.79       2.05       0.04       0.32       ----

> <Gold.Chemscore.Fitness>
13.9880

> <Gold.Chemscore.DG>
-14.3512

> <Gold.Chemscore.ZeroCoef>
-5.4800

> <Gold.Chemscore.Hbond>
1.6397

> <Gold.Chemscore.Metal>
0.0000

> <Gold.Chemscore.Lipo>
73.7888

> <Gold.Chemscore.Internal_Hbond>
0.0000

> <Gold.Chemscore.DEClash>
0.0406

> <Gold.Chemscore.DEInternal>
0.3226

> <Gold.Chemscore.Rot>
2.0463

> <Gold.Chemscore.Internal.Correction>
   9.000000E+99

> <Gold.Chemscore.Hbonds>
donor molecule, donor type, donor heavy atom, donor atom, acceptor molecule, acceptor atom, score
      L1  H    12    23       P1  8028  0.90
      P1  H  7989  7998       L1     1  0.34

> <Gold.Chemscore.Hbond.Weighted>
-5.4765

> <Gold.Chemscore.Metal.Weighted>
-0.0000

> <Gold.Chemscore.Lipo.Weighted>
-8.6333

> <Gold.Chemscore.Internal_Hbond.Weighted>
0.0000

> <Gold.Chemscore.DEClash.Weighted>
0.0406

> <Gold.Chemscore.DEInternal.Weighted>
0.3226

> <Gold.Chemscore.Rot.Weighted>
5.2386

> <Gold.Chemscore.Internal.Correction.Weighted>
   9.000000E+99

> <Gold.Protein.RotatedTorsions>
[ 6907 6896 6895 6894 ] final  -61.48 input  -60.11 | X-H torsion
[ 7974 7965 7964 7962 ] final -173.01 input  175.53 | X-H torsion
[ 8008 7997 7996 7995 ] final -153.53 input   59.86 | X-H torsion
[ 10167 10162 10161 10158 ] final  132.51 input  -65.29 | X-H torsion
[ 10718 10713 10712 10709 ] final -126.53 input   66.30 | X-H torsion
[ 10763 10752 10751 10750 ] final   84.18 input  -60.55 | X-H torsion
[ 11005 11000 10999 10996 ] final   76.18 input  -57.11 | X-H torsion

> <Gold.Protein.ActiveResidues>
 VAL166  LYS551  ARG553  GLY616  TRP617  ASP618  TYR619  PRO620  LYS621  CYS622 
 ASP623  PHE694  ASN695  SER759  ASP760  ASP761  ALA762  ILE779  LEU786  VAL792 
 PHE793  MET794  SER795  GLU796  ALA797  LYS798  CYS799  TRP800  GLU811  SER814 

> <Gold.Protein.RotatedAtoms>
  150.7782  134.6699  159.6385 H   0  0  0  0  0  0  0  0  0  0  0  0  # atno 6907 bound_to 6896
  152.3858  134.6516  160.0135 H   0  0  0  0  0  0  0  0  0  0  0  0  # atno 6908 bound_to 6896
  151.6831  133.3275  159.3260 H   0  0  0  0  0  0  0  0  0  0  0  0  # atno 6909 bound_to 6896
  144.7141  140.1686  143.6369 H   0  0  0  0  0  0  0  0  0  0  0  0  # atno 7974 bound_to 7965
  155.6722  140.0734  157.2516 H   0  0  0  0  0  0  0  0  0  0  0  0  # atno 8008 bound_to 7997
  154.4121  140.1697  156.1943 H   0  0  0  0  0  0  0  0  0  0  0  0  # atno 8009 bound_to 7997
  155.9607  140.3370  155.6491 H   0  0  0  0  0  0  0  0  0  0  0  0  # atno 8010 bound_to 7997
  139.5337  144.6659  151.4861 H   0  0  0  0  0  0  0  0  0  0  0  0  # atno 10167 bound_to 10162
  156.1773  130.6708  151.0259 H   0  0  0  0  0  0  0  0  0  0  0  0  # atno 10718 bound_to 10713
  153.1358  135.4664  154.9420 H   0  0  0  0  0  0  0  0  0  0  0  0  # atno 10763 bound_to 10752
  154.7704  135.3157  154.8203 H   0  0  0  0  0  0  0  0  0  0  0  0  # atno 10764 bound_to 10752
  153.8735  135.6901  153.4826 H   0  0  0  0  0  0  0  0  0  0  0  0  # atno 10765 bound_to 10752
  139.9310  134.7579  156.1364 H   0  0  0  0  0  0  0  0  0  0  0  0  # atno 11005 bound_to 11000
  145.8964  139.2405  143.1519 LP  0  0  0  0  0  0  0  0  0  0  0  0  # atno 17320 bound_to 7965
  145.9853  140.8648  143.0094 LP  0  0  0  0  0  0  0  0  0  0  0  0  # atno 17321 bound_to 7965
  140.6530  143.8657  150.6806 LP  0  0  0  0  0  0  0  0  0  0  0  0  # atno 17342 bound_to 10162
  140.2027  143.3946  152.1779 LP  0  0  0  0  0  0  0  0  0  0  0  0  # atno 17343 bound_to 10162
  157.6845  131.0829  150.7281 LP  0  0  0  0  0  0  0  0  0  0  0  0  # atno 17370 bound_to 10713
  156.7339  130.4718  149.5493 LP  0  0  0  0  0  0  0  0  0  0  0  0  # atno 17371 bound_to 10713
  141.0898  133.6719  156.2515 LP  0  0  0  0  0  0  0  0  0  0  0  0  # atno 17394 bound_to 11000
  140.6203  134.5368  157.5546 LP  0  0  0  0  0  0  0  0  0  0  0  0  # atno 17395 bound_to 11000

$$$$
