AV-unprocessed.smi:87|AV-procd|sdf|823|dock7
  -GOLD-   2262017233D 1   1.00000     0.00000
 Structure written by MMmdl.
 58 60  0  0  0  0  0  0  0  0  1 V2000
  145.9764  137.6948  162.4545 C   0  0  0  0  0  0  0  0  0  0  0  0
  146.9884  136.5906  162.7934 C   0  0  0  0  0  0  0  0  0  0  0  0
  147.0721  135.4474  161.7531 C   0  0  0  0  0  0  0  0  0  0  0  0
  147.5703  134.1350  162.4036 C   0  0  0  0  0  0  0  0  0  0  0  0
  147.4967  132.9073  161.4832 C   0  0  0  0  0  0  0  0  0  0  0  0
  147.9850  135.8402  160.5629 C   0  0  0  0  0  0  0  0  0  0  0  0
  147.4907  135.4159  159.2482 N   0  0  0  0  0  0  0  0  0  0  0  0
  146.0549  135.2062  159.0430 C   0  0  0  0  0  0  0  0  0  0  0  0
  145.7446  133.9116  158.2801 C   0  0  0  0  0  0  0  0  0  0  0  0
  144.3125  133.7693  157.9801 C   0  0  0  0  0  0  0  0  0  0  0  0
  143.1855  133.6576  157.7438 N   0  0  0  0  0  0  0  0  0  0  0  0
  148.2584  135.6906  158.1592 C   0  0  0  0  0  0  0  0  0  0  0  0
  147.7956  135.3572  156.9239 N   0  0  0  0  0  0  0  0  0  0  0  0
  148.5113  135.6366  155.8315 C   0  0  0  0  0  0  0  0  0  0  0  0
  149.7019  136.2307  155.7447 N   0  0  0  0  0  0  0  0  0  0  0  0
  150.1844  136.5517  156.9786 C   0  0  0  0  0  0  0  0  0  0  0  0
  149.5354  136.3215  158.2259 C   0  0  0  0  0  0  0  0  0  0  0  0
  150.3423  136.7781  159.2626 N   0  0  0  0  0  0  0  0  0  0  0  0
  151.3910  137.2707  158.6633 C   0  0  0  0  0  0  0  0  0  0  0  0
  151.3881  137.1587  157.2920 N   0  0  0  0  0  0  0  0  0  0  0  0
  152.4189  137.6247  156.3802 C   0  0  0  0  0  0  0  0  0  0  0  0
  151.8765  138.2321  155.0649 C   0  0  1  0  0  0  0  0  0  0  0  0
  151.5722  137.1276  154.2371 O   0  0  0  0  0  0  0  0  0  0  0  0
  150.5818  139.0664  155.1993 C   0  0  1  0  0  0  0  0  0  0  0  0
  150.6622  140.2973  156.1077 C   0  0  0  0  0  0  0  0  0  0  0  0
  149.6229  141.2524  155.5409 C   0  0  0  0  0  0  0  0  0  0  0  0
  149.2747  140.6508  154.1799 C   0  0  0  0  0  0  0  0  0  0  0  0
  150.2846  139.6802  153.9528 O   0  0  0  0  0  0  0  0  0  0  0  0
  146.0594  138.5181  163.1641 H   0  0  0  0  0  0  0  0  0  0  0  0
  144.9479  137.3387  162.4973 H   0  0  0  0  0  0  0  0  0  0  0  0
  146.1543  138.1001  161.4581 H   0  0  0  0  0  0  0  0  0  0  0  0
  147.9578  137.0770  162.8805 H   0  0  0  0  0  0  0  0  0  0  0  0
  146.7709  136.1811  163.7805 H   0  0  0  0  0  0  0  0  0  0  0  0
  146.0653  135.2602  161.3786 H   0  0  0  0  0  0  0  0  0  0  0  0
  148.5914  134.2626  162.7652 H   0  0  0  0  0  0  0  0  0  0  0  0
  146.9702  133.9047  163.2820 H   0  0  0  0  0  0  0  0  0  0  0  0
  147.7630  132.0031  162.0308 H   0  0  0  0  0  0  0  0  0  0  0  0
  148.1800  132.9839  160.6384 H   0  0  0  0  0  0  0  0  0  0  0  0
  146.4889  132.7688  161.0905 H   0  0  0  0  0  0  0  0  0  0  0  0
  148.1534  136.9142  160.6030 H   0  0  0  0  0  0  0  0  0  0  0  0
  148.9730  135.3991  160.6775 H   0  0  0  0  0  0  0  0  0  0  0  0
  145.5435  135.2094  160.0060 H   0  0  0  0  0  0  0  0  0  0  0  0
  145.6442  136.0381  158.4691 H   0  0  0  0  0  0  0  0  0  0  0  0
  146.2870  133.8857  157.3347 H   0  0  0  0  0  0  0  0  0  0  0  0
  146.0442  133.0356  158.8552 H   0  0  0  0  0  0  0  0  0  0  0  0
  148.0653  135.3426  154.8927 H   0  0  0  0  0  0  0  0  0  0  0  0
  152.2073  137.7197  159.2105 H   0  0  0  0  0  0  0  0  0  0  0  0
  153.0025  138.3714  156.9211 H   0  0  0  0  0  0  0  0  0  0  0  0
  153.1000  136.8004  156.1641 H   0  0  0  0  0  0  0  0  0  0  0  0
  152.6506  138.8215  154.5732 H   0  0  0  0  0  0  0  0  0  0  0  0
  151.5486  137.4226  153.3398 H   0  0  0  0  0  0  0  0  0  0  0  0
  149.7436  138.4373  155.5066 H   0  0  0  0  0  0  0  0  0  0  0  0
  150.4723  140.0584  157.1536 H   0  0  0  0  0  0  0  0  0  0  0  0
  151.6489  140.7573  156.0367 H   0  0  0  0  0  0  0  0  0  0  0  0
  148.7386  141.3134  156.1759 H   0  0  0  0  0  0  0  0  0  0  0  0
  150.0363  142.2568  155.4417 H   0  0  0  0  0  0  0  0  0  0  0  0
  148.3026  140.1568  154.2137 H   0  0  0  0  0  0  0  0  0  0  0  0
  149.2529  141.3943  153.3831 H   0  0  0  0  0  0  0  0  0  0  0  0
  1  2  1  0  0  0  0
  1 29  1  0  0  0  0
  1 30  1  0  0  0  0
  1 31  1  0  0  0  0
  2  3  1  0  0  0  0
  2 32  1  0  0  0  0
  2 33  1  0  0  0  0
  3  4  1  0  0  0  0
  3  6  1  0  0  0  0
  3 34  1  0  0  0  0
  4  5  1  0  0  0  0
  4 35  1  0  0  0  0
  4 36  1  0  0  0  0
  5 37  1  0  0  0  0
  5 38  1  0  0  0  0
  5 39  1  0  0  0  0
  6  7  1  0  0  0  0
  6 40  1  0  0  0  0
  6 41  1  0  0  0  0
  7  8  1  0  0  0  0
  7 12  1  0  0  0  0
  8  9  1  0  0  0  0
  8 42  1  0  0  0  0
  8 43  1  0  0  0  0
  9 10  1  0  0  0  0
  9 44  1  0  0  0  0
  9 45  1  0  0  0  0
 10 11  3  0  0  0  0
 12 17  1  0  0  0  0
 12 13  2  0  0  0  0
 13 14  1  0  0  0  0
 14 15  2  0  0  0  0
 14 46  1  0  0  0  0
 15 16  1  0  0  0  0
 16 20  1  0  0  0  0
 16 17  2  0  0  0  0
 17 18  1  0  0  0  0
 18 19  2  0  0  0  0
 19 20  1  0  0  0  0
 19 47  1  0  0  0  0
 20 21  1  0  0  0  0
 21 22  1  0  0  0  0
 21 48  1  0  0  0  0
 21 49  1  0  0  0  0
 22 23  1  0  0  0  0
 22 24  1  0  0  0  0
 22 50  1  0  0  0  0
 23 51  1  0  0  0  0
 24 28  1  0  0  0  0
 24 25  1  0  0  0  0
 24 52  1  0  0  0  0
 25 26  1  0  0  0  0
 25 53  1  0  0  0  0
 25 54  1  0  0  0  0
 26 27  1  0  0  0  0
 26 55  1  0  0  0  0
 26 56  1  0  0  0  0
 27 28  1  0  0  0  0
 27 57  1  0  0  0  0
 27 58  1  0  0  0  0
M  END
> <s_m_source_file>
AV-unprocessed.smi

> <i_m_source_file_index>
87

> <i_lp_mmshare_version>
43012

> <i_f3d_flags>
0

> <s_epik_input>
W0NIM11bQ0gyXVtDSF0oW0NIMl1bQ0gzXSlbQ0gyXU4oW0NIMl1bQ0gyXUMjTiljKG5bY0hdbjEpYyhjMTIpbltjSF1uMltDSDJdW0NASF0oW09IXSlbQ0BASF0zW0NIMl1bQ0gyXVtDSDJdTzM=

> <s_epik_cmdline>
J2VwaWtfcHl0aG9uJywgJy1waCcsICc3LjAnLCAnLXRuJywgJzgnLCAnLW1hJywgJzIwMCcsICctbWV0YWxfYmluZGluZycsICctaW1hZScsICc8aW5maWxlLm1hZT4nLCAnLW9tYWUnLCAnPG91dGZpbGUubWFlPic=

> <r_lp_tautomer_probability>
1

> <r_epik_Ionization_Penalty>
0.000348566

> <r_epik_Ionization_Penalty_Charging>
0

> <r_epik_Ionization_Penalty_Neutral>
0.000348566

> <r_epik_State_Penalty>
-0

> <r_epik_Charging_Adjusted_Penalty>
0

> <i_epik_Tot_Q>
0

> <i_epik_Tot_abs_Q>
0

> <r_epik_Metal_State_Penalty>
-0

> <b_epik_Metal_Only>
0

> <s_lp_Force_Field>
OPLS_2005

> <r_lp_Energy>
38.5026

> <b_lp_Chiralities_Consistent>
1

> <s_lp_Variant>
AV-unprocessed.smi:87-4

> <Gold.Version>
5.8.1

> <Gold.Id.Protein>
6NUR|6NUR_protein|mol2

> <Gold.PLP.Fitness>
49.4765

> <Gold.PLP.PLP>
-40.1139

> <Gold.PLP.part.hbond>
-4.9244

> <Gold.PLP.part.metal>
0.0000

> <Gold.PLP.part.buried>
-4.8497

> <Gold.PLP.part.nonpolar>
-32.1866

> <Gold.PLP.part.repulsive>
0.9393

> <Gold.PLP.ligand.clash>
0.0000

> <Gold.PLP.ligand.torsion>
1.7906

> <Gold.PLP.Chemscore.Hbond>
3.8288

> <Gold.PLP.Chemscore.CHOScore>
0.0000

> <Gold.PLP.Chemscore.Metal>
0.0000

> <Gold.Chemscore.Hbonds>
donor molecule, donor type, donor heavy atom, donor atom, acceptor molecule, acceptor atom, score
      L1  H    23    51       P1  7949  0.07
      P1  H  6896  6909       L1    18  0.80
      P1  H  7989  7998       L1    28  0.85
      P1  H 10752 10763       L1    23  1.00
      P1  H 11000 11005       L1    11  0.84

> <Gold.PLP.Chemscore.Internal.Correction>
1.4575

> <Gold.Rescore>
     Score         DG    S(hbond)    S(metal)    S(lipo)     H(rot)  DE(clash)    DE(int)     intcor
     11.81     -15.88       2.55        0.00      89.72       3.37       0.03       4.04       ----

> <Gold.Chemscore.Fitness>
11.8089

> <Gold.Chemscore.DG>
-15.8805

> <Gold.Chemscore.ZeroCoef>
-5.4800

> <Gold.Chemscore.Hbond>
2.5520

> <Gold.Chemscore.Metal>
0.0000

> <Gold.Chemscore.Lipo>
89.7154

> <Gold.Chemscore.Internal_Hbond>
0.0000

> <Gold.Chemscore.DEClash>
0.0310

> <Gold.Chemscore.DEInternal>
4.0406

> <Gold.Chemscore.Rot>
3.3672

> <Gold.Chemscore.Internal.Correction>
   9.000000E+99

> <Gold.Chemscore.Hbonds>
donor molecule, donor type, donor heavy atom, donor atom, acceptor molecule, acceptor atom, score
      L1  H    23    51       P1  7949  0.07
      P1  H  6896  6909       L1    18  0.03
      P1  H  7989  7998       L1    28  0.11
      P1  H 10752 10763       L1    23  0.34
      P1  H 11000 11005       L1    11  0.82

> <Gold.Chemscore.Hbond.Weighted>
-8.5238

> <Gold.Chemscore.Metal.Weighted>
-0.0000

> <Gold.Chemscore.Lipo.Weighted>
-10.4967

> <Gold.Chemscore.Internal_Hbond.Weighted>
0.0000

> <Gold.Chemscore.DEClash.Weighted>
0.0310

> <Gold.Chemscore.DEInternal.Weighted>
4.0406

> <Gold.Chemscore.Rot.Weighted>
8.6201

> <Gold.Chemscore.Internal.Correction.Weighted>
   9.000000E+99

> <Gold.Protein.RotatedTorsions>
[ 6907 6896 6895 6894 ] final   83.29 input  -60.11 | X-H torsion
[ 7974 7965 7964 7962 ] final  177.81 input  175.53 | X-H torsion
[ 8008 7997 7996 7995 ] final   47.88 input   59.86 | X-H torsion
[ 10167 10162 10161 10158 ] final -127.11 input  -65.29 | X-H torsion
[ 10718 10713 10712 10709 ] final -124.23 input   66.30 | X-H torsion
[ 10763 10752 10751 10750 ] final   35.98 input  -60.55 | X-H torsion
[ 11005 11000 10999 10996 ] final -103.29 input  -57.11 | X-H torsion

> <Gold.Protein.ActiveResidues>
 VAL166  LYS551  ARG553  GLY616  TRP617  ASP618  TYR619  PRO620  LYS621  CYS622 
 ASP623  PHE694  ASN695  SER759  ASP760  ASP761  ALA762  ILE779  LEU786  VAL792 
 PHE793  MET794  SER795  GLU796  ALA797  LYS798  CYS799  TRP800  GLU811  SER814 

> <Gold.Protein.RotatedAtoms>
  152.5323  134.2919  159.9045 H   0  0  0  0  0  0  0  0  0  0  0  0  # atno 6907 bound_to 6896
  151.2871  133.4176  159.2638 H   0  0  0  0  0  0  0  0  0  0  0  0  # atno 6908 bound_to 6896
  151.0233  134.9501  159.8128 H   0  0  0  0  0  0  0  0  0  0  0  0  # atno 6909 bound_to 6896
  144.7164  140.0302  143.6439 H   0  0  0  0  0  0  0  0  0  0  0  0  # atno 7974 bound_to 7965
  155.3764  140.3426  155.4245 H   0  0  0  0  0  0  0  0  0  0  0  0  # atno 8008 bound_to 7997
  156.1634  140.1608  156.8606 H   0  0  0  0  0  0  0  0  0  0  0  0  # atno 8009 bound_to 7997
  154.5162  140.0778  156.8067 H   0  0  0  0  0  0  0  0  0  0  0  0  # atno 8010 bound_to 7997
  139.9643  143.5915  152.2434 H   0  0  0  0  0  0  0  0  0  0  0  0  # atno 10167 bound_to 10162
  156.1570  130.6575  150.9995 H   0  0  0  0  0  0  0  0  0  0  0  0  # atno 10718 bound_to 10713
  153.0096  135.6318  154.1913 H   0  0  0  0  0  0  0  0  0  0  0  0  # atno 10763 bound_to 10752
  154.1656  135.2821  155.3098 H   0  0  0  0  0  0  0  0  0  0  0  0  # atno 10764 bound_to 10752
  154.5948  135.5606  153.7375 H   0  0  0  0  0  0  0  0  0  0  0  0  # atno 10765 bound_to 10752
  141.1152  133.8628  157.1468 H   0  0  0  0  0  0  0  0  0  0  0  0  # atno 11005 bound_to 11000
  146.0108  139.3168  143.0871 LP  0  0  0  0  0  0  0  0  0  0  0  0  # atno 17320 bound_to 7965
  145.8684  140.9434  143.0664 LP  0  0  0  0  0  0  0  0  0  0  0  0  # atno 17321 bound_to 7965
  139.6529  144.7661  151.2112 LP  0  0  0  0  0  0  0  0  0  0  0  0  # atno 17342 bound_to 10162
  140.7543  143.6131  150.8586 LP  0  0  0  0  0  0  0  0  0  0  0  0  # atno 17343 bound_to 10162
  157.6703  131.0863  150.7629 LP  0  0  0  0  0  0  0  0  0  0  0  0  # atno 17370 bound_to 10713
  156.7694  130.4824  149.5421 LP  0  0  0  0  0  0  0  0  0  0  0  0  # atno 17371 bound_to 10713
  140.0070  135.0004  157.0313 LP  0  0  0  0  0  0  0  0  0  0  0  0  # atno 17394 bound_to 11000
  140.4665  134.1430  155.7197 LP  0  0  0  0  0  0  0  0  0  0  0  0  # atno 17395 bound_to 11000

$$$$
