AV-unprocessed.smi:793|AV-procd|sdf|3752|dock4
  -GOLD-   22720 1183D 1   1.00000     0.00000
 Structure written by MMmdl.
 39 40  0  0  0  0  0  0  0  0  1 V2000
  152.2926  138.2213  154.4693 C   0  0  0  0  0  0  0  0  0  0  0  0
  152.3434  139.3660  155.4887 C   0  0  0  0  0  0  0  0  0  0  0  0
  150.9465  139.7851  155.9846 C   0  0  2  0  0  0  0  0  0  0  0  0
  150.3409  140.5780  154.9641 O   0  0  0  0  0  0  0  0  0  0  0  0
  148.9173  140.5529  154.9014 C   0  0  0  0  0  0  0  0  0  0  0  0
  148.3710  139.3422  154.1372 C   0  0  0  0  0  0  0  0  0  0  0  0
  147.0186  139.7931  153.5676 C   0  0  0  0  0  0  0  0  0  0  0  0
  146.9945  141.3262  153.6662 C   0  0  0  0  0  0  0  0  0  0  0  0
  148.4054  141.7400  154.0890 C   0  0  0  0  0  0  0  0  0  0  0  0
  151.0350  140.5901  157.2917 C   0  0  0  0  0  0  0  0  0  0  0  0
  150.6918  140.0647  158.3503 O   0  0  0  0  0  0  0  0  0  0  0  0
  151.5216  141.8405  157.1670 N   0  0  0  0  0  0  0  0  0  0  0  0
  151.7184  142.8221  158.1515 C   0  0  0  0  0  0  0  0  0  0  0  0
  151.3767  144.1319  158.0453 C   0  0  0  0  0  0  0  0  0  0  0  0
  151.5996  145.0718  159.0414 N   0  0  0  0  0  0  0  0  0  0  0  0
  152.2124  144.6699  160.2171 C   0  0  0  0  0  0  0  0  0  0  0  0
  152.6047  143.4017  160.4486 C   0  0  0  0  0  0  0  0  0  0  0  0
  152.3794  142.3722  159.4088 C   0  0  0  0  0  0  0  0  0  0  0  0
  152.7255  141.2044  159.5870 O   0  0  0  0  0  0  0  0  0  0  0  0
  153.2965  137.9475  154.1446 H   0  0  0  0  0  0  0  0  0  0  0  0
  151.7236  138.5054  153.5838 H   0  0  0  0  0  0  0  0  0  0  0  0
  151.8271  137.3329  154.8969 H   0  0  0  0  0  0  0  0  0  0  0  0
  152.9559  139.0501  156.3346 H   0  0  0  0  0  0  0  0  0  0  0  0
  152.8540  140.2208  155.0433 H   0  0  0  0  0  0  0  0  0  0  0  0
  150.3604  138.8804  156.1551 H   0  0  0  0  0  0  0  0  0  0  0  0
  148.4669  140.5996  155.8938 H   0  0  0  0  0  0  0  0  0  0  0  0
  149.0438  139.0952  153.3145 H   0  0  0  0  0  0  0  0  0  0  0  0
  148.2809  138.4561  154.7663 H   0  0  0  0  0  0  0  0  0  0  0  0
  146.9048  139.4586  152.5360 H   0  0  0  0  0  0  0  0  0  0  0  0
  146.1947  139.3668  154.1412 H   0  0  0  0  0  0  0  0  0  0  0  0
  146.6934  141.7981  152.7305 H   0  0  0  0  0  0  0  0  0  0  0  0
  146.2794  141.6311  154.4314 H   0  0  0  0  0  0  0  0  0  0  0  0
  148.4204  142.6731  154.6527 H   0  0  0  0  0  0  0  0  0  0  0  0
  149.0262  141.8763  153.2021 H   0  0  0  0  0  0  0  0  0  0  0  0
  151.8097  142.1154  156.2388 H   0  0  0  0  0  0  0  0  0  0  0  0
  150.9116  144.5663  157.1750 H   0  0  0  0  0  0  0  0  0  0  0  0
  152.3508  145.4628  160.9373 H   0  0  0  0  0  0  0  0  0  0  0  0
  153.0803  143.1185  161.3761 H   0  0  0  0  0  0  0  0  0  0  0  0
  151.3261  146.0352  158.9074 H   0  0  0  0  0  0  0  0  0  0  0  0
  1  2  1  0  0  0  0
  1 20  1  0  0  0  0
  1 21  1  0  0  0  0
  1 22  1  0  0  0  0
  2  3  1  0  0  0  0
  2 23  1  0  0  0  0
  2 24  1  0  0  0  0
  3  4  1  0  0  0  0
  3 10  1  0  0  0  0
  3 25  1  0  0  0  0
  4  5  1  0  0  0  0
  5  9  1  0  0  0  0
  5  6  1  0  0  0  0
  5 26  1  0  0  0  0
  6  7  1  0  0  0  0
  6 27  1  0  0  0  0
  6 28  1  0  0  0  0
  7  8  1  0  0  0  0
  7 29  1  0  0  0  0
  7 30  1  0  0  0  0
  8  9  1  0  0  0  0
  8 31  1  0  0  0  0
  8 32  1  0  0  0  0
  9 33  1  0  0  0  0
  9 34  1  0  0  0  0
 10 11  2  0  0  0  0
 10 12  1  0  0  0  0
 12 35  1  0  0  0  0
 12 13  1  0  0  0  0
 13 18  1  0  0  0  0
 13 14  2  0  0  0  0
 14 36  1  0  0  0  0
 14 15  1  0  0  0  0
 15 39  1  0  0  0  0
 15 16  1  0  0  0  0
 16 37  1  0  0  0  0
 16 17  2  0  0  0  0
 17 18  1  0  0  0  0
 17 38  1  0  0  0  0
 18 19  2  0  0  0  0
M  END
> <s_m_source_file>
AV-unprocessed.smi

> <i_m_source_file_index>
793

> <i_lp_mmshare_version>
43012

> <i_f3d_flags>
0

> <s_epik_input>
W0NIMl0xW0NIMl1bQ0gyXVtDSDJdW0NIXTFPW0NAQEhdKFtDSDJdW0NIM10pQyg9TylbTkhdYzJbY0hdbltjSF1bY0hdYzJbT0hd

> <s_epik_cmdline>
J2VwaWtfcHl0aG9uJywgJy1waCcsICc3LjAnLCAnLXRuJywgJzgnLCAnLW1hJywgJzIwMCcsICctbWV0YWxfYmluZGluZycsICctaW1hZScsICc8aW5maWxlLm1hZT4nLCAnLW9tYWUnLCAnPG91dGZpbGUubWFlPic=

> <r_lp_tautomer_probability>
1

> <r_epik_Ionization_Penalty>
0.000234492

> <r_epik_Ionization_Penalty_Charging>
0.000234447

> <r_epik_Ionization_Penalty_Neutral>
4.48517e-08

> <r_epik_State_Penalty>
-0

> <r_epik_Charging_Adjusted_Penalty>
0.000234447

> <i_epik_Tot_Q>
0

> <i_epik_Tot_abs_Q>
0

> <r_epik_Metal_State_Penalty>
0.110344

> <b_epik_Metal_Only>
0

> <s_lp_Force_Field>
OPLS_2005

> <r_lp_Energy>
24.985

> <b_lp_Chiralities_Consistent>
1

> <s_lp_Variant>
AV-unprocessed.smi:793-1

> <Gold.Version>
5.8.1

> <Gold.Id.Protein>
6NUR|6NUR_protein|mol2

> <Gold.PLP.Fitness>
42.9857

> <Gold.PLP.PLP>
-39.6806

> <Gold.PLP.part.hbond>
-1.0000

> <Gold.PLP.part.metal>
0.0000

> <Gold.PLP.part.buried>
-3.2782

> <Gold.PLP.part.nonpolar>
-35.5755

> <Gold.PLP.part.repulsive>
0.3098

> <Gold.PLP.ligand.clash>
0.0000

> <Gold.PLP.ligand.torsion>
1.3444

> <Gold.PLP.Chemscore.Hbond>
0.9760

> <Gold.PLP.Chemscore.CHOScore>
1.0000

> <Gold.PLP.Chemscore.Metal>
0.0000

> <Gold.Chemscore.Hbonds>
donor molecule, donor type, donor heavy atom, donor atom, acceptor molecule, acceptor atom, score
      P1  H  7989  7998       L1     4  0.94
      L1  C    14    36       P1  8028  1.00

> <Gold.PLP.Chemscore.Internal.Correction>
0.0659

> <Gold.Rescore>
     Score         DG    S(hbond)    S(metal)    S(lipo)     H(rot)  DE(clash)    DE(int)     intcor
     14.51     -16.01       0.89        0.00      99.83       1.61       0.11       1.39       ----

> <Gold.Chemscore.Fitness>
14.5134

> <Gold.Chemscore.DG>
-16.0100

> <Gold.Chemscore.ZeroCoef>
-5.4800

> <Gold.Chemscore.Hbond>
0.8868

> <Gold.Chemscore.Metal>
0.0000

> <Gold.Chemscore.Lipo>
99.8267

> <Gold.Chemscore.Internal_Hbond>
0.0000

> <Gold.Chemscore.DEClash>
0.1069

> <Gold.Chemscore.DEInternal>
1.3897

> <Gold.Chemscore.Rot>
1.6061

> <Gold.Chemscore.Internal.Correction>
   9.000000E+99

> <Gold.Chemscore.Hbonds>
donor molecule, donor type, donor heavy atom, donor atom, acceptor molecule, acceptor atom, score
      P1  H  7989  7998       L1     4  0.66

> <Gold.Chemscore.Hbond.Weighted>
-2.9619

> <Gold.Chemscore.Metal.Weighted>
-0.0000

> <Gold.Chemscore.Lipo.Weighted>
-11.6797

> <Gold.Chemscore.Internal_Hbond.Weighted>
0.0000

> <Gold.Chemscore.DEClash.Weighted>
0.1069

> <Gold.Chemscore.DEInternal.Weighted>
1.3897

> <Gold.Chemscore.Rot.Weighted>
4.1116

> <Gold.Chemscore.Internal.Correction.Weighted>
   9.000000E+99

> <Gold.Protein.RotatedTorsions>
[ 6907 6896 6895 6894 ] final   18.90 input  -60.11 | X-H torsion
[ 7974 7965 7964 7962 ] final -169.63 input  175.53 | X-H torsion
[ 8008 7997 7996 7995 ] final -179.72 input   59.86 | X-H torsion
[ 10167 10162 10161 10158 ] final  -85.51 input  -65.29 | X-H torsion
[ 10718 10713 10712 10709 ] final  -15.83 input   66.30 | X-H torsion
[ 10763 10752 10751 10750 ] final  -56.68 input  -60.55 | X-H torsion
[ 11005 11000 10999 10996 ] final  -52.96 input  -57.11 | X-H torsion

> <Gold.Protein.ActiveResidues>
 VAL166  LYS551  ARG553  GLY616  TRP617  ASP618  TYR619  PRO620  LYS621  CYS622 
 ASP623  PHE694  ASN695  SER759  ASP760  ASP761  ALA762  ILE779  LEU786  VAL792 
 PHE793  MET794  SER795  GLU796  ALA797  LYS798  CYS799  TRP800  GLU811  SER814 

> <Gold.Protein.RotatedAtoms>
  151.8725  135.0484  160.0480 H   0  0  0  0  0  0  0  0  0  0  0  0  # atno 6907 bound_to 6896
  152.2577  133.5265  159.5371 H   0  0  0  0  0  0  0  0  0  0  0  0  # atno 6908 bound_to 6896
  150.7105  134.0789  159.3933 H   0  0  0  0  0  0  0  0  0  0  0  0  # atno 6909 bound_to 6896
  144.7182  140.2192  143.6318 H   0  0  0  0  0  0  0  0  0  0  0  0  # atno 7974 bound_to 7965
  156.0337  140.1288  157.0230 H   0  0  0  0  0  0  0  0  0  0  0  0  # atno 8008 bound_to 7997
  154.4361  140.1044  156.6207 H   0  0  0  0  0  0  0  0  0  0  0  0  # atno 8009 bound_to 7997
  155.5769  140.3467  155.4532 H   0  0  0  0  0  0  0  0  0  0  0  0  # atno 8010 bound_to 7997
  140.4031  143.2654  151.9117 H   0  0  0  0  0  0  0  0  0  0  0  0  # atno 10167 bound_to 10162
  156.5961  130.4812  149.6259 H   0  0  0  0  0  0  0  0  0  0  0  0  # atno 10718 bound_to 10713
  154.2105  135.6395  153.5114 H   0  0  0  0  0  0  0  0  0  0  0  0  # atno 10763 bound_to 10752
  152.9991  135.5473  154.6220 H   0  0  0  0  0  0  0  0  0  0  0  0  # atno 10764 bound_to 10752
  154.5655  135.2912  155.0851 H   0  0  0  0  0  0  0  0  0  0  0  0  # atno 10765 bound_to 10752
  141.0951  133.6626  156.4102 H   0  0  0  0  0  0  0  0  0  0  0  0  # atno 11005 bound_to 11000
  145.8517  139.2179  143.1768 LP  0  0  0  0  0  0  0  0  0  0  0  0  # atno 17320 bound_to 7965
  146.0254  140.8308  142.9902 LP  0  0  0  0  0  0  0  0  0  0  0  0  # atno 17321 bound_to 7965
  139.4784  144.5614  151.8234 LP  0  0  0  0  0  0  0  0  0  0  0  0  # atno 17342 bound_to 10162
  140.4719  144.1575  150.5919 LP  0  0  0  0  0  0  0  0  0  0  0  0  # atno 17343 bound_to 10162
  156.2508  130.6906  151.1643 LP  0  0  0  0  0  0  0  0  0  0  0  0  # atno 17370 bound_to 10713
  157.7291  131.0626  150.5788 LP  0  0  0  0  0  0  0  0  0  0  0  0  # atno 17371 bound_to 10713
  140.5158  134.6351  157.5301 LP  0  0  0  0  0  0  0  0  0  0  0  0  # atno 17394 bound_to 11000
  139.9786  134.7174  155.9902 LP  0  0  0  0  0  0  0  0  0  0  0  0  # atno 17395 bound_to 11000

$$$$
