AV-unprocessed.smi:1562|AV-procd|sdf|6288|dock3
  -GOLD-   22720 6483D 1   1.00000     0.00000
 Structure written by MMmdl.
 41 42  0  0  0  0  0  0  0  0  2 V2000
  147.5864  136.9722  153.5968 N   0  0  0  0  0  0  0  0  0  0  0  0
  147.5267  138.1308  154.2580 C   0  0  0  0  0  0  0  0  0  0  0  0
  146.5280  138.4714  154.8893 O   0  0  0  0  0  0  0  0  0  0  0  0
  148.7662  139.0337  154.2019 C   0  0  0  0  0  0  0  0  0  0  0  0
  149.9533  138.3974  154.9644 C   0  0  0  0  0  0  0  0  0  0  0  0
  151.1500  139.3633  155.0357 C   0  0  0  0  0  0  0  0  0  0  0  0
  150.7067  140.6153  155.6714 N   0  0  0  0  0  0  0  0  0  0  0  0
  150.9525  140.9928  156.9516 C   0  0  0  0  0  0  0  0  0  0  0  0
  150.6183  142.0862  157.4105 O   0  0  0  0  0  0  0  0  0  0  0  0
  151.6302  140.0932  157.6828 N   0  0  0  0  0  0  0  0  0  0  0  0
  152.0072  140.2768  159.0774 C   0  0  0  0  0  0  0  0  0  0  0  0
  153.1203  141.3257  159.2053 C   0  0  0  0  0  0  0  0  0  0  0  0
  152.5835  142.6826  159.6182 C   0  0  0  0  0  0  0  0  0  0  0  0
  152.4455  143.7471  158.7009 C   0  0  0  0  0  0  0  0  0  0  0  0
  151.9439  144.9856  159.1529 C   0  0  0  0  0  0  0  0  0  0  0  0
  151.5935  145.1341  160.5110 C   0  0  0  0  0  0  0  0  0  0  0  0
  151.7530  144.0386  161.3838 C   0  0  0  0  0  0  0  0  0  0  0  0
  152.2353  142.8676  160.9123 N   0  3  0  0  0  0  0  0  0  0  0  0
  149.7185  141.3085  154.8368 C   0  0  0  0  0  0  0  0  0  0  0  0
  148.4473  140.4439  154.7525 C   0  0  0  0  0  0  0  0  0  0  0  0
  146.7913  136.3500  153.6068 H   0  0  0  0  0  0  0  0  0  0  0  0
  148.4224  136.7229  153.0889 H   0  0  0  0  0  0  0  0  0  0  0  0
  149.0659  139.1453  153.1581 H   0  0  0  0  0  0  0  0  0  0  0  0
  149.6541  138.1268  155.9786 H   0  0  0  0  0  0  0  0  0  0  0  0
  150.2579  137.4716  154.4752 H   0  0  0  0  0  0  0  0  0  0  0  0
  151.9849  138.8803  155.5430 H   0  0  0  0  0  0  0  0  0  0  0  0
  151.5121  139.5801  154.0297 H   0  0  0  0  0  0  0  0  0  0  0  0
  151.8874  139.2211  157.2439 H   0  0  0  0  0  0  0  0  0  0  0  0
  151.1354  140.5859  159.6568 H   0  0  0  0  0  0  0  0  0  0  0  0
  152.3422  139.3208  159.4824 H   0  0  0  0  0  0  0  0  0  0  0  0
  153.8606  140.9972  159.9362 H   0  0  0  0  0  0  0  0  0  0  0  0
  153.6494  141.4298  158.2569 H   0  0  0  0  0  0  0  0  0  0  0  0
  152.7211  143.6188  157.6641 H   0  0  0  0  0  0  0  0  0  0  0  0
  151.8307  145.8120  158.4664 H   0  0  0  0  0  0  0  0  0  0  0  0
  151.2085  146.0746  160.8774 H   0  0  0  0  0  0  0  0  0  0  0  0
  151.5123  144.0629  162.4368 H   0  0  0  0  0  0  0  0  0  0  0  0
  149.4725  142.3018  155.2147 H   0  0  0  0  0  0  0  0  0  0  0  0
  150.1321  141.4675  153.8400 H   0  0  0  0  0  0  0  0  0  0  0  0
  147.7111  140.9363  154.1159 H   0  0  0  0  0  0  0  0  0  0  0  0
  147.9979  140.3728  155.7447 H   0  0  0  0  0  0  0  0  0  0  0  0
  152.3444  142.0888  161.5626 H   0  0  0  0  0  0  0  0  0  0  0  0
  1  2  1  0  0  0  0
  1 21  1  0  0  0  0
  1 22  1  0  0  0  0
  2  3  2  0  0  0  0
  2  4  1  0  0  0  0
  4 20  1  0  0  0  0
  4  5  1  0  0  0  0
  4 23  1  0  0  0  0
  5  6  1  0  0  0  0
  5 24  1  0  0  0  0
  5 25  1  0  0  0  0
  6  7  1  0  0  0  0
  6 26  1  0  0  0  0
  6 27  1  0  0  0  0
  7  8  1  0  0  0  0
  7 19  1  0  0  0  0
  8  9  2  0  0  0  0
  8 10  1  0  0  0  0
 10 11  1  0  0  0  0
 10 28  1  0  0  0  0
 11 12  1  0  0  0  0
 11 29  1  0  0  0  0
 11 30  1  0  0  0  0
 12 13  1  0  0  0  0
 12 31  1  0  0  0  0
 12 32  1  0  0  0  0
 13 18  1  0  0  0  0
 13 14  2  0  0  0  0
 14 15  1  0  0  0  0
 14 33  1  0  0  0  0
 15 16  2  0  0  0  0
 15 34  1  0  0  0  0
 16 17  1  0  0  0  0
 16 35  1  0  0  0  0
 17 18  2  0  0  0  0
 17 36  1  0  0  0  0
 18 41  1  0  0  0  0
 19 20  1  0  0  0  0
 19 37  1  0  0  0  0
 19 38  1  0  0  0  0
 20 39  1  0  0  0  0
 20 40  1  0  0  0  0
M  CHG  1  18   1
M  END
> <s_m_source_file>
AV-unprocessed.smi

> <i_m_source_file_index>
1562

> <i_lp_mmshare_version>
43012

> <i_f3d_flags>
0

> <s_epik_input>
W05IMl1DKD1PKVtDSF0xW0NIMl1bQ0gyXU4oW0NIMl1bQ0gyXTEpQyg9TylbTkhdW0NIMl1bQ0gyXWMyW2NIXVtjSF1bY0hdW2NIXW4y

> <s_epik_cmdline>
J2VwaWtfcHl0aG9uJywgJy1waCcsICc3LjAnLCAnLXRuJywgJzgnLCAnLW1hJywgJzIwMCcsICctbWV0YWxfYmluZGluZycsICctaW1hZScsICc8aW5maWxlLm1hZT4nLCAnLW9tYWUnLCAnPG91dGZpbGUubWFlPic=

> <r_epik_Ionization_Penalty>
1.55599

> <r_epik_Ionization_Penalty_Charging>
1.55593

> <r_epik_Ionization_Penalty_Neutral>
5.20779e-05

> <r_epik_State_Penalty>
1.65054

> <r_epik_Charging_Adjusted_Penalty>
3.20648

> <i_epik_Tot_Q>
1

> <i_epik_Tot_abs_Q>
1

> <r_epik_Metal_State_Penalty>
1.69236

> <b_epik_Metal_Only>
0

> <s_lp_Force_Field>
OPLS_2005

> <r_lp_Energy>
33.1399

> <b_lp_Chiralities_Consistent>
1

> <s_lp_Variant>
AV-unprocessed.smi:1562-2

> <Gold.Version>
5.8.1

> <Gold.Id.Protein>
6NUR|6NUR_protein|mol2

> <Gold.PLP.Fitness>
45.2398

> <Gold.PLP.PLP>
-43.6950

> <Gold.PLP.part.hbond>
-0.8997

> <Gold.PLP.part.metal>
0.0000

> <Gold.PLP.part.buried>
-2.9184

> <Gold.PLP.part.nonpolar>
-38.9107

> <Gold.PLP.part.repulsive>
0.3155

> <Gold.PLP.ligand.clash>
0.0000

> <Gold.PLP.ligand.torsion>
0.7931

> <Gold.PLP.Chemscore.Hbond>
1.0000

> <Gold.PLP.Chemscore.CHOScore>
0.0000

> <Gold.PLP.Chemscore.Metal>
0.0000

> <Gold.Chemscore.Hbonds>
donor molecule, donor type, donor heavy atom, donor atom, acceptor molecule, acceptor atom, score
      L1  H     1    22       P1  7948  0.68

> <Gold.PLP.Chemscore.Internal.Correction>
0.1311

> <Gold.Rescore>
     Score         DG    S(hbond)    S(metal)    S(lipo)     H(rot)  DE(clash)    DE(int)     intcor
     15.84     -16.66       1.00        0.00     111.61       2.03       0.05       0.77       ----

> <Gold.Chemscore.Fitness>
15.8396

> <Gold.Chemscore.DG>
-16.6609

> <Gold.Chemscore.ZeroCoef>
-5.4800

> <Gold.Chemscore.Hbond>
0.9968

> <Gold.Chemscore.Metal>
0.0000

> <Gold.Chemscore.Lipo>
111.6103

> <Gold.Chemscore.Internal_Hbond>
0.0000

> <Gold.Chemscore.DEClash>
0.0498

> <Gold.Chemscore.DEInternal>
0.7715

> <Gold.Chemscore.Rot>
2.0339

> <Gold.Chemscore.Internal.Correction>
   9.000000E+99

> <Gold.Chemscore.Hbonds>
donor molecule, donor type, donor heavy atom, donor atom, acceptor molecule, acceptor atom, score
      L1  H     1    22       P1  7948  0.66

> <Gold.Chemscore.Hbond.Weighted>
-3.3294

> <Gold.Chemscore.Metal.Weighted>
-0.0000

> <Gold.Chemscore.Lipo.Weighted>
-13.0584

> <Gold.Chemscore.Internal_Hbond.Weighted>
0.0000

> <Gold.Chemscore.DEClash.Weighted>
0.0498

> <Gold.Chemscore.DEInternal.Weighted>
0.7715

> <Gold.Chemscore.Rot.Weighted>
5.2069

> <Gold.Chemscore.Internal.Correction.Weighted>
   9.000000E+99

> <Gold.Protein.RotatedTorsions>
[ 6907 6896 6895 6894 ] final   -6.49 input  -60.11 | X-H torsion
[ 7974 7965 7964 7962 ] final -161.24 input  175.53 | X-H torsion
[ 8008 7997 7996 7995 ] final   42.64 input   59.86 | X-H torsion
[ 10167 10162 10161 10158 ] final  -80.89 input  -65.29 | X-H torsion
[ 10718 10713 10712 10709 ] final  168.54 input   66.30 | X-H torsion
[ 10763 10752 10751 10750 ] final  149.41 input  -60.55 | X-H torsion
[ 11005 11000 10999 10996 ] final  115.41 input  -57.11 | X-H torsion

> <Gold.Protein.ActiveResidues>
 VAL166  LYS551  ARG553  GLY616  TRP617  ASP618  TYR619  PRO620  LYS621  CYS622 
 ASP623  PHE694  ASN695  SER759  ASP760  ASP761  ALA762  ILE779  LEU786  VAL792 
 PHE793  MET794  SER795  GLU796  ALA797  LYS798  CYS799  TRP800  GLU811  SER814 

> <Gold.Protein.RotatedAtoms>
  151.4647  135.1041  159.9734 H   0  0  0  0  0  0  0  0  0  0  0  0  # atno 6907 bound_to 6896
  152.4839  133.8320  159.7119 H   0  0  0  0  0  0  0  0  0  0  0  0  # atno 6908 bound_to 6896
  150.8933  133.7154  159.2925 H   0  0  0  0  0  0  0  0  0  0  0  0  # atno 6909 bound_to 6896
  144.7398  140.3426  143.6131 H   0  0  0  0  0  0  0  0  0  0  0  0  # atno 7974 bound_to 7965
  155.2894  140.3378  155.4253 H   0  0  0  0  0  0  0  0  0  0  0  0  # atno 8008 bound_to 7997
  156.2053  140.1748  156.7853 H   0  0  0  0  0  0  0  0  0  0  0  0  # atno 8009 bound_to 7997
  154.5612  140.0687  156.8806 H   0  0  0  0  0  0  0  0  0  0  0  0  # atno 8010 bound_to 7997
  140.4462  143.2498  151.8554 H   0  0  0  0  0  0  0  0  0  0  0  0  # atno 10167 bound_to 10162
  157.0357  131.0272  151.2730 H   0  0  0  0  0  0  0  0  0  0  0  0  # atno 10718 bound_to 10713
  154.0707  135.2867  155.3308 H   0  0  0  0  0  0  0  0  0  0  0  0  # atno 10763 bound_to 10752
  154.6748  135.5286  153.8189 H   0  0  0  0  0  0  0  0  0  0  0  0  # atno 10764 bound_to 10752
  153.0486  135.6567  154.0889 H   0  0  0  0  0  0  0  0  0  0  0  0  # atno 10765 bound_to 10752
  139.9009  134.9583  156.7041 H   0  0  0  0  0  0  0  0  0  0  0  0  # atno 11005 bound_to 11000
  145.7358  139.1749  143.2404 LP  0  0  0  0  0  0  0  0  0  0  0  0  # atno 17320 bound_to 7965
  146.1172  140.7355  142.9475 LP  0  0  0  0  0  0  0  0  0  0  0  0  # atno 17321 bound_to 7965
  139.4793  144.5172  151.8851 LP  0  0  0  0  0  0  0  0  0  0  0  0  # atno 17342 bound_to 10162
  140.4260  144.2179  150.5887 LP  0  0  0  0  0  0  0  0  0  0  0  0  # atno 17343 bound_to 10162
  157.5143  130.7958  149.7739 LP  0  0  0  0  0  0  0  0  0  0  0  0  # atno 17370 bound_to 10713
  156.0055  130.3858  150.2449 LP  0  0  0  0  0  0  0  0  0  0  0  0  # atno 17371 bound_to 10713
  140.7127  133.9209  155.8095 LP  0  0  0  0  0  0  0  0  0  0  0  0  # atno 17394 bound_to 11000
  141.0288  134.0785  157.4038 LP  0  0  0  0  0  0  0  0  0  0  0  0  # atno 17395 bound_to 11000

$$$$
