AV-unprocessed.smi:292|AV-procd|sdf|2250|dock7
  -GOLD-   2262022133D 1   1.00000     0.00000
 Structure written by MMmdl.
 33 34  0  0  0  0  0  0  0  0  1 V2000
  145.5101  141.3745  159.3710 N   0  0  0  0  0  0  0  0  0  0  0  0
  145.9180  141.4473  158.2904 C   0  0  0  0  0  0  0  0  0  0  0  0
  146.4304  141.5386  156.9336 C   0  0  0  0  0  0  0  0  0  0  0  0
  145.5983  141.7297  155.8689 N   0  0  0  0  0  0  0  0  0  0  0  0
  146.5047  141.7436  154.8994 C   0  0  0  0  0  0  0  0  0  0  0  0
  147.7610  141.5768  155.3270 N   0  0  0  0  0  0  0  0  0  0  0  0
  149.0102  141.5212  154.5876 C   0  0  0  0  0  0  0  0  0  0  0  0
  150.2092  141.4111  155.5313 C   0  0  0  0  0  0  0  0  0  0  0  0
  151.0339  140.5109  155.3758 O   0  0  0  0  0  0  0  0  0  0  0  0
  150.2931  142.3343  156.5025 N   0  0  0  0  0  0  0  0  0  0  0  0
  151.3183  142.3953  157.5442 C   0  0  1  0  0  0  0  0  0  0  0  0
  151.1637  143.6923  158.3686 C   0  0  0  0  0  0  0  0  0  0  0  0
  152.4485  144.1287  159.0908 C   0  0  0  0  0  0  0  0  0  0  0  0
  152.9611  143.1413  160.1501 C   0  0  0  0  0  0  0  0  0  0  0  0
  153.4164  141.7912  159.5693 C   0  0  0  0  0  0  0  0  0  0  0  0
  152.2995  140.9022  159.2737 N   0  0  0  0  0  0  0  0  0  0  0  0
  151.3149  141.1046  158.3851 C   0  0  0  0  0  0  0  0  0  0  0  0
  150.4176  140.2732  158.2471 O   0  0  0  0  0  0  0  0  0  0  0  0
  147.7329  141.4412  156.6754 N   0  0  0  0  0  0  0  0  0  0  0  0
  146.2489  141.8706  153.8577 H   0  0  0  0  0  0  0  0  0  0  0  0
  148.9795  140.6615  153.9169 H   0  0  0  0  0  0  0  0  0  0  0  0
  149.1102  142.4129  153.9667 H   0  0  0  0  0  0  0  0  0  0  0  0
  149.5655  143.0336  156.5511 H   0  0  0  0  0  0  0  0  0  0  0  0
  152.2839  142.4232  157.0355 H   0  0  0  0  0  0  0  0  0  0  0  0
  150.8704  144.5105  157.7093 H   0  0  0  0  0  0  0  0  0  0  0  0
  150.3481  143.5864  159.0854 H   0  0  0  0  0  0  0  0  0  0  0  0
  153.2328  144.3135  158.3556 H   0  0  0  0  0  0  0  0  0  0  0  0
  152.2637  145.0893  159.5731 H   0  0  0  0  0  0  0  0  0  0  0  0
  153.8128  143.6011  160.6523 H   0  0  0  0  0  0  0  0  0  0  0  0
  152.2070  142.9877  160.9233 H   0  0  0  0  0  0  0  0  0  0  0  0
  154.0365  141.9318  158.6829 H   0  0  0  0  0  0  0  0  0  0  0  0
  154.0428  141.2809  160.3015 H   0  0  0  0  0  0  0  0  0  0  0  0
  152.2639  140.0441  159.8049 H   0  0  0  0  0  0  0  0  0  0  0  0
  1  2  3  0  0  0  0
  2  3  1  0  0  0  0
  3 19  2  0  0  0  0
  3  4  1  0  0  0  0
  4  5  2  0  0  0  0
  5  6  1  0  0  0  0
  5 20  1  0  0  0  0
  6  7  1  0  0  0  0
  6 19  1  0  0  0  0
  7  8  1  0  0  0  0
  7 21  1  0  0  0  0
  7 22  1  0  0  0  0
  8  9  2  0  0  0  0
  8 10  1  0  0  0  0
 10 11  1  0  0  0  0
 10 23  1  0  0  0  0
 11 17  1  0  0  0  0
 11 12  1  0  0  0  0
 11 24  1  0  0  0  0
 12 13  1  0  0  0  0
 12 25  1  0  0  0  0
 12 26  1  0  0  0  0
 13 14  1  0  0  0  0
 13 27  1  0  0  0  0
 13 28  1  0  0  0  0
 14 15  1  0  0  0  0
 14 29  1  0  0  0  0
 14 30  1  0  0  0  0
 15 16  1  0  0  0  0
 15 31  1  0  0  0  0
 15 32  1  0  0  0  0
 16 17  1  0  0  0  0
 16 33  1  0  0  0  0
 17 18  2  0  0  0  0
M  END
> <s_m_source_file>
AV-unprocessed.smi

> <i_m_source_file_index>
292

> <i_lp_mmshare_version>
43012

> <i_f3d_flags>
0

> <s_epik_input>
TiNDYzFuW2NIXW4objEpW0NIMl1DKD1PKVtOSF1bQ0BASF0yW0NIMl1bQ0gyXVtDSDJdW0NIMl1bTkhdQzI9Tw==

> <s_epik_cmdline>
J2VwaWtfcHl0aG9uJywgJy1waCcsICc3LjAnLCAnLXRuJywgJzgnLCAnLW1hJywgJzIwMCcsICctbWV0YWxfYmluZGluZycsICctaW1hZScsICc8aW5maWxlLm1hZT4nLCAnLW9tYWUnLCAnPG91dGZpbGUubWFlPic=

> <r_lp_tautomer_probability>
1

> <r_epik_Ionization_Penalty>
1.99744e-07

> <r_epik_Ionization_Penalty_Charging>
0

> <r_epik_Ionization_Penalty_Neutral>
1.99744e-07

> <r_epik_State_Penalty>
-0

> <r_epik_Charging_Adjusted_Penalty>
0

> <i_epik_Tot_Q>
0

> <i_epik_Tot_abs_Q>
0

> <r_epik_Metal_State_Penalty>
-0

> <b_epik_Metal_Only>
0

> <s_lp_Force_Field>
OPLS_2005

> <r_lp_Energy>
14.2569

> <b_lp_Chiralities_Consistent>
1

> <s_lp_Variant>
AV-unprocessed.smi:292-2

> <Gold.Version>
5.8.1

> <Gold.Id.Protein>
6NUR|6NUR_protein|mol2

> <Gold.PLP.Fitness>
42.7225

> <Gold.PLP.PLP>
-34.2570

> <Gold.PLP.part.hbond>
-3.0000

> <Gold.PLP.part.metal>
0.0000

> <Gold.PLP.part.buried>
-5.2517

> <Gold.PLP.part.nonpolar>
-27.0122

> <Gold.PLP.part.repulsive>
0.4407

> <Gold.PLP.ligand.clash>
0.0000

> <Gold.PLP.ligand.torsion>
0.0896

> <Gold.PLP.Chemscore.Hbond>
2.8720

> <Gold.PLP.Chemscore.CHOScore>
0.0000

> <Gold.PLP.Chemscore.Metal>
0.0000

> <Gold.Chemscore.Hbonds>
donor molecule, donor type, donor heavy atom, donor atom, acceptor molecule, acceptor atom, score
      L1  H    10    23       P1  8028  0.86
      P1  H  6934  6946       L1     1  0.90
      P1  H  7989  7998       L1     9  0.94

> <Gold.PLP.Chemscore.Internal.Correction>
0.0286

> <Gold.Rescore>
     Score         DG    S(hbond)    S(metal)    S(lipo)     H(rot)  DE(clash)    DE(int)     intcor
      9.32     -14.84       2.16        0.00      65.31       2.14       0.06       5.46       ----

> <Gold.Chemscore.Fitness>
9.3215

> <Gold.Chemscore.DG>
-14.8412

> <Gold.Chemscore.ZeroCoef>
-5.4800

> <Gold.Chemscore.Hbond>
2.1587

> <Gold.Chemscore.Metal>
0.0000

> <Gold.Chemscore.Lipo>
65.3057

> <Gold.Chemscore.Internal_Hbond>
0.0000

> <Gold.Chemscore.DEClash>
0.0634

> <Gold.Chemscore.DEInternal>
5.4562

> <Gold.Chemscore.Rot>
2.1444

> <Gold.Chemscore.Internal.Correction>
   9.000000E+99

> <Gold.Chemscore.Hbonds>
donor molecule, donor type, donor heavy atom, donor atom, acceptor molecule, acceptor atom, score
      L1  H    10    23       P1  8028  0.79
      P1  H  6934  6946       L1     1  0.73
      P1  H  7989  7998       L1     9  0.26

> <Gold.Chemscore.Hbond.Weighted>
-7.2100

> <Gold.Chemscore.Metal.Weighted>
-0.0000

> <Gold.Chemscore.Lipo.Weighted>
-7.6408

> <Gold.Chemscore.Internal_Hbond.Weighted>
0.0000

> <Gold.Chemscore.DEClash.Weighted>
0.0634

> <Gold.Chemscore.DEInternal.Weighted>
5.4562

> <Gold.Chemscore.Rot.Weighted>
5.4896

> <Gold.Chemscore.Internal.Correction.Weighted>
   9.000000E+99

> <Gold.Protein.RotatedTorsions>
[ 6907 6896 6895 6894 ] final  -36.65 input  -60.11 | X-H torsion
[ 7974 7965 7964 7962 ] final -121.77 input  175.53 | X-H torsion
[ 8008 7997 7996 7995 ] final  171.31 input   59.86 | X-H torsion
[ 10167 10162 10161 10158 ] final    0.52 input  -65.29 | X-H torsion
[ 10718 10713 10712 10709 ] final -173.35 input   66.30 | X-H torsion
[ 10763 10752 10751 10750 ] final -107.61 input  -60.55 | X-H torsion
[ 11005 11000 10999 10996 ] final  145.41 input  -57.11 | X-H torsion

> <Gold.Protein.ActiveResidues>
 VAL166  LYS551  ARG553  GLY616  TRP617  ASP618  TYR619  PRO620  LYS621  CYS622 
 ASP623  PHE694  ASN695  SER759  ASP760  ASP761  ALA762  ILE779  LEU786  VAL792 
 PHE793  MET794  SER795  GLU796  ALA797  LYS798  CYS799  TRP800  GLU811  SER814 

> <Gold.Protein.RotatedAtoms>
  151.0245  134.9494  159.8077 H   0  0  0  0  0  0  0  0  0  0  0  0  # atno 6907 bound_to 6896
  152.5332  134.2860  159.9035 H   0  0  0  0  0  0  0  0  0  0  0  0  # atno 6908 bound_to 6896
  151.2868  133.4142  159.2664 H   0  0  0  0  0  0  0  0  0  0  0  0  # atno 6909 bound_to 6896
  145.0367  140.8111  143.4291 H   0  0  0  0  0  0  0  0  0  0  0  0  # atno 7974 bound_to 7965
  156.1283  140.1515  156.9103 H   0  0  0  0  0  0  0  0  0  0  0  0  # atno 8008 bound_to 7997
  154.4889  140.0857  156.7590 H   0  0  0  0  0  0  0  0  0  0  0  0  # atno 8009 bound_to 7997
  155.4302  140.3427  155.4281 H   0  0  0  0  0  0  0  0  0  0  0  0  # atno 8010 bound_to 7997
  140.6725  143.7009  150.7952 H   0  0  0  0  0  0  0  0  0  0  0  0  # atno 10167 bound_to 10162
  156.7691  130.9442  151.3119 H   0  0  0  0  0  0  0  0  0  0  0  0  # atno 10718 bound_to 10713
  154.8086  135.4668  154.0456 H   0  0  0  0  0  0  0  0  0  0  0  0  # atno 10763 bound_to 10752
  153.1905  135.6854  153.8365 H   0  0  0  0  0  0  0  0  0  0  0  0  # atno 10764 bound_to 10752
  153.7884  135.3246  155.3352 H   0  0  0  0  0  0  0  0  0  0  0  0  # atno 10765 bound_to 10752
  140.0710  134.9151  157.1345 H   0  0  0  0  0  0  0  0  0  0  0  0  # atno 11005 bound_to 11000
  145.1700  139.2409  143.5347 LP  0  0  0  0  0  0  0  0  0  0  0  0  # atno 17320 bound_to 7965
  146.3505  140.1449  142.8593 LP  0  0  0  0  0  0  0  0  0  0  0  0  # atno 17321 bound_to 7965
  140.0697  143.5073  152.2586 LP  0  0  0  0  0  0  0  0  0  0  0  0  # atno 17342 bound_to 10162
  139.6000  144.7579  151.3194 LP  0  0  0  0  0  0  0  0  0  0  0  0  # atno 17343 bound_to 10162
  157.6699  130.9042  150.0017 LP  0  0  0  0  0  0  0  0  0  0  0  0  # atno 17370 bound_to 10713
  156.1289  130.3644  149.9763 LP  0  0  0  0  0  0  0  0  0  0  0  0  # atno 17371 bound_to 10713
  140.3627  134.2476  155.7185 LP  0  0  0  0  0  0  0  0  0  0  0  0  # atno 17394 bound_to 11000
  141.2012  133.7969  157.0453 LP  0  0  0  0  0  0  0  0  0  0  0  0  # atno 17395 bound_to 11000

$$$$
