AV-unprocessed.smi:1718|AV-procd|sdf|6925|dock1
  -GOLD-   22720 8133D 1   1.00000     0.00000
 Structure written by MMmdl.
 40 41  0  0  0  0  0  0  0  0  1 V2000
  149.1274  135.2778  155.3884 C   0  0  0  0  0  0  0  0  0  0  0  0
  148.2968  136.5677  155.4498 C   0  0  1  0  0  0  0  0  0  0  0  0
  149.0860  137.6127  154.8873 O   0  0  0  0  0  0  0  0  0  0  0  0
  148.4561  138.8875  154.8216 C   0  0  0  0  0  0  0  0  0  0  0  0
  149.2731  139.8858  155.6498 C   0  0  1  0  0  0  0  0  0  0  0  0
  149.4003  139.5118  157.1273 C   0  0  0  0  0  0  0  0  0  0  0  0
  150.7082  140.1709  157.5001 C   0  0  0  0  0  0  0  0  0  0  0  0
  151.5366  139.9343  156.2421 C   0  0  0  0  0  0  0  0  0  0  0  0
  150.6103  139.9596  155.1593 O   0  0  0  0  0  0  0  0  0  0  0  0
  146.9804  136.4182  154.6706 C   0  0  0  0  0  0  0  0  0  0  0  0
  145.9086  136.5383  155.2644 O   0  0  0  0  0  0  0  0  0  0  0  0
  147.1118  136.1563  153.3553 N   0  0  0  0  0  0  0  0  0  0  0  0
  146.1159  135.8914  152.4011 C   0  0  0  0  0  0  0  0  0  0  0  0
  146.0953  134.8026  151.5892 C   0  0  0  0  0  0  0  0  0  0  0  0
  145.0474  134.5937  150.6058 C   0  0  0  0  0  0  0  0  0  0  0  0
  145.0393  133.3525  149.7282 C   0  0  0  0  0  0  0  0  0  0  0  0
  144.0011  133.3430  148.8908 F   0  0  0  0  0  0  0  0  0  0  0  0
  146.1591  133.2952  149.0082 F   0  0  0  0  0  0  0  0  0  0  0  0
  144.9799  132.2560  150.4831 F   0  0  0  0  0  0  0  0  0  0  0  0
  144.0947  135.5420  150.5308 C   0  0  0  0  0  0  0  0  0  0  0  0
  144.1164  136.6715  151.3527 N   0  0  0  0  0  0  0  0  0  0  0  0
  145.0660  136.9167  152.2836 C   0  0  0  0  0  0  0  0  0  0  0  0
  145.0179  137.9396  152.9661 O   0  0  0  0  0  0  0  0  0  0  0  0
  143.3699  137.3410  151.2318 H   0  0  0  0  0  0  0  0  0  0  0  0
  148.5738  134.4301  155.7937 H   0  0  0  0  0  0  0  0  0  0  0  0
  150.0430  135.3809  155.9710 H   0  0  0  0  0  0  0  0  0  0  0  0
  149.4148  135.0332  154.3649 H   0  0  0  0  0  0  0  0  0  0  0  0
  148.0898  136.7957  156.4974 H   0  0  0  0  0  0  0  0  0  0  0  0
  148.3713  139.2445  153.7945 H   0  0  0  0  0  0  0  0  0  0  0  0
  147.4452  138.8148  155.2249 H   0  0  0  0  0  0  0  0  0  0  0  0
  148.8411  140.8840  155.5641 H   0  0  0  0  0  0  0  0  0  0  0  0
  148.5587  139.8591  157.7272 H   0  0  0  0  0  0  0  0  0  0  0  0
  149.4817  138.4303  157.2473 H   0  0  0  0  0  0  0  0  0  0  0  0
  150.5586  141.2397  157.6587 H   0  0  0  0  0  0  0  0  0  0  0  0
  151.1626  139.7498  158.3974 H   0  0  0  0  0  0  0  0  0  0  0  0
  152.3235  140.6777  156.1137 H   0  0  0  0  0  0  0  0  0  0  0  0
  152.0034  138.9491  156.2755 H   0  0  0  0  0  0  0  0  0  0  0  0
  148.0525  136.1759  152.9877 H   0  0  0  0  0  0  0  0  0  0  0  0
  146.8763  134.0607  151.6322 H   0  0  0  0  0  0  0  0  0  0  0  0
  143.2560  135.5144  149.8510 H   0  0  0  0  0  0  0  0  0  0  0  0
  1  2  1  0  0  0  0
  1 25  1  0  0  0  0
  1 26  1  0  0  0  0
  1 27  1  0  0  0  0
  2  3  1  0  0  0  0
  2 10  1  0  0  0  0
  2 28  1  0  0  0  0
  3  4  1  0  0  0  0
  4  5  1  0  0  0  0
  4 29  1  0  0  0  0
  4 30  1  0  0  0  0
  5  9  1  0  0  0  0
  5  6  1  0  0  0  0
  5 31  1  0  0  0  0
  6  7  1  0  0  0  0
  6 32  1  0  0  0  0
  6 33  1  0  0  0  0
  7  8  1  0  0  0  0
  7 34  1  0  0  0  0
  7 35  1  0  0  0  0
  8  9  1  0  0  0  0
  8 36  1  0  0  0  0
  8 37  1  0  0  0  0
 10 11  2  0  0  0  0
 10 12  1  0  0  0  0
 12 13  1  0  0  0  0
 12 38  1  0  0  0  0
 13 22  1  0  0  0  0
 13 14  2  0  0  0  0
 14 15  1  0  0  0  0
 14 39  1  0  0  0  0
 15 16  1  0  0  0  0
 15 20  2  0  0  0  0
 16 17  1  0  0  0  0
 16 18  1  0  0  0  0
 16 19  1  0  0  0  0
 20 21  1  0  0  0  0
 20 40  1  0  0  0  0
 21 24  1  0  0  0  0
 21 22  1  0  0  0  0
 22 23  2  0  0  0  0
M  END
> <s_m_source_file>
AV-unprocessed.smi

> <i_m_source_file_index>
1718

> <i_lp_mmshare_version>
43012

> <i_f3d_flags>
0

> <s_epik_input>
TzFbQ0gyXVtDSDJdW0NIMl1bQ0BIXTFbQ0gyXU9bQ0BASF0oW0NIM10pQyg9TylbTkhdYzJbY0hdYyhDKEYpKEYpRilbY0hdW25IXWMyPU8=

> <s_epik_cmdline>
J2VwaWtfcHl0aG9uJywgJy1waCcsICc3LjAnLCAnLXRuJywgJzgnLCAnLW1hJywgJzIwMCcsICctbWV0YWxfYmluZGluZycsICctaW1hZScsICc8aW5maWxlLm1hZT4nLCAnLW9tYWUnLCAnPG91dGZpbGUubWFlPic=

> <r_lp_tautomer_probability>
0.999

> <r_epik_Ionization_Penalty>
0.00894336

> <r_epik_Ionization_Penalty_Charging>
0.00894326

> <r_epik_Ionization_Penalty_Neutral>
1.00145e-07

> <r_epik_State_Penalty>
0.00676626

> <r_epik_Charging_Adjusted_Penalty>
0.0157095

> <i_epik_Tot_Q>
0

> <i_epik_Tot_abs_Q>
0

> <r_epik_Metal_State_Penalty>
0.321145

> <b_epik_Metal_Only>
0

> <s_lp_Force_Field>
OPLS_2005

> <r_lp_Energy>
34.4612

> <b_lp_Chiralities_Consistent>
1

> <s_lp_Variant>
AV-unprocessed.smi:1718-4

> <Gold.Version>
5.8.1

> <Gold.Id.Protein>
6NUR|6NUR_protein|mol2

> <Gold.PLP.Fitness>
43.4157

> <Gold.PLP.PLP>
-34.9950

> <Gold.PLP.part.hbond>
-2.6822

> <Gold.PLP.part.metal>
0.0000

> <Gold.PLP.part.buried>
-5.3693

> <Gold.PLP.part.nonpolar>
-28.9045

> <Gold.PLP.part.repulsive>
1.0014

> <Gold.PLP.ligand.clash>
0.1882

> <Gold.PLP.ligand.torsion>
0.8821

> <Gold.PLP.Chemscore.Hbond>
2.3440

> <Gold.PLP.Chemscore.CHOScore>
1.0000

> <Gold.PLP.Chemscore.Metal>
0.0000

> <Gold.Chemscore.Hbonds>
donor molecule, donor type, donor heavy atom, donor atom, acceptor molecule, acceptor atom, score
      L1  H    12    38       P1  7948  0.78
      L1  H    21    24       P1 10171  0.19
      P1  H  7989  7998       L1     9  0.70
      L1  C    20    40       P1 10186  0.84

> <Gold.PLP.Chemscore.Internal.Correction>
0.3411

> <Gold.Rescore>
     Score         DG    S(hbond)    S(metal)    S(lipo)     H(rot)  DE(clash)    DE(int)     intcor
     12.63     -15.32       2.54        0.00      52.59       1.88       1.28       1.40       ----

> <Gold.Chemscore.Fitness>
12.6343

> <Gold.Chemscore.DG>
-15.3208

> <Gold.Chemscore.ZeroCoef>
-5.4800

> <Gold.Chemscore.Hbond>
2.5444

> <Gold.Chemscore.Metal>
0.0000

> <Gold.Chemscore.Lipo>
52.5877

> <Gold.Chemscore.Internal_Hbond>
0.0000

> <Gold.Chemscore.DEClash>
1.2835

> <Gold.Chemscore.DEInternal>
1.4031

> <Gold.Chemscore.Rot>
1.8790

> <Gold.Chemscore.Internal.Correction>
   9.000000E+99

> <Gold.Chemscore.Hbonds>
donor molecule, donor type, donor heavy atom, donor atom, acceptor molecule, acceptor atom, score
      L1  H    12    38       P1  7948  0.72
      L1  H    21    24       P1 10171  0.19
      P1  H  7989  7998       L1     9  0.41

> <Gold.Chemscore.Hbond.Weighted>
-8.4982

> <Gold.Chemscore.Metal.Weighted>
-0.0000

> <Gold.Chemscore.Lipo.Weighted>
-6.1528

> <Gold.Chemscore.Internal_Hbond.Weighted>
0.0000

> <Gold.Chemscore.DEClash.Weighted>
1.2835

> <Gold.Chemscore.DEInternal.Weighted>
1.4031

> <Gold.Chemscore.Rot.Weighted>
4.8102

> <Gold.Chemscore.Internal.Correction.Weighted>
   9.000000E+99

> <Gold.Protein.RotatedTorsions>
[ 6907 6896 6895 6894 ] final   48.27 input  -60.11 | X-H torsion
[ 7974 7965 7964 7962 ] final  -85.73 input  175.53 | X-H torsion
[ 8008 7997 7996 7995 ] final  169.65 input   59.86 | X-H torsion
[ 10167 10162 10161 10158 ] final  -68.48 input  -65.29 | X-H torsion
[ 10718 10713 10712 10709 ] final   38.64 input   66.30 | X-H torsion
[ 10763 10752 10751 10750 ] final  178.63 input  -60.55 | X-H torsion
[ 11005 11000 10999 10996 ] final  -55.88 input  -57.11 | X-H torsion

> <Gold.Protein.ActiveResidues>
 VAL166  LYS551  ARG553  GLY616  TRP617  ASP618  TYR619  PRO620  LYS621  CYS622 
 ASP623  PHE694  ASN695  SER759  ASP760  ASP761  ALA762  ILE779  LEU786  VAL792 
 PHE793  MET794  SER795  GLU796  ALA797  LYS798  CYS799  TRP800  GLU811  SER814 

> <Gold.Protein.RotatedAtoms>
  152.2776  134.7864  160.0402 H   0  0  0  0  0  0  0  0  0  0  0  0  # atno 6907 bound_to 6896
  151.8454  133.3425  159.3664 H   0  0  0  0  0  0  0  0  0  0  0  0  # atno 6908 bound_to 6896
  150.7177  134.5279  159.5730 H   0  0  0  0  0  0  0  0  0  0  0  0  # atno 6909 bound_to 6896
  145.4894  140.9553  143.1820 H   0  0  0  0  0  0  0  0  0  0  0  0  # atno 7974 bound_to 7965
  156.1438  140.1558  156.8879 H   0  0  0  0  0  0  0  0  0  0  0  0  # atno 8008 bound_to 7997
  154.5010  140.0825  156.7836 H   0  0  0  0  0  0  0  0  0  0  0  0  # atno 8009 bound_to 7997
  155.4028  140.3415  155.4260 H   0  0  0  0  0  0  0  0  0  0  0  0  # atno 8010 bound_to 7997
  140.5504  143.2312  151.6922 H   0  0  0  0  0  0  0  0  0  0  0  0  # atno 10167 bound_to 10162
  157.3612  130.7651  149.7049 H   0  0  0  0  0  0  0  0  0  0  0  0  # atno 10718 bound_to 10713
  154.5102  135.2788  155.1349 H   0  0  0  0  0  0  0  0  0  0  0  0  # atno 10763 bound_to 10752
  154.2947  135.6260  153.5403 H   0  0  0  0  0  0  0  0  0  0  0  0  # atno 10764 bound_to 10752
  152.9917  135.5682  154.5566 H   0  0  0  0  0  0  0  0  0  0  0  0  # atno 10765 bound_to 10752
  141.1094  133.6611  156.4535 H   0  0  0  0  0  0  0  0  0  0  0  0  # atno 11005 bound_to 11000
  144.7843  139.6460  143.7141 LP  0  0  0  0  0  0  0  0  0  0  0  0  # atno 17320 bound_to 7965
  146.2293  139.5783  142.9566 LP  0  0  0  0  0  0  0  0  0  0  0  0  # atno 17321 bound_to 7965
  139.5025  144.3827  152.0359 LP  0  0  0  0  0  0  0  0  0  0  0  0  # atno 17342 bound_to 10162
  140.2944  144.3718  150.6079 LP  0  0  0  0  0  0  0  0  0  0  0  0  # atno 17343 bound_to 10162
  155.9738  130.4113  150.3975 LP  0  0  0  0  0  0  0  0  0  0  0  0  # atno 17370 bound_to 10713
  157.2052  131.0447  151.2629 LP  0  0  0  0  0  0  0  0  0  0  0  0  # atno 17371 bound_to 10713
  140.4815  134.6660  157.5173 LP  0  0  0  0  0  0  0  0  0  0  0  0  # atno 17394 bound_to 11000
  139.9980  134.6880  155.9577 LP  0  0  0  0  0  0  0  0  0  0  0  0  # atno 17395 bound_to 11000

$$$$
