AV-unprocessed.smi:40|AV-procd|sdf|373|dock3
  -GOLD-   2262016223D 1   1.00000     0.00000
 Structure written by MMmdl.
 47 48  0  0  0  0  0  0  0  0  1 V2000
  151.9183  144.3984  159.8407 C   0  0  0  0  0  0  0  0  0  0  0  0
  152.5289  143.2777  160.6926 C   0  0  0  0  0  0  0  0  0  0  0  0
  152.9907  142.0590  159.8769 C   0  0  0  0  0  0  0  0  0  0  0  0
  153.5721  140.9227  160.7372 C   0  0  0  0  0  0  0  0  0  0  0  0
  154.0290  139.7128  159.9109 C   0  0  0  0  0  0  0  0  0  0  0  0
  152.8868  138.9973  159.4695 O   0  0  0  0  0  0  0  0  0  0  0  0
  152.1604  139.4272  158.4208 C   0  0  0  0  0  0  0  0  0  0  0  0
  152.5223  140.3030  157.6356 O   0  0  0  0  0  0  0  0  0  0  0  0
  150.8839  138.7430  158.3680 N   0  0  0  0  0  0  0  0  0  0  0  0
  149.9124  138.9301  157.4477 C   0  0  0  0  0  0  0  0  0  0  0  0
  148.6775  139.0745  157.8893 N   0  0  0  0  0  0  0  0  0  0  0  0
  147.5944  139.2515  157.0708 C   0  0  0  0  0  0  0  0  0  0  0  0
  146.4616  139.3429  157.5412 O   0  0  0  0  0  0  0  0  0  0  0  0
  147.8270  139.3186  155.6752 N   0  0  0  0  0  0  0  0  0  0  0  0
  146.6241  139.4786  154.7599 C   0  0  2  0  0  0  0  0  0  0  0  0
  145.9606  138.2581  154.6222 O   0  0  0  0  0  0  0  0  0  0  0  0
  146.4256  137.5963  153.4543 C   0  0  1  0  0  0  0  0  0  0  0  0
  145.4124  136.5346  153.0127 C   0  0  0  0  0  0  0  0  0  0  0  0
  146.6141  138.7391  152.4573 C   0  0  2  0  0  0  0  0  0  0  0  0
  147.6228  138.4088  151.5237 O   0  0  0  0  0  0  0  0  0  0  0  0
  147.0464  139.9132  153.3361 C   0  0  1  0  0  0  0  0  0  0  0  0
  146.3780  141.0917  152.9337 O   0  0  0  0  0  0  0  0  0  0  0  0
  149.1212  139.1590  155.1942 C   0  0  0  0  0  0  0  0  0  0  0  0
  150.1737  138.9773  156.0201 C   0  0  0  0  0  0  0  0  0  0  0  0
  151.4151  138.8536  155.5186 F   0  0  0  0  0  0  0  0  0  0  0  0
  145.9800  140.1926  155.2772 H   0  0  0  0  0  0  0  0  0  0  0  0
  147.3859  137.1259  153.6712 H   0  0  0  0  0  0  0  0  0  0  0  0
  145.6749  138.9533  151.9443 H   0  0  0  0  0  0  0  0  0  0  0  0
  148.1256  140.0693  153.2928 H   0  0  0  0  0  0  0  0  0  0  0  0
  151.5522  145.2070  160.4735 H   0  0  0  0  0  0  0  0  0  0  0  0
  151.0771  144.0317  159.2521 H   0  0  0  0  0  0  0  0  0  0  0  0
  152.6490  144.8258  159.1545 H   0  0  0  0  0  0  0  0  0  0  0  0
  153.3624  143.6699  161.2766 H   0  0  0  0  0  0  0  0  0  0  0  0
  151.7824  142.9494  161.4163 H   0  0  0  0  0  0  0  0  0  0  0  0
  152.1323  141.6806  159.3204 H   0  0  0  0  0  0  0  0  0  0  0  0
  153.7210  142.3701  159.1290 H   0  0  0  0  0  0  0  0  0  0  0  0
  154.4248  141.2939  161.3050 H   0  0  0  0  0  0  0  0  0  0  0  0
  152.8327  140.5990  161.4706 H   0  0  0  0  0  0  0  0  0  0  0  0
  154.6200  140.0301  159.0512 H   0  0  0  0  0  0  0  0  0  0  0  0
  154.6638  139.0755  160.5283 H   0  0  0  0  0  0  0  0  0  0  0  0
  150.7661  138.0064  159.0481 H   0  0  0  0  0  0  0  0  0  0  0  0
  145.7396  136.0383  152.0988 H   0  0  0  0  0  0  0  0  0  0  0  0
  144.4338  136.9761  152.8228 H   0  0  0  0  0  0  0  0  0  0  0  0
  145.2897  135.7714  153.7813 H   0  0  0  0  0  0  0  0  0  0  0  0
  148.1778  137.7445  151.9024 H   0  0  0  0  0  0  0  0  0  0  0  0
  145.4765  140.8774  152.7483 H   0  0  0  0  0  0  0  0  0  0  0  0
  149.3297  139.1735  154.1357 H   0  0  0  0  0  0  0  0  0  0  0  0
  1  2  1  0  0  0  0
  1 30  1  0  0  0  0
  1 31  1  0  0  0  0
  1 32  1  0  0  0  0
  2  3  1  0  0  0  0
  2 33  1  0  0  0  0
  2 34  1  0  0  0  0
  3  4  1  0  0  0  0
  3 35  1  0  0  0  0
  3 36  1  0  0  0  0
  4  5  1  0  0  0  0
  4 37  1  0  0  0  0
  4 38  1  0  0  0  0
  5  6  1  0  0  0  0
  5 39  1  0  0  0  0
  5 40  1  0  0  0  0
  6  7  1  0  0  0  0
  7  8  2  0  0  0  0
  7  9  1  0  0  0  0
  9 10  1  0  0  0  0
  9 41  1  0  0  0  0
 10 24  1  0  0  0  0
 10 11  2  0  0  0  0
 11 12  1  0  0  0  0
 12 13  2  0  0  0  0
 12 14  1  0  0  0  0
 14 15  1  0  0  0  0
 14 23  1  0  0  0  0
 15 26  1  0  0  0  0
 15 21  1  0  0  0  0
 15 16  1  0  0  0  0
 16 17  1  0  0  0  0
 17 27  1  0  0  0  0
 17 18  1  0  0  0  0
 17 19  1  0  0  0  0
 18 42  1  0  0  0  0
 18 43  1  0  0  0  0
 18 44  1  0  0  0  0
 19 28  1  0  0  0  0
 19 20  1  0  0  0  0
 19 21  1  0  0  0  0
 20 45  1  0  0  0  0
 21 29  1  0  0  0  0
 21 22  1  0  0  0  0
 22 46  1  0  0  0  0
 23 24  2  0  0  0  0
 23 47  1  0  0  0  0
 24 25  1  0  0  0  0
M  END
> <s_m_source_file>
AV-unprocessed.smi

> <i_m_source_file_index>
40

> <i_lp_mmshare_version>
43012

> <i_f3d_flags>
0

> <s_epik_input>
W0NIM11bQ0gyXVtDSDJdW0NIMl1bQ0gyXU9DKD1PKVtOSF1jMW5jKD1PKW4oW2NIXWMxRilbQ0BASF0yT1tDQEhdKFtDSDNdKVtDQEBIXShbT0hdKVtDQEhdMltPSF0=

> <s_epik_cmdline>
J2VwaWtfcHl0aG9uJywgJy1waCcsICc3LjAnLCAnLXRuJywgJzgnLCAnLW1hJywgJzIwMCcsICctbWV0YWxfYmluZGluZycsICctaW1hZScsICc8aW5maWxlLm1hZT4nLCAnLW9tYWUnLCAnPG91dGZpbGUubWFlPic=

> <r_lp_tautomer_probability>
1

> <r_epik_Ionization_Penalty>
2.29506e-06

> <r_epik_Ionization_Penalty_Charging>
8.26867e-09

> <r_epik_Ionization_Penalty_Neutral>
2.2868e-06

> <r_epik_State_Penalty>
-0

> <r_epik_Charging_Adjusted_Penalty>
8.26867e-09

> <i_epik_Tot_Q>
0

> <i_epik_Tot_abs_Q>
0

> <r_epik_Metal_State_Penalty>
-0

> <b_epik_Metal_Only>
0

> <s_epik_Chemistry_Notes>
This compound has an ester and may undergo hydrolysis at high or low pH. This compound contains an acetal/aminal-like group ( X-CH(R)-Y where X, Y are N, S, or O) that may be acid/base labile, releasing an aldehyde.

> <s_lp_Force_Field>
OPLS_2005

> <r_lp_Energy>
31.7957

> <b_lp_Chiralities_Consistent>
1

> <s_lp_Variant>
AV-unprocessed.smi:40-7

> <Gold.Version>
5.8.1

> <Gold.Id.Protein>
6NUR|6NUR_protein|mol2

> <Gold.PLP.Fitness>
43.1546

> <Gold.PLP.PLP>
-34.2466

> <Gold.PLP.part.hbond>
-4.4868

> <Gold.PLP.part.metal>
0.0000

> <Gold.PLP.part.buried>
-4.1800

> <Gold.PLP.part.nonpolar>
-26.7494

> <Gold.PLP.part.repulsive>
0.1782

> <Gold.PLP.ligand.clash>
0.0000

> <Gold.PLP.ligand.torsion>
1.1879

> <Gold.PLP.Chemscore.Hbond>
3.7200

> <Gold.PLP.Chemscore.CHOScore>
0.0000

> <Gold.PLP.Chemscore.Metal>
0.0000

> <Gold.Chemscore.Hbonds>
donor molecule, donor type, donor heavy atom, donor atom, acceptor molecule, acceptor atom, score
      L1  H    20    45       P1  7948  1.00
      L1  H    22    46       P1 10175  1.00
      P1  H  7954  7966       L1    20  0.40
      P1  H  7997  8010       L1     8  0.80

> <Gold.PLP.Chemscore.Internal.Correction>
0.1239

> <Gold.Rescore>
     Score         DG    S(hbond)    S(metal)    S(lipo)     H(rot)  DE(clash)    DE(int)     intcor
     10.92     -14.40       2.71        0.00      79.79       3.70       0.05       3.43       ----

> <Gold.Chemscore.Fitness>
10.9242

> <Gold.Chemscore.DG>
-14.4007

> <Gold.Chemscore.ZeroCoef>
-5.4800

> <Gold.Chemscore.Hbond>
2.7085

> <Gold.Chemscore.Metal>
0.0000

> <Gold.Chemscore.Lipo>
79.7897

> <Gold.Chemscore.Internal_Hbond>
0.0000

> <Gold.Chemscore.DEClash>
0.0515

> <Gold.Chemscore.DEInternal>
3.4250

> <Gold.Chemscore.Rot>
3.6957

> <Gold.Chemscore.Internal.Correction>
   9.000000E+99

> <Gold.Chemscore.Hbonds>
donor molecule, donor type, donor heavy atom, donor atom, acceptor molecule, acceptor atom, score
      L1  H    20    45       P1  7948  0.95
      L1  H    22    46       P1 10175  0.26
      P1  H  7954  7966       L1    20  0.01
      P1  H  7997  8010       L1     8  0.73

> <Gold.Chemscore.Hbond.Weighted>
-9.0463

> <Gold.Chemscore.Metal.Weighted>
-0.0000

> <Gold.Chemscore.Lipo.Weighted>
-9.3354

> <Gold.Chemscore.Internal_Hbond.Weighted>
0.0000

> <Gold.Chemscore.DEClash.Weighted>
0.0515

> <Gold.Chemscore.DEInternal.Weighted>
3.4250

> <Gold.Chemscore.Rot.Weighted>
9.4610

> <Gold.Chemscore.Internal.Correction.Weighted>
   9.000000E+99

> <Gold.Protein.RotatedTorsions>
[ 6907 6896 6895 6894 ] final  -36.77 input  -60.11 | X-H torsion
[ 7974 7965 7964 7962 ] final -177.19 input  175.53 | X-H torsion
[ 8008 7997 7996 7995 ] final   54.81 input   59.86 | X-H torsion
[ 10167 10162 10161 10158 ] final -127.49 input  -65.29 | X-H torsion
[ 10718 10713 10712 10709 ] final   16.03 input   66.30 | X-H torsion
[ 10763 10752 10751 10750 ] final  136.54 input  -60.55 | X-H torsion
[ 11005 11000 10999 10996 ] final   25.71 input  -57.11 | X-H torsion

> <Gold.Protein.ActiveResidues>
 VAL166  LYS551  ARG553  GLY616  TRP617  ASP618  TYR619  PRO620  LYS621  CYS622 
 ASP623  PHE694  ASN695  SER759  ASP760  ASP761  ALA762  ILE779  LEU786  VAL792 
 PHE793  MET794  SER795  GLU796  ALA797  LYS798  CYS799  TRP800  GLU811  SER814 

> <Gold.Protein.RotatedAtoms>
  151.0230  134.9483  159.8069 H   0  0  0  0  0  0  0  0  0  0  0  0  # atno 6907 bound_to 6896
  152.5329  134.2879  159.9042 H   0  0  0  0  0  0  0  0  0  0  0  0  # atno 6908 bound_to 6896
  151.2887  133.4133  159.2666 H   0  0  0  0  0  0  0  0  0  0  0  0  # atno 6909 bound_to 6896
  144.7127  140.1056  143.6414 H   0  0  0  0  0  0  0  0  0  0  0  0  # atno 7974 bound_to 7965
  155.4907  140.3471  155.4354 H   0  0  0  0  0  0  0  0  0  0  0  0  # atno 8008 bound_to 7997
  156.0978  140.1427  156.9535 H   0  0  0  0  0  0  0  0  0  0  0  0  # atno 8009 bound_to 7997
  154.4675  140.0912  156.7035 H   0  0  0  0  0  0  0  0  0  0  0  0  # atno 8010 bound_to 7997
  139.9603  143.5957  152.2447 H   0  0  0  0  0  0  0  0  0  0  0  0  # atno 10167 bound_to 10162
  157.0620  130.6312  149.5788 H   0  0  0  0  0  0  0  0  0  0  0  0  # atno 10718 bound_to 10713
  153.8582  135.3070  155.3436 H   0  0  0  0  0  0  0  0  0  0  0  0  # atno 10763 bound_to 10752
  154.7861  135.4809  153.9951 H   0  0  0  0  0  0  0  0  0  0  0  0  # atno 10764 bound_to 10752
  153.1477  135.6837  153.9023 H   0  0  0  0  0  0  0  0  0  0  0  0  # atno 10765 bound_to 10752
  140.3449  134.2292  155.7686 H   0  0  0  0  0  0  0  0  0  0  0  0  # atno 11005 bound_to 11000
  145.9500  139.2727  143.1218 LP  0  0  0  0  0  0  0  0  0  0  0  0  # atno 17320 bound_to 7965
  145.9333  140.9032  143.0345 LP  0  0  0  0  0  0  0  0  0  0  0  0  # atno 17321 bound_to 7965
  139.6559  144.7662  151.2057 LP  0  0  0  0  0  0  0  0  0  0  0  0  # atno 17342 bound_to 10162
  140.7555  143.6087  150.8627 LP  0  0  0  0  0  0  0  0  0  0  0  0  # atno 17343 bound_to 10162
  155.9976  130.5047  150.7539 LP  0  0  0  0  0  0  0  0  0  0  0  0  # atno 17370 bound_to 10713
  157.4947  131.0914  151.0385 LP  0  0  0  0  0  0  0  0  0  0  0  0  # atno 17371 bound_to 10713
  141.2028  133.7928  157.0371 LP  0  0  0  0  0  0  0  0  0  0  0  0  # atno 17394 bound_to 11000
  140.0750  134.9681  157.1531 LP  0  0  0  0  0  0  0  0  0  0  0  0  # atno 17395 bound_to 11000

$$$$
