AV-unprocessed.smi:281|AV-procd|sdf|2113|dock5
  -GOLD-   2262021413D 1   1.00000     0.00000
 Structure written by MMmdl.
 55 59  0  0  0  0  0  0  0  0  1 V2000
  153.0195  138.6600  154.5449 C   0  0  0  0  0  0  0  0  0  0  0  0
  151.7362  138.7862  155.3714 C   0  0  2  0  0  0  0  0  0  0  0  0
  151.0079  137.4413  155.5197 C   0  0  0  0  0  0  0  0  0  0  0  0
  149.7550  137.6464  156.2348 N   0  0  0  0  0  0  0  0  0  0  0  0
  149.1195  136.5693  156.7598 C   0  0  0  0  0  0  0  0  0  0  0  0
  148.5266  135.6616  155.9390 N   0  0  0  0  0  0  0  0  0  0  0  0
  147.8927  134.6024  156.4510 C   0  0  0  0  0  0  0  0  0  0  0  0
  147.7383  134.2603  157.7315 N   0  0  0  0  0  0  0  0  0  0  0  0
  148.3404  135.1607  158.5603 C   0  0  0  0  0  0  0  0  0  0  0  0
  149.0434  136.3327  158.1614 C   0  0  0  0  0  0  0  0  0  0  0  0
  149.5244  136.9994  159.2820 N   0  0  0  0  0  0  0  0  0  0  0  0
  149.1182  136.2711  160.2854 C   0  0  0  0  0  0  0  0  0  0  0  0
  148.4091  135.1414  159.9430 N   0  0  0  0  0  0  0  0  0  0  0  0
  147.8447  134.1575  160.8552 C   0  0  0  0  0  0  0  0  0  0  0  0
  147.0063  134.7779  161.9990 C   0  0  1  0  0  0  0  0  0  0  0  0
  146.4047  133.7341  162.7434 O   0  0  0  0  0  0  0  0  0  0  0  0
  147.8514  135.6374  162.9418 C   0  0  0  0  0  0  0  0  0  0  0  0
  147.4089  137.0603  162.6228 C   0  0  0  0  0  0  0  0  0  0  0  0
  146.0320  136.8983  162.3343 O   0  0  0  0  0  0  0  0  0  0  0  0
  145.9125  135.7485  161.5092 C   0  0  0  0  0  0  0  0  0  0  0  0
  148.8924  138.6310  155.5939 C   0  0  0  0  0  0  0  0  0  0  0  0
  149.6383  139.9727  155.3912 C   0  0  1  0  0  0  0  0  0  0  0  0
  148.8078  140.9181  154.5383 C   0  0  0  0  0  0  0  0  0  0  0  0
  147.8529  141.5410  155.5517 C   0  0  0  0  0  0  0  0  0  0  0  0
  148.5456  141.5312  156.7959 O   0  0  0  0  0  0  0  0  0  0  0  0
  149.7638  140.7957  156.6941 C   0  0  2  0  0  0  0  0  0  0  0  0
  150.8927  141.8446  156.6979 C   0  0  0  0  0  0  0  0  0  0  0  0
  150.8816  139.7306  154.7233 O   0  0  0  0  0  0  0  0  0  0  0  0
  153.7159  137.9595  155.0061 H   0  0  0  0  0  0  0  0  0  0  0  0
  153.5238  139.6229  154.4605 H   0  0  0  0  0  0  0  0  0  0  0  0
  152.8062  138.3059  153.5359 H   0  0  0  0  0  0  0  0  0  0  0  0
  152.0021  139.1502  156.3637 H   0  0  0  0  0  0  0  0  0  0  0  0
  150.8020  137.0090  154.5393 H   0  0  0  0  0  0  0  0  0  0  0  0
  151.6418  136.7380  156.0620 H   0  0  0  0  0  0  0  0  0  0  0  0
  147.4450  133.9328  155.7314 H   0  0  0  0  0  0  0  0  0  0  0  0
  149.3324  136.5366  161.3104 H   0  0  0  0  0  0  0  0  0  0  0  0
  147.2360  133.4640  160.2733 H   0  0  0  0  0  0  0  0  0  0  0  0
  148.6620  133.5673  161.2718 H   0  0  0  0  0  0  0  0  0  0  0  0
  145.7631  134.1139  163.3242 H   0  0  0  0  0  0  0  0  0  0  0  0
  147.6191  135.4199  163.9857 H   0  0  0  0  0  0  0  0  0  0  0  0
  148.9253  135.4997  162.8119 H   0  0  0  0  0  0  0  0  0  0  0  0
  147.5713  137.7491  163.4521 H   0  0  0  0  0  0  0  0  0  0  0  0
  147.9284  137.4455  161.7436 H   0  0  0  0  0  0  0  0  0  0  0  0
  146.0964  136.0638  160.4816 H   0  0  0  0  0  0  0  0  0  0  0  0
  144.9057  135.3307  161.5496 H   0  0  0  0  0  0  0  0  0  0  0  0
  148.5877  138.2283  154.6267 H   0  0  0  0  0  0  0  0  0  0  0  0
  147.9767  138.7919  156.1611 H   0  0  0  0  0  0  0  0  0  0  0  0
  149.4421  141.6947  154.1090 H   0  0  0  0  0  0  0  0  0  0  0  0
  148.2917  140.4257  153.7135 H   0  0  0  0  0  0  0  0  0  0  0  0
  147.5548  142.5517  155.2720 H   0  0  0  0  0  0  0  0  0  0  0  0
  146.9494  140.9386  155.6508 H   0  0  0  0  0  0  0  0  0  0  0  0
  149.8781  140.1481  157.5643 H   0  0  0  0  0  0  0  0  0  0  0  0
  151.8789  141.3870  156.6394 H   0  0  0  0  0  0  0  0  0  0  0  0
  150.8650  142.4316  157.6159 H   0  0  0  0  0  0  0  0  0  0  0  0
  150.8021  142.5403  155.8639 H   0  0  0  0  0  0  0  0  0  0  0  0
  1  2  1  0  0  0  0
  1 29  1  0  0  0  0
  1 30  1  0  0  0  0
  1 31  1  0  0  0  0
  2 28  1  0  0  0  0
  2  3  1  0  0  0  0
  2 32  1  0  0  0  0
  3  4  1  0  0  0  0
  3 33  1  0  0  0  0
  3 34  1  0  0  0  0
  4  5  1  0  0  0  0
  4 21  1  0  0  0  0
  5 10  1  0  0  0  0
  5  6  2  0  0  0  0
  6  7  1  0  0  0  0
  7  8  2  0  0  0  0
  7 35  1  0  0  0  0
  8  9  1  0  0  0  0
  9 13  1  0  0  0  0
  9 10  2  0  0  0  0
 10 11  1  0  0  0  0
 11 12  2  0  0  0  0
 12 13  1  0  0  0  0
 12 36  1  0  0  0  0
 13 14  1  0  0  0  0
 14 15  1  0  0  0  0
 14 37  1  0  0  0  0
 14 38  1  0  0  0  0
 15 20  1  0  0  0  0
 15 16  1  0  0  0  0
 15 17  1  0  0  0  0
 16 39  1  0  0  0  0
 17 18  1  0  0  0  0
 17 40  1  0  0  0  0
 17 41  1  0  0  0  0
 18 19  1  0  0  0  0
 18 42  1  0  0  0  0
 18 43  1  0  0  0  0
 19 20  1  0  0  0  0
 20 44  1  0  0  0  0
 20 45  1  0  0  0  0
 21 22  1  0  0  0  0
 21 46  1  0  0  0  0
 21 47  1  0  0  0  0
 22 26  1  0  0  0  0
 22 23  1  0  0  0  0
 22 28  1  0  0  0  0
 23 24  1  0  0  0  0
 23 48  1  0  0  0  0
 23 49  1  0  0  0  0
 24 25  1  0  0  0  0
 24 50  1  0  0  0  0
 24 51  1  0  0  0  0
 25 26  1  0  0  0  0
 26 27  1  0  0  0  0
 26 52  1  0  0  0  0
 27 53  1  0  0  0  0
 27 54  1  0  0  0  0
 27 55  1  0  0  0  0
M  END
> <s_m_source_file>
AV-unprocessed.smi

> <i_m_source_file_index>
281

> <i_lp_mmshare_version>
43012

> <i_f3d_flags>
0

> <s_epik_input>
W0NIM11bQ0BASF0xT1tDSDJdW0NIMl1bQ0BAXTEyW0NIMl1OKFtDSDJdW0NASF0oTzIpW0NIM10pYyhuW2NIXW4zKWMoYzM0KW5bY0hdbjRbQ0gyXVtDQEBdNShbT0hdKVtDSDJdW0NIMl1PW0NIMl01

> <s_epik_cmdline>
J2VwaWtfcHl0aG9uJywgJy1waCcsICc3LjAnLCAnLXRuJywgJzgnLCAnLW1hJywgJzIwMCcsICctbWV0YWxfYmluZGluZycsICctaW1hZScsICc8aW5maWxlLm1hZT4nLCAnLW9tYWUnLCAnPG91dGZpbGUubWFlPic=

> <r_lp_tautomer_probability>
1

> <r_epik_Ionization_Penalty>
0.00571331

> <r_epik_Ionization_Penalty_Charging>
0

> <r_epik_Ionization_Penalty_Neutral>
0.00571331

> <r_epik_State_Penalty>
0.00399586

> <r_epik_Charging_Adjusted_Penalty>
0.00399586

> <i_epik_Tot_Q>
0

> <i_epik_Tot_abs_Q>
0

> <r_epik_Metal_State_Penalty>
-0

> <b_epik_Metal_Only>
0

> <s_lp_Force_Field>
OPLS_2005

> <r_lp_Energy>
53.7875

> <b_lp_Chiralities_Consistent>
1

> <s_lp_Variant>
AV-unprocessed.smi:281-13

> <Gold.Version>
5.8.1

> <Gold.Id.Protein>
6NUR|6NUR_protein|mol2

> <Gold.PLP.Fitness>
42.5084

> <Gold.PLP.PLP>
-39.7471

> <Gold.PLP.part.hbond>
-1.3078

> <Gold.PLP.part.metal>
0.0000

> <Gold.PLP.part.buried>
-5.7423

> <Gold.PLP.part.nonpolar>
-33.4476

> <Gold.PLP.part.repulsive>
0.2420

> <Gold.PLP.ligand.clash>
0.0000

> <Gold.PLP.ligand.torsion>
0.2878

> <Gold.PLP.Chemscore.Hbond>
1.0000

> <Gold.PLP.Chemscore.CHOScore>
0.0000

> <Gold.PLP.Chemscore.Metal>
0.0000

> <Gold.Chemscore.Hbonds>
donor molecule, donor type, donor heavy atom, donor atom, acceptor molecule, acceptor atom, score
      P1  H  7989  7998       L1    28  1.00

> <Gold.PLP.Chemscore.Internal.Correction>
0.3369

> <Gold.Rescore>
     Score         DG    S(hbond)    S(metal)    S(lipo)     H(rot)  DE(clash)    DE(int)     intcor
     14.25     -14.52       0.97        0.00      95.35       2.09       0.00       0.27       ----

> <Gold.Chemscore.Fitness>
14.2456

> <Gold.Chemscore.DG>
-14.5193

> <Gold.Chemscore.ZeroCoef>
-5.4800

> <Gold.Chemscore.Hbond>
0.9704

> <Gold.Chemscore.Metal>
0.0000

> <Gold.Chemscore.Lipo>
95.3470

> <Gold.Chemscore.Internal_Hbond>
0.0000

> <Gold.Chemscore.DEClash>
0.0000

> <Gold.Chemscore.DEInternal>
0.2738

> <Gold.Chemscore.Rot>
2.0927

> <Gold.Chemscore.Internal.Correction>
   9.000000E+99

> <Gold.Chemscore.Hbonds>
donor molecule, donor type, donor heavy atom, donor atom, acceptor molecule, acceptor atom, score
      P1  H  7989  7998       L1    28  0.95

> <Gold.Chemscore.Hbond.Weighted>
-3.2411

> <Gold.Chemscore.Metal.Weighted>
-0.0000

> <Gold.Chemscore.Lipo.Weighted>
-11.1556

> <Gold.Chemscore.Internal_Hbond.Weighted>
0.0000

> <Gold.Chemscore.DEClash.Weighted>
0.0000

> <Gold.Chemscore.DEInternal.Weighted>
0.2738

> <Gold.Chemscore.Rot.Weighted>
5.3573

> <Gold.Chemscore.Internal.Correction.Weighted>
   9.000000E+99

> <Gold.Protein.RotatedTorsions>
[ 6907 6896 6895 6894 ] final  -37.67 input  -60.11 | X-H torsion
[ 7974 7965 7964 7962 ] final  138.97 input  175.53 | X-H torsion
[ 8008 7997 7996 7995 ] final  -51.81 input   59.86 | X-H torsion
[ 10167 10162 10161 10158 ] final   72.97 input  -65.29 | X-H torsion
[ 10718 10713 10712 10709 ] final   50.86 input   66.30 | X-H torsion
[ 10763 10752 10751 10750 ] final   73.11 input  -60.55 | X-H torsion
[ 11005 11000 10999 10996 ] final  121.92 input  -57.11 | X-H torsion

> <Gold.Protein.ActiveResidues>
 VAL166  LYS551  ARG553  GLY616  TRP617  ASP618  TYR619  PRO620  LYS621  CYS622 
 ASP623  PHE694  ASN695  SER759  ASP760  ASP761  ALA762  ILE779  LEU786  VAL792 
 PHE793  MET794  SER795  GLU796  ALA797  LYS798  CYS799  TRP800  GLU811  SER814 

> <Gold.Protein.RotatedAtoms>
  151.0118  134.9403  159.8011 H   0  0  0  0  0  0  0  0  0  0  0  0  # atno 6907 bound_to 6896
  152.5304  134.3018  159.9091 H   0  0  0  0  0  0  0  0  0  0  0  0  # atno 6908 bound_to 6896
  151.3024  133.4075  159.2675 H   0  0  0  0  0  0  0  0  0  0  0  0  # atno 6909 bound_to 6896
  144.9323  139.5032  143.5612 H   0  0  0  0  0  0  0  0  0  0  0  0  # atno 7974 bound_to 7965
  154.4091  140.1239  156.4889 H   0  0  0  0  0  0  0  0  0  0  0  0  # atno 8008 bound_to 7997
  155.7010  140.3495  155.4914 H   0  0  0  0  0  0  0  0  0  0  0  0  # atno 8009 bound_to 7997
  155.9385  140.1082  157.1065 H   0  0  0  0  0  0  0  0  0  0  0  0  # atno 8010 bound_to 7997
  140.0295  144.5477  150.7518 H   0  0  0  0  0  0  0  0  0  0  0  0  # atno 10167 bound_to 10162
  157.4925  130.8385  149.8220 H   0  0  0  0  0  0  0  0  0  0  0  0  # atno 10718 bound_to 10713
  153.0501  135.5075  154.7845 H   0  0  0  0  0  0  0  0  0  0  0  0  # atno 10763 bound_to 10752
  154.6714  135.2953  154.9739 H   0  0  0  0  0  0  0  0  0  0  0  0  # atno 10764 bound_to 10752
  154.0556  135.6698  153.4858 H   0  0  0  0  0  0  0  0  0  0  0  0  # atno 10765 bound_to 10752
  139.9246  134.9640  156.8031 H   0  0  0  0  0  0  0  0  0  0  0  0  # atno 11005 bound_to 11000
  146.3252  139.8282  142.8913 LP  0  0  0  0  0  0  0  0  0  0  0  0  # atno 17320 bound_to 7965
  145.3123  141.0223  143.3548 LP  0  0  0  0  0  0  0  0  0  0  0  0  # atno 17321 bound_to 7965
  140.7308  143.2687  151.3958 LP  0  0  0  0  0  0  0  0  0  0  0  0  # atno 17342 bound_to 10162
  139.6085  144.1146  152.2275 LP  0  0  0  0  0  0  0  0  0  0  0  0  # atno 17343 bound_to 10162
  156.0182  130.3805  150.2045 LP  0  0  0  0  0  0  0  0  0  0  0  0  # atno 17370 bound_to 10713
  157.0233  130.9986  151.3333 LP  0  0  0  0  0  0  0  0  0  0  0  0  # atno 17371 bound_to 10713
  140.6374  133.9850  155.7691 LP  0  0  0  0  0  0  0  0  0  0  0  0  # atno 17394 bound_to 11000
  141.0794  134.0086  157.3409 LP  0  0  0  0  0  0  0  0  0  0  0  0  # atno 17395 bound_to 11000

$$$$
