AV-unprocessed.smi:107|AV-procd|sdf|1019|dock8
  -GOLD-   2262018 23D 1   1.00000     0.00000
 Structure written by MMmdl.
 31 32  0  0  0  0  0  0  0  0  1 V2000
  150.9822  138.1354  158.4730 C   0  0  0  0  0  0  0  0  0  0  0  0
  152.0447  138.7567  159.3644 C   0  0  0  0  0  0  0  0  0  0  0  0
  152.2671  140.0953  159.4078 C   0  0  0  0  0  0  0  0  0  0  0  0
  153.2286  140.6975  160.2098 N   0  0  0  0  0  0  0  0  0  0  0  0
  153.4939  142.1878  160.1351 C   0  0  2  0  0  0  0  0  0  0  0  0
  153.2768  142.9370  161.4635 C   0  0  0  0  0  0  0  0  0  0  0  0
  152.1805  143.9382  161.1256 C   0  0  2  0  0  0  0  0  0  0  0  0
  150.9215  143.4893  161.5895 O   0  0  0  0  0  0  0  0  0  0  0  0
  152.2450  144.0256  159.5921 C   0  0  2  0  0  0  0  0  0  0  0  0
  150.9676  144.4761  158.8624 C   0  0  0  0  0  0  0  0  0  0  0  0
  151.1608  144.4374  157.4645 O   0  0  0  0  0  0  0  0  0  0  0  0
  152.6273  142.7202  159.1843 O   0  0  0  0  0  0  0  0  0  0  0  0
  154.1083  139.8753  160.9490 C   0  0  0  0  0  0  0  0  0  0  0  0
  155.0495  140.3152  161.6080 O   0  0  0  0  0  0  0  0  0  0  0  0
  153.8714  138.5020  160.9182 N   0  0  0  0  0  0  0  0  0  0  0  0
  152.8711  137.8652  160.1812 C   0  0  0  0  0  0  0  0  0  0  0  0
  152.7526  136.6427  160.2463 O   0  0  0  0  0  0  0  0  0  0  0  0
  154.4843  137.9157  161.4659 H   0  0  0  0  0  0  0  0  0  0  0  0
  150.4330  138.8910  157.9106 H   0  0  0  0  0  0  0  0  0  0  0  0
  150.2627  137.5751  159.0712 H   0  0  0  0  0  0  0  0  0  0  0  0
  151.4386  137.4518  157.7562 H   0  0  0  0  0  0  0  0  0  0  0  0
  151.6656  140.7182  158.7652 H   0  0  0  0  0  0  0  0  0  0  0  0
  154.5248  142.3189  159.8034 H   0  0  0  0  0  0  0  0  0  0  0  0
  153.0472  142.2795  162.3021 H   0  0  0  0  0  0  0  0  0  0  0  0
  154.2009  143.4632  161.7068 H   0  0  0  0  0  0  0  0  0  0  0  0
  152.3750  144.9089  161.5825 H   0  0  0  0  0  0  0  0  0  0  0  0
  150.4736  144.2192  161.9897 H   0  0  0  0  0  0  0  0  0  0  0  0
  153.0659  144.6909  159.3173 H   0  0  0  0  0  0  0  0  0  0  0  0
  150.1435  143.8076  159.1128 H   0  0  0  0  0  0  0  0  0  0  0  0
  150.6644  145.4784  159.1655 H   0  0  0  0  0  0  0  0  0  0  0  0
  150.3526  144.6876  157.0429 H   0  0  0  0  0  0  0  0  0  0  0  0
  1  2  1  0  0  0  0
  1 19  1  0  0  0  0
  1 20  1  0  0  0  0
  1 21  1  0  0  0  0
  2 16  1  0  0  0  0
  2  3  2  0  0  0  0
  3  4  1  0  0  0  0
  3 22  1  0  0  0  0
  4  5  1  0  0  0  0
  4 13  1  0  0  0  0
  5 12  1  0  0  0  0
  5  6  1  0  0  0  0
  5 23  1  0  0  0  0
  6  7  1  0  0  0  0
  6 24  1  0  0  0  0
  6 25  1  0  0  0  0
  7  8  1  0  0  0  0
  7  9  1  0  0  0  0
  7 26  1  0  0  0  0
  8 27  1  0  0  0  0
  9 10  1  0  0  0  0
  9 12  1  0  0  0  0
  9 28  1  0  0  0  0
 10 11  1  0  0  0  0
 10 29  1  0  0  0  0
 10 30  1  0  0  0  0
 11 31  1  0  0  0  0
 13 14  2  0  0  0  0
 13 15  1  0  0  0  0
 15 18  1  0  0  0  0
 15 16  1  0  0  0  0
 16 17  2  0  0  0  0
M  END
> <s_m_source_file>
AV-unprocessed.smi

> <i_m_source_file_index>
107

> <i_lp_mmshare_version>
43012

> <i_f3d_flags>
0

> <s_epik_input>
Tz1jMVtuSF1jKD1PKW4oW2NIXWMxW0NIM10pW0NAQEhdMltDSDJdW0NAQEhdKFtPSF0pW0NASF0oTzIpW0NIMl1bT0hd

> <s_epik_cmdline>
J2VwaWtfcHl0aG9uJywgJy1waCcsICc3LjAnLCAnLXRuJywgJzgnLCAnLW1hJywgJzIwMCcsICctbWV0YWxfYmluZGluZycsICctaW1hZScsICc8aW5maWxlLm1hZT4nLCAnLW9tYWUnLCAnPG91dGZpbGUubWFlPic=

> <r_lp_tautomer_probability>
0.999537

> <r_epik_Ionization_Penalty>
0.00121888

> <r_epik_Ionization_Penalty_Charging>
0.00121876

> <r_epik_Ionization_Penalty_Neutral>
1.19946e-07

> <r_epik_State_Penalty>
0.000805124

> <r_epik_Charging_Adjusted_Penalty>
0.00202389

> <i_epik_Tot_Q>
0

> <i_epik_Tot_abs_Q>
0

> <r_epik_Metal_State_Penalty>
0.662472

> <b_epik_Metal_Only>
0

> <s_epik_Chemistry_Notes>
This compound contains an acetal/aminal-like group ( X-CH(R)-Y where X, Y are N, S, or O) that may be acid/base labile, releasing an aldehyde.

> <s_lp_Force_Field>
OPLS_2005

> <r_lp_Energy>
26.1821

> <b_lp_Chiralities_Consistent>
1

> <s_lp_Variant>
AV-unprocessed.smi:107-7

> <Gold.Version>
5.8.1

> <Gold.Id.Protein>
6NUR|6NUR_protein|mol2

> <Gold.PLP.Fitness>
42.3330

> <Gold.PLP.PLP>
-35.4493

> <Gold.PLP.part.hbond>
-4.5832

> <Gold.PLP.part.metal>
0.0000

> <Gold.PLP.part.buried>
-7.2236

> <Gold.PLP.part.nonpolar>
-23.1487

> <Gold.PLP.part.repulsive>
0.0055

> <Gold.PLP.ligand.clash>
0.0000

> <Gold.PLP.ligand.torsion>
0.0883

> <Gold.PLP.Chemscore.Hbond>
2.3200

> <Gold.PLP.Chemscore.CHOScore>
0.0000

> <Gold.PLP.Chemscore.Metal>
0.0000

> <Gold.Chemscore.Hbonds>
donor molecule, donor type, donor heavy atom, donor atom, acceptor molecule, acceptor atom, score
      L1  H    11    31       P1  8028  1.00
      P1  H  6896  6909       L1    17  1.00
      P1  H  6933  6945       L1     8  0.29

> <Gold.PLP.Chemscore.Internal.Correction>
0.1003

> <Gold.Rescore>
     Score         DG    S(hbond)    S(metal)    S(lipo)     H(rot)  DE(clash)    DE(int)     intcor
     12.69     -12.76       2.04        0.00      63.57       2.73       0.00       0.07       ----

> <Gold.Chemscore.Fitness>
12.6919

> <Gold.Chemscore.DG>
-12.7621

> <Gold.Chemscore.ZeroCoef>
-5.4800

> <Gold.Chemscore.Hbond>
2.0424

> <Gold.Chemscore.Metal>
0.0000

> <Gold.Chemscore.Lipo>
63.5657

> <Gold.Chemscore.Internal_Hbond>
0.0000

> <Gold.Chemscore.DEClash>
0.0021

> <Gold.Chemscore.DEInternal>
0.0680

> <Gold.Chemscore.Rot>
2.7253

> <Gold.Chemscore.Internal.Correction>
   9.000000E+99

> <Gold.Chemscore.Hbonds>
donor molecule, donor type, donor heavy atom, donor atom, acceptor molecule, acceptor atom, score
      L1  H    11    31       P1  8028  0.59
      P1  H  6896  6909       L1    17  1.00
      P1  H  6933  6945       L1     8  0.16

> <Gold.Chemscore.Hbond.Weighted>
-6.8217

> <Gold.Chemscore.Metal.Weighted>
-0.0000

> <Gold.Chemscore.Lipo.Weighted>
-7.4372

> <Gold.Chemscore.Internal_Hbond.Weighted>
0.0000

> <Gold.Chemscore.DEClash.Weighted>
0.0021

> <Gold.Chemscore.DEInternal.Weighted>
0.0680

> <Gold.Chemscore.Rot.Weighted>
6.9769

> <Gold.Chemscore.Internal.Correction.Weighted>
   9.000000E+99

> <Gold.Protein.RotatedTorsions>
[ 6907 6896 6895 6894 ] final  151.16 input  -60.11 | X-H torsion
[ 7974 7965 7964 7962 ] final   51.77 input  175.53 | X-H torsion
[ 8008 7997 7996 7995 ] final  114.01 input   59.86 | X-H torsion
[ 10167 10162 10161 10158 ] final  -28.91 input  -65.29 | X-H torsion
[ 10718 10713 10712 10709 ] final  103.53 input   66.30 | X-H torsion
[ 10763 10752 10751 10750 ] final  -77.48 input  -60.55 | X-H torsion
[ 11005 11000 10999 10996 ] final  172.58 input  -57.11 | X-H torsion

> <Gold.Protein.ActiveResidues>
 VAL166  LYS551  ARG553  GLY616  TRP617  ASP618  TYR619  PRO620  LYS621  CYS622 
 ASP623  PHE694  ASN695  SER759  ASP760  ASP761  ALA762  ILE779  LEU786  VAL792 
 PHE793  MET794  SER795  GLU796  ALA797  LYS798  CYS799  TRP800  GLU811  SER814 

> <Gold.Protein.RotatedAtoms>
  152.1044  133.4267  159.4601 H   0  0  0  0  0  0  0  0  0  0  0  0  # atno 6907 bound_to 6896
  150.6865  134.2722  159.4602 H   0  0  0  0  0  0  0  0  0  0  0  0  # atno 6908 bound_to 6896
  152.0585  134.9609  160.0625 H   0  0  0  0  0  0  0  0  0  0  0  0  # atno 6909 bound_to 6896
  145.9881  139.4310  143.0091 H   0  0  0  0  0  0  0  0  0  0  0  0  # atno 7974 bound_to 7965
  156.2294  140.2968  156.0150 H   0  0  0  0  0  0  0  0  0  0  0  0  # atno 8008 bound_to 7997
  155.2266  140.0417  157.2973 H   0  0  0  0  0  0  0  0  0  0  0  0  # atno 8009 bound_to 7997
  154.5970  140.2417  155.7851 H   0  0  0  0  0  0  0  0  0  0  0  0  # atno 8010 bound_to 7997
  140.7265  143.3971  151.1329 H   0  0  0  0  0  0  0  0  0  0  0  0  # atno 10167 bound_to 10162
  157.6769  131.0781  150.5569 H   0  0  0  0  0  0  0  0  0  0  0  0  # atno 10718 bound_to 10713
  154.5135  135.5762  153.6623 H   0  0  0  0  0  0  0  0  0  0  0  0  # atno 10763 bound_to 10752
  152.9902  135.6164  154.2848 H   0  0  0  0  0  0  0  0  0  0  0  0  # atno 10764 bound_to 10752
  154.2764  135.2852  155.2695 H   0  0  0  0  0  0  0  0  0  0  0  0  # atno 10765 bound_to 10752
  140.3312  134.7355  157.4135 H   0  0  0  0  0  0  0  0  0  0  0  0  # atno 11005 bound_to 11000
  145.7671  140.9912  143.1169 LP  0  0  0  0  0  0  0  0  0  0  0  0  # atno 17320 bound_to 7965
  144.6880  139.9402  143.7475 LP  0  0  0  0  0  0  0  0  0  0  0  0  # atno 17321 bound_to 7965
  139.7585  143.8671  152.3094 LP  0  0  0  0  0  0  0  0  0  0  0  0  # atno 17342 bound_to 10162
  139.8549  144.7146  150.9170 LP  0  0  0  0  0  0  0  0  0  0  0  0  # atno 17343 bound_to 10162
  156.5873  130.4320  149.5951 LP  0  0  0  0  0  0  0  0  0  0  0  0  # atno 17370 bound_to 10713
  156.2612  130.6963  151.1732 LP  0  0  0  0  0  0  0  0  0  0  0  0  # atno 17371 bound_to 10713
  140.0859  134.5667  155.8493 LP  0  0  0  0  0  0  0  0  0  0  0  0  # atno 17394 bound_to 11000
  141.2063  133.6654  156.6232 LP  0  0  0  0  0  0  0  0  0  0  0  0  # atno 17395 bound_to 11000

$$$$
