AV-unprocessed.smi:3272|AV-procd|sdf|12518|dock6
  -GOLD-   2272018433D 1   1.00000     0.00000
 Structure written by MMmdl.
 35 36  0  0  0  0  0  0  0  0  1 V2000
  144.1791  132.3634  148.9147 C   0  0  0  0  0  0  0  0  0  0  0  0
  143.5889  132.3806  150.3298 C   0  0  0  0  0  0  0  0  0  0  0  0
  144.0916  133.4964  151.1071 N   0  0  0  0  0  0  0  0  0  0  0  0
  145.2053  134.2749  150.8615 C   0  0  0  0  0  0  0  0  0  0  0  0
  145.2430  135.1938  151.8719 C   0  0  0  0  0  0  0  0  0  0  0  0
  146.1713  136.2403  152.1025 N   0  0  0  0  0  0  0  0  0  0  0  0
  145.9200  137.4548  152.6176 C   0  0  0  0  0  0  0  0  0  0  0  0
  144.8088  137.8650  152.9529 O   0  0  0  0  0  0  0  0  0  0  0  0
  147.0423  138.1817  152.7154 N   0  0  0  0  0  0  0  0  0  0  0  0
  147.1263  139.5501  153.2157 C   0  0  0  0  0  0  0  0  0  0  0  0
  148.1880  139.6866  154.3224 C   0  0  2  0  0  0  0  0  0  0  0  0
  148.4818  141.1194  154.7165 C   0  0  0  0  0  0  0  0  0  0  0  0
  149.8228  140.9842  155.4321 C   0  0  0  0  0  0  0  0  0  0  0  0
  150.4815  139.8766  154.8239 O   0  0  0  0  0  0  0  0  0  0  0  0
  149.5881  139.1984  153.9461 C   0  0  0  0  0  0  0  0  0  0  0  0
  144.1208  134.9124  152.6935 C   0  0  0  0  0  0  0  0  0  0  0  0
  143.4306  133.8834  152.2260 N   0  0  0  0  0  0  0  0  0  0  0  0
  143.8021  131.5121  148.3478 H   0  0  0  0  0  0  0  0  0  0  0  0
  145.2666  132.2899  148.9434 H   0  0  0  0  0  0  0  0  0  0  0  0
  143.9179  133.2692  148.3666 H   0  0  0  0  0  0  0  0  0  0  0  0
  142.5007  132.4426  150.2877 H   0  0  0  0  0  0  0  0  0  0  0  0
  143.8339  131.4544  150.8509 H   0  0  0  0  0  0  0  0  0  0  0  0
  145.8462  134.1073  150.0084 H   0  0  0  0  0  0  0  0  0  0  0  0
  147.1282  136.0422  151.8495 H   0  0  0  0  0  0  0  0  0  0  0  0
  147.9075  137.7577  152.4144 H   0  0  0  0  0  0  0  0  0  0  0  0
  147.3223  140.2538  152.4046 H   0  0  0  0  0  0  0  0  0  0  0  0
  146.1476  139.8151  153.6164 H   0  0  0  0  0  0  0  0  0  0  0  0
  147.8565  139.1472  155.2115 H   0  0  0  0  0  0  0  0  0  0  0  0
  148.5941  141.7434  153.8285 H   0  0  0  0  0  0  0  0  0  0  0  0
  147.7079  141.5589  155.3464 H   0  0  0  0  0  0  0  0  0  0  0  0
  150.4233  141.8917  155.3634 H   0  0  0  0  0  0  0  0  0  0  0  0
  149.6701  140.7585  156.4882 H   0  0  0  0  0  0  0  0  0  0  0  0
  149.6923  138.1166  154.0323 H   0  0  0  0  0  0  0  0  0  0  0  0
  149.8334  139.4808  152.9214 H   0  0  0  0  0  0  0  0  0  0  0  0
  143.7902  135.4094  153.5937 H   0  0  0  0  0  0  0  0  0  0  0  0
  1  2  1  0  0  0  0
  1 18  1  0  0  0  0
  1 19  1  0  0  0  0
  1 20  1  0  0  0  0
  2  3  1  0  0  0  0
  2 21  1  0  0  0  0
  2 22  1  0  0  0  0
  3 17  1  0  0  0  0
  3  4  1  0  0  0  0
  4  5  2  0  0  0  0
  4 23  1  0  0  0  0
  5  6  1  0  0  0  0
  5 16  1  0  0  0  0
  6  7  1  0  0  0  0
  6 24  1  0  0  0  0
  7  8  2  0  0  0  0
  7  9  1  0  0  0  0
  9 10  1  0  0  0  0
  9 25  1  0  0  0  0
 10 11  1  0  0  0  0
 10 26  1  0  0  0  0
 10 27  1  0  0  0  0
 11 15  1  0  0  0  0
 11 12  1  0  0  0  0
 11 28  1  0  0  0  0
 12 13  1  0  0  0  0
 12 29  1  0  0  0  0
 12 30  1  0  0  0  0
 13 14  1  0  0  0  0
 13 31  1  0  0  0  0
 13 32  1  0  0  0  0
 14 15  1  0  0  0  0
 15 33  1  0  0  0  0
 15 34  1  0  0  0  0
 16 17  2  0  0  0  0
 16 35  1  0  0  0  0
M  END
> <s_m_source_file>
AV-unprocessed.smi

> <i_m_source_file_index>
3272

> <i_lp_mmshare_version>
43012

> <i_f3d_flags>
0

> <s_epik_input>
W0NIM11bQ0gyXW4xW2NIXWMoW2NIXW4xKVtOSF1DKD1PKVtOSF1bQ0gyXVtDQEBIXTJbQ0gyXVtDSDJdT1tDSDJdMg==

> <s_epik_cmdline>
J2VwaWtfcHl0aG9uJywgJy1waCcsICc3LjAnLCAnLXRuJywgJzgnLCAnLW1hJywgJzIwMCcsICctbWV0YWxfYmluZGluZycsICctaW1hZScsICc8aW5maWxlLm1hZT4nLCAnLW9tYWUnLCAnPG91dGZpbGUubWFlPic=

> <r_lp_tautomer_probability>
1

> <r_epik_Ionization_Penalty>
0.000182896

> <r_epik_Ionization_Penalty_Charging>
0

> <r_epik_Ionization_Penalty_Neutral>
0.000182896

> <r_epik_State_Penalty>
-0

> <r_epik_Charging_Adjusted_Penalty>
0

> <i_epik_Tot_Q>
0

> <i_epik_Tot_abs_Q>
0

> <r_epik_Metal_State_Penalty>
-0

> <b_epik_Metal_Only>
0

> <s_lp_Force_Field>
OPLS_2005

> <r_lp_Energy>
22.7112

> <b_lp_Chiralities_Consistent>
1

> <s_lp_Variant>
AV-unprocessed.smi:3272-1

> <Gold.Version>
5.8.1

> <Gold.Id.Protein>
6NUR|6NUR_protein|mol2

> <Gold.PLP.Fitness>
40.5247

> <Gold.PLP.PLP>
-29.5985

> <Gold.PLP.part.hbond>
-3.0000

> <Gold.PLP.part.metal>
0.0000

> <Gold.PLP.part.buried>
-3.0723

> <Gold.PLP.part.nonpolar>
-26.8107

> <Gold.PLP.part.repulsive>
1.9601

> <Gold.PLP.ligand.clash>
0.0000

> <Gold.PLP.ligand.torsion>
0.5409

> <Gold.PLP.Chemscore.Hbond>
3.0000

> <Gold.PLP.Chemscore.CHOScore>
1.0000

> <Gold.PLP.Chemscore.Metal>
0.0000

> <Gold.Chemscore.Hbonds>
donor molecule, donor type, donor heavy atom, donor atom, acceptor molecule, acceptor atom, score
      L1  H     6    24       P1  7948  1.00
      L1  H     9    25       P1  7948  1.00
      P1  H  7989  7998       L1    14  0.95
      L1  C     4    23       P1  7921  1.00

> <Gold.PLP.Chemscore.Internal.Correction>
0.0081

> <Gold.Rescore>
     Score         DG    S(hbond)    S(metal)    S(lipo)     H(rot)  DE(clash)    DE(int)     intcor
     15.30     -16.21       1.95        0.00      66.88       1.41       0.40       0.52       ----

> <Gold.Chemscore.Fitness>
15.3003

> <Gold.Chemscore.DG>
-16.2134

> <Gold.Chemscore.ZeroCoef>
-5.4800

> <Gold.Chemscore.Hbond>
1.9489

> <Gold.Chemscore.Metal>
0.0000

> <Gold.Chemscore.Lipo>
66.8765

> <Gold.Chemscore.Internal_Hbond>
0.0000

> <Gold.Chemscore.DEClash>
0.3962

> <Gold.Chemscore.DEInternal>
0.5169

> <Gold.Chemscore.Rot>
1.4064

> <Gold.Chemscore.Internal.Correction>
   9.000000E+99

> <Gold.Chemscore.Hbonds>
donor molecule, donor type, donor heavy atom, donor atom, acceptor molecule, acceptor atom, score
      L1  H     6    24       P1  7948  0.99
      L1  H     9    25       P1  7948  0.97
      P1  H  7989  7998       L1    14  0.06

> <Gold.Chemscore.Hbond.Weighted>
-6.5092

> <Gold.Chemscore.Metal.Weighted>
-0.0000

> <Gold.Chemscore.Lipo.Weighted>
-7.8246

> <Gold.Chemscore.Internal_Hbond.Weighted>
0.0000

> <Gold.Chemscore.DEClash.Weighted>
0.3962

> <Gold.Chemscore.DEInternal.Weighted>
0.5169

> <Gold.Chemscore.Rot.Weighted>
3.6004

> <Gold.Chemscore.Internal.Correction.Weighted>
   9.000000E+99

> <Gold.Protein.RotatedTorsions>
[ 6907 6896 6895 6894 ] final  -47.36 input  -60.11 | X-H torsion
[ 7974 7965 7964 7962 ] final   85.31 input  175.53 | X-H torsion
[ 8008 7997 7996 7995 ] final  -75.55 input   59.86 | X-H torsion
[ 10167 10162 10161 10158 ] final  -37.59 input  -65.29 | X-H torsion
[ 10718 10713 10712 10709 ] final   -2.43 input   66.30 | X-H torsion
[ 10763 10752 10751 10750 ] final -119.98 input  -60.55 | X-H torsion
[ 11005 11000 10999 10996 ] final   93.85 input  -57.11 | X-H torsion

> <Gold.Protein.ActiveResidues>
 VAL166  LYS551  ARG553  GLY616  TRP617  ASP618  TYR619  PRO620  LYS621  CYS622 
 ASP623  PHE694  ASN695  SER759  ASP760  ASP761  ALA762  ILE779  LEU786  VAL792 
 PHE793  MET794  SER795  GLU796  ALA797  LYS798  CYS799  TRP800  GLU811  SER814 

> <Gold.Protein.RotatedAtoms>
  150.9016  134.8428  159.7363 H   0  0  0  0  0  0  0  0  0  0  0  0  # atno 6907 bound_to 6896
  152.4895  134.4494  159.9579 H   0  0  0  0  0  0  0  0  0  0  0  0  # atno 6908 bound_to 6896
  151.4545  133.3569  159.2835 H   0  0  0  0  0  0  0  0  0  0  0  0  # atno 6909 bound_to 6896
  145.5872  139.2333  143.2320 H   0  0  0  0  0  0  0  0  0  0  0  0  # atno 7974 bound_to 7965
  154.5427  140.0742  156.8536 H   0  0  0  0  0  0  0  0  0  0  0  0  # atno 8008 bound_to 7997
  155.3149  140.3392  155.4224 H   0  0  0  0  0  0  0  0  0  0  0  0  # atno 8009 bound_to 7997
  156.1889  140.1679  156.8117 H   0  0  0  0  0  0  0  0  0  0  0  0  # atno 8010 bound_to 7997
  140.7114  143.3332  151.2521 H   0  0  0  0  0  0  0  0  0  0  0  0  # atno 10167 bound_to 10162
  156.7909  130.5361  149.5736 H   0  0  0  0  0  0  0  0  0  0  0  0  # atno 10718 bound_to 10713
  154.8632  135.4219  154.2386 H   0  0  0  0  0  0  0  0  0  0  0  0  # atno 10763 bound_to 10752
  153.3356  135.6990  153.6916 H   0  0  0  0  0  0  0  0  0  0  0  0  # atno 10764 bound_to 10752
  153.5915  135.3554  155.2885 H   0  0  0  0  0  0  0  0  0  0  0  0  # atno 10765 bound_to 10752
  139.8805  134.8813  156.3778 H   0  0  0  0  0  0  0  0  0  0  0  0  # atno 11005 bound_to 11000
  146.1674  140.6698  142.9249 LP  0  0  0  0  0  0  0  0  0  0  0  0  # atno 17320 bound_to 7965
  144.7367  140.4829  143.6898 LP  0  0  0  0  0  0  0  0  0  0  0  0  # atno 17321 bound_to 7965
  139.6820  143.9838  152.2813 LP  0  0  0  0  0  0  0  0  0  0  0  0  # atno 17342 bound_to 10162
  139.9471  144.6644  150.8208 LP  0  0  0  0  0  0  0  0  0  0  0  0  # atno 17343 bound_to 10162
  156.1160  130.6075  151.0120 LP  0  0  0  0  0  0  0  0  0  0  0  0  # atno 17370 bound_to 10713
  157.6601  131.0882  150.7858 LP  0  0  0  0  0  0  0  0  0  0  0  0  # atno 17371 bound_to 10713
  140.9420  133.7508  156.0159 LP  0  0  0  0  0  0  0  0  0  0  0  0  # atno 17394 bound_to 11000
  140.8208  134.3291  157.5382 LP  0  0  0  0  0  0  0  0  0  0  0  0  # atno 17395 bound_to 11000

$$$$
