AV-unprocessed.smi:100|AV-procd|sdf|909|dock6
  -GOLD-   2262017403D 1   1.00000     0.00000
 Structure written by MMmdl.
 31 33  0  0  0  0  0  0  0  0  1 V2000
  148.0720  138.7473  152.6769 N   0  0  0  0  0  0  0  0  0  0  0  0
  148.5364  139.6573  153.5440 C   0  0  0  0  0  0  0  0  0  0  0  0
  147.9074  140.8533  153.6190 N   0  0  0  0  0  0  0  0  0  0  0  0
  148.3525  141.7774  154.4760 C   0  0  0  0  0  0  0  0  0  0  0  0
  149.3820  141.7032  155.3234 N   0  0  0  0  0  0  0  0  0  0  0  0
  150.0167  140.4968  155.2482 C   0  0  0  0  0  0  0  0  0  0  0  0
  149.6550  139.4258  154.3838 C   0  0  0  0  0  0  0  0  0  0  0  0
  150.5181  138.3550  154.5684 N   0  0  0  0  0  0  0  0  0  0  0  0
  151.3422  138.7731  155.4907 C   0  0  0  0  0  0  0  0  0  0  0  0
  151.1154  140.0498  155.9582 N   0  0  0  0  0  0  0  0  0  0  0  0
  151.9036  140.7771  157.0083 C   0  0  2  0  0  0  0  0  0  0  0  0
  152.8713  139.9260  157.5513 O   0  0  0  0  0  0  0  0  0  0  0  0
  152.6274  139.7357  158.9427 C   0  0  1  0  0  0  0  0  0  0  0  0
  153.9335  139.4253  159.6899 C   0  0  0  0  0  0  0  0  0  0  0  0
  154.8368  140.5035  159.5687 O   0  0  0  0  0  0  0  0  0  0  0  0
  151.9041  141.0146  159.3711 C   0  0  1  0  0  0  0  0  0  0  0  0
  152.7684  142.0180  159.5406 F   0  0  0  0  0  0  0  0  0  0  0  0
  151.0302  141.3061  158.1653 C   0  0  2  0  0  0  0  0  0  0  0  0
  149.7679  140.6738  158.2871 O   0  0  0  0  0  0  0  0  0  0  0  0
  148.5249  137.8478  152.6017 H   0  0  0  0  0  0  0  0  0  0  0  0
  147.2705  138.9620  152.1017 H   0  0  0  0  0  0  0  0  0  0  0  0
  147.8072  142.7095  154.4846 H   0  0  0  0  0  0  0  0  0  0  0  0
  152.1483  138.1553  155.8588 H   0  0  0  0  0  0  0  0  0  0  0  0
  152.4121  141.5756  156.4661 H   0  0  0  0  0  0  0  0  0  0  0  0
  151.9437  138.8935  159.0526 H   0  0  0  0  0  0  0  0  0  0  0  0
  153.7270  139.2688  160.7489 H   0  0  0  0  0  0  0  0  0  0  0  0
  154.3981  138.5123  159.3163 H   0  0  0  0  0  0  0  0  0  0  0  0
  155.0045  140.8534  160.4303 H   0  0  0  0  0  0  0  0  0  0  0  0
  151.3475  140.9057  160.3029 H   0  0  0  0  0  0  0  0  0  0  0  0
  150.8591  142.3753  158.0350 H   0  0  0  0  0  0  0  0  0  0  0  0
  149.8709  139.9004  158.8205 H   0  0  0  0  0  0  0  0  0  0  0  0
  1  2  1  0  0  0  0
  1 20  1  0  0  0  0
  1 21  1  0  0  0  0
  2  7  1  0  0  0  0
  2  3  2  0  0  0  0
  3  4  1  0  0  0  0
  4  5  2  0  0  0  0
  4 22  1  0  0  0  0
  5  6  1  0  0  0  0
  6 10  1  0  0  0  0
  6  7  2  0  0  0  0
  7  8  1  0  0  0  0
  8  9  2  0  0  0  0
  9 10  1  0  0  0  0
  9 23  1  0  0  0  0
 10 11  1  0  0  0  0
 11 18  1  0  0  0  0
 11 12  1  0  0  0  0
 11 24  1  0  0  0  0
 12 13  1  0  0  0  0
 13 14  1  0  0  0  0
 13 16  1  0  0  0  0
 13 25  1  0  0  0  0
 14 15  1  0  0  0  0
 14 26  1  0  0  0  0
 14 27  1  0  0  0  0
 15 28  1  0  0  0  0
 16 17  1  0  0  0  0
 16 18  1  0  0  0  0
 16 29  1  0  0  0  0
 18 19  1  0  0  0  0
 18 30  1  0  0  0  0
 19 31  1  0  0  0  0
M  END
> <s_m_source_file>
AV-unprocessed.smi

> <i_m_source_file_index>
100

> <i_lp_mmshare_version>
43012

> <i_f3d_flags>
0

> <s_epik_input>
bjFbY0hdbmMoW05IMl0pYyhjMTIpbltjSF1uMltDQEBIXTNPW0NAQEhdKFtDSDJdW09IXSlbQ0BIXShGKVtDQEhdM1tPSF0=

> <s_epik_cmdline>
J2VwaWtfcHl0aG9uJywgJy1waCcsICc3LjAnLCAnLXRuJywgJzgnLCAnLW1hJywgJzIwMCcsICctbWV0YWxfYmluZGluZycsICctaW1hZScsICc8aW5maWxlLm1hZT4nLCAnLW9tYWUnLCAnPG91dGZpbGUubWFlPic=

> <r_lp_tautomer_probability>
1

> <r_epik_Ionization_Penalty>
0.000750324

> <r_epik_Ionization_Penalty_Charging>
0

> <r_epik_Ionization_Penalty_Neutral>
0.000750324

> <r_epik_State_Penalty>
-0

> <r_epik_Charging_Adjusted_Penalty>
0

> <i_epik_Tot_Q>
0

> <i_epik_Tot_abs_Q>
0

> <r_epik_Metal_State_Penalty>
-0

> <b_epik_Metal_Only>
0

> <s_epik_Chemistry_Notes>
This compound contains an acetal/aminal-like group ( X-CH(R)-Y where X, Y are N, S, or O) that may be acid/base labile, releasing an aldehyde.

> <s_lp_Force_Field>
OPLS_2005

> <r_lp_Energy>
35.7638

> <b_lp_Chiralities_Consistent>
1

> <s_lp_Variant>
AV-unprocessed.smi:100-13

> <Gold.Version>
5.8.1

> <Gold.Id.Protein>
6NUR|6NUR_protein|mol2

> <Gold.PLP.Fitness>
37.8352

> <Gold.PLP.PLP>
-29.5867

> <Gold.PLP.part.hbond>
-3.6916

> <Gold.PLP.part.metal>
0.0000

> <Gold.PLP.part.buried>
-1.2695

> <Gold.PLP.part.nonpolar>
-24.7450

> <Gold.PLP.part.repulsive>
1.0179

> <Gold.PLP.ligand.clash>
0.0000

> <Gold.PLP.ligand.torsion>
0.0560

> <Gold.PLP.Chemscore.Hbond>
2.0000

> <Gold.PLP.Chemscore.CHOScore>
0.7863

> <Gold.PLP.Chemscore.Metal>
0.0000

> <Gold.Chemscore.Hbonds>
donor molecule, donor type, donor heavy atom, donor atom, acceptor molecule, acceptor atom, score
      L1  H     1    20       P1  7948  1.00
      P1  H  7997  8008       L1    12  1.00
      L1  C     4    22       P1  8028  0.78

> <Gold.PLP.Chemscore.Internal.Correction>
0.0016

> <Gold.Rescore>
     Score         DG    S(hbond)    S(metal)    S(lipo)     H(rot)  DE(clash)    DE(int)     intcor
      5.06      -7.32       1.96        0.00      29.72       3.19       0.07       2.20       ----

> <Gold.Chemscore.Fitness>
5.0591

> <Gold.Chemscore.DG>
-7.3245

> <Gold.Chemscore.ZeroCoef>
-5.4800

> <Gold.Chemscore.Hbond>
1.9562

> <Gold.Chemscore.Metal>
0.0000

> <Gold.Chemscore.Lipo>
29.7215

> <Gold.Chemscore.Internal_Hbond>
0.0000

> <Gold.Chemscore.DEClash>
0.0689

> <Gold.Chemscore.DEInternal>
2.1965

> <Gold.Chemscore.Rot>
3.1901

> <Gold.Chemscore.Internal.Correction>
   9.000000E+99

> <Gold.Chemscore.Hbonds>
donor molecule, donor type, donor heavy atom, donor atom, acceptor molecule, acceptor atom, score
      L1  H     1    20       P1  7948  0.99
      P1  H  7997  8008       L1    12  0.67

> <Gold.Chemscore.Hbond.Weighted>
-6.5338

> <Gold.Chemscore.Metal.Weighted>
-0.0000

> <Gold.Chemscore.Lipo.Weighted>
-3.4774

> <Gold.Chemscore.Internal_Hbond.Weighted>
0.0000

> <Gold.Chemscore.DEClash.Weighted>
0.0689

> <Gold.Chemscore.DEInternal.Weighted>
2.1965

> <Gold.Chemscore.Rot.Weighted>
8.1667

> <Gold.Chemscore.Internal.Correction.Weighted>
   9.000000E+99

> <Gold.Protein.RotatedTorsions>
[ 6907 6896 6895 6894 ] final   63.70 input  -60.11 | X-H torsion
[ 7974 7965 7964 7962 ] final  -15.47 input  175.53 | X-H torsion
[ 8008 7997 7996 7995 ] final  -57.69 input   59.86 | X-H torsion
[ 10167 10162 10161 10158 ] final    5.21 input  -65.29 | X-H torsion
[ 10718 10713 10712 10709 ] final  -90.65 input   66.30 | X-H torsion
[ 10763 10752 10751 10750 ] final  -88.27 input  -60.55 | X-H torsion
[ 11005 11000 10999 10996 ] final -136.49 input  -57.11 | X-H torsion

> <Gold.Protein.ActiveResidues>
 VAL166  LYS551  ARG553  GLY616  TRP617  ASP618  TYR619  PRO620  LYS621  CYS622 
 ASP623  PHE694  ASN695  SER759  ASP760  ASP761  ALA762  ILE779  LEU786  VAL792 
 PHE793  MET794  SER795  GLU796  ALA797  LYS798  CYS799  TRP800  GLU811  SER814 

> <Gold.Protein.RotatedAtoms>
  152.4274  134.5842  159.9956 H   0  0  0  0  0  0  0  0  0  0  0  0  # atno 6907 bound_to 6896
  151.5975  133.3354  159.3048 H   0  0  0  0  0  0  0  0  0  0  0  0  # atno 6908 bound_to 6896
  150.8164  134.7385  159.6799 H   0  0  0  0  0  0  0  0  0  0  0  0  # atno 6909 bound_to 6896
  146.2031  140.3497  142.8416 H   0  0  0  0  0  0  0  0  0  0  0  0  # atno 7974 bound_to 7965
  154.4278  140.1101  156.5837 H   0  0  0  0  0  0  0  0  0  0  0  0  # atno 8008 bound_to 7997
  155.6085  140.3494  155.4596 H   0  0  0  0  0  0  0  0  0  0  0  0  # atno 8009 bound_to 7997
  156.0118  140.1220  157.0436 H   0  0  0  0  0  0  0  0  0  0  0  0  # atno 8010 bound_to 7997
  140.6494  143.7583  150.7550 H   0  0  0  0  0  0  0  0  0  0  0  0  # atno 10167 bound_to 10162
  155.9989  130.4918  150.5355 H   0  0  0  0  0  0  0  0  0  0  0  0  # atno 10718 bound_to 10713
  154.6427  135.5383  153.7809 H   0  0  0  0  0  0  0  0  0  0  0  0  # atno 10763 bound_to 10752
  153.0342  135.6463  154.1135 H   0  0  0  0  0  0  0  0  0  0  0  0  # atno 10764 bound_to 10752
  154.1058  135.2930  155.3221 H   0  0  0  0  0  0  0  0  0  0  0  0  # atno 10765 bound_to 10752
  140.8800  134.1944  157.4597 H   0  0  0  0  0  0  0  0  0  0  0  0  # atno 11005 bound_to 11000
  144.8728  140.7295  143.6036 LP  0  0  0  0  0  0  0  0  0  0  0  0  # atno 17320 bound_to 7965
  145.3416  139.1730  143.4482 LP  0  0  0  0  0  0  0  0  0  0  0  0  # atno 17321 bound_to 7965
  140.1230  143.4594  152.2301 LP  0  0  0  0  0  0  0  0  0  0  0  0  # atno 17342 bound_to 10162
  139.5707  144.7461  151.3898 LP  0  0  0  0  0  0  0  0  0  0  0  0  # atno 17343 bound_to 10162
  157.3299  131.0697  151.1869 LP  0  0  0  0  0  0  0  0  0  0  0  0  # atno 17370 bound_to 10713
  157.2753  130.6724  149.6039 LP  0  0  0  0  0  0  0  0  0  0  0  0  # atno 17371 bound_to 10713
  139.8719  134.9813  156.5109 LP  0  0  0  0  0  0  0  0  0  0  0  0  # atno 17394 bound_to 11000
  140.8473  133.8159  155.9133 LP  0  0  0  0  0  0  0  0  0  0  0  0  # atno 17395 bound_to 11000

$$$$
