AV-unprocessed.smi:1762|AV-procd|sdf|7111|dock2
  -GOLD-   22720 8333D 1   1.00000     0.00000
 Structure written by MMmdl.
 53 54  0  0  0  0  0  0  0  0  2 V2000
  144.9549  132.4281  150.7421 C   0  0  0  0  0  0  0  0  0  0  0  0
  145.6263  133.7088  151.2513 C   0  0  2  0  0  0  0  0  0  0  0  0
  146.3411  133.4885  152.5975 C   0  0  0  0  0  0  0  0  0  0  0  0
  146.9139  134.7623  153.1129 N   0  3  2  0  0  0  0  0  0  0  0  0
  147.7194  134.6410  154.3768 C   0  0  2  0  0  0  0  0  0  0  0  0
  147.9471  136.0252  155.0218 C   0  0  0  0  0  0  0  0  0  0  0  0
  147.5614  136.2441  156.1709 O   0  0  0  0  0  0  0  0  0  0  0  0
  148.5767  136.9439  154.2743 N   0  0  0  0  0  0  0  0  0  0  0  0
  148.8855  138.2954  154.7206 C   0  0  0  0  0  0  0  0  0  0  0  0
  150.4018  138.4887  154.8591 C   0  0  0  0  0  0  0  0  0  0  0  0
  150.7492  139.6705  155.7445 C   0  0  0  0  0  0  0  0  0  0  0  0
  151.3392  139.4740  157.0113 C   0  0  0  0  0  0  0  0  0  0  0  0
  151.6512  140.6063  157.7885 C   0  0  0  0  0  0  0  0  0  0  0  0
  151.3640  141.8842  157.2712 C   0  0  0  0  0  0  0  0  0  0  0  0
  150.7737  141.9735  155.9950 C   0  0  0  0  0  0  0  0  0  0  0  0
  150.4700  140.8943  155.2419 N   0  0  0  0  0  0  0  0  0  0  0  0
  149.0793  133.8826  154.2051 C   0  0  0  0  0  0  0  0  0  0  0  0
  148.9079  132.4247  153.7343 C   0  0  0  0  0  0  0  0  0  0  0  0
  149.9888  133.9319  155.4509 C   0  0  0  0  0  0  0  0  0  0  0  0
  145.8213  135.7730  153.2134 C   0  0  0  0  0  0  0  0  0  0  0  0
  145.0907  135.9588  151.8714 C   0  0  1  0  0  0  0  0  0  0  0  0
  145.9218  136.7140  150.8188 C   0  0  0  0  0  0  0  0  0  0  0  0
  144.6175  134.7017  151.3960 O   0  0  0  0  0  0  0  0  0  0  0  0
  145.6848  131.6305  150.6007 H   0  0  0  0  0  0  0  0  0  0  0  0
  144.4632  132.6000  149.7843 H   0  0  0  0  0  0  0  0  0  0  0  0
  144.2006  132.0711  151.4435 H   0  0  0  0  0  0  0  0  0  0  0  0
  146.3512  134.0268  150.5018 H   0  0  0  0  0  0  0  0  0  0  0  0
  145.6524  133.0735  153.3354 H   0  0  0  0  0  0  0  0  0  0  0  0
  147.1151  132.7439  152.4244 H   0  0  0  0  0  0  0  0  0  0  0  0
  147.1129  134.0507  155.0670 H   0  0  0  0  0  0  0  0  0  0  0  0
  148.8606  136.6923  153.3384 H   0  0  0  0  0  0  0  0  0  0  0  0
  148.4792  139.0115  154.0046 H   0  0  0  0  0  0  0  0  0  0  0  0
  148.3977  138.4844  155.6788 H   0  0  0  0  0  0  0  0  0  0  0  0
  150.8577  137.5900  155.2776 H   0  0  0  0  0  0  0  0  0  0  0  0
  150.8520  138.6325  153.8758 H   0  0  0  0  0  0  0  0  0  0  0  0
  151.5506  138.4809  157.3796 H   0  0  0  0  0  0  0  0  0  0  0  0
  152.1033  140.4965  158.7628 H   0  0  0  0  0  0  0  0  0  0  0  0
  151.5916  142.7747  157.8384 H   0  0  0  0  0  0  0  0  0  0  0  0
  150.5405  142.9374  155.5672 H   0  0  0  0  0  0  0  0  0  0  0  0
  149.6211  134.3546  153.3868 H   0  0  0  0  0  0  0  0  0  0  0  0
  148.4725  131.7913  154.5076 H   0  0  0  0  0  0  0  0  0  0  0  0
  149.8709  131.9885  153.4665 H   0  0  0  0  0  0  0  0  0  0  0  0
  148.2681  132.3668  152.8533 H   0  0  0  0  0  0  0  0  0  0  0  0
  149.5669  133.3646  156.2808 H   0  0  0  0  0  0  0  0  0  0  0  0
  150.1531  134.9510  155.7994 H   0  0  0  0  0  0  0  0  0  0  0  0
  150.9676  133.5041  155.2327 H   0  0  0  0  0  0  0  0  0  0  0  0
  145.1086  135.4466  153.9725 H   0  0  0  0  0  0  0  0  0  0  0  0
  146.1922  136.7445  153.5388 H   0  0  0  0  0  0  0  0  0  0  0  0
  144.2012  136.5608  152.0598 H   0  0  0  0  0  0  0  0  0  0  0  0
  146.1482  137.7246  151.1595 H   0  0  0  0  0  0  0  0  0  0  0  0
  145.3753  136.7988  149.8794 H   0  0  0  0  0  0  0  0  0  0  0  0
  146.8728  136.2243  150.6110 H   0  0  0  0  0  0  0  0  0  0  0  0
  147.5549  135.0942  152.4061 H   0  0  0  0  0  0  0  0  0  0  0  0
  1  2  1  0  0  0  0
  1 24  1  0  0  0  0
  1 25  1  0  0  0  0
  1 26  1  0  0  0  0
  2 23  1  0  0  0  0
  2  3  1  0  0  0  0
  2 27  1  0  0  0  0
  3  4  1  0  0  0  0
  3 28  1  0  0  0  0
  3 29  1  0  0  0  0
  4  5  1  0  0  0  0
  4 20  1  0  0  0  0
  4 53  1  0  0  0  0
  5  6  1  0  0  0  0
  5 17  1  0  0  0  0
  5 30  1  0  0  0  0
  6  7  2  0  0  0  0
  6  8  1  0  0  0  0
  8  9  1  0  0  0  0
  8 31  1  0  0  0  0
  9 10  1  0  0  0  0
  9 32  1  0  0  0  0
  9 33  1  0  0  0  0
 10 11  1  0  0  0  0
 10 34  1  0  0  0  0
 10 35  1  0  0  0  0
 11 16  1  0  0  0  0
 11 12  2  0  0  0  0
 12 13  1  0  0  0  0
 12 36  1  0  0  0  0
 13 14  2  0  0  0  0
 13 37  1  0  0  0  0
 14 15  1  0  0  0  0
 14 38  1  0  0  0  0
 15 16  2  0  0  0  0
 15 39  1  0  0  0  0
 17 18  1  0  0  0  0
 17 19  1  0  0  0  0
 17 40  1  0  0  0  0
 18 41  1  0  0  0  0
 18 42  1  0  0  0  0
 18 43  1  0  0  0  0
 19 44  1  0  0  0  0
 19 45  1  0  0  0  0
 19 46  1  0  0  0  0
 20 21  1  0  0  0  0
 20 47  1  0  0  0  0
 20 48  1  0  0  0  0
 21 22  1  0  0  0  0
 21 23  1  0  0  0  0
 21 49  1  0  0  0  0
 22 50  1  0  0  0  0
 22 51  1  0  0  0  0
 22 52  1  0  0  0  0
M  CHG  1   4   1
M  END
> <s_m_source_file>
AV-unprocessed.smi

> <i_m_source_file_index>
1762

> <i_lp_mmshare_version>
43012

> <i_f3d_flags>
0

> <s_epik_input>
W0NIM11bQ0BASF0xW0NIMl1OKFtDSDJdW0NASF0oTzEpW0NIM10pW0NAQEhdKFtDSF0oW0NIM10pW0NIM10pQyg9TylbTkhdW0NIMl1bQ0gyXWMyW2NIXVtjSF1bY0hdW2NIXW4y

> <s_epik_cmdline>
J2VwaWtfcHl0aG9uJywgJy1waCcsICc3LjAnLCAnLXRuJywgJzgnLCAnLW1hJywgJzIwMCcsICctbWV0YWxfYmluZGluZycsICctaW1hZScsICc8aW5maWxlLm1hZT4nLCAnLW9tYWUnLCAnPG91dGZpbGUubWFlPic=

> <r_epik_Ionization_Penalty>
2.27005

> <r_epik_Ionization_Penalty_Charging>
2.24983

> <r_epik_Ionization_Penalty_Neutral>
0.0202209

> <r_epik_State_Penalty>
2.40228

> <r_epik_Charging_Adjusted_Penalty>
4.65211

> <i_epik_Tot_Q>
1

> <i_epik_Tot_abs_Q>
1

> <r_epik_Metal_State_Penalty>
2.40762

> <b_epik_Metal_Only>
0

> <s_lp_Force_Field>
OPLS_2005

> <r_lp_Energy>
24.4928

> <b_lp_Chiralities_Consistent>
1

> <s_lp_Variant>
AV-unprocessed.smi:1762-13

> <Gold.Version>
5.8.1

> <Gold.Id.Protein>
6NUR|6NUR_protein|mol2

> <Gold.PLP.Fitness>
48.4906

> <Gold.PLP.PLP>
-35.5501

> <Gold.PLP.part.hbond>
-2.9689

> <Gold.PLP.part.metal>
0.0000

> <Gold.PLP.part.buried>
-2.2479

> <Gold.PLP.part.nonpolar>
-29.9037

> <Gold.PLP.part.repulsive>
0.2632

> <Gold.PLP.ligand.clash>
0.0000

> <Gold.PLP.ligand.torsion>
0.5969

> <Gold.PLP.Chemscore.Hbond>
3.5903

> <Gold.PLP.Chemscore.CHOScore>
1.0000

> <Gold.PLP.Chemscore.Metal>
0.0000

> <Gold.Chemscore.Hbonds>
donor molecule, donor type, donor heavy atom, donor atom, acceptor molecule, acceptor atom, score
      L1  H     4    53       P1  7948  2.00
      L1  H     8    31       P1  7948  1.00
      P1  H  7989  7998       L1    16  0.68
      L1  C    15    39       P1  8028  1.00

> <Gold.PLP.Chemscore.Internal.Correction>
0.3635

> <Gold.Rescore>
     Score         DG    S(hbond)    S(metal)    S(lipo)     H(rot)  DE(clash)    DE(int)     intcor
     18.18     -20.40       2.41        0.00      94.97       1.66       0.41       1.81       ----

> <Gold.Chemscore.Fitness>
18.1793

> <Gold.Chemscore.DG>
-20.3960

> <Gold.Chemscore.ZeroCoef>
-5.4800

> <Gold.Chemscore.Hbond>
2.4142

> <Gold.Chemscore.Metal>
0.0000

> <Gold.Chemscore.Lipo>
94.9663

> <Gold.Chemscore.Internal_Hbond>
0.0000

> <Gold.Chemscore.DEClash>
0.4077

> <Gold.Chemscore.DEInternal>
1.8089

> <Gold.Chemscore.Rot>
1.6635

> <Gold.Chemscore.Internal.Correction>
   9.000000E+99

> <Gold.Chemscore.Hbonds>
donor molecule, donor type, donor heavy atom, donor atom, acceptor molecule, acceptor atom, score
      L1  H     4    53       P1  7948  0.95
      L1  H     8    31       P1  7948  0.93
      P1  H  7989  7998       L1    16  0.15

> <Gold.Chemscore.Hbond.Weighted>
-8.0635

> <Gold.Chemscore.Metal.Weighted>
-0.0000

> <Gold.Chemscore.Lipo.Weighted>
-11.1111

> <Gold.Chemscore.Internal_Hbond.Weighted>
0.0000

> <Gold.Chemscore.DEClash.Weighted>
0.4077

> <Gold.Chemscore.DEInternal.Weighted>
1.8089

> <Gold.Chemscore.Rot.Weighted>
4.2586

> <Gold.Chemscore.Internal.Correction.Weighted>
   9.000000E+99

> <Gold.Protein.RotatedTorsions>
[ 6907 6896 6895 6894 ] final  -42.92 input  -60.11 | X-H torsion
[ 7974 7965 7964 7962 ] final -102.32 input  175.53 | X-H torsion
[ 8008 7997 7996 7995 ] final  -65.13 input   59.86 | X-H torsion
[ 10167 10162 10161 10158 ] final -107.15 input  -65.29 | X-H torsion
[ 10718 10713 10712 10709 ] final  139.48 input   66.30 | X-H torsion
[ 10763 10752 10751 10750 ] final   90.17 input  -60.55 | X-H torsion
[ 11005 11000 10999 10996 ] final  -18.83 input  -57.11 | X-H torsion

> <Gold.Protein.ActiveResidues>
 VAL166  LYS551  ARG553  GLY616  TRP617  ASP618  TYR619  PRO620  LYS621  CYS622 
 ASP623  PHE694  ASN695  SER759  ASP760  ASP761  ALA762  ILE779  LEU786  VAL792 
 PHE793  MET794  SER795  GLU796  ALA797  LYS798  CYS799  TRP800  GLU811  SER814 

> <Gold.Protein.RotatedAtoms>
  150.9498  134.8899  159.7664 H   0  0  0  0  0  0  0  0  0  0  0  0  # atno 6907 bound_to 6896
  152.5115  134.3823  159.9365 H   0  0  0  0  0  0  0  0  0  0  0  0  # atno 6908 bound_to 6896
  151.3840  133.3771  159.2748 H   0  0  0  0  0  0  0  0  0  0  0  0  # atno 6909 bound_to 6896
  145.2702  140.9296  143.2991 H   0  0  0  0  0  0  0  0  0  0  0  0  # atno 7974 bound_to 7965
  154.4653  140.0939  156.7003 H   0  0  0  0  0  0  0  0  0  0  0  0  # atno 8008 bound_to 7997
  155.4877  140.3469  155.4331 H   0  0  0  0  0  0  0  0  0  0  0  0  # atno 8009 bound_to 7997
  156.0944  140.1406  156.9538 H   0  0  0  0  0  0  0  0  0  0  0  0  # atno 8010 bound_to 7997
  140.1801  143.3974  152.1288 H   0  0  0  0  0  0  0  0  0  0  0  0  # atno 10167 bound_to 10162
  157.4139  131.1031  151.0425 H   0  0  0  0  0  0  0  0  0  0  0  0  # atno 10718 bound_to 10713
  153.1947  135.4444  155.0193 H   0  0  0  0  0  0  0  0  0  0  0  0  # atno 10763 bound_to 10752
  154.8111  135.3295  154.7303 H   0  0  0  0  0  0  0  0  0  0  0  0  # atno 10764 bound_to 10752
  153.7754  135.6981  153.4954 H   0  0  0  0  0  0  0  0  0  0  0  0  # atno 10765 bound_to 10752
  140.8307  133.7999  155.9756 H   0  0  0  0  0  0  0  0  0  0  0  0  # atno 11005 bound_to 11000
  144.9342  139.4263  143.6480 LP  0  0  0  0  0  0  0  0  0  0  0  0  # atno 17320 bound_to 7965
  146.3249  139.8268  142.8916 LP  0  0  0  0  0  0  0  0  0  0  0  0  # atno 17321 bound_to 7965
  139.5300  144.7148  151.5090 LP  0  0  0  0  0  0  0  0  0  0  0  0  # atno 17342 bound_to 10162
  140.6525  143.8666  150.6801 LP  0  0  0  0  0  0  0  0  0  0  0  0  # atno 17343 bound_to 10162
  157.1379  130.6130  149.5547 LP  0  0  0  0  0  0  0  0  0  0  0  0  # atno 17370 bound_to 10713
  155.9859  130.4891  150.7054 LP  0  0  0  0  0  0  0  0  0  0  0  0  # atno 17371 bound_to 10713
  140.9001  134.2389  157.5046 LP  0  0  0  0  0  0  0  0  0  0  0  0  # atno 17394 bound_to 11000
  139.8705  134.9702  156.4694 LP  0  0  0  0  0  0  0  0  0  0  0  0  # atno 17395 bound_to 11000

$$$$
