AV-unprocessed.smi:2062|AV-procd|sdf|8406|dock5
  -GOLD-   2272011 93D 1   1.00000     0.00000
 Structure written by MMmdl.
 41 42  0  0  0  0  0  0  0  0  2 V2000
  153.0178  144.6034  158.5137 C   0  0  0  0  0  0  0  0  0  0  0  0
  151.6267  144.1285  158.0690 C   0  0  0  0  0  0  0  0  0  0  0  0
  150.5318  144.8212  158.8965 C   0  0  0  0  0  0  0  0  0  0  0  0
  151.5274  142.5903  158.1623 C   0  0  0  0  0  0  0  0  0  0  0  0
  150.5996  141.9525  157.2270 N   0  0  0  0  0  0  0  0  0  0  0  0
  151.1101  141.9150  155.8584 C   0  0  0  0  0  0  0  0  0  0  0  0
  150.1349  141.2082  154.9022 C   0  0  0  0  0  0  0  0  0  0  0  0
  149.8625  139.8974  155.3844 O   0  0  0  0  0  0  0  0  0  0  0  0
  149.3001  139.8940  156.6948 C   0  0  1  0  0  0  0  0  0  0  0  0
  149.0320  138.4375  157.1111 C   0  0  0  0  0  0  0  0  0  0  0  0
  148.4633  138.3526  158.4523 N   0  0  0  0  0  0  0  0  0  0  0  0
  148.5088  137.2821  159.2580 C   0  0  0  0  0  0  0  0  0  0  0  0
  149.0641  136.2487  158.8773 O   0  0  0  0  0  0  0  0  0  0  0  0
  147.9101  137.4761  160.4552 N   0  5  0  0  0  0  0  0  0  0  0  0
  147.1343  136.5152  160.9826 C   0  0  0  0  0  0  0  0  0  0  0  0
  147.0126  135.2968  160.4425 N   0  0  0  0  0  0  0  0  0  0  0  0
  146.1490  134.4592  161.1510 C   0  0  0  0  0  0  0  0  0  0  0  0
  145.5927  135.0566  162.2510 C   0  0  0  0  0  0  0  0  0  0  0  0
  146.1410  136.6987  162.4314 S   0  0  0  0  0  0  0  0  0  0  0  0
  150.2861  140.5919  157.6519 C   0  0  0  0  0  0  0  0  0  0  0  0
  153.2125  144.3417  159.5543 H   0  0  0  0  0  0  0  0  0  0  0  0
  153.1133  145.6856  158.4198 H   0  0  0  0  0  0  0  0  0  0  0  0
  153.8009  144.1514  157.9045 H   0  0  0  0  0  0  0  0  0  0  0  0
  151.5110  144.4358  157.0303 H   0  0  0  0  0  0  0  0  0  0  0  0
  150.6030  144.5534  159.9510 H   0  0  0  0  0  0  0  0  0  0  0  0
  149.5360  144.5439  158.5493 H   0  0  0  0  0  0  0  0  0  0  0  0
  150.6111  145.9061  158.8225 H   0  0  0  0  0  0  0  0  0  0  0  0
  152.5201  142.1568  158.0312 H   0  0  0  0  0  0  0  0  0  0  0  0
  151.2296  142.3395  159.1816 H   0  0  0  0  0  0  0  0  0  0  0  0
  151.2838  142.9245  155.4885 H   0  0  0  0  0  0  0  0  0  0  0  0
  152.0725  141.4012  155.8358 H   0  0  0  0  0  0  0  0  0  0  0  0
  149.2049  141.7716  154.8114 H   0  0  0  0  0  0  0  0  0  0  0  0
  150.5663  141.1381  153.9037 H   0  0  0  0  0  0  0  0  0  0  0  0
  148.3601  140.4489  156.6839 H   0  0  0  0  0  0  0  0  0  0  0  0
  148.3362  137.9709  156.4134 H   0  0  0  0  0  0  0  0  0  0  0  0
  149.9523  137.8532  157.0652 H   0  0  0  0  0  0  0  0  0  0  0  0
  148.0028  139.1786  158.8055 H   0  0  0  0  0  0  0  0  0  0  0  0
  145.9872  133.4514  160.7988 H   0  0  0  0  0  0  0  0  0  0  0  0
  144.8979  134.6351  162.9614 H   0  0  0  0  0  0  0  0  0  0  0  0
  151.2043  140.0057  157.7170 H   0  0  0  0  0  0  0  0  0  0  0  0
  149.8577  140.6105  158.6547 H   0  0  0  0  0  0  0  0  0  0  0  0
  1  2  1  0  0  0  0
  1 21  1  0  0  0  0
  1 22  1  0  0  0  0
  1 23  1  0  0  0  0
  2  3  1  0  0  0  0
  2  4  1  0  0  0  0
  2 24  1  0  0  0  0
  3 25  1  0  0  0  0
  3 26  1  0  0  0  0
  3 27  1  0  0  0  0
  4  5  1  0  0  0  0
  4 28  1  0  0  0  0
  4 29  1  0  0  0  0
  5 20  1  0  0  0  0
  5  6  1  0  0  0  0
  6  7  1  0  0  0  0
  6 30  1  0  0  0  0
  6 31  1  0  0  0  0
  7  8  1  0  0  0  0
  7 32  1  0  0  0  0
  7 33  1  0  0  0  0
  8  9  1  0  0  0  0
  9 10  1  0  0  0  0
  9 20  1  0  0  0  0
  9 34  1  0  0  0  0
 10 11  1  0  0  0  0
 10 35  1  0  0  0  0
 10 36  1  0  0  0  0
 11 12  1  0  0  0  0
 11 37  1  0  0  0  0
 12 13  2  0  0  0  0
 12 14  1  0  0  0  0
 14 15  1  0  0  0  0
 15 19  1  0  0  0  0
 15 16  2  0  0  0  0
 16 17  1  0  0  0  0
 17 18  2  0  0  0  0
 17 38  1  0  0  0  0
 18 19  1  0  0  0  0
 18 39  1  0  0  0  0
 20 40  1  0  0  0  0
 20 41  1  0  0  0  0
M  CHG  1  14  -1
M  END
> <s_m_source_file>
AV-unprocessed.smi

> <i_m_source_file_index>
2062

> <i_lp_mmshare_version>
43012

> <i_f3d_flags>
0

> <s_epik_input>
W0NIM11bQ0hdKFtDSDNdKVtDSDJdTjFbQ0gyXVtDSDJdT1tDQEhdKFtDSDJdMSlbQ0gyXVtOSF1DKD1PKVtOSF1jMm5bY0hdW2NIXXMy

> <s_epik_cmdline>
J2VwaWtfcHl0aG9uJywgJy1waCcsICc3LjAnLCAnLXRuJywgJzgnLCAnLW1hJywgJzIwMCcsICctbWV0YWxfYmluZGluZycsICctaW1hZScsICc8aW5maWxlLm1hZT4nLCAnLW9tYWUnLCAnPG91dGZpbGUubWFlPic=

> <r_lp_tautomer_probability>
0.999

> <r_epik_Ionization_Penalty>
7.76343

> <r_epik_Ionization_Penalty_Charging>
5.65212

> <r_epik_Ionization_Penalty_Neutral>
2.11131

> <r_epik_State_Penalty>
6.82229

> <r_epik_Charging_Adjusted_Penalty>
12.4744

> <i_epik_Tot_Q>
-1

> <i_epik_Tot_abs_Q>
1

> <r_epik_Metal_State_Penalty>
2.82401

> <b_epik_Metal_Only>
1

> <s_lp_Force_Field>
OPLS_2005

> <r_lp_Energy>
19.1571

> <b_lp_Chiralities_Consistent>
1

> <s_lp_Variant>
AV-unprocessed.smi:2062-11

> <Gold.Version>
5.8.1

> <Gold.Id.Protein>
6NUR|6NUR_protein|mol2

> <Gold.PLP.Fitness>
45.4879

> <Gold.PLP.PLP>
-39.3273

> <Gold.PLP.part.hbond>
-2.4705

> <Gold.PLP.part.metal>
0.0000

> <Gold.PLP.part.buried>
-6.2183

> <Gold.PLP.part.nonpolar>
-31.7378

> <Gold.PLP.part.repulsive>
0.3028

> <Gold.PLP.ligand.clash>
0.0000

> <Gold.PLP.ligand.torsion>
0.9437

> <Gold.PLP.Chemscore.Hbond>
2.6640

> <Gold.PLP.Chemscore.CHOScore>
0.0000

> <Gold.PLP.Chemscore.Metal>
0.0000

> <Gold.Chemscore.Hbonds>
donor molecule, donor type, donor heavy atom, donor atom, acceptor molecule, acceptor atom, score
      P1  H  6896  6909       L1    13  0.11
      P1  H  6931  6943       L1    14  1.22
      P1  H  6934  6947       L1    14  1.47

> <Gold.PLP.Chemscore.Internal.Correction>
0.0560

> <Gold.Rescore>
     Score         DG    S(hbond)    S(metal)    S(lipo)     H(rot)  DE(clash)    DE(int)     intcor
     17.12     -18.26       1.85        0.00      93.21       1.68       0.03       1.11       ----

> <Gold.Chemscore.Fitness>
17.1224

> <Gold.Chemscore.DG>
-18.2569

> <Gold.Chemscore.ZeroCoef>
-5.4800

> <Gold.Chemscore.Hbond>
1.8463

> <Gold.Chemscore.Metal>
0.0000

> <Gold.Chemscore.Lipo>
93.2108

> <Gold.Chemscore.Internal_Hbond>
0.0000

> <Gold.Chemscore.DEClash>
0.0280

> <Gold.Chemscore.DEInternal>
1.1065

> <Gold.Chemscore.Rot>
1.6779

> <Gold.Chemscore.Internal.Correction>
   9.000000E+99

> <Gold.Chemscore.Hbonds>
donor molecule, donor type, donor heavy atom, donor atom, acceptor molecule, acceptor atom, score
      P1  H  6896  6909       L1    13  0.14
      P1  H  6931  6943       L1    14  0.39
      P1  H  6934  6947       L1    14  0.44

> <Gold.Chemscore.Hbond.Weighted>
-6.1666

> <Gold.Chemscore.Metal.Weighted>
-0.0000

> <Gold.Chemscore.Lipo.Weighted>
-10.9057

> <Gold.Chemscore.Internal_Hbond.Weighted>
0.0000

> <Gold.Chemscore.DEClash.Weighted>
0.0280

> <Gold.Chemscore.DEInternal.Weighted>
1.1065

> <Gold.Chemscore.Rot.Weighted>
4.2953

> <Gold.Chemscore.Internal.Correction.Weighted>
   9.000000E+99

> <Gold.Protein.RotatedTorsions>
[ 6907 6896 6895 6894 ] final   56.12 input  -60.11 | X-H torsion
[ 7974 7965 7964 7962 ] final  163.79 input  175.53 | X-H torsion
[ 8008 7997 7996 7995 ] final  120.45 input   59.86 | X-H torsion
[ 10167 10162 10161 10158 ] final  -31.29 input  -65.29 | X-H torsion
[ 10718 10713 10712 10709 ] final  -51.58 input   66.30 | X-H torsion
[ 10763 10752 10751 10750 ] final    5.35 input  -60.55 | X-H torsion
[ 11005 11000 10999 10996 ] final  -66.47 input  -57.11 | X-H torsion

> <Gold.Protein.ActiveResidues>
 VAL166  LYS551  ARG553  GLY616  TRP617  ASP618  TYR619  PRO620  LYS621  CYS622 
 ASP623  PHE694  ASN695  SER759  ASP760  ASP761  ALA762  ILE779  LEU786  VAL792 
 PHE793  MET794  SER795  GLU796  ALA797  LYS798  CYS799  TRP800  GLU811  SER814 

> <Gold.Protein.RotatedAtoms>
  152.3605  134.6879  160.0208 H   0  0  0  0  0  0  0  0  0  0  0  0  # atno 6907 bound_to 6896
  151.7203  133.3309  159.3322 H   0  0  0  0  0  0  0  0  0  0  0  0  # atno 6908 bound_to 6896
  150.7601  134.6388  159.6270 H   0  0  0  0  0  0  0  0  0  0  0  0  # atno 6909 bound_to 6896
  144.7574  139.8233  143.6345 H   0  0  0  0  0  0  0  0  0  0  0  0  # atno 7974 bound_to 7965
  156.2643  140.2830  156.1152 H   0  0  0  0  0  0  0  0  0  0  0  0  # atno 8008 bound_to 7997
  155.1215  140.0392  157.2768 H   0  0  0  0  0  0  0  0  0  0  0  0  # atno 8009 bound_to 7997
  154.6667  140.2578  155.7057 H   0  0  0  0  0  0  0  0  0  0  0  0  # atno 8010 bound_to 7997
  140.7238  143.3782  151.1650 H   0  0  0  0  0  0  0  0  0  0  0  0  # atno 10167 bound_to 10162
  156.1698  130.4149  149.9665 H   0  0  0  0  0  0  0  0  0  0  0  0  # atno 10718 bound_to 10713
  153.2604  135.6922  153.7584 H   0  0  0  0  0  0  0  0  0  0  0  0  # atno 10763 bound_to 10752
  153.6646  135.3354  155.3137 H   0  0  0  0  0  0  0  0  0  0  0  0  # atno 10764 bound_to 10752
  154.8428  135.4485  154.1592 H   0  0  0  0  0  0  0  0  0  0  0  0  # atno 10765 bound_to 10752
  141.1483  133.6700  156.6145 H   0  0  0  0  0  0  0  0  0  0  0  0  # atno 11005 bound_to 11000
  146.1599  139.4710  142.9995 LP  0  0  0  0  0  0  0  0  0  0  0  0  # atno 17320 bound_to 7965
  145.6733  141.0210  143.1645 LP  0  0  0  0  0  0  0  0  0  0  0  0  # atno 17321 bound_to 7965
  139.7366  143.8989  152.3037 LP  0  0  0  0  0  0  0  0  0  0  0  0  # atno 17342 bound_to 10162
  139.8796  144.7025  150.8893 LP  0  0  0  0  0  0  0  0  0  0  0  0  # atno 17343 bound_to 10162
  156.7469  130.9100  151.3635 LP  0  0  0  0  0  0  0  0  0  0  0  0  # atno 17370 bound_to 10713
  157.6794  130.9125  150.0230 LP  0  0  0  0  0  0  0  0  0  0  0  0  # atno 17371 bound_to 10713
  140.3589  134.7705  157.4519 LP  0  0  0  0  0  0  0  0  0  0  0  0  # atno 17394 bound_to 11000
  140.0801  134.5743  155.8549 LP  0  0  0  0  0  0  0  0  0  0  0  0  # atno 17395 bound_to 11000

$$$$
