AV-unprocessed.smi:984|AV-procd|sdf|4317|dock10
  -GOLD-   22720 2223D 1   1.00000     0.00000
 Structure written by MMmdl.
 34 34  0  0  0  0  0  0  0  0  1 V2000
  152.2047  145.9460  160.3161 C   0  0  0  0  0  0  0  0  0  0  0  0
  152.1846  144.9323  159.1676 C   0  0  0  0  0  0  0  0  0  0  0  0
  151.1342  143.8255  159.3731 C   0  0  0  0  0  0  0  0  0  0  0  0
  149.6780  144.3275  159.4188 C   0  0  0  0  0  0  0  0  0  0  0  0
  148.8325  143.6497  158.4406 N   0  0  0  0  0  0  0  0  0  0  0  0
  147.7442  142.9210  158.7316 C   0  0  0  0  0  0  0  0  0  0  0  0
  147.2946  142.8030  159.8718 O   0  0  0  0  0  0  0  0  0  0  0  0
  147.0636  142.2096  157.5589 C   0  0  0  0  0  0  0  0  0  0  0  0
  147.9967  142.0745  156.4463 N   0  0  0  0  0  0  0  0  0  0  0  0
  148.5507  140.9293  156.0173 C   0  0  0  0  0  0  0  0  0  0  0  0
  148.2311  139.8174  156.4363 O   0  0  0  0  0  0  0  0  0  0  0  0
  149.6601  141.0677  154.9744 C   0  0  0  0  0  0  0  0  0  0  0  0
  150.4031  139.8245  154.8524 N   0  0  0  0  0  0  0  0  0  0  0  0
  151.5498  139.4398  155.4171 C   0  0  0  0  0  0  0  0  0  0  0  0
  151.9490  138.2304  155.0485 N   0  0  0  0  0  0  0  0  0  0  0  0
  150.9309  137.9033  154.1980 C   0  0  0  0  0  0  0  0  0  0  0  0
  149.9785  138.8236  154.0446 N   0  0  0  0  0  0  0  0  0  0  0  0
  152.9608  146.7122  160.1440 H   0  0  0  0  0  0  0  0  0  0  0  0
  152.4327  145.4617  161.2659 H   0  0  0  0  0  0  0  0  0  0  0  0
  151.2412  146.4463  160.4159 H   0  0  0  0  0  0  0  0  0  0  0  0
  151.9913  145.4664  158.2370 H   0  0  0  0  0  0  0  0  0  0  0  0
  153.1736  144.4841  159.0665 H   0  0  0  0  0  0  0  0  0  0  0  0
  151.2219  143.1020  158.5619 H   0  0  0  0  0  0  0  0  0  0  0  0
  151.3581  143.2780  160.2894 H   0  0  0  0  0  0  0  0  0  0  0  0
  149.2729  144.2290  160.4272 H   0  0  0  0  0  0  0  0  0  0  0  0
  149.6578  145.3931  159.1897 H   0  0  0  0  0  0  0  0  0  0  0  0
  149.1235  143.7008  157.4750 H   0  0  0  0  0  0  0  0  0  0  0  0
  146.6972  141.2351  157.8855 H   0  0  0  0  0  0  0  0  0  0  0  0
  146.1957  142.7761  157.2194 H   0  0  0  0  0  0  0  0  0  0  0  0
  148.3255  142.9338  156.0300 H   0  0  0  0  0  0  0  0  0  0  0  0
  149.2351  141.3183  154.0014 H   0  0  0  0  0  0  0  0  0  0  0  0
  150.3370  141.8765  155.2542 H   0  0  0  0  0  0  0  0  0  0  0  0
  152.1076  140.0610  156.1027 H   0  0  0  0  0  0  0  0  0  0  0  0
  150.8924  136.9598  153.6738 H   0  0  0  0  0  0  0  0  0  0  0  0
  1  2  1  0  0  0  0
  1 18  1  0  0  0  0
  1 19  1  0  0  0  0
  1 20  1  0  0  0  0
  2  3  1  0  0  0  0
  2 21  1  0  0  0  0
  2 22  1  0  0  0  0
  3  4  1  0  0  0  0
  3 23  1  0  0  0  0
  3 24  1  0  0  0  0
  4  5  1  0  0  0  0
  4 25  1  0  0  0  0
  4 26  1  0  0  0  0
  5  6  1  0  0  0  0
  5 27  1  0  0  0  0
  6  7  2  0  0  0  0
  6  8  1  0  0  0  0
  8  9  1  0  0  0  0
  8 28  1  0  0  0  0
  8 29  1  0  0  0  0
  9 10  1  0  0  0  0
  9 30  1  0  0  0  0
 10 11  2  0  0  0  0
 10 12  1  0  0  0  0
 12 13  1  0  0  0  0
 12 31  1  0  0  0  0
 12 32  1  0  0  0  0
 13 17  1  0  0  0  0
 13 14  1  0  0  0  0
 14 15  2  0  0  0  0
 14 33  1  0  0  0  0
 15 16  1  0  0  0  0
 16 17  2  0  0  0  0
 16 34  1  0  0  0  0
M  END
> <s_m_source_file>
AV-unprocessed.smi

> <i_m_source_file_index>
984

> <i_lp_mmshare_version>
43012

> <i_f3d_flags>
0

> <s_epik_input>
W0NIM11bQ0gyXVtDSDJdW0NIMl1bTkhdQyg9TylbQ0gyXVtOSF1DKD1PKVtDSDJdbjFbY0hdbltjSF1uMQ==

> <s_epik_cmdline>
J2VwaWtfcHl0aG9uJywgJy1waCcsICc3LjAnLCAnLXRuJywgJzgnLCAnLW1hJywgJzIwMCcsICctbWV0YWxfYmluZGluZycsICctaW1hZScsICc8aW5maWxlLm1hZT4nLCAnLW9tYWUnLCAnPG91dGZpbGUubWFlPic=

> <r_lp_tautomer_probability>
1

> <r_epik_Ionization_Penalty>
7.27004e-06

> <r_epik_Ionization_Penalty_Charging>
0

> <r_epik_Ionization_Penalty_Neutral>
7.27004e-06

> <r_epik_State_Penalty>
-0

> <r_epik_Charging_Adjusted_Penalty>
0

> <i_epik_Tot_Q>
0

> <i_epik_Tot_abs_Q>
0

> <r_epik_Metal_State_Penalty>
-0

> <b_epik_Metal_Only>
0

> <s_lp_Force_Field>
OPLS_2005

> <r_lp_Energy>
2.39519

> <b_lp_Chiralities_Consistent>
1

> <s_lp_Variant>
AV-unprocessed.smi:984-1

> <Gold.Version>
5.8.1

> <Gold.Id.Protein>
6NUR|6NUR_protein|mol2

> <Gold.PLP.Fitness>
40.2832

> <Gold.PLP.PLP>
-30.0076

> <Gold.PLP.part.hbond>
-5.0000

> <Gold.PLP.part.metal>
0.0000

> <Gold.PLP.part.buried>
-2.4598

> <Gold.PLP.part.nonpolar>
-23.6552

> <Gold.PLP.part.repulsive>
0.4001

> <Gold.PLP.ligand.clash>
0.0000

> <Gold.PLP.ligand.torsion>
1.2239

> <Gold.PLP.Chemscore.Hbond>
3.1064

> <Gold.PLP.Chemscore.CHOScore>
1.0973

> <Gold.PLP.Chemscore.Metal>
0.0000

> <Gold.Chemscore.Hbonds>
donor molecule, donor type, donor heavy atom, donor atom, acceptor molecule, acceptor atom, score
      L1  H     5    27       P1  8028  0.79
      L1  H     9    30       P1  8028  1.00
      P1  H  6933  6944       L1     7  0.78
      P1  H  6934  6946       L1     7  0.53
      L1  C    16    34       P1  7948  0.14
      L1  C    16    34       P1  7949  0.93

> <Gold.PLP.Chemscore.Internal.Correction>
0.1123

> <Gold.Rescore>
     Score         DG    S(hbond)    S(metal)    S(lipo)     H(rot)  DE(clash)    DE(int)     intcor
      8.40     -10.14       2.41        0.00      50.11       3.61       0.55       1.20       ----

> <Gold.Chemscore.Fitness>
8.4019

> <Gold.Chemscore.DG>
-10.1446

> <Gold.Chemscore.ZeroCoef>
-5.4800

> <Gold.Chemscore.Hbond>
2.4089

> <Gold.Chemscore.Metal>
0.0000

> <Gold.Chemscore.Lipo>
50.1149

> <Gold.Chemscore.Internal_Hbond>
0.0000

> <Gold.Chemscore.DEClash>
0.5475

> <Gold.Chemscore.DEInternal>
1.1953

> <Gold.Chemscore.Rot>
3.6111

> <Gold.Chemscore.Internal.Correction>
   9.000000E+99

> <Gold.Chemscore.Hbonds>
donor molecule, donor type, donor heavy atom, donor atom, acceptor molecule, acceptor atom, score
      L1  H     5    27       P1  8028  0.19
      L1  H     9    30       P1  8028  0.90
      P1  H  6933  6944       L1     7  0.72
      P1  H  6934  6946       L1     7  0.52

> <Gold.Chemscore.Hbond.Weighted>
-8.0456

> <Gold.Chemscore.Metal.Weighted>
-0.0000

> <Gold.Chemscore.Lipo.Weighted>
-5.8634

> <Gold.Chemscore.Internal_Hbond.Weighted>
0.0000

> <Gold.Chemscore.DEClash.Weighted>
0.5475

> <Gold.Chemscore.DEInternal.Weighted>
1.1953

> <Gold.Chemscore.Rot.Weighted>
9.2444

> <Gold.Chemscore.Internal.Correction.Weighted>
   9.000000E+99

> <Gold.Protein.RotatedTorsions>
[ 6907 6896 6895 6894 ] final  -58.20 input  -60.11 | X-H torsion
[ 7974 7965 7964 7962 ] final  101.18 input  175.53 | X-H torsion
[ 8008 7997 7996 7995 ] final   93.36 input   59.86 | X-H torsion
[ 10167 10162 10161 10158 ] final  124.51 input  -65.29 | X-H torsion
[ 10718 10713 10712 10709 ] final   77.34 input   66.30 | X-H torsion
[ 10763 10752 10751 10750 ] final  159.02 input  -60.55 | X-H torsion
[ 11005 11000 10999 10996 ] final   46.55 input  -57.11 | X-H torsion

> <Gold.Protein.ActiveResidues>
 VAL166  LYS551  ARG553  GLY616  TRP617  ASP618  TYR619  PRO620  LYS621  CYS622 
 ASP623  PHE694  ASN695  SER759  ASP760  ASP761  ALA762  ILE779  LEU786  VAL792 
 PHE793  MET794  SER795  GLU796  ALA797  LYS798  CYS799  TRP800  GLU811  SER814 

> <Gold.Protein.RotatedAtoms>
  150.8025  134.7128  159.6613 H   0  0  0  0  0  0  0  0  0  0  0  0  # atno 6907 bound_to 6896
  152.4143  134.6066  160.0024 H   0  0  0  0  0  0  0  0  0  0  0  0  # atno 6908 bound_to 6896
  151.6300  133.3295  159.3143 H   0  0  0  0  0  0  0  0  0  0  0  0  # atno 6909 bound_to 6896
  145.3757  139.2389  143.3431 H   0  0  0  0  0  0  0  0  0  0  0  0  # atno 7974 bound_to 7965
  156.0458  140.3314  155.7295 H   0  0  0  0  0  0  0  0  0  0  0  0  # atno 8008 bound_to 7997
  155.5676  140.0625  157.2832 H   0  0  0  0  0  0  0  0  0  0  0  0  # atno 8009 bound_to 7997
  154.4413  140.1866  156.0834 H   0  0  0  0  0  0  0  0  0  0  0  0  # atno 8010 bound_to 7997
  139.5738  144.6953  151.3708 H   0  0  0  0  0  0  0  0  0  0  0  0  # atno 10167 bound_to 10162
  157.6707  130.9817  150.1627 H   0  0  0  0  0  0  0  0  0  0  0  0  # atno 10718 bound_to 10713
  154.2252  135.2780  155.2910 H   0  0  0  0  0  0  0  0  0  0  0  0  # atno 10763 bound_to 10752
  154.5669  135.5630  153.7062 H   0  0  0  0  0  0  0  0  0  0  0  0  # atno 10764 bound_to 10752
  153.0032  135.6312  154.2392 H   0  0  0  0  0  0  0  0  0  0  0  0  # atno 10765 bound_to 10752
  140.1359  134.4646  155.8486 H   0  0  0  0  0  0  0  0  0  0  0  0  # atno 11005 bound_to 11000
  146.2865  140.4416  142.8756 LP  0  0  0  0  0  0  0  0  0  0  0  0  # atno 17320 bound_to 7965
  144.8544  140.7048  143.6147 LP  0  0  0  0  0  0  0  0  0  0  0  0  # atno 17321 bound_to 7965
  140.7021  143.7605  150.7420 LP  0  0  0  0  0  0  0  0  0  0  0  0  # atno 17342 bound_to 10162
  140.1119  143.4691  152.2365 LP  0  0  0  0  0  0  0  0  0  0  0  0  # atno 17343 bound_to 10162
  156.2399  130.3690  149.8348 LP  0  0  0  0  0  0  0  0  0  0  0  0  # atno 17370 bound_to 10713
  156.6151  130.8603  151.3463 LP  0  0  0  0  0  0  0  0  0  0  0  0  # atno 17371 bound_to 10713
  141.2178  133.6814  156.7156 LP  0  0  0  0  0  0  0  0  0  0  0  0  # atno 17394 bound_to 11000
  140.2783  134.8337  157.3910 LP  0  0  0  0  0  0  0  0  0  0  0  0  # atno 17395 bound_to 11000

$$$$
