AV-unprocessed.smi:3085|AV-procd|sdf|11763|dock6
  -GOLD-   2272017143D 1   1.00000     0.00000
 Structure written by MMmdl.
 26 27  0  0  0  0  0  0  0  0  2 V2000
  152.3015  143.2955  161.2834 C   0  0  0  0  0  0  0  0  0  0  0  0
  153.0995  141.9997  161.1074 C   0  0  0  0  0  0  0  0  0  0  0  0
  152.8254  141.3407  159.7736 C   0  0  0  0  0  0  0  0  0  0  0  0
  152.0179  141.8079  158.8271 N   0  0  0  0  0  0  0  0  0  0  0  0
  152.1149  140.9446  157.8050 C   0  0  0  0  0  0  0  0  0  0  0  0
  151.3405  141.0478  156.5059 C   0  0  1  0  0  0  0  0  0  0  0  0
  151.6180  139.8350  155.5945 C   0  0  0  0  0  0  0  0  0  0  0  0
  150.8609  139.9425  154.3472 N   0  0  0  0  0  0  0  0  0  0  0  0
  149.4337  140.1153  154.6084 C   0  0  0  0  0  0  0  0  0  0  0  0
  149.2046  141.3188  155.5383 C   0  0  0  0  0  0  0  0  0  0  0  0
  149.9366  141.1326  156.7440 O   0  0  0  0  0  0  0  0  0  0  0  0
  152.9580  139.9453  158.1077 N   0  0  0  0  0  0  0  0  0  0  0  0
  153.3972  140.2110  159.3210 N   0  5  0  0  0  0  0  0  0  0  0  0
  152.5129  143.7550  162.2486 H   0  0  0  0  0  0  0  0  0  0  0  0
  151.2292  143.1050  161.2301 H   0  0  0  0  0  0  0  0  0  0  0  0
  152.5525  144.0183  160.5065 H   0  0  0  0  0  0  0  0  0  0  0  0
  154.1673  142.2053  161.1859 H   0  0  0  0  0  0  0  0  0  0  0  0
  152.8539  141.2983  161.9052 H   0  0  0  0  0  0  0  0  0  0  0  0
  151.6673  141.9631  156.0086 H   0  0  0  0  0  0  0  0  0  0  0  0
  152.6840  139.7667  155.3764 H   0  0  0  0  0  0  0  0  0  0  0  0
  151.3465  138.9154  156.1147 H   0  0  0  0  0  0  0  0  0  0  0  0
  151.0061  139.1066  153.7907 H   0  0  0  0  0  0  0  0  0  0  0  0
  148.8954  140.2572  153.6713 H   0  0  0  0  0  0  0  0  0  0  0  0
  149.0295  139.2139  155.0707 H   0  0  0  0  0  0  0  0  0  0  0  0
  149.5015  142.2512  155.0554 H   0  0  0  0  0  0  0  0  0  0  0  0
  148.1456  141.4091  155.7804 H   0  0  0  0  0  0  0  0  0  0  0  0
  1  2  1  0  0  0  0
  1 14  1  0  0  0  0
  1 15  1  0  0  0  0
  1 16  1  0  0  0  0
  2  3  1  0  0  0  0
  2 17  1  0  0  0  0
  2 18  1  0  0  0  0
  3 13  1  0  0  0  0
  3  4  2  0  0  0  0
  4  5  1  0  0  0  0
  5  6  1  0  0  0  0
  5 12  2  0  0  0  0
  6 11  1  0  0  0  0
  6  7  1  0  0  0  0
  6 19  1  0  0  0  0
  7  8  1  0  0  0  0
  7 20  1  0  0  0  0
  7 21  1  0  0  0  0
  8  9  1  0  0  0  0
  8 22  1  0  0  0  0
  9 10  1  0  0  0  0
  9 23  1  0  0  0  0
  9 24  1  0  0  0  0
 10 11  1  0  0  0  0
 10 25  1  0  0  0  0
 10 26  1  0  0  0  0
 12 13  1  0  0  0  0
M  CHG  1  13  -1
M  END
> <s_m_source_file>
AV-unprocessed.smi

> <i_m_source_file_index>
3085

> <i_lp_mmshare_version>
43012

> <i_f3d_flags>
0

> <s_epik_input>
W0NIM11bQ0gyXWMxbmMobltuSF0xKVtDQEBIXTJbQ0gyXVtOSF1bQ0gyXVtDSDJdTzI=

> <s_epik_cmdline>
J2VwaWtfcHl0aG9uJywgJy1waCcsICc3LjAnLCAnLXRuJywgJzgnLCAnLW1hJywgJzIwMCcsICctbWV0YWxfYmluZGluZycsICctaW1hZScsICc8aW5maWxlLm1hZT4nLCAnLW9tYWUnLCAnPG91dGZpbGUubWFlPic=

> <r_lp_tautomer_probability>
0.948284

> <r_epik_Ionization_Penalty>
17.858

> <r_epik_Ionization_Penalty_Charging>
16.2847

> <r_epik_Ionization_Penalty_Neutral>
1.5733

> <r_epik_State_Penalty>
7.01418

> <r_epik_Charging_Adjusted_Penalty>
23.2989

> <i_epik_Tot_Q>
-1

> <i_epik_Tot_abs_Q>
1

> <r_epik_Metal_State_Penalty>
3.17281

> <b_epik_Metal_Only>
1

> <s_lp_Force_Field>
OPLS_2005

> <r_lp_Energy>
10.7333

> <b_lp_Chiralities_Consistent>
1

> <s_lp_Variant>
AV-unprocessed.smi:3085-14

> <Gold.Version>
5.8.1

> <Gold.Id.Protein>
6NUR|6NUR_protein|mol2

> <Gold.PLP.Fitness>
31.9978

> <Gold.PLP.PLP>
-26.0513

> <Gold.PLP.part.hbond>
-2.0000

> <Gold.PLP.part.metal>
0.0000

> <Gold.PLP.part.buried>
-4.3159

> <Gold.PLP.part.nonpolar>
-19.3577

> <Gold.PLP.part.repulsive>
0.0602

> <Gold.PLP.ligand.clash>
0.0000

> <Gold.PLP.ligand.torsion>
0.0333

> <Gold.PLP.Chemscore.Hbond>
2.0000

> <Gold.PLP.Chemscore.CHOScore>
0.0000

> <Gold.PLP.Chemscore.Metal>
0.0000

> <Gold.Chemscore.Hbonds>
donor molecule, donor type, donor heavy atom, donor atom, acceptor molecule, acceptor atom, score
      P1  H  7989  7998       L1     8  0.73
      P1  H  7997  8008       L1    12  1.00

> <Gold.PLP.Chemscore.Internal.Correction>
0.0132

> <Gold.Rescore>
     Score         DG    S(hbond)    S(metal)    S(lipo)     H(rot)  DE(clash)    DE(int)     intcor
     11.54     -11.71       1.12        0.00      48.87       1.26       0.00       0.17       ----

> <Gold.Chemscore.Fitness>
11.5399

> <Gold.Chemscore.DG>
-11.7087

> <Gold.Chemscore.ZeroCoef>
-5.4800

> <Gold.Chemscore.Hbond>
1.1212

> <Gold.Chemscore.Metal>
0.0000

> <Gold.Chemscore.Lipo>
48.8659

> <Gold.Chemscore.Internal_Hbond>
0.0000

> <Gold.Chemscore.DEClash>
0.0015

> <Gold.Chemscore.DEInternal>
0.1673

> <Gold.Chemscore.Rot>
1.2630

> <Gold.Chemscore.Internal.Correction>
   9.000000E+99

> <Gold.Chemscore.Hbonds>
donor molecule, donor type, donor heavy atom, donor atom, acceptor molecule, acceptor atom, score
      P1  H  7989  7998       L1     8  0.07
      P1  H  7997  8008       L1    12  0.32

> <Gold.Chemscore.Hbond.Weighted>
-3.7447

> <Gold.Chemscore.Metal.Weighted>
-0.0000

> <Gold.Chemscore.Lipo.Weighted>
-5.7173

> <Gold.Chemscore.Internal_Hbond.Weighted>
0.0000

> <Gold.Chemscore.DEClash.Weighted>
0.0015

> <Gold.Chemscore.DEInternal.Weighted>
0.1673

> <Gold.Chemscore.Rot.Weighted>
3.2333

> <Gold.Chemscore.Internal.Correction.Weighted>
   9.000000E+99

> <Gold.Protein.RotatedTorsions>
[ 6907 6896 6895 6894 ] final  137.68 input  -60.11 | X-H torsion
[ 7974 7965 7964 7962 ] final  114.73 input  175.53 | X-H torsion
[ 8008 7997 7996 7995 ] final  -82.40 input   59.86 | X-H torsion
[ 10167 10162 10161 10158 ] final   39.65 input  -65.29 | X-H torsion
[ 10718 10713 10712 10709 ] final  -25.57 input   66.30 | X-H torsion
[ 10763 10752 10751 10750 ] final  -53.92 input  -60.55 | X-H torsion
[ 11005 11000 10999 10996 ] final  -18.89 input  -57.11 | X-H torsion

> <Gold.Protein.ActiveResidues>
 VAL166  LYS551  ARG553  GLY616  TRP617  ASP618  TYR619  PRO620  LYS621  CYS622 
 ASP623  PHE694  ASN695  SER759  ASP760  ASP761  ALA762  ILE779  LEU786  VAL792 
 PHE793  MET794  SER795  GLU796  ALA797  LYS798  CYS799  TRP800  GLU811  SER814 

> <Gold.Protein.RotatedAtoms>
  152.2753  133.5420  159.5463 H   0  0  0  0  0  0  0  0  0  0  0  0  # atno 6907 bound_to 6896
  150.7175  134.0640  159.3850 H   0  0  0  0  0  0  0  0  0  0  0  0  # atno 6908 bound_to 6896
  151.8554  135.0543  160.0514 H   0  0  0  0  0  0  0  0  0  0  0  0  # atno 6909 bound_to 6896
  145.2008  139.2953  143.4319 H   0  0  0  0  0  0  0  0  0  0  0  0  # atno 7974 bound_to 7965
  154.6083  140.0633  156.9460 H   0  0  0  0  0  0  0  0  0  0  0  0  # atno 8008 bound_to 7997
  155.2016  140.3315  155.4324 H   0  0  0  0  0  0  0  0  0  0  0  0  # atno 8009 bound_to 7997
  156.2361  140.1863  156.7099 H   0  0  0  0  0  0  0  0  0  0  0  0  # atno 8010 bound_to 7997
  140.3819  144.1969  150.6130 H   0  0  0  0  0  0  0  0  0  0  0  0  # atno 10167 bound_to 10162
  156.4627  130.4507  149.6919 H   0  0  0  0  0  0  0  0  0  0  0  0  # atno 10718 bound_to 10713
  154.1666  135.6466  153.4999 H   0  0  0  0  0  0  0  0  0  0  0  0  # atno 10763 bound_to 10752
  153.0096  135.5373  154.6656 H   0  0  0  0  0  0  0  0  0  0  0  0  # atno 10764 bound_to 10752
  154.5984  135.2941  155.0534 H   0  0  0  0  0  0  0  0  0  0  0  0  # atno 10765 bound_to 10752
  140.8313  133.7995  155.9762 H   0  0  0  0  0  0  0  0  0  0  0  0  # atno 11005 bound_to 11000
  146.3418  140.2252  142.8592 LP  0  0  0  0  0  0  0  0  0  0  0  0  # atno 17320 bound_to 7965
  144.9949  140.8580  143.5316 LP  0  0  0  0  0  0  0  0  0  0  0  0  # atno 17321 bound_to 7965
  140.4929  143.2342  151.8792 LP  0  0  0  0  0  0  0  0  0  0  0  0  # atno 17342 bound_to 10162
  139.4795  144.5146  151.8886 LP  0  0  0  0  0  0  0  0  0  0  0  0  # atno 17343 bound_to 10162
  156.3700  130.7525  151.2508 LP  0  0  0  0  0  0  0  0  0  0  0  0  # atno 17370 bound_to 10713
  157.7497  131.0326  150.4233 LP  0  0  0  0  0  0  0  0  0  0  0  0  # atno 17371 bound_to 10713
  140.8995  134.2396  157.5050 LP  0  0  0  0  0  0  0  0  0  0  0  0  # atno 17394 bound_to 11000
  139.8705  134.9700  156.4685 LP  0  0  0  0  0  0  0  0  0  0  0  0  # atno 17395 bound_to 11000

$$$$
