AV-unprocessed.smi:1995|AV-procd|sdf|8080|dock4
  -GOLD-   2272010293D 1   1.00000     0.00000
 Structure written by MMmdl.
 41 42  0  0  0  0  0  0  0  0  2 V2000
  151.2017  141.9110  158.6664 C   0  0  0  0  0  0  0  0  0  0  0  0
  150.8083  140.4234  158.6096 C   0  0  0  0  0  0  0  0  0  0  0  0
  150.3387  139.9000  157.2150 C   0  0  1  0  0  0  0  0  0  0  0  0
  151.5974  139.8926  156.3058 C   0  0  0  0  0  0  0  0  0  0  0  0
  149.8428  138.4251  157.3689 C   0  0  0  0  0  0  0  0  0  0  0  0
  149.0430  138.1896  158.5720 N   0  0  0  0  0  0  0  0  0  0  0  0
  148.9370  137.0379  159.2508 C   0  0  0  0  0  0  0  0  0  0  0  0
  149.5607  136.0412  158.8787 O   0  0  0  0  0  0  0  0  0  0  0  0
  148.1034  137.1099  160.3133 N   0  5  0  0  0  0  0  0  0  0  0  0
  147.7589  135.9925  160.9738 C   0  0  0  0  0  0  0  0  0  0  0  0
  148.0802  134.7650  160.5494 N   0  0  0  0  0  0  0  0  0  0  0  0
  147.6278  133.7497  161.3940 C   0  0  0  0  0  0  0  0  0  0  0  0
  146.9529  134.2152  162.4912 C   0  0  0  0  0  0  0  0  0  0  0  0
  146.8655  135.9536  162.4968 S   0  0  0  0  0  0  0  0  0  0  0  0
  149.2847  140.7871  156.6439 N   0  0  0  0  0  0  0  0  0  0  0  0
  148.9672  140.5550  155.2303 C   0  0  0  0  0  0  0  0  0  0  0  0
  147.9832  141.6032  154.6831 C   0  0  0  0  0  0  0  0  0  0  0  0
  146.7963  141.6044  155.4675 O   0  0  0  0  0  0  0  0  0  0  0  0
  147.0525  141.8775  156.8401 C   0  0  0  0  0  0  0  0  0  0  0  0
  148.0290  140.8311  157.4033 C   0  0  0  0  0  0  0  0  0  0  0  0
  151.5157  142.1825  159.6744 H   0  0  0  0  0  0  0  0  0  0  0  0
  150.3699  142.5626  158.3997 H   0  0  0  0  0  0  0  0  0  0  0  0
  152.0324  142.1354  157.9982 H   0  0  0  0  0  0  0  0  0  0  0  0
  151.6716  139.8511  158.9503 H   0  0  0  0  0  0  0  0  0  0  0  0
  150.0431  140.2320  159.3620 H   0  0  0  0  0  0  0  0  0  0  0  0
  152.4598  139.4488  156.8044 H   0  0  0  0  0  0  0  0  0  0  0  0
  151.8843  140.9003  156.0048 H   0  0  0  0  0  0  0  0  0  0  0  0
  151.4391  139.3137  155.3958 H   0  0  0  0  0  0  0  0  0  0  0  0
  149.2865  138.1047  156.4881 H   0  0  0  0  0  0  0  0  0  0  0  0
  150.6907  137.7452  157.4420 H   0  0  0  0  0  0  0  0  0  0  0  0
  148.5105  138.9741  158.9183 H   0  0  0  0  0  0  0  0  0  0  0  0
  147.8326  132.7212  161.1370 H   0  0  0  0  0  0  0  0  0  0  0  0
  146.5063  133.6461  163.2925 H   0  0  0  0  0  0  0  0  0  0  0  0
  149.8658  140.5931  154.6171 H   0  0  0  0  0  0  0  0  0  0  0  0
  148.5325  139.5646  155.0969 H   0  0  0  0  0  0  0  0  0  0  0  0
  148.4344  142.5967  154.6915 H   0  0  0  0  0  0  0  0  0  0  0  0
  147.7257  141.3771  153.6483 H   0  0  0  0  0  0  0  0  0  0  0  0
  147.4596  142.8838  156.9494 H   0  0  0  0  0  0  0  0  0  0  0  0
  146.1114  141.8513  157.3895 H   0  0  0  0  0  0  0  0  0  0  0  0
  147.5412  139.8566  157.3853 H   0  0  0  0  0  0  0  0  0  0  0  0
  148.2112  141.0728  158.4486 H   0  0  0  0  0  0  0  0  0  0  0  0
  1  2  1  0  0  0  0
  1 21  1  0  0  0  0
  1 22  1  0  0  0  0
  1 23  1  0  0  0  0
  2  3  1  0  0  0  0
  2 24  1  0  0  0  0
  2 25  1  0  0  0  0
  3  4  1  0  0  0  0
  3  5  1  0  0  0  0
  3 15  1  0  0  0  0
  4 26  1  0  0  0  0
  4 27  1  0  0  0  0
  4 28  1  0  0  0  0
  5  6  1  0  0  0  0
  5 29  1  0  0  0  0
  5 30  1  0  0  0  0
  6  7  1  0  0  0  0
  6 31  1  0  0  0  0
  7  8  2  0  0  0  0
  7  9  1  0  0  0  0
  9 10  1  0  0  0  0
 10 14  1  0  0  0  0
 10 11  2  0  0  0  0
 11 12  1  0  0  0  0
 12 13  2  0  0  0  0
 12 32  1  0  0  0  0
 13 14  1  0  0  0  0
 13 33  1  0  0  0  0
 15 20  1  0  0  0  0
 15 16  1  0  0  0  0
 16 17  1  0  0  0  0
 16 34  1  0  0  0  0
 16 35  1  0  0  0  0
 17 18  1  0  0  0  0
 17 36  1  0  0  0  0
 17 37  1  0  0  0  0
 18 19  1  0  0  0  0
 19 20  1  0  0  0  0
 19 38  1  0  0  0  0
 19 39  1  0  0  0  0
 20 40  1  0  0  0  0
 20 41  1  0  0  0  0
M  CHG  1   9  -1
M  END
> <s_m_source_file>
AV-unprocessed.smi

> <i_m_source_file_index>
1995

> <i_lp_mmshare_version>
43012

> <i_f3d_flags>
0

> <s_epik_input>
W0NIMl0xW0NIMl1PW0NIMl1bQ0gyXU4xW0NAQF0oW0NIM10pKFtDSDJdW0NIM10pW0NIMl1bTkhdQyg9TylbTkhdYzJuW2NIXVtjSF1zMg==

> <s_epik_cmdline>
J2VwaWtfcHl0aG9uJywgJy1waCcsICc3LjAnLCAnLXRuJywgJzgnLCAnLW1hJywgJzIwMCcsICctbWV0YWxfYmluZGluZycsICctaW1hZScsICc8aW5maWxlLm1hZT4nLCAnLW9tYWUnLCAnPG91dGZpbGUubWFlPic=

> <r_lp_tautomer_probability>
0.999

> <r_epik_Ionization_Penalty>
8.86479

> <r_epik_Ionization_Penalty_Charging>
6.76546

> <r_epik_Ionization_Penalty_Neutral>
2.09933

> <r_epik_State_Penalty>
7.05418

> <r_epik_Charging_Adjusted_Penalty>
13.8196

> <i_epik_Tot_Q>
-1

> <i_epik_Tot_abs_Q>
1

> <r_epik_Metal_State_Penalty>
2.97744

> <b_epik_Metal_Only>
1

> <s_lp_Force_Field>
OPLS_2005

> <r_lp_Energy>
37.7031

> <b_lp_Chiralities_Consistent>
1

> <s_lp_Variant>
AV-unprocessed.smi:1995-5

> <Gold.Version>
5.8.1

> <Gold.Id.Protein>
6NUR|6NUR_protein|mol2

> <Gold.PLP.Fitness>
41.4211

> <Gold.PLP.PLP>
-31.7854

> <Gold.PLP.part.hbond>
-3.0000

> <Gold.PLP.part.metal>
0.0000

> <Gold.PLP.part.buried>
-5.2757

> <Gold.PLP.part.nonpolar>
-25.4834

> <Gold.PLP.part.repulsive>
0.3540

> <Gold.PLP.ligand.clash>
0.0000

> <Gold.PLP.ligand.torsion>
0.6793

> <Gold.PLP.Chemscore.Hbond>
3.6041

> <Gold.PLP.Chemscore.CHOScore>
0.0000

> <Gold.PLP.Chemscore.Metal>
0.0000

> <Gold.Chemscore.Hbonds>
donor molecule, donor type, donor heavy atom, donor atom, acceptor molecule, acceptor atom, score
      P1  H  6896  6909       L1     8  1.00
      P1  H  6931  6943       L1     9  1.00
      P1  H  6934  6947       L1     9  0.82

> <Gold.PLP.Chemscore.Internal.Correction>
0.1821

> <Gold.Rescore>
     Score         DG    S(hbond)    S(metal)    S(lipo)     H(rot)  DE(clash)    DE(int)     intcor
     13.12     -15.56       2.12        0.00      62.87       1.70       0.00       2.43       ----

> <Gold.Chemscore.Fitness>
13.1228

> <Gold.Chemscore.DG>
-15.5573

> <Gold.Chemscore.ZeroCoef>
-5.4800

> <Gold.Chemscore.Hbond>
2.1165

> <Gold.Chemscore.Metal>
0.0000

> <Gold.Chemscore.Lipo>
62.8742

> <Gold.Chemscore.Internal_Hbond>
0.0000

> <Gold.Chemscore.DEClash>
0.0038

> <Gold.Chemscore.DEInternal>
2.4307

> <Gold.Chemscore.Rot>
1.6985

> <Gold.Chemscore.Internal.Correction>
   9.000000E+99

> <Gold.Chemscore.Hbonds>
donor molecule, donor type, donor heavy atom, donor atom, acceptor molecule, acceptor atom, score
      P1  H  6896  6909       L1     8  1.00
      P1  H  6931  6943       L1     9  0.12
      P1  H  6934  6947       L1     9  0.39

> <Gold.Chemscore.Hbond.Weighted>
-7.0692

> <Gold.Chemscore.Metal.Weighted>
-0.0000

> <Gold.Chemscore.Lipo.Weighted>
-7.3563

> <Gold.Chemscore.Internal_Hbond.Weighted>
0.0000

> <Gold.Chemscore.DEClash.Weighted>
0.0038

> <Gold.Chemscore.DEInternal.Weighted>
2.4307

> <Gold.Chemscore.Rot.Weighted>
4.3482

> <Gold.Chemscore.Internal.Correction.Weighted>
   9.000000E+99

> <Gold.Protein.RotatedTorsions>
[ 6907 6896 6895 6894 ] final   60.75 input  -60.11 | X-H torsion
[ 7974 7965 7964 7962 ] final   82.53 input  175.53 | X-H torsion
[ 8008 7997 7996 7995 ] final -124.79 input   59.86 | X-H torsion
[ 10167 10162 10161 10158 ] final -102.79 input  -65.29 | X-H torsion
[ 10718 10713 10712 10709 ] final -177.74 input   66.30 | X-H torsion
[ 10763 10752 10751 10750 ] final -126.13 input  -60.55 | X-H torsion
[ 11005 11000 10999 10996 ] final   68.41 input  -57.11 | X-H torsion

> <Gold.Protein.ActiveResidues>
 VAL166  LYS551  ARG553  GLY616  TRP617  ASP618  TYR619  PRO620  LYS621  CYS622 
 ASP623  PHE694  ASN695  SER759  ASP760  ASP761  ALA762  ILE779  LEU786  VAL792 
 PHE793  MET794  SER795  GLU796  ALA797  LYS798  CYS799  TRP800  GLU811  SER814 

> <Gold.Protein.RotatedAtoms>
  152.4029  134.6255  160.0061 H   0  0  0  0  0  0  0  0  0  0  0  0  # atno 6907 bound_to 6896
  151.6455  133.3318  159.3148 H   0  0  0  0  0  0  0  0  0  0  0  0  # atno 6908 bound_to 6896
  150.7928  134.7006  159.6593 H   0  0  0  0  0  0  0  0  0  0  0  0  # atno 6909 bound_to 6896
  145.6238  139.2391  143.2123 H   0  0  0  0  0  0  0  0  0  0  0  0  # atno 7974 bound_to 7965
  155.2027  140.0416  157.2920 H   0  0  0  0  0  0  0  0  0  0  0  0  # atno 8008 bound_to 7997
  154.6064  140.2465  155.7697 H   0  0  0  0  0  0  0  0  0  0  0  0  # atno 8009 bound_to 7997
  156.2353  140.2924  156.0304 H   0  0  0  0  0  0  0  0  0  0  0  0  # atno 8010 bound_to 7997
  140.2269  143.3635  152.0921 H   0  0  0  0  0  0  0  0  0  0  0  0  # atno 10167 bound_to 10162
  156.8339  130.9663  151.3104 H   0  0  0  0  0  0  0  0  0  0  0  0  # atno 10718 bound_to 10713
  154.8743  135.4006  154.3381 H   0  0  0  0  0  0  0  0  0  0  0  0  # atno 10763 bound_to 10752
  153.4184  135.7022  153.6316 H   0  0  0  0  0  0  0  0  0  0  0  0  # atno 10764 bound_to 10752
  153.4988  135.3732  155.2500 H   0  0  0  0  0  0  0  0  0  0  0  0  # atno 10765 bound_to 10752
  139.9713  134.6896  156.0441 H   0  0  0  0  0  0  0  0  0  0  0  0  # atno 11005 bound_to 11000
  146.1410  140.7057  142.9367 LP  0  0  0  0  0  0  0  0  0  0  0  0  # atno 17320 bound_to 7965
  144.7220  140.4405  143.7001 LP  0  0  0  0  0  0  0  0  0  0  0  0  # atno 17321 bound_to 7965
  139.5124  144.6916  151.5745 LP  0  0  0  0  0  0  0  0  0  0  0  0  # atno 17342 bound_to 10162
  140.6214  143.9251  150.6529 LP  0  0  0  0  0  0  0  0  0  0  0  0  # atno 17343 bound_to 10162
  157.6392  130.8791  149.9416 LP  0  0  0  0  0  0  0  0  0  0  0  0  # atno 17370 bound_to 10713
  156.0918  130.3662  150.0380 LP  0  0  0  0  0  0  0  0  0  0  0  0  # atno 17371 bound_to 10713
  141.1392  133.6568  156.3681 LP  0  0  0  0  0  0  0  0  0  0  0  0  # atno 17394 bound_to 11000
  140.5288  134.6233  157.5343 LP  0  0  0  0  0  0  0  0  0  0  0  0  # atno 17395 bound_to 11000

$$$$
