AV-unprocessed.smi:1599|AV-procd|sdf|6423|dock5
  -GOLD-   22720 7 63D 1   1.00000     0.00000
 Structure written by MMmdl.
 39 40  0  0  0  0  0  0  0  0  1 V2000
  151.1453  134.1935  155.8046 C   0  0  0  0  0  0  0  0  0  0  0  0
  150.0537  135.2516  155.5813 C   0  0  2  0  0  0  0  0  0  0  0  0
  149.3163  134.9084  154.3675 N   0  0  0  0  0  0  0  0  0  0  0  0
  148.6629  133.7579  154.1495 C   0  0  0  0  0  0  0  0  0  0  0  0
  148.6218  132.8304  154.9579 O   0  0  0  0  0  0  0  0  0  0  0  0
  148.0646  133.7597  152.9471 N   0  0  0  0  0  0  0  0  0  0  0  0
  147.2832  132.7255  152.3732 C   0  0  0  0  0  0  0  0  0  0  0  0
  146.4784  132.8680  151.2133 C   0  0  0  0  0  0  0  0  0  0  0  0
  145.8668  131.7327  150.9118 N   0  0  0  0  0  0  0  0  0  0  0  0
  146.2679  130.8530  151.8641 N   0  0  0  0  0  0  0  0  0  0  0  0
  145.7825  129.4849  151.8304 C   0  0  0  0  0  0  0  0  0  0  0  0
  146.5186  128.6106  152.8473 C   0  0  0  0  0  0  0  0  0  0  0  0
  145.9494  128.4589  154.0462 N   0  0  0  0  0  0  0  0  0  0  0  0
  147.5888  128.0813  152.5553 O   0  0  0  0  0  0  0  0  0  0  0  0
  147.1337  131.4279  152.7739 C   0  0  0  0  0  0  0  0  0  0  0  0
  150.6359  136.6750  155.4561 C   0  0  2  0  0  0  0  0  0  0  0  0
  149.6391  137.7361  154.9870 C   0  0  0  0  0  0  0  0  0  0  0  0
  150.5172  138.7999  154.3462 C   0  0  0  0  0  0  0  0  0  0  0  0
  151.8686  138.1059  154.1589 C   0  0  0  0  0  0  0  0  0  0  0  0
  151.6206  136.7353  154.4353 O   0  0  0  0  0  0  0  0  0  0  0  0
  151.6873  134.3710  156.7337 H   0  0  0  0  0  0  0  0  0  0  0  0
  151.8712  134.1932  154.9907 H   0  0  0  0  0  0  0  0  0  0  0  0
  150.7145  133.1938  155.8677 H   0  0  0  0  0  0  0  0  0  0  0  0
  149.3817  135.2188  156.4409 H   0  0  0  0  0  0  0  0  0  0  0  0
  149.2904  135.6102  153.6425 H   0  0  0  0  0  0  0  0  0  0  0  0
  148.1745  134.5915  152.3858 H   0  0  0  0  0  0  0  0  0  0  0  0
  146.3205  133.7379  150.5928 H   0  0  0  0  0  0  0  0  0  0  0  0
  144.7137  129.4889  152.0483 H   0  0  0  0  0  0  0  0  0  0  0  0
  145.9036  129.0764  150.8259 H   0  0  0  0  0  0  0  0  0  0  0  0
  146.4041  127.8974  154.7520 H   0  0  0  0  0  0  0  0  0  0  0  0
  145.0702  128.9137  154.2453 H   0  0  0  0  0  0  0  0  0  0  0  0
  147.5523  130.8689  153.5978 H   0  0  0  0  0  0  0  0  0  0  0  0
  151.0895  136.9853  156.3999 H   0  0  0  0  0  0  0  0  0  0  0  0
  148.9691  137.3170  154.2348 H   0  0  0  0  0  0  0  0  0  0  0  0
  149.0274  138.1281  155.8003 H   0  0  0  0  0  0  0  0  0  0  0  0
  150.0971  139.1291  153.3952 H   0  0  0  0  0  0  0  0  0  0  0  0
  150.6207  139.6749  154.9889 H   0  0  0  0  0  0  0  0  0  0  0  0
  152.2726  138.2367  153.1548 H   0  0  0  0  0  0  0  0  0  0  0  0
  152.5991  138.4891  154.8727 H   0  0  0  0  0  0  0  0  0  0  0  0
  1  2  1  0  0  0  0
  1 21  1  0  0  0  0
  1 22  1  0  0  0  0
  1 23  1  0  0  0  0
  2  3  1  0  0  0  0
  2 16  1  0  0  0  0
  2 24  1  0  0  0  0
  3  4  1  0  0  0  0
  3 25  1  0  0  0  0
  4  5  2  0  0  0  0
  4  6  1  0  0  0  0
  6  7  1  0  0  0  0
  6 26  1  0  0  0  0
  7 15  2  0  0  0  0
  7  8  1  0  0  0  0
  8  9  2  0  0  0  0
  8 27  1  0  0  0  0
  9 10  1  0  0  0  0
 10 11  1  0  0  0  0
 10 15  1  0  0  0  0
 11 12  1  0  0  0  0
 11 28  1  0  0  0  0
 11 29  1  0  0  0  0
 12 13  1  0  0  0  0
 12 14  2  0  0  0  0
 13 30  1  0  0  0  0
 13 31  1  0  0  0  0
 15 32  1  0  0  0  0
 16 20  1  0  0  0  0
 16 17  1  0  0  0  0
 16 33  1  0  0  0  0
 17 18  1  0  0  0  0
 17 34  1  0  0  0  0
 17 35  1  0  0  0  0
 18 19  1  0  0  0  0
 18 36  1  0  0  0  0
 18 37  1  0  0  0  0
 19 20  1  0  0  0  0
 19 38  1  0  0  0  0
 19 39  1  0  0  0  0
M  END
> <s_m_source_file>
AV-unprocessed.smi

> <i_m_source_file_index>
1599

> <i_lp_mmshare_version>
43012

> <i_f3d_flags>
0

> <s_epik_input>
TzFbQ0gyXVtDSDJdW0NIMl1bQ0BIXTFbQ0BIXShbQ0gzXSlbTkhdQyg9TylbTkhdYzJbY0hdbm4oW2NIXTIpW0NIMl1DKD1PKVtOSDJd

> <s_epik_cmdline>
J2VwaWtfcHl0aG9uJywgJy1waCcsICc3LjAnLCAnLXRuJywgJzgnLCAnLW1hJywgJzIwMCcsICctbWV0YWxfYmluZGluZycsICctaW1hZScsICc8aW5maWxlLm1hZT4nLCAnLW9tYWUnLCAnPG91dGZpbGUubWFlPic=

> <r_lp_tautomer_probability>
1

> <r_epik_Ionization_Penalty>
4.15391e-05

> <r_epik_Ionization_Penalty_Charging>
0

> <r_epik_Ionization_Penalty_Neutral>
4.15391e-05

> <r_epik_State_Penalty>
-0

> <r_epik_Charging_Adjusted_Penalty>
0

> <i_epik_Tot_Q>
0

> <i_epik_Tot_abs_Q>
0

> <r_epik_Metal_State_Penalty>
-0

> <b_epik_Metal_Only>
0

> <s_lp_Force_Field>
OPLS_2005

> <r_lp_Energy>
20.6042

> <b_lp_Chiralities_Consistent>
1

> <s_lp_Variant>
AV-unprocessed.smi:1599-1

> <Gold.Version>
5.8.1

> <Gold.Id.Protein>
6NUR|6NUR_protein|mol2

> <Gold.PLP.Fitness>
44.8438

> <Gold.PLP.PLP>
-33.8974

> <Gold.PLP.part.hbond>
-4.0000

> <Gold.PLP.part.metal>
0.0000

> <Gold.PLP.part.buried>
-6.8473

> <Gold.PLP.part.nonpolar>
-24.2575

> <Gold.PLP.part.repulsive>
0.5385

> <Gold.PLP.ligand.clash>
0.0000

> <Gold.PLP.ligand.torsion>
0.5415

> <Gold.PLP.Chemscore.Hbond>
4.0000

> <Gold.PLP.Chemscore.CHOScore>
0.0000

> <Gold.PLP.Chemscore.Metal>
0.0000

> <Gold.Chemscore.Hbonds>
donor molecule, donor type, donor heavy atom, donor atom, acceptor molecule, acceptor atom, score
      L1  H     3    25       P1  7948  1.00
      L1  H     6    26       P1  7948  1.00
      L1  H    13    31       P1 10956  1.00
      P1  H 10752 10764       L1    20  1.00

> <Gold.PLP.Chemscore.Internal.Correction>
0.0294

> <Gold.Rescore>
     Score         DG    S(hbond)    S(metal)    S(lipo)     H(rot)  DE(clash)    DE(int)     intcor
     15.94     -18.25       3.47        0.00      59.85       2.28       0.00       2.30       ----

> <Gold.Chemscore.Fitness>
15.9437

> <Gold.Chemscore.DG>
-18.2451

> <Gold.Chemscore.ZeroCoef>
-5.4800

> <Gold.Chemscore.Hbond>
3.4748

> <Gold.Chemscore.Metal>
0.0000

> <Gold.Chemscore.Lipo>
59.8457

> <Gold.Chemscore.Internal_Hbond>
0.0000

> <Gold.Chemscore.DEClash>
0.0000

> <Gold.Chemscore.DEInternal>
2.3015

> <Gold.Chemscore.Rot>
2.2823

> <Gold.Chemscore.Internal.Correction>
   9.000000E+99

> <Gold.Chemscore.Hbonds>
donor molecule, donor type, donor heavy atom, donor atom, acceptor molecule, acceptor atom, score
      L1  H     3    25       P1  7948  0.48
      L1  H     6    26       P1  7948  0.25
      L1  H    13    31       P1 10956  0.98
      P1  H 10752 10764       L1    20  0.92

> <Gold.Chemscore.Hbond.Weighted>
-11.6059

> <Gold.Chemscore.Metal.Weighted>
-0.0000

> <Gold.Chemscore.Lipo.Weighted>
-7.0019

> <Gold.Chemscore.Internal_Hbond.Weighted>
0.0000

> <Gold.Chemscore.DEClash.Weighted>
0.0000

> <Gold.Chemscore.DEInternal.Weighted>
2.3015

> <Gold.Chemscore.Rot.Weighted>
5.8427

> <Gold.Chemscore.Internal.Correction.Weighted>
   9.000000E+99

> <Gold.Protein.RotatedTorsions>
[ 6907 6896 6895 6894 ] final  -94.88 input  -60.11 | X-H torsion
[ 7974 7965 7964 7962 ] final  160.27 input  175.53 | X-H torsion
[ 8008 7997 7996 7995 ] final -120.38 input   59.86 | X-H torsion
[ 10167 10162 10161 10158 ] final  -66.87 input  -65.29 | X-H torsion
[ 10718 10713 10712 10709 ] final  -17.89 input   66.30 | X-H torsion
[ 10763 10752 10751 10750 ] final  -81.96 input  -60.55 | X-H torsion
[ 11005 11000 10999 10996 ] final -130.23 input  -57.11 | X-H torsion

> <Gold.Protein.ActiveResidues>
 VAL166  LYS551  ARG553  GLY616  TRP617  ASP618  TYR619  PRO620  LYS621  CYS622 
 ASP623  PHE694  ASN695  SER759  ASP760  ASP761  ALA762  ILE779  LEU786  VAL792 
 PHE793  MET794  SER795  GLU796  ALA797  LYS798  CYS799  TRP800  GLU811  SER814 

> <Gold.Protein.RotatedAtoms>
  150.6951  134.1744  159.4224 H   0  0  0  0  0  0  0  0  0  0  0  0  # atno 6907 bound_to 6896
  151.9720  135.0069  160.0562 H   0  0  0  0  0  0  0  0  0  0  0  0  # atno 6908 bound_to 6896
  152.1833  133.4687  159.5006 H   0  0  0  0  0  0  0  0  0  0  0  0  # atno 6909 bound_to 6896
  144.7746  139.7734  143.6284 H   0  0  0  0  0  0  0  0  0  0  0  0  # atno 7974 bound_to 7965
  155.1308  140.0400  157.2774 H   0  0  0  0  0  0  0  0  0  0  0  0  # atno 8008 bound_to 7997
  154.6544  140.2576  155.7152 H   0  0  0  0  0  0  0  0  0  0  0  0  # atno 8009 bound_to 7997
  156.2591  140.2829  156.0991 H   0  0  0  0  0  0  0  0  0  0  0  0  # atno 8010 bound_to 7997
  140.5625  143.2313  151.6700 H   0  0  0  0  0  0  0  0  0  0  0  0  # atno 10167 bound_to 10162
  156.5672  130.4740  149.6379 H   0  0  0  0  0  0  0  0  0  0  0  0  # atno 10718 bound_to 10713
  154.5700  135.5608  153.7086 H   0  0  0  0  0  0  0  0  0  0  0  0  # atno 10763 bound_to 10752
  153.0045  135.6294  154.2128 H   0  0  0  0  0  0  0  0  0  0  0  0  # atno 10764 bound_to 10752
  154.2067  135.2875  155.2952 H   0  0  0  0  0  0  0  0  0  0  0  0  # atno 10765 bound_to 10752
  140.9364  134.1252  157.4190 H   0  0  0  0  0  0  0  0  0  0  0  0  # atno 11005 bound_to 11000
  146.1916  139.5160  142.9801 LP  0  0  0  0  0  0  0  0  0  0  0  0  # atno 17320 bound_to 7965
  145.6224  141.0320  143.1907 LP  0  0  0  0  0  0  0  0  0  0  0  0  # atno 17321 bound_to 7965
  139.5077  144.3637  152.0537 LP  0  0  0  0  0  0  0  0  0  0  0  0  # atno 17342 bound_to 10162
  140.2765  144.3906  150.6133 LP  0  0  0  0  0  0  0  0  0  0  0  0  # atno 17343 bound_to 10162
  156.2746  130.7036  151.1844 LP  0  0  0  0  0  0  0  0  0  0  0  0  # atno 17370 bound_to 10713
  157.7356  131.0571  150.5461 LP  0  0  0  0  0  0  0  0  0  0  0  0  # atno 17371 bound_to 10713
  139.8809  135.0022  156.6113 LP  0  0  0  0  0  0  0  0  0  0  0  0  # atno 17394 bound_to 11000
  140.7794  133.8673  155.8555 LP  0  0  0  0  0  0  0  0  0  0  0  0  # atno 17395 bound_to 11000

$$$$
