AV-unprocessed.smi:36|AV-procd|sdf|287|dock8
  -GOLD-   2262016 73D 1   1.00000     0.00000
 Structure written by MMmdl.
 64 67  0  0  0  0  0  0  0  0  1 V2000
  154.1876  128.4279  164.2696 C   0  0  0  0  0  0  0  0  0  0  0  0
  154.4531  129.9297  164.0733 C   0  0  0  0  0  0  0  0  0  0  0  0
  154.8055  130.2045  162.6012 C   0  0  0  0  0  0  0  0  0  0  0  0
  153.2087  130.7387  164.4746 C   0  0  0  0  0  0  0  0  0  0  0  0
  155.9299  130.4502  165.1666 Si  0  0  0  0  0  0  0  0  0  0  0  0
  155.5480  130.1534  167.0066 C   0  0  0  0  0  0  0  0  0  0  0  0
  157.5083  129.5095  164.6869 C   0  0  0  0  0  0  0  0  0  0  0  0
  156.2040  132.0998  164.8966 O   0  0  0  0  0  0  0  0  0  0  0  0
  156.4568  132.6770  163.6319 C   0  0  0  0  0  0  0  0  0  0  0  0
  156.6236  134.1932  163.7974 C   0  0  2  0  0  0  0  0  0  0  0  0
  156.9788  134.7773  162.5494 O   0  0  0  0  0  0  0  0  0  0  0  0
  157.6561  135.9794  162.7655 C   0  0  1  0  0  0  0  0  0  0  0  0
  156.7463  137.1125  162.4085 N   0  0  0  0  0  0  0  0  0  0  0  0
  156.3083  138.1088  163.2040 C   0  0  0  0  0  0  0  0  0  0  0  0
  155.5050  138.9938  162.6189 N   0  0  0  0  0  0  0  0  0  0  0  0
  155.4217  138.5142  161.3160 C   0  0  0  0  0  0  0  0  0  0  0  0
  154.6797  139.0376  160.1484 C   0  0  0  0  0  0  0  0  0  0  0  0
  153.9834  140.1215  160.3126 N   0  0  0  0  0  0  0  0  0  0  0  0
  153.2510  140.6477  159.2559 C   0  0  0  0  0  0  0  0  0  0  0  0
  153.0482  140.1615  158.1396 O   0  0  0  0  0  0  0  0  0  0  0  0
  152.7189  142.0180  159.5288 C   0  0  0  0  0  0  0  0  0  0  0  0
  152.9833  142.6512  160.7623 C   0  0  0  0  0  0  0  0  0  0  0  0
  152.4839  143.9439  161.0147 C   0  0  0  0  0  0  0  0  0  0  0  0
  151.7185  144.6074  160.0364 C   0  0  0  0  0  0  0  0  0  0  0  0
  151.4529  143.9788  158.8047 C   0  0  0  0  0  0  0  0  0  0  0  0
  151.9526  142.6868  158.5503 C   0  0  0  0  0  0  0  0  0  0  0  0
  154.8941  138.2094  159.0388 N   0  0  0  0  0  0  0  0  0  0  0  0
  155.6941  137.0563  159.0144 C   0  0  0  0  0  0  0  0  0  0  0  0
  156.3571  136.5849  160.0365 N   0  0  0  0  0  0  0  0  0  0  0  0
  156.1724  137.3680  161.1673 C   0  0  0  0  0  0  0  0  0  0  0  0
  158.0139  136.0412  164.2557 C   0  0  0  0  0  0  0  0  0  0  0  0
  157.7871  134.6072  164.6961 C   0  0  1  0  0  0  0  0  0  0  0  0
  157.4550  134.5461  166.0679 O   0  0  0  0  0  0  0  0  0  0  0  0
  153.3614  128.0861  163.6452 H   0  0  0  0  0  0  0  0  0  0  0  0
  153.9321  128.2003  165.3046 H   0  0  0  0  0  0  0  0  0  0  0  0
  155.0643  127.8340  164.0091 H   0  0  0  0  0  0  0  0  0  0  0  0
  155.7031  129.6625  162.3012 H   0  0  0  0  0  0  0  0  0  0  0  0
  154.9897  131.2646  162.4258 H   0  0  0  0  0  0  0  0  0  0  0  0
  153.9979  129.8984  161.9358 H   0  0  0  0  0  0  0  0  0  0  0  0
  152.3468  130.4681  163.8638 H   0  0  0  0  0  0  0  0  0  0  0  0
  153.3740  131.8095  164.3522 H   0  0  0  0  0  0  0  0  0  0  0  0
  152.9406  130.5636  165.5167 H   0  0  0  0  0  0  0  0  0  0  0  0
  155.4166  129.0928  167.2190 H   0  0  0  0  0  0  0  0  0  0  0  0
  154.6340  130.6582  167.3173 H   0  0  0  0  0  0  0  0  0  0  0  0
  156.3525  130.5129  167.6474 H   0  0  0  0  0  0  0  0  0  0  0  0
  157.3851  128.4334  164.8056 H   0  0  0  0  0  0  0  0  0  0  0  0
  158.3542  129.8096  165.3050 H   0  0  0  0  0  0  0  0  0  0  0  0
  157.7845  129.6934  163.6489 H   0  0  0  0  0  0  0  0  0  0  0  0
  157.3581  132.2360  163.2054 H   0  0  0  0  0  0  0  0  0  0  0  0
  155.6342  132.4469  162.9544 H   0  0  0  0  0  0  0  0  0  0  0  0
  155.7018  134.6524  164.1544 H   0  0  0  0  0  0  0  0  0  0  0  0
  158.5101  136.0653  162.0930 H   0  0  0  0  0  0  0  0  0  0  0  0
  156.5819  138.1916  164.2452 H   0  0  0  0  0  0  0  0  0  0  0  0
  153.5714  142.1500  161.5177 H   0  0  0  0  0  0  0  0  0  0  0  0
  152.6887  144.4267  161.9587 H   0  0  0  0  0  0  0  0  0  0  0  0
  151.3359  145.5985  160.2304 H   0  0  0  0  0  0  0  0  0  0  0  0
  150.8657  144.4877  158.0547 H   0  0  0  0  0  0  0  0  0  0  0  0
  151.7450  142.2120  157.6022 H   0  0  0  0  0  0  0  0  0  0  0  0
  155.7264  136.5597  158.0435 H   0  0  0  0  0  0  0  0  0  0  0  0
  159.0383  136.3851  164.4010 H   0  0  0  0  0  0  0  0  0  0  0  0
  157.3352  136.7227  164.7731 H   0  0  0  0  0  0  0  0  0  0  0  0
  158.6713  134.0024  164.4897 H   0  0  0  0  0  0  0  0  0  0  0  0
  158.0878  133.9985  166.5068 H   0  0  0  0  0  0  0  0  0  0  0  0
  154.4333  138.4687  158.1786 H   0  0  0  0  0  0  0  0  0  0  0  0
  1  2  1  0  0  0  0
  1 34  1  0  0  0  0
  1 35  1  0  0  0  0
  1 36  1  0  0  0  0
  2  3  1  0  0  0  0
  2  4  1  0  0  0  0
  2  5  1  0  0  0  0
  3 37  1  0  0  0  0
  3 38  1  0  0  0  0
  3 39  1  0  0  0  0
  4 40  1  0  0  0  0
  4 41  1  0  0  0  0
  4 42  1  0  0  0  0
  5  6  1  0  0  0  0
  5  7  1  0  0  0  0
  5  8  1  0  0  0  0
  6 43  1  0  0  0  0
  6 44  1  0  0  0  0
  6 45  1  0  0  0  0
  7 46  1  0  0  0  0
  7 47  1  0  0  0  0
  7 48  1  0  0  0  0
  8  9  1  0  0  0  0
  9 10  1  0  0  0  0
  9 49  1  0  0  0  0
  9 50  1  0  0  0  0
 10 32  1  0  0  0  0
 10 11  1  0  0  0  0
 10 51  1  0  0  0  0
 11 12  1  0  0  0  0
 12 13  1  0  0  0  0
 12 31  1  0  0  0  0
 12 52  1  0  0  0  0
 13 30  1  0  0  0  0
 13 14  1  0  0  0  0
 14 15  2  0  0  0  0
 14 53  1  0  0  0  0
 15 16  1  0  0  0  0
 16 30  2  0  0  0  0
 16 17  1  0  0  0  0
 17 18  2  0  0  0  0
 17 27  1  0  0  0  0
 18 19  1  0  0  0  0
 19 20  2  0  0  0  0
 19 21  1  0  0  0  0
 21 26  1  0  0  0  0
 21 22  2  0  0  0  0
 22 23  1  0  0  0  0
 22 54  1  0  0  0  0
 23 24  2  0  0  0  0
 23 55  1  0  0  0  0
 24 25  1  0  0  0  0
 24 56  1  0  0  0  0
 25 26  2  0  0  0  0
 25 57  1  0  0  0  0
 26 58  1  0  0  0  0
 27 28  1  0  0  0  0
 27 64  1  0  0  0  0
 28 29  2  0  0  0  0
 28 59  1  0  0  0  0
 29 30  1  0  0  0  0
 31 32  1  0  0  0  0
 31 60  1  0  0  0  0
 31 61  1  0  0  0  0
 32 33  1  0  0  0  0
 32 62  1  0  0  0  0
 33 63  1  0  0  0  0
M  END
> <s_m_source_file>
AV-unprocessed.smi

> <i_m_source_file_index>
36

> <i_lp_mmshare_version>
43012

> <i_f3d_flags>
0

> <s_epik_input>
W0NIM11DKFtDSDNdKShbQ0gzXSlbU2ldKFtDSDNdKShbQ0gzXSlPW0NIMl1bQ0BASF0xT1tDQEhdKFtDSDJdW0NASF0xW09IXSluKFtjSF1uMiljKGMyMyluW2NIXW5jM1tOSF1DKD1PKWM0W2NIXVtjSF1bY0hdW2NIXVtjSF00

> <s_epik_cmdline>
J2VwaWtfcHl0aG9uJywgJy1waCcsICc3LjAnLCAnLXRuJywgJzgnLCAnLW1hJywgJzIwMCcsICctbWV0YWxfYmluZGluZycsICctaW1hZScsICc8aW5maWxlLm1hZT4nLCAnLW9tYWUnLCAnPG91dGZpbGUubWFlPic=

> <r_epik_Ionization_Penalty>
0.0850405

> <r_epik_Ionization_Penalty_Charging>
0.0850403

> <r_epik_Ionization_Penalty_Neutral>
1.47497e-07

> <r_epik_State_Penalty>
2.6133

> <r_epik_Charging_Adjusted_Penalty>
2.69834

> <i_epik_Tot_Q>
0

> <i_epik_Tot_abs_Q>
0

> <r_epik_Metal_State_Penalty>
2.92945

> <b_epik_Metal_Only>
0

> <s_epik_Chemistry_Notes>
This compound contains an acetal/aminal-like group ( X-CH(R)-Y where X, Y are N, S, or O) that may be acid/base labile, releasing an aldehyde.

> <s_lp_Force_Field>
OPLS_2005

> <r_lp_Energy>
46.6166

> <b_lp_Chiralities_Consistent>
1

> <s_lp_Variant>
AV-unprocessed.smi:36-9

> <Gold.Version>
5.8.1

> <Gold.Id.Protein>
6NUR|6NUR_protein|mol2

> <Gold.PLP.Fitness>
51.9203

> <Gold.PLP.PLP>
-48.9720

> <Gold.PLP.part.hbond>
-2.0000

> <Gold.PLP.part.metal>
0.0000

> <Gold.PLP.part.buried>
-5.8873

> <Gold.PLP.part.nonpolar>
-41.3619

> <Gold.PLP.part.repulsive>
0.1193

> <Gold.PLP.ligand.clash>
0.0000

> <Gold.PLP.ligand.torsion>
0.0439

> <Gold.PLP.Chemscore.Hbond>
0.9920

> <Gold.PLP.Chemscore.CHOScore>
0.0000

> <Gold.PLP.Chemscore.Metal>
0.0000

> <Gold.Chemscore.Hbonds>
donor molecule, donor type, donor heavy atom, donor atom, acceptor molecule, acceptor atom, score
      P1  H  7997  8010       L1    20  0.99

> <Gold.PLP.Chemscore.Internal.Correction>
0.0601

> <Gold.Rescore>
     Score         DG    S(hbond)    S(metal)    S(lipo)     H(rot)  DE(clash)    DE(int)     intcor
     14.96     -16.23       0.91        0.00     125.04       2.70       0.06       1.20       ----

> <Gold.Chemscore.Fitness>
14.9608

> <Gold.Chemscore.DG>
-16.2284

> <Gold.Chemscore.ZeroCoef>
-5.4800

> <Gold.Chemscore.Hbond>
0.9105

> <Gold.Chemscore.Metal>
0.0000

> <Gold.Chemscore.Lipo>
125.0420

> <Gold.Chemscore.Internal_Hbond>
0.0000

> <Gold.Chemscore.DEClash>
0.0647

> <Gold.Chemscore.DEInternal>
1.2030

> <Gold.Chemscore.Rot>
2.7041

> <Gold.Chemscore.Internal.Correction>
   9.000000E+99

> <Gold.Chemscore.Hbonds>
donor molecule, donor type, donor heavy atom, donor atom, acceptor molecule, acceptor atom, score
      P1  H  7997  8010       L1    20  0.89

> <Gold.Chemscore.Hbond.Weighted>
-3.0410

> <Gold.Chemscore.Metal.Weighted>
-0.0000

> <Gold.Chemscore.Lipo.Weighted>
-14.6299

> <Gold.Chemscore.Internal_Hbond.Weighted>
0.0000

> <Gold.Chemscore.DEClash.Weighted>
0.0647

> <Gold.Chemscore.DEInternal.Weighted>
1.2030

> <Gold.Chemscore.Rot.Weighted>
6.9225

> <Gold.Chemscore.Internal.Correction.Weighted>
   9.000000E+99

> <Gold.Protein.RotatedTorsions>
[ 6907 6896 6895 6894 ] final  -29.05 input  -60.11 | X-H torsion
[ 7974 7965 7964 7962 ] final -166.01 input  175.53 | X-H torsion
[ 8008 7997 7996 7995 ] final   42.00 input   59.86 | X-H torsion
[ 10167 10162 10161 10158 ] final  -15.57 input  -65.29 | X-H torsion
[ 10718 10713 10712 10709 ] final -107.56 input   66.30 | X-H torsion
[ 10763 10752 10751 10750 ] final  162.69 input  -60.55 | X-H torsion
[ 11005 11000 10999 10996 ] final  115.81 input  -57.11 | X-H torsion

> <Gold.Protein.ActiveResidues>
 VAL166  LYS551  ARG553  GLY616  TRP617  ASP618  TYR619  PRO620  LYS621  CYS622 
 ASP623  PHE694  ASN695  SER759  ASP760  ASP761  ALA762  ILE779  LEU786  VAL792 
 PHE793  MET794  SER795  GLU796  ALA797  LYS798  CYS799  TRP800  GLU811  SER814 

> <Gold.Protein.RotatedAtoms>
  151.1245  135.0097  159.8553 H   0  0  0  0  0  0  0  0  0  0  0  0  # atno 6907 bound_to 6896
  152.5449  134.1683  159.8596 H   0  0  0  0  0  0  0  0  0  0  0  0  # atno 6908 bound_to 6896
  151.1744  133.4719  159.2627 H   0  0  0  0  0  0  0  0  0  0  0  0  # atno 6909 bound_to 6896
  144.7256  140.2730  143.6248 H   0  0  0  0  0  0  0  0  0  0  0  0  # atno 7974 bound_to 7965
  155.2790  140.3371  155.4259 H   0  0  0  0  0  0  0  0  0  0  0  0  # atno 8008 bound_to 7997
  156.2098  140.1765  156.7760 H   0  0  0  0  0  0  0  0  0  0  0  0  # atno 8009 bound_to 7997
  154.5671  140.0677  156.8892 H   0  0  0  0  0  0  0  0  0  0  0  0  # atno 8010 bound_to 7997
  140.7220  143.5204  150.9640 H   0  0  0  0  0  0  0  0  0  0  0  0  # atno 10167 bound_to 10162
  156.0443  130.5669  150.7839 H   0  0  0  0  0  0  0  0  0  0  0  0  # atno 10718 bound_to 10713
  154.2822  135.2763  155.2692 H   0  0  0  0  0  0  0  0  0  0  0  0  # atno 10763 bound_to 10752
  154.5208  135.5757  153.6683 H   0  0  0  0  0  0  0  0  0  0  0  0  # atno 10764 bound_to 10752
  152.9927  135.6204  154.2982 H   0  0  0  0  0  0  0  0  0  0  0  0  # atno 10765 bound_to 10752
  139.9021  134.9589  156.7102 H   0  0  0  0  0  0  0  0  0  0  0  0  # atno 11005 bound_to 11000
  145.8024  139.1970  143.2040 LP  0  0  0  0  0  0  0  0  0  0  0  0  # atno 17320 bound_to 7965
  146.0665  140.7915  142.9709 LP  0  0  0  0  0  0  0  0  0  0  0  0  # atno 17321 bound_to 7965
  139.8921  143.6940  152.3144 LP  0  0  0  0  0  0  0  0  0  0  0  0  # atno 17342 bound_to 10162
  139.7259  144.7593  151.0879 LP  0  0  0  0  0  0  0  0  0  0  0  0  # atno 17343 bound_to 10162
  157.5299  131.0936  150.9969 LP  0  0  0  0  0  0  0  0  0  0  0  0  # atno 17370 bound_to 10713
  157.0278  130.5699  149.5339 LP  0  0  0  0  0  0  0  0  0  0  0  0  # atno 17371 bound_to 10713
  140.7082  133.9246  155.8067 LP  0  0  0  0  0  0  0  0  0  0  0  0  # atno 17394 bound_to 11000
  141.0320  134.0742  157.4003 LP  0  0  0  0  0  0  0  0  0  0  0  0  # atno 17395 bound_to 11000

$$$$
