AV-unprocessed.smi:1522|AV-procd|sdf|6135|dock1
  -GOLD-   22720 6273D 1   1.00000     0.00000
 Structure written by MMmdl.
 35 36  0  0  0  0  0  0  0  0  2 V2000
  146.5583  142.2200  154.9838 C   0  0  0  0  0  0  0  0  0  0  0  0
  147.2689  141.5895  153.7647 C   0  0  1  0  0  0  0  0  0  0  0  0
  148.7403  141.2464  154.1000 C   0  0  0  0  0  0  0  0  0  0  0  0
  149.3084  142.1654  155.0817 N   0  0  0  0  0  0  0  0  0  0  0  0
  149.9636  141.7912  156.1895 C   0  0  0  0  0  0  0  0  0  0  0  0
  150.1685  140.6150  156.4896 O   0  0  0  0  0  0  0  0  0  0  0  0
  150.3545  142.8577  156.9094 N   0  0  0  0  0  0  0  0  0  0  0  0
  151.0449  142.8754  158.1505 C   0  0  0  0  0  0  0  0  0  0  0  0
  150.9852  141.8804  159.0496 N   0  0  0  0  0  0  0  0  0  0  0  0
  151.7499  142.1520  160.1766 N   0  0  0  0  0  0  0  0  0  0  0  0
  152.3548  143.3396  160.0838 C   0  0  0  0  0  0  0  0  0  0  0  0
  152.0495  144.2428  158.6101 S   0  0  0  0  0  0  0  0  0  0  0  0
  146.5334  140.3822  153.2849 N   0  3  0  0  0  0  0  0  0  0  0  0
  147.0608  139.7722  152.0448 C   0  0  0  0  0  0  0  0  0  0  0  0
  146.5045  138.3472  152.0012 C   0  0  0  0  0  0  0  0  0  0  0  0
  146.1098  138.0173  153.4427 C   0  0  0  0  0  0  0  0  0  0  0  0
  146.4416  139.2705  154.2565 C   0  0  0  0  0  0  0  0  0  0  0  0
  147.0857  143.1003  155.3513 H   0  0  0  0  0  0  0  0  0  0  0  0
  146.4883  141.5113  155.8097 H   0  0  0  0  0  0  0  0  0  0  0  0
  145.5490  142.5526  154.7419 H   0  0  0  0  0  0  0  0  0  0  0  0
  147.2667  142.3242  152.9578 H   0  0  0  0  0  0  0  0  0  0  0  0
  148.7978  140.2169  154.4585 H   0  0  0  0  0  0  0  0  0  0  0  0
  149.3705  141.3076  153.2127 H   0  0  0  0  0  0  0  0  0  0  0  0
  149.1910  143.1530  154.9074 H   0  0  0  0  0  0  0  0  0  0  0  0
  150.1239  143.7645  156.5311 H   0  0  0  0  0  0  0  0  0  0  0  0
  152.9855  143.6858  160.8891 H   0  0  0  0  0  0  0  0  0  0  0  0
  146.7783  140.3405  151.1582 H   0  0  0  0  0  0  0  0  0  0  0  0
  148.1506  139.7369  152.0910 H   0  0  0  0  0  0  0  0  0  0  0  0
  145.6244  138.3038  151.3582 H   0  0  0  0  0  0  0  0  0  0  0  0
  147.2365  137.6437  151.6034 H   0  0  0  0  0  0  0  0  0  0  0  0
  145.0415  137.8028  153.4942 H   0  0  0  0  0  0  0  0  0  0  0  0
  146.6387  137.1431  153.8237 H   0  0  0  0  0  0  0  0  0  0  0  0
  147.4051  139.1393  154.7518 H   0  0  0  0  0  0  0  0  0  0  0  0
  145.6904  139.4607  155.0237 H   0  0  0  0  0  0  0  0  0  0  0  0
  145.5846  140.6641  153.0832 H   0  0  0  0  0  0  0  0  0  0  0  0
  1  2  1  0  0  0  0
  1 18  1  0  0  0  0
  1 19  1  0  0  0  0
  1 20  1  0  0  0  0
  2  3  1  0  0  0  0
  2 13  1  0  0  0  0
  2 21  1  0  0  0  0
  3  4  1  0  0  0  0
  3 22  1  0  0  0  0
  3 23  1  0  0  0  0
  4  5  1  0  0  0  0
  4 24  1  0  0  0  0
  5  6  2  0  0  0  0
  5  7  1  0  0  0  0
  7  8  1  0  0  0  0
  7 25  1  0  0  0  0
  8 12  1  0  0  0  0
  8  9  2  0  0  0  0
  9 10  1  0  0  0  0
 10 11  2  0  0  0  0
 11 12  1  0  0  0  0
 11 26  1  0  0  0  0
 13 17  1  0  0  0  0
 13 14  1  0  0  0  0
 13 35  1  0  0  0  0
 14 15  1  0  0  0  0
 14 27  1  0  0  0  0
 14 28  1  0  0  0  0
 15 16  1  0  0  0  0
 15 29  1  0  0  0  0
 15 30  1  0  0  0  0
 16 17  1  0  0  0  0
 16 31  1  0  0  0  0
 16 32  1  0  0  0  0
 17 33  1  0  0  0  0
 17 34  1  0  0  0  0
M  CHG  1  13   1
M  END
> <s_m_source_file>
AV-unprocessed.smi

> <i_m_source_file_index>
1522

> <i_lp_mmshare_version>
43012

> <i_f3d_flags>
0

> <s_epik_input>
W0NIMl0xW0NIMl1bQ0gyXVtDSDJdTjFbQ0BIXShbQ0gzXSlbQ0gyXVtOSF1DKD1PKVtOSF1jMm5uW2NIXXMy

> <s_epik_cmdline>
J2VwaWtfcHl0aG9uJywgJy1waCcsICc3LjAnLCAnLXRuJywgJzgnLCAnLW1hJywgJzIwMCcsICctbWV0YWxfYmluZGluZycsICctaW1hZScsICc8aW5maWxlLm1hZT4nLCAnLW9tYWUnLCAnPG91dGZpbGUubWFlPic=

> <r_lp_tautomer_probability>
1

> <r_epik_Ionization_Penalty>
0.00457064

> <r_epik_Ionization_Penalty_Charging>
0.000848324

> <r_epik_Ionization_Penalty_Neutral>
0.00372231

> <r_epik_State_Penalty>
-0

> <r_epik_Charging_Adjusted_Penalty>
0.000848324

> <i_epik_Tot_Q>
1

> <i_epik_Tot_abs_Q>
1

> <r_epik_Metal_State_Penalty>
0.370178

> <b_epik_Metal_Only>
0

> <s_lp_Force_Field>
OPLS_2005

> <r_lp_Energy>
30.6198

> <b_lp_Chiralities_Consistent>
1

> <s_lp_Variant>
AV-unprocessed.smi:1522-2

> <Gold.Version>
5.8.1

> <Gold.Id.Protein>
6NUR|6NUR_protein|mol2

> <Gold.PLP.Fitness>
45.7276

> <Gold.PLP.PLP>
-34.8471

> <Gold.PLP.part.hbond>
-3.4268

> <Gold.PLP.part.metal>
0.0000

> <Gold.PLP.part.buried>
-1.6229

> <Gold.PLP.part.nonpolar>
-30.1478

> <Gold.PLP.part.repulsive>
0.2777

> <Gold.PLP.ligand.clash>
0.0000

> <Gold.PLP.ligand.torsion>
0.5257

> <Gold.PLP.Chemscore.Hbond>
3.9600

> <Gold.PLP.Chemscore.CHOScore>
0.0000

> <Gold.PLP.Chemscore.Metal>
0.0000

> <Gold.Chemscore.Hbonds>
donor molecule, donor type, donor heavy atom, donor atom, acceptor molecule, acceptor atom, score
      L1  H     4    24       P1  8028  0.91
      L1  H     7    25       P1  8028  0.93
      L1  H    13    35       P1 10175  2.00

> <Gold.PLP.Chemscore.Internal.Correction>
0.0520

> <Gold.Rescore>
     Score         DG    S(hbond)    S(metal)    S(lipo)     H(rot)  DE(clash)    DE(int)     intcor
     16.58     -18.56       2.88        0.00      66.70       1.70       0.28       1.70       ----

> <Gold.Chemscore.Fitness>
16.5834

> <Gold.Chemscore.DG>
-18.5586

> <Gold.Chemscore.ZeroCoef>
-5.4800

> <Gold.Chemscore.Hbond>
2.8844

> <Gold.Chemscore.Metal>
0.0000

> <Gold.Chemscore.Lipo>
66.6984

> <Gold.Chemscore.Internal_Hbond>
0.0000

> <Gold.Chemscore.DEClash>
0.2778

> <Gold.Chemscore.DEInternal>
1.6975

> <Gold.Chemscore.Rot>
1.7028

> <Gold.Chemscore.Internal.Correction>
   9.000000E+99

> <Gold.Chemscore.Hbonds>
donor molecule, donor type, donor heavy atom, donor atom, acceptor molecule, acceptor atom, score
      L1  H     4    24       P1  8028  0.90
      L1  H     7    25       P1  8028  0.90
      L1  H    13    35       P1 10175  0.71

> <Gold.Chemscore.Hbond.Weighted>
-9.6340

> <Gold.Chemscore.Metal.Weighted>
-0.0000

> <Gold.Chemscore.Lipo.Weighted>
-7.8037

> <Gold.Chemscore.Internal_Hbond.Weighted>
0.0000

> <Gold.Chemscore.DEClash.Weighted>
0.2778

> <Gold.Chemscore.DEInternal.Weighted>
1.6975

> <Gold.Chemscore.Rot.Weighted>
4.3592

> <Gold.Chemscore.Internal.Correction.Weighted>
   9.000000E+99

> <Gold.Protein.RotatedTorsions>
[ 6907 6896 6895 6894 ] final  127.85 input  -60.11 | X-H torsion
[ 7974 7965 7964 7962 ] final  -47.78 input  175.53 | X-H torsion
[ 8008 7997 7996 7995 ] final  177.02 input   59.86 | X-H torsion
[ 10167 10162 10161 10158 ] final   67.44 input  -65.29 | X-H torsion
[ 10718 10713 10712 10709 ] final  -27.57 input   66.30 | X-H torsion
[ 10763 10752 10751 10750 ] final -102.62 input  -60.55 | X-H torsion
[ 11005 11000 10999 10996 ] final  173.48 input  -57.11 | X-H torsion

> <Gold.Protein.ActiveResidues>
 VAL166  LYS551  ARG553  GLY616  TRP617  ASP618  TYR619  PRO620  LYS621  CYS622 
 ASP623  PHE694  ASN695  SER759  ASP760  ASP761  ALA762  ILE779  LEU786  VAL792 
 PHE793  MET794  SER795  GLU796  ALA797  LYS798  CYS799  TRP800  GLU811  SER814 

> <Gold.Protein.RotatedAtoms>
  152.3774  133.6500  159.6134 H   0  0  0  0  0  0  0  0  0  0  0  0  # atno 6907 bound_to 6896
  150.7715  133.9170  159.3395 H   0  0  0  0  0  0  0  0  0  0  0  0  # atno 6908 bound_to 6896
  151.6982  135.0936  160.0297 H   0  0  0  0  0  0  0  0  0  0  0  0  # atno 6909 bound_to 6896
  145.9580  140.7507  142.9471 H   0  0  0  0  0  0  0  0  0  0  0  0  # atno 7974 bound_to 7965
  156.0702  140.1369  156.9837 H   0  0  0  0  0  0  0  0  0  0  0  0  # atno 8008 bound_to 7997
  154.4528  140.0973  156.6719 H   0  0  0  0  0  0  0  0  0  0  0  0  # atno 8009 bound_to 7997
  155.5240  140.3457  155.4414 H   0  0  0  0  0  0  0  0  0  0  0  0  # atno 8010 bound_to 7997
  140.0895  144.5001  150.7108 H   0  0  0  0  0  0  0  0  0  0  0  0  # atno 10167 bound_to 10162
  156.4365  130.4455  149.7081 H   0  0  0  0  0  0  0  0  0  0  0  0  # atno 10718 bound_to 10713
  154.7747  135.4854  153.9720 H   0  0  0  0  0  0  0  0  0  0  0  0  # atno 10763 bound_to 10752
  153.1413  135.6773  153.9030 H   0  0  0  0  0  0  0  0  0  0  0  0  # atno 10764 bound_to 10752
  153.8704  135.3144  155.3420 H   0  0  0  0  0  0  0  0  0  0  0  0  # atno 10765 bound_to 10752
  140.3409  134.7277  157.4202 H   0  0  0  0  0  0  0  0  0  0  0  0  # atno 11005 bound_to 11000
  144.6809  140.2544  143.7327 LP  0  0  0  0  0  0  0  0  0  0  0  0  # atno 17320 bound_to 7965
  145.8079  139.1991  143.2010 LP  0  0  0  0  0  0  0  0  0  0  0  0  # atno 17321 bound_to 7965
  140.7036  143.2452  151.4792 LP  0  0  0  0  0  0  0  0  0  0  0  0  # atno 17342 bound_to 10162
  139.5733  144.1878  152.1867 LP  0  0  0  0  0  0  0  0  0  0  0  0  # atno 17343 bound_to 10162
  156.3963  130.7652  151.2657 LP  0  0  0  0  0  0  0  0  0  0  0  0  # atno 17370 bound_to 10713
  157.7507  131.0253  150.3912 LP  0  0  0  0  0  0  0  0  0  0  0  0  # atno 17371 bound_to 10713
  140.0781  134.5768  155.8569 LP  0  0  0  0  0  0  0  0  0  0  0  0  # atno 17394 bound_to 11000
  141.2038  133.6635  156.6087 LP  0  0  0  0  0  0  0  0  0  0  0  0  # atno 17395 bound_to 11000

$$$$
