AV-unprocessed.smi:3173|AV-procd|sdf|12119|dock6
  -GOLD-   2272017553D 1   1.00000     0.00000
 Structure written by MMmdl.
 36 37  0  0  0  0  0  0  0  0  2 V2000
  151.2611  139.9897  154.8071 O   0  0  0  0  0  0  0  0  0  0  0  0
  150.1176  139.7501  155.1953 C   0  0  0  0  0  0  0  0  0  0  0  0
  149.1385  138.9836  154.2994 C   0  0  0  0  0  0  0  0  0  0  0  0
  147.8348  139.7599  154.0191 C   0  0  2  0  0  0  0  0  0  0  0  0
  148.0912  141.2043  153.6748 C   0  0  0  0  0  0  0  0  0  0  0  0
  147.3560  142.0449  154.3995 C   0  0  0  0  0  0  0  0  0  0  0  0
  146.4613  141.3323  155.3751 C   0  0  0  0  0  0  0  0  0  0  0  0
  146.8662  139.8489  155.2294 C   0  0  0  0  0  0  0  0  0  0  0  0
  149.6569  140.1259  156.3984 N   0  0  0  0  0  0  0  0  0  0  0  0
  150.4368  140.8351  157.4059 C   0  0  0  0  0  0  0  0  0  0  0  0
  151.0096  142.1505  156.8517 C   0  0  0  0  0  0  0  0  0  0  0  0
  151.3243  143.1485  157.9488 C   0  0  0  0  0  0  0  0  0  0  0  0
  152.1843  142.8334  159.0232 C   0  0  0  0  0  0  0  0  0  0  0  0
  152.4406  143.8084  160.0097 C   0  0  0  0  0  0  0  0  0  0  0  0
  151.8328  145.0765  159.9011 C   0  0  0  0  0  0  0  0  0  0  0  0
  150.9841  145.3383  158.8060 C   0  0  0  0  0  0  0  0  0  0  0  0
  150.7641  144.3783  157.8808 N   0  3  0  0  0  0  0  0  0  0  0  0
  149.6254  138.7301  153.3561 H   0  0  0  0  0  0  0  0  0  0  0  0
  148.9057  138.0378  154.7899 H   0  0  0  0  0  0  0  0  0  0  0  0
  147.3179  139.3207  153.1645 H   0  0  0  0  0  0  0  0  0  0  0  0
  148.7900  141.4966  152.9048 H   0  0  0  0  0  0  0  0  0  0  0  0
  147.3675  143.1211  154.3082 H   0  0  0  0  0  0  0  0  0  0  0  0
  146.6211  141.7001  156.3892 H   0  0  0  0  0  0  0  0  0  0  0  0
  145.4176  141.4942  155.1042 H   0  0  0  0  0  0  0  0  0  0  0  0
  145.9958  139.2062  155.0921 H   0  0  0  0  0  0  0  0  0  0  0  0
  147.3618  139.5230  156.1450 H   0  0  0  0  0  0  0  0  0  0  0  0
  148.7025  139.8947  156.6347 H   0  0  0  0  0  0  0  0  0  0  0  0
  149.8204  141.0271  158.2861 H   0  0  0  0  0  0  0  0  0  0  0  0
  151.2467  140.1815  157.7308 H   0  0  0  0  0  0  0  0  0  0  0  0
  151.9176  141.9523  156.2805 H   0  0  0  0  0  0  0  0  0  0  0  0
  150.3041  142.6065  156.1558 H   0  0  0  0  0  0  0  0  0  0  0  0
  152.6437  141.8578  159.0909 H   0  0  0  0  0  0  0  0  0  0  0  0
  153.0958  143.5860  160.8394 H   0  0  0  0  0  0  0  0  0  0  0  0
  152.0156  145.8367  160.6465 H   0  0  0  0  0  0  0  0  0  0  0  0
  150.4788  146.2791  158.6432 H   0  0  0  0  0  0  0  0  0  0  0  0
  150.1465  144.5903  157.0969 H   0  0  0  0  0  0  0  0  0  0  0  0
  1  2  2  0  0  0  0
  2  3  1  0  0  0  0
  2  9  1  0  0  0  0
  3  4  1  0  0  0  0
  3 18  1  0  0  0  0
  3 19  1  0  0  0  0
  4  8  1  0  0  0  0
  4  5  1  0  0  0  0
  4 20  1  0  0  0  0
  5  6  2  0  0  0  0
  5 21  1  0  0  0  0
  6  7  1  0  0  0  0
  6 22  1  0  0  0  0
  7  8  1  0  0  0  0
  7 23  1  0  0  0  0
  7 24  1  0  0  0  0
  8 25  1  0  0  0  0
  8 26  1  0  0  0  0
  9 10  1  0  0  0  0
  9 27  1  0  0  0  0
 10 11  1  0  0  0  0
 10 28  1  0  0  0  0
 10 29  1  0  0  0  0
 11 12  1  0  0  0  0
 11 30  1  0  0  0  0
 11 31  1  0  0  0  0
 12 17  1  0  0  0  0
 12 13  2  0  0  0  0
 13 14  1  0  0  0  0
 13 32  1  0  0  0  0
 14 15  2  0  0  0  0
 14 33  1  0  0  0  0
 15 16  1  0  0  0  0
 15 34  1  0  0  0  0
 16 17  2  0  0  0  0
 16 35  1  0  0  0  0
 17 36  1  0  0  0  0
M  CHG  1  17   1
M  END
> <s_m_source_file>
AV-unprocessed.smi

> <i_m_source_file_index>
3173

> <i_lp_mmshare_version>
43012

> <i_f3d_flags>
0

> <s_epik_input>
W0NIMl0xW0NIMl1bQ0hdPVtDSF1bQ0BIXTFbQ0gyXUMoPU8pW05IXVtDSDJdW0NIMl1jMltjSF1bY0hdW2NIXVtjSF1uMg==

> <s_epik_cmdline>
J2VwaWtfcHl0aG9uJywgJy1waCcsICc3LjAnLCAnLXRuJywgJzgnLCAnLW1hJywgJzIwMCcsICctbWV0YWxfYmluZGluZycsICctaW1hZScsICc8aW5maWxlLm1hZT4nLCAnLW9tYWUnLCAnPG91dGZpbGUubWFlPic=

> <r_epik_Ionization_Penalty>
1.86798

> <r_epik_Ionization_Penalty_Charging>
1.86798

> <r_epik_Ionization_Penalty_Neutral>
1.53848e-08

> <r_epik_State_Penalty>
1.98677

> <r_epik_Charging_Adjusted_Penalty>
3.85475

> <i_epik_Tot_Q>
1

> <i_epik_Tot_abs_Q>
1

> <r_epik_Metal_State_Penalty>
2.01174

> <b_epik_Metal_Only>
0

> <s_lp_Force_Field>
OPLS_2005

> <r_lp_Energy>
19.7802

> <b_lp_Chiralities_Consistent>
1

> <s_lp_Variant>
AV-unprocessed.smi:3173-3

> <Gold.Version>
5.8.1

> <Gold.Id.Protein>
6NUR|6NUR_protein|mol2

> <Gold.PLP.Fitness>
46.0902

> <Gold.PLP.PLP>
-37.5909

> <Gold.PLP.part.hbond>
-1.9355

> <Gold.PLP.part.metal>
0.0000

> <Gold.PLP.part.buried>
-5.3575

> <Gold.PLP.part.nonpolar>
-31.3485

> <Gold.PLP.part.repulsive>
0.1596

> <Gold.PLP.ligand.clash>
0.0000

> <Gold.PLP.ligand.torsion>
0.2513

> <Gold.PLP.Chemscore.Hbond>
2.9913

> <Gold.PLP.Chemscore.CHOScore>
0.0000

> <Gold.PLP.Chemscore.Metal>
0.0000

> <Gold.Chemscore.Hbonds>
donor molecule, donor type, donor heavy atom, donor atom, acceptor molecule, acceptor atom, score
      L1  H    17    36       P1  8028  2.00
      P1  H  7989  7998       L1     1  1.00

> <Gold.PLP.Chemscore.Internal.Correction>
0.0282

> <Gold.Rescore>
     Score         DG    S(hbond)    S(metal)    S(lipo)     H(rot)  DE(clash)    DE(int)     intcor
     18.24     -19.80       1.92        0.00     102.90       1.61       0.04       1.52       ----

> <Gold.Chemscore.Fitness>
18.2441

> <Gold.Chemscore.DG>
-19.7970

> <Gold.Chemscore.ZeroCoef>
-5.4800

> <Gold.Chemscore.Hbond>
1.9175

> <Gold.Chemscore.Metal>
0.0000

> <Gold.Chemscore.Lipo>
102.9043

> <Gold.Chemscore.Internal_Hbond>
0.0000

> <Gold.Chemscore.DEClash>
0.0371

> <Gold.Chemscore.DEInternal>
1.5158

> <Gold.Chemscore.Rot>
1.6122

> <Gold.Chemscore.Internal.Correction>
   9.000000E+99

> <Gold.Chemscore.Hbonds>
donor molecule, donor type, donor heavy atom, donor atom, acceptor molecule, acceptor atom, score
      L1  H    17    36       P1  8028  0.50
      P1  H  7989  7998       L1     1  0.99

> <Gold.Chemscore.Hbond.Weighted>
-6.4043

> <Gold.Chemscore.Metal.Weighted>
-0.0000

> <Gold.Chemscore.Lipo.Weighted>
-12.0398

> <Gold.Chemscore.Internal_Hbond.Weighted>
0.0000

> <Gold.Chemscore.DEClash.Weighted>
0.0371

> <Gold.Chemscore.DEInternal.Weighted>
1.5158

> <Gold.Chemscore.Rot.Weighted>
4.1271

> <Gold.Chemscore.Internal.Correction.Weighted>
   9.000000E+99

> <Gold.Protein.RotatedTorsions>
[ 6907 6896 6895 6894 ] final  172.02 input  -60.11 | X-H torsion
[ 7974 7965 7964 7962 ] final -177.69 input  175.53 | X-H torsion
[ 8008 7997 7996 7995 ] final    6.73 input   59.86 | X-H torsion
[ 10167 10162 10161 10158 ] final  161.40 input  -65.29 | X-H torsion
[ 10718 10713 10712 10709 ] final -112.88 input   66.30 | X-H torsion
[ 10763 10752 10751 10750 ] final   27.86 input  -60.55 | X-H torsion
[ 11005 11000 10999 10996 ] final -175.86 input  -57.11 | X-H torsion

> <Gold.Protein.ActiveResidues>
 VAL166  LYS551  ARG553  GLY616  TRP617  ASP618  TYR619  PRO620  LYS621  CYS622 
 ASP623  PHE694  ASN695  SER759  ASP760  ASP761  ALA762  ILE779  LEU786  VAL792 
 PHE793  MET794  SER795  GLU796  ALA797  LYS798  CYS799  TRP800  GLU811  SER814 

> <Gold.Protein.RotatedAtoms>
  151.7909  133.3359  159.3498 H   0  0  0  0  0  0  0  0  0  0  0  0  # atno 6907 bound_to 6896
  150.7392  134.5843  159.5964 H   0  0  0  0  0  0  0  0  0  0  0  0  # atno 6908 bound_to 6896
  152.3211  134.7381  160.0365 H   0  0  0  0  0  0  0  0  0  0  0  0  # atno 6909 bound_to 6896
  144.7128  140.0981  143.6418 H   0  0  0  0  0  0  0  0  0  0  0  0  # atno 7974 bound_to 7965
  154.7448  140.2756  155.6342 H   0  0  0  0  0  0  0  0  0  0  0  0  # atno 8008 bound_to 7997
  156.2882  140.2690  156.2112 H   0  0  0  0  0  0  0  0  0  0  0  0  # atno 8009 bound_to 7997
  155.0212  140.0371  157.2428 H   0  0  0  0  0  0  0  0  0  0  0  0  # atno 8010 bound_to 7997
  139.4849  144.4540  151.8793 H   0  0  0  0  0  0  0  0  0  0  0  0  # atno 10167 bound_to 10162
  156.0732  130.5943  150.8567 H   0  0  0  0  0  0  0  0  0  0  0  0  # atno 10718 bound_to 10713
  153.0528  135.6527  154.0650 H   0  0  0  0  0  0  0  0  0  0  0  0  # atno 10763 bound_to 10752
  154.0335  135.2909  155.3366 H   0  0  0  0  0  0  0  0  0  0  0  0  # atno 10764 bound_to 10752
  154.6827  135.5314  153.8351 H   0  0  0  0  0  0  0  0  0  0  0  0  # atno 10765 bound_to 10752
  140.4586  134.6276  157.4833 H   0  0  0  0  0  0  0  0  0  0  0  0  # atno 11005 bound_to 11000
  145.9562  139.2768  143.1183 LP  0  0  0  0  0  0  0  0  0  0  0  0  # atno 17320 bound_to 7965
  145.9270  140.9075  143.0376 LP  0  0  0  0  0  0  0  0  0  0  0  0  # atno 17321 bound_to 7965
  140.3998  144.2507  150.5894 LP  0  0  0  0  0  0  0  0  0  0  0  0  # atno 17342 bound_to 10162
  140.5067  143.2302  151.8597 LP  0  0  0  0  0  0  0  0  0  0  0  0  # atno 17343 bound_to 10162
  157.5814  131.0946  150.9264 LP  0  0  0  0  0  0  0  0  0  0  0  0  # atno 17370 bound_to 10713
  156.9459  130.5402  149.5281 LP  0  0  0  0  0  0  0  0  0  0  0  0  # atno 17371 bound_to 10713
  139.9960  134.6911  155.9609 LP  0  0  0  0  0  0  0  0  0  0  0  0  # atno 17394 bound_to 11000
  141.1631  133.6538  156.4388 LP  0  0  0  0  0  0  0  0  0  0  0  0  # atno 17395 bound_to 11000

$$$$
