AV-unprocessed.smi:459|AV-procd|sdf|2625|dock2
  -GOLD-   2262023 23D 1   1.00000     0.00000
 Structure written by MMmdl.
 44 46  0  0  0  0  0  0  0  0  2 V2000
  155.3227  138.0633  164.2712 C   0  0  0  0  0  0  0  0  0  0  0  0
  154.4904  137.3613  163.3597 O   0  0  0  0  0  0  0  0  0  0  0  0
  154.2393  137.9394  162.1339 C   0  0  0  0  0  0  0  0  0  0  0  0
  154.7638  139.1876  161.7185 C   0  0  0  0  0  0  0  0  0  0  0  0
  154.4567  139.7006  160.4436 C   0  0  0  0  0  0  0  0  0  0  0  0
  153.6277  138.9875  159.5552 C   0  0  0  0  0  0  0  0  0  0  0  0
  153.3871  139.5606  158.3249 O   0  0  0  0  0  0  0  0  0  0  0  0
  152.3843  138.9846  157.5002 C   0  0  0  0  0  0  0  0  0  0  0  0
  151.0255  139.5625  157.9133 C   0  0  0  0  0  0  0  0  0  0  0  0
  150.8966  140.9782  157.5437 N   0  0  0  0  0  0  0  0  0  0  0  0
  150.1951  141.5654  156.5315 C   0  0  0  0  0  0  0  0  0  0  0  0
  149.3558  140.8783  155.5034 C   0  0  0  0  0  0  0  0  0  0  0  0
  150.1558  139.8105  154.7454 C   0  0  0  0  0  0  0  0  0  0  0  0
  149.3141  139.1350  153.8360 O   0  0  0  0  0  0  0  0  0  0  0  0
  150.4136  142.9082  156.6158 N   0  3  0  0  0  0  0  0  0  0  0  0
  151.2494  143.1841  157.6988 C   0  0  0  0  0  0  0  0  0  0  0  0
  151.7448  144.3908  158.1834 C   0  0  0  0  0  0  0  0  0  0  0  0
  152.5754  144.3220  159.3212 C   0  0  0  0  0  0  0  0  0  0  0  0
  152.8827  143.0891  159.9330 C   0  0  0  0  0  0  0  0  0  0  0  0
  152.3760  141.8719  159.4312 C   0  0  0  0  0  0  0  0  0  0  0  0
  151.5588  141.9485  158.3038 C   0  0  0  0  0  0  0  0  0  0  0  0
  153.0989  137.7416  159.9725 C   0  0  0  0  0  0  0  0  0  0  0  0
  153.4048  137.2294  161.2482 C   0  0  0  0  0  0  0  0  0  0  0  0
  155.4353  137.4748  165.1816 H   0  0  0  0  0  0  0  0  0  0  0  0
  154.8870  139.0233  164.5513 H   0  0  0  0  0  0  0  0  0  0  0  0
  156.3193  138.2248  163.8580 H   0  0  0  0  0  0  0  0  0  0  0  0
  155.4059  139.7726  162.3592 H   0  0  0  0  0  0  0  0  0  0  0  0
  154.8671  140.6534  160.1428 H   0  0  0  0  0  0  0  0  0  0  0  0
  152.5774  139.2187  156.4519 H   0  0  0  0  0  0  0  0  0  0  0  0
  152.3795  137.8995  157.6134 H   0  0  0  0  0  0  0  0  0  0  0  0
  150.2044  138.9998  157.4683 H   0  0  0  0  0  0  0  0  0  0  0  0
  150.8999  139.4877  158.9937 H   0  0  0  0  0  0  0  0  0  0  0  0
  148.4891  140.4307  155.9912 H   0  0  0  0  0  0  0  0  0  0  0  0
  148.9710  141.6245  154.8071 H   0  0  0  0  0  0  0  0  0  0  0  0
  150.9776  140.2668  154.1926 H   0  0  0  0  0  0  0  0  0  0  0  0
  150.5889  139.0855  155.4352 H   0  0  0  0  0  0  0  0  0  0  0  0
  149.6188  139.3045  152.9575 H   0  0  0  0  0  0  0  0  0  0  0  0
  151.5087  145.3368  157.7181 H   0  0  0  0  0  0  0  0  0  0  0  0
  152.9833  145.2332  159.7344 H   0  0  0  0  0  0  0  0  0  0  0  0
  153.5200  143.0765  160.8054 H   0  0  0  0  0  0  0  0  0  0  0  0
  152.6160  140.9331  159.9086 H   0  0  0  0  0  0  0  0  0  0  0  0
  152.4556  137.1570  159.3328 H   0  0  0  0  0  0  0  0  0  0  0  0
  152.9949  136.2769  161.5502 H   0  0  0  0  0  0  0  0  0  0  0  0
  150.0150  143.5857  155.9784 H   0  0  0  0  0  0  0  0  0  0  0  0
  1  2  1  0  0  0  0
  1 24  1  0  0  0  0
  1 25  1  0  0  0  0
  1 26  1  0  0  0  0
  2  3  1  0  0  0  0
  3 23  1  0  0  0  0
  3  4  2  0  0  0  0
  4  5  1  0  0  0  0
  4 27  1  0  0  0  0
  5  6  2  0  0  0  0
  5 28  1  0  0  0  0
  6  7  1  0  0  0  0
  6 22  1  0  0  0  0
  7  8  1  0  0  0  0
  8  9  1  0  0  0  0
  8 29  1  0  0  0  0
  8 30  1  0  0  0  0
  9 10  1  0  0  0  0
  9 31  1  0  0  0  0
  9 32  1  0  0  0  0
 10 21  1  0  0  0  0
 10 11  1  0  0  0  0
 11 12  1  0  0  0  0
 11 15  2  0  0  0  0
 12 13  1  0  0  0  0
 12 33  1  0  0  0  0
 12 34  1  0  0  0  0
 13 14  1  0  0  0  0
 13 35  1  0  0  0  0
 13 36  1  0  0  0  0
 14 37  1  0  0  0  0
 15 16  1  0  0  0  0
 15 44  1  0  0  0  0
 16 21  2  0  0  0  0
 16 17  1  0  0  0  0
 17 18  2  0  0  0  0
 17 38  1  0  0  0  0
 18 19  1  0  0  0  0
 18 39  1  0  0  0  0
 19 20  2  0  0  0  0
 19 40  1  0  0  0  0
 20 21  1  0  0  0  0
 20 41  1  0  0  0  0
 22 23  2  0  0  0  0
 22 42  1  0  0  0  0
 23 43  1  0  0  0  0
M  CHG  1  15   1
M  END
> <s_m_source_file>
AV-unprocessed.smi

> <i_m_source_file_index>
459

> <i_lp_mmshare_version>
43012

> <i_f3d_flags>
0

> <s_epik_input>
W0NIM11PYzFbY0hdW2NIXWMoW2NIXVtjSF0xKU9bQ0gyXVtDSDJdbihjKG4yKVtDSDJdW0NIMl1bT0hdKWMoYzIzKVtjSF1bY0hdW2NIXVtjSF0z

> <s_epik_cmdline>
J2VwaWtfcHl0aG9uJywgJy1waCcsICc3LjAnLCAnLXRuJywgJzgnLCAnLW1hJywgJzIwMCcsICctbWV0YWxfYmluZGluZycsICctaW1hZScsICc8aW5maWxlLm1hZT4nLCAnLW9tYWUnLCAnPG91dGZpbGUubWFlPic=

> <r_lp_tautomer_probability>
1

> <r_epik_Ionization_Penalty>
0.723344

> <r_epik_Ionization_Penalty_Charging>
0.723344

> <r_epik_Ionization_Penalty_Neutral>
5.89567e-08

> <r_epik_State_Penalty>
0.747968

> <r_epik_Charging_Adjusted_Penalty>
1.47131

> <i_epik_Tot_Q>
1

> <i_epik_Tot_abs_Q>
1

> <r_epik_Metal_State_Penalty>
4.64387

> <b_epik_Metal_Only>
0

> <s_lp_Force_Field>
OPLS_2005

> <r_lp_Energy>
25.798

> <b_lp_Chiralities_Consistent>
1

> <s_lp_Variant>
AV-unprocessed.smi:459-2

> <Gold.Version>
5.8.1

> <Gold.Id.Protein>
6NUR|6NUR_protein|mol2

> <Gold.PLP.Fitness>
60.0603

> <Gold.PLP.PLP>
-48.7721

> <Gold.PLP.part.hbond>
-3.0000

> <Gold.PLP.part.metal>
0.0000

> <Gold.PLP.part.buried>
-6.0625

> <Gold.PLP.part.nonpolar>
-40.6841

> <Gold.PLP.part.repulsive>
0.0786

> <Gold.PLP.ligand.clash>
0.0000

> <Gold.PLP.ligand.torsion>
0.4883

> <Gold.PLP.Chemscore.Hbond>
3.9840

> <Gold.PLP.Chemscore.CHOScore>
0.0000

> <Gold.PLP.Chemscore.Metal>
0.0000

> <Gold.Chemscore.Hbonds>
donor molecule, donor type, donor heavy atom, donor atom, acceptor molecule, acceptor atom, score
      L1  H    14    37       P1  7957  1.00
      L1  H    15    44       P1  8028  1.98
      P1  H  7997  8010       L1     7  1.00

> <Gold.PLP.Chemscore.Internal.Correction>
0.3129

> <Gold.Rescore>
     Score         DG    S(hbond)    S(metal)    S(lipo)     H(rot)  DE(clash)    DE(int)     intcor
     21.24     -23.69       2.83        0.00     133.55       2.68       0.00       2.45       ----

> <Gold.Chemscore.Fitness>
21.2410

> <Gold.Chemscore.DG>
-23.6873

> <Gold.Chemscore.ZeroCoef>
-5.4800

> <Gold.Chemscore.Hbond>
2.8301

> <Gold.Chemscore.Metal>
0.0000

> <Gold.Chemscore.Lipo>
133.5544

> <Gold.Chemscore.Internal_Hbond>
0.0000

> <Gold.Chemscore.DEClash>
0.0004

> <Gold.Chemscore.DEInternal>
2.4459

> <Gold.Chemscore.Rot>
2.6840

> <Gold.Chemscore.Internal.Correction>
   9.000000E+99

> <Gold.Chemscore.Hbonds>
donor molecule, donor type, donor heavy atom, donor atom, acceptor molecule, acceptor atom, score
      L1  H    14    37       P1  7957  0.98
      L1  H    15    44       P1  8028  0.94
      P1  H  7997  8010       L1     7  0.35

> <Gold.Chemscore.Hbond.Weighted>
-9.4524

> <Gold.Chemscore.Metal.Weighted>
-0.0000

> <Gold.Chemscore.Lipo.Weighted>
-15.6259

> <Gold.Chemscore.Internal_Hbond.Weighted>
0.0000

> <Gold.Chemscore.DEClash.Weighted>
0.0004

> <Gold.Chemscore.DEInternal.Weighted>
2.4459

> <Gold.Chemscore.Rot.Weighted>
6.8710

> <Gold.Chemscore.Internal.Correction.Weighted>
   9.000000E+99

> <Gold.Protein.RotatedTorsions>
[ 6907 6896 6895 6894 ] final  170.62 input  -60.11 | X-H torsion
[ 7974 7965 7964 7962 ] final  112.71 input  175.53 | X-H torsion
[ 8008 7997 7996 7995 ] final   27.84 input   59.86 | X-H torsion
[ 10167 10162 10161 10158 ] final  -73.17 input  -65.29 | X-H torsion
[ 10718 10713 10712 10709 ] final  178.34 input   66.30 | X-H torsion
[ 10763 10752 10751 10750 ] final   50.06 input  -60.55 | X-H torsion
[ 11005 11000 10999 10996 ] final   98.11 input  -57.11 | X-H torsion

> <Gold.Protein.ActiveResidues>
 VAL166  LYS551  ARG553  GLY616  TRP617  ASP618  TYR619  PRO620  LYS621  CYS622 
 ASP623  PHE694  ASN695  SER759  ASP760  ASP761  ALA762  ILE779  LEU786  VAL792 
 PHE793  MET794  SER795  GLU796  ALA797  LYS798  CYS799  TRP800  GLU811  SER814 

> <Gold.Protein.RotatedAtoms>
  151.8131  133.3384  159.3561 H   0  0  0  0  0  0  0  0  0  0  0  0  # atno 6907 bound_to 6896
  150.7319  134.5644  159.5868 H   0  0  0  0  0  0  0  0  0  0  0  0  # atno 6908 bound_to 6896
  152.3060  134.7555  160.0398 H   0  0  0  0  0  0  0  0  0  0  0  0  # atno 6909 bound_to 6896
  145.2261  139.2840  143.4193 H   0  0  0  0  0  0  0  0  0  0  0  0  # atno 7974 bound_to 7965
  155.0493  140.3178  155.4697 H   0  0  0  0  0  0  0  0  0  0  0  0  # atno 8008 bound_to 7997
  156.2838  140.2149  156.5562 H   0  0  0  0  0  0  0  0  0  0  0  0  # atno 8009 bound_to 7997
  154.7224  140.0488  157.0639 H   0  0  0  0  0  0  0  0  0  0  0  0  # atno 8010 bound_to 7997
  140.5132  143.2342  151.7558 H   0  0  0  0  0  0  0  0  0  0  0  0  # atno 10167 bound_to 10162
  156.8920  130.9850  151.3048 H   0  0  0  0  0  0  0  0  0  0  0  0  # atno 10718 bound_to 10713
  152.9785  135.5891  154.4191 H   0  0  0  0  0  0  0  0  0  0  0  0  # atno 10763 bound_to 10752
  154.3817  135.2767  155.2209 H   0  0  0  0  0  0  0  0  0  0  0  0  # atno 10764 bound_to 10752
  154.4120  135.6079  153.6013 H   0  0  0  0  0  0  0  0  0  0  0  0  # atno 10765 bound_to 10752
  139.8773  134.9033  156.4407 H   0  0  0  0  0  0  0  0  0  0  0  0  # atno 11005 bound_to 11000
  146.3364  140.2581  142.8601 LP  0  0  0  0  0  0  0  0  0  0  0  0  # atno 17320 bound_to 7965
  144.9720  140.8378  143.5449 LP  0  0  0  0  0  0  0  0  0  0  0  0  # atno 17321 bound_to 7965
  139.4902  144.4361  151.9817 LP  0  0  0  0  0  0  0  0  0  0  0  0  # atno 17342 bound_to 10162
  140.3454  144.3153  150.5959 LP  0  0  0  0  0  0  0  0  0  0  0  0  # atno 17343 bound_to 10162
  157.6078  130.8560  149.8903 LP  0  0  0  0  0  0  0  0  0  0  0  0  # atno 17370 bound_to 10713
  156.0624  130.3697  150.0952 LP  0  0  0  0  0  0  0  0  0  0  0  0  # atno 17371 bound_to 10713
  140.9001  133.7785  155.9670 LP  0  0  0  0  0  0  0  0  0  0  0  0  # atno 17394 bound_to 11000
  140.8660  134.2784  157.5213 LP  0  0  0  0  0  0  0  0  0  0  0  0  # atno 17395 bound_to 11000

$$$$
