AV-unprocessed.smi:3222|AV-procd|sdf|12306|dock4
  -GOLD-   2272018153D 1   1.00000     0.00000
 Structure written by MMmdl.
 41 42  0  0  0  0  0  0  0  0  2 V2000
  146.9822  138.6038  153.3746 C   0  0  0  0  0  0  0  0  0  0  0  0
  148.1843  138.8905  154.2889 C   0  0  1  0  0  0  0  0  0  0  0  0
  149.2283  137.8632  154.0685 N   0  3  0  0  0  0  0  0  0  0  0  0
  149.4531  136.9457  155.2018 C   0  0  0  0  0  0  0  0  0  0  0  0
  148.6549  135.6461  155.0171 C   0  0  0  0  0  0  0  0  0  0  0  0
  149.4279  134.4743  155.4195 N   0  0  0  0  0  0  0  0  0  0  0  0
  149.7526  133.4330  154.4594 C   0  0  0  0  0  0  0  0  0  0  0  0
  150.4019  132.3150  155.2878 C   0  0  0  0  0  0  0  0  0  0  0  0
  150.7244  132.9383  156.6504 C   0  0  0  0  0  0  0  0  0  0  0  0
  149.9586  134.2501  156.6272 C   0  0  0  0  0  0  0  0  0  0  0  0
  149.8613  134.9853  157.6086 O   0  0  0  0  0  0  0  0  0  0  0  0
  148.7519  140.3220  154.1026 C   0  0  1  0  0  0  0  0  0  0  0  0
  147.6579  141.4066  154.1100 C   0  0  0  0  0  0  0  0  0  0  0  0
  149.8337  140.6344  155.0321 N   0  0  0  0  0  0  0  0  0  0  0  0
  149.8696  141.6244  155.9933 C   0  0  0  0  0  0  0  0  0  0  0  0
  151.0869  141.5566  156.6075 C   0  0  0  0  0  0  0  0  0  0  0  0
  151.7409  140.4818  155.9443 C   0  0  0  0  0  0  0  0  0  0  0  0
  150.9924  139.9364  154.9995 N   0  0  0  0  0  0  0  0  0  0  0  0
  146.1996  139.3509  153.5100 H   0  0  0  0  0  0  0  0  0  0  0  0
  146.5463  137.6295  153.5974 H   0  0  0  0  0  0  0  0  0  0  0  0
  147.2644  138.6047  152.3212 H   0  0  0  0  0  0  0  0  0  0  0  0
  147.8269  138.8150  155.3176 H   0  0  0  0  0  0  0  0  0  0  0  0
  148.9769  137.3192  153.2557 H   0  0  0  0  0  0  0  0  0  0  0  0
  150.5196  136.7285  155.2745 H   0  0  0  0  0  0  0  0  0  0  0  0
  149.1575  137.4403  156.1281 H   0  0  0  0  0  0  0  0  0  0  0  0
  147.7342  135.6887  155.6010 H   0  0  0  0  0  0  0  0  0  0  0  0
  148.3528  135.5341  153.9744 H   0  0  0  0  0  0  0  0  0  0  0  0
  148.8624  133.0829  153.9353 H   0  0  0  0  0  0  0  0  0  0  0  0
  150.4517  133.8283  153.7211 H   0  0  0  0  0  0  0  0  0  0  0  0
  149.7023  131.4879  155.4148 H   0  0  0  0  0  0  0  0  0  0  0  0
  151.2929  131.9184  154.7997 H   0  0  0  0  0  0  0  0  0  0  0  0
  150.4064  132.3050  157.4792 H   0  0  0  0  0  0  0  0  0  0  0  0
  151.7908  133.1418  156.7529 H   0  0  0  0  0  0  0  0  0  0  0  0
  149.1946  140.3524  153.1057 H   0  0  0  0  0  0  0  0  0  0  0  0
  146.9033  141.2044  153.3495 H   0  0  0  0  0  0  0  0  0  0  0  0
  148.0812  142.3890  153.8975 H   0  0  0  0  0  0  0  0  0  0  0  0
  147.1478  141.4685  155.0716 H   0  0  0  0  0  0  0  0  0  0  0  0
  149.0347  142.2897  156.1580 H   0  0  0  0  0  0  0  0  0  0  0  0
  151.4552  142.1808  157.4084 H   0  0  0  0  0  0  0  0  0  0  0  0
  152.7312  140.0870  156.1172 H   0  0  0  0  0  0  0  0  0  0  0  0
  150.0960  138.3428  153.8715 H   0  0  0  0  0  0  0  0  0  0  0  0
  1  2  1  0  0  0  0
  1 19  1  0  0  0  0
  1 20  1  0  0  0  0
  1 21  1  0  0  0  0
  2  3  1  0  0  0  0
  2 12  1  0  0  0  0
  2 22  1  0  0  0  0
  3  4  1  0  0  0  0
  3 23  1  0  0  0  0
  3 41  1  0  0  0  0
  4  5  1  0  0  0  0
  4 24  1  0  0  0  0
  4 25  1  0  0  0  0
  5  6  1  0  0  0  0
  5 26  1  0  0  0  0
  5 27  1  0  0  0  0
  6 10  1  0  0  0  0
  6  7  1  0  0  0  0
  7  8  1  0  0  0  0
  7 28  1  0  0  0  0
  7 29  1  0  0  0  0
  8  9  1  0  0  0  0
  8 30  1  0  0  0  0
  8 31  1  0  0  0  0
  9 10  1  0  0  0  0
  9 32  1  0  0  0  0
  9 33  1  0  0  0  0
 10 11  2  0  0  0  0
 12 13  1  0  0  0  0
 12 14  1  0  0  0  0
 12 34  1  0  0  0  0
 13 35  1  0  0  0  0
 13 36  1  0  0  0  0
 13 37  1  0  0  0  0
 14 18  1  0  0  0  0
 14 15  1  0  0  0  0
 15 16  2  0  0  0  0
 15 38  1  0  0  0  0
 16 17  1  0  0  0  0
 16 39  1  0  0  0  0
 17 18  2  0  0  0  0
 17 40  1  0  0  0  0
M  CHG  1   3   1
M  END
> <s_m_source_file>
AV-unprocessed.smi

> <i_m_source_file_index>
3222

> <i_lp_mmshare_version>
43012

> <i_f3d_flags>
0

> <s_epik_input>
bjFbY0hdW2NIXVtjSF1uMVtDQEBIXShbQ0gzXSlbQ0BIXShbQ0gzXSlbTkhdW0NIMl1bQ0gyXU4yW0NIMl1bQ0gyXVtDSDJdQzI9Tw==

> <s_epik_cmdline>
J2VwaWtfcHl0aG9uJywgJy1waCcsICc3LjAnLCAnLXRuJywgJzgnLCAnLW1hJywgJzIwMCcsICctbWV0YWxfYmluZGluZycsICctaW1hZScsICc8aW5maWxlLm1hZT4nLCAnLW9tYWUnLCAnPG91dGZpbGUubWFlPic=

> <r_lp_tautomer_probability>
1

> <r_epik_Ionization_Penalty>
0.0064019

> <r_epik_Ionization_Penalty_Charging>
0.00639164

> <r_epik_Ionization_Penalty_Neutral>
1.02567e-05

> <r_epik_State_Penalty>
0.00472531

> <r_epik_Charging_Adjusted_Penalty>
0.011117

> <i_epik_Tot_Q>
1

> <i_epik_Tot_abs_Q>
1

> <r_epik_Metal_State_Penalty>
-0

> <b_epik_Metal_Only>
0

> <s_lp_Force_Field>
OPLS_2005

> <r_lp_Energy>
25.7217

> <b_lp_Chiralities_Consistent>
1

> <s_lp_Variant>
AV-unprocessed.smi:3222-4

> <Gold.Version>
5.8.1

> <Gold.Id.Protein>
6NUR|6NUR_protein|mol2

> <Gold.PLP.Fitness>
41.9797

> <Gold.PLP.PLP>
-31.2166

> <Gold.PLP.part.hbond>
-3.0000

> <Gold.PLP.part.metal>
0.0000

> <Gold.PLP.part.buried>
-2.2054

> <Gold.PLP.part.nonpolar>
-25.5371

> <Gold.PLP.part.repulsive>
0.0577

> <Gold.PLP.ligand.clash>
0.0000

> <Gold.PLP.ligand.torsion>
1.4444

> <Gold.PLP.Chemscore.Hbond>
3.4865

> <Gold.PLP.Chemscore.CHOScore>
0.9695

> <Gold.PLP.Chemscore.Metal>
0.0000

> <Gold.Chemscore.Hbonds>
donor molecule, donor type, donor heavy atom, donor atom, acceptor molecule, acceptor atom, score
      L1  H     3    23       P1  7948  2.00
      P1  H  6896  6907       L1    11  0.79
      P1  H  7989  7998       L1    18  0.65
      L1  C    15    38       P1  8028  0.97

> <Gold.PLP.Chemscore.Internal.Correction>
0.2841

> <Gold.Rescore>
     Score         DG    S(hbond)    S(metal)    S(lipo)     H(rot)  DE(clash)    DE(int)     intcor
     11.84     -14.61       1.90        0.00      67.34       1.99       0.01       2.76       ----

> <Gold.Chemscore.Fitness>
11.8439

> <Gold.Chemscore.DG>
-14.6149

> <Gold.Chemscore.ZeroCoef>
-5.4800

> <Gold.Chemscore.Hbond>
1.9032

> <Gold.Chemscore.Metal>
0.0000

> <Gold.Chemscore.Lipo>
67.3370

> <Gold.Chemscore.Internal_Hbond>
0.0000

> <Gold.Chemscore.DEClash>
0.0089

> <Gold.Chemscore.DEInternal>
2.7621

> <Gold.Chemscore.Rot>
1.9922

> <Gold.Chemscore.Internal.Correction>
   9.000000E+99

> <Gold.Chemscore.Hbonds>
donor molecule, donor type, donor heavy atom, donor atom, acceptor molecule, acceptor atom, score
      L1  H     3    23       P1  7948  1.00
      P1  H  6896  6907       L1    11  0.71
      P1  H  7989  7998       L1    18  0.01

> <Gold.Chemscore.Hbond.Weighted>
-6.3567

> <Gold.Chemscore.Metal.Weighted>
-0.0000

> <Gold.Chemscore.Lipo.Weighted>
-7.8784

> <Gold.Chemscore.Internal_Hbond.Weighted>
0.0000

> <Gold.Chemscore.DEClash.Weighted>
0.0089

> <Gold.Chemscore.DEInternal.Weighted>
2.7621

> <Gold.Chemscore.Rot.Weighted>
5.1002

> <Gold.Chemscore.Internal.Correction.Weighted>
   9.000000E+99

> <Gold.Protein.RotatedTorsions>
[ 6907 6896 6895 6894 ] final  -90.34 input  -60.11 | X-H torsion
[ 7974 7965 7964 7962 ] final  167.71 input  175.53 | X-H torsion
[ 8008 7997 7996 7995 ] final   69.30 input   59.86 | X-H torsion
[ 10167 10162 10161 10158 ] final -178.46 input  -65.29 | X-H torsion
[ 10718 10713 10712 10709 ] final -164.94 input   66.30 | X-H torsion
[ 10763 10752 10751 10750 ] final   33.88 input  -60.55 | X-H torsion
[ 11005 11000 10999 10996 ] final   23.53 input  -57.11 | X-H torsion

> <Gold.Protein.ActiveResidues>
 VAL166  LYS551  ARG553  GLY616  TRP617  ASP618  TYR619  PRO620  LYS621  CYS622 
 ASP623  PHE694  ASN695  SER759  ASP760  ASP761  ALA762  ILE779  LEU786  VAL792 
 PHE793  MET794  SER795  GLU796  ALA797  LYS798  CYS799  TRP800  GLU811  SER814 

> <Gold.Protein.RotatedAtoms>
  150.6881  134.2448  159.4486 H   0  0  0  0  0  0  0  0  0  0  0  0  # atno 6907 bound_to 6896
  152.0389  134.9721  160.0583 H   0  0  0  0  0  0  0  0  0  0  0  0  # atno 6908 bound_to 6896
  152.1230  133.4329  159.4721 H   0  0  0  0  0  0  0  0  0  0  0  0  # atno 6909 bound_to 6896
  144.7414  139.8800  143.6395 H   0  0  0  0  0  0  0  0  0  0  0  0  # atno 7974 bound_to 7965
  155.7215  140.3493  155.5018 H   0  0  0  0  0  0  0  0  0  0  0  0  # atno 8008 bound_to 7997
  155.9265  140.1076  157.1187 H   0  0  0  0  0  0  0  0  0  0  0  0  # atno 8009 bound_to 7997
  154.4078  140.1239  156.4734 H   0  0  0  0  0  0  0  0  0  0  0  0  # atno 8010 bound_to 7997
  139.5431  144.2309  152.0935 H   0  0  0  0  0  0  0  0  0  0  0  0  # atno 10167 bound_to 10162
  156.6463  130.8989  151.3005 H   0  0  0  0  0  0  0  0  0  0  0  0  # atno 10718 bound_to 10713
  153.0191  135.6375  154.1580 H   0  0  0  0  0  0  0  0  0  0  0  0  # atno 10763 bound_to 10752
  154.1317  135.2840  155.3185 H   0  0  0  0  0  0  0  0  0  0  0  0  # atno 10764 bound_to 10752
  154.6190  135.5531  153.7616 H   0  0  0  0  0  0  0  0  0  0  0  0  # atno 10765 bound_to 10752
  140.3686  134.2047  155.7668 H   0  0  0  0  0  0  0  0  0  0  0  0  # atno 11005 bound_to 11000
  146.1218  139.4237  143.0223 LP  0  0  0  0  0  0  0  0  0  0  0  0  # atno 17320 bound_to 7965
  145.7293  141.0048  143.1360 LP  0  0  0  0  0  0  0  0  0  0  0  0  # atno 17321 bound_to 7965
  140.1790  144.4862  150.6538 LP  0  0  0  0  0  0  0  0  0  0  0  0  # atno 17342 bound_to 10162
  140.6669  143.2271  151.5721 LP  0  0  0  0  0  0  0  0  0  0  0  0  # atno 17343 bound_to 10162
  157.7155  130.9492  150.1240 LP  0  0  0  0  0  0  0  0  0  0  0  0  # atno 17370 bound_to 10713
  156.2119  130.3667  149.8660 LP  0  0  0  0  0  0  0  0  0  0  0  0  # atno 17371 bound_to 10713
  141.1962  133.8089  157.0683 LP  0  0  0  0  0  0  0  0  0  0  0  0  # atno 17394 bound_to 11000
  140.0570  134.9775  157.1237 LP  0  0  0  0  0  0  0  0  0  0  0  0  # atno 17395 bound_to 11000

$$$$
