AV-unprocessed.smi:2764|AV-procd|sdf|10642|dock4
  -GOLD-   2272015 93D 1   1.00000     0.00000
 Structure written by MMmdl.
 47 49  0  0  0  0  0  0  0  0  2 V2000
  152.8429  139.2673  156.2650 O   0  0  0  0  0  0  0  0  0  0  0  0
  151.7698  139.7385  156.6412 C   0  0  0  0  0  0  0  0  0  0  0  0
  151.5368  140.2816  157.8491 N   0  0  0  0  0  0  0  0  0  0  0  0
  152.4379  140.4208  158.9381 C   0  0  0  0  0  0  0  0  0  0  0  0
  152.2992  141.6161  159.6793 C   0  0  0  0  0  0  0  0  0  0  0  0
  153.1436  141.8497  160.7822 C   0  0  0  0  0  0  0  0  0  0  0  0
  154.1052  140.8789  161.1142 C   0  0  0  0  0  0  0  0  0  0  0  0
  154.9385  141.0583  162.1663 F   0  0  0  0  0  0  0  0  0  0  0  0
  154.1793  139.7167  160.3245 C   0  0  0  0  0  0  0  0  0  0  0  0
  153.3707  139.4921  159.2668 N   0  0  0  0  0  0  0  0  0  0  0  0
  150.6708  139.7748  155.8737 N   0  0  0  0  0  0  0  0  0  0  0  0
  150.5723  139.2555  154.5096 C   0  0  2  0  0  0  0  0  0  0  0  0
  149.1097  139.0340  154.0801 C   0  0  0  0  0  0  0  0  0  0  0  0
  148.4587  137.8650  154.8398 C   0  0  0  0  0  0  0  0  0  0  0  0
  149.2386  136.6080  154.6844 N   0  3  2  0  0  0  0  0  0  0  0  0
  148.5504  135.4517  155.3186 C   0  0  0  0  0  0  0  0  0  0  0  0
  149.3245  134.1217  155.1877 C   0  0  2  0  0  0  0  0  0  0  0  0
  149.2008  133.5079  153.8041 C   0  0  0  0  0  0  0  0  0  0  0  0
  149.5412  132.0497  154.0699 C   0  0  0  0  0  0  0  0  0  0  0  0
  148.8917  131.7784  155.3011 O   0  0  0  0  0  0  0  0  0  0  0  0
  148.8364  132.9693  156.0816 C   0  0  0  0  0  0  0  0  0  0  0  0
  150.6455  136.7829  155.1356 C   0  0  0  0  0  0  0  0  0  0  0  0
  151.3430  137.9318  154.3841 C   0  0  0  0  0  0  0  0  0  0  0  0
  150.6042  140.6309  158.0124 H   0  0  0  0  0  0  0  0  0  0  0  0
  151.5534  142.3502  159.4104 H   0  0  0  0  0  0  0  0  0  0  0  0
  153.0533  142.7565  161.3624 H   0  0  0  0  0  0  0  0  0  0  0  0
  154.9041  138.9475  160.5464 H   0  0  0  0  0  0  0  0  0  0  0  0
  149.8332  140.1762  156.2690 H   0  0  0  0  0  0  0  0  0  0  0  0
  151.0324  139.9832  153.8384 H   0  0  0  0  0  0  0  0  0  0  0  0
  148.5242  139.9433  154.2207 H   0  0  0  0  0  0  0  0  0  0  0  0
  149.0803  138.8224  153.0103 H   0  0  0  0  0  0  0  0  0  0  0  0
  148.3643  138.1076  155.8994 H   0  0  0  0  0  0  0  0  0  0  0  0
  147.4468  137.7215  154.4587 H   0  0  0  0  0  0  0  0  0  0  0  0
  148.3025  135.6715  156.3581 H   0  0  0  0  0  0  0  0  0  0  0  0
  147.5950  135.3112  154.8109 H   0  0  0  0  0  0  0  0  0  0  0  0
  150.3854  134.2935  155.3775 H   0  0  0  0  0  0  0  0  0  0  0  0
  148.1763  133.5874  153.4374 H   0  0  0  0  0  0  0  0  0  0  0  0
  149.8623  133.9694  153.0706 H   0  0  0  0  0  0  0  0  0  0  0  0
  149.1992  131.3828  153.2782 H   0  0  0  0  0  0  0  0  0  0  0  0
  150.6176  131.9189  154.1915 H   0  0  0  0  0  0  0  0  0  0  0  0
  149.4628  132.8616  156.9675 H   0  0  0  0  0  0  0  0  0  0  0  0
  147.8073  133.1163  156.4110 H   0  0  0  0  0  0  0  0  0  0  0  0
  150.6647  136.9652  156.2111 H   0  0  0  0  0  0  0  0  0  0  0  0
  151.2152  135.8731  154.9629 H   0  0  0  0  0  0  0  0  0  0  0  0
  151.4281  137.6664  153.3293 H   0  0  0  0  0  0  0  0  0  0  0  0
  152.3642  138.0522  154.7483 H   0  0  0  0  0  0  0  0  0  0  0  0
  149.2665  136.4180  153.6927 H   0  0  0  0  0  0  0  0  0  0  0  0
  1  2  2  0  0  0  0
  2  3  1  0  0  0  0
  2 11  1  0  0  0  0
  3  4  1  0  0  0  0
  3 24  1  0  0  0  0
  4 10  1  0  0  0  0
  4  5  2  0  0  0  0
  5  6  1  0  0  0  0
  5 25  1  0  0  0  0
  6  7  2  0  0  0  0
  6 26  1  0  0  0  0
  7  8  1  0  0  0  0
  7  9  1  0  0  0  0
  9 10  2  0  0  0  0
  9 27  1  0  0  0  0
 11 12  1  0  0  0  0
 11 28  1  0  0  0  0
 12 23  1  0  0  0  0
 12 13  1  0  0  0  0
 12 29  1  0  0  0  0
 13 14  1  0  0  0  0
 13 30  1  0  0  0  0
 13 31  1  0  0  0  0
 14 15  1  0  0  0  0
 14 32  1  0  0  0  0
 14 33  1  0  0  0  0
 15 16  1  0  0  0  0
 15 22  1  0  0  0  0
 15 47  1  0  0  0  0
 16 17  1  0  0  0  0
 16 34  1  0  0  0  0
 16 35  1  0  0  0  0
 17 21  1  0  0  0  0
 17 18  1  0  0  0  0
 17 36  1  0  0  0  0
 18 19  1  0  0  0  0
 18 37  1  0  0  0  0
 18 38  1  0  0  0  0
 19 20  1  0  0  0  0
 19 39  1  0  0  0  0
 19 40  1  0  0  0  0
 20 21  1  0  0  0  0
 21 41  1  0  0  0  0
 21 42  1  0  0  0  0
 22 23  1  0  0  0  0
 22 43  1  0  0  0  0
 22 44  1  0  0  0  0
 23 45  1  0  0  0  0
 23 46  1  0  0  0  0
M  CHG  1  15   1
M  END
> <s_m_source_file>
AV-unprocessed.smi

> <i_m_source_file_index>
2764

> <i_lp_mmshare_version>
43012

> <i_f3d_flags>
0

> <s_epik_input>
bjFbY0hdYyhGKVtjSF1bY0hdYzFbTkhdQyg9TylbTkhdW0NIXTJbQ0gyXVtDSDJdTihbQ0gyXVtDSDJdMilbQ0gyXVtDQEBIXTNbQ0gyXVtDSDJdT1tDSDJdMw==

> <s_epik_cmdline>
J2VwaWtfcHl0aG9uJywgJy1waCcsICc3LjAnLCAnLXRuJywgJzgnLCAnLW1hJywgJzIwMCcsICctbWV0YWxfYmluZGluZycsICctaW1hZScsICc8aW5maWxlLm1hZT4nLCAnLW9tYWUnLCAnPG91dGZpbGUubWFlPic=

> <r_epik_Ionization_Penalty>
0.0075076

> <r_epik_Ionization_Penalty_Charging>
0.00747775

> <r_epik_Ionization_Penalty_Neutral>
2.98483e-05

> <r_epik_State_Penalty>
0.00558817

> <r_epik_Charging_Adjusted_Penalty>
0.0130659

> <i_epik_Tot_Q>
1

> <i_epik_Tot_abs_Q>
1

> <r_epik_Metal_State_Penalty>
-0

> <b_epik_Metal_Only>
0

> <s_lp_Force_Field>
OPLS_2005

> <r_lp_Energy>
37.0331

> <b_lp_Chiralities_Consistent>
1

> <s_lp_Variant>
AV-unprocessed.smi:2764-3

> <Gold.Version>
5.8.1

> <Gold.Id.Protein>
6NUR|6NUR_protein|mol2

> <Gold.PLP.Fitness>
45.2653

> <Gold.PLP.PLP>
-37.5604

> <Gold.PLP.part.hbond>
-2.0000

> <Gold.PLP.part.metal>
0.0000

> <Gold.PLP.part.buried>
-1.3429

> <Gold.PLP.part.nonpolar>
-34.0730

> <Gold.PLP.part.repulsive>
0.1605

> <Gold.PLP.ligand.clash>
0.0000

> <Gold.PLP.ligand.torsion>
0.6707

> <Gold.PLP.Chemscore.Hbond>
3.0000

> <Gold.PLP.Chemscore.CHOScore>
0.0000

> <Gold.PLP.Chemscore.Metal>
0.0000

> <Gold.Chemscore.Hbonds>
donor molecule, donor type, donor heavy atom, donor atom, acceptor molecule, acceptor atom, score
      L1  H    15    47       P1  7948  2.00
      P1  H  7997  8009       L1     1  1.00

> <Gold.PLP.Chemscore.Internal.Correction>
0.0462

> <Gold.Rescore>
     Score         DG    S(hbond)    S(metal)    S(lipo)     H(rot)  DE(clash)    DE(int)     intcor
     15.35     -18.52       1.99        0.00      87.28       1.49       0.44       2.73       ----

> <Gold.Chemscore.Fitness>
15.3532

> <Gold.Chemscore.DG>
-18.5201

> <Gold.Chemscore.ZeroCoef>
-5.4800

> <Gold.Chemscore.Hbond>
1.9881

> <Gold.Chemscore.Metal>
0.0000

> <Gold.Chemscore.Lipo>
87.2812

> <Gold.Chemscore.Internal_Hbond>
0.0000

> <Gold.Chemscore.DEClash>
0.4383

> <Gold.Chemscore.DEInternal>
2.7286

> <Gold.Chemscore.Rot>
1.4891

> <Gold.Chemscore.Internal.Correction>
   9.000000E+99

> <Gold.Chemscore.Hbonds>
donor molecule, donor type, donor heavy atom, donor atom, acceptor molecule, acceptor atom, score
      L1  H    15    47       P1  7948  0.93
      P1  H  7997  8009       L1     1  1.00

> <Gold.Chemscore.Hbond.Weighted>
-6.6403

> <Gold.Chemscore.Metal.Weighted>
-0.0000

> <Gold.Chemscore.Lipo.Weighted>
-10.2119

> <Gold.Chemscore.Internal_Hbond.Weighted>
0.0000

> <Gold.Chemscore.DEClash.Weighted>
0.4383

> <Gold.Chemscore.DEInternal.Weighted>
2.7286

> <Gold.Chemscore.Rot.Weighted>
3.8121

> <Gold.Chemscore.Internal.Correction.Weighted>
   9.000000E+99

> <Gold.Protein.RotatedTorsions>
[ 6907 6896 6895 6894 ] final  -28.20 input  -60.11 | X-H torsion
[ 7974 7965 7964 7962 ] final  138.10 input  175.53 | X-H torsion
[ 8008 7997 7996 7995 ] final -164.37 input   59.86 | X-H torsion
[ 10167 10162 10161 10158 ] final -147.83 input  -65.29 | X-H torsion
[ 10718 10713 10712 10709 ] final   44.90 input   66.30 | X-H torsion
[ 10763 10752 10751 10750 ] final  -21.73 input  -60.55 | X-H torsion
[ 11005 11000 10999 10996 ] final  -80.41 input  -57.11 | X-H torsion

> <Gold.Protein.ActiveResidues>
 VAL166  LYS551  ARG553  GLY616  TRP617  ASP618  TYR619  PRO620  LYS621  CYS622 
 ASP623  PHE694  ASN695  SER759  ASP760  ASP761  ALA762  ILE779  LEU786  VAL792 
 PHE793  MET794  SER795  GLU796  ALA797  LYS798  CYS799  TRP800  GLU811  SER814 

> <Gold.Protein.RotatedAtoms>
  151.1362  135.0156  159.8604 H   0  0  0  0  0  0  0  0  0  0  0  0  # atno 6907 bound_to 6896
  152.5452  134.1552  159.8545 H   0  0  0  0  0  0  0  0  0  0  0  0  # atno 6908 bound_to 6896
  151.1623  133.4792  159.2627 H   0  0  0  0  0  0  0  0  0  0  0  0  # atno 6909 bound_to 6896
  144.9405  139.4937  143.5574 H   0  0  0  0  0  0  0  0  0  0  0  0  # atno 7974 bound_to 7965
  155.8347  140.0939  157.1771 H   0  0  0  0  0  0  0  0  0  0  0  0  # atno 8008 bound_to 7997
  154.3980  140.1412  156.3717 H   0  0  0  0  0  0  0  0  0  0  0  0  # atno 8009 bound_to 7997
  155.8128  140.3449  155.5470 H   0  0  0  0  0  0  0  0  0  0  0  0  # atno 8010 bound_to 7997
  139.7586  143.8410  152.2602 H   0  0  0  0  0  0  0  0  0  0  0  0  # atno 10167 bound_to 10162
  157.4318  130.8029  149.7610 H   0  0  0  0  0  0  0  0  0  0  0  0  # atno 10718 bound_to 10713
  153.6408  135.6985  153.5242 H   0  0  0  0  0  0  0  0  0  0  0  0  # atno 10763 bound_to 10752
  153.2784  135.4193  155.1054 H   0  0  0  0  0  0  0  0  0  0  0  0  # atno 10764 bound_to 10752
  154.8500  135.3596  154.5952 H   0  0  0  0  0  0  0  0  0  0  0  0  # atno 10765 bound_to 10752
  141.1668  133.7149  156.8268 H   0  0  0  0  0  0  0  0  0  0  0  0  # atno 11005 bound_to 11000
  146.3283  139.8420  142.8889 LP  0  0  0  0  0  0  0  0  0  0  0  0  # atno 17320 bound_to 7965
  145.2999  141.0191  143.3614 LP  0  0  0  0  0  0  0  0  0  0  0  0  # atno 17321 bound_to 7965
  139.8410  144.7210  150.9331 LP  0  0  0  0  0  0  0  0  0  0  0  0  # atno 17342 bound_to 10162
  140.7805  143.3983  151.1191 LP  0  0  0  0  0  0  0  0  0  0  0  0  # atno 17343 bound_to 10162
  155.9916  130.3936  150.2978 LP  0  0  0  0  0  0  0  0  0  0  0  0  # atno 17370 bound_to 10713
  157.1135  131.0228  151.3038 LP  0  0  0  0  0  0  0  0  0  0  0  0  # atno 17371 bound_to 10713
  140.2080  134.8849  157.3243 LP  0  0  0  0  0  0  0  0  0  0  0  0  # atno 17394 bound_to 11000
  140.2117  134.4130  155.7609 LP  0  0  0  0  0  0  0  0  0  0  0  0  # atno 17395 bound_to 11000

$$$$
