AV-unprocessed.smi:2487|AV-procd|sdf|9792|dock1
  -GOLD-   2272013433D 1   1.00000     0.00000
 Structure written by MMmdl.
 30 31  0  0  0  0  0  0  0  0  1 V2000
  146.6872  142.6108  154.1398 C   0  0  0  0  0  0  0  0  0  0  0  0
  148.0435  142.3314  154.5851 N   0  0  0  0  0  0  0  0  0  0  0  0
  148.6492  141.1406  154.4659 C   0  0  0  0  0  0  0  0  0  0  0  0
  148.1011  140.1595  153.9616 O   0  0  0  0  0  0  0  0  0  0  0  0
  150.0777  141.0441  155.0195 C   0  0  1  0  0  0  0  0  0  0  0  0
  150.1663  141.4226  156.5153 C   0  0  0  0  0  0  0  0  0  0  0  0
  151.5228  141.2285  157.0113 N   0  0  0  0  0  0  0  0  0  0  0  0
  151.8179  141.7789  158.2441 C   0  0  0  0  0  0  0  0  0  0  0  0
  151.4341  143.0424  158.4657 N   0  0  0  0  0  0  0  0  0  0  0  0
  151.7323  143.5690  159.6735 C   0  0  0  0  0  0  0  0  0  0  0  0
  152.4150  142.8232  160.6553 C   0  0  0  0  0  0  0  0  0  0  0  0
  152.7988  143.4915  162.1989 Cl  0  0  0  0  0  0  0  0  0  0  0  0
  152.7678  141.5031  160.3102 C   0  0  0  0  0  0  0  0  0  0  0  0
  152.4658  140.9833  159.1002 N   0  0  0  0  0  0  0  0  0  0  0  0
  152.0221  139.8840  156.7579 C   0  0  0  0  0  0  0  0  0  0  0  0
  151.8963  139.5448  155.2639 C   0  0  0  0  0  0  0  0  0  0  0  0
  150.5430  139.7045  154.8512 O   0  0  0  0  0  0  0  0  0  0  0  0
  146.4020  143.6223  154.4291 H   0  0  0  0  0  0  0  0  0  0  0  0
  145.9767  141.9155  154.5891 H   0  0  0  0  0  0  0  0  0  0  0  0
  146.6137  142.5318  153.0546 H   0  0  0  0  0  0  0  0  0  0  0  0
  148.5589  143.0899  155.0082 H   0  0  0  0  0  0  0  0  0  0  0  0
  150.7036  141.7173  154.4309 H   0  0  0  0  0  0  0  0  0  0  0  0
  149.8771  142.4648  156.6590 H   0  0  0  0  0  0  0  0  0  0  0  0
  149.4783  140.8130  157.1036 H   0  0  0  0  0  0  0  0  0  0  0  0
  151.4247  144.5882  159.8552 H   0  0  0  0  0  0  0  0  0  0  0  0
  153.2925  140.8626  161.0037 H   0  0  0  0  0  0  0  0  0  0  0  0
  153.0638  139.8111  157.0720 H   0  0  0  0  0  0  0  0  0  0  0  0
  151.4542  139.1686  157.3541 H   0  0  0  0  0  0  0  0  0  0  0  0
  152.5483  140.1814  154.6635 H   0  0  0  0  0  0  0  0  0  0  0  0
  152.2030  138.5142  155.0851 H   0  0  0  0  0  0  0  0  0  0  0  0
  1  2  1  0  0  0  0
  1 18  1  0  0  0  0
  1 19  1  0  0  0  0
  1 20  1  0  0  0  0
  2  3  1  0  0  0  0
  2 21  1  0  0  0  0
  3  4  2  0  0  0  0
  3  5  1  0  0  0  0
  5 17  1  0  0  0  0
  5  6  1  0  0  0  0
  5 22  1  0  0  0  0
  6  7  1  0  0  0  0
  6 23  1  0  0  0  0
  6 24  1  0  0  0  0
  7  8  1  0  0  0  0
  7 15  1  0  0  0  0
  8 14  1  0  0  0  0
  8  9  2  0  0  0  0
  9 10  1  0  0  0  0
 10 11  2  0  0  0  0
 10 25  1  0  0  0  0
 11 12  1  0  0  0  0
 11 13  1  0  0  0  0
 13 14  2  0  0  0  0
 13 26  1  0  0  0  0
 15 16  1  0  0  0  0
 15 27  1  0  0  0  0
 15 28  1  0  0  0  0
 16 17  1  0  0  0  0
 16 29  1  0  0  0  0
 16 30  1  0  0  0  0
M  END
> <s_m_source_file>
AV-unprocessed.smi

> <i_m_source_file_index>
2487

> <i_lp_mmshare_version>
43012

> <i_f3d_flags>
0

> <s_epik_input>
W0NIM11bTkhdQyg9TylbQ0BASF0xW0NIMl1OKFtDSDJdW0NIMl1PMSljMm5bY0hdYyhDbClbY0hdbjI=

> <s_epik_cmdline>
J2VwaWtfcHl0aG9uJywgJy1waCcsICc3LjAnLCAnLXRuJywgJzgnLCAnLW1hJywgJzIwMCcsICctbWV0YWxfYmluZGluZycsICctaW1hZScsICc8aW5maWxlLm1hZT4nLCAnLW9tYWUnLCAnPG91dGZpbGUubWFlPic=

> <r_lp_tautomer_probability>
1

> <r_epik_Ionization_Penalty>
1.03229e-07

> <r_epik_Ionization_Penalty_Charging>
0

> <r_epik_Ionization_Penalty_Neutral>
1.03229e-07

> <r_epik_State_Penalty>
-0

> <r_epik_Charging_Adjusted_Penalty>
0

> <i_epik_Tot_Q>
0

> <i_epik_Tot_abs_Q>
0

> <r_epik_Metal_State_Penalty>
-0

> <b_epik_Metal_Only>
0

> <s_lp_Force_Field>
OPLS_2005

> <r_lp_Energy>
13.8042

> <b_lp_Chiralities_Consistent>
1

> <s_lp_Variant>
AV-unprocessed.smi:2487-2

> <Gold.Version>
5.8.1

> <Gold.Id.Protein>
6NUR|6NUR_protein|mol2

> <Gold.PLP.Fitness>
37.9297

> <Gold.PLP.PLP>
-35.0014

> <Gold.PLP.part.hbond>
-1.7890

> <Gold.PLP.part.metal>
0.0000

> <Gold.PLP.part.buried>
-3.1176

> <Gold.PLP.part.nonpolar>
-29.8274

> <Gold.PLP.part.repulsive>
0.4714

> <Gold.PLP.ligand.clash>
0.0000

> <Gold.PLP.ligand.torsion>
0.1781

> <Gold.PLP.Chemscore.Hbond>
1.0000

> <Gold.PLP.Chemscore.CHOScore>
0.0000

> <Gold.PLP.Chemscore.Metal>
0.0000

> <Gold.Chemscore.Hbonds>
donor molecule, donor type, donor heavy atom, donor atom, acceptor molecule, acceptor atom, score
      L1  H     2    21       P1  8028  1.00

> <Gold.PLP.Chemscore.Internal.Correction>
0.2845

> <Gold.Rescore>
     Score         DG    S(hbond)    S(metal)    S(lipo)     H(rot)  DE(clash)    DE(int)     intcor
     13.78     -14.36       0.98        0.00      77.15       1.34       0.17       0.41       ----

> <Gold.Chemscore.Fitness>
13.7761

> <Gold.Chemscore.DG>
-14.3614

> <Gold.Chemscore.ZeroCoef>
-5.4800

> <Gold.Chemscore.Hbond>
0.9810

> <Gold.Chemscore.Metal>
0.0000

> <Gold.Chemscore.Lipo>
77.1503

> <Gold.Chemscore.Internal_Hbond>
0.0000

> <Gold.Chemscore.DEClash>
0.1730

> <Gold.Chemscore.DEInternal>
0.4123

> <Gold.Chemscore.Rot>
1.3366

> <Gold.Chemscore.Internal.Correction>
   9.000000E+99

> <Gold.Chemscore.Hbonds>
donor molecule, donor type, donor heavy atom, donor atom, acceptor molecule, acceptor atom, score
      L1  H     2    21       P1  8028  0.99

> <Gold.Chemscore.Hbond.Weighted>
-3.2765

> <Gold.Chemscore.Metal.Weighted>
-0.0000

> <Gold.Chemscore.Lipo.Weighted>
-9.0266

> <Gold.Chemscore.Internal_Hbond.Weighted>
0.0000

> <Gold.Chemscore.DEClash.Weighted>
0.1730

> <Gold.Chemscore.DEInternal.Weighted>
0.4123

> <Gold.Chemscore.Rot.Weighted>
3.4216

> <Gold.Chemscore.Internal.Correction.Weighted>
   9.000000E+99

> <Gold.Protein.RotatedTorsions>
[ 6907 6896 6895 6894 ] final  102.29 input  -60.11 | X-H torsion
[ 7974 7965 7964 7962 ] final  162.36 input  175.53 | X-H torsion
[ 8008 7997 7996 7995 ] final   98.84 input   59.86 | X-H torsion
[ 10167 10162 10161 10158 ] final  125.25 input  -65.29 | X-H torsion
[ 10718 10713 10712 10709 ] final  124.11 input   66.30 | X-H torsion
[ 10763 10752 10751 10750 ] final  -82.64 input  -60.55 | X-H torsion
[ 11005 11000 10999 10996 ] final -138.05 input  -57.11 | X-H torsion

> <Gold.Protein.ActiveResidues>
 VAL166  LYS551  ARG553  GLY616  TRP617  ASP618  TYR619  PRO620  LYS621  CYS622 
 ASP623  PHE694  ASN695  SER759  ASP760  ASP761  ALA762  ILE779  LEU786  VAL792 
 PHE793  MET794  SER795  GLU796  ALA797  LYS798  CYS799  TRP800  GLU811  SER814 

> <Gold.Protein.RotatedAtoms>
  152.5327  133.9998  159.7889 H   0  0  0  0  0  0  0  0  0  0  0  0  # atno 6907 bound_to 6896
  151.0219  133.5861  159.2677 H   0  0  0  0  0  0  0  0  0  0  0  0  # atno 6908 bound_to 6896
  151.2898  135.0745  159.9253 H   0  0  0  0  0  0  0  0  0  0  0  0  # atno 6909 bound_to 6896
  144.7640  139.8029  143.6322 H   0  0  0  0  0  0  0  0  0  0  0  0  # atno 7974 bound_to 7965
  156.1044  140.3238  155.7986 H   0  0  0  0  0  0  0  0  0  0  0  0  # atno 8008 bound_to 7997
  155.4780  140.0552  157.2988 H   0  0  0  0  0  0  0  0  0  0  0  0  # atno 8009 bound_to 7997
  154.4718  140.2015  155.9990 H   0  0  0  0  0  0  0  0  0  0  0  0  # atno 8010 bound_to 7997
  139.5696  144.6931  151.3815 H   0  0  0  0  0  0  0  0  0  0  0  0  # atno 10167 bound_to 10162
  157.5611  131.1089  150.8537 H   0  0  0  0  0  0  0  0  0  0  0  0  # atno 10718 bound_to 10713
  154.5782  135.5584  153.7160 H   0  0  0  0  0  0  0  0  0  0  0  0  # atno 10763 bound_to 10752
  153.0072  135.6313  154.2019 H   0  0  0  0  0  0  0  0  0  0  0  0  # atno 10764 bound_to 10752
  154.1960  135.2880  155.2986 H   0  0  0  0  0  0  0  0  0  0  0  0  # atno 10765 bound_to 10752
  140.8653  134.2118  157.4683 H   0  0  0  0  0  0  0  0  0  0  0  0  # atno 11005 bound_to 11000
  146.1731  139.4890  142.9915 LP  0  0  0  0  0  0  0  0  0  0  0  0  # atno 17320 bound_to 7965
  145.6527  141.0259  143.1751 LP  0  0  0  0  0  0  0  0  0  0  0  0  # atno 17321 bound_to 7965
  140.6980  143.7701  150.7357 LP  0  0  0  0  0  0  0  0  0  0  0  0  # atno 17342 bound_to 10162
  140.1203  143.4618  152.2317 LP  0  0  0  0  0  0  0  0  0  0  0  0  # atno 17343 bound_to 10162
  156.9034  130.5255  149.5282 LP  0  0  0  0  0  0  0  0  0  0  0  0  # atno 17370 bound_to 10713
  156.0663  130.5706  150.9296 LP  0  0  0  0  0  0  0  0  0  0  0  0  # atno 17371 bound_to 10713
  139.8709  134.9749  156.4862 LP  0  0  0  0  0  0  0  0  0  0  0  0  # atno 17394 bound_to 11000
  140.8636  133.8041  155.9290 LP  0  0  0  0  0  0  0  0  0  0  0  0  # atno 17395 bound_to 11000

$$$$
