AV-unprocessed.smi:2224|AV-procd|sdf|8991|dock4
  -GOLD-   2272012203D 1   1.00000     0.00000
 Structure written by MMmdl.
 44 46  0  0  0  0  0  0  0  0  1 V2000
  144.9430  132.2466  149.6005 C   0  0  0  0  0  0  0  0  0  0  0  0
  144.6531  133.2185  150.7249 C   0  0  0  0  0  0  0  0  0  0  0  0
  143.3541  133.3508  151.2517 C   0  0  0  0  0  0  0  0  0  0  0  0
  143.1514  134.2744  152.2961 C   0  0  0  0  0  0  0  0  0  0  0  0
  141.7814  134.4660  152.9125 C   0  0  0  0  0  0  0  0  0  0  0  0
  144.1419  135.0346  152.8104 N   0  0  0  0  0  0  0  0  0  0  0  0
  145.3965  134.9162  152.3094 C   0  0  0  0  0  0  0  0  0  0  0  0
  146.5065  135.6675  152.7779 N   0  0  0  0  0  0  0  0  0  0  0  0
  146.5325  136.5940  153.7519 C   0  0  0  0  0  0  0  0  0  0  0  0
  145.5626  136.9587  154.4172 O   0  0  0  0  0  0  0  0  0  0  0  0
  147.7664  137.0910  153.9120 N   0  0  0  0  0  0  0  0  0  0  0  0
  148.1225  138.1287  154.8724 C   0  0  2  0  0  0  0  0  0  0  0  0
  148.4953  139.4466  154.1927 C   0  0  1  0  0  0  0  0  0  0  0  0
  147.8907  140.8042  154.1406 C   0  0  0  0  0  0  0  0  0  0  0  0
  149.1829  141.6224  154.4067 C   0  0  0  0  0  0  0  0  0  0  0  0
  150.1867  140.6598  154.8128 O   0  0  0  0  0  0  0  0  0  0  0  0
  149.4328  139.6046  155.3736 C   0  0  2  0  0  0  0  0  0  0  0  0
  149.6259  138.0750  155.3410 C   0  0  0  0  0  0  0  0  0  0  0  0
  149.8630  137.4207  156.7024 C   0  0  0  0  0  0  0  0  0  0  0  0
  150.7018  137.5061  154.3934 C   0  0  0  0  0  0  0  0  0  0  0  0
  145.6863  134.0106  151.2643 C   0  0  0  0  0  0  0  0  0  0  0  0
  144.0338  131.7502  149.2599 H   0  0  0  0  0  0  0  0  0  0  0  0
  145.6451  131.4824  149.9342 H   0  0  0  0  0  0  0  0  0  0  0  0
  145.3830  132.7709  148.7517 H   0  0  0  0  0  0  0  0  0  0  0  0
  142.5354  132.7607  150.8659 H   0  0  0  0  0  0  0  0  0  0  0  0
  141.0253  133.8823  152.3868 H   0  0  0  0  0  0  0  0  0  0  0  0
  141.4893  135.5158  152.8718 H   0  0  0  0  0  0  0  0  0  0  0  0
  141.7903  134.1514  153.9563 H   0  0  0  0  0  0  0  0  0  0  0  0
  147.3804  135.4887  152.3065 H   0  0  0  0  0  0  0  0  0  0  0  0
  148.5076  136.7350  153.3266 H   0  0  0  0  0  0  0  0  0  0  0  0
  147.4013  138.2536  155.6855 H   0  0  0  0  0  0  0  0  0  0  0  0
  149.0190  139.2536  153.2534 H   0  0  0  0  0  0  0  0  0  0  0  0
  147.4423  141.0325  153.1733 H   0  0  0  0  0  0  0  0  0  0  0  0
  147.1453  140.9500  154.9237 H   0  0  0  0  0  0  0  0  0  0  0  0
  149.5228  142.1491  153.5146 H   0  0  0  0  0  0  0  0  0  0  0  0
  149.0206  142.3596  155.1941 H   0  0  0  0  0  0  0  0  0  0  0  0
  148.9343  139.9337  156.2927 H   0  0  0  0  0  0  0  0  0  0  0  0
  150.8471  137.6701  157.1003 H   0  0  0  0  0  0  0  0  0  0  0  0
  149.7961  136.3339  156.6432 H   0  0  0  0  0  0  0  0  0  0  0  0
  149.1261  137.7467  157.4372 H   0  0  0  0  0  0  0  0  0  0  0  0
  151.7041  137.7412  154.7526 H   0  0  0  0  0  0  0  0  0  0  0  0
  150.6394  137.8896  153.3769 H   0  0  0  0  0  0  0  0  0  0  0  0
  150.6322  136.4202  154.3222 H   0  0  0  0  0  0  0  0  0  0  0  0
  146.6905  133.9246  150.8745 H   0  0  0  0  0  0  0  0  0  0  0  0
  1  2  1  0  0  0  0
  1 22  1  0  0  0  0
  1 23  1  0  0  0  0
  1 24  1  0  0  0  0
  2 21  1  0  0  0  0
  2  3  2  0  0  0  0
  3  4  1  0  0  0  0
  3 25  1  0  0  0  0
  4  5  1  0  0  0  0
  4  6  2  0  0  0  0
  5 26  1  0  0  0  0
  5 27  1  0  0  0  0
  5 28  1  0  0  0  0
  6  7  1  0  0  0  0
  7  8  1  0  0  0  0
  7 21  2  0  0  0  0
  8  9  1  0  0  0  0
  8 29  1  0  0  0  0
  9 10  2  0  0  0  0
  9 11  1  0  0  0  0
 11 12  1  0  0  0  0
 11 30  1  0  0  0  0
 12 18  1  0  0  0  0
 12 13  1  0  0  0  0
 12 31  1  0  0  0  0
 13 17  1  0  0  0  0
 13 14  1  0  0  0  0
 13 32  1  0  0  0  0
 14 15  1  0  0  0  0
 14 33  1  0  0  0  0
 14 34  1  0  0  0  0
 15 16  1  0  0  0  0
 15 35  1  0  0  0  0
 15 36  1  0  0  0  0
 16 17  1  0  0  0  0
 17 18  1  0  0  0  0
 17 37  1  0  0  0  0
 18 19  1  0  0  0  0
 18 20  1  0  0  0  0
 19 38  1  0  0  0  0
 19 39  1  0  0  0  0
 19 40  1  0  0  0  0
 20 41  1  0  0  0  0
 20 42  1  0  0  0  0
 20 43  1  0  0  0  0
 21 44  1  0  0  0  0
M  END
> <s_m_source_file>
AV-unprocessed.smi

> <i_m_source_file_index>
2224

> <i_lp_mmshare_version>
43012

> <i_f3d_flags>
0

> <s_epik_input>
W0NIM11jMVtjSF1jKFtDSDNdKW5jKFtjSF0xKVtOSF1DKD1PKVtOSF1bQ0BIXTJDKFtDSDNdKShbQ0gzXSlbQ0BIXShbQ0BASF0yMylPW0NIMl1bQ0gyXTM=

> <s_epik_cmdline>
J2VwaWtfcHl0aG9uJywgJy1waCcsICc3LjAnLCAnLXRuJywgJzgnLCAnLW1hJywgJzIwMCcsICctbWV0YWxfYmluZGluZycsICctaW1hZScsICc8aW5maWxlLm1hZT4nLCAnLW9tYWUnLCAnPG91dGZpbGUubWFlPic=

> <r_lp_tautomer_probability>
1

> <r_epik_Ionization_Penalty>
0.000276544

> <r_epik_Ionization_Penalty_Charging>
0

> <r_epik_Ionization_Penalty_Neutral>
0.000276544

> <r_epik_State_Penalty>
-0

> <r_epik_Charging_Adjusted_Penalty>
0

> <i_epik_Tot_Q>
0

> <i_epik_Tot_abs_Q>
0

> <r_epik_Metal_State_Penalty>
-0

> <b_epik_Metal_Only>
0

> <s_lp_Force_Field>
OPLS_2005

> <r_lp_Energy>
62.2425

> <b_lp_Chiralities_Consistent>
1

> <s_lp_Variant>
AV-unprocessed.smi:2224-1

> <Gold.Version>
5.8.1

> <Gold.Id.Protein>
6NUR|6NUR_protein|mol2

> <Gold.PLP.Fitness>
39.2279

> <Gold.PLP.PLP>
-31.1914

> <Gold.PLP.part.hbond>
-2.9642

> <Gold.PLP.part.metal>
0.0000

> <Gold.PLP.part.buried>
-1.4217

> <Gold.PLP.part.nonpolar>
-26.1229

> <Gold.PLP.part.repulsive>
0.2466

> <Gold.PLP.ligand.clash>
0.0000

> <Gold.PLP.ligand.torsion>
0.2190

> <Gold.PLP.Chemscore.Hbond>
2.7360

> <Gold.PLP.Chemscore.CHOScore>
0.0000

> <Gold.PLP.Chemscore.Metal>
0.0000

> <Gold.Chemscore.Hbonds>
donor molecule, donor type, donor heavy atom, donor atom, acceptor molecule, acceptor atom, score
      L1  H     8    29       P1  7948  0.90
      L1  H    11    30       P1  7948  0.96
      P1  H  7989  7998       L1    16  0.86

> <Gold.PLP.Chemscore.Internal.Correction>
0.2664

> <Gold.Rescore>
     Score         DG    S(hbond)    S(metal)    S(lipo)     H(rot)  DE(clash)    DE(int)     intcor
     19.23     -21.06       2.53        0.00      82.77       1.00       0.30       1.52       ----

> <Gold.Chemscore.Fitness>
19.2330

> <Gold.Chemscore.DG>
-21.0572

> <Gold.Chemscore.ZeroCoef>
-5.4800

> <Gold.Chemscore.Hbond>
2.5307

> <Gold.Chemscore.Metal>
0.0000

> <Gold.Chemscore.Lipo>
82.7750

> <Gold.Chemscore.Internal_Hbond>
0.0000

> <Gold.Chemscore.DEClash>
0.3037

> <Gold.Chemscore.DEInternal>
1.5205

> <Gold.Chemscore.Rot>
1.0000

> <Gold.Chemscore.Internal.Correction>
   9.000000E+99

> <Gold.Chemscore.Hbonds>
donor molecule, donor type, donor heavy atom, donor atom, acceptor molecule, acceptor atom, score
      L1  H     8    29       P1  7948  0.88
      L1  H    11    30       P1  7948  0.91
      P1  H  7989  7998       L1    16  0.37

> <Gold.Chemscore.Hbond.Weighted>
-8.4525

> <Gold.Chemscore.Metal.Weighted>
-0.0000

> <Gold.Chemscore.Lipo.Weighted>
-9.6847

> <Gold.Chemscore.Internal_Hbond.Weighted>
0.0000

> <Gold.Chemscore.DEClash.Weighted>
0.3037

> <Gold.Chemscore.DEInternal.Weighted>
1.5205

> <Gold.Chemscore.Rot.Weighted>
2.5600

> <Gold.Chemscore.Internal.Correction.Weighted>
   9.000000E+99

> <Gold.Protein.RotatedTorsions>
[ 6907 6896 6895 6894 ] final -166.60 input  -60.11 | X-H torsion
[ 7974 7965 7964 7962 ] final  117.00 input  175.53 | X-H torsion
[ 8008 7997 7996 7995 ] final -128.23 input   59.86 | X-H torsion
[ 10167 10162 10161 10158 ] final   92.64 input  -65.29 | X-H torsion
[ 10718 10713 10712 10709 ] final  178.99 input   66.30 | X-H torsion
[ 10763 10752 10751 10750 ] final  -57.02 input  -60.55 | X-H torsion
[ 11005 11000 10999 10996 ] final  169.48 input  -57.11 | X-H torsion

> <Gold.Protein.ActiveResidues>
 VAL166  LYS551  ARG553  GLY616  TRP617  ASP618  TYR619  PRO620  LYS621  CYS622 
 ASP623  PHE694  ASN695  SER759  ASP760  ASP761  ALA762  ILE779  LEU786  VAL792 
 PHE793  MET794  SER795  GLU796  ALA797  LYS798  CYS799  TRP800  GLU811  SER814 

> <Gold.Protein.RotatedAtoms>
  151.4462  133.3630  159.2788 H   0  0  0  0  0  0  0  0  0  0  0  0  # atno 6907 bound_to 6896
  150.9123  134.8541  159.7444 H   0  0  0  0  0  0  0  0  0  0  0  0  # atno 6908 bound_to 6896
  152.4938  134.4393  159.9590 H   0  0  0  0  0  0  0  0  0  0  0  0  # atno 6909 bound_to 6896
  145.1728  139.3092  143.4459 H   0  0  0  0  0  0  0  0  0  0  0  0  # atno 7974 bound_to 7965
  155.2593  140.0435  157.2995 H   0  0  0  0  0  0  0  0  0  0  0  0  # atno 8008 bound_to 7997
  154.5720  140.2376  155.8146 H   0  0  0  0  0  0  0  0  0  0  0  0  # atno 8009 bound_to 7997
  156.2130  140.2993  155.9783 H   0  0  0  0  0  0  0  0  0  0  0  0  # atno 8010 bound_to 7997
  139.8257  144.6710  150.9462 H   0  0  0  0  0  0  0  0  0  0  0  0  # atno 10167 bound_to 10162
  156.8824  130.9820  151.3060 H   0  0  0  0  0  0  0  0  0  0  0  0  # atno 10718 bound_to 10713
  154.2158  135.6386  153.5129 H   0  0  0  0  0  0  0  0  0  0  0  0  # atno 10763 bound_to 10752
  152.9979  135.5485  154.6166 H   0  0  0  0  0  0  0  0  0  0  0  0  # atno 10764 bound_to 10752
  154.5614  135.2909  155.0889 H   0  0  0  0  0  0  0  0  0  0  0  0  # atno 10765 bound_to 10752
  140.2983  134.7617  157.3895 H   0  0  0  0  0  0  0  0  0  0  0  0  # atno 11005 bound_to 11000
  146.3466  140.1879  142.8589 LP  0  0  0  0  0  0  0  0  0  0  0  0  # atno 17320 bound_to 7965
  145.0216  140.8798  143.5163 LP  0  0  0  0  0  0  0  0  0  0  0  0  # atno 17321 bound_to 7965
  140.7810  143.4049  151.1088 LP  0  0  0  0  0  0  0  0  0  0  0  0  # atno 17342 bound_to 10162
  139.7706  143.8500  152.3119 LP  0  0  0  0  0  0  0  0  0  0  0  0  # atno 17343 bound_to 10162
  157.6132  130.8599  149.8986 LP  0  0  0  0  0  0  0  0  0  0  0  0  # atno 17370 bound_to 10713
  156.0670  130.3690  150.0857 LP  0  0  0  0  0  0  0  0  0  0  0  0  # atno 17371 bound_to 10713
  140.1133  134.5317  155.8247 LP  0  0  0  0  0  0  0  0  0  0  0  0  # atno 17394 bound_to 11000
  141.2133  133.6731  156.6729 LP  0  0  0  0  0  0  0  0  0  0  0  0  # atno 17395 bound_to 11000

$$$$
