AV-unprocessed.smi:1535|AV-procd|sdf|6175|dock4
  -GOLD-   22720 6333D 1   1.00000     0.00000
 Structure written by MMmdl.
 47 48  0  0  0  0  0  0  0  0  2 V2000
  152.2425  144.0058  161.1837 C   0  0  0  0  0  0  0  0  0  0  0  0
  152.0734  143.1448  159.9434 C   0  0  0  0  0  0  0  0  0  0  0  0
  151.1166  143.5331  158.9785 C   0  0  0  0  0  0  0  0  0  0  0  0
  150.9831  142.7241  157.8562 C   0  0  0  0  0  0  0  0  0  0  0  0
  150.1430  142.8310  156.7458 N   0  3  0  0  0  0  0  0  0  0  0  0
  150.3741  141.7894  155.8993 C   0  0  0  0  0  0  0  0  0  0  0  0
  151.3495  141.0190  156.4538 N   0  0  0  0  0  0  0  0  0  0  0  0
  151.9682  139.7796  155.9638 C   0  0  0  0  0  0  0  0  0  0  0  0
  150.9697  138.8534  155.2410 C   0  0  1  0  0  0  0  0  0  0  0  0
  150.7051  139.3739  153.9525 O   0  0  0  0  0  0  0  0  0  0  0  0
  151.5321  137.4253  155.0859 C   0  0  0  0  0  0  0  0  0  0  0  0
  151.3844  136.5574  156.2598 N   0  0  0  0  0  0  0  0  0  0  0  0
  152.5193  136.6952  157.1686 C   0  0  0  0  0  0  0  0  0  0  0  0
  151.2236  135.1505  155.8845 C   0  0  0  0  0  0  0  0  0  0  0  0
  150.1690  134.8640  154.7964 C   0  0  2  0  0  0  0  0  0  0  0  0
  148.8001  135.4688  155.1404 C   0  0  0  0  0  0  0  0  0  0  0  0
  150.0457  133.4149  154.5726 C   0  0  0  0  0  0  0  0  0  0  0  0
  149.9488  132.2755  154.3966 N   0  0  0  0  0  0  0  0  0  0  0  0
  151.7619  141.5650  157.6740 C   0  0  0  0  0  0  0  0  0  0  0  0
  152.7117  141.1697  158.6127 C   0  0  0  0  0  0  0  0  0  0  0  0
  152.8613  141.9784  159.7622 C   0  0  0  0  0  0  0  0  0  0  0  0
  153.8874  141.5710  160.8059 C   0  0  0  0  0  0  0  0  0  0  0  0
  151.5420  144.8414  161.1882 H   0  0  0  0  0  0  0  0  0  0  0  0
  153.2514  144.4162  161.2294 H   0  0  0  0  0  0  0  0  0  0  0  0
  152.0649  143.4200  162.0856 H   0  0  0  0  0  0  0  0  0  0  0  0
  150.5142  144.4201  159.1087 H   0  0  0  0  0  0  0  0  0  0  0  0
  149.8712  141.6053  154.9610 H   0  0  0  0  0  0  0  0  0  0  0  0
  152.7792  140.0629  155.2911 H   0  0  0  0  0  0  0  0  0  0  0  0
  152.4305  139.2701  156.8102 H   0  0  0  0  0  0  0  0  0  0  0  0
  150.0373  138.8489  155.8024 H   0  0  0  0  0  0  0  0  0  0  0  0
  150.1187  138.7837  153.5048 H   0  0  0  0  0  0  0  0  0  0  0  0
  151.0443  136.9792  154.2210 H   0  0  0  0  0  0  0  0  0  0  0  0
  152.5894  137.4826  154.8228 H   0  0  0  0  0  0  0  0  0  0  0  0
  152.4070  136.0356  158.0296 H   0  0  0  0  0  0  0  0  0  0  0  0
  152.6028  137.7077  157.5598 H   0  0  0  0  0  0  0  0  0  0  0  0
  153.4567  136.4420  156.6715 H   0  0  0  0  0  0  0  0  0  0  0  0
  152.1874  134.7491  155.5667 H   0  0  0  0  0  0  0  0  0  0  0  0
  150.9415  134.5743  156.7671 H   0  0  0  0  0  0  0  0  0  0  0  0
  150.4957  135.2653  153.8387 H   0  0  0  0  0  0  0  0  0  0  0  0
  148.0684  135.2432  154.3643 H   0  0  0  0  0  0  0  0  0  0  0  0
  148.8569  136.5538  155.2316 H   0  0  0  0  0  0  0  0  0  0  0  0
  148.4191  135.0731  156.0823 H   0  0  0  0  0  0  0  0  0  0  0  0
  153.3096  140.2810  158.4744 H   0  0  0  0  0  0  0  0  0  0  0  0
  154.4101  140.6585  160.5175 H   0  0  0  0  0  0  0  0  0  0  0  0
  153.4050  141.3884  161.7663 H   0  0  0  0  0  0  0  0  0  0  0  0
  154.6337  142.3552  160.9357 H   0  0  0  0  0  0  0  0  0  0  0  0
  149.4596  143.5578  156.5766 H   0  0  0  0  0  0  0  0  0  0  0  0
  1  2  1  0  0  0  0
  1 23  1  0  0  0  0
  1 24  1  0  0  0  0
  1 25  1  0  0  0  0
  2 21  1  0  0  0  0
  2  3  2  0  0  0  0
  3  4  1  0  0  0  0
  3 26  1  0  0  0  0
  4 19  2  0  0  0  0
  4  5  1  0  0  0  0
  5  6  2  0  0  0  0
  5 47  1  0  0  0  0
  6  7  1  0  0  0  0
  6 27  1  0  0  0  0
  7  8  1  0  0  0  0
  7 19  1  0  0  0  0
  8  9  1  0  0  0  0
  8 28  1  0  0  0  0
  8 29  1  0  0  0  0
  9 10  1  0  0  0  0
  9 11  1  0  0  0  0
  9 30  1  0  0  0  0
 10 31  1  0  0  0  0
 11 12  1  0  0  0  0
 11 32  1  0  0  0  0
 11 33  1  0  0  0  0
 12 13  1  0  0  0  0
 12 14  1  0  0  0  0
 13 34  1  0  0  0  0
 13 35  1  0  0  0  0
 13 36  1  0  0  0  0
 14 15  1  0  0  0  0
 14 37  1  0  0  0  0
 14 38  1  0  0  0  0
 15 16  1  0  0  0  0
 15 17  1  0  0  0  0
 15 39  1  0  0  0  0
 16 40  1  0  0  0  0
 16 41  1  0  0  0  0
 16 42  1  0  0  0  0
 17 18  3  0  0  0  0
 19 20  1  0  0  0  0
 20 21  2  0  0  0  0
 20 43  1  0  0  0  0
 21 22  1  0  0  0  0
 22 44  1  0  0  0  0
 22 45  1  0  0  0  0
 22 46  1  0  0  0  0
M  CHG  1   5   1
M  END
> <s_m_source_file>
AV-unprocessed.smi

> <i_m_source_file_index>
1535

> <i_lp_mmshare_version>
43012

> <i_f3d_flags>
0

> <s_epik_input>
W0NIM11jKFtjSF0xKWMoW0NIM10pW2NIXWMoYzEyKW4oW2NIXW4yKVtDSDJdW0NASF0oW09IXSlbQ0gyXU4oW0NIM10pW0NIMl1bQ0BIXShbQ0gzXSlDI04=

> <s_epik_cmdline>
J2VwaWtfcHl0aG9uJywgJy1waCcsICc3LjAnLCAnLXRuJywgJzgnLCAnLW1hJywgJzIwMCcsICctbWV0YWxfYmluZGluZycsICctaW1hZScsICc8aW5maWxlLm1hZT4nLCAnLW9tYWUnLCAnPG91dGZpbGUubWFlPic=

> <r_epik_Ionization_Penalty>
1.22846

> <r_epik_Ionization_Penalty_Charging>
1.21333

> <r_epik_Ionization_Penalty_Neutral>
0.0151341

> <r_epik_State_Penalty>
1.27012

> <r_epik_Charging_Adjusted_Penalty>
2.48344

> <i_epik_Tot_Q>
1

> <i_epik_Tot_abs_Q>
1

> <r_epik_Metal_State_Penalty>
5.28751

> <b_epik_Metal_Only>
0

> <s_lp_Force_Field>
OPLS_2005

> <r_lp_Energy>
30.2724

> <b_lp_Chiralities_Consistent>
1

> <s_lp_Variant>
AV-unprocessed.smi:1535-6

> <Gold.Version>
5.8.1

> <Gold.Id.Protein>
6NUR|6NUR_protein|mol2

> <Gold.PLP.Fitness>
52.2419

> <Gold.PLP.PLP>
-45.2981

> <Gold.PLP.part.hbond>
-2.7670

> <Gold.PLP.part.metal>
0.0000

> <Gold.PLP.part.buried>
-5.0328

> <Gold.PLP.part.nonpolar>
-37.5904

> <Gold.PLP.part.repulsive>
0.0863

> <Gold.PLP.ligand.clash>
0.0000

> <Gold.PLP.ligand.torsion>
1.1152

> <Gold.PLP.Chemscore.Hbond>
3.0000

> <Gold.PLP.Chemscore.CHOScore>
0.0000

> <Gold.PLP.Chemscore.Metal>
0.0000

> <Gold.Chemscore.Hbonds>
donor molecule, donor type, donor heavy atom, donor atom, acceptor molecule, acceptor atom, score
      L1  H     5    47       P1  8028  2.00
      P1  H  7989  7998       L1    10  1.00

> <Gold.PLP.Chemscore.Internal.Correction>
0.1742

> <Gold.Rescore>
     Score         DG    S(hbond)    S(metal)    S(lipo)     H(rot)  DE(clash)    DE(int)     intcor
     17.83     -18.93       1.96        0.00     115.83       2.59       0.00       1.10       ----

> <Gold.Chemscore.Fitness>
17.8311

> <Gold.Chemscore.DG>
-18.9304

> <Gold.Chemscore.ZeroCoef>
-5.4800

> <Gold.Chemscore.Hbond>
1.9562

> <Gold.Chemscore.Metal>
0.0000

> <Gold.Chemscore.Lipo>
115.8281

> <Gold.Chemscore.Internal_Hbond>
0.0000

> <Gold.Chemscore.DEClash>
0.0000

> <Gold.Chemscore.DEInternal>
1.0993

> <Gold.Chemscore.Rot>
2.5918

> <Gold.Chemscore.Internal.Correction>
   9.000000E+99

> <Gold.Chemscore.Hbonds>
donor molecule, donor type, donor heavy atom, donor atom, acceptor molecule, acceptor atom, score
      L1  H     5    47       P1  8028  0.93
      P1  H  7989  7998       L1    10  0.93

> <Gold.Chemscore.Hbond.Weighted>
-6.5336

> <Gold.Chemscore.Metal.Weighted>
-0.0000

> <Gold.Chemscore.Lipo.Weighted>
-13.5519

> <Gold.Chemscore.Internal_Hbond.Weighted>
0.0000

> <Gold.Chemscore.DEClash.Weighted>
0.0000

> <Gold.Chemscore.DEInternal.Weighted>
1.0993

> <Gold.Chemscore.Rot.Weighted>
6.6351

> <Gold.Chemscore.Internal.Correction.Weighted>
   9.000000E+99

> <Gold.Protein.RotatedTorsions>
[ 6907 6896 6895 6894 ] final   93.73 input  -60.11 | X-H torsion
[ 7974 7965 7964 7962 ] final    0.26 input  175.53 | X-H torsion
[ 8008 7997 7996 7995 ] final  -20.36 input   59.86 | X-H torsion
[ 10167 10162 10161 10158 ] final   14.74 input  -65.29 | X-H torsion
[ 10718 10713 10712 10709 ] final  123.58 input   66.30 | X-H torsion
[ 10763 10752 10751 10750 ] final -173.49 input  -60.55 | X-H torsion
[ 11005 11000 10999 10996 ] final   64.03 input  -57.11 | X-H torsion

> <Gold.Protein.ActiveResidues>
 VAL166  LYS551  ARG553  GLY616  TRP617  ASP618  TYR619  PRO620  LYS621  CYS622 
 ASP623  PHE694  ASN695  SER759  ASP760  ASP761  ALA762  ILE779  LEU786  VAL792 
 PHE793  MET794  SER795  GLU796  ALA797  LYS798  CYS799  TRP800  GLU811  SER814 

> <Gold.Protein.RotatedAtoms>
  152.5452  134.1303  159.8435 H   0  0  0  0  0  0  0  0  0  0  0  0  # atno 6907 bound_to 6896
  151.1349  133.5004  159.2605 H   0  0  0  0  0  0  0  0  0  0  0  0  # atno 6908 bound_to 6896
  151.1635  135.0294  159.8775 H   0  0  0  0  0  0  0  0  0  0  0  0  # atno 6909 bound_to 6896
  146.2433  140.1164  142.8342 H   0  0  0  0  0  0  0  0  0  0  0  0  # atno 7974 bound_to 7965
  154.4775  140.2064  155.9843 H   0  0  0  0  0  0  0  0  0  0  0  0  # atno 8008 bound_to 7997
  156.1112  140.3228  155.8045 H   0  0  0  0  0  0  0  0  0  0  0  0  # atno 8009 bound_to 7997
  155.4631  140.0525  157.2979 H   0  0  0  0  0  0  0  0  0  0  0  0  # atno 8010 bound_to 7997
  140.5915  143.8786  150.6878 H   0  0  0  0  0  0  0  0  0  0  0  0  # atno 10167 bound_to 10162
  157.5653  131.1087  150.8465 H   0  0  0  0  0  0  0  0  0  0  0  0  # atno 10718 bound_to 10713
  154.6072  135.2860  155.0471 H   0  0  0  0  0  0  0  0  0  0  0  0  # atno 10763 bound_to 10752
  154.1714  135.6472  153.5014 H   0  0  0  0  0  0  0  0  0  0  0  0  # atno 10764 bound_to 10752
  153.0180  135.5402  154.6813 H   0  0  0  0  0  0  0  0  0  0  0  0  # atno 10765 bound_to 10752
  139.9985  134.6479  155.9969 H   0  0  0  0  0  0  0  0  0  0  0  0  # atno 11005 bound_to 11000
  145.0443  140.8969  143.5033 LP  0  0  0  0  0  0  0  0  0  0  0  0  # atno 17320 bound_to 7965
  145.1251  139.2668  143.5568 LP  0  0  0  0  0  0  0  0  0  0  0  0  # atno 17321 bound_to 7965
  140.2310  143.3736  152.1566 LP  0  0  0  0  0  0  0  0  0  0  0  0  # atno 17342 bound_to 10162
  139.5230  144.7066  151.5334 LP  0  0  0  0  0  0  0  0  0  0  0  0  # atno 17343 bound_to 10162
  156.8951  130.5227  149.5284 LP  0  0  0  0  0  0  0  0  0  0  0  0  # atno 17370 bound_to 10713
  156.0702  130.5736  150.9368 LP  0  0  0  0  0  0  0  0  0  0  0  0  # atno 17371 bound_to 10713
  141.1624  133.6538  156.4362 LP  0  0  0  0  0  0  0  0  0  0  0  0  # atno 17394 bound_to 11000
  140.4772  134.6698  157.5155 LP  0  0  0  0  0  0  0  0  0  0  0  0  # atno 17395 bound_to 11000

$$$$
