AV-unprocessed.smi:564|AV-procd|sdf|2948|dock4
  -GOLD-   2262023443D 1   1.00000     0.00000
 Structure written by MMmdl.
 50 51  0  0  0  0  0  0  0  0  2 V2000
  152.7188  137.8075  155.1529 C   0  0  0  0  0  0  0  0  0  0  0  0
  152.0618  139.0235  155.7410 C   0  0  0  0  0  0  0  0  0  0  0  0
  152.5676  139.5721  156.8331 N   0  0  0  0  0  0  0  0  0  0  0  0
  151.7652  140.6236  157.0932 N   0  0  0  0  0  0  0  0  0  0  0  0
  152.0398  141.4584  158.2469 C   0  0  0  0  0  0  0  0  0  0  0  0
  150.7491  140.7385  156.1643 C   0  0  0  0  0  0  0  0  0  0  0  0
  149.7270  141.8268  156.2320 C   0  0  0  0  0  0  0  0  0  0  0  0
  150.9063  139.7133  155.2700 C   0  0  0  0  0  0  0  0  0  0  0  0
  150.0668  139.3731  154.0642 C   0  0  0  0  0  0  0  0  0  0  0  0
  148.6210  139.0927  154.4827 C   0  0  0  0  0  0  0  0  0  0  0  0
  148.0424  139.8460  155.2664 O   0  0  0  0  0  0  0  0  0  0  0  0
  148.0447  138.0053  153.9501 N   0  0  0  0  0  0  0  0  0  0  0  0
  146.6814  137.5748  154.2279 C   0  0  0  0  0  0  0  0  0  0  0  0
  146.5702  136.0445  154.1213 C   0  0  0  0  0  0  0  0  0  0  0  0
  146.2868  135.5675  152.7404 N   0  3  1  0  0  0  0  0  0  0  0  0
  146.1378  134.0878  152.6820 C   0  0  0  0  0  0  0  0  0  0  0  0
  146.0678  133.5867  151.2308 C   0  0  0  0  0  0  0  0  0  0  0  0
  144.9369  134.2790  150.4633 C   0  0  0  0  0  0  0  0  0  0  0  0
  145.1032  135.8020  150.5532 C   0  0  0  0  0  0  0  0  0  0  0  0
  145.1977  136.2943  152.0133 C   0  0  1  0  0  0  0  0  0  0  0  0
  143.8324  136.2461  152.7327 C   0  0  0  0  0  0  0  0  0  0  0  0
  152.9229  137.9513  154.0917 H   0  0  0  0  0  0  0  0  0  0  0  0
  152.0763  136.9327  155.2519 H   0  0  0  0  0  0  0  0  0  0  0  0
  153.6665  137.5811  155.6429 H   0  0  0  0  0  0  0  0  0  0  0  0
  151.2489  141.3313  158.9860 H   0  0  0  0  0  0  0  0  0  0  0  0
  152.0806  142.5045  157.9435 H   0  0  0  0  0  0  0  0  0  0  0  0
  152.9945  141.1876  158.6997 H   0  0  0  0  0  0  0  0  0  0  0  0
  149.0410  141.7784  155.3867 H   0  0  0  0  0  0  0  0  0  0  0  0
  150.2029  142.8075  156.2175 H   0  0  0  0  0  0  0  0  0  0  0  0
  149.1385  141.7489  157.1464 H   0  0  0  0  0  0  0  0  0  0  0  0
  150.0585  140.1915  153.3439 H   0  0  0  0  0  0  0  0  0  0  0  0
  150.4758  138.5123  153.5336 H   0  0  0  0  0  0  0  0  0  0  0  0
  148.5895  137.4401  153.3146 H   0  0  0  0  0  0  0  0  0  0  0  0
  146.4220  137.9220  155.2278 H   0  0  0  0  0  0  0  0  0  0  0  0
  145.9897  138.0464  153.5279 H   0  0  0  0  0  0  0  0  0  0  0  0
  147.5231  135.6193  154.4404 H   0  0  0  0  0  0  0  0  0  0  0  0
  145.8252  135.6598  154.8181 H   0  0  0  0  0  0  0  0  0  0  0  0
  146.9887  133.6147  153.1736 H   0  0  0  0  0  0  0  0  0  0  0  0
  145.2505  133.7779  153.2349 H   0  0  0  0  0  0  0  0  0  0  0  0
  147.0189  133.7768  150.7317 H   0  0  0  0  0  0  0  0  0  0  0  0
  145.9216  132.5062  151.2158 H   0  0  0  0  0  0  0  0  0  0  0  0
  144.9425  133.9617  149.4200 H   0  0  0  0  0  0  0  0  0  0  0  0
  143.9711  133.9804  150.8721 H   0  0  0  0  0  0  0  0  0  0  0  0
  146.0098  136.0905  150.0192 H   0  0  0  0  0  0  0  0  0  0  0  0
  144.2806  136.2987  150.0373 H   0  0  0  0  0  0  0  0  0  0  0  0
  145.4836  137.3435  151.9494 H   0  0  0  0  0  0  0  0  0  0  0  0
  143.0713  136.7629  152.1476 H   0  0  0  0  0  0  0  0  0  0  0  0
  143.8674  136.7411  153.7028 H   0  0  0  0  0  0  0  0  0  0  0  0
  143.4806  135.2269  152.8902 H   0  0  0  0  0  0  0  0  0  0  0  0
  147.1288  135.7628  152.2171 H   0  0  0  0  0  0  0  0  0  0  0  0
  1  2  1  0  0  0  0
  1 22  1  0  0  0  0
  1 23  1  0  0  0  0
  1 24  1  0  0  0  0
  2  8  1  0  0  0  0
  2  3  2  0  0  0  0
  3  4  1  0  0  0  0
  4  5  1  0  0  0  0
  4  6  1  0  0  0  0
  5 25  1  0  0  0  0
  5 26  1  0  0  0  0
  5 27  1  0  0  0  0
  6  7  1  0  0  0  0
  6  8  2  0  0  0  0
  7 28  1  0  0  0  0
  7 29  1  0  0  0  0
  7 30  1  0  0  0  0
  8  9  1  0  0  0  0
  9 10  1  0  0  0  0
  9 31  1  0  0  0  0
  9 32  1  0  0  0  0
 10 11  2  0  0  0  0
 10 12  1  0  0  0  0
 12 13  1  0  0  0  0
 12 33  1  0  0  0  0
 13 14  1  0  0  0  0
 13 34  1  0  0  0  0
 13 35  1  0  0  0  0
 14 15  1  0  0  0  0
 14 36  1  0  0  0  0
 14 37  1  0  0  0  0
 15 20  1  0  0  0  0
 15 16  1  0  0  0  0
 15 50  1  0  0  0  0
 16 17  1  0  0  0  0
 16 38  1  0  0  0  0
 16 39  1  0  0  0  0
 17 18  1  0  0  0  0
 17 40  1  0  0  0  0
 17 41  1  0  0  0  0
 18 19  1  0  0  0  0
 18 42  1  0  0  0  0
 18 43  1  0  0  0  0
 19 20  1  0  0  0  0
 19 44  1  0  0  0  0
 19 45  1  0  0  0  0
 20 21  1  0  0  0  0
 20 46  1  0  0  0  0
 21 47  1  0  0  0  0
 21 48  1  0  0  0  0
 21 49  1  0  0  0  0
M  CHG  1  15   1
M  END
> <s_m_source_file>
AV-unprocessed.smi

> <i_m_source_file_index>
564

> <i_lp_mmshare_version>
43012

> <i_f3d_flags>
0

> <s_epik_input>
W0NIM11jMW5uKFtDSDNdKWMoW0NIM10pYzFbQ0gyXUMoPU8pW05IXVtDSDJdW0NIMl1OMltDSDJdW0NIMl1bQ0gyXVtDSDJdW0NASF0yW0NIM10=

> <s_epik_cmdline>
J2VwaWtfcHl0aG9uJywgJy1waCcsICc3LjAnLCAnLXRuJywgJzgnLCAnLW1hJywgJzIwMCcsICctbWV0YWxfYmluZGluZycsICctaW1hZScsICc8aW5maWxlLm1hZT4nLCAnLW9tYWUnLCAnPG91dGZpbGUubWFlPic=

> <r_lp_tautomer_probability>
1

> <r_epik_Ionization_Penalty>
0.00456826

> <r_epik_Ionization_Penalty_Charging>
0.00240401

> <r_epik_Ionization_Penalty_Neutral>
0.00216425

> <r_epik_State_Penalty>
-0

> <r_epik_Charging_Adjusted_Penalty>
0.00240401

> <i_epik_Tot_Q>
1

> <i_epik_Tot_abs_Q>
1

> <r_epik_Metal_State_Penalty>
-0

> <b_epik_Metal_Only>
0

> <s_lp_Force_Field>
OPLS_2005

> <r_lp_Energy>
16.0318

> <b_lp_Chiralities_Consistent>
1

> <s_lp_Variant>
AV-unprocessed.smi:564-2

> <Gold.Version>
5.8.1

> <Gold.Id.Protein>
6NUR|6NUR_protein|mol2

> <Gold.PLP.Fitness>
46.0783

> <Gold.PLP.PLP>
-35.1218

> <Gold.PLP.part.hbond>
-3.0000

> <Gold.PLP.part.metal>
0.0000

> <Gold.PLP.part.buried>
-1.0190

> <Gold.PLP.part.nonpolar>
-30.0724

> <Gold.PLP.part.repulsive>
0.0040

> <Gold.PLP.ligand.clash>
0.0000

> <Gold.PLP.ligand.torsion>
0.5608

> <Gold.PLP.Chemscore.Hbond>
4.0000

> <Gold.PLP.Chemscore.CHOScore>
0.0000

> <Gold.PLP.Chemscore.Metal>
0.0000

> <Gold.Chemscore.Hbonds>
donor molecule, donor type, donor heavy atom, donor atom, acceptor molecule, acceptor atom, score
      L1  H    12    33       P1  7948  1.00
      L1  H    15    50       P1  7948  2.00
      P1  H  7997  8008       L1     3  1.00

> <Gold.PLP.Chemscore.Internal.Correction>
0.0782

> <Gold.Rescore>
     Score         DG    S(hbond)    S(metal)    S(lipo)     H(rot)  DE(clash)    DE(int)     intcor
     17.92     -21.05       2.93        0.00      84.59       1.61       0.15       2.98       ----

> <Gold.Chemscore.Fitness>
17.9215

> <Gold.Chemscore.DG>
-21.0467

> <Gold.Chemscore.ZeroCoef>
-5.4800

> <Gold.Chemscore.Hbond>
2.9349

> <Gold.Chemscore.Metal>
0.0000

> <Gold.Chemscore.Lipo>
84.5852

> <Gold.Chemscore.Internal_Hbond>
0.0000

> <Gold.Chemscore.DEClash>
0.1497

> <Gold.Chemscore.DEInternal>
2.9755

> <Gold.Chemscore.Rot>
1.6142

> <Gold.Chemscore.Internal.Correction>
   9.000000E+99

> <Gold.Chemscore.Hbonds>
donor molecule, donor type, donor heavy atom, donor atom, acceptor molecule, acceptor atom, score
      L1  H    12    33       P1  7948  0.99
      L1  H    15    50       P1  7948  1.00
      P1  H  7997  8008       L1     3  0.64

> <Gold.Chemscore.Hbond.Weighted>
-9.8027

> <Gold.Chemscore.Metal.Weighted>
-0.0000

> <Gold.Chemscore.Lipo.Weighted>
-9.8965

> <Gold.Chemscore.Internal_Hbond.Weighted>
0.0000

> <Gold.Chemscore.DEClash.Weighted>
0.1497

> <Gold.Chemscore.DEInternal.Weighted>
2.9755

> <Gold.Chemscore.Rot.Weighted>
4.1324

> <Gold.Chemscore.Internal.Correction.Weighted>
   9.000000E+99

> <Gold.Protein.RotatedTorsions>
[ 6907 6896 6895 6894 ] final -117.43 input  -60.11 | X-H torsion
[ 7974 7965 7964 7962 ] final -156.79 input  175.53 | X-H torsion
[ 8008 7997 7996 7995 ] final  -54.83 input   59.86 | X-H torsion
[ 10167 10162 10161 10158 ] final  -40.65 input  -65.29 | X-H torsion
[ 10718 10713 10712 10709 ] final  -16.01 input   66.30 | X-H torsion
[ 10763 10752 10751 10750 ] final   56.15 input  -60.55 | X-H torsion
[ 11005 11000 10999 10996 ] final  118.02 input  -57.11 | X-H torsion

> <Gold.Protein.ActiveResidues>
 VAL166  LYS551  ARG553  GLY616  TRP617  ASP618  TYR619  PRO620  LYS621  CYS622 
 ASP623  PHE694  ASN695  SER759  ASP760  ASP761  ALA762  ILE779  LEU786  VAL792 
 PHE793  MET794  SER795  GLU796  ALA797  LYS798  CYS799  TRP800  GLU811  SER814 

> <Gold.Protein.RotatedAtoms>
  150.8136  133.8378  159.3170 H   0  0  0  0  0  0  0  0  0  0  0  0  # atno 6907 bound_to 6896
  151.6156  135.1035  160.0100 H   0  0  0  0  0  0  0  0  0  0  0  0  # atno 6908 bound_to 6896
  152.4227  133.7103  159.6532 H   0  0  0  0  0  0  0  0  0  0  0  0  # atno 6909 bound_to 6896
  144.7577  140.4060  143.6000 H   0  0  0  0  0  0  0  0  0  0  0  0  # atno 7974 bound_to 7965
  154.4175  140.1167  156.5379 H   0  0  0  0  0  0  0  0  0  0  0  0  # atno 8008 bound_to 7997
  155.6538  140.3496  155.4738 H   0  0  0  0  0  0  0  0  0  0  0  0  # atno 8009 bound_to 7997
  155.9770  140.1152  157.0751 H   0  0  0  0  0  0  0  0  0  0  0  0  # atno 8010 bound_to 7997
  140.7027  143.3141  151.2955 H   0  0  0  0  0  0  0  0  0  0  0  0  # atno 10167 bound_to 10162
  156.5936  130.4805  149.6269 H   0  0  0  0  0  0  0  0  0  0  0  0  # atno 10718 bound_to 10713
  152.9827  135.5686  154.5182 H   0  0  0  0  0  0  0  0  0  0  0  0  # atno 10763 bound_to 10752
  154.4675  135.2783  155.1669 H   0  0  0  0  0  0  0  0  0  0  0  0  # atno 10764 bound_to 10752
  154.3232  135.6265  153.5570 H   0  0  0  0  0  0  0  0  0  0  0  0  # atno 10765 bound_to 10752
  139.9095  134.9616  156.7440 H   0  0  0  0  0  0  0  0  0  0  0  0  # atno 11005 bound_to 11000
  145.6724  139.1602  143.2747 LP  0  0  0  0  0  0  0  0  0  0  0  0  # atno 17320 bound_to 7965
  146.1606  140.6794  142.9279 LP  0  0  0  0  0  0  0  0  0  0  0  0  # atno 17321 bound_to 7965
  139.6573  144.0253  152.2668 LP  0  0  0  0  0  0  0  0  0  0  0  0  # atno 17342 bound_to 10162
  139.9809  144.6429  150.7902 LP  0  0  0  0  0  0  0  0  0  0  0  0  # atno 17343 bound_to 10162
  156.2528  130.6917  151.1661 LP  0  0  0  0  0  0  0  0  0  0  0  0  # atno 17370 bound_to 10713
  157.7297  131.0622  150.5760 LP  0  0  0  0  0  0  0  0  0  0  0  0  # atno 17371 bound_to 10713
  140.6827  133.9460  155.7919 LP  0  0  0  0  0  0  0  0  0  0  0  0  # atno 17394 bound_to 11000
  141.0499  134.0500  157.3797 LP  0  0  0  0  0  0  0  0  0  0  0  0  # atno 17395 bound_to 11000

$$$$
