AV-unprocessed.smi:1767|AV-procd|sdf|7142|dock2
  -GOLD-   22720 8383D 1   1.00000     0.00000
 Structure written by MMmdl.
 33 35  0  0  0  0  0  0  0  0  2 V2000
  149.9921  139.9107  157.6086 O   0  0  0  0  0  0  0  0  0  0  0  0
  151.3065  140.4029  157.4320 C   0  0  1  0  0  0  0  0  0  0  0  0
  151.6164  140.5255  155.9270 C   0  0  0  0  0  0  0  0  0  0  0  0
  150.7074  139.7304  155.0914 N   0  0  0  0  0  0  0  0  0  0  0  0
  150.8096  138.4407  154.6699 C   0  0  0  0  0  0  0  0  0  0  0  0
  149.7100  138.1676  153.9139 N   0  3  0  0  0  0  0  0  0  0  0  0
  148.8946  139.2997  153.8501 C   0  0  0  0  0  0  0  0  0  0  0  0
  147.6794  139.5142  153.2066 C   0  0  0  0  0  0  0  0  0  0  0  0
  147.1093  140.7974  153.3422 C   0  0  0  0  0  0  0  0  0  0  0  0
  147.7439  141.8081  154.0935 C   0  0  0  0  0  0  0  0  0  0  0  0
  148.9755  141.5795  154.7424 C   0  0  0  0  0  0  0  0  0  0  0  0
  149.5311  140.3084  154.6038 C   0  0  0  0  0  0  0  0  0  0  0  0
  151.5292  141.7246  158.1499 C   0  0  0  0  0  0  0  0  0  0  0  0
  150.8050  142.8702  157.7555 C   0  0  0  0  0  0  0  0  0  0  0  0
  150.9982  144.0965  158.4211 C   0  0  0  0  0  0  0  0  0  0  0  0
  151.9149  144.1838  159.4864 C   0  0  0  0  0  0  0  0  0  0  0  0
  152.0996  145.3628  160.1259 F   0  0  0  0  0  0  0  0  0  0  0  0
  152.6377  143.0436  159.8869 C   0  0  0  0  0  0  0  0  0  0  0  0
  152.4452  141.8172  159.2215 C   0  0  0  0  0  0  0  0  0  0  0  0
  149.8409  139.2267  156.9739 H   0  0  0  0  0  0  0  0  0  0  0  0
  151.9754  139.6615  157.8709 H   0  0  0  0  0  0  0  0  0  0  0  0
  151.5334  141.5643  155.6038 H   0  0  0  0  0  0  0  0  0  0  0  0
  152.6404  140.2165  155.7128 H   0  0  0  0  0  0  0  0  0  0  0  0
  151.6184  137.7594  154.8921 H   0  0  0  0  0  0  0  0  0  0  0  0
  147.1912  138.7421  152.6300 H   0  0  0  0  0  0  0  0  0  0  0  0
  146.1666  141.0110  152.8595 H   0  0  0  0  0  0  0  0  0  0  0  0
  147.2765  142.7789  154.1739 H   0  0  0  0  0  0  0  0  0  0  0  0
  149.4547  142.3598  155.3151 H   0  0  0  0  0  0  0  0  0  0  0  0
  150.0969  142.8134  156.9418 H   0  0  0  0  0  0  0  0  0  0  0  0
  150.4419  144.9703  158.1149 H   0  0  0  0  0  0  0  0  0  0  0  0
  153.3392  143.1090  160.7055 H   0  0  0  0  0  0  0  0  0  0  0  0
  153.0018  140.9474  159.5389 H   0  0  0  0  0  0  0  0  0  0  0  0
  149.5331  137.2733  153.4742 H   0  0  0  0  0  0  0  0  0  0  0  0
  1  2  1  0  0  0  0
  1 20  1  0  0  0  0
  2  3  1  0  0  0  0
  2 13  1  0  0  0  0
  2 21  1  0  0  0  0
  3  4  1  0  0  0  0
  3 22  1  0  0  0  0
  3 23  1  0  0  0  0
  4 12  1  0  0  0  0
  4  5  1  0  0  0  0
  5  6  2  0  0  0  0
  5 24  1  0  0  0  0
  6  7  1  0  0  0  0
  6 33  1  0  0  0  0
  7 12  2  0  0  0  0
  7  8  1  0  0  0  0
  8  9  2  0  0  0  0
  8 25  1  0  0  0  0
  9 10  1  0  0  0  0
  9 26  1  0  0  0  0
 10 11  2  0  0  0  0
 10 27  1  0  0  0  0
 11 12  1  0  0  0  0
 11 28  1  0  0  0  0
 13 19  1  0  0  0  0
 13 14  2  0  0  0  0
 14 15  1  0  0  0  0
 14 29  1  0  0  0  0
 15 16  2  0  0  0  0
 15 30  1  0  0  0  0
 16 17  1  0  0  0  0
 16 18  1  0  0  0  0
 18 19  2  0  0  0  0
 18 31  1  0  0  0  0
 19 32  1  0  0  0  0
M  CHG  1   6   1
M  END
> <s_m_source_file>
AV-unprocessed.smi

> <i_m_source_file_index>
1767

> <i_lp_mmshare_version>
43012

> <i_f3d_flags>
0

> <s_epik_input>
W2NIXTFbY0hdYyhGKVtjSF1bY0hdYzFbQ0BIXShbT0hdKVtDSDJdbihbY0hdbjIpYyhjMjMpW2NIXVtjSF1bY0hdW2NIXTM=

> <s_epik_cmdline>
J2VwaWtfcHl0aG9uJywgJy1waCcsICc3LjAnLCAnLXRuJywgJzgnLCAnLW1hJywgJzIwMCcsICctbWV0YWxfYmluZGluZycsICctaW1hZScsICc8aW5maWxlLm1hZT4nLCAnLW9tYWUnLCAnPG91dGZpbGUubWFlPic=

> <r_epik_Ionization_Penalty>
1.3029

> <r_epik_Ionization_Penalty_Charging>
1.3029

> <r_epik_Ionization_Penalty_Neutral>
1.79538e-06

> <r_epik_State_Penalty>
1.377

> <r_epik_Charging_Adjusted_Penalty>
2.6799

> <i_epik_Tot_Q>
1

> <i_epik_Tot_abs_Q>
1

> <r_epik_Metal_State_Penalty>
5.40879

> <b_epik_Metal_Only>
0

> <s_lp_Force_Field>
OPLS_2005

> <r_lp_Energy>
16.37

> <b_lp_Chiralities_Consistent>
1

> <s_lp_Variant>
AV-unprocessed.smi:1767-4

> <Gold.Version>
5.8.1

> <Gold.Id.Protein>
6NUR|6NUR_protein|mol2

> <Gold.PLP.Fitness>
50.5398

> <Gold.PLP.PLP>
-46.5270

> <Gold.PLP.part.hbond>
-1.0542

> <Gold.PLP.part.metal>
0.0000

> <Gold.PLP.part.buried>
0.3904

> <Gold.PLP.part.nonpolar>
-45.3687

> <Gold.PLP.part.repulsive>
0.0415

> <Gold.PLP.ligand.clash>
0.0000

> <Gold.PLP.ligand.torsion>
0.9429

> <Gold.PLP.Chemscore.Hbond>
1.9520

> <Gold.PLP.Chemscore.CHOScore>
0.0000

> <Gold.PLP.Chemscore.Metal>
0.0000

> <Gold.Chemscore.Hbonds>
donor molecule, donor type, donor heavy atom, donor atom, acceptor molecule, acceptor atom, score
      L1  H     6    33       P1  7948  1.95

> <Gold.PLP.Chemscore.Internal.Correction>
0.0426

> <Gold.Rescore>
     Score         DG    S(hbond)    S(metal)    S(lipo)     H(rot)  DE(clash)    DE(int)     intcor
     15.48     -16.59       0.80        0.00     115.12       1.97       0.18       0.93       ----

> <Gold.Chemscore.Fitness>
15.4832

> <Gold.Chemscore.DG>
-16.5888

> <Gold.Chemscore.ZeroCoef>
-5.4800

> <Gold.Chemscore.Hbond>
0.8013

> <Gold.Chemscore.Metal>
0.0000

> <Gold.Chemscore.Lipo>
115.1249

> <Gold.Chemscore.Internal_Hbond>
0.0000

> <Gold.Chemscore.DEClash>
0.1770

> <Gold.Chemscore.DEInternal>
0.9286

> <Gold.Chemscore.Rot>
1.9677

> <Gold.Chemscore.Internal.Correction>
   9.000000E+99

> <Gold.Chemscore.Hbonds>
donor molecule, donor type, donor heavy atom, donor atom, acceptor molecule, acceptor atom, score
      L1  H     6    33       P1  7948  0.81

> <Gold.Chemscore.Hbond.Weighted>
-2.6764

> <Gold.Chemscore.Metal.Weighted>
-0.0000

> <Gold.Chemscore.Lipo.Weighted>
-13.4696

> <Gold.Chemscore.Internal_Hbond.Weighted>
0.0000

> <Gold.Chemscore.DEClash.Weighted>
0.1770

> <Gold.Chemscore.DEInternal.Weighted>
0.9286

> <Gold.Chemscore.Rot.Weighted>
5.0372

> <Gold.Chemscore.Internal.Correction.Weighted>
   9.000000E+99

> <Gold.Protein.RotatedTorsions>
[ 6907 6896 6895 6894 ] final    5.04 input  -60.11 | X-H torsion
[ 7974 7965 7964 7962 ] final -160.17 input  175.53 | X-H torsion
[ 8008 7997 7996 7995 ] final -170.87 input   59.86 | X-H torsion
[ 10167 10162 10161 10158 ] final -161.06 input  -65.29 | X-H torsion
[ 10718 10713 10712 10709 ] final -114.49 input   66.30 | X-H torsion
[ 10763 10752 10751 10750 ] final   -1.03 input  -60.55 | X-H torsion
[ 11005 11000 10999 10996 ] final -172.80 input  -57.11 | X-H torsion

> <Gold.Protein.ActiveResidues>
 VAL166  LYS551  ARG553  GLY616  TRP617  ASP618  TYR619  PRO620  LYS621  CYS622 
 ASP623  PHE694  ASN695  SER759  ASP760  ASP761  ALA762  ILE779  LEU786  VAL792 
 PHE793  MET794  SER795  GLU796  ALA797  LYS798  CYS799  TRP800  GLU811  SER814 

> <Gold.Protein.RotatedAtoms>
  151.6510  135.1001  160.0160 H   0  0  0  0  0  0  0  0  0  0  0  0  # atno 6907 bound_to 6896
  152.4001  133.6800  159.6317 H   0  0  0  0  0  0  0  0  0  0  0  0  # atno 6908 bound_to 6896
  150.7902  133.8723  159.3303 H   0  0  0  0  0  0  0  0  0  0  0  0  # atno 6909 bound_to 6896
  144.7437  140.3580  143.6102 H   0  0  0  0  0  0  0  0  0  0  0  0  # atno 7974 bound_to 7965
  155.9241  140.1079  157.1184 H   0  0  0  0  0  0  0  0  0  0  0  0  # atno 8008 bound_to 7997
  154.4059  140.1250  156.4782 H   0  0  0  0  0  0  0  0  0  0  0  0  # atno 8009 bound_to 7997
  155.7160  140.3470  155.4997 H   0  0  0  0  0  0  0  0  0  0  0  0  # atno 8010 bound_to 7997
  139.6493  144.0113  152.2150 H   0  0  0  0  0  0  0  0  0  0  0  0  # atno 10167 bound_to 10162
  156.0833  130.6029  150.8782 H   0  0  0  0  0  0  0  0  0  0  0  0  # atno 10718 bound_to 10713
  153.3396  135.6980  153.6878 H   0  0  0  0  0  0  0  0  0  0  0  0  # atno 10763 bound_to 10752
  153.5648  135.3528  155.2815 H   0  0  0  0  0  0  0  0  0  0  0  0  # atno 10764 bound_to 10752
  154.8634  135.4258  154.2605 H   0  0  0  0  0  0  0  0  0  0  0  0  # atno 10765 bound_to 10752
  140.4929  134.5967  157.4961 H   0  0  0  0  0  0  0  0  0  0  0  0  # atno 11005 bound_to 11000
  145.7207  139.1709  143.2486 LP  0  0  0  0  0  0  0  0  0  0  0  0  # atno 17320 bound_to 7965
  146.1279  140.7224  142.9426 LP  0  0  0  0  0  0  0  0  0  0  0  0  # atno 17321 bound_to 7965
  139.9823  144.6419  150.7889 LP  0  0  0  0  0  0  0  0  0  0  0  0  # atno 17342 bound_to 10162
  140.7530  143.3000  151.3104 LP  0  0  0  0  0  0  0  0  0  0  0  0  # atno 17343 bound_to 10162
  157.5959  131.0943  150.9042 LP  0  0  0  0  0  0  0  0  0  0  0  0  # atno 17370 bound_to 10713
  156.9209  130.5315  149.5279 LP  0  0  0  0  0  0  0  0  0  0  0  0  # atno 17371 bound_to 10713
  139.9758  134.7217  155.9952 LP  0  0  0  0  0  0  0  0  0  0  0  0  # atno 17394 bound_to 11000
  141.1475  133.6553  156.3911 LP  0  0  0  0  0  0  0  0  0  0  0  0  # atno 17395 bound_to 11000

$$$$
