AV-unprocessed.smi:1827|AV-procd|sdf|7420|dock4
  -GOLD-   22720 9103D 1   1.00000     0.00000
 Structure written by MMmdl.
 44 45  0  0  0  0  0  0  0  0  2 V2000
  150.0157  140.1435  153.5547 C   0  0  0  0  0  0  0  0  0  0  0  0
  149.0639  141.2632  153.8726 C   0  0  0  0  0  0  0  0  0  0  0  0
  149.5611  142.4258  154.2743 N   0  0  0  0  0  0  0  0  0  0  0  0
  148.4857  143.2300  154.4149 N   0  0  0  0  0  0  0  0  0  0  0  0
  147.2942  142.6111  154.1112 C   0  0  0  0  0  0  0  0  0  0  0  0
  145.9817  143.3175  154.1833 C   0  0  0  0  0  0  0  0  0  0  0  0
  147.6377  141.3310  153.7854 C   0  0  0  0  0  0  0  0  0  0  0  0
  146.7138  140.3384  153.3725 N   0  0  0  0  0  0  0  0  0  0  0  0
  146.8823  139.0083  153.4181 C   0  0  0  0  0  0  0  0  0  0  0  0
  147.8810  138.4370  153.8545 O   0  0  0  0  0  0  0  0  0  0  0  0
  145.8077  138.3629  152.9424 N   0  0  0  0  0  0  0  0  0  0  0  0
  145.6682  136.9119  152.8617 C   0  0  2  0  0  0  0  0  0  0  0  0
  146.2588  136.2317  154.1108 C   0  0  0  0  0  0  0  0  0  0  0  0
  146.2078  134.7003  153.9865 C   0  0  0  0  0  0  0  0  0  0  0  0
  146.9084  134.2372  152.7617 N   0  3  1  0  0  0  0  0  0  0  0  0
  146.9964  132.7558  152.6860 C   0  0  0  0  0  0  0  0  0  0  0  0
  147.9184  132.1548  153.7520 C   0  0  0  0  0  0  0  0  0  0  0  0
  148.9254  131.3939  153.3177 N   0  0  0  0  0  0  0  0  0  0  0  0
  147.7193  132.3586  154.9483 O   0  0  0  0  0  0  0  0  0  0  0  0
  146.3285  134.8513  151.5369 C   0  0  0  0  0  0  0  0  0  0  0  0
  146.3828  136.3866  151.6062 C   0  0  0  0  0  0  0  0  0  0  0  0
  148.5806  144.1915  154.7092 H   0  0  0  0  0  0  0  0  0  0  0  0
  149.6443  139.5288  152.7349 H   0  0  0  0  0  0  0  0  0  0  0  0
  150.1631  139.4984  154.4206 H   0  0  0  0  0  0  0  0  0  0  0  0
  150.9938  140.5229  153.2570 H   0  0  0  0  0  0  0  0  0  0  0  0
  145.1979  142.7434  153.6888 H   0  0  0  0  0  0  0  0  0  0  0  0
  146.0382  144.2927  153.6994 H   0  0  0  0  0  0  0  0  0  0  0  0
  145.6828  143.4702  155.2204 H   0  0  0  0  0  0  0  0  0  0  0  0
  145.7989  140.6718  153.1068 H   0  0  0  0  0  0  0  0  0  0  0  0
  145.0297  138.9160  152.6135 H   0  0  0  0  0  0  0  0  0  0  0  0
  144.6082  136.6611  152.7845 H   0  0  0  0  0  0  0  0  0  0  0  0
  147.2929  136.5495  154.2527 H   0  0  0  0  0  0  0  0  0  0  0  0
  145.7157  136.5426  155.0042 H   0  0  0  0  0  0  0  0  0  0  0  0
  146.6727  134.2561  154.8674 H   0  0  0  0  0  0  0  0  0  0  0  0
  145.1718  134.3577  153.9670 H   0  0  0  0  0  0  0  0  0  0  0  0
  146.0092  132.3216  152.8491 H   0  0  0  0  0  0  0  0  0  0  0  0
  147.3120  132.4499  151.6871 H   0  0  0  0  0  0  0  0  0  0  0  0
  149.5679  130.9759  153.9753 H   0  0  0  0  0  0  0  0  0  0  0  0
  149.0458  131.2416  152.3262 H   0  0  0  0  0  0  0  0  0  0  0  0
  146.8727  134.5159  150.6536 H   0  0  0  0  0  0  0  0  0  0  0  0
  145.2967  134.5181  151.4148 H   0  0  0  0  0  0  0  0  0  0  0  0
  145.9273  136.8113  150.7107 H   0  0  0  0  0  0  0  0  0  0  0  0
  147.4247  136.7113  151.6070 H   0  0  0  0  0  0  0  0  0  0  0  0
  147.8599  134.5693  152.8359 H   0  0  0  0  0  0  0  0  0  0  0  0
  1  2  1  0  0  0  0
  1 23  1  0  0  0  0
  1 24  1  0  0  0  0
  1 25  1  0  0  0  0
  2  7  1  0  0  0  0
  2  3  2  0  0  0  0
  3  4  1  0  0  0  0
  4 22  1  0  0  0  0
  4  5  1  0  0  0  0
  5  6  1  0  0  0  0
  5  7  2  0  0  0  0
  6 26  1  0  0  0  0
  6 27  1  0  0  0  0
  6 28  1  0  0  0  0
  7  8  1  0  0  0  0
  8  9  1  0  0  0  0
  8 29  1  0  0  0  0
  9 10  2  0  0  0  0
  9 11  1  0  0  0  0
 11 12  1  0  0  0  0
 11 30  1  0  0  0  0
 12 21  1  0  0  0  0
 12 13  1  0  0  0  0
 12 31  1  0  0  0  0
 13 14  1  0  0  0  0
 13 32  1  0  0  0  0
 13 33  1  0  0  0  0
 14 15  1  0  0  0  0
 14 34  1  0  0  0  0
 14 35  1  0  0  0  0
 15 16  1  0  0  0  0
 15 20  1  0  0  0  0
 15 44  1  0  0  0  0
 16 17  1  0  0  0  0
 16 36  1  0  0  0  0
 16 37  1  0  0  0  0
 17 18  1  0  0  0  0
 17 19  2  0  0  0  0
 18 38  1  0  0  0  0
 18 39  1  0  0  0  0
 20 21  1  0  0  0  0
 20 40  1  0  0  0  0
 20 41  1  0  0  0  0
 21 42  1  0  0  0  0
 21 43  1  0  0  0  0
M  CHG  1  15   1
M  END
> <s_m_source_file>
AV-unprocessed.smi

> <i_m_source_file_index>
1827

> <i_lp_mmshare_version>
43012

> <i_f3d_flags>
0

> <s_epik_input>
W0NIM11jMW5bbkhdYyhbQ0gzXSljMVtOSF1DKD1PKVtOSF1bQ0hdMltDSDJdW0NIMl1OKFtDSDJdW0NIMl0yKVtDSDJdQyg9TylbTkgyXQ==

> <s_epik_cmdline>
J2VwaWtfcHl0aG9uJywgJy1waCcsICc3LjAnLCAnLXRuJywgJzgnLCAnLW1hJywgJzIwMCcsICctbWV0YWxfYmluZGluZycsICctaW1hZScsICc8aW5maWxlLm1hZT4nLCAnLW9tYWUnLCAnPG91dGZpbGUubWFlPic=

> <r_lp_tautomer_probability>
0.5

> <r_epik_Ionization_Penalty>
0.839233

> <r_epik_Ionization_Penalty_Charging>
0.838844

> <r_epik_Ionization_Penalty_Neutral>
0.000388936

> <r_epik_State_Penalty>
0.8734

> <r_epik_Charging_Adjusted_Penalty>
1.71224

> <i_epik_Tot_Q>
1

> <i_epik_Tot_abs_Q>
1

> <r_epik_Metal_State_Penalty>
0.890753

> <b_epik_Metal_Only>
0

> <s_lp_Force_Field>
OPLS_2005

> <r_lp_Energy>
15.4281

> <b_lp_Chiralities_Consistent>
1

> <s_lp_Variant>
AV-unprocessed.smi:1827-2

> <Gold.Version>
5.8.1

> <Gold.Id.Protein>
6NUR|6NUR_protein|mol2

> <Gold.PLP.Fitness>
41.9085

> <Gold.PLP.PLP>
-31.0290

> <Gold.PLP.part.hbond>
-5.0000

> <Gold.PLP.part.metal>
0.0000

> <Gold.PLP.part.buried>
-4.1982

> <Gold.PLP.part.nonpolar>
-24.3411

> <Gold.PLP.part.repulsive>
1.1530

> <Gold.PLP.ligand.clash>
0.0373

> <Gold.PLP.ligand.torsion>
0.5007

> <Gold.PLP.Chemscore.Hbond>
3.8640

> <Gold.PLP.Chemscore.CHOScore>
0.0000

> <Gold.PLP.Chemscore.Metal>
0.0000

> <Gold.Chemscore.Hbonds>
donor molecule, donor type, donor heavy atom, donor atom, acceptor molecule, acceptor atom, score
      L1  H     8    29       P1 10175  0.55
      L1  H    11    30       P1 10175  0.94
      L1  H    15    44       P1  7948  0.83
      L1  H    18    39       P1 10747  0.93

> <Gold.PLP.Chemscore.Internal.Correction>
0.3261

> <Gold.Rescore>
     Score         DG    S(hbond)    S(metal)    S(lipo)     H(rot)  DE(clash)    DE(int)     intcor
     14.38     -19.52       3.65        0.00      59.30       1.98       0.18       4.96       ----

> <Gold.Chemscore.Fitness>
14.3781

> <Gold.Chemscore.DG>
-19.5219

> <Gold.Chemscore.ZeroCoef>
-5.4800

> <Gold.Chemscore.Hbond>
3.6480

> <Gold.Chemscore.Metal>
0.0000

> <Gold.Chemscore.Lipo>
59.3045

> <Gold.Chemscore.Internal_Hbond>
0.0000

> <Gold.Chemscore.DEClash>
0.1844

> <Gold.Chemscore.DEInternal>
4.9594

> <Gold.Chemscore.Rot>
1.9848

> <Gold.Chemscore.Internal.Correction>
   9.000000E+99

> <Gold.Chemscore.Hbonds>
donor molecule, donor type, donor heavy atom, donor atom, acceptor molecule, acceptor atom, score
      L1  H     4    22       P1  8028  0.02
      L1  H     8    29       P1 10175  0.40
      L1  H    11    30       P1 10175  0.90
      L1  H    15    44       P1  7948  0.32
      L1  H    18    39       P1 10747  0.49

> <Gold.Chemscore.Hbond.Weighted>
-12.1843

> <Gold.Chemscore.Metal.Weighted>
-0.0000

> <Gold.Chemscore.Lipo.Weighted>
-6.9386

> <Gold.Chemscore.Internal_Hbond.Weighted>
0.0000

> <Gold.Chemscore.DEClash.Weighted>
0.1844

> <Gold.Chemscore.DEInternal.Weighted>
4.9594

> <Gold.Chemscore.Rot.Weighted>
5.0810

> <Gold.Chemscore.Internal.Correction.Weighted>
   9.000000E+99

> <Gold.Protein.RotatedTorsions>
[ 6907 6896 6895 6894 ] final  -78.86 input  -60.11 | X-H torsion
[ 7974 7965 7964 7962 ] final   45.89 input  175.53 | X-H torsion
[ 8008 7997 7996 7995 ] final  132.06 input   59.86 | X-H torsion
[ 10167 10162 10161 10158 ] final   21.71 input  -65.29 | X-H torsion
[ 10718 10713 10712 10709 ] final -126.40 input   66.30 | X-H torsion
[ 10763 10752 10751 10750 ] final   10.62 input  -60.55 | X-H torsion
[ 11005 11000 10999 10996 ] final   62.42 input  -57.11 | X-H torsion

> <Gold.Protein.ActiveResidues>
 VAL166  LYS551  ARG553  GLY616  TRP617  ASP618  TYR619  PRO620  LYS621  CYS622 
 ASP623  PHE694  ASN695  SER759  ASP760  ASP761  ALA762  ILE779  LEU786  VAL792 
 PHE793  MET794  SER795  GLU796  ALA797  LYS798  CYS799  TRP800  GLU811  SER814 

> <Gold.Protein.RotatedAtoms>
  150.6963  134.4208  159.5203 H   0  0  0  0  0  0  0  0  0  0  0  0  # atno 6907 bound_to 6896
  152.1951  134.8635  160.0523 H   0  0  0  0  0  0  0  0  0  0  0  0  # atno 6908 bound_to 6896
  151.9576  133.3650  159.4060 H   0  0  0  0  0  0  0  0  0  0  0  0  # atno 6909 bound_to 6896
  146.0439  139.4915  142.9761 H   0  0  0  0  0  0  0  0  0  0  0  0  # atno 7974 bound_to 7965
  156.2978  140.2556  156.3028 H   0  0  0  0  0  0  0  0  0  0  0  0  # atno 8008 bound_to 7997
  154.9401  140.0396  157.2111 H   0  0  0  0  0  0  0  0  0  0  0  0  # atno 8009 bound_to 7997
  154.8134  140.2848  155.5841 H   0  0  0  0  0  0  0  0  0  0  0  0  # atno 8010 bound_to 7997
  140.5406  143.9684  150.6517 H   0  0  0  0  0  0  0  0  0  0  0  0  # atno 10167 bound_to 10162
  156.1762  130.6701  151.0245 H   0  0  0  0  0  0  0  0  0  0  0  0  # atno 10718 bound_to 10713
  153.2013  135.6856  153.8228 H   0  0  0  0  0  0  0  0  0  0  0  0  # atno 10763 bound_to 10752
  153.7493  135.3226  155.3319 H   0  0  0  0  0  0  0  0  0  0  0  0  # atno 10764 bound_to 10752
  154.8173  135.4677  154.0780 H   0  0  0  0  0  0  0  0  0  0  0  0  # atno 10765 bound_to 10752
  140.0093  134.6321  155.9805 H   0  0  0  0  0  0  0  0  0  0  0  0  # atno 11005 bound_to 11000
  145.6838  141.0183  143.1592 LP  0  0  0  0  0  0  0  0  0  0  0  0  # atno 17320 bound_to 7965
  144.7088  139.8453  143.7421 LP  0  0  0  0  0  0  0  0  0  0  0  0  # atno 17321 bound_to 7965
  140.3084  143.3214  152.0903 LP  0  0  0  0  0  0  0  0  0  0  0  0  # atno 17342 bound_to 10162
  139.4987  144.6652  151.6372 LP  0  0  0  0  0  0  0  0  0  0  0  0  # atno 17343 bound_to 10162
  157.6837  131.0831  150.7300 LP  0  0  0  0  0  0  0  0  0  0  0  0  # atno 17370 bound_to 10713
  156.7358  130.4724  149.5489 LP  0  0  0  0  0  0  0  0  0  0  0  0  # atno 17371 bound_to 10713
  141.1699  133.6537  156.4615 LP  0  0  0  0  0  0  0  0  0  0  0  0  # atno 17394 bound_to 11000
  140.4583  134.6864  157.5073 LP  0  0  0  0  0  0  0  0  0  0  0  0  # atno 17395 bound_to 11000

$$$$
