AV-unprocessed.smi:276|AV-procd|sdf|2071|dock6
  -GOLD-   2262021333D 1   1.00000     0.00000
 Structure written by MMmdl.
 57 61  0  0  0  0  0  0  0  0  1 V2000
  151.8798  139.4271  155.2306 C   0  0  0  0  0  0  0  0  0  0  0  0
  150.5315  139.8349  155.0787 O   0  0  0  0  0  0  0  0  0  0  0  0
  150.3264  141.2014  155.4105 C   0  0  1  0  0  0  0  0  0  0  0  0
  149.1128  141.8111  154.6923 C   0  0  0  0  0  0  0  0  0  0  0  0
  148.2298  141.4015  155.8878 C   0  0  1  0  0  0  0  0  0  0  0  0
  147.5692  140.1095  155.6532 N   0  0  0  0  0  0  0  0  0  0  0  0
  146.5516  140.0879  154.6074 C   0  0  0  0  0  0  0  0  0  0  0  0
  147.1116  139.4711  156.7527 C   0  0  0  0  0  0  0  0  0  0  0  0
  145.9721  139.9482  157.3126 N   0  0  0  0  0  0  0  0  0  0  0  0
  145.4565  139.3507  158.3909 C   0  0  0  0  0  0  0  0  0  0  0  0
  145.9149  138.2885  159.0569 N   0  0  0  0  0  0  0  0  0  0  0  0
  147.0707  137.8186  158.5054 C   0  0  0  0  0  0  0  0  0  0  0  0
  147.7386  138.3490  157.3661 C   0  0  0  0  0  0  0  0  0  0  0  0
  148.8886  137.6125  157.1062 N   0  0  0  0  0  0  0  0  0  0  0  0
  148.8915  136.6897  158.0285 C   0  0  0  0  0  0  0  0  0  0  0  0
  147.8346  136.7377  158.9080 N   0  0  0  0  0  0  0  0  0  0  0  0
  147.5883  135.8307  160.0160 C   0  0  0  0  0  0  0  0  0  0  0  0
  146.5141  136.3661  160.9907 C   0  0  2  0  0  0  0  0  0  0  0  0
  146.9977  137.5779  161.5413 O   0  0  0  0  0  0  0  0  0  0  0  0
  146.2026  135.4188  162.1731 C   0  0  2  0  0  0  0  0  0  0  0  0
  147.4233  134.9589  162.9911 C   0  0  0  0  0  0  0  0  0  0  0  0
  147.7950  133.6372  162.3593 C   0  0  0  0  0  0  0  0  0  0  0  0
  146.4210  133.0782  162.0313 C   0  0  0  0  0  0  0  0  0  0  0  0
  145.6706  134.2119  161.6171 O   0  0  0  0  0  0  0  0  0  0  0  0
  149.5380  141.3527  156.7229 C   0  0  0  0  0  0  0  0  0  0  0  0
  149.8873  142.5350  157.6437 C   0  0  0  0  0  0  0  0  0  0  0  0
  150.6873  141.5603  158.5108 C   0  0  0  0  0  0  0  0  0  0  0  0
  149.8123  140.4438  157.9393 C   0  0  0  0  0  0  0  0  0  0  0  0
  151.9734  138.3730  154.9705 H   0  0  0  0  0  0  0  0  0  0  0  0
  152.2126  139.5491  156.2619 H   0  0  0  0  0  0  0  0  0  0  0  0
  152.5458  139.9935  154.5792 H   0  0  0  0  0  0  0  0  0  0  0  0
  151.2347  141.8048  155.3704 H   0  0  0  0  0  0  0  0  0  0  0  0
  149.1950  142.8949  154.5959 H   0  0  0  0  0  0  0  0  0  0  0  0
  148.8708  141.3564  153.7325 H   0  0  0  0  0  0  0  0  0  0  0  0
  147.5508  142.1999  156.1872 H   0  0  0  0  0  0  0  0  0  0  0  0
  145.9224  139.1978  154.6632 H   0  0  0  0  0  0  0  0  0  0  0  0
  147.0170  140.0907  153.6223 H   0  0  0  0  0  0  0  0  0  0  0  0
  145.9052  140.9630  154.6821 H   0  0  0  0  0  0  0  0  0  0  0  0
  144.5440  139.7841  158.7727 H   0  0  0  0  0  0  0  0  0  0  0  0
  149.6674  135.9406  158.0902 H   0  0  0  0  0  0  0  0  0  0  0  0
  147.2892  134.8754  159.5872 H   0  0  0  0  0  0  0  0  0  0  0  0
  148.5277  135.6568  160.5424 H   0  0  0  0  0  0  0  0  0  0  0  0
  145.5992  136.5791  160.4360 H   0  0  0  0  0  0  0  0  0  0  0  0
  146.5745  137.7196  162.3744 H   0  0  0  0  0  0  0  0  0  0  0  0
  145.4704  135.8780  162.8394 H   0  0  0  0  0  0  0  0  0  0  0  0
  148.2550  135.6595  163.0190 H   0  0  0  0  0  0  0  0  0  0  0  0
  147.1190  134.7865  164.0246 H   0  0  0  0  0  0  0  0  0  0  0  0
  148.3683  133.8002  161.4457 H   0  0  0  0  0  0  0  0  0  0  0  0
  148.3725  132.9910  163.0210 H   0  0  0  0  0  0  0  0  0  0  0  0
  146.4500  132.3114  161.2569 H   0  0  0  0  0  0  0  0  0  0  0  0
  145.9572  132.6507  162.9213 H   0  0  0  0  0  0  0  0  0  0  0  0
  150.4785  143.3257  157.1805 H   0  0  0  0  0  0  0  0  0  0  0  0
  149.0146  142.9380  158.1607 H   0  0  0  0  0  0  0  0  0  0  0  0
  151.7315  141.4783  158.2046 H   0  0  0  0  0  0  0  0  0  0  0  0
  150.5879  141.7154  159.5854 H   0  0  0  0  0  0  0  0  0  0  0  0
  148.9415  140.2676  158.5702 H   0  0  0  0  0  0  0  0  0  0  0  0
  150.3408  139.5163  157.7182 H   0  0  0  0  0  0  0  0  0  0  0  0
  1  2  1  0  0  0  0
  1 29  1  0  0  0  0
  1 30  1  0  0  0  0
  1 31  1  0  0  0  0
  2  3  1  0  0  0  0
  3 25  1  0  0  0  0
  3  4  1  0  0  0  0
  3 32  1  0  0  0  0
  4  5  1  0  0  0  0
  4 33  1  0  0  0  0
  4 34  1  0  0  0  0
  5  6  1  0  0  0  0
  5 25  1  0  0  0  0
  5 35  1  0  0  0  0
  6  7  1  0  0  0  0
  6  8  1  0  0  0  0
  7 36  1  0  0  0  0
  7 37  1  0  0  0  0
  7 38  1  0  0  0  0
  8 13  1  0  0  0  0
  8  9  2  0  0  0  0
  9 10  1  0  0  0  0
 10 11  2  0  0  0  0
 10 39  1  0  0  0  0
 11 12  1  0  0  0  0
 12 16  1  0  0  0  0
 12 13  2  0  0  0  0
 13 14  1  0  0  0  0
 14 15  2  0  0  0  0
 15 16  1  0  0  0  0
 15 40  1  0  0  0  0
 16 17  1  0  0  0  0
 17 18  1  0  0  0  0
 17 41  1  0  0  0  0
 17 42  1  0  0  0  0
 18 19  1  0  0  0  0
 18 20  1  0  0  0  0
 18 43  1  0  0  0  0
 19 44  1  0  0  0  0
 20 24  1  0  0  0  0
 20 21  1  0  0  0  0
 20 45  1  0  0  0  0
 21 22  1  0  0  0  0
 21 46  1  0  0  0  0
 21 47  1  0  0  0  0
 22 23  1  0  0  0  0
 22 48  1  0  0  0  0
 22 49  1  0  0  0  0
 23 24  1  0  0  0  0
 23 50  1  0  0  0  0
 23 51  1  0  0  0  0
 25 28  1  0  0  0  0
 25 26  1  0  0  0  0
 26 27  1  0  0  0  0
 26 52  1  0  0  0  0
 26 53  1  0  0  0  0
 27 28  1  0  0  0  0
 27 54  1  0  0  0  0
 27 55  1  0  0  0  0
 28 56  1  0  0  0  0
 28 57  1  0  0  0  0
M  END
> <s_m_source_file>
AV-unprocessed.smi

> <i_m_source_file_index>
276

> <i_lp_mmshare_version>
43012

> <i_f3d_flags>
0

> <s_epik_input>
W0NIMl0xW0NIMl1bQ0gyXUMxMltDQEhdKE9bQ0gzXSlbQ0gyXVtDQEhdMk4oW0NIM10pYyhuW2NIXW4zKWMoYzM0KW5bY0hdbjRbQ0gyXVtDQEhdKFtPSF0pW0NAQEhdNVtDSDJdW0NIMl1bQ0gyXU81

> <s_epik_cmdline>
J2VwaWtfcHl0aG9uJywgJy1waCcsICc3LjAnLCAnLXRuJywgJzgnLCAnLW1hJywgJzIwMCcsICctbWV0YWxfYmluZGluZycsICctaW1hZScsICc8aW5maWxlLm1hZT4nLCAnLW9tYWUnLCAnPG91dGZpbGUubWFlPic=

> <r_lp_tautomer_probability>
1

> <r_epik_Ionization_Penalty>
0.00204117

> <r_epik_Ionization_Penalty_Charging>
0

> <r_epik_Ionization_Penalty_Neutral>
0.00204117

> <r_epik_State_Penalty>
0.00127401

> <r_epik_Charging_Adjusted_Penalty>
0.00127401

> <i_epik_Tot_Q>
0

> <i_epik_Tot_abs_Q>
0

> <r_epik_Metal_State_Penalty>
-0

> <b_epik_Metal_Only>
0

> <s_lp_Force_Field>
OPLS_2005

> <r_lp_Energy>
58.0583

> <b_lp_Chiralities_Consistent>
1

> <s_lp_Variant>
AV-unprocessed.smi:276-2

> <Gold.Version>
5.8.1

> <Gold.Id.Protein>
6NUR|6NUR_protein|mol2

> <Gold.PLP.Fitness>
39.5815

> <Gold.PLP.PLP>
-36.3899

> <Gold.PLP.part.hbond>
-3.2840

> <Gold.PLP.part.metal>
0.0000

> <Gold.PLP.part.buried>
-1.2175

> <Gold.PLP.part.nonpolar>
-31.0310

> <Gold.PLP.part.repulsive>
0.0800

> <Gold.PLP.ligand.clash>
0.0000

> <Gold.PLP.ligand.torsion>
1.0567

> <Gold.PLP.Chemscore.Hbond>
1.4873

> <Gold.PLP.Chemscore.CHOScore>
0.0000

> <Gold.PLP.Chemscore.Metal>
0.0000

> <Gold.Chemscore.Hbonds>
donor molecule, donor type, donor heavy atom, donor atom, acceptor molecule, acceptor atom, score
      P1  H  6931  6943       L1    19  0.43
      P1  H  6934  6947       L1    19  0.96

> <Gold.PLP.Chemscore.Internal.Correction>
0.8430

> <Gold.Rescore>
     Score         DG    S(hbond)    S(metal)    S(lipo)     H(rot)  DE(clash)    DE(int)     intcor
     10.16     -12.61       0.94        0.00      93.60       2.72       0.06       2.39       ----

> <Gold.Chemscore.Fitness>
10.1634

> <Gold.Chemscore.DG>
-12.6071

> <Gold.Chemscore.ZeroCoef>
-5.4800

> <Gold.Chemscore.Hbond>
0.9378

> <Gold.Chemscore.Metal>
0.0000

> <Gold.Chemscore.Lipo>
93.5982

> <Gold.Chemscore.Internal_Hbond>
0.0000

> <Gold.Chemscore.DEClash>
0.0580

> <Gold.Chemscore.DEInternal>
2.3857

> <Gold.Chemscore.Rot>
2.7172

> <Gold.Chemscore.Internal.Correction>
   9.000000E+99

> <Gold.Chemscore.Hbonds>
donor molecule, donor type, donor heavy atom, donor atom, acceptor molecule, acceptor atom, score
      P1  H  6931  6943       L1    19  0.15
      P1  H  6934  6947       L1    19  0.40

> <Gold.Chemscore.Hbond.Weighted>
-3.1321

> <Gold.Chemscore.Metal.Weighted>
-0.0000

> <Gold.Chemscore.Lipo.Weighted>
-10.9510

> <Gold.Chemscore.Internal_Hbond.Weighted>
0.0000

> <Gold.Chemscore.DEClash.Weighted>
0.0580

> <Gold.Chemscore.DEInternal.Weighted>
2.3857

> <Gold.Chemscore.Rot.Weighted>
6.9560

> <Gold.Chemscore.Internal.Correction.Weighted>
   9.000000E+99

> <Gold.Protein.RotatedTorsions>
[ 6907 6896 6895 6894 ] final -107.49 input  -60.11 | X-H torsion
[ 7974 7965 7964 7962 ] final   51.36 input  175.53 | X-H torsion
[ 8008 7997 7996 7995 ] final  -70.76 input   59.86 | X-H torsion
[ 10167 10162 10161 10158 ] final  -73.11 input  -65.29 | X-H torsion
[ 10718 10713 10712 10709 ] final  -27.90 input   66.30 | X-H torsion
[ 10763 10752 10751 10750 ] final   27.54 input  -60.55 | X-H torsion
[ 11005 11000 10999 10996 ] final  161.40 input  -57.11 | X-H torsion

> <Gold.Protein.ActiveResidues>
 VAL166  LYS551  ARG553  GLY616  TRP617  ASP618  TYR619  PRO620  LYS621  CYS622 
 ASP623  PHE694  ASN695  SER759  ASP760  ASP761  ALA762  ILE779  LEU786  VAL792 
 PHE793  MET794  SER795  GLU796  ALA797  LYS798  CYS799  TRP800  GLU811  SER814 

> <Gold.Protein.RotatedAtoms>
  150.7447  133.9818  159.3578 H   0  0  0  0  0  0  0  0  0  0  0  0  # atno 6907 bound_to 6896
  151.7760  135.0772  160.0376 H   0  0  0  0  0  0  0  0  0  0  0  0  # atno 6908 bound_to 6896
  152.3307  133.5918  159.5844 H   0  0  0  0  0  0  0  0  0  0  0  0  # atno 6909 bound_to 6896
  145.9921  139.4349  143.0067 H   0  0  0  0  0  0  0  0  0  0  0  0  # atno 7974 bound_to 7965
  154.5036  140.0828  156.7849 H   0  0  0  0  0  0  0  0  0  0  0  0  # atno 8008 bound_to 7997
  155.3945  140.3434  155.4235 H   0  0  0  0  0  0  0  0  0  0  0  0  # atno 8009 bound_to 7997
  156.1488  140.1552  156.8791 H   0  0  0  0  0  0  0  0  0  0  0  0  # atno 8010 bound_to 7997
  140.5137  143.2341  151.7549 H   0  0  0  0  0  0  0  0  0  0  0  0  # atno 10167 bound_to 10162
  156.4322  130.4447  149.7110 H   0  0  0  0  0  0  0  0  0  0  0  0  # atno 10718 bound_to 10713
  153.0549  135.6534  154.0602 H   0  0  0  0  0  0  0  0  0  0  0  0  # atno 10763 bound_to 10752
  154.0282  135.2914  155.3373 H   0  0  0  0  0  0  0  0  0  0  0  0  # atno 10764 bound_to 10752
  154.6858  135.5302  153.8392 H   0  0  0  0  0  0  0  0  0  0  0  0  # atno 10765 bound_to 10752
  140.2154  134.8236  157.3165 H   0  0  0  0  0  0  0  0  0  0  0  0  # atno 11005 bound_to 11000
  145.7615  140.9933  143.1197 LP  0  0  0  0  0  0  0  0  0  0  0  0  # atno 17320 bound_to 7965
  144.6892  139.9336  143.7472 LP  0  0  0  0  0  0  0  0  0  0  0  0  # atno 17321 bound_to 7965
  139.4903  144.4354  151.9825 LP  0  0  0  0  0  0  0  0  0  0  0  0  # atno 17342 bound_to 10162
  140.3447  144.3161  150.5960 LP  0  0  0  0  0  0  0  0  0  0  0  0  # atno 17343 bound_to 10162
  156.4008  130.7674  151.2681 LP  0  0  0  0  0  0  0  0  0  0  0  0  # atno 17370 bound_to 10713
  157.7508  131.0240  150.3859 LP  0  0  0  0  0  0  0  0  0  0  0  0  # atno 17371 bound_to 10713
  140.1906  134.4377  155.7718 LP  0  0  0  0  0  0  0  0  0  0  0  0  # atno 17394 bound_to 11000
  141.2225  133.7025  156.8020 LP  0  0  0  0  0  0  0  0  0  0  0  0  # atno 17395 bound_to 11000

$$$$
