AV-unprocessed.smi:259|AV-procd|sdf|1973|dock6
  -GOLD-   2262021143D 1   1.00000     0.00000
 Structure written by MMmdl.
 54 57  0  0  0  0  0  0  0  0  1 V2000
  147.3011  127.5428  150.6209 C   0  0  0  0  0  0  0  0  0  0  0  0
  147.4466  128.8679  151.2033 N   0  0  0  0  0  0  0  0  0  0  0  0
  146.5597  129.4253  152.0404 C   0  0  0  0  0  0  0  0  0  0  0  0
  145.5266  128.8575  152.3945 O   0  0  0  0  0  0  0  0  0  0  0  0
  146.8877  130.8430  152.5369 C   0  0  0  0  0  0  0  0  0  0  0  0
  146.1396  132.0068  151.8296 C   0  0  1  0  0  0  0  0  0  0  0  0
  146.6904  132.1596  150.5329 O   0  0  0  0  0  0  0  0  0  0  0  0
  144.6112  131.7574  151.7323 C   0  0  0  0  0  0  0  0  0  0  0  0
  143.8453  132.9952  151.2368 C   0  0  0  0  0  0  0  0  0  0  0  0
  144.1870  134.2267  152.0844 C   0  0  0  0  0  0  0  0  0  0  0  0
  145.6279  134.4388  152.0960 N   0  0  0  0  0  0  0  0  0  0  0  0
  145.9866  135.6488  152.5722 C   0  0  0  0  0  0  0  0  0  0  0  0
  145.3433  136.7277  152.0630 N   0  0  0  0  0  0  0  0  0  0  0  0
  145.6551  137.9543  152.4924 C   0  0  0  0  0  0  0  0  0  0  0  0
  146.5569  138.3143  153.4084 N   0  0  0  0  0  0  0  0  0  0  0  0
  147.1968  137.2280  153.9295 C   0  0  0  0  0  0  0  0  0  0  0  0
  146.9744  135.8685  153.5731 C   0  0  0  0  0  0  0  0  0  0  0  0
  147.8044  135.0415  154.3203 N   0  0  0  0  0  0  0  0  0  0  0  0
  148.4837  135.8656  155.0704 C   0  0  0  0  0  0  0  0  0  0  0  0
  148.1767  137.1978  154.9068 N   0  0  0  0  0  0  0  0  0  0  0  0
  148.7730  138.3241  155.6086 C   0  0  0  0  0  0  0  0  0  0  0  0
  149.5455  139.2912  154.6923 C   0  0  0  0  0  0  0  0  0  0  0  0
  148.5340  140.2134  153.9810 C   0  0  0  0  0  0  0  0  0  0  0  0
  149.1644  141.1973  153.1853 O   0  0  0  0  0  0  0  0  0  0  0  0
  150.7667  139.9826  155.3159 C   0  0  0  0  0  0  0  0  0  0  0  0
  151.6451  139.5067  154.2723 O   0  0  0  0  0  0  0  0  0  0  0  0
  150.6023  138.6255  153.7993 C   0  0  0  0  0  0  0  0  0  0  0  0
  146.4304  133.3220  152.5914 C   0  0  0  0  0  0  0  0  0  0  0  0
  148.1712  127.3092  150.0075 H   0  0  0  0  0  0  0  0  0  0  0  0
  146.4139  127.4926  149.9882 H   0  0  0  0  0  0  0  0  0  0  0  0
  147.2182  126.7825  151.3987 H   0  0  0  0  0  0  0  0  0  0  0  0
  148.2698  129.3958  150.9518 H   0  0  0  0  0  0  0  0  0  0  0  0
  146.6730  130.8870  153.6060 H   0  0  0  0  0  0  0  0  0  0  0  0
  147.9654  130.9871  152.4478 H   0  0  0  0  0  0  0  0  0  0  0  0
  147.4733  131.6331  150.4769 H   0  0  0  0  0  0  0  0  0  0  0  0
  144.3941  130.9138  151.0762 H   0  0  0  0  0  0  0  0  0  0  0  0
  144.2300  131.4838  152.7172 H   0  0  0  0  0  0  0  0  0  0  0  0
  144.0951  133.1896  150.1929 H   0  0  0  0  0  0  0  0  0  0  0  0
  142.7717  132.8075  151.2673 H   0  0  0  0  0  0  0  0  0  0  0  0
  143.6810  135.1057  151.6820 H   0  0  0  0  0  0  0  0  0  0  0  0
  143.8314  134.0910  153.1068 H   0  0  0  0  0  0  0  0  0  0  0  0
  145.1031  138.7629  152.0366 H   0  0  0  0  0  0  0  0  0  0  0  0
  149.2314  135.5196  155.7692 H   0  0  0  0  0  0  0  0  0  0  0  0
  147.9702  138.8493  156.1279 H   0  0  0  0  0  0  0  0  0  0  0  0
  149.4252  137.9378  156.3928 H   0  0  0  0  0  0  0  0  0  0  0  0
  147.8674  139.6362  153.3395 H   0  0  0  0  0  0  0  0  0  0  0  0
  147.9057  140.7391  154.7000 H   0  0  0  0  0  0  0  0  0  0  0  0
  149.0470  140.9692  152.2758 H   0  0  0  0  0  0  0  0  0  0  0  0
  150.6994  141.0708  155.3447 H   0  0  0  0  0  0  0  0  0  0  0  0
  151.0545  139.5867  156.2903 H   0  0  0  0  0  0  0  0  0  0  0  0
  150.8071  137.5849  154.0559 H   0  0  0  0  0  0  0  0  0  0  0  0
  150.4187  138.7272  152.7292 H   0  0  0  0  0  0  0  0  0  0  0  0
  146.2039  133.1749  153.6476 H   0  0  0  0  0  0  0  0  0  0  0  0
  147.4913  133.5716  152.5304 H   0  0  0  0  0  0  0  0  0  0  0  0
  1  2  1  0  0  0  0
  1 29  1  0  0  0  0
  1 30  1  0  0  0  0
  1 31  1  0  0  0  0
  2  3  1  0  0  0  0
  2 32  1  0  0  0  0
  3  4  2  0  0  0  0
  3  5  1  0  0  0  0
  5  6  1  0  0  0  0
  5 33  1  0  0  0  0
  5 34  1  0  0  0  0
  6 28  1  0  0  0  0
  6  7  1  0  0  0  0
  6  8  1  0  0  0  0
  7 35  1  0  0  0  0
  8  9  1  0  0  0  0
  8 36  1  0  0  0  0
  8 37  1  0  0  0  0
  9 10  1  0  0  0  0
  9 38  1  0  0  0  0
  9 39  1  0  0  0  0
 10 11  1  0  0  0  0
 10 40  1  0  0  0  0
 10 41  1  0  0  0  0
 11 12  1  0  0  0  0
 11 28  1  0  0  0  0
 12 17  1  0  0  0  0
 12 13  2  0  0  0  0
 13 14  1  0  0  0  0
 14 15  2  0  0  0  0
 14 42  1  0  0  0  0
 15 16  1  0  0  0  0
 16 20  1  0  0  0  0
 16 17  2  0  0  0  0
 17 18  1  0  0  0  0
 18 19  2  0  0  0  0
 19 20  1  0  0  0  0
 19 43  1  0  0  0  0
 20 21  1  0  0  0  0
 21 22  1  0  0  0  0
 21 44  1  0  0  0  0
 21 45  1  0  0  0  0
 22 27  1  0  0  0  0
 22 23  1  0  0  0  0
 22 25  1  0  0  0  0
 23 24  1  0  0  0  0
 23 46  1  0  0  0  0
 23 47  1  0  0  0  0
 24 48  1  0  0  0  0
 25 26  1  0  0  0  0
 25 49  1  0  0  0  0
 25 50  1  0  0  0  0
 26 27  1  0  0  0  0
 27 51  1  0  0  0  0
 27 52  1  0  0  0  0
 28 53  1  0  0  0  0
 28 54  1  0  0  0  0
M  END
> <s_m_source_file>
AV-unprocessed.smi

> <i_m_source_file_index>
259

> <i_lp_mmshare_version>
43012

> <i_f3d_flags>
0

> <s_epik_input>
W0NIM11bTkhdQyg9TylbQ0gyXVtDQEBdMShbT0hdKVtDSDJdW0NIMl1bQ0gyXU4oW0NIMl0xKWMobltjSF1uMiljKGMyMyluW2NIXW4zW0NIMl1DNChbQ0gyXVtPSF0pW0NIMl1PW0NIMl00

> <s_epik_cmdline>
J2VwaWtfcHl0aG9uJywgJy1waCcsICc3LjAnLCAnLXRuJywgJzgnLCAnLW1hJywgJzIwMCcsICctbWV0YWxfYmluZGluZycsICctaW1hZScsICc8aW5maWxlLm1hZT4nLCAnLW9tYWUnLCAnPG91dGZpbGUubWFlPic=

> <r_lp_tautomer_probability>
1

> <r_epik_Ionization_Penalty>
0.00366363

> <r_epik_Ionization_Penalty_Charging>
0

> <r_epik_Ionization_Penalty_Neutral>
0.00366363

> <r_epik_State_Penalty>
0.00243014

> <r_epik_Charging_Adjusted_Penalty>
0.00243014

> <i_epik_Tot_Q>
0

> <i_epik_Tot_abs_Q>
0

> <r_epik_Metal_State_Penalty>
-0

> <b_epik_Metal_Only>
0

> <s_lp_Force_Field>
OPLS_2005

> <r_lp_Energy>
40.2539

> <b_lp_Chiralities_Consistent>
1

> <s_lp_Variant>
AV-unprocessed.smi:259-1

> <Gold.Version>
5.8.1

> <Gold.Id.Protein>
6NUR|6NUR_protein|mol2

> <Gold.PLP.Fitness>
52.2938

> <Gold.PLP.PLP>
-36.0474

> <Gold.PLP.part.hbond>
-6.0000

> <Gold.PLP.part.metal>
0.0000

> <Gold.PLP.part.buried>
-2.9017

> <Gold.PLP.part.nonpolar>
-28.6437

> <Gold.PLP.part.repulsive>
0.9205

> <Gold.PLP.ligand.clash>
0.0000

> <Gold.PLP.ligand.torsion>
0.9031

> <Gold.PLP.Chemscore.Hbond>
3.8800

> <Gold.PLP.Chemscore.CHOScore>
1.9230

> <Gold.PLP.Chemscore.Metal>
0.0000

> <Gold.Chemscore.Hbonds>
donor molecule, donor type, donor heavy atom, donor atom, acceptor molecule, acceptor atom, score
      L1  H     2    32       P1 10747  1.00
      L1  H     7    35       P1 10747  1.00
      L1  H    24    48       P1  7957  0.86
      P1  H  7989  7998       L1    26  0.75
      L1  C    14    42       P1 10171  0.89
      L1  C    14    42       P1 10175  1.00

> <Gold.PLP.Chemscore.Internal.Correction>
0.6436

> <Gold.Rescore>
     Score         DG    S(hbond)    S(metal)    S(lipo)     H(rot)  DE(clash)    DE(int)     intcor
      7.63     -12.78       2.77        0.00      72.71       4.09       0.38       4.78       ----

> <Gold.Chemscore.Fitness>
7.6261

> <Gold.Chemscore.DG>
-12.7807

> <Gold.Chemscore.ZeroCoef>
-5.4800

> <Gold.Chemscore.Hbond>
2.7740

> <Gold.Chemscore.Metal>
0.0000

> <Gold.Chemscore.Lipo>
72.7146

> <Gold.Chemscore.Internal_Hbond>
0.0000

> <Gold.Chemscore.DEClash>
0.3783

> <Gold.Chemscore.DEInternal>
4.7764

> <Gold.Chemscore.Rot>
4.0906

> <Gold.Chemscore.Internal.Correction>
   9.000000E+99

> <Gold.Chemscore.Hbonds>
donor molecule, donor type, donor heavy atom, donor atom, acceptor molecule, acceptor atom, score
      L1  H     2    32       P1 10747  0.24
      L1  H     7    35       P1 10747  1.00
      L1  H    24    48       P1  7957  0.80
      P1  H  7989  7998       L1    26  0.07

> <Gold.Chemscore.Hbond.Weighted>
-9.2650

> <Gold.Chemscore.Metal.Weighted>
-0.0000

> <Gold.Chemscore.Lipo.Weighted>
-8.5076

> <Gold.Chemscore.Internal_Hbond.Weighted>
0.0000

> <Gold.Chemscore.DEClash.Weighted>
0.3783

> <Gold.Chemscore.DEInternal.Weighted>
4.7764

> <Gold.Chemscore.Rot.Weighted>
10.4719

> <Gold.Chemscore.Internal.Correction.Weighted>
   9.000000E+99

> <Gold.Protein.RotatedTorsions>
[ 6907 6896 6895 6894 ] final  -87.81 input  -60.11 | X-H torsion
[ 7974 7965 7964 7962 ] final  -88.40 input  175.53 | X-H torsion
[ 8008 7997 7996 7995 ] final  173.54 input   59.86 | X-H torsion
[ 10167 10162 10161 10158 ] final   29.35 input  -65.29 | X-H torsion
[ 10718 10713 10712 10709 ] final  125.21 input   66.30 | X-H torsion
[ 10763 10752 10751 10750 ] final  -20.34 input  -60.55 | X-H torsion
[ 11005 11000 10999 10996 ] final  122.21 input  -57.11 | X-H torsion

> <Gold.Protein.ActiveResidues>
 VAL166  LYS551  ARG553  GLY616  TRP617  ASP618  TYR619  PRO620  LYS621  CYS622 
 ASP623  PHE694  ASN695  SER759  ASP760  ASP761  ALA762  ILE779  LEU786  VAL792 
 PHE793  MET794  SER795  GLU796  ALA797  LYS798  CYS799  TRP800  GLU811  SER814 

> <Gold.Protein.RotatedAtoms>
  150.6867  134.2838  159.4638 H   0  0  0  0  0  0  0  0  0  0  0  0  # atno 6907 bound_to 6896
  152.0750  134.9506  160.0583 H   0  0  0  0  0  0  0  0  0  0  0  0  # atno 6908 bound_to 6896
  152.0881  133.4152  159.4568 H   0  0  0  0  0  0  0  0  0  0  0  0  # atno 6909 bound_to 6896
  145.4537  140.9561  143.2008 H   0  0  0  0  0  0  0  0  0  0  0  0  # atno 7974 bound_to 7965
  156.1065  140.1457  156.9397 H   0  0  0  0  0  0  0  0  0  0  0  0  # atno 8008 bound_to 7997
  154.4737  140.0901  156.7254 H   0  0  0  0  0  0  0  0  0  0  0  0  # atno 8009 bound_to 7997
  155.4670  140.3440  155.4322 H   0  0  0  0  0  0  0  0  0  0  0  0  # atno 8010 bound_to 7997
  140.4774  144.0669  150.6255 H   0  0  0  0  0  0  0  0  0  0  0  0  # atno 10167 bound_to 10162
  157.5522  131.1093  150.8683 H   0  0  0  0  0  0  0  0  0  0  0  0  # atno 10718 bound_to 10713
  153.6189  135.6993  153.5318 H   0  0  0  0  0  0  0  0  0  0  0  0  # atno 10763 bound_to 10752
  153.2954  135.4144  155.1204 H   0  0  0  0  0  0  0  0  0  0  0  0  # atno 10764 bound_to 10752
  154.8547  135.3635  154.5729 H   0  0  0  0  0  0  0  0  0  0  0  0  # atno 10765 bound_to 10752
  139.9258  134.9640  156.8074 H   0  0  0  0  0  0  0  0  0  0  0  0  # atno 11005 bound_to 11000
  144.8045  139.6076  143.7057 LP  0  0  0  0  0  0  0  0  0  0  0  0  # atno 17320 bound_to 7965
  146.2490  139.6159  142.9440 LP  0  0  0  0  0  0  0  0  0  0  0  0  # atno 17321 bound_to 7965
  140.3901  143.2757  152.0070 LP  0  0  0  0  0  0  0  0  0  0  0  0  # atno 17342 bound_to 10162
  139.4828  144.6084  151.7479 LP  0  0  0  0  0  0  0  0  0  0  0  0  # atno 17343 bound_to 10162
  156.9205  130.5313  149.5279 LP  0  0  0  0  0  0  0  0  0  0  0  0  # atno 17370 bound_to 10713
  156.0586  130.5643  150.9145 LP  0  0  0  0  0  0  0  0  0  0  0  0  # atno 17371 bound_to 10713
  140.6340  133.9879  155.7675 LP  0  0  0  0  0  0  0  0  0  0  0  0  # atno 17394 bound_to 11000
  141.0815  134.0055  157.3379 LP  0  0  0  0  0  0  0  0  0  0  0  0  # atno 17395 bound_to 11000

$$$$
