AV-unprocessed.smi:1596|AV-procd|sdf|6417|dock3
  -GOLD-   22720 7 53D 1   1.00000     0.00000
 Structure written by MMmdl.
 49 50  0  0  0  0  0  0  0  0  2 V2000
  142.5293  137.6224  153.8443 C   0  0  0  0  0  0  0  0  0  0  0  0
  143.8098  137.4986  154.6835 C   0  0  0  0  0  0  0  0  0  0  0  0
  145.0348  137.6637  153.8969 N   0  0  0  0  0  0  0  0  0  0  0  0
  145.3185  136.7310  152.8060 C   0  0  0  0  0  0  0  0  0  0  0  0
  144.3938  135.5044  152.7990 C   0  0  0  0  0  0  0  0  0  0  0  0
  146.0149  138.6015  154.3056 C   0  0  0  0  0  0  0  0  0  0  0  0
  147.1487  138.2622  155.0865 C   0  0  0  0  0  0  0  0  0  0  0  0
  148.0787  139.2576  155.4506 C   0  0  0  0  0  0  0  0  0  0  0  0
  147.8852  140.5885  155.0276 C   0  0  0  0  0  0  0  0  0  0  0  0
  148.8396  141.5615  155.4306 N   0  0  0  0  0  0  0  0  0  0  0  0
  149.7393  141.4858  156.4266 C   0  0  0  0  0  0  0  0  0  0  0  0
  149.8551  140.5424  157.2088 O   0  0  0  0  0  0  0  0  0  0  0  0
  150.4998  142.5887  156.4796 N   0  0  0  0  0  0  0  0  0  0  0  0
  151.5628  142.8337  157.4502 C   0  0  2  0  0  0  0  0  0  0  0  0
  151.1040  142.3697  158.8446 C   0  0  0  0  0  0  0  0  0  0  0  0
  152.1737  142.6490  159.9150 C   0  0  0  0  0  0  0  0  0  0  0  0
  152.6049  144.1276  159.9370 C   0  0  2  0  0  0  0  0  0  0  0  0
  151.5545  144.9310  160.4375 O   0  0  0  0  0  0  0  0  0  0  0  0
  153.0222  144.6161  158.5371 C   0  0  0  0  0  0  0  0  0  0  0  0
  151.9484  144.3271  157.4737 C   0  0  0  0  0  0  0  0  0  0  0  0
  146.7352  140.8826  154.2587 C   0  0  0  0  0  0  0  0  0  0  0  0
  145.8697  139.8979  153.9353 N   0  3  0  0  0  0  0  0  0  0  0  0
  141.6488  137.4607  154.4661 H   0  0  0  0  0  0  0  0  0  0  0  0
  142.5024  136.8869  153.0401 H   0  0  0  0  0  0  0  0  0  0  0  0
  142.4332  138.6111  153.3980 H   0  0  0  0  0  0  0  0  0  0  0  0
  143.7909  138.2529  155.4705 H   0  0  0  0  0  0  0  0  0  0  0  0
  143.8253  136.5411  155.2050 H   0  0  0  0  0  0  0  0  0  0  0  0
  145.2085  137.2583  151.8579 H   0  0  0  0  0  0  0  0  0  0  0  0
  146.3632  136.4227  152.8383 H   0  0  0  0  0  0  0  0  0  0  0  0
  144.6682  134.8246  151.9924 H   0  0  0  0  0  0  0  0  0  0  0  0
  143.3535  135.7864  152.6439 H   0  0  0  0  0  0  0  0  0  0  0  0
  144.4537  134.9463  153.7334 H   0  0  0  0  0  0  0  0  0  0  0  0
  147.3253  137.2522  155.4227 H   0  0  0  0  0  0  0  0  0  0  0  0
  148.9389  138.9942  156.0488 H   0  0  0  0  0  0  0  0  0  0  0  0
  148.8098  142.4353  154.9257 H   0  0  0  0  0  0  0  0  0  0  0  0
  150.3336  143.3160  155.7995 H   0  0  0  0  0  0  0  0  0  0  0  0
  152.4393  142.2465  157.1687 H   0  0  0  0  0  0  0  0  0  0  0  0
  150.1770  142.8763  159.1173 H   0  0  0  0  0  0  0  0  0  0  0  0
  150.8766  141.3032  158.8272 H   0  0  0  0  0  0  0  0  0  0  0  0
  151.8093  142.3470  160.8976 H   0  0  0  0  0  0  0  0  0  0  0  0
  153.0468  142.0278  159.7114 H   0  0  0  0  0  0  0  0  0  0  0  0
  153.4465  144.2429  160.6208 H   0  0  0  0  0  0  0  0  0  0  0  0
  151.5450  145.7454  159.9581 H   0  0  0  0  0  0  0  0  0  0  0  0
  153.2503  145.6823  158.5597 H   0  0  0  0  0  0  0  0  0  0  0  0
  153.9467  144.1145  158.2480 H   0  0  0  0  0  0  0  0  0  0  0  0
  152.3177  144.6372  156.4956 H   0  0  0  0  0  0  0  0  0  0  0  0
  151.0645  144.9345  157.6735 H   0  0  0  0  0  0  0  0  0  0  0  0
  146.4603  141.8623  153.8979 H   0  0  0  0  0  0  0  0  0  0  0  0
  145.0520  140.1479  153.3788 H   0  0  0  0  0  0  0  0  0  0  0  0
  1  2  1  0  0  0  0
  1 23  1  0  0  0  0
  1 24  1  0  0  0  0
  1 25  1  0  0  0  0
  2  3  1  0  0  0  0
  2 26  1  0  0  0  0
  2 27  1  0  0  0  0
  3  4  1  0  0  0  0
  3  6  1  0  0  0  0
  4  5  1  0  0  0  0
  4 28  1  0  0  0  0
  4 29  1  0  0  0  0
  5 30  1  0  0  0  0
  5 31  1  0  0  0  0
  5 32  1  0  0  0  0
  6 22  1  0  0  0  0
  6  7  2  0  0  0  0
  7  8  1  0  0  0  0
  7 33  1  0  0  0  0
  8  9  2  0  0  0  0
  8 34  1  0  0  0  0
  9 10  1  0  0  0  0
  9 21  1  0  0  0  0
 10 11  1  0  0  0  0
 10 35  1  0  0  0  0
 11 12  2  0  0  0  0
 11 13  1  0  0  0  0
 13 14  1  0  0  0  0
 13 36  1  0  0  0  0
 14 20  1  0  0  0  0
 14 15  1  0  0  0  0
 14 37  1  0  0  0  0
 15 16  1  0  0  0  0
 15 38  1  0  0  0  0
 15 39  1  0  0  0  0
 16 17  1  0  0  0  0
 16 40  1  0  0  0  0
 16 41  1  0  0  0  0
 17 18  1  0  0  0  0
 17 19  1  0  0  0  0
 17 42  1  0  0  0  0
 18 43  1  0  0  0  0
 19 20  1  0  0  0  0
 19 44  1  0  0  0  0
 19 45  1  0  0  0  0
 20 46  1  0  0  0  0
 20 47  1  0  0  0  0
 21 22  2  0  0  0  0
 21 48  1  0  0  0  0
 22 49  1  0  0  0  0
M  CHG  1  22   1
M  END
> <s_m_source_file>
AV-unprocessed.smi

> <i_m_source_file_index>
1596

> <i_lp_mmshare_version>
43012

> <i_f3d_flags>
0

> <s_epik_input>
W0NIM11bQ0gyXU4oW0NIMl1bQ0gzXSljMVtjSF1bY0hdYyhbY0hdbjEpW05IXUMoPU8pW05IXVtDQEBIXTJbQ0gyXVtDSDJdW0NAQEhdKFtPSF0pW0NIMl1bQ0gyXTI=

> <s_epik_cmdline>
J2VwaWtfcHl0aG9uJywgJy1waCcsICc3LjAnLCAnLXRuJywgJzgnLCAnLW1hJywgJzIwMCcsICctbWV0YWxfYmluZGluZycsICctaW1hZScsICc8aW5maWxlLm1hZT4nLCAnLW9tYWUnLCAnPG91dGZpbGUubWFlPic=

> <r_lp_tautomer_probability>
0.999994

> <r_epik_Ionization_Penalty>
0.224167

> <r_epik_Ionization_Penalty_Charging>
0.224146

> <r_epik_Ionization_Penalty_Neutral>
2.1696e-05

> <r_epik_State_Penalty>
0.0144855

> <r_epik_Charging_Adjusted_Penalty>
0.238631

> <i_epik_Tot_Q>
1

> <i_epik_Tot_abs_Q>
1

> <r_epik_Metal_State_Penalty>
0.0446449

> <b_epik_Metal_Only>
0

> <s_lp_Force_Field>
OPLS_2005

> <r_lp_Energy>
23.6459

> <b_lp_Chiralities_Consistent>
1

> <s_lp_Variant>
AV-unprocessed.smi:1596-2

> <Gold.Version>
5.8.1

> <Gold.Id.Protein>
6NUR|6NUR_protein|mol2

> <Gold.PLP.Fitness>
51.0000

> <Gold.PLP.PLP>
-43.1067

> <Gold.PLP.part.hbond>
-3.0777

> <Gold.PLP.part.metal>
0.0000

> <Gold.PLP.part.buried>
-1.2069

> <Gold.PLP.part.nonpolar>
-39.2847

> <Gold.PLP.part.repulsive>
0.2560

> <Gold.PLP.ligand.clash>
0.0000

> <Gold.PLP.ligand.torsion>
1.9771

> <Gold.PLP.Chemscore.Hbond>
3.9120

> <Gold.PLP.Chemscore.CHOScore>
0.0000

> <Gold.PLP.Chemscore.Metal>
0.0000

> <Gold.Chemscore.Hbonds>
donor molecule, donor type, donor heavy atom, donor atom, acceptor molecule, acceptor atom, score
      L1  H    10    35       P1  8028  0.07
      L1  H    13    36       P1  8028  0.66
      L1  H    22    49       P1 10175  2.00

> <Gold.PLP.Chemscore.Internal.Correction>
0.1115

> <Gold.Rescore>
     Score         DG    S(hbond)    S(metal)    S(lipo)     H(rot)  DE(clash)    DE(int)     intcor
     18.86     -23.82       2.76        0.00     118.01       1.83       1.84       3.12       ----

> <Gold.Chemscore.Fitness>
18.8605

> <Gold.Chemscore.DG>
-23.8210

> <Gold.Chemscore.ZeroCoef>
-5.4800

> <Gold.Chemscore.Hbond>
2.7613

> <Gold.Chemscore.Metal>
0.0000

> <Gold.Chemscore.Lipo>
118.0128

> <Gold.Chemscore.Internal_Hbond>
0.0000

> <Gold.Chemscore.DEClash>
1.8412

> <Gold.Chemscore.DEInternal>
3.1193

> <Gold.Chemscore.Rot>
1.8317

> <Gold.Chemscore.Internal.Correction>
   9.000000E+99

> <Gold.Chemscore.Hbonds>
donor molecule, donor type, donor heavy atom, donor atom, acceptor molecule, acceptor atom, score
      L1  H    10    35       P1  8028  0.09
      L1  H    13    36       P1  8028  0.60
      L1  H    22    49       P1 10175  1.00

> <Gold.Chemscore.Hbond.Weighted>
-9.2226

> <Gold.Chemscore.Metal.Weighted>
-0.0000

> <Gold.Chemscore.Lipo.Weighted>
-13.8075

> <Gold.Chemscore.Internal_Hbond.Weighted>
0.0000

> <Gold.Chemscore.DEClash.Weighted>
1.8412

> <Gold.Chemscore.DEInternal.Weighted>
3.1193

> <Gold.Chemscore.Rot.Weighted>
4.6892

> <Gold.Chemscore.Internal.Correction.Weighted>
   9.000000E+99

> <Gold.Protein.RotatedTorsions>
[ 6907 6896 6895 6894 ] final  -71.50 input  -60.11 | X-H torsion
[ 7974 7965 7964 7962 ] final   63.93 input  175.53 | X-H torsion
[ 8008 7997 7996 7995 ] final   76.48 input   59.86 | X-H torsion
[ 10167 10162 10161 10158 ] final   35.22 input  -65.29 | X-H torsion
[ 10718 10713 10712 10709 ] final  -14.40 input   66.30 | X-H torsion
[ 10763 10752 10751 10750 ] final  143.47 input  -60.55 | X-H torsion
[ 11005 11000 10999 10996 ] final  -90.92 input  -57.11 | X-H torsion

> <Gold.Protein.ActiveResidues>
 VAL166  LYS551  ARG553  GLY616  TRP617  ASP618  TYR619  PRO620  LYS621  CYS622 
 ASP623  PHE694  ASN695  SER759  ASP760  ASP761  ALA762  ILE779  LEU786  VAL792 
 PHE793  MET794  SER795  GLU796  ALA797  LYS798  CYS799  TRP800  GLU811  SER814 

> <Gold.Protein.RotatedAtoms>
  150.7210  134.5299  159.5694 H   0  0  0  0  0  0  0  0  0  0  0  0  # atno 6907 bound_to 6896
  152.2835  134.7799  160.0401 H   0  0  0  0  0  0  0  0  0  0  0  0  # atno 6908 bound_to 6896
  151.8437  133.3392  159.3688 H   0  0  0  0  0  0  0  0  0  0  0  0  # atno 6909 bound_to 6896
  145.8561  139.3284  143.0847 H   0  0  0  0  0  0  0  0  0  0  0  0  # atno 7974 bound_to 7965
  155.8280  140.3467  155.5554 H   0  0  0  0  0  0  0  0  0  0  0  0  # atno 8008 bound_to 7997
  155.8273  140.0922  157.1834 H   0  0  0  0  0  0  0  0  0  0  0  0  # atno 8009 bound_to 7997
  154.4004  140.1419  156.3558 H   0  0  0  0  0  0  0  0  0  0  0  0  # atno 8010 bound_to 7997
  140.4242  144.1417  150.6151 H   0  0  0  0  0  0  0  0  0  0  0  0  # atno 10167 bound_to 10162
  156.6164  130.4863  149.6181 H   0  0  0  0  0  0  0  0  0  0  0  0  # atno 10718 bound_to 10713
  153.9729  135.2949  155.3426 H   0  0  0  0  0  0  0  0  0  0  0  0  # atno 10763 bound_to 10752
  154.7312  135.5066  153.8970 H   0  0  0  0  0  0  0  0  0  0  0  0  # atno 10764 bound_to 10752
  153.0891  135.6702  154.0002 H   0  0  0  0  0  0  0  0  0  0  0  0  # atno 10765 bound_to 10752
  141.1556  133.7723  156.9806 H   0  0  0  0  0  0  0  0  0  0  0  0  # atno 11005 bound_to 11000
  145.9302  140.9054  143.0360 LP  0  0  0  0  0  0  0  0  0  0  0  0  # atno 17320 bound_to 7965
  144.6727  140.1408  143.7437 LP  0  0  0  0  0  0  0  0  0  0  0  0  # atno 17321 bound_to 7965
  140.4500  143.2491  151.9360 LP  0  0  0  0  0  0  0  0  0  0  0  0  # atno 17342 bound_to 10162
  139.4783  144.5571  151.8296 LP  0  0  0  0  0  0  0  0  0  0  0  0  # atno 17343 bound_to 10162
  156.2347  130.6815  151.1498 LP  0  0  0  0  0  0  0  0  0  0  0  0  # atno 17370 bound_to 10713
  157.7240  131.0663  150.6014 LP  0  0  0  0  0  0  0  0  0  0  0  0  # atno 17371 bound_to 10713
  140.1068  134.9501  157.2006 LP  0  0  0  0  0  0  0  0  0  0  0  0  # atno 17394 bound_to 11000
  140.3246  134.2878  155.7239 LP  0  0  0  0  0  0  0  0  0  0  0  0  # atno 17395 bound_to 11000

$$$$
