AV-unprocessed.smi:1471|AV-procd|sdf|5962|dock8
  -GOLD-   22720 6 53D 1   1.00000     0.00000
 Structure written by MMmdl.
 42 43  0  0  0  0  0  0  0  0  1 V2000
  145.1005  144.7971  152.1551 C   0  0  0  0  0  0  0  0  0  0  0  0
  145.3562  143.9462  153.3694 C   0  0  0  0  0  0  0  0  0  0  0  0
  146.1510  142.9391  153.2157 N   0  0  0  0  0  0  0  0  0  0  0  0
  146.4831  142.1105  154.2718 N   0  0  0  0  0  0  0  0  0  0  0  0
  147.4353  141.0409  153.9231 C   0  0  0  0  0  0  0  0  0  0  0  0
  148.8542  141.2539  154.5031 C   0  0  2  0  0  0  0  0  0  0  0  0
  149.8257  140.8061  153.5809 O   0  0  0  0  0  0  0  0  0  0  0  0
  149.1147  140.5880  155.8664 C   0  0  0  0  0  0  0  0  0  0  0  0
  150.2035  141.2151  156.5297 O   0  0  0  0  0  0  0  0  0  0  0  0
  150.6666  140.5004  157.6671 C   0  0  0  0  0  0  0  0  0  0  0  0
  151.4242  141.3806  158.6488 C   0  0  0  0  0  0  0  0  0  0  0  0
  152.4322  140.8264  159.4667 C   0  0  0  0  0  0  0  0  0  0  0  0
  153.1413  141.6404  160.3710 C   0  0  0  0  0  0  0  0  0  0  0  0
  152.8363  143.0108  160.4728 C   0  0  0  0  0  0  0  0  0  0  0  0
  151.8237  143.5661  159.6679 C   0  0  0  0  0  0  0  0  0  0  0  0
  151.1233  142.7564  158.7525 C   0  0  0  0  0  0  0  0  0  0  0  0
  150.1647  143.3086  157.9707 F   0  0  0  0  0  0  0  0  0  0  0  0
  145.9763  142.2304  155.5338 C   0  0  0  0  0  0  0  0  0  0  0  0
  146.2681  141.4595  156.4489 O   0  0  0  0  0  0  0  0  0  0  0  0
  145.0597  143.3613  155.6952 C   0  0  0  0  0  0  0  0  0  0  0  0
  144.5099  143.5228  157.0026 C   0  0  0  0  0  0  0  0  0  0  0  0
  144.0813  143.6414  158.0715 N   0  0  0  0  0  0  0  0  0  0  0  0
  144.7595  144.2023  154.6748 C   0  0  0  0  0  0  0  0  0  0  0  0
  143.8297  145.4015  154.7974 C   0  0  0  0  0  0  0  0  0  0  0  0
  144.0502  144.7537  151.8669 H   0  0  0  0  0  0  0  0  0  0  0  0
  145.6920  144.4710  151.2981 H   0  0  0  0  0  0  0  0  0  0  0  0
  145.3560  145.8384  152.3513 H   0  0  0  0  0  0  0  0  0  0  0  0
  147.0802  140.0633  154.2520 H   0  0  0  0  0  0  0  0  0  0  0  0
  147.4926  140.9760  152.8356 H   0  0  0  0  0  0  0  0  0  0  0  0
  149.0290  142.3241  154.6186 H   0  0  0  0  0  0  0  0  0  0  0  0
  149.4276  140.1564  153.0215 H   0  0  0  0  0  0  0  0  0  0  0  0
  148.2192  140.6143  156.4897 H   0  0  0  0  0  0  0  0  0  0  0  0
  149.3449  139.5363  155.6986 H   0  0  0  0  0  0  0  0  0  0  0  0
  149.7972  140.0831  158.1754 H   0  0  0  0  0  0  0  0  0  0  0  0
  151.2765  139.6455  157.3698 H   0  0  0  0  0  0  0  0  0  0  0  0
  152.6696  139.7750  159.3971 H   0  0  0  0  0  0  0  0  0  0  0  0
  153.9171  141.2132  160.9891 H   0  0  0  0  0  0  0  0  0  0  0  0
  153.3783  143.6358  161.1671 H   0  0  0  0  0  0  0  0  0  0  0  0
  151.5907  144.6179  159.7444 H   0  0  0  0  0  0  0  0  0  0  0  0
  143.4033  145.4933  155.7958 H   0  0  0  0  0  0  0  0  0  0  0  0
  143.0008  145.3189  154.0937 H   0  0  0  0  0  0  0  0  0  0  0  0
  144.3706  146.3246  154.5870 H   0  0  0  0  0  0  0  0  0  0  0  0
  1  2  1  0  0  0  0
  1 25  1  0  0  0  0
  1 26  1  0  0  0  0
  1 27  1  0  0  0  0
  2 23  1  0  0  0  0
  2  3  2  0  0  0  0
  3  4  1  0  0  0  0
  4  5  1  0  0  0  0
  4 18  1  0  0  0  0
  5  6  1  0  0  0  0
  5 28  1  0  0  0  0
  5 29  1  0  0  0  0
  6  7  1  0  0  0  0
  6  8  1  0  0  0  0
  6 30  1  0  0  0  0
  7 31  1  0  0  0  0
  8  9  1  0  0  0  0
  8 32  1  0  0  0  0
  8 33  1  0  0  0  0
  9 10  1  0  0  0  0
 10 11  1  0  0  0  0
 10 34  1  0  0  0  0
 10 35  1  0  0  0  0
 11 16  1  0  0  0  0
 11 12  2  0  0  0  0
 12 13  1  0  0  0  0
 12 36  1  0  0  0  0
 13 14  2  0  0  0  0
 13 37  1  0  0  0  0
 14 15  1  0  0  0  0
 14 38  1  0  0  0  0
 15 16  2  0  0  0  0
 15 39  1  0  0  0  0
 16 17  1  0  0  0  0
 18 19  2  0  0  0  0
 18 20  1  0  0  0  0
 20 21  1  0  0  0  0
 20 23  2  0  0  0  0
 21 22  3  0  0  0  0
 23 24  1  0  0  0  0
 24 40  1  0  0  0  0
 24 41  1  0  0  0  0
 24 42  1  0  0  0  0
M  END
> <s_m_source_file>
AV-unprocessed.smi

> <i_m_source_file_index>
1471

> <i_lp_mmshare_version>
43012

> <i_f3d_flags>
0

> <s_epik_input>
TiNDYyhjMVtDSDNdKWMoPU8pbihuYzFbQ0gzXSlbQ0gyXVtDQEhdKFtPSF0pW0NIMl1PW0NIMl1jMltjSF1bY0hdW2NIXVtjSF1jMkY=

> <s_epik_cmdline>
J2VwaWtfcHl0aG9uJywgJy1waCcsICc3LjAnLCAnLXRuJywgJzgnLCAnLW1hJywgJzIwMCcsICctbWV0YWxfYmluZGluZycsICctaW1hZScsICc8aW5maWxlLm1hZT4nLCAnLW9tYWUnLCAnPG91dGZpbGUubWFlPic=

> <r_lp_tautomer_probability>
1

> <r_epik_Ionization_Penalty>
6.13319e-08

> <r_epik_Ionization_Penalty_Charging>
2.19172e-10

> <r_epik_Ionization_Penalty_Neutral>
6.11128e-08

> <r_epik_State_Penalty>
-0

> <r_epik_Charging_Adjusted_Penalty>
2.19172e-10

> <i_epik_Tot_Q>
0

> <i_epik_Tot_abs_Q>
0

> <r_epik_Metal_State_Penalty>
-0

> <b_epik_Metal_Only>
0

> <s_lp_Force_Field>
OPLS_2005

> <r_lp_Energy>
27.5477

> <b_lp_Chiralities_Consistent>
1

> <s_lp_Variant>
AV-unprocessed.smi:1471-1

> <Gold.Version>
5.8.1

> <Gold.Id.Protein>
6NUR|6NUR_protein|mol2

> <Gold.PLP.Fitness>
49.9568

> <Gold.PLP.PLP>
-46.8668

> <Gold.PLP.part.hbond>
-2.3920

> <Gold.PLP.part.metal>
0.0000

> <Gold.PLP.part.buried>
-6.1634

> <Gold.PLP.part.nonpolar>
-38.0417

> <Gold.PLP.part.repulsive>
0.3154

> <Gold.PLP.ligand.clash>
0.0000

> <Gold.PLP.ligand.torsion>
1.2940

> <Gold.PLP.Chemscore.Hbond>
1.8640

> <Gold.PLP.Chemscore.CHOScore>
0.0000

> <Gold.PLP.Chemscore.Metal>
0.0000

> <Gold.Chemscore.Hbonds>
donor molecule, donor type, donor heavy atom, donor atom, acceptor molecule, acceptor atom, score
      L1  H     7    31       P1  7957  0.51
      P1  H  7989  7998       L1     7  0.38
      P1  H  8011  8017       L1     7  0.94

> <Gold.PLP.Chemscore.Internal.Correction>
0.0861

> <Gold.Rescore>
     Score         DG    S(hbond)    S(metal)    S(lipo)     H(rot)  DE(clash)    DE(int)     intcor
     12.19     -15.74       0.99        0.00     117.44       2.65       0.31       3.24       ----

> <Gold.Chemscore.Fitness>
12.1936

> <Gold.Chemscore.DG>
-15.7361

> <Gold.Chemscore.ZeroCoef>
-5.4800

> <Gold.Chemscore.Hbond>
0.9857

> <Gold.Chemscore.Metal>
0.0000

> <Gold.Chemscore.Lipo>
117.4366

> <Gold.Chemscore.Internal_Hbond>
0.0000

> <Gold.Chemscore.DEClash>
0.3056

> <Gold.Chemscore.DEInternal>
3.2368

> <Gold.Chemscore.Rot>
2.6470

> <Gold.Chemscore.Internal.Correction>
   9.000000E+99

> <Gold.Chemscore.Hbonds>
donor molecule, donor type, donor heavy atom, donor atom, acceptor molecule, acceptor atom, score
      L1  H     7    31       P1  7957  0.52
      P1  H  7989  7998       L1     7  0.34
      P1  H  8011  8017       L1     7  0.05

> <Gold.Chemscore.Hbond.Weighted>
-3.2922

> <Gold.Chemscore.Metal.Weighted>
-0.0000

> <Gold.Chemscore.Lipo.Weighted>
-13.7401

> <Gold.Chemscore.Internal_Hbond.Weighted>
0.0000

> <Gold.Chemscore.DEClash.Weighted>
0.3056

> <Gold.Chemscore.DEInternal.Weighted>
3.2368

> <Gold.Chemscore.Rot.Weighted>
6.7762

> <Gold.Chemscore.Internal.Correction.Weighted>
   9.000000E+99

> <Gold.Protein.RotatedTorsions>
[ 6907 6896 6895 6894 ] final   22.50 input  -60.11 | X-H torsion
[ 7974 7965 7964 7962 ] final -152.57 input  175.53 | X-H torsion
[ 8008 7997 7996 7995 ] final -102.41 input   59.86 | X-H torsion
[ 10167 10162 10161 10158 ] final   93.79 input  -65.29 | X-H torsion
[ 10718 10713 10712 10709 ] final  145.12 input   66.30 | X-H torsion
[ 10763 10752 10751 10750 ] final  -40.92 input  -60.55 | X-H torsion
[ 11005 11000 10999 10996 ] final   31.06 input  -57.11 | X-H torsion

> <Gold.Protein.ActiveResidues>
 VAL166  LYS551  ARG553  GLY616  TRP617  ASP618  TYR619  PRO620  LYS621  CYS622 
 ASP623  PHE694  ASN695  SER759  ASP760  ASP761  ALA762  ILE779  LEU786  VAL792 
 PHE793  MET794  SER795  GLU796  ALA797  LYS798  CYS799  TRP800  GLU811  SER814 

> <Gold.Protein.RotatedAtoms>
  151.9281  135.0269  160.0526 H   0  0  0  0  0  0  0  0  0  0  0  0  # atno 6907 bound_to 6896
  152.2142  133.4929  159.5135 H   0  0  0  0  0  0  0  0  0  0  0  0  # atno 6908 bound_to 6896
  150.6983  134.1344  159.4124 H   0  0  0  0  0  0  0  0  0  0  0  0  # atno 6909 bound_to 6896
  144.7787  140.4644  143.5855 H   0  0  0  0  0  0  0  0  0  0  0  0  # atno 7974 bound_to 7965
  154.8562  140.0428  157.1636 H   0  0  0  0  0  0  0  0  0  0  0  0  # atno 8008 bound_to 7997
  154.8889  140.2983  155.5361 H   0  0  0  0  0  0  0  0  0  0  0  0  # atno 8009 bound_to 7997
  156.2997  140.2397  156.3902 H   0  0  0  0  0  0  0  0  0  0  0  0  # atno 8010 bound_to 7997
  139.8146  144.6758  150.9597 H   0  0  0  0  0  0  0  0  0  0  0  0  # atno 10167 bound_to 10162
  157.3490  131.0948  151.1016 H   0  0  0  0  0  0  0  0  0  0  0  0  # atno 10718 bound_to 10713
  153.9540  135.6747  153.4744 H   0  0  0  0  0  0  0  0  0  0  0  0  # atno 10763 bound_to 10752
  153.0870  135.4894  154.8614 H   0  0  0  0  0  0  0  0  0  0  0  0  # atno 10764 bound_to 10752
  154.7310  135.3138  154.8851 H   0  0  0  0  0  0  0  0  0  0  0  0  # atno 10765 bound_to 10752
  140.2879  134.2898  155.7783 H   0  0  0  0  0  0  0  0  0  0  0  0  # atno 11005 bound_to 11000
  145.6112  139.1513  143.3075 LP  0  0  0  0  0  0  0  0  0  0  0  0  # atno 17320 bound_to 7965
  146.1982  140.6228  142.9114 LP  0  0  0  0  0  0  0  0  0  0  0  0  # atno 17321 bound_to 7965
  140.7816  143.4151  151.0930 LP  0  0  0  0  0  0  0  0  0  0  0  0  # atno 17342 bound_to 10162
  139.7816  143.8347  152.3138 LP  0  0  0  0  0  0  0  0  0  0  0  0  # atno 17343 bound_to 10162
  157.2199  130.6476  149.5807 LP  0  0  0  0  0  0  0  0  0  0  0  0  # atno 17370 bound_to 10713
  155.9718  130.4632  150.6175 LP  0  0  0  0  0  0  0  0  0  0  0  0  # atno 17371 bound_to 10713
  141.2151  133.7566  156.9579 LP  0  0  0  0  0  0  0  0  0  0  0  0  # atno 17394 bound_to 11000
  140.1223  134.9409  157.2221 LP  0  0  0  0  0  0  0  0  0  0  0  0  # atno 17395 bound_to 11000

$$$$
