AV-unprocessed.smi:558|AV-procd|sdf|2923|dock10
  -GOLD-   2262023413D 1   1.00000     0.00000
 Structure written by MMmdl.
 36 37  0  0  0  0  0  0  0  0  1 V2000
  151.8228  144.2453  158.1143 C   0  0  0  0  0  0  0  0  0  0  0  0
  152.3136  143.5527  159.3511 C   0  0  0  0  0  0  0  0  0  0  0  0
  152.3351  144.0416  160.6870 C   0  0  0  0  0  0  0  0  0  0  0  0
  152.8771  143.0186  161.4129 C   0  0  0  0  0  0  0  0  0  0  0  0
  153.1577  142.9268  162.8774 C   0  0  0  0  0  0  0  0  0  0  0  0
  153.1485  141.9938  160.5219 N   0  0  0  0  0  0  0  0  0  0  0  0
  153.7257  140.6819  160.7717 C   0  0  0  0  0  0  0  0  0  0  0  0
  153.7669  139.8396  159.4952 C   0  0  0  0  0  0  0  0  0  0  0  0
  154.8390  139.6368  158.9262 O   0  0  0  0  0  0  0  0  0  0  0  0
  152.5935  139.3543  159.0605 N   0  0  0  0  0  0  0  0  0  0  0  0
  152.4025  138.5345  157.8686 C   0  0  0  0  0  0  0  0  0  0  0  0
  151.3552  139.1443  156.9189 C   0  0  1  0  0  0  0  0  0  0  0  0
  151.2831  140.6563  156.9770 C   0  0  0  0  0  0  0  0  0  0  0  0
  150.5534  140.9878  155.6787 C   0  0  0  0  0  0  0  0  0  0  0  0
  150.9192  139.9669  154.7545 O   0  0  0  0  0  0  0  0  0  0  0  0
  151.6215  138.9265  155.4282 C   0  0  0  0  0  0  0  0  0  0  0  0
  152.8020  142.3272  159.2593 N   0  0  0  0  0  0  0  0  0  0  0  0
  151.5068  145.2655  158.3330 H   0  0  0  0  0  0  0  0  0  0  0  0
  150.9709  143.7196  157.6826 H   0  0  0  0  0  0  0  0  0  0  0  0
  152.6041  144.2959  157.3556 H   0  0  0  0  0  0  0  0  0  0  0  0
  152.0022  145.0001  161.0569 H   0  0  0  0  0  0  0  0  0  0  0  0
  153.0327  143.8973  163.3576 H   0  0  0  0  0  0  0  0  0  0  0  0
  154.1787  142.5939  163.0637 H   0  0  0  0  0  0  0  0  0  0  0  0
  152.4760  142.2262  163.3595 H   0  0  0  0  0  0  0  0  0  0  0  0
  154.7382  140.8015  161.1611 H   0  0  0  0  0  0  0  0  0  0  0  0
  153.1498  140.1775  161.5483 H   0  0  0  0  0  0  0  0  0  0  0  0
  151.7662  139.5735  159.5959 H   0  0  0  0  0  0  0  0  0  0  0  0
  153.3630  138.4701  157.3568 H   0  0  0  0  0  0  0  0  0  0  0  0
  152.1323  137.5116  158.1364 H   0  0  0  0  0  0  0  0  0  0  0  0
  150.3692  138.7438  157.1609 H   0  0  0  0  0  0  0  0  0  0  0  0
  150.7646  141.0279  157.8613 H   0  0  0  0  0  0  0  0  0  0  0  0
  152.2855  141.0868  156.9622 H   0  0  0  0  0  0  0  0  0  0  0  0
  149.4739  140.9478  155.8291 H   0  0  0  0  0  0  0  0  0  0  0  0
  150.8059  141.9787  155.3004 H   0  0  0  0  0  0  0  0  0  0  0  0
  152.6845  139.0310  155.2060 H   0  0  0  0  0  0  0  0  0  0  0  0
  151.3001  137.9430  155.0842 H   0  0  0  0  0  0  0  0  0  0  0  0
  1  2  1  0  0  0  0
  1 18  1  0  0  0  0
  1 19  1  0  0  0  0
  1 20  1  0  0  0  0
  2 17  2  0  0  0  0
  2  3  1  0  0  0  0
  3  4  2  0  0  0  0
  3 21  1  0  0  0  0
  4  5  1  0  0  0  0
  4  6  1  0  0  0  0
  5 22  1  0  0  0  0
  5 23  1  0  0  0  0
  5 24  1  0  0  0  0
  6  7  1  0  0  0  0
  6 17  1  0  0  0  0
  7  8  1  0  0  0  0
  7 25  1  0  0  0  0
  7 26  1  0  0  0  0
  8  9  2  0  0  0  0
  8 10  1  0  0  0  0
 10 11  1  0  0  0  0
 10 27  1  0  0  0  0
 11 12  1  0  0  0  0
 11 28  1  0  0  0  0
 11 29  1  0  0  0  0
 12 16  1  0  0  0  0
 12 13  1  0  0  0  0
 12 30  1  0  0  0  0
 13 14  1  0  0  0  0
 13 31  1  0  0  0  0
 13 32  1  0  0  0  0
 14 15  1  0  0  0  0
 14 33  1  0  0  0  0
 14 34  1  0  0  0  0
 15 16  1  0  0  0  0
 16 35  1  0  0  0  0
 16 36  1  0  0  0  0
M  END
> <s_m_source_file>
AV-unprocessed.smi

> <i_m_source_file_index>
558

> <i_lp_mmshare_version>
43012

> <i_f3d_flags>
0

> <s_epik_input>
W0NIM11jMVtjSF1jKFtDSDNdKW4objEpW0NIMl1DKD1PKVtOSF1bQ0gyXVtDQEBIXTJbQ0gyXVtDSDJdT1tDSDJdMg==

> <s_epik_cmdline>
J2VwaWtfcHl0aG9uJywgJy1waCcsICc3LjAnLCAnLXRuJywgJzgnLCAnLW1hJywgJzIwMCcsICctbWV0YWxfYmluZGluZycsICctaW1hZScsICc8aW5maWxlLm1hZT4nLCAnLW9tYWUnLCAnPG91dGZpbGUubWFlPic=

> <r_lp_tautomer_probability>
1

> <r_epik_Ionization_Penalty>
0.000376629

> <r_epik_Ionization_Penalty_Charging>
0

> <r_epik_Ionization_Penalty_Neutral>
0.000376629

> <r_epik_State_Penalty>
-0

> <r_epik_Charging_Adjusted_Penalty>
0

> <i_epik_Tot_Q>
0

> <i_epik_Tot_abs_Q>
0

> <r_epik_Metal_State_Penalty>
-0

> <b_epik_Metal_Only>
0

> <s_lp_Force_Field>
OPLS_2005

> <r_lp_Energy>
17.6381

> <b_lp_Chiralities_Consistent>
1

> <s_lp_Variant>
AV-unprocessed.smi:558-2

> <Gold.Version>
5.8.1

> <Gold.Id.Protein>
6NUR|6NUR_protein|mol2

> <Gold.PLP.Fitness>
46.8480

> <Gold.PLP.PLP>
-42.0281

> <Gold.PLP.part.hbond>
-2.0000

> <Gold.PLP.part.metal>
0.0000

> <Gold.PLP.part.buried>
-4.7752

> <Gold.PLP.part.nonpolar>
-35.3616

> <Gold.PLP.part.repulsive>
0.1725

> <Gold.PLP.ligand.clash>
0.0000

> <Gold.PLP.ligand.torsion>
0.5934

> <Gold.PLP.Chemscore.Hbond>
2.0000

> <Gold.PLP.Chemscore.CHOScore>
0.0000

> <Gold.PLP.Chemscore.Metal>
0.0000

> <Gold.Chemscore.Hbonds>
donor molecule, donor type, donor heavy atom, donor atom, acceptor molecule, acceptor atom, score
      P1  H  7989  7998       L1    15  1.00
      P1  H  7997  8010       L1     9  1.00

> <Gold.PLP.Chemscore.Internal.Correction>
0.0067

> <Gold.Rescore>
     Score         DG    S(hbond)    S(metal)    S(lipo)     H(rot)  DE(clash)    DE(int)     intcor
     18.98     -19.90       1.90        0.00     102.52       1.54       0.08       0.84       ----

> <Gold.Chemscore.Fitness>
18.9847

> <Gold.Chemscore.DG>
-19.8982

> <Gold.Chemscore.ZeroCoef>
-5.4800

> <Gold.Chemscore.Hbond>
1.9049

> <Gold.Chemscore.Metal>
0.0000

> <Gold.Chemscore.Lipo>
102.5217

> <Gold.Chemscore.Internal_Hbond>
0.0000

> <Gold.Chemscore.DEClash>
0.0777

> <Gold.Chemscore.DEInternal>
0.8358

> <Gold.Chemscore.Rot>
1.5387

> <Gold.Chemscore.Internal.Correction>
   9.000000E+99

> <Gold.Chemscore.Hbonds>
donor molecule, donor type, donor heavy atom, donor atom, acceptor molecule, acceptor atom, score
      P1  H  7989  7998       L1    15  0.34
      P1  H  7997  8010       L1     9  1.00

> <Gold.Chemscore.Hbond.Weighted>
-6.3623

> <Gold.Chemscore.Metal.Weighted>
-0.0000

> <Gold.Chemscore.Lipo.Weighted>
-11.9950

> <Gold.Chemscore.Internal_Hbond.Weighted>
0.0000

> <Gold.Chemscore.DEClash.Weighted>
0.0777

> <Gold.Chemscore.DEInternal.Weighted>
0.8358

> <Gold.Chemscore.Rot.Weighted>
3.9392

> <Gold.Chemscore.Internal.Correction.Weighted>
   9.000000E+99

> <Gold.Protein.RotatedTorsions>
[ 6907 6896 6895 6894 ] final -122.02 input  -60.11 | X-H torsion
[ 7974 7965 7964 7962 ] final -113.17 input  175.53 | X-H torsion
[ 8008 7997 7996 7995 ] final   -7.09 input   59.86 | X-H torsion
[ 10167 10162 10161 10158 ] final   -0.37 input  -65.29 | X-H torsion
[ 10718 10713 10712 10709 ] final   26.59 input   66.30 | X-H torsion
[ 10763 10752 10751 10750 ] final -102.19 input  -60.55 | X-H torsion
[ 11005 11000 10999 10996 ] final  -12.22 input  -57.11 | X-H torsion

> <Gold.Protein.ActiveResidues>
 VAL166  LYS551  ARG553  GLY616  TRP617  ASP618  TYR619  PRO620  LYS621  CYS622 
 ASP623  PHE694  ASN695  SER759  ASP760  ASP761  ALA762  ILE779  LEU786  VAL792 
 PHE793  MET794  SER795  GLU796  ALA797  LYS798  CYS799  TRP800  GLU811  SER814 

> <Gold.Protein.RotatedAtoms>
  150.8537  133.7747  159.3016 H   0  0  0  0  0  0  0  0  0  0  0  0  # atno 6907 bound_to 6896
  151.5411  135.1067  159.9936 H   0  0  0  0  0  0  0  0  0  0  0  0  # atno 6908 bound_to 6896
  152.4573  133.7706  159.6852 H   0  0  0  0  0  0  0  0  0  0  0  0  # atno 6909 bound_to 6896
  145.1352  140.8747  143.3734 H   0  0  0  0  0  0  0  0  0  0  0  0  # atno 7974 bound_to 7965
  154.5872  140.2416  155.7970 H   0  0  0  0  0  0  0  0  0  0  0  0  # atno 8008 bound_to 7997
  156.2222  140.2994  155.9934 H   0  0  0  0  0  0  0  0  0  0  0  0  # atno 8009 bound_to 7997
  155.2436  140.0408  157.2968 H   0  0  0  0  0  0  0  0  0  0  0  0  # atno 8010 bound_to 7997
  140.6764  143.6902  150.8034 H   0  0  0  0  0  0  0  0  0  0  0  0  # atno 10167 bound_to 10162
  157.2088  130.6924  149.6220 H   0  0  0  0  0  0  0  0  0  0  0  0  # atno 10718 bound_to 10713
  154.7715  135.4870  153.9658 H   0  0  0  0  0  0  0  0  0  0  0  0  # atno 10763 bound_to 10752
  153.1374  135.6765  153.9089 H   0  0  0  0  0  0  0  0  0  0  0  0  # atno 10764 bound_to 10752
  153.8774  135.3136  155.3422 H   0  0  0  0  0  0  0  0  0  0  0  0  # atno 10765 bound_to 10752
  140.7635  133.8496  155.9145 H   0  0  0  0  0  0  0  0  0  0  0  0  # atno 11005 bound_to 11000
  145.0591  139.3119  143.5889 LP  0  0  0  0  0  0  0  0  0  0  0  0  # atno 17320 bound_to 7965
  146.3510  140.0027  142.8674 LP  0  0  0  0  0  0  0  0  0  0  0  0  # atno 17321 bound_to 7965
  140.0596  143.5168  152.2634 LP  0  0  0  0  0  0  0  0  0  0  0  0  # atno 17342 bound_to 10162
  139.6060  144.7596  151.3062 LP  0  0  0  0  0  0  0  0  0  0  0  0  # atno 17343 bound_to 10162
  155.9692  130.4558  150.5901 LP  0  0  0  0  0  0  0  0  0  0  0  0  # atno 17370 bound_to 10713
  157.3693  131.0763  151.1571 LP  0  0  0  0  0  0  0  0  0  0  0  0  # atno 17371 bound_to 10713
  140.9641  134.1617  157.4630 LP  0  0  0  0  0  0  0  0  0  0  0  0  # atno 17394 bound_to 11000
  139.8767  134.9955  156.5749 LP  0  0  0  0  0  0  0  0  0  0  0  0  # atno 17395 bound_to 11000

$$$$
