AV-unprocessed.smi:1244|AV-procd|sdf|5228|dock7
  -GOLD-   22720 4333D 1   1.00000     0.00000
 Structure written by MMmdl.
 55 57  0  0  0  0  0  0  0  0  2 V2000
  152.6472  138.6060  154.8471 C   0  0  0  0  0  0  0  0  0  0  0  0
  151.4494  139.2913  155.5128 C   0  0  2  0  0  0  0  0  0  0  0  0
  150.1082  138.7305  155.0074 C   0  0  0  0  0  0  0  0  0  0  0  0
  148.9714  139.4422  155.5760 N   0  0  0  0  0  0  0  0  0  0  0  0
  147.7071  138.8615  155.1225 C   0  0  0  0  0  0  0  0  0  0  0  0
  147.5045  138.8242  153.5934 C   0  0  0  0  0  0  0  0  0  0  0  0
  146.7507  137.6519  153.1603 N   0  0  0  0  0  0  0  0  0  0  0  0
  145.4893  137.3708  153.5141 C   0  0  0  0  0  0  0  0  0  0  0  0
  144.8265  138.0609  154.2883 O   0  0  0  0  0  0  0  0  0  0  0  0
  145.0489  136.2618  152.8974 N   0  0  0  0  0  0  0  0  0  0  0  0
  143.7300  135.7290  152.9084 C   0  0  0  0  0  0  0  0  0  0  0  0
  142.6452  136.4768  153.4338 C   0  0  0  0  0  0  0  0  0  0  0  0
  141.3616  135.9033  153.4973 C   0  0  0  0  0  0  0  0  0  0  0  0
  141.1843  134.5829  153.0502 C   0  0  0  0  0  0  0  0  0  0  0  0
  142.2387  133.8929  152.5685 N   0  3  0  0  0  0  0  0  0  0  0  0
  143.4953  134.3943  152.4665 C   0  0  0  0  0  0  0  0  0  0  0  0
  144.4980  133.5537  151.9302 N   0  0  0  0  0  0  0  0  0  0  0  0
  144.9169  133.6963  150.5409 C   0  0  0  0  0  0  0  0  0  0  0  0
  146.2034  132.8826  150.4301 C   0  0  0  0  0  0  0  0  0  0  0  0
  146.8461  133.0948  151.7977 C   0  0  0  0  0  0  0  0  0  0  0  0
  145.6504  133.1938  152.7512 C   0  0  0  0  0  0  0  0  0  0  0  0
  149.0868  140.8614  155.2509 C   0  0  0  0  0  0  0  0  0  0  0  0
  150.4270  141.4667  155.7142 C   0  0  1  0  0  0  0  0  0  0  0  0
  150.5087  141.6644  157.2374 C   0  0  0  0  0  0  0  0  0  0  0  0
  151.5188  140.6866  155.2234 O   0  0  0  0  0  0  0  0  0  0  0  0
  152.6494  137.5349  155.0511 H   0  0  0  0  0  0  0  0  0  0  0  0
  153.5866  139.0166  155.2178 H   0  0  0  0  0  0  0  0  0  0  0  0
  152.6285  138.7409  153.7653 H   0  0  0  0  0  0  0  0  0  0  0  0
  151.5238  139.1409  156.5901 H   0  0  0  0  0  0  0  0  0  0  0  0
  150.0738  138.7913  153.9183 H   0  0  0  0  0  0  0  0  0  0  0  0
  150.0446  137.6717  155.2615 H   0  0  0  0  0  0  0  0  0  0  0  0
  147.6002  137.8522  155.5230 H   0  0  0  0  0  0  0  0  0  0  0  0
  146.8848  139.4351  155.5526 H   0  0  0  0  0  0  0  0  0  0  0  0
  146.9732  139.7144  153.2576 H   0  0  0  0  0  0  0  0  0  0  0  0
  148.4721  138.8445  153.0900 H   0  0  0  0  0  0  0  0  0  0  0  0
  147.2168  137.0284  152.5178 H   0  0  0  0  0  0  0  0  0  0  0  0
  145.6823  135.8443  152.2315 H   0  0  0  0  0  0  0  0  0  0  0  0
  142.7839  137.4787  153.8116 H   0  0  0  0  0  0  0  0  0  0  0  0
  140.5292  136.4647  153.8954 H   0  0  0  0  0  0  0  0  0  0  0  0
  140.2398  134.0584  153.0676 H   0  0  0  0  0  0  0  0  0  0  0  0
  144.1503  133.3370  149.8535 H   0  0  0  0  0  0  0  0  0  0  0  0
  145.1236  134.7426  150.3116 H   0  0  0  0  0  0  0  0  0  0  0  0
  145.9674  131.8267  150.2896 H   0  0  0  0  0  0  0  0  0  0  0  0
  146.8391  133.2017  149.6038 H   0  0  0  0  0  0  0  0  0  0  0  0
  147.5401  132.2991  152.0697 H   0  0  0  0  0  0  0  0  0  0  0  0
  147.3974  134.0362  151.8012 H   0  0  0  0  0  0  0  0  0  0  0  0
  145.8354  133.9188  153.5449 H   0  0  0  0  0  0  0  0  0  0  0  0
  145.4630  132.2240  153.2131 H   0  0  0  0  0  0  0  0  0  0  0  0
  148.9936  140.9937  154.1719 H   0  0  0  0  0  0  0  0  0  0  0  0
  148.2695  141.4239  155.7012 H   0  0  0  0  0  0  0  0  0  0  0  0
  150.5251  142.4525  155.2591 H   0  0  0  0  0  0  0  0  0  0  0  0
  149.7362  142.3520  157.5819 H   0  0  0  0  0  0  0  0  0  0  0  0
  151.4744  142.0809  157.5246 H   0  0  0  0  0  0  0  0  0  0  0  0
  150.3747  140.7281  157.7778 H   0  0  0  0  0  0  0  0  0  0  0  0
  142.0778  132.9359  152.2539 H   0  0  0  0  0  0  0  0  0  0  0  0
  1  2  1  0  0  0  0
  1 26  1  0  0  0  0
  1 27  1  0  0  0  0
  1 28  1  0  0  0  0
  2 25  1  0  0  0  0
  2  3  1  0  0  0  0
  2 29  1  0  0  0  0
  3  4  1  0  0  0  0
  3 30  1  0  0  0  0
  3 31  1  0  0  0  0
  4  5  1  0  0  0  0
  4 22  1  0  0  0  0
  5  6  1  0  0  0  0
  5 32  1  0  0  0  0
  5 33  1  0  0  0  0
  6  7  1  0  0  0  0
  6 34  1  0  0  0  0
  6 35  1  0  0  0  0
  7  8  1  0  0  0  0
  7 36  1  0  0  0  0
  8  9  2  0  0  0  0
  8 10  1  0  0  0  0
 10 11  1  0  0  0  0
 10 37  1  0  0  0  0
 11 16  1  0  0  0  0
 11 12  2  0  0  0  0
 12 13  1  0  0  0  0
 12 38  1  0  0  0  0
 13 14  2  0  0  0  0
 13 39  1  0  0  0  0
 14 15  1  0  0  0  0
 14 40  1  0  0  0  0
 15 16  2  0  0  0  0
 15 55  1  0  0  0  0
 16 17  1  0  0  0  0
 17 21  1  0  0  0  0
 17 18  1  0  0  0  0
 18 19  1  0  0  0  0
 18 41  1  0  0  0  0
 18 42  1  0  0  0  0
 19 20  1  0  0  0  0
 19 43  1  0  0  0  0
 19 44  1  0  0  0  0
 20 21  1  0  0  0  0
 20 45  1  0  0  0  0
 20 46  1  0  0  0  0
 21 47  1  0  0  0  0
 21 48  1  0  0  0  0
 22 23  1  0  0  0  0
 22 49  1  0  0  0  0
 22 50  1  0  0  0  0
 23 24  1  0  0  0  0
 23 25  1  0  0  0  0
 23 51  1  0  0  0  0
 24 52  1  0  0  0  0
 24 53  1  0  0  0  0
 24 54  1  0  0  0  0
M  CHG  1  15   1
M  END
> <s_m_source_file>
AV-unprocessed.smi

> <i_m_source_file_index>
1244

> <i_lp_mmshare_version>
43012

> <i_f3d_flags>
0

> <s_epik_input>
W0NIM11bQ0BASF0xW0NIMl1OKFtDSDJdW0NASF0oTzEpW0NIM10pW0NIMl1bQ0gyXVtOSF1DKD1PKVtOSF1jMltjSF1bY0hdW2NIXW5jMk4zW0NIMl1bQ0gyXVtDSDJdW0NIMl0z

> <s_epik_cmdline>
J2VwaWtfcHl0aG9uJywgJy1waCcsICc3LjAnLCAnLXRuJywgJzgnLCAnLW1hJywgJzIwMCcsICctbWV0YWxfYmluZGluZycsICctaW1hZScsICc8aW5maWxlLm1hZT4nLCAnLW9tYWUnLCAnPG91dGZpbGUubWFlPic=

> <r_epik_Ionization_Penalty>
1.38385

> <r_epik_Ionization_Penalty_Charging>
1.11784

> <r_epik_Ionization_Penalty_Neutral>
0.26601

> <r_epik_State_Penalty>
1.46794

> <r_epik_Charging_Adjusted_Penalty>
2.58578

> <i_epik_Tot_Q>
1

> <i_epik_Tot_abs_Q>
1

> <r_epik_Metal_State_Penalty>
1.54908

> <b_epik_Metal_Only>
0

> <s_lp_Force_Field>
OPLS_2005

> <r_lp_Energy>
60.0137

> <b_lp_Chiralities_Consistent>
1

> <s_lp_Variant>
AV-unprocessed.smi:1244-8

> <Gold.Version>
5.8.1

> <Gold.Id.Protein>
6NUR|6NUR_protein|mol2

> <Gold.PLP.Fitness>
43.8157

> <Gold.PLP.PLP>
-39.3083

> <Gold.PLP.part.hbond>
-2.9853

> <Gold.PLP.part.metal>
0.0000

> <Gold.PLP.part.buried>
-5.8861

> <Gold.PLP.part.nonpolar>
-31.6732

> <Gold.PLP.part.repulsive>
0.3404

> <Gold.PLP.ligand.clash>
0.0000

> <Gold.PLP.ligand.torsion>
0.5510

> <Gold.PLP.Chemscore.Hbond>
1.7280

> <Gold.PLP.Chemscore.CHOScore>
0.0000

> <Gold.PLP.Chemscore.Metal>
0.0000

> <Gold.Chemscore.Hbonds>
donor molecule, donor type, donor heavy atom, donor atom, acceptor molecule, acceptor atom, score
      L1  H     7    36       P1  7948  0.98
      P1  H  7989  7998       L1    25  0.75

> <Gold.PLP.Chemscore.Internal.Correction>
0.4254

> <Gold.Rescore>
     Score         DG    S(hbond)    S(metal)    S(lipo)     H(rot)  DE(clash)    DE(int)     intcor
     14.81     -16.63       1.28        0.00      93.43       1.58       0.02       1.80       ----

> <Gold.Chemscore.Fitness>
14.8066

> <Gold.Chemscore.DG>
-16.6304

> <Gold.Chemscore.ZeroCoef>
-5.4800

> <Gold.Chemscore.Hbond>
1.2762

> <Gold.Chemscore.Metal>
0.0000

> <Gold.Chemscore.Lipo>
93.4344

> <Gold.Chemscore.Internal_Hbond>
0.0000

> <Gold.Chemscore.DEClash>
0.0208

> <Gold.Chemscore.DEInternal>
1.8030

> <Gold.Chemscore.Rot>
1.5797

> <Gold.Chemscore.Internal.Correction>
   9.000000E+99

> <Gold.Chemscore.Hbonds>
donor molecule, donor type, donor heavy atom, donor atom, acceptor molecule, acceptor atom, score
      L1  H     7    36       P1  7948  0.89
      P1  H  7989  7998       L1    25  0.39

> <Gold.Chemscore.Hbond.Weighted>
-4.2625

> <Gold.Chemscore.Metal.Weighted>
-0.0000

> <Gold.Chemscore.Lipo.Weighted>
-10.9318

> <Gold.Chemscore.Internal_Hbond.Weighted>
0.0000

> <Gold.Chemscore.DEClash.Weighted>
0.0208

> <Gold.Chemscore.DEInternal.Weighted>
1.8030

> <Gold.Chemscore.Rot.Weighted>
4.0439

> <Gold.Chemscore.Internal.Correction.Weighted>
   9.000000E+99

> <Gold.Protein.RotatedTorsions>
[ 6907 6896 6895 6894 ] final  -66.47 input  -60.11 | X-H torsion
[ 7974 7965 7964 7962 ] final  -41.92 input  175.53 | X-H torsion
[ 8008 7997 7996 7995 ] final   49.20 input   59.86 | X-H torsion
[ 10167 10162 10161 10158 ] final  -53.71 input  -65.29 | X-H torsion
[ 10718 10713 10712 10709 ] final    3.39 input   66.30 | X-H torsion
[ 10763 10752 10751 10750 ] final -149.95 input  -60.55 | X-H torsion
[ 11005 11000 10999 10996 ] final -102.63 input  -57.11 | X-H torsion

> <Gold.Protein.ActiveResidues>
 VAL166  LYS551  ARG553  GLY616  TRP617  ASP618  TYR619  PRO620  LYS621  CYS622 
 ASP623  PHE694  ASN695  SER759  ASP760  ASP761  ALA762  ILE779  LEU786  VAL792 
 PHE793  MET794  SER795  GLU796  ALA797  LYS798  CYS799  TRP800  GLU811  SER814 

> <Gold.Protein.RotatedAtoms>
  150.7464  134.6017  159.6039 H   0  0  0  0  0  0  0  0  0  0  0  0  # atno 6907 bound_to 6896
  152.3376  134.7174  160.0281 H   0  0  0  0  0  0  0  0  0  0  0  0  # atno 6908 bound_to 6896
  151.7637  133.3300  159.3461 H   0  0  0  0  0  0  0  0  0  0  0  0  # atno 6909 bound_to 6896
  146.0165  140.6901  142.9199 H   0  0  0  0  0  0  0  0  0  0  0  0  # atno 7974 bound_to 7965
  155.3983  140.3436  155.4255 H   0  0  0  0  0  0  0  0  0  0  0  0  # atno 8008 bound_to 7997
  156.1518  140.1573  156.8789 H   0  0  0  0  0  0  0  0  0  0  0  0  # atno 8009 bound_to 7997
  154.5059  140.0802  156.7875 H   0  0  0  0  0  0  0  0  0  0  0  0  # atno 8010 bound_to 7997
  140.6470  143.2541  151.4831 H   0  0  0  0  0  0  0  0  0  0  0  0  # atno 10167 bound_to 10162
  156.8771  130.5640  149.5654 H   0  0  0  0  0  0  0  0  0  0  0  0  # atno 10718 bound_to 10713
  154.8147  135.3296  154.7208 H   0  0  0  0  0  0  0  0  0  0  0  0  # atno 10763 bound_to 10752
  153.7851  135.6915  153.4886 H   0  0  0  0  0  0  0  0  0  0  0  0  # atno 10764 bound_to 10752
  153.1954  135.4535  155.0149 H   0  0  0  0  0  0  0  0  0  0  0  0  # atno 10765 bound_to 10752
  141.1181  133.8574  157.1384 H   0  0  0  0  0  0  0  0  0  0  0  0  # atno 11005 bound_to 11000
  144.6973  140.3491  143.7185 LP  0  0  0  0  0  0  0  0  0  0  0  0  # atno 17320 bound_to 7965
  145.7260  139.1723  143.2457 LP  0  0  0  0  0  0  0  0  0  0  0  0  # atno 17321 bound_to 7965
  139.5681  144.1993  152.1796 LP  0  0  0  0  0  0  0  0  0  0  0  0  # atno 17342 bound_to 10162
  140.1281  144.5313  150.6820 LP  0  0  0  0  0  0  0  0  0  0  0  0  # atno 17343 bound_to 10162
  156.0696  130.5732  150.9357 LP  0  0  0  0  0  0  0  0  0  0  0  0  # atno 17370 bound_to 10713
  157.6162  131.0933  150.8707 LP  0  0  0  0  0  0  0  0  0  0  0  0  # atno 17371 bound_to 10713
  140.0117  134.9985  157.0409 LP  0  0  0  0  0  0  0  0  0  0  0  0  # atno 17394 bound_to 11000
  140.4588  134.1506  155.7189 LP  0  0  0  0  0  0  0  0  0  0  0  0  # atno 17395 bound_to 11000

$$$$
