AV-unprocessed.smi:1207|AV-procd|sdf|5053|dock3
  -GOLD-   22720 4 83D 1   1.00000     0.00000
 Structure written by MMmdl.
 52 54  0  0  0  0  0  0  0  0  2 V2000
  152.6832  143.3869  161.3058 C   0  0  0  0  0  0  0  0  0  0  0  0
  152.1775  142.8500  159.9782 C   0  0  0  0  0  0  0  0  0  0  0  0
  152.7672  141.6844  159.4394 C   0  0  0  0  0  0  0  0  0  0  0  0
  152.3260  141.1520  158.2086 C   0  0  0  0  0  0  0  0  0  0  0  0
  152.7482  140.0343  157.5100 N   0  0  0  0  0  0  0  0  0  0  0  0
  151.9535  140.0670  156.4448 C   0  0  0  0  0  0  0  0  0  0  0  0
  151.0590  141.0714  156.3737 N   0  0  0  0  0  0  0  0  0  0  0  0
  150.0897  141.2988  155.3178 C   0  0  0  0  0  0  0  0  0  0  0  0
  149.1086  140.1214  155.1616 C   0  0  2  0  0  0  0  0  0  0  0  0
  148.7054  139.7179  156.4543 O   0  0  0  0  0  0  0  0  0  0  0  0
  149.7142  138.9039  154.4281 C   0  0  0  0  0  0  0  0  0  0  0  0
  148.6926  137.8675  154.1353 N   0  3  2  0  0  0  0  0  0  0  0  0
  147.4325  138.4544  153.6216 C   0  0  0  0  0  0  0  0  0  0  0  0
  148.4713  136.9368  155.2725 C   0  0  0  0  0  0  0  0  0  0  0  0
  149.5964  135.9430  155.3930 C   0  0  0  0  0  0  0  0  0  0  0  0
  149.6902  134.6398  154.8236 C   0  0  0  0  0  0  0  0  0  0  0  0
  148.6973  133.9162  153.9595 C   0  0  0  0  0  0  0  0  0  0  0  0
  150.8266  134.0445  155.1426 N   0  0  0  0  0  0  0  0  0  0  0  0
  151.5237  134.9508  155.9468 O   0  0  0  0  0  0  0  0  0  0  0  0
  150.7707  136.0708  156.0831 C   0  0  0  0  0  0  0  0  0  0  0  0
  151.3499  137.1640  156.9161 C   0  0  0  0  0  0  0  0  0  0  0  0
  151.2711  141.8241  157.5243 C   0  0  0  0  0  0  0  0  0  0  0  0
  150.6770  142.9855  158.0495 C   0  0  0  0  0  0  0  0  0  0  0  0
  151.1292  143.5031  159.2814 C   0  0  0  0  0  0  0  0  0  0  0  0
  150.4820  144.7575  159.8411 C   0  0  0  0  0  0  0  0  0  0  0  0
  153.4670  142.7516  161.7193 H   0  0  0  0  0  0  0  0  0  0  0  0
  151.8738  143.4340  162.0344 H   0  0  0  0  0  0  0  0  0  0  0  0
  153.0957  144.3879  161.1799 H   0  0  0  0  0  0  0  0  0  0  0  0
  153.5659  141.1870  159.9698 H   0  0  0  0  0  0  0  0  0  0  0  0
  152.0201  139.3135  155.6735 H   0  0  0  0  0  0  0  0  0  0  0  0
  149.5521  142.2243  155.5272 H   0  0  0  0  0  0  0  0  0  0  0  0
  150.6365  141.4601  154.3873 H   0  0  0  0  0  0  0  0  0  0  0  0
  148.2228  140.4804  154.6381 H   0  0  0  0  0  0  0  0  0  0  0  0
  148.0714  139.0215  156.3711 H   0  0  0  0  0  0  0  0  0  0  0  0
  150.1855  139.1968  153.4895 H   0  0  0  0  0  0  0  0  0  0  0  0
  150.5119  138.4890  155.0465 H   0  0  0  0  0  0  0  0  0  0  0  0
  146.9501  139.0710  154.3812 H   0  0  0  0  0  0  0  0  0  0  0  0
  146.7320  137.6781  153.3144 H   0  0  0  0  0  0  0  0  0  0  0  0
  147.6243  139.0768  152.7469 H   0  0  0  0  0  0  0  0  0  0  0  0
  148.3868  137.5001  156.2014 H   0  0  0  0  0  0  0  0  0  0  0  0
  147.5071  136.4417  155.1501 H   0  0  0  0  0  0  0  0  0  0  0  0
  148.1350  134.6097  153.3349 H   0  0  0  0  0  0  0  0  0  0  0  0
  147.9821  133.3627  154.5679 H   0  0  0  0  0  0  0  0  0  0  0  0
  149.1891  133.2046  153.2952 H   0  0  0  0  0  0  0  0  0  0  0  0
  150.7308  138.0600  156.8765 H   0  0  0  0  0  0  0  0  0  0  0  0
  152.3473  137.4298  156.5657 H   0  0  0  0  0  0  0  0  0  0  0  0
  151.4284  136.8542  157.9582 H   0  0  0  0  0  0  0  0  0  0  0  0
  149.8790  143.4739  157.5104 H   0  0  0  0  0  0  0  0  0  0  0  0
  149.7040  145.1352  159.1771 H   0  0  0  0  0  0  0  0  0  0  0  0
  151.2242  145.5456  159.9688 H   0  0  0  0  0  0  0  0  0  0  0  0
  150.0248  144.5519  160.8091 H   0  0  0  0  0  0  0  0  0  0  0  0
  149.0747  137.3177  153.3787 H   0  0  0  0  0  0  0  0  0  0  0  0
  1  2  1  0  0  0  0
  1 26  1  0  0  0  0
  1 27  1  0  0  0  0
  1 28  1  0  0  0  0
  2 24  1  0  0  0  0
  2  3  2  0  0  0  0
  3  4  1  0  0  0  0
  3 29  1  0  0  0  0
  4 22  2  0  0  0  0
  4  5  1  0  0  0  0
  5  6  2  0  0  0  0
  6  7  1  0  0  0  0
  6 30  1  0  0  0  0
  7  8  1  0  0  0  0
  7 22  1  0  0  0  0
  8  9  1  0  0  0  0
  8 31  1  0  0  0  0
  8 32  1  0  0  0  0
  9 10  1  0  0  0  0
  9 11  1  0  0  0  0
  9 33  1  0  0  0  0
 10 34  1  0  0  0  0
 11 12  1  0  0  0  0
 11 35  1  0  0  0  0
 11 36  1  0  0  0  0
 12 13  1  0  0  0  0
 12 14  1  0  0  0  0
 12 52  1  0  0  0  0
 13 37  1  0  0  0  0
 13 38  1  0  0  0  0
 13 39  1  0  0  0  0
 14 15  1  0  0  0  0
 14 40  1  0  0  0  0
 14 41  1  0  0  0  0
 15 20  2  0  0  0  0
 15 16  1  0  0  0  0
 16 17  1  0  0  0  0
 16 18  2  0  0  0  0
 17 42  1  0  0  0  0
 17 43  1  0  0  0  0
 17 44  1  0  0  0  0
 18 19  1  0  0  0  0
 19 20  1  0  0  0  0
 20 21  1  0  0  0  0
 21 45  1  0  0  0  0
 21 46  1  0  0  0  0
 21 47  1  0  0  0  0
 22 23  1  0  0  0  0
 23 24  2  0  0  0  0
 23 48  1  0  0  0  0
 24 25  1  0  0  0  0
 25 49  1  0  0  0  0
 25 50  1  0  0  0  0
 25 51  1  0  0  0  0
M  CHG  1  12   1
M  END
> <s_m_source_file>
AV-unprocessed.smi

> <i_m_source_file_index>
1207

> <i_lp_mmshare_version>
43012

> <i_f3d_flags>
0

> <s_epik_input>
W0NIM11jKFtjSF0xKWMoW0NIM10pW2NIXWMoYzEyKW4oW2NIXW4yKVtDSDJdW0NASF0oW09IXSlbQ0gyXU4oW0NIM10pW0NIMl1jM2MoW0NIM10pbm9jM1tDSDNd

> <s_epik_cmdline>
J2VwaWtfcHl0aG9uJywgJy1waCcsICc3LjAnLCAnLXRuJywgJzgnLCAnLW1hJywgJzIwMCcsICctbWV0YWxfYmluZGluZycsICctaW1hZScsICc8aW5maWxlLm1hZT4nLCAnLW9tYWUnLCAnPG91dGZpbGUubWFlPic=

> <r_epik_Ionization_Penalty>
0.646518

> <r_epik_Ionization_Penalty_Charging>
0.559419

> <r_epik_Ionization_Penalty_Neutral>
0.0870981

> <r_epik_State_Penalty>
0.661677

> <r_epik_Charging_Adjusted_Penalty>
1.2211

> <i_epik_Tot_Q>
1

> <i_epik_Tot_abs_Q>
1

> <r_epik_Metal_State_Penalty>
0.649158

> <b_epik_Metal_Only>
0

> <s_lp_Force_Field>
OPLS_2005

> <r_lp_Energy>
8.09653

> <b_lp_Chiralities_Consistent>
1

> <s_lp_Variant>
AV-unprocessed.smi:1207-5

> <Gold.Version>
5.8.1

> <Gold.Id.Protein>
6NUR|6NUR_protein|mol2

> <Gold.PLP.Fitness>
52.3582

> <Gold.PLP.PLP>
-41.8354

> <Gold.PLP.part.hbond>
-3.0000

> <Gold.PLP.part.metal>
0.0000

> <Gold.PLP.part.buried>
-2.1994

> <Gold.PLP.part.nonpolar>
-34.7046

> <Gold.PLP.part.repulsive>
0.0774

> <Gold.PLP.ligand.clash>
0.0000

> <Gold.PLP.ligand.torsion>
0.9300

> <Gold.PLP.Chemscore.Hbond>
3.9204

> <Gold.PLP.Chemscore.CHOScore>
0.0000

> <Gold.PLP.Chemscore.Metal>
0.0000

> <Gold.Chemscore.Hbonds>
donor molecule, donor type, donor heavy atom, donor atom, acceptor molecule, acceptor atom, score
      L1  H    12    52       P1  7948  2.00
      P1  H  7997  8008       L1     5  1.00
      P1  H 10752 10763       L1    19  0.93

> <Gold.PLP.Chemscore.Internal.Correction>
0.6217

> <Gold.Rescore>
     Score         DG    S(hbond)    S(metal)    S(lipo)     H(rot)  DE(clash)    DE(int)     intcor
     19.46     -20.72       2.23        0.00     120.43       2.46       0.28       0.98       ----

> <Gold.Chemscore.Fitness>
19.4574

> <Gold.Chemscore.DG>
-20.7163

> <Gold.Chemscore.ZeroCoef>
-5.4800

> <Gold.Chemscore.Hbond>
2.2260

> <Gold.Chemscore.Metal>
0.0000

> <Gold.Chemscore.Lipo>
120.4289

> <Gold.Chemscore.Internal_Hbond>
0.0000

> <Gold.Chemscore.DEClash>
0.2756

> <Gold.Chemscore.DEInternal>
0.9834

> <Gold.Chemscore.Rot>
2.4565

> <Gold.Chemscore.Internal.Correction>
   9.000000E+99

> <Gold.Chemscore.Hbonds>
donor molecule, donor type, donor heavy atom, donor atom, acceptor molecule, acceptor atom, score
      L1  H    12    52       P1  7948  0.98
      P1  H  7997  8008       L1     5  0.46
      P1  H 10752 10763       L1    19  0.33

> <Gold.Chemscore.Hbond.Weighted>
-7.4349

> <Gold.Chemscore.Metal.Weighted>
-0.0000

> <Gold.Chemscore.Lipo.Weighted>
-14.0902

> <Gold.Chemscore.Internal_Hbond.Weighted>
0.0000

> <Gold.Chemscore.DEClash.Weighted>
0.2756

> <Gold.Chemscore.DEInternal.Weighted>
0.9834

> <Gold.Chemscore.Rot.Weighted>
6.2887

> <Gold.Chemscore.Internal.Correction.Weighted>
   9.000000E+99

> <Gold.Protein.RotatedTorsions>
[ 6907 6896 6895 6894 ] final -136.26 input  -60.11 | X-H torsion
[ 7974 7965 7964 7962 ] final  -97.44 input  175.53 | X-H torsion
[ 8008 7997 7996 7995 ] final  -71.47 input   59.86 | X-H torsion
[ 10167 10162 10161 10158 ] final   48.49 input  -65.29 | X-H torsion
[ 10718 10713 10712 10709 ] final  152.60 input   66.30 | X-H torsion
[ 10763 10752 10751 10750 ] final   86.32 input  -60.55 | X-H torsion
[ 11005 11000 10999 10996 ] final -152.47 input  -57.11 | X-H torsion

> <Gold.Protein.ActiveResidues>
 VAL166  LYS551  ARG553  GLY616  TRP617  ASP618  TYR619  PRO620  LYS621  CYS622 
 ASP623  PHE694  ASN695  SER759  ASP760  ASP761  ALA762  ILE779  LEU786  VAL792 
 PHE793  MET794  SER795  GLU796  ALA797  LYS798  CYS799  TRP800  GLU811  SER814 

> <Gold.Protein.RotatedAtoms>
  151.0079  133.5993  159.2686 H   0  0  0  0  0  0  0  0  0  0  0  0  # atno 6907 bound_to 6896
  151.3155  135.0804  159.9297 H   0  0  0  0  0  0  0  0  0  0  0  0  # atno 6908 bound_to 6896
  152.5292  133.9736  159.7828 H   0  0  0  0  0  0  0  0  0  0  0  0  # atno 6909 bound_to 6896
  145.3337  140.9446  143.2647 H   0  0  0  0  0  0  0  0  0  0  0  0  # atno 7974 bound_to 7965
  154.5091  140.0815  156.7953 H   0  0  0  0  0  0  0  0  0  0  0  0  # atno 8008 bound_to 7997
  155.3827  140.3428  155.4229 H   0  0  0  0  0  0  0  0  0  0  0  0  # atno 8009 bound_to 7997
  156.1551  140.1570  156.8693 H   0  0  0  0  0  0  0  0  0  0  0  0  # atno 8010 bound_to 7997
  140.2927  144.3027  150.6237 H   0  0  0  0  0  0  0  0  0  0  0  0  # atno 10167 bound_to 10162
  157.2557  131.0788  151.1700 H   0  0  0  0  0  0  0  0  0  0  0  0  # atno 10718 bound_to 10713
  153.1559  135.4585  154.9703 H   0  0  0  0  0  0  0  0  0  0  0  0  # atno 10763 bound_to 10752
  154.7861  135.3204  154.7886 H   0  0  0  0  0  0  0  0  0  0  0  0  # atno 10764 bound_to 10752
  153.8384  135.6932  153.4860 H   0  0  0  0  0  0  0  0  0  0  0  0  # atno 10765 bound_to 10752
  140.7185  134.3753  157.5187 H   0  0  0  0  0  0  0  0  0  0  0  0  # atno 11005 bound_to 11000
  144.8844  139.4859  143.6707 LP  0  0  0  0  0  0  0  0  0  0  0  0  # atno 17320 bound_to 7965
  146.3035  139.7504  142.9073 LP  0  0  0  0  0  0  0  0  0  0  0  0  # atno 17321 bound_to 7965
  140.5718  143.2180  151.7585 LP  0  0  0  0  0  0  0  0  0  0  0  0  # atno 17342 bound_to 10162
  139.4934  144.4205  151.9982 LP  0  0  0  0  0  0  0  0  0  0  0  0  # atno 17343 bound_to 10162
  157.3230  130.6946  149.6280 LP  0  0  0  0  0  0  0  0  0  0  0  0  # atno 17370 bound_to 10713
  155.9665  130.4330  150.4987 LP  0  0  0  0  0  0  0  0  0  0  0  0  # atno 17371 bound_to 10713
  139.8854  134.8939  156.2647 LP  0  0  0  0  0  0  0  0  0  0  0  0  # atno 17394 bound_to 11000
  141.0023  133.7144  156.0980 LP  0  0  0  0  0  0  0  0  0  0  0  0  # atno 17395 bound_to 11000

$$$$
