AV-unprocessed.smi:1152|AV-procd|sdf|4897|dock2
  -GOLD-   22720 3473D 1   1.00000     0.00000
 Structure written by MMmdl.
 32 33  0  0  0  0  0  0  0  0  1 V2000
  146.1714  138.0412  152.3879 C   0  0  0  0  0  0  0  0  0  0  0  0
  147.4380  138.7263  152.5953 N   0  0  0  0  0  0  0  0  0  0  0  0
  147.8708  139.1634  153.7854 C   0  0  0  0  0  0  0  0  0  0  0  0
  147.2323  139.0264  154.8294 O   0  0  0  0  0  0  0  0  0  0  0  0
  149.0723  139.7582  153.6790 N   0  0  0  0  0  0  0  0  0  0  0  0
  149.8580  140.3460  154.7055 C   0  0  0  0  0  0  0  0  0  0  0  0
  151.1850  140.1922  154.8080 N   0  0  0  0  0  0  0  0  0  0  0  0
  151.7017  140.8726  155.9011 N   0  0  0  0  0  0  0  0  0  0  0  0
  150.7547  141.5203  156.5932 C   0  0  0  0  0  0  0  0  0  0  0  0
  151.0494  142.3304  157.8170 C   0  0  0  0  0  0  0  0  0  0  0  0
  151.5974  143.7312  157.4809 C   0  0  0  0  0  0  0  0  0  0  0  0
  151.8496  144.5547  158.7548 C   0  0  0  0  0  0  0  0  0  0  0  0
  152.7699  143.8051  159.7318 C   0  0  0  0  0  0  0  0  0  0  0  0
  152.2007  142.4208  160.0827 C   0  0  0  0  0  0  0  0  0  0  0  0
  151.9509  141.5821  158.8183 C   0  0  0  0  0  0  0  0  0  0  0  0
  149.1259  141.3448  155.9490 S   0  0  0  0  0  0  0  0  0  0  0  0
  146.0530  137.7895  151.3340 H   0  0  0  0  0  0  0  0  0  0  0  0
  145.3342  138.6747  152.6836 H   0  0  0  0  0  0  0  0  0  0  0  0
  146.1303  137.1172  152.9661 H   0  0  0  0  0  0  0  0  0  0  0  0
  148.0193  138.8762  151.7835 H   0  0  0  0  0  0  0  0  0  0  0  0
  149.4730  139.7952  152.7536 H   0  0  0  0  0  0  0  0  0  0  0  0
  150.0910  142.4829  158.3154 H   0  0  0  0  0  0  0  0  0  0  0  0
  152.5288  143.6394  156.9205 H   0  0  0  0  0  0  0  0  0  0  0  0
  150.8977  144.2617  156.8340 H   0  0  0  0  0  0  0  0  0  0  0  0
  152.2903  145.5170  158.4928 H   0  0  0  0  0  0  0  0  0  0  0  0
  150.8992  144.7733  159.2434 H   0  0  0  0  0  0  0  0  0  0  0  0
  153.7596  143.6915  159.2876 H   0  0  0  0  0  0  0  0  0  0  0  0
  152.9043  144.3926  160.6404 H   0  0  0  0  0  0  0  0  0  0  0  0
  152.8862  141.8943  160.7473 H   0  0  0  0  0  0  0  0  0  0  0  0
  151.2668  142.5391  160.6337 H   0  0  0  0  0  0  0  0  0  0  0  0
  151.4951  140.6304  159.0938 H   0  0  0  0  0  0  0  0  0  0  0  0
  152.9065  141.3436  158.3492 H   0  0  0  0  0  0  0  0  0  0  0  0
  1  2  1  0  0  0  0
  1 17  1  0  0  0  0
  1 18  1  0  0  0  0
  1 19  1  0  0  0  0
  2  3  1  0  0  0  0
  2 20  1  0  0  0  0
  3  4  2  0  0  0  0
  3  5  1  0  0  0  0
  5  6  1  0  0  0  0
  5 21  1  0  0  0  0
  6 16  1  0  0  0  0
  6  7  2  0  0  0  0
  7  8  1  0  0  0  0
  8  9  2  0  0  0  0
  9 10  1  0  0  0  0
  9 16  1  0  0  0  0
 10 15  1  0  0  0  0
 10 11  1  0  0  0  0
 10 22  1  0  0  0  0
 11 12  1  0  0  0  0
 11 23  1  0  0  0  0
 11 24  1  0  0  0  0
 12 13  1  0  0  0  0
 12 25  1  0  0  0  0
 12 26  1  0  0  0  0
 13 14  1  0  0  0  0
 13 27  1  0  0  0  0
 13 28  1  0  0  0  0
 14 15  1  0  0  0  0
 14 29  1  0  0  0  0
 14 30  1  0  0  0  0
 15 31  1  0  0  0  0
 15 32  1  0  0  0  0
M  END
> <s_m_source_file>
AV-unprocessed.smi

> <i_m_source_file_index>
1152

> <i_lp_mmshare_version>
43012

> <i_f3d_flags>
0

> <s_epik_input>
W0NIM11bTkhdQyg9TylbTkhdYzFubmMoczEpW0NIXTJbQ0gyXVtDSDJdW0NIMl1bQ0gyXVtDSDJdMg==

> <s_epik_cmdline>
J2VwaWtfcHl0aG9uJywgJy1waCcsICc3LjAnLCAnLXRuJywgJzgnLCAnLW1hJywgJzIwMCcsICctbWV0YWxfYmluZGluZycsICctaW1hZScsICc8aW5maWxlLm1hZT4nLCAnLW9tYWUnLCAnPG91dGZpbGUubWFlPic=

> <r_lp_tautomer_probability>
1

> <r_epik_Ionization_Penalty>
0.00039794

> <r_epik_Ionization_Penalty_Charging>
0

> <r_epik_Ionization_Penalty_Neutral>
0.00039794

> <r_epik_State_Penalty>
-0

> <r_epik_Charging_Adjusted_Penalty>
0

> <i_epik_Tot_Q>
0

> <i_epik_Tot_abs_Q>
0

> <r_epik_Metal_State_Penalty>
0.193873

> <b_epik_Metal_Only>
0

> <s_lp_Force_Field>
OPLS_2005

> <r_lp_Energy>
2.48504

> <b_lp_Chiralities_Consistent>
1

> <s_lp_Variant>
AV-unprocessed.smi:1152-1

> <Gold.Version>
5.8.1

> <Gold.Id.Protein>
6NUR|6NUR_protein|mol2

> <Gold.PLP.Fitness>
42.1693

> <Gold.PLP.PLP>
-35.0672

> <Gold.PLP.part.hbond>
-4.6410

> <Gold.PLP.part.metal>
0.0000

> <Gold.PLP.part.buried>
-2.2874

> <Gold.PLP.part.nonpolar>
-28.4493

> <Gold.PLP.part.repulsive>
0.3448

> <Gold.PLP.ligand.clash>
0.0000

> <Gold.PLP.ligand.torsion>
0.7517

> <Gold.PLP.Chemscore.Hbond>
2.8480

> <Gold.PLP.Chemscore.CHOScore>
0.0000

> <Gold.PLP.Chemscore.Metal>
0.0000

> <Gold.Chemscore.Hbonds>
donor molecule, donor type, donor heavy atom, donor atom, acceptor molecule, acceptor atom, score
      L1  H     2    20       P1  7957  0.83
      L1  H     5    21       P1  7957  1.00
      P1  H  7989  7998       L1     7  1.00

> <Gold.PLP.Chemscore.Internal.Correction>
0.0615

> <Gold.Rescore>
     Score         DG    S(hbond)    S(metal)    S(lipo)     H(rot)  DE(clash)    DE(int)     intcor
     19.70     -20.38       2.40        0.00      80.74       1.00       0.20       0.48       ----

> <Gold.Chemscore.Fitness>
19.6989

> <Gold.Chemscore.DG>
-20.3789

> <Gold.Chemscore.ZeroCoef>
-5.4800

> <Gold.Chemscore.Hbond>
2.3988

> <Gold.Chemscore.Metal>
0.0000

> <Gold.Chemscore.Lipo>
80.7430

> <Gold.Chemscore.Internal_Hbond>
0.0000

> <Gold.Chemscore.DEClash>
0.1971

> <Gold.Chemscore.DEInternal>
0.4829

> <Gold.Chemscore.Rot>
1.0000

> <Gold.Chemscore.Internal.Correction>
   9.000000E+99

> <Gold.Chemscore.Hbonds>
donor molecule, donor type, donor heavy atom, donor atom, acceptor molecule, acceptor atom, score
      L1  H     2    20       P1  7957  0.70
      L1  H     5    21       P1  7957  0.99
      P1  H  7989  7998       L1     7  0.18

> <Gold.Chemscore.Hbond.Weighted>
-8.0119

> <Gold.Chemscore.Metal.Weighted>
-0.0000

> <Gold.Chemscore.Lipo.Weighted>
-9.4469

> <Gold.Chemscore.Internal_Hbond.Weighted>
0.0000

> <Gold.Chemscore.DEClash.Weighted>
0.1971

> <Gold.Chemscore.DEInternal.Weighted>
0.4829

> <Gold.Chemscore.Rot.Weighted>
2.5600

> <Gold.Chemscore.Internal.Correction.Weighted>
   9.000000E+99

> <Gold.Protein.RotatedTorsions>
[ 6907 6896 6895 6894 ] final   -5.82 input  -60.11 | X-H torsion
[ 7974 7965 7964 7962 ] final -166.95 input  175.53 | X-H torsion
[ 8008 7997 7996 7995 ] final  -21.93 input   59.86 | X-H torsion
[ 10167 10162 10161 10158 ] final  116.28 input  -65.29 | X-H torsion
[ 10718 10713 10712 10709 ] final  -14.32 input   66.30 | X-H torsion
[ 10763 10752 10751 10750 ] final   70.90 input  -60.55 | X-H torsion
[ 11005 11000 10999 10996 ] final  -96.00 input  -57.11 | X-H torsion

> <Gold.Protein.ActiveResidues>
 VAL166  LYS551  ARG553  GLY616  TRP617  ASP618  TYR619  PRO620  LYS621  CYS622 
 ASP623  PHE694  ASN695  SER759  ASP760  ASP761  ALA762  ILE779  LEU786  VAL792 
 PHE793  MET794  SER795  GLU796  ALA797  LYS798  CYS799  TRP800  GLU811  SER814 

> <Gold.Protein.RotatedAtoms>
  151.4754  135.1048  159.9762 H   0  0  0  0  0  0  0  0  0  0  0  0  # atno 6907 bound_to 6896
  152.4800  133.8227  159.7072 H   0  0  0  0  0  0  0  0  0  0  0  0  # atno 6908 bound_to 6896
  150.8865  133.7240  159.2943 H   0  0  0  0  0  0  0  0  0  0  0  0  # atno 6909 bound_to 6896
  144.7233  140.2590  143.6267 H   0  0  0  0  0  0  0  0  0  0  0  0  # atno 7974 bound_to 7965
  154.4675  140.2021  156.0081 H   0  0  0  0  0  0  0  0  0  0  0  0  # atno 8008 bound_to 7997
  156.0952  140.3252  155.7840 H   0  0  0  0  0  0  0  0  0  0  0  0  # atno 8009 bound_to 7997
  155.4889  140.0544  157.2947 H   0  0  0  0  0  0  0  0  0  0  0  0  # atno 8010 bound_to 7997
  139.6258  144.7108  151.2536 H   0  0  0  0  0  0  0  0  0  0  0  0  # atno 10167 bound_to 10162
  156.6176  130.4866  149.6177 H   0  0  0  0  0  0  0  0  0  0  0  0  # atno 10718 bound_to 10713
  153.0368  135.5157  154.7511 H   0  0  0  0  0  0  0  0  0  0  0  0  # atno 10763 bound_to 10752
  154.6482  135.2921  155.0023 H   0  0  0  0  0  0  0  0  0  0  0  0  # atno 10764 bound_to 10752
  154.0916  135.6649  153.4906 H   0  0  0  0  0  0  0  0  0  0  0  0  # atno 10765 bound_to 10752
  141.1425  133.8066  157.0511 H   0  0  0  0  0  0  0  0  0  0  0  0  # atno 11005 bound_to 11000
  145.8154  139.2021  143.1969 LP  0  0  0  0  0  0  0  0  0  0  0  0  # atno 17320 bound_to 7965
  146.0560  140.8020  142.9758 LP  0  0  0  0  0  0  0  0  0  0  0  0  # atno 17321 bound_to 7965
  140.7410  143.6570  150.8198 LP  0  0  0  0  0  0  0  0  0  0  0  0  # atno 17342 bound_to 10162
  140.0188  143.5564  152.2809 LP  0  0  0  0  0  0  0  0  0  0  0  0  # atno 17343 bound_to 10162
  156.2338  130.6810  151.1489 LP  0  0  0  0  0  0  0  0  0  0  0  0  # atno 17370 bound_to 10713
  157.7237  131.0665  150.6027 LP  0  0  0  0  0  0  0  0  0  0  0  0  # atno 17371 bound_to 10713
  140.0631  134.9744  157.1339 LP  0  0  0  0  0  0  0  0  0  0  0  0  # atno 17394 bound_to 11000
  140.3819  134.2278  155.7170 LP  0  0  0  0  0  0  0  0  0  0  0  0  # atno 17395 bound_to 11000

$$$$
