AV-unprocessed.smi:581|AV-procd|sdf|2992|dock5
  -GOLD-   2262023493D 1   1.00000     0.00000
 Structure written by MMmdl.
 35 36  0  0  0  0  0  0  0  0  2 V2000
  148.7281  141.3743  154.9919 C   0  0  0  0  0  0  0  0  0  0  0  0
  149.9600  141.1473  155.8512 C   0  0  0  0  0  0  0  0  0  0  0  0
  150.1760  142.1285  156.8010 N   0  0  0  0  0  0  0  0  0  0  0  0
  151.2794  142.0319  157.6382 C   0  0  0  0  0  0  0  0  0  0  0  0
  151.3860  143.0639  158.5679 N   0  0  0  0  0  0  0  0  0  0  0  0
  152.5285  143.1136  159.4786 C   0  0  0  0  0  0  0  0  0  0  0  0
  152.2310  144.0046  160.6963 C   0  0  0  0  0  0  0  0  0  0  0  0
  151.8501  145.3023  160.2574 O   0  0  0  0  0  0  0  0  0  0  0  0
  150.6718  145.2585  159.4633 C   0  0  0  0  0  0  0  0  0  0  0  0
  150.9226  144.4036  158.2095 C   0  0  0  0  0  0  0  0  0  0  0  0
  152.1392  141.0576  157.5711 N   0  0  0  0  0  0  0  0  0  0  0  0
  151.9817  140.0365  156.6218 C   0  0  0  0  0  0  0  0  0  0  0  0
  152.8113  139.1316  156.5463 O   0  0  0  0  0  0  0  0  0  0  0  0
  150.8030  140.0930  155.7280 C   0  0  0  0  0  0  0  0  0  0  0  0
  150.6117  138.9927  154.6789 C   0  0  0  0  0  0  0  0  0  0  0  0
  149.8542  137.7427  155.1817 C   0  0  0  0  0  0  0  0  0  0  0  0
  150.7900  136.6837  155.7690 C   0  0  0  0  0  0  0  0  0  0  0  0
  150.2586  135.6673  156.2677 O   0  0  0  0  0  0  0  0  0  0  0  0
  152.0181  136.9099  155.7080 O   0  5  0  0  0  0  0  0  0  0  0  0
  149.5085  142.8830  156.8602 H   0  0  0  0  0  0  0  0  0  0  0  0
  147.9858  140.5974  155.1717 H   0  0  0  0  0  0  0  0  0  0  0  0
  148.9892  141.3702  153.9336 H   0  0  0  0  0  0  0  0  0  0  0  0
  148.2595  142.3343  155.2122 H   0  0  0  0  0  0  0  0  0  0  0  0
  153.3965  143.4961  158.9399 H   0  0  0  0  0  0  0  0  0  0  0  0
  152.7818  142.1086  159.8198 H   0  0  0  0  0  0  0  0  0  0  0  0
  151.4424  143.5699  161.3129 H   0  0  0  0  0  0  0  0  0  0  0  0
  153.1173  144.0887  161.3253 H   0  0  0  0  0  0  0  0  0  0  0  0
  149.8398  144.8589  160.0455 H   0  0  0  0  0  0  0  0  0  0  0  0
  150.4002  146.2744  159.1764 H   0  0  0  0  0  0  0  0  0  0  0  0
  150.0075  144.3564  157.6181 H   0  0  0  0  0  0  0  0  0  0  0  0
  151.6776  144.8789  157.5816 H   0  0  0  0  0  0  0  0  0  0  0  0
  151.5723  138.6913  154.2593 H   0  0  0  0  0  0  0  0  0  0  0  0
  150.0677  139.4136  153.8339 H   0  0  0  0  0  0  0  0  0  0  0  0
  149.1105  138.0170  155.9289 H   0  0  0  0  0  0  0  0  0  0  0  0
  149.3006  137.2950  154.3558 H   0  0  0  0  0  0  0  0  0  0  0  0
  1 21  1  0  0  0  0
  1 22  1  0  0  0  0
  1 23  1  0  0  0  0
  1  2  1  0  0  0  0
  2 14  2  0  0  0  0
  2  3  1  0  0  0  0
  3 20  1  0  0  0  0
  3  4  1  0  0  0  0
  4  5  1  0  0  0  0
  4 11  2  0  0  0  0
  5 10  1  0  0  0  0
  5  6  1  0  0  0  0
  6  7  1  0  0  0  0
  6 24  1  0  0  0  0
  6 25  1  0  0  0  0
  7  8  1  0  0  0  0
  7 26  1  0  0  0  0
  7 27  1  0  0  0  0
  8  9  1  0  0  0  0
  9 10  1  0  0  0  0
  9 28  1  0  0  0  0
  9 29  1  0  0  0  0
 10 30  1  0  0  0  0
 10 31  1  0  0  0  0
 11 12  1  0  0  0  0
 12 13  2  0  0  0  0
 12 14  1  0  0  0  0
 14 15  1  0  0  0  0
 15 16  1  0  0  0  0
 15 32  1  0  0  0  0
 15 33  1  0  0  0  0
 16 17  1  0  0  0  0
 16 34  1  0  0  0  0
 16 35  1  0  0  0  0
 17 18  2  0  0  0  0
 17 19  1  0  0  0  0
M  CHG  1  19  -1
M  END
> <s_m_source_file>
AV-unprocessed.smi

> <i_m_source_file_index>
581

> <i_lp_mmshare_version>
43012

> <i_f3d_flags>
0

> <s_epik_input>
W0NIMl0xW0NIMl1PW0NIMl1bQ0gyXU4xYyhuYzJbQ0gzXSlbbkhdYyg9TyljMltDSDJdW0NIMl1DKD1PKVtPSF0=

> <s_epik_cmdline>
J2VwaWtfcHl0aG9uJywgJy1waCcsICc3LjAnLCAnLXRuJywgJzgnLCAnLW1hJywgJzIwMCcsICctbWV0YWxfYmluZGluZycsICctaW1hZScsICc8aW5maWxlLm1hZT4nLCAnLW9tYWUnLCAnPG91dGZpbGUubWFlPic=

> <r_lp_tautomer_probability>
0.108306

> <r_epik_Ionization_Penalty>
0.0702858

> <r_epik_Ionization_Penalty_Charging>
0.050334

> <r_epik_Ionization_Penalty_Neutral>
0.0199519

> <r_epik_State_Penalty>
1.38976

> <r_epik_Charging_Adjusted_Penalty>
1.44009

> <i_epik_Tot_Q>
-1

> <i_epik_Tot_abs_Q>
1

> <r_epik_Metal_State_Penalty>
1.61644

> <b_epik_Metal_Only>
0

> <s_lp_Force_Field>
OPLS_2005

> <r_lp_Energy>
27.984

> <b_lp_Chiralities_Consistent>
1

> <s_lp_Variant>
AV-unprocessed.smi:581-2

> <Gold.Version>
5.8.1

> <Gold.Id.Protein>
6NUR|6NUR_protein|mol2

> <Gold.PLP.Fitness>
48.6581

> <Gold.PLP.PLP>
-38.1645

> <Gold.PLP.part.hbond>
-3.0000

> <Gold.PLP.part.metal>
0.0000

> <Gold.PLP.part.buried>
-1.0977

> <Gold.PLP.part.nonpolar>
-32.7152

> <Gold.PLP.part.repulsive>
0.3472

> <Gold.PLP.ligand.clash>
0.0000

> <Gold.PLP.ligand.torsion>
0.7812

> <Gold.PLP.Chemscore.Hbond>
3.9048

> <Gold.PLP.Chemscore.CHOScore>
0.0000

> <Gold.PLP.Chemscore.Metal>
0.0000

> <Gold.Chemscore.Hbonds>
donor molecule, donor type, donor heavy atom, donor atom, acceptor molecule, acceptor atom, score
      L1  H     3    20       P1  8028  0.29
      P1  H  7997  8009       L1    13  1.00
      P1  H 10752 10764       L1    19  2.00

> <Gold.PLP.Chemscore.Internal.Correction>
0.3415

> <Gold.Rescore>
     Score         DG    S(hbond)    S(metal)    S(lipo)     H(rot)  DE(clash)    DE(int)     intcor
     13.75     -16.44       1.89        0.00      81.09       1.89       0.50       2.19       ----

> <Gold.Chemscore.Fitness>
13.7471

> <Gold.Chemscore.DG>
-16.4368

> <Gold.Chemscore.ZeroCoef>
-5.4800

> <Gold.Chemscore.Hbond>
1.8876

> <Gold.Chemscore.Metal>
0.0000

> <Gold.Chemscore.Lipo>
81.0947

> <Gold.Chemscore.Internal_Hbond>
0.0000

> <Gold.Chemscore.DEClash>
0.4967

> <Gold.Chemscore.DEInternal>
2.1930

> <Gold.Chemscore.Rot>
1.8890

> <Gold.Chemscore.Internal.Correction>
   9.000000E+99

> <Gold.Chemscore.Hbonds>
donor molecule, donor type, donor heavy atom, donor atom, acceptor molecule, acceptor atom, score
      L1  H     3    20       P1  8028  0.29
      P1  H  7997  8009       L1    13  0.30
      P1  H 10752 10764       L1    19  0.81

> <Gold.Chemscore.Hbond.Weighted>
-6.3045

> <Gold.Chemscore.Metal.Weighted>
-0.0000

> <Gold.Chemscore.Lipo.Weighted>
-9.4881

> <Gold.Chemscore.Internal_Hbond.Weighted>
0.0000

> <Gold.Chemscore.DEClash.Weighted>
0.4967

> <Gold.Chemscore.DEInternal.Weighted>
2.1930

> <Gold.Chemscore.Rot.Weighted>
4.8357

> <Gold.Chemscore.Internal.Correction.Weighted>
   9.000000E+99

> <Gold.Protein.RotatedTorsions>
[ 6907 6896 6895 6894 ] final -111.16 input  -60.11 | X-H torsion
[ 7974 7965 7964 7962 ] final -160.80 input  175.53 | X-H torsion
[ 8008 7997 7996 7995 ] final -175.96 input   59.86 | X-H torsion
[ 10167 10162 10161 10158 ] final  -82.27 input  -65.29 | X-H torsion
[ 10718 10713 10712 10709 ] final  108.44 input   66.30 | X-H torsion
[ 10763 10752 10751 10750 ] final  -50.57 input  -60.55 | X-H torsion
[ 11005 11000 10999 10996 ] final  -38.81 input  -57.11 | X-H torsion

> <Gold.Protein.ActiveResidues>
 VAL166  LYS551  ARG553  GLY616  TRP617  ASP618  TYR619  PRO620  LYS621  CYS622 
 ASP623  PHE694  ASN695  SER759  ASP760  ASP761  ALA762  ILE779  LEU786  VAL792 
 PHE793  MET794  SER795  GLU796  ALA797  LYS798  CYS799  TRP800  GLU811  SER814 

> <Gold.Protein.RotatedAtoms>
  150.7672  133.9275  159.3416 H   0  0  0  0  0  0  0  0  0  0  0  0  # atno 6907 bound_to 6896
  151.7170  135.0900  160.0287 H   0  0  0  0  0  0  0  0  0  0  0  0  # atno 6908 bound_to 6896
  152.3673  133.6336  159.6096 H   0  0  0  0  0  0  0  0  0  0  0  0  # atno 6909 bound_to 6896
  144.7414  140.3490  143.6119 H   0  0  0  0  0  0  0  0  0  0  0  0  # atno 7974 bound_to 7965
  155.9890  140.1197  157.0656 H   0  0  0  0  0  0  0  0  0  0  0  0  # atno 8008 bound_to 7997
  154.4206  140.1129  156.5608 H   0  0  0  0  0  0  0  0  0  0  0  0  # atno 8009 bound_to 7997
  155.6368  140.3473  155.4703 H   0  0  0  0  0  0  0  0  0  0  0  0  # atno 8010 bound_to 7997
  140.4336  143.2540  151.8725 H   0  0  0  0  0  0  0  0  0  0  0  0  # atno 10167 bound_to 10162
  157.6586  131.0894  150.6306 H   0  0  0  0  0  0  0  0  0  0  0  0  # atno 10718 bound_to 10713
  154.1124  135.6547  153.4887 H   0  0  0  0  0  0  0  0  0  0  0  0  # atno 10763 bound_to 10752
  153.0252  135.5251  154.7178 H   0  0  0  0  0  0  0  0  0  0  0  0  # atno 10764 bound_to 10752
  154.6362  135.2982  155.0128 H   0  0  0  0  0  0  0  0  0  0  0  0  # atno 10765 bound_to 10752
  141.0055  133.6934  156.2103 H   0  0  0  0  0  0  0  0  0  0  0  0  # atno 11005 bound_to 11000
  145.7296  139.1732  143.2438 LP  0  0  0  0  0  0  0  0  0  0  0  0  # atno 17320 bound_to 7965
  146.1216  140.7301  142.9455 LP  0  0  0  0  0  0  0  0  0  0  0  0  # atno 17321 bound_to 7965
  139.4786  144.5308  151.8669 LP  0  0  0  0  0  0  0  0  0  0  0  0  # atno 17342 bound_to 10162
  140.4400  144.2000  150.5891 LP  0  0  0  0  0  0  0  0  0  0  0  0  # atno 17343 bound_to 10162
  156.6611  130.4512  149.5687 LP  0  0  0  0  0  0  0  0  0  0  0  0  # atno 17370 bound_to 10713
  156.2067  130.6653  151.1225 LP  0  0  0  0  0  0  0  0  0  0  0  0  # atno 17371 bound_to 10713
  140.6819  134.4758  157.5589 LP  0  0  0  0  0  0  0  0  0  0  0  0  # atno 17394 bound_to 11000
  139.9061  134.8446  156.1701 LP  0  0  0  0  0  0  0  0  0  0  0  0  # atno 17395 bound_to 11000

$$$$
