AV-unprocessed.smi:942|AV-procd|sdf|4227|dock10
  -GOLD-   22720 2133D 1   1.00000     0.00000
 Structure written by MMmdl.
 42 44  0  0  0  0  0  0  0  0  1 V2000
  148.8492  141.0061  157.5116 O   0  0  0  0  0  0  0  0  0  0  0  0
  149.8792  141.6378  157.2748 C   0  0  0  0  0  0  0  0  0  0  0  0
  150.3734  141.8030  156.0393 N   0  0  0  0  0  0  0  0  0  0  0  0
  149.7471  141.3306  154.8041 C   0  0  2  0  0  0  0  0  0  0  0  0
  148.2432  141.6803  154.7859 C   0  0  0  0  0  0  0  0  0  0  0  0
  147.4788  140.3492  154.8178 C   0  0  0  0  0  0  0  0  0  0  0  0
  148.4918  139.3127  155.3004 C   0  0  0  0  0  0  0  0  0  0  0  0
  149.8095  139.7920  154.6835 C   0  0  2  0  0  0  0  0  0  0  0  0
  151.0181  139.1826  155.2323 N   0  0  0  0  0  0  0  0  0  0  0  0
  151.1279  138.1919  156.2039 C   0  0  0  0  0  0  0  0  0  0  0  0
  152.4722  137.9492  156.3722 C   0  0  0  0  0  0  0  0  0  0  0  0
  153.2065  138.7588  155.5104 N   0  0  0  0  0  0  0  0  0  0  0  0
  152.2793  139.4519  154.8633 C   0  0  0  0  0  0  0  0  0  0  0  0
  150.6653  142.2991  158.4141 C   0  0  0  0  0  0  0  0  0  0  0  0
  150.8361  143.8137  158.1713 C   0  0  0  0  0  0  0  0  0  0  0  0
  151.6363  144.4734  159.3067 C   0  0  0  0  0  0  0  0  0  0  0  0
  153.0017  143.7935  159.4954 C   0  0  0  0  0  0  0  0  0  0  0  0
  152.8434  142.2827  159.7282 C   0  0  0  0  0  0  0  0  0  0  0  0
  152.0426  141.6256  158.5922 C   0  0  0  0  0  0  0  0  0  0  0  0
  151.2266  142.3340  155.9400 H   0  0  0  0  0  0  0  0  0  0  0  0
  150.2562  141.7776  153.9481 H   0  0  0  0  0  0  0  0  0  0  0  0
  147.9664  142.2931  155.6452 H   0  0  0  0  0  0  0  0  0  0  0  0
  147.9817  142.2516  153.8947 H   0  0  0  0  0  0  0  0  0  0  0  0
  146.5930  140.3922  155.4523 H   0  0  0  0  0  0  0  0  0  0  0  0
  147.1497  140.0938  153.8098 H   0  0  0  0  0  0  0  0  0  0  0  0
  148.5418  139.3424  156.3896 H   0  0  0  0  0  0  0  0  0  0  0  0
  148.2276  138.2983  154.9999 H   0  0  0  0  0  0  0  0  0  0  0  0
  149.7840  139.5382  153.6222 H   0  0  0  0  0  0  0  0  0  0  0  0
  150.2711  137.7503  156.6903 H   0  0  0  0  0  0  0  0  0  0  0  0
  152.9634  137.2550  157.0381 H   0  0  0  0  0  0  0  0  0  0  0  0
  152.5237  140.1830  154.1066 H   0  0  0  0  0  0  0  0  0  0  0  0
  150.1022  142.1671  159.3401 H   0  0  0  0  0  0  0  0  0  0  0  0
  151.3483  143.9884  157.2237 H   0  0  0  0  0  0  0  0  0  0  0  0
  149.8601  144.2934  158.0875 H   0  0  0  0  0  0  0  0  0  0  0  0
  151.7751  145.5342  159.0963 H   0  0  0  0  0  0  0  0  0  0  0  0
  151.0679  144.4144  160.2358 H   0  0  0  0  0  0  0  0  0  0  0  0
  153.6194  143.9635  158.6126 H   0  0  0  0  0  0  0  0  0  0  0  0
  153.5300  144.2461  160.3349 H   0  0  0  0  0  0  0  0  0  0  0  0
  153.8250  141.8148  159.8096 H   0  0  0  0  0  0  0  0  0  0  0  0
  152.3389  142.1088  160.6794 H   0  0  0  0  0  0  0  0  0  0  0  0
  151.9168  140.5626  158.8030 H   0  0  0  0  0  0  0  0  0  0  0  0
  152.6158  141.6905  157.6659 H   0  0  0  0  0  0  0  0  0  0  0  0
  1  2  2  0  0  0  0
  2  3  1  0  0  0  0
  2 14  1  0  0  0  0
  3  4  1  0  0  0  0
  3 20  1  0  0  0  0
  4  8  1  0  0  0  0
  4  5  1  0  0  0  0
  4 21  1  0  0  0  0
  5  6  1  0  0  0  0
  5 22  1  0  0  0  0
  5 23  1  0  0  0  0
  6  7  1  0  0  0  0
  6 24  1  0  0  0  0
  6 25  1  0  0  0  0
  7  8  1  0  0  0  0
  7 26  1  0  0  0  0
  7 27  1  0  0  0  0
  8  9  1  0  0  0  0
  8 28  1  0  0  0  0
  9 13  1  0  0  0  0
  9 10  1  0  0  0  0
 10 11  2  0  0  0  0
 10 29  1  0  0  0  0
 11 12  1  0  0  0  0
 11 30  1  0  0  0  0
 12 13  2  0  0  0  0
 13 31  1  0  0  0  0
 14 19  1  0  0  0  0
 14 15  1  0  0  0  0
 14 32  1  0  0  0  0
 15 16  1  0  0  0  0
 15 33  1  0  0  0  0
 15 34  1  0  0  0  0
 16 17  1  0  0  0  0
 16 35  1  0  0  0  0
 16 36  1  0  0  0  0
 17 18  1  0  0  0  0
 17 37  1  0  0  0  0
 17 38  1  0  0  0  0
 18 19  1  0  0  0  0
 18 39  1  0  0  0  0
 18 40  1  0  0  0  0
 19 41  1  0  0  0  0
 19 42  1  0  0  0  0
M  END
> <s_m_source_file>
AV-unprocessed.smi

> <i_m_source_file_index>
942

> <i_lp_mmshare_version>
43012

> <i_f3d_flags>
0

> <s_epik_input>
W0NIMl0xW0NIMl1bQ0gyXVtDSDJdW0NIMl1bQ0hdMUMoPU8pW05IXVtDQEBIXTJbQ0gyXVtDSDJdW0NIMl1bQ0BIXTJuM1tjSF1bY0hdbltjSF0z

> <s_epik_cmdline>
J2VwaWtfcHl0aG9uJywgJy1waCcsICc3LjAnLCAnLXRuJywgJzgnLCAnLW1hJywgJzIwMCcsICctbWV0YWxfYmluZGluZycsICctaW1hZScsICc8aW5maWxlLm1hZT4nLCAnLW9tYWUnLCAnPG91dGZpbGUubWFlPic=

> <r_lp_tautomer_probability>
1

> <r_epik_Ionization_Penalty>
0.778458

> <r_epik_Ionization_Penalty_Charging>
0.778458

> <r_epik_Ionization_Penalty_Neutral>
2.79355e-08

> <r_epik_State_Penalty>
0.807804

> <r_epik_Charging_Adjusted_Penalty>
1.58626

> <i_epik_Tot_Q>
0

> <i_epik_Tot_abs_Q>
0

> <r_epik_Metal_State_Penalty>
0.343007

> <b_epik_Metal_Only>
0

> <s_lp_Force_Field>
OPLS_2005

> <r_lp_Energy>
33.2669

> <b_lp_Chiralities_Consistent>
1

> <s_lp_Variant>
AV-unprocessed.smi:942-7

> <Gold.Version>
5.8.1

> <Gold.Id.Protein>
6NUR|6NUR_protein|mol2

> <Gold.PLP.Fitness>
37.8113

> <Gold.PLP.PLP>
-35.2067

> <Gold.PLP.part.hbond>
-1.0607

> <Gold.PLP.part.metal>
0.0000

> <Gold.PLP.part.buried>
-2.1093

> <Gold.PLP.part.nonpolar>
-31.6705

> <Gold.PLP.part.repulsive>
0.1579

> <Gold.PLP.ligand.clash>
0.0000

> <Gold.PLP.ligand.torsion>
0.2085

> <Gold.PLP.Chemscore.Hbond>
1.0000

> <Gold.PLP.Chemscore.CHOScore>
0.0000

> <Gold.PLP.Chemscore.Metal>
0.0000

> <Gold.Chemscore.Hbonds>
donor molecule, donor type, donor heavy atom, donor atom, acceptor molecule, acceptor atom, score
      P1  H  7997  8008       L1    12  1.00

> <Gold.PLP.Chemscore.Internal.Correction>
0.0216

> <Gold.Rescore>
     Score         DG    S(hbond)    S(metal)    S(lipo)     H(rot)  DE(clash)    DE(int)     intcor
     12.06     -15.41       0.69        0.00      96.82       1.44       0.59       2.76       ----

> <Gold.Chemscore.Fitness>
12.0575

> <Gold.Chemscore.DG>
-15.4105

> <Gold.Chemscore.ZeroCoef>
-5.4800

> <Gold.Chemscore.Hbond>
0.6850

> <Gold.Chemscore.Metal>
0.0000

> <Gold.Chemscore.Lipo>
96.8181

> <Gold.Chemscore.Internal_Hbond>
0.0000

> <Gold.Chemscore.DEClash>
0.5916

> <Gold.Chemscore.DEInternal>
2.7614

> <Gold.Chemscore.Rot>
1.4395

> <Gold.Chemscore.Internal.Correction>
   9.000000E+99

> <Gold.Chemscore.Hbonds>
donor molecule, donor type, donor heavy atom, donor atom, acceptor molecule, acceptor atom, score
      P1  H  7997  8008       L1    12  0.33

> <Gold.Chemscore.Hbond.Weighted>
-2.2880

> <Gold.Chemscore.Metal.Weighted>
-0.0000

> <Gold.Chemscore.Lipo.Weighted>
-11.3277

> <Gold.Chemscore.Internal_Hbond.Weighted>
0.0000

> <Gold.Chemscore.DEClash.Weighted>
0.5916

> <Gold.Chemscore.DEInternal.Weighted>
2.7614

> <Gold.Chemscore.Rot.Weighted>
3.6852

> <Gold.Chemscore.Internal.Correction.Weighted>
   9.000000E+99

> <Gold.Protein.RotatedTorsions>
[ 6907 6896 6895 6894 ] final  115.51 input  -60.11 | X-H torsion
[ 7974 7965 7964 7962 ] final  -63.80 input  175.53 | X-H torsion
[ 8008 7997 7996 7995 ] final  -28.60 input   59.86 | X-H torsion
[ 10167 10162 10161 10158 ] final  -66.85 input  -65.29 | X-H torsion
[ 10718 10713 10712 10709 ] final   39.29 input   66.30 | X-H torsion
[ 10763 10752 10751 10750 ] final -105.85 input  -60.55 | X-H torsion
[ 11005 11000 10999 10996 ] final  -73.05 input  -57.11 | X-H torsion

> <Gold.Protein.ActiveResidues>
 VAL166  LYS551  ARG553  GLY616  TRP617  ASP618  TYR619  PRO620  LYS621  CYS622 
 ASP623  PHE694  ASN695  SER759  ASP760  ASP761  ALA762  ILE779  LEU786  VAL792 
 PHE793  MET794  SER795  GLU796  ALA797  LYS798  CYS799  TRP800  GLU811  SER814 

> <Gold.Protein.RotatedAtoms>
  152.4737  133.8088  159.6992 H   0  0  0  0  0  0  0  0  0  0  0  0  # atno 6907 bound_to 6896
  150.8741  133.7454  159.2958 H   0  0  0  0  0  0  0  0  0  0  0  0  # atno 6908 bound_to 6896
  151.4980  135.1064  159.9873 H   0  0  0  0  0  0  0  0  0  0  0  0  # atno 6909 bound_to 6896
  145.7746  140.8794  143.0362 H   0  0  0  0  0  0  0  0  0  0  0  0  # atno 7974 bound_to 7965
  154.4325  140.1841  156.1115 H   0  0  0  0  0  0  0  0  0  0  0  0  # atno 8008 bound_to 7997
  156.0214  140.3340  155.7017 H   0  0  0  0  0  0  0  0  0  0  0  0  # atno 8009 bound_to 7997
  155.5970  140.0636  157.2734 H   0  0  0  0  0  0  0  0  0  0  0  0  # atno 8010 bound_to 7997
  140.5626  143.2313  151.6697 H   0  0  0  0  0  0  0  0  0  0  0  0  # atno 10167 bound_to 10162
  157.3688  130.7690  149.7103 H   0  0  0  0  0  0  0  0  0  0  0  0  # atno 10718 bound_to 10713
  154.7974  135.4734  154.0193 H   0  0  0  0  0  0  0  0  0  0  0  0  # atno 10763 bound_to 10752
  153.1725  135.6827  153.8595 H   0  0  0  0  0  0  0  0  0  0  0  0  # atno 10764 bound_to 10752
  153.8172  135.3209  155.3384 H   0  0  0  0  0  0  0  0  0  0  0  0  # atno 10765 bound_to 10752
  141.1617  133.6866  156.7153 H   0  0  0  0  0  0  0  0  0  0  0  0  # atno 11005 bound_to 11000
  144.6806  139.9903  143.7484 LP  0  0  0  0  0  0  0  0  0  0  0  0  # atno 17320 bound_to 7965
  146.0135  139.3190  143.0856 LP  0  0  0  0  0  0  0  0  0  0  0  0  # atno 17321 bound_to 7965
  139.5077  144.3635  152.0539 LP  0  0  0  0  0  0  0  0  0  0  0  0  # atno 17342 bound_to 10162
  140.2764  144.3908  150.6134 LP  0  0  0  0  0  0  0  0  0  0  0  0  # atno 17343 bound_to 10162
  155.9751  130.4093  150.3871 LP  0  0  0  0  0  0  0  0  0  0  0  0  # atno 17370 bound_to 10713
  157.1959  131.0426  151.2676 LP  0  0  0  0  0  0  0  0  0  0  0  0  # atno 17371 bound_to 10713
  140.2857  134.8281  157.3972 LP  0  0  0  0  0  0  0  0  0  0  0  0  # atno 17394 bound_to 11000
  140.1393  134.4993  155.8044 LP  0  0  0  0  0  0  0  0  0  0  0  0  # atno 17395 bound_to 11000

$$$$
