AV-unprocessed.smi:1523|AV-procd|sdf|6138|dock1
  -GOLD-   22720 6283D 1   1.00000     0.00000
 Structure written by MMmdl.
 37 38  0  0  0  0  0  0  0  0  1 V2000
  153.9339  141.2876  161.2955 C   0  0  0  0  0  0  0  0  0  0  0  0
  152.9958  142.3646  160.8702 C   0  0  0  0  0  0  0  0  0  0  0  0
  152.4398  142.4206  159.6574 N   0  0  0  0  0  0  0  0  0  0  0  0
  151.5970  143.5259  159.5015 C   0  0  0  0  0  0  0  0  0  0  0  0
  150.8811  143.7432  158.2031 C   0  0  0  0  0  0  0  0  0  0  0  0
  151.1095  142.5882  157.2144 C   0  0  0  0  0  0  0  0  0  0  0  0
  149.8720  142.2014  156.5470 N   0  0  0  0  0  0  0  0  0  0  0  0
  149.3233  140.9748  156.5736 C   0  0  0  0  0  0  0  0  0  0  0  0
  149.8425  140.0408  157.1862 O   0  0  0  0  0  0  0  0  0  0  0  0
  148.1648  140.8544  155.8757 N   0  0  0  0  0  0  0  0  0  0  0  0
  147.5825  141.8585  154.9670 C   0  0  0  0  0  0  0  0  0  0  0  0
  147.7376  141.3647  153.5170 C   0  0  0  0  0  0  0  0  0  0  0  0
  147.0796  139.9813  153.3405 C   0  0  0  0  0  0  0  0  0  0  0  0
  147.3677  139.4738  152.0551 O   0  0  0  0  0  0  0  0  0  0  0  0
  147.5573  138.9854  154.4162 C   0  0  0  0  0  0  0  0  0  0  0  0
  147.4137  139.5923  155.8247 C   0  0  0  0  0  0  0  0  0  0  0  0
  151.5238  144.3126  160.6241 C   0  0  0  0  0  0  0  0  0  0  0  0
  152.5138  143.6939  161.9172 S   0  0  0  0  0  0  0  0  0  0  0  0
  153.6897  140.3506  160.7941 H   0  0  0  0  0  0  0  0  0  0  0  0
  153.8666  141.1335  162.3726 H   0  0  0  0  0  0  0  0  0  0  0  0
  154.9577  141.5648  161.0441 H   0  0  0  0  0  0  0  0  0  0  0  0
  149.8125  143.8618  158.3873 H   0  0  0  0  0  0  0  0  0  0  0  0
  151.2112  144.6796  157.7513 H   0  0  0  0  0  0  0  0  0  0  0  0
  151.8228  142.8906  156.4472 H   0  0  0  0  0  0  0  0  0  0  0  0
  151.5484  141.7286  157.7241 H   0  0  0  0  0  0  0  0  0  0  0  0
  149.3950  142.9198  156.0223 H   0  0  0  0  0  0  0  0  0  0  0  0
  146.5249  141.9824  155.2046 H   0  0  0  0  0  0  0  0  0  0  0  0
  148.0154  142.8536  155.0684 H   0  0  0  0  0  0  0  0  0  0  0  0
  147.2937  142.0835  152.8275 H   0  0  0  0  0  0  0  0  0  0  0  0
  148.7986  141.3083  153.2681 H   0  0  0  0  0  0  0  0  0  0  0  0
  145.9974  140.0924  153.4209 H   0  0  0  0  0  0  0  0  0  0  0  0
  148.2870  139.6044  151.8787 H   0  0  0  0  0  0  0  0  0  0  0  0
  146.9897  138.0567  154.3485 H   0  0  0  0  0  0  0  0  0  0  0  0
  148.6025  138.7237  154.2433 H   0  0  0  0  0  0  0  0  0  0  0  0
  147.7438  138.8712  156.5738 H   0  0  0  0  0  0  0  0  0  0  0  0
  146.3631  139.7862  156.0451 H   0  0  0  0  0  0  0  0  0  0  0  0
  150.9481  145.2148  160.7685 H   0  0  0  0  0  0  0  0  0  0  0  0
  1  2  1  0  0  0  0
  1 19  1  0  0  0  0
  1 20  1  0  0  0  0
  1 21  1  0  0  0  0
  2 18  1  0  0  0  0
  2  3  2  0  0  0  0
  3  4  1  0  0  0  0
  4  5  1  0  0  0  0
  4 17  2  0  0  0  0
  5  6  1  0  0  0  0
  5 22  1  0  0  0  0
  5 23  1  0  0  0  0
  6  7  1  0  0  0  0
  6 24  1  0  0  0  0
  6 25  1  0  0  0  0
  7  8  1  0  0  0  0
  7 26  1  0  0  0  0
  8  9  2  0  0  0  0
  8 10  1  0  0  0  0
 10 16  1  0  0  0  0
 10 11  1  0  0  0  0
 11 12  1  0  0  0  0
 11 27  1  0  0  0  0
 11 28  1  0  0  0  0
 12 13  1  0  0  0  0
 12 29  1  0  0  0  0
 12 30  1  0  0  0  0
 13 14  1  0  0  0  0
 13 15  1  0  0  0  0
 13 31  1  0  0  0  0
 14 32  1  0  0  0  0
 15 16  1  0  0  0  0
 15 33  1  0  0  0  0
 15 34  1  0  0  0  0
 16 35  1  0  0  0  0
 16 36  1  0  0  0  0
 17 18  1  0  0  0  0
 17 37  1  0  0  0  0
M  END
> <s_m_source_file>
AV-unprocessed.smi

> <i_m_source_file_index>
1523

> <i_lp_mmshare_version>
43012

> <i_f3d_flags>
0

> <s_epik_input>
W0NIM11jMW5jKFtjSF1zMSlbQ0gyXVtDSDJdW05IXUMoPU8pTjJbQ0gyXVtDSDJdW0NIXShbT0hdKVtDSDJdW0NIMl0y

> <s_epik_cmdline>
J2VwaWtfcHl0aG9uJywgJy1waCcsICc3LjAnLCAnLXRuJywgJzgnLCAnLW1hJywgJzIwMCcsICctbWV0YWxfYmluZGluZycsICctaW1hZScsICc8aW5maWxlLm1hZT4nLCAnLW9tYWUnLCAnPG91dGZpbGUubWFlPic=

> <r_epik_Ionization_Penalty>
0.00204564

> <r_epik_Ionization_Penalty_Charging>
0

> <r_epik_Ionization_Penalty_Neutral>
0.00204564

> <r_epik_State_Penalty>
0.00135655

> <r_epik_Charging_Adjusted_Penalty>
0.00135655

> <i_epik_Tot_Q>
0

> <i_epik_Tot_abs_Q>
0

> <r_epik_Metal_State_Penalty>
-0

> <b_epik_Metal_Only>
0

> <s_lp_Force_Field>
OPLS_2005

> <r_lp_Energy>
24.1717

> <b_lp_Chiralities_Consistent>
1

> <s_lp_Variant>
AV-unprocessed.smi:1523-1

> <Gold.Version>
5.8.1

> <Gold.Id.Protein>
6NUR|6NUR_protein|mol2

> <Gold.PLP.Fitness>
41.6320

> <Gold.PLP.PLP>
-36.3221

> <Gold.PLP.part.hbond>
-1.6948

> <Gold.PLP.part.metal>
0.0000

> <Gold.PLP.part.buried>
-6.0027

> <Gold.PLP.part.nonpolar>
-28.5606

> <Gold.PLP.part.repulsive>
0.0559

> <Gold.PLP.ligand.clash>
0.0000

> <Gold.PLP.ligand.torsion>
0.3546

> <Gold.PLP.Chemscore.Hbond>
2.0000

> <Gold.PLP.Chemscore.CHOScore>
0.0000

> <Gold.PLP.Chemscore.Metal>
0.0000

> <Gold.Chemscore.Hbonds>
donor molecule, donor type, donor heavy atom, donor atom, acceptor molecule, acceptor atom, score
      L1  H     7    26       P1  8028  1.00
      L1  H    14    32       P1  7957  1.00

> <Gold.PLP.Chemscore.Internal.Correction>
0.0191

> <Gold.Rescore>
     Score         DG    S(hbond)    S(metal)    S(lipo)     H(rot)  DE(clash)    DE(int)     intcor
     18.46     -19.07       1.98        0.00     100.31       1.86       0.22       0.39       ----

> <Gold.Chemscore.Fitness>
18.4585

> <Gold.Chemscore.DG>
-19.0656

> <Gold.Chemscore.ZeroCoef>
-5.4800

> <Gold.Chemscore.Hbond>
1.9799

> <Gold.Chemscore.Metal>
0.0000

> <Gold.Chemscore.Lipo>
100.3081

> <Gold.Chemscore.Internal_Hbond>
0.0000

> <Gold.Chemscore.DEClash>
0.2195

> <Gold.Chemscore.DEInternal>
0.3876

> <Gold.Chemscore.Rot>
1.8607

> <Gold.Chemscore.Internal.Correction>
   9.000000E+99

> <Gold.Chemscore.Hbonds>
donor molecule, donor type, donor heavy atom, donor atom, acceptor molecule, acceptor atom, score
      L1  H     7    26       P1  8028  0.97
      L1  H    14    32       P1  7957  0.94

> <Gold.Chemscore.Hbond.Weighted>
-6.6129

> <Gold.Chemscore.Metal.Weighted>
-0.0000

> <Gold.Chemscore.Lipo.Weighted>
-11.7360

> <Gold.Chemscore.Internal_Hbond.Weighted>
0.0000

> <Gold.Chemscore.DEClash.Weighted>
0.2195

> <Gold.Chemscore.DEInternal.Weighted>
0.3876

> <Gold.Chemscore.Rot.Weighted>
4.7633

> <Gold.Chemscore.Internal.Correction.Weighted>
   9.000000E+99

> <Gold.Protein.RotatedTorsions>
[ 6907 6896 6895 6894 ] final  -46.22 input  -60.11 | X-H torsion
[ 7974 7965 7964 7962 ] final -140.46 input  175.53 | X-H torsion
[ 8008 7997 7996 7995 ] final -166.61 input   59.86 | X-H torsion
[ 10167 10162 10161 10158 ] final  -78.58 input  -65.29 | X-H torsion
[ 10718 10713 10712 10709 ] final   40.98 input   66.30 | X-H torsion
[ 10763 10752 10751 10750 ] final   12.14 input  -60.55 | X-H torsion
[ 11005 11000 10999 10996 ] final  -27.87 input  -57.11 | X-H torsion

> <Gold.Protein.ActiveResidues>
 VAL166  LYS551  ARG553  GLY616  TRP617  ASP618  TYR619  PRO620  LYS621  CYS622 
 ASP623  PHE694  ASN695  SER759  ASP760  ASP761  ALA762  ILE779  LEU786  VAL792 
 PHE793  MET794  SER795  GLU796  ALA797  LYS798  CYS799  TRP800  GLU811  SER814 

> <Gold.Protein.RotatedAtoms>
  150.9135  134.8553  159.7441 H   0  0  0  0  0  0  0  0  0  0  0  0  # atno 6907 bound_to 6896
  152.4957  134.4323  159.9526 H   0  0  0  0  0  0  0  0  0  0  0  0  # atno 6908 bound_to 6896
  151.4363  133.3616  159.2811 H   0  0  0  0  0  0  0  0  0  0  0  0  # atno 6909 bound_to 6896
  144.8596  140.6197  143.5337 H   0  0  0  0  0  0  0  0  0  0  0  0  # atno 7974 bound_to 7965
  155.8662  140.0986  157.1581 H   0  0  0  0  0  0  0  0  0  0  0  0  # atno 8008 bound_to 7997
  154.3994  140.1356  156.4084 H   0  0  0  0  0  0  0  0  0  0  0  0  # atno 8009 bound_to 7997
  155.7802  140.3458  155.5295 H   0  0  0  0  0  0  0  0  0  0  0  0  # atno 8010 bound_to 7997
  140.4669  143.2437  151.8264 H   0  0  0  0  0  0  0  0  0  0  0  0  # atno 10167 bound_to 10162
  157.3884  130.7792  149.7249 H   0  0  0  0  0  0  0  0  0  0  0  0  # atno 10718 bound_to 10713
  153.1853  135.6834  153.8424 H   0  0  0  0  0  0  0  0  0  0  0  0  # atno 10763 bound_to 10752
  153.7742  135.3191  155.3357 H   0  0  0  0  0  0  0  0  0  0  0  0  # atno 10764 bound_to 10752
  154.8084  135.4733  154.0550 H   0  0  0  0  0  0  0  0  0  0  0  0  # atno 10765 bound_to 10752
  140.9158  133.7431  156.0733 H   0  0  0  0  0  0  0  0  0  0  0  0  # atno 11005 bound_to 11000
  145.4339  139.1545  143.4007 LP  0  0  0  0  0  0  0  0  0  0  0  0  # atno 17320 bound_to 7965
  146.2850  140.4456  142.8761 LP  0  0  0  0  0  0  0  0  0  0  0  0  # atno 17321 bound_to 7965
  139.4813  144.4939  151.9149 LP  0  0  0  0  0  0  0  0  0  0  0  0  # atno 17342 bound_to 10162
  140.4025  144.2475  150.5892 LP  0  0  0  0  0  0  0  0  0  0  0  0  # atno 17343 bound_to 10162
  155.9792  130.4042  150.3601 LP  0  0  0  0  0  0  0  0  0  0  0  0  # atno 17370 bound_to 10713
  157.1714  131.0369  151.2793 LP  0  0  0  0  0  0  0  0  0  0  0  0  # atno 17371 bound_to 10713
  140.8052  134.3463  157.5428 LP  0  0  0  0  0  0  0  0  0  0  0  0  # atno 17394 bound_to 11000
  139.8766  134.9221  156.3292 LP  0  0  0  0  0  0  0  0  0  0  0  0  # atno 17395 bound_to 11000

$$$$
