AV-unprocessed.smi:1803|AV-procd|sdf|7293|dock5
  -GOLD-   22720 8553D 1   1.00000     0.00000
 Structure written by MMmdl.
 35 37  0  0  0  0  0  0  0  0  3 V2000
  149.6222  135.5183  157.3703 O   0  0  0  0  0  0  0  0  0  0  0  0
  148.6369  135.0854  157.9665 C   0  0  0  0  0  0  0  0  0  0  0  0
  148.6743  134.6479  159.2516 N   0  5  0  0  0  0  0  0  0  0  0  0
  148.0814  135.3111  160.2617 C   0  0  0  0  0  0  0  0  0  0  0  0
  147.8256  136.6283  160.2067 N   0  0  0  0  0  0  0  0  0  0  0  0
  147.2168  137.1143  161.3554 N   0  0  0  0  0  0  0  0  0  0  0  0
  147.0153  136.1439  162.2464 C   0  0  0  0  0  0  0  0  0  0  0  0
  147.5593  134.5502  161.7663 S   0  0  0  0  0  0  0  0  0  0  0  0
  147.4586  135.0272  157.3165 N   0  0  0  0  0  0  0  0  0  0  0  0
  147.2374  135.3904  155.9207 C   0  0  2  0  0  0  0  0  0  0  0  0
  145.8255  135.0902  155.4351 C   0  0  0  0  0  0  0  0  0  0  0  0
  145.9809  135.0800  153.9108 C   0  0  0  0  0  0  0  0  0  0  0  0
  147.3900  134.7134  153.6243 N   0  3  2  0  0  0  0  0  0  0  0  0
  147.5397  133.5395  152.7229 C   0  0  0  0  0  0  0  0  0  0  0  0
  148.9633  132.9676  152.7965 C   0  0  0  0  0  0  0  0  0  0  0  0
  149.2922  132.4596  154.2130 C   0  0  0  0  0  0  0  0  0  0  0  0
  148.4514  133.1576  155.2991 C   0  0  0  0  0  0  0  0  0  0  0  0
  148.1211  134.6231  154.9197 C   0  0  2  0  0  0  0  0  0  0  0  0
  146.5444  136.3677  163.1920 H   0  0  0  0  0  0  0  0  0  0  0  0
  146.6640  134.6701  157.8270 H   0  0  0  0  0  0  0  0  0  0  0  0
  147.4094  136.4619  155.7979 H   0  0  0  0  0  0  0  0  0  0  0  0
  145.5072  134.1055  155.7812 H   0  0  0  0  0  0  0  0  0  0  0  0
  145.0928  135.8205  155.7802 H   0  0  0  0  0  0  0  0  0  0  0  0
  145.2577  134.4133  153.4391 H   0  0  0  0  0  0  0  0  0  0  0  0
  145.8085  136.0798  153.5110 H   0  0  0  0  0  0  0  0  0  0  0  0
  146.8277  132.7595  152.9983 H   0  0  0  0  0  0  0  0  0  0  0  0
  147.2984  133.8421  151.7035 H   0  0  0  0  0  0  0  0  0  0  0  0
  149.0908  132.1623  152.0725 H   0  0  0  0  0  0  0  0  0  0  0  0
  149.6735  133.7462  152.5145 H   0  0  0  0  0  0  0  0  0  0  0  0
  149.1243  131.3837  154.2744 H   0  0  0  0  0  0  0  0  0  0  0  0
  150.3545  132.6117  154.4072 H   0  0  0  0  0  0  0  0  0  0  0  0
  147.5221  132.6059  155.4471 H   0  0  0  0  0  0  0  0  0  0  0  0
  148.9866  133.1052  156.2477 H   0  0  0  0  0  0  0  0  0  0  0  0
  149.0679  135.1540  154.8099 H   0  0  0  0  0  0  0  0  0  0  0  0
  147.7935  135.5030  153.1408 H   0  0  0  0  0  0  0  0  0  0  0  0
  1  2  2  0  0  0  0
  2  3  1  0  0  0  0
  2  9  1  0  0  0  0
  3  4  1  0  0  0  0
  4  8  1  0  0  0  0
  4  5  2  0  0  0  0
  5  6  1  0  0  0  0
  6  7  2  0  0  0  0
  7  8  1  0  0  0  0
  7 19  1  0  0  0  0
  9 10  1  0  0  0  0
  9 20  1  0  0  0  0
 10 18  1  0  0  0  0
 10 11  1  0  0  0  0
 10 21  1  0  0  0  0
 11 12  1  0  0  0  0
 11 22  1  0  0  0  0
 11 23  1  0  0  0  0
 12 13  1  0  0  0  0
 12 24  1  0  0  0  0
 12 25  1  0  0  0  0
 13 18  1  0  0  0  0
 13 14  1  0  0  0  0
 13 35  1  0  0  0  0
 14 15  1  0  0  0  0
 14 26  1  0  0  0  0
 14 27  1  0  0  0  0
 15 16  1  0  0  0  0
 15 28  1  0  0  0  0
 15 29  1  0  0  0  0
 16 17  1  0  0  0  0
 16 30  1  0  0  0  0
 16 31  1  0  0  0  0
 17 18  1  0  0  0  0
 17 32  1  0  0  0  0
 17 33  1  0  0  0  0
 18 34  1  0  0  0  0
M  CHG  1   3  -1
M  CHG  1  13   1
M  END
> <s_m_source_file>
AV-unprocessed.smi

> <i_m_source_file_index>
1803

> <i_lp_mmshare_version>
43012

> <i_f3d_flags>
0

> <s_epik_input>
czFbY0hdbm5jMVtOSF1DKD1PKVtOSF1bQ0BIXShbQ0gyXVtDSDJdMilbQ0BASF0oTjIzKVtDSDJdW0NIMl1bQ0gyXVtDSDJdMw==

> <s_epik_cmdline>
J2VwaWtfcHl0aG9uJywgJy1waCcsICc3LjAnLCAnLXRuJywgJzgnLCAnLW1hJywgJzIwMCcsICctbWV0YWxfYmluZGluZycsICctaW1hZScsICc8aW5maWxlLm1hZT4nLCAnLW9tYWUnLCAnPG91dGZpbGUubWFlPic=

> <r_lp_tautomer_probability>
1

> <r_epik_Ionization_Penalty>
3.78828

> <r_epik_Ionization_Penalty_Charging>
3.7591

> <r_epik_Ionization_Penalty_Neutral>
0.0291838

> <r_epik_State_Penalty>
3.757

> <r_epik_Charging_Adjusted_Penalty>
7.51609

> <i_epik_Tot_Q>
0

> <i_epik_Tot_abs_Q>
2

> <r_epik_Metal_State_Penalty>
0.558016

> <b_epik_Metal_Only>
1

> <s_lp_Force_Field>
OPLS_2005

> <r_lp_Energy>
34.1757

> <b_lp_Chiralities_Consistent>
1

> <s_lp_Variant>
AV-unprocessed.smi:1803-15

> <Gold.Version>
5.8.1

> <Gold.Id.Protein>
6NUR|6NUR_protein|mol2

> <Gold.PLP.Fitness>
38.1141

> <Gold.PLP.PLP>
-22.2485

> <Gold.PLP.part.hbond>
-4.0000

> <Gold.PLP.part.metal>
0.0000

> <Gold.PLP.part.buried>
-1.8355

> <Gold.PLP.part.nonpolar>
-15.8683

> <Gold.PLP.part.repulsive>
0.0005

> <Gold.PLP.ligand.clash>
0.0000

> <Gold.PLP.ligand.torsion>
0.8076

> <Gold.PLP.Chemscore.Hbond>
5.8240

> <Gold.PLP.Chemscore.CHOScore>
0.0000

> <Gold.PLP.Chemscore.Metal>
0.0000

> <Gold.Chemscore.Hbonds>
donor molecule, donor type, donor heavy atom, donor atom, acceptor molecule, acceptor atom, score
      L1  H    13    35       P1  7948  2.00
      P1  H  6896  6907       L1     3  1.90
      P1  H  6931  6943       L1     6  0.29
      P1  H  6934  6947       L1     6  1.00

> <Gold.PLP.Chemscore.Internal.Correction>
0.0089

> <Gold.Rescore>
     Score         DG    S(hbond)    S(metal)    S(lipo)     H(rot)  DE(clash)    DE(int)     intcor
     14.18     -16.33       2.45        0.00      44.62       1.00       0.71       1.45       ----

> <Gold.Chemscore.Fitness>
14.1790

> <Gold.Chemscore.DG>
-16.3331

> <Gold.Chemscore.ZeroCoef>
-5.4800

> <Gold.Chemscore.Hbond>
2.4528

> <Gold.Chemscore.Metal>
0.0000

> <Gold.Chemscore.Lipo>
44.6217

> <Gold.Chemscore.Internal_Hbond>
0.0000

> <Gold.Chemscore.DEClash>
0.7059

> <Gold.Chemscore.DEInternal>
1.4482

> <Gold.Chemscore.Rot>
1.0000

> <Gold.Chemscore.Internal.Correction>
   9.000000E+99

> <Gold.Chemscore.Hbonds>
donor molecule, donor type, donor heavy atom, donor atom, acceptor molecule, acceptor atom, score
      L1  H    13    35       P1  7948  0.94
      P1  H  6896  6907       L1     3  0.21
      P1  H  6931  6943       L1     6  0.02
      P1  H  6934  6947       L1     6  0.24

> <Gold.Chemscore.Hbond.Weighted>
-8.1924

> <Gold.Chemscore.Metal.Weighted>
-0.0000

> <Gold.Chemscore.Lipo.Weighted>
-5.2207

> <Gold.Chemscore.Internal_Hbond.Weighted>
0.0000

> <Gold.Chemscore.DEClash.Weighted>
0.7059

> <Gold.Chemscore.DEInternal.Weighted>
1.4482

> <Gold.Chemscore.Rot.Weighted>
2.5600

> <Gold.Chemscore.Internal.Correction.Weighted>
   9.000000E+99

> <Gold.Protein.RotatedTorsions>
[ 6907 6896 6895 6894 ] final  -98.65 input  -60.11 | X-H torsion
[ 7974 7965 7964 7962 ] final -112.42 input  175.53 | X-H torsion
[ 8008 7997 7996 7995 ] final -175.22 input   59.86 | X-H torsion
[ 10167 10162 10161 10158 ] final   73.97 input  -65.29 | X-H torsion
[ 10718 10713 10712 10709 ] final  101.56 input   66.30 | X-H torsion
[ 10763 10752 10751 10750 ] final  121.51 input  -60.55 | X-H torsion
[ 11005 11000 10999 10996 ] final  108.49 input  -57.11 | X-H torsion

> <Gold.Protein.ActiveResidues>
 VAL166  LYS551  ARG553  GLY616  TRP617  ASP618  TYR619  PRO620  LYS621  CYS622 
 ASP623  PHE694  ASN695  SER759  ASP760  ASP761  ALA762  ILE779  LEU786  VAL792 
 PHE793  MET794  SER795  GLU796  ALA797  LYS798  CYS799  TRP800  GLU811  SER814 

> <Gold.Protein.RotatedAtoms>
  150.7053  134.1162  159.4017 H   0  0  0  0  0  0  0  0  0  0  0  0  # atno 6907 bound_to 6896
  151.9148  135.0321  160.0526 H   0  0  0  0  0  0  0  0  0  0  0  0  # atno 6908 bound_to 6896
  152.2305  133.5019  159.5250 H   0  0  0  0  0  0  0  0  0  0  0  0  # atno 6909 bound_to 6896
  145.1443  140.8795  143.3684 H   0  0  0  0  0  0  0  0  0  0  0  0  # atno 7974 bound_to 7965
  155.9798  140.1179  157.0737 H   0  0  0  0  0  0  0  0  0  0  0  0  # atno 8008 bound_to 7997
  154.4179  140.1147  156.5488 H   0  0  0  0  0  0  0  0  0  0  0  0  # atno 8009 bound_to 7997
  155.6486  140.3473  155.4742 H   0  0  0  0  0  0  0  0  0  0  0  0  # atno 8010 bound_to 7997
  140.0188  144.5557  150.7599 H   0  0  0  0  0  0  0  0  0  0  0  0  # atno 10167 bound_to 10162
  157.6826  131.0729  150.5271 H   0  0  0  0  0  0  0  0  0  0  0  0  # atno 10718 bound_to 10713
  153.6152  135.3423  155.2992 H   0  0  0  0  0  0  0  0  0  0  0  0  # atno 10763 bound_to 10752
  154.8611  135.4260  154.2267 H   0  0  0  0  0  0  0  0  0  0  0  0  # atno 10764 bound_to 10752
  153.3126  135.7032  153.7174 H   0  0  0  0  0  0  0  0  0  0  0  0  # atno 10765 bound_to 10752
  139.8845  134.9432  156.5981 H   0  0  0  0  0  0  0  0  0  0  0  0  # atno 11005 bound_to 11000
  145.0499  139.3190  143.5934 LP  0  0  0  0  0  0  0  0  0  0  0  0  # atno 17320 bound_to 7965
  146.3502  139.9903  142.8686 LP  0  0  0  0  0  0  0  0  0  0  0  0  # atno 17321 bound_to 7965
  140.7351  143.2737  151.3808 LP  0  0  0  0  0  0  0  0  0  0  0  0  # atno 17342 bound_to 10162
  139.6154  144.1013  152.2340 LP  0  0  0  0  0  0  0  0  0  0  0  0  # atno 17343 bound_to 10162
  156.5582  130.4249  149.6075 LP  0  0  0  0  0  0  0  0  0  0  0  0  # atno 17370 bound_to 10713
  156.2843  130.7088  151.1921 LP  0  0  0  0  0  0  0  0  0  0  0  0  # atno 17371 bound_to 10713
  140.7905  133.8586  155.8642 LP  0  0  0  0  0  0  0  0  0  0  0  0  # atno 17394 bound_to 11000
  140.9682  134.1566  157.4599 LP  0  0  0  0  0  0  0  0  0  0  0  0  # atno 17395 bound_to 11000

$$$$
