AV-unprocessed.smi:524|AV-procd|sdf|2805|dock2
  -GOLD-   2262023283D 1   1.00000     0.00000
 Structure written by MMmdl.
 43 45  0  0  0  0  0  0  0  0  1 V2000
  147.7513  141.8406  153.5526 C   0  0  0  0  0  0  0  0  0  0  0  0
  149.1301  141.9295  153.8636 O   0  0  0  0  0  0  0  0  0  0  0  0
  149.4396  141.3641  155.1269 C   0  0  0  0  0  0  0  0  0  0  0  0
  150.6967  142.0312  155.7022 C   0  0  0  0  0  0  0  0  0  0  0  0
  151.3486  141.1898  156.7041 N   0  0  0  0  0  0  0  0  0  0  0  0
  151.6829  141.5037  157.9868 C   0  0  0  0  0  0  0  0  0  0  0  0
  151.4564  142.7696  158.5308 N   0  0  0  0  0  0  0  0  0  0  0  0
  150.7436  143.0633  159.7750 C   0  0  0  0  0  0  0  0  0  0  0  0
  151.5493  144.0109  160.6823 C   0  0  0  0  0  0  0  0  0  0  0  0
  151.8658  145.3191  159.9446 C   0  0  0  0  0  0  0  0  0  0  0  0
  152.5129  145.0131  158.5865 C   0  0  0  0  0  0  0  0  0  0  0  0
  151.6582  144.0128  157.7876 C   0  0  0  0  0  0  0  0  0  0  0  0
  152.1945  140.4911  158.6924 N   0  0  0  0  0  0  0  0  0  0  0  0
  152.2099  139.4496  157.7792 C   0  0  0  0  0  0  0  0  0  0  0  0
  151.6992  139.8422  156.5849 C   0  0  0  0  0  0  0  0  0  0  0  0
  151.5541  138.9145  155.4534 C   0  0  0  0  0  0  0  0  0  0  0  0
  151.0844  139.2348  154.3641 O   0  0  0  0  0  0  0  0  0  0  0  0
  151.9841  137.6606  155.7353 N   0  0  0  0  0  0  0  0  0  0  0  0
  152.5101  137.2047  156.9128 C   0  0  0  0  0  0  0  0  0  0  0  0
  152.8457  136.0250  157.0148 O   0  0  0  0  0  0  0  0  0  0  0  0
  152.6357  138.1024  157.9431 N   0  0  0  0  0  0  0  0  0  0  0  0
  153.1836  137.7115  159.2438 C   0  0  0  0  0  0  0  0  0  0  0  0
  151.9013  136.9827  154.9918 H   0  0  0  0  0  0  0  0  0  0  0  0
  147.5661  142.2937  152.5788 H   0  0  0  0  0  0  0  0  0  0  0  0
  147.1456  142.3683  154.2905 H   0  0  0  0  0  0  0  0  0  0  0  0
  147.4240  140.8010  153.5080 H   0  0  0  0  0  0  0  0  0  0  0  0
  148.6022  141.4996  155.8128 H   0  0  0  0  0  0  0  0  0  0  0  0
  149.6036  140.2906  155.0227 H   0  0  0  0  0  0  0  0  0  0  0  0
  151.3977  142.2644  154.9040 H   0  0  0  0  0  0  0  0  0  0  0  0
  150.4434  142.9956  156.1322 H   0  0  0  0  0  0  0  0  0  0  0  0
  149.7856  143.5221  159.5265 H   0  0  0  0  0  0  0  0  0  0  0  0
  150.4959  142.1414  160.2995 H   0  0  0  0  0  0  0  0  0  0  0  0
  150.9898  144.2227  161.5938 H   0  0  0  0  0  0  0  0  0  0  0  0
  152.4775  143.5302  160.9927 H   0  0  0  0  0  0  0  0  0  0  0  0
  150.9448  145.8823  159.7899 H   0  0  0  0  0  0  0  0  0  0  0  0
  152.5216  145.9481  160.5470 H   0  0  0  0  0  0  0  0  0  0  0  0
  152.6412  145.9343  158.0176 H   0  0  0  0  0  0  0  0  0  0  0  0
  153.5110  144.6003  158.7392 H   0  0  0  0  0  0  0  0  0  0  0  0
  152.1491  143.7950  156.8382 H   0  0  0  0  0  0  0  0  0  0  0  0
  150.6891  144.4498  157.5428 H   0  0  0  0  0  0  0  0  0  0  0  0
  153.6835  136.7421  159.2370 H   0  0  0  0  0  0  0  0  0  0  0  0
  152.3852  137.6705  159.9852 H   0  0  0  0  0  0  0  0  0  0  0  0
  153.9174  138.4448  159.5804 H   0  0  0  0  0  0  0  0  0  0  0  0
  1  2  1  0  0  0  0
  1 24  1  0  0  0  0
  1 25  1  0  0  0  0
  1 26  1  0  0  0  0
  2  3  1  0  0  0  0
  3  4  1  0  0  0  0
  3 27  1  0  0  0  0
  3 28  1  0  0  0  0
  4  5  1  0  0  0  0
  4 29  1  0  0  0  0
  4 30  1  0  0  0  0
  5 15  1  0  0  0  0
  5  6  1  0  0  0  0
  6  7  1  0  0  0  0
  6 13  2  0  0  0  0
  7 12  1  0  0  0  0
  7  8  1  0  0  0  0
  8  9  1  0  0  0  0
  8 31  1  0  0  0  0
  8 32  1  0  0  0  0
  9 10  1  0  0  0  0
  9 33  1  0  0  0  0
  9 34  1  0  0  0  0
 10 11  1  0  0  0  0
 10 35  1  0  0  0  0
 10 36  1  0  0  0  0
 11 12  1  0  0  0  0
 11 37  1  0  0  0  0
 11 38  1  0  0  0  0
 12 39  1  0  0  0  0
 12 40  1  0  0  0  0
 13 14  1  0  0  0  0
 14 21  1  0  0  0  0
 14 15  2  0  0  0  0
 15 16  1  0  0  0  0
 16 17  2  0  0  0  0
 16 18  1  0  0  0  0
 18 23  1  0  0  0  0
 18 19  1  0  0  0  0
 19 20  2  0  0  0  0
 19 21  1  0  0  0  0
 21 22  1  0  0  0  0
 22 41  1  0  0  0  0
 22 42  1  0  0  0  0
 22 43  1  0  0  0  0
M  END
> <s_m_source_file>
AV-unprocessed.smi

> <i_m_source_file_index>
524

> <i_lp_mmshare_version>
43012

> <i_f3d_flags>
0

> <s_epik_input>
W0NIM11uMWMoPU8pW25IXWMoPU8pYyhjMTIpbihbQ0gyXVtDSDJdT1tDSDNdKWMobjIpTjNbQ0gyXVtDSDJdW0NIMl1bQ0gyXVtDSDJdMw==

> <s_epik_cmdline>
J2VwaWtfcHl0aG9uJywgJy1waCcsICc3LjAnLCAnLXRuJywgJzgnLCAnLW1hJywgJzIwMCcsICctbWV0YWxfYmluZGluZycsICctaW1hZScsICc8aW5maWxlLm1hZT4nLCAnLW9tYWUnLCAnPG91dGZpbGUubWFlPic=

> <r_lp_tautomer_probability>
1

> <r_epik_Ionization_Penalty>
0.000298119

> <r_epik_Ionization_Penalty_Charging>
0.000125384

> <r_epik_Ionization_Penalty_Neutral>
0.000172735

> <r_epik_State_Penalty>
-0

> <r_epik_Charging_Adjusted_Penalty>
0.000125384

> <i_epik_Tot_Q>
0

> <i_epik_Tot_abs_Q>
0

> <r_epik_Metal_State_Penalty>
0.0954001

> <b_epik_Metal_Only>
0

> <s_lp_Force_Field>
OPLS_2005

> <r_lp_Energy>
37.2528

> <b_lp_Chiralities_Consistent>
1

> <s_lp_Variant>
AV-unprocessed.smi:524-1

> <Gold.Version>
5.8.1

> <Gold.Id.Protein>
6NUR|6NUR_protein|mol2

> <Gold.PLP.Fitness>
46.5636

> <Gold.PLP.PLP>
-40.5721

> <Gold.PLP.part.hbond>
-3.0412

> <Gold.PLP.part.metal>
0.0000

> <Gold.PLP.part.buried>
-4.2392

> <Gold.PLP.part.nonpolar>
-32.9648

> <Gold.PLP.part.repulsive>
0.4820

> <Gold.PLP.ligand.clash>
0.0000

> <Gold.PLP.ligand.torsion>
1.0723

> <Gold.PLP.Chemscore.Hbond>
2.5440

> <Gold.PLP.Chemscore.CHOScore>
0.0000

> <Gold.PLP.Chemscore.Metal>
0.0000

> <Gold.Chemscore.Hbonds>
donor molecule, donor type, donor heavy atom, donor atom, acceptor molecule, acceptor atom, score
      P1  H  7989  7998       L1    17  1.00
      P1  H  8011  8017       L1     2  0.48
      P1  H 10752 10764       L1    20  1.00

> <Gold.PLP.Chemscore.Internal.Correction>
0.5041

> <Gold.Rescore>
     Score         DG    S(hbond)    S(metal)    S(lipo)     H(rot)  DE(clash)    DE(int)     intcor
     16.20     -19.21       2.04        0.00      91.56       1.48       0.36       2.65       ----

> <Gold.Chemscore.Fitness>
16.1974

> <Gold.Chemscore.DG>
-19.2060

> <Gold.Chemscore.ZeroCoef>
-5.4800

> <Gold.Chemscore.Hbond>
2.0389

> <Gold.Chemscore.Metal>
0.0000

> <Gold.Chemscore.Lipo>
91.5648

> <Gold.Chemscore.Internal_Hbond>
0.0000

> <Gold.Chemscore.DEClash>
0.3635

> <Gold.Chemscore.DEInternal>
2.6451

> <Gold.Chemscore.Rot>
1.4832

> <Gold.Chemscore.Internal.Correction>
   9.000000E+99

> <Gold.Chemscore.Hbonds>
donor molecule, donor type, donor heavy atom, donor atom, acceptor molecule, acceptor atom, score
      P1  H  7989  7998       L1    17  0.98
      P1  H  8011  8017       L1     2  0.14
      P1  H 10752 10764       L1    20  0.82

> <Gold.Chemscore.Hbond.Weighted>
-6.8099

> <Gold.Chemscore.Metal.Weighted>
-0.0000

> <Gold.Chemscore.Lipo.Weighted>
-10.7131

> <Gold.Chemscore.Internal_Hbond.Weighted>
0.0000

> <Gold.Chemscore.DEClash.Weighted>
0.3635

> <Gold.Chemscore.DEInternal.Weighted>
2.6451

> <Gold.Chemscore.Rot.Weighted>
3.7970

> <Gold.Chemscore.Internal.Correction.Weighted>
   9.000000E+99

> <Gold.Protein.RotatedTorsions>
[ 6907 6896 6895 6894 ] final   -3.17 input  -60.11 | X-H torsion
[ 7974 7965 7964 7962 ] final -176.71 input  175.53 | X-H torsion
[ 8008 7997 7996 7995 ] final  137.33 input   59.86 | X-H torsion
[ 10167 10162 10161 10158 ] final -155.48 input  -65.29 | X-H torsion
[ 10718 10713 10712 10709 ] final -113.97 input   66.30 | X-H torsion
[ 10763 10752 10751 10750 ] final    4.33 input  -60.55 | X-H torsion
[ 11005 11000 10999 10996 ] final  -98.90 input  -57.11 | X-H torsion

> <Gold.Protein.ActiveResidues>
 VAL166  LYS551  ARG553  GLY616  TRP617  ASP618  TYR619  PRO620  LYS621  CYS622 
 ASP623  PHE694  ASN695  SER759  ASP760  ASP761  ALA762  ILE779  LEU786  VAL792 
 PHE793  MET794  SER795  GLU796  ALA797  LYS798  CYS799  TRP800  GLU811  SER814 

> <Gold.Protein.RotatedAtoms>
  151.5180  135.1066  159.9870 H   0  0  0  0  0  0  0  0  0  0  0  0  # atno 6907 bound_to 6896
  152.4633  133.7864  159.6889 H   0  0  0  0  0  0  0  0  0  0  0  0  # atno 6908 bound_to 6896
  150.8605  133.7587  159.3019 H   0  0  0  0  0  0  0  0  0  0  0  0  # atno 6909 bound_to 6896
  144.7127  140.1130  143.6410 H   0  0  0  0  0  0  0  0  0  0  0  0  # atno 7974 bound_to 7965
  156.3002  140.2422  156.3892 H   0  0  0  0  0  0  0  0  0  0  0  0  # atno 8008 bound_to 7997
  154.8630  140.0419  157.1696 H   0  0  0  0  0  0  0  0  0  0  0  0  # atno 8009 bound_to 7997
  154.8876  140.2958  155.5393 H   0  0  0  0  0  0  0  0  0  0  0  0  # atno 8010 bound_to 7997
  139.6928  143.9392  152.2393 H   0  0  0  0  0  0  0  0  0  0  0  0  # atno 10167 bound_to 10162
  156.0800  130.6001  150.8712 H   0  0  0  0  0  0  0  0  0  0  0  0  # atno 10718 bound_to 10713
  153.2726  135.6933  153.7465 H   0  0  0  0  0  0  0  0  0  0  0  0  # atno 10763 bound_to 10752
  153.6483  135.3381  155.3093 H   0  0  0  0  0  0  0  0  0  0  0  0  # atno 10764 bound_to 10752
  154.8469  135.4448  154.1753 H   0  0  0  0  0  0  0  0  0  0  0  0  # atno 10765 bound_to 10752
  141.1328  133.8281  157.0901 H   0  0  0  0  0  0  0  0  0  0  0  0  # atno 11005 bound_to 11000
  145.9438  139.2687  143.1253 LP  0  0  0  0  0  0  0  0  0  0  0  0  # atno 17320 bound_to 7965
  145.9395  140.8990  143.0315 LP  0  0  0  0  0  0  0  0  0  0  0  0  # atno 17321 bound_to 7965
  139.9213  144.6798  150.8458 LP  0  0  0  0  0  0  0  0  0  0  0  0  # atno 17342 bound_to 10162
  140.7687  143.3373  151.2282 LP  0  0  0  0  0  0  0  0  0  0  0  0  # atno 17343 bound_to 10162
  157.5912  131.0944  150.9115 LP  0  0  0  0  0  0  0  0  0  0  0  0  # atno 17370 bound_to 10713
  156.9291  130.5343  149.5279 LP  0  0  0  0  0  0  0  0  0  0  0  0  # atno 17371 bound_to 10713
  140.0397  134.9860  157.0939 LP  0  0  0  0  0  0  0  0  0  0  0  0  # atno 17394 bound_to 11000
  140.4154  134.1937  155.7163 LP  0  0  0  0  0  0  0  0  0  0  0  0  # atno 17395 bound_to 11000

$$$$
