AV-unprocessed.smi:3164|AV-procd|sdf|12084|dock1
  -GOLD-   2272017513D 1   1.00000     0.00000
 Structure written by MMmdl.
 39 40  0  0  0  0  0  0  0  0  2 V2000
  152.7693  138.5292  154.8754 C   0  0  0  0  0  0  0  0  0  0  0  0
  151.6567  139.4596  154.7570 N   0  0  0  0  0  0  0  0  0  0  0  0
  151.4309  140.1865  155.9994 C   0  0  0  0  0  0  0  0  0  0  0  0
  150.2464  141.1601  155.8800 C   0  0  0  0  0  0  0  0  0  0  0  0
  149.0831  140.4471  155.4692 O   0  0  0  0  0  0  0  0  0  0  0  0
  149.2488  139.7698  154.2257 C   0  0  2  0  0  0  0  0  0  0  0  0
  147.9233  139.0696  153.8909 C   0  0  0  0  0  0  0  0  0  0  0  0
  147.8686  138.6653  152.4719 N   0  3  0  0  0  0  0  0  0  0  0  0
  146.4988  138.5116  151.9416 C   0  0  0  0  0  0  0  0  0  0  0  0
  145.5812  137.7903  152.9417 C   0  0  0  0  0  0  0  0  0  0  0  0
  144.9456  136.5367  152.3664 C   0  0  0  0  0  0  0  0  0  0  0  0
  145.1902  136.1508  151.0307 C   0  0  0  0  0  0  0  0  0  0  0  0
  144.5709  134.9821  150.5462 C   0  0  0  0  0  0  0  0  0  0  0  0
  143.7336  134.2504  151.4101 C   0  0  0  0  0  0  0  0  0  0  0  0
  143.5529  134.7203  152.7263 C   0  0  0  0  0  0  0  0  0  0  0  0
  144.1417  135.8398  153.2003 N   0  0  0  0  0  0  0  0  0  0  0  0
  150.4301  138.7844  154.3551 C   0  0  0  0  0  0  0  0  0  0  0  0
  153.6862  139.0560  155.1424 H   0  0  0  0  0  0  0  0  0  0  0  0
  152.9458  138.0147  153.9303 H   0  0  0  0  0  0  0  0  0  0  0  0
  152.5750  137.7765  155.6409 H   0  0  0  0  0  0  0  0  0  0  0  0
  151.2364  139.4824  156.8100 H   0  0  0  0  0  0  0  0  0  0  0  0
  152.3297  140.7394  156.2748 H   0  0  0  0  0  0  0  0  0  0  0  0
  150.0513  141.6398  156.8391 H   0  0  0  0  0  0  0  0  0  0  0  0
  150.4678  141.9527  155.1637 H   0  0  0  0  0  0  0  0  0  0  0  0
  149.4660  140.5120  153.4547 H   0  0  0  0  0  0  0  0  0  0  0  0
  147.7793  138.1993  154.5328 H   0  0  0  0  0  0  0  0  0  0  0  0
  147.0940  139.7509  154.0861 H   0  0  0  0  0  0  0  0  0  0  0  0
  148.3456  139.3656  151.9215 H   0  0  0  0  0  0  0  0  0  0  0  0
  146.0920  139.4983  151.7180 H   0  0  0  0  0  0  0  0  0  0  0  0
  146.5336  137.9601  151.0009 H   0  0  0  0  0  0  0  0  0  0  0  0
  146.1411  137.5337  153.8422 H   0  0  0  0  0  0  0  0  0  0  0  0
  144.7880  138.4669  153.2628 H   0  0  0  0  0  0  0  0  0  0  0  0
  145.8379  136.7319  150.3906 H   0  0  0  0  0  0  0  0  0  0  0  0
  144.7349  134.6532  149.5306 H   0  0  0  0  0  0  0  0  0  0  0  0
  143.2428  133.3492  151.0731 H   0  0  0  0  0  0  0  0  0  0  0  0
  142.9181  134.1840  153.4160 H   0  0  0  0  0  0  0  0  0  0  0  0
  150.5899  138.2757  153.4037 H   0  0  0  0  0  0  0  0  0  0  0  0
  150.1805  138.0112  155.0837 H   0  0  0  0  0  0  0  0  0  0  0  0
  148.3544  137.7860  152.3677 H   0  0  0  0  0  0  0  0  0  0  0  0
  1  2  1  0  0  0  0
  1 18  1  0  0  0  0
  1 19  1  0  0  0  0
  1 20  1  0  0  0  0
  2 17  1  0  0  0  0
  2  3  1  0  0  0  0
  3  4  1  0  0  0  0
  3 21  1  0  0  0  0
  3 22  1  0  0  0  0
  4  5  1  0  0  0  0
  4 23  1  0  0  0  0
  4 24  1  0  0  0  0
  5  6  1  0  0  0  0
  6  7  1  0  0  0  0
  6 17  1  0  0  0  0
  6 25  1  0  0  0  0
  7  8  1  0  0  0  0
  7 26  1  0  0  0  0
  7 27  1  0  0  0  0
  8  9  1  0  0  0  0
  8 28  1  0  0  0  0
  8 39  1  0  0  0  0
  9 10  1  0  0  0  0
  9 29  1  0  0  0  0
  9 30  1  0  0  0  0
 10 11  1  0  0  0  0
 10 31  1  0  0  0  0
 10 32  1  0  0  0  0
 11 16  1  0  0  0  0
 11 12  2  0  0  0  0
 12 13  1  0  0  0  0
 12 33  1  0  0  0  0
 13 14  2  0  0  0  0
 13 34  1  0  0  0  0
 14 15  1  0  0  0  0
 14 35  1  0  0  0  0
 15 16  2  0  0  0  0
 15 36  1  0  0  0  0
 17 37  1  0  0  0  0
 17 38  1  0  0  0  0
M  CHG  1   8   1
M  END
> <s_m_source_file>
AV-unprocessed.smi

> <i_m_source_file_index>
3164

> <i_lp_mmshare_version>
43012

> <i_f3d_flags>
0

> <s_epik_input>
W0NIM11OMVtDSDJdW0NIMl1PW0NASF0oW0NIMl0xKVtDSDJdW05IXVtDSDJdW0NIMl1jMltjSF1bY0hdW2NIXVtjSF1uMg==

> <s_epik_cmdline>
J2VwaWtfcHl0aG9uJywgJy1waCcsICc3LjAnLCAnLXRuJywgJzgnLCAnLW1hJywgJzIwMCcsICctbWV0YWxfYmluZGluZycsICctaW1hZScsICc8aW5maWxlLm1hZT4nLCAnLW9tYWUnLCAnPG91dGZpbGUubWFlPic=

> <r_epik_Ionization_Penalty>
0.584284

> <r_epik_Ionization_Penalty_Charging>
0.00270218

> <r_epik_Ionization_Penalty_Neutral>
0.581582

> <r_epik_State_Penalty>
0.593163

> <r_epik_Charging_Adjusted_Penalty>
0.595865

> <i_epik_Tot_Q>
1

> <i_epik_Tot_abs_Q>
1

> <r_epik_Metal_State_Penalty>
0.593163

> <b_epik_Metal_Only>
0

> <s_lp_Force_Field>
OPLS_2005

> <r_lp_Energy>
23.4824

> <b_lp_Chiralities_Consistent>
1

> <s_lp_Variant>
AV-unprocessed.smi:3164-6

> <Gold.Version>
5.8.1

> <Gold.Id.Protein>
6NUR|6NUR_protein|mol2

> <Gold.PLP.Fitness>
49.6421

> <Gold.PLP.PLP>
-36.0321

> <Gold.PLP.part.hbond>
-3.0000

> <Gold.PLP.part.metal>
0.0000

> <Gold.PLP.part.buried>
-3.6688

> <Gold.PLP.part.nonpolar>
-30.6754

> <Gold.PLP.part.repulsive>
0.2659

> <Gold.PLP.ligand.clash>
0.0000

> <Gold.PLP.ligand.torsion>
0.6977

> <Gold.PLP.Chemscore.Hbond>
4.0000

> <Gold.PLP.Chemscore.CHOScore>
0.9885

> <Gold.PLP.Chemscore.Metal>
0.0000

> <Gold.Chemscore.Hbonds>
donor molecule, donor type, donor heavy atom, donor atom, acceptor molecule, acceptor atom, score
      L1  H     8    28       P1  7957  1.00
      L1  H     8    39       P1  7948  2.00
      P1  H  7989  7998       L1     2  0.95
      L1  C    15    36       P1 10957  0.36

> <Gold.PLP.Chemscore.Internal.Correction>
0.0401

> <Gold.Rescore>
     Score         DG    S(hbond)    S(metal)    S(lipo)     H(rot)  DE(clash)    DE(int)     intcor
     16.81     -18.06       1.99        0.00      85.24       1.57       0.32       0.93       ----

> <Gold.Chemscore.Fitness>
16.8087

> <Gold.Chemscore.DG>
-18.0611

> <Gold.Chemscore.ZeroCoef>
-5.4800

> <Gold.Chemscore.Hbond>
1.9864

> <Gold.Chemscore.Metal>
0.0000

> <Gold.Chemscore.Lipo>
85.2354

> <Gold.Chemscore.Internal_Hbond>
0.0000

> <Gold.Chemscore.DEClash>
0.3235

> <Gold.Chemscore.DEInternal>
0.9289

> <Gold.Chemscore.Rot>
1.5726

> <Gold.Chemscore.Internal.Correction>
   9.000000E+99

> <Gold.Chemscore.Hbonds>
donor molecule, donor type, donor heavy atom, donor atom, acceptor molecule, acceptor atom, score
      L1  H     8    28       P1  7957  0.97
      L1  H     8    39       P1  7948  1.00
      P1  H  7989  7998       L1     2  0.07

> <Gold.Chemscore.Hbond.Weighted>
-6.6344

> <Gold.Chemscore.Metal.Weighted>
-0.0000

> <Gold.Chemscore.Lipo.Weighted>
-9.9725

> <Gold.Chemscore.Internal_Hbond.Weighted>
0.0000

> <Gold.Chemscore.DEClash.Weighted>
0.3235

> <Gold.Chemscore.DEInternal.Weighted>
0.9289

> <Gold.Chemscore.Rot.Weighted>
4.0259

> <Gold.Chemscore.Internal.Correction.Weighted>
   9.000000E+99

> <Gold.Protein.RotatedTorsions>
[ 6907 6896 6895 6894 ] final  -78.58 input  -60.11 | X-H torsion
[ 7974 7965 7964 7962 ] final  138.34 input  175.53 | X-H torsion
[ 8008 7997 7996 7995 ] final  169.87 input   59.86 | X-H torsion
[ 10167 10162 10161 10158 ] final  -93.04 input  -65.29 | X-H torsion
[ 10718 10713 10712 10709 ] final   14.17 input   66.30 | X-H torsion
[ 10763 10752 10751 10750 ] final   26.21 input  -60.55 | X-H torsion
[ 11005 11000 10999 10996 ] final   74.91 input  -57.11 | X-H torsion

> <Gold.Protein.ActiveResidues>
 VAL166  LYS551  ARG553  GLY616  TRP617  ASP618  TYR619  PRO620  LYS621  CYS622 
 ASP623  PHE694  ASN695  SER759  ASP760  ASP761  ALA762  ILE779  LEU786  VAL792 
 PHE793  MET794  SER795  GLU796  ALA797  LYS798  CYS799  TRP800  GLU811  SER814 

> <Gold.Protein.RotatedAtoms>
  150.6969  134.4251  159.5222 H   0  0  0  0  0  0  0  0  0  0  0  0  # atno 6907 bound_to 6896
  152.1987  134.8604  160.0519 H   0  0  0  0  0  0  0  0  0  0  0  0  # atno 6908 bound_to 6896
  151.9533  133.3637  159.4045 H   0  0  0  0  0  0  0  0  0  0  0  0  # atno 6909 bound_to 6896
  144.9381  139.4964  143.5585 H   0  0  0  0  0  0  0  0  0  0  0  0  # atno 7974 bound_to 7965
  156.1417  140.1552  156.8910 H   0  0  0  0  0  0  0  0  0  0  0  0  # atno 8008 bound_to 7997
  154.4993  140.0829  156.7803 H   0  0  0  0  0  0  0  0  0  0  0  0  # atno 8009 bound_to 7997
  155.4065  140.3417  155.4263 H   0  0  0  0  0  0  0  0  0  0  0  0  # atno 8010 bound_to 7997
  140.3287  143.3007  151.9966 H   0  0  0  0  0  0  0  0  0  0  0  0  # atno 10167 bound_to 10162
  157.0353  130.6209  149.5742 H   0  0  0  0  0  0  0  0  0  0  0  0  # atno 10718 bound_to 10713
  153.0638  135.6565  154.0401 H   0  0  0  0  0  0  0  0  0  0  0  0  # atno 10763 bound_to 10752
  154.0062  135.2932  155.3399 H   0  0  0  0  0  0  0  0  0  0  0  0  # atno 10764 bound_to 10752
  154.6988  135.5253  153.8565 H   0  0  0  0  0  0  0  0  0  0  0  0  # atno 10765 bound_to 10752
  139.9369  134.7473  156.1205 H   0  0  0  0  0  0  0  0  0  0  0  0  # atno 11005 bound_to 11000
  146.3275  139.8381  142.8895 LP  0  0  0  0  0  0  0  0  0  0  0  0  # atno 17320 bound_to 7965
  145.3034  141.0200  143.3595 LP  0  0  0  0  0  0  0  0  0  0  0  0  # atno 17321 bound_to 7965
  139.4860  144.6253  151.7177 LP  0  0  0  0  0  0  0  0  0  0  0  0  # atno 17342 bound_to 10162
  140.5417  144.0568  150.6091 LP  0  0  0  0  0  0  0  0  0  0  0  0  # atno 17343 bound_to 10162
  156.0056  130.5142  150.7817 LP  0  0  0  0  0  0  0  0  0  0  0  0  # atno 17370 bound_to 10713
  157.5146  131.0927  151.0155 LP  0  0  0  0  0  0  0  0  0  0  0  0  # atno 17371 bound_to 10713
  141.0986  133.6686  156.2702 LP  0  0  0  0  0  0  0  0  0  0  0  0  # atno 17394 bound_to 11000
  140.6053  134.5513  157.5524 LP  0  0  0  0  0  0  0  0  0  0  0  0  # atno 17395 bound_to 11000

$$$$
