AV-unprocessed.smi:3090|AV-procd|sdf|11774|dock5
  -GOLD-   2272017153D 1   1.00000     0.00000
 Structure written by MMmdl.
 22 22  0  0  0  0  0  0  0  0  2 V2000
  147.0401  132.8299  152.4661 C   0  0  0  0  0  0  0  0  0  0  0  0
  145.9149  132.9725  151.5674 N   0  0  0  0  0  0  0  0  0  0  0  0
  145.8215  132.6103  150.2412 C   0  0  0  0  0  0  0  0  0  0  0  0
  144.5653  132.9395  149.8114 C   0  0  0  0  0  0  0  0  0  0  0  0
  143.9458  132.7666  148.4496 C   0  0  2  0  0  0  0  0  0  0  0  0
  143.4636  133.9954  147.9424 O   0  0  0  0  0  0  0  0  0  0  0  0
  142.7742  131.7709  148.5091 C   0  0  0  0  0  0  0  0  0  0  0  0
  141.5025  132.3964  148.1062 N   0  3  0  0  0  0  0  0  0  0  0  0
  143.9621  133.5074  150.9703 C   0  0  0  0  0  0  0  0  0  0  0  0
  144.7705  133.5258  152.0170 N   0  0  0  0  0  0  0  0  0  0  0  0
  147.8800  132.3697  151.9447 H   0  0  0  0  0  0  0  0  0  0  0  0
  146.7603  132.2004  153.3113 H   0  0  0  0  0  0  0  0  0  0  0  0
  147.3459  133.8098  152.8339 H   0  0  0  0  0  0  0  0  0  0  0  0
  146.6482  132.1534  149.7169 H   0  0  0  0  0  0  0  0  0  0  0  0
  144.6925  132.3965  147.7458 H   0  0  0  0  0  0  0  0  0  0  0  0
  144.2013  134.5109  147.6521 H   0  0  0  0  0  0  0  0  0  0  0  0
  142.9618  130.9326  147.8371 H   0  0  0  0  0  0  0  0  0  0  0  0
  142.6673  131.3567  149.5127 H   0  0  0  0  0  0  0  0  0  0  0  0
  141.4559  133.3362  148.4731 H   0  0  0  0  0  0  0  0  0  0  0  0
  140.7305  131.8536  148.4658 H   0  0  0  0  0  0  0  0  0  0  0  0
  142.9642  133.9064  151.0798 H   0  0  0  0  0  0  0  0  0  0  0  0
  141.4523  132.4245  147.0975 H   0  0  0  0  0  0  0  0  0  0  0  0
  1  2  1  0  0  0  0
  1 11  1  0  0  0  0
  1 12  1  0  0  0  0
  1 13  1  0  0  0  0
  2 10  1  0  0  0  0
  2  3  1  0  0  0  0
  3  4  2  0  0  0  0
  3 14  1  0  0  0  0
  4  5  1  0  0  0  0
  4  9  1  0  0  0  0
  5  6  1  0  0  0  0
  5  7  1  0  0  0  0
  5 15  1  0  0  0  0
  6 16  1  0  0  0  0
  7  8  1  0  0  0  0
  7 17  1  0  0  0  0
  7 18  1  0  0  0  0
  8 19  1  0  0  0  0
  8 20  1  0  0  0  0
  8 22  1  0  0  0  0
  9 10  2  0  0  0  0
  9 21  1  0  0  0  0
M  CHG  1   8   1
M  END
> <s_m_source_file>
AV-unprocessed.smi

> <i_m_source_file_index>
3090

> <i_lp_mmshare_version>
43012

> <i_f3d_flags>
0

> <s_epik_input>
W0NIM11uMVtjSF1jKFtjSF1uMSlbQ0BIXShbT0hdKVtDSDJdW05IMl0=

> <s_epik_cmdline>
J2VwaWtfcHl0aG9uJywgJy1waCcsICc3LjAnLCAnLXRuJywgJzgnLCAnLW1hJywgJzIwMCcsICctbWV0YWxfYmluZGluZycsICctaW1hZScsICc8aW5maWxlLm1hZT4nLCAnLW9tYWUnLCAnPG91dGZpbGUubWFlPic=

> <r_lp_tautomer_probability>
1

> <r_epik_Ionization_Penalty>
0.014056

> <r_epik_Ionization_Penalty_Charging>
0.0140431

> <r_epik_Ionization_Penalty_Neutral>
1.29738e-05

> <r_epik_State_Penalty>
0.0109628

> <r_epik_Charging_Adjusted_Penalty>
0.0250059

> <i_epik_Tot_Q>
1

> <i_epik_Tot_abs_Q>
1

> <r_epik_Metal_State_Penalty>
0.0109636

> <b_epik_Metal_Only>
0

> <s_lp_Force_Field>
OPLS_2005

> <r_lp_Energy>
1.35566

> <b_lp_Chiralities_Consistent>
1

> <s_lp_Variant>
AV-unprocessed.smi:3090-1

> <Gold.Version>
5.8.1

> <Gold.Id.Protein>
6NUR|6NUR_protein|mol2

> <Gold.PLP.Fitness>
40.6422

> <Gold.PLP.PLP>
-20.7155

> <Gold.PLP.part.hbond>
-6.7017

> <Gold.PLP.part.metal>
0.0000

> <Gold.PLP.part.buried>
4.4660

> <Gold.PLP.part.nonpolar>
-19.5043

> <Gold.PLP.part.repulsive>
0.3185

> <Gold.PLP.ligand.clash>
0.0000

> <Gold.PLP.ligand.torsion>
0.7912

> <Gold.PLP.Chemscore.Hbond>
5.5840

> <Gold.PLP.Chemscore.CHOScore>
1.5849

> <Gold.PLP.Chemscore.Metal>
0.0000

> <Gold.Chemscore.Hbonds>
donor molecule, donor type, donor heavy atom, donor atom, acceptor molecule, acceptor atom, score
      L1  H     6    16       P1  7921  1.00
      L1  H     8    19       P1 10186  2.00
      L1  H     8    20       P1 10952  0.59
      L1  H     8    22       P1 10195  1.00
      P1  H 10192 10197       L1     6  0.85
      L1  C     3    14       P1 10747  0.56
      L1  C     9    21       P1 10186  1.00

> <Gold.PLP.Chemscore.Internal.Correction>
0.0024

> <Gold.Rescore>
     Score         DG    S(hbond)    S(metal)    S(lipo)     H(rot)  DE(clash)    DE(int)     intcor
     16.24     -20.10       3.72        0.00      61.61       1.96       3.12       0.74       ----

> <Gold.Chemscore.Fitness>
16.2353

> <Gold.Chemscore.DG>
-20.0955

> <Gold.Chemscore.ZeroCoef>
-5.4800

> <Gold.Chemscore.Hbond>
3.7164

> <Gold.Chemscore.Metal>
0.0000

> <Gold.Chemscore.Lipo>
61.6059

> <Gold.Chemscore.Internal_Hbond>
0.0000

> <Gold.Chemscore.DEClash>
3.1184

> <Gold.Chemscore.DEInternal>
0.7419

> <Gold.Chemscore.Rot>
1.9551

> <Gold.Chemscore.Internal.Correction>
   9.000000E+99

> <Gold.Chemscore.Hbonds>
donor molecule, donor type, donor heavy atom, donor atom, acceptor molecule, acceptor atom, score
      L1  H     6    16       P1  7921  0.94
      L1  H     8    19       P1 10186  0.92
      L1  H     8    20       P1 10952  0.58
      L1  H     8    22       P1 10195  0.76
      P1  H 10192 10197       L1     6  0.14

> <Gold.Chemscore.Hbond.Weighted>
-12.4127

> <Gold.Chemscore.Metal.Weighted>
-0.0000

> <Gold.Chemscore.Lipo.Weighted>
-7.2079

> <Gold.Chemscore.Internal_Hbond.Weighted>
0.0000

> <Gold.Chemscore.DEClash.Weighted>
3.1184

> <Gold.Chemscore.DEInternal.Weighted>
0.7419

> <Gold.Chemscore.Rot.Weighted>
5.0051

> <Gold.Chemscore.Internal.Correction.Weighted>
   9.000000E+99

> <Gold.Protein.RotatedTorsions>
[ 6907 6896 6895 6894 ] final  112.95 input  -60.11 | X-H torsion
[ 7974 7965 7964 7962 ] final  130.23 input  175.53 | X-H torsion
[ 8008 7997 7996 7995 ] final -105.60 input   59.86 | X-H torsion
[ 10167 10162 10161 10158 ] final -120.09 input  -65.29 | X-H torsion
[ 10718 10713 10712 10709 ] final   62.64 input   66.30 | X-H torsion
[ 10763 10752 10751 10750 ] final   94.51 input  -60.55 | X-H torsion
[ 11005 11000 10999 10996 ] final   69.05 input  -57.11 | X-H torsion

> <Gold.Protein.ActiveResidues>
 VAL166  LYS551  ARG553  GLY616  TRP617  ASP618  TYR619  PRO620  LYS621  CYS622 
 ASP623  PHE694  ASN695  SER759  ASP760  ASP761  ALA762  ILE779  LEU786  VAL792 
 PHE793  MET794  SER795  GLU796  ALA797  LYS798  CYS799  TRP800  GLU811  SER814 

> <Gold.Protein.RotatedAtoms>
  152.4888  133.8444  159.7169 H   0  0  0  0  0  0  0  0  0  0  0  0  # atno 6907 bound_to 6896
  150.8999  133.7123  159.2888 H   0  0  0  0  0  0  0  0  0  0  0  0  # atno 6908 bound_to 6896
  151.4568  135.1039  159.9765 H   0  0  0  0  0  0  0  0  0  0  0  0  # atno 6909 bound_to 6896
  145.0201  139.4140  143.5202 H   0  0  0  0  0  0  0  0  0  0  0  0  # atno 7974 bound_to 7965
  154.9023  140.0412  157.1900 H   0  0  0  0  0  0  0  0  0  0  0  0  # atno 8008 bound_to 7997
  154.8431  140.2917  155.5625 H   0  0  0  0  0  0  0  0  0  0  0  0  # atno 8009 bound_to 7997
  156.2993  140.2479  156.3377 H   0  0  0  0  0  0  0  0  0  0  0  0  # atno 8010 bound_to 7997
  140.0396  143.5167  152.2137 H   0  0  0  0  0  0  0  0  0  0  0  0  # atno 10167 bound_to 10162
  157.5915  130.9061  149.9614 H   0  0  0  0  0  0  0  0  0  0  0  0  # atno 10718 bound_to 10713
  153.2425  135.4287  155.0713 H   0  0  0  0  0  0  0  0  0  0  0  0  # atno 10763 bound_to 10752
  154.8347  135.3406  154.6628 H   0  0  0  0  0  0  0  0  0  0  0  0  # atno 10764 bound_to 10752
  153.7052  135.7026  153.5109 H   0  0  0  0  0  0  0  0  0  0  0  0  # atno 10765 bound_to 10752
  139.9676  134.6955  156.0513 H   0  0  0  0  0  0  0  0  0  0  0  0  # atno 11005 bound_to 11000
  146.3484  139.9694  142.8708 LP  0  0  0  0  0  0  0  0  0  0  0  0  # atno 17320 bound_to 7965
  145.1907  140.9810  143.4212 LP  0  0  0  0  0  0  0  0  0  0  0  0  # atno 17321 bound_to 7965
  139.6023  144.7586  151.3144 LP  0  0  0  0  0  0  0  0  0  0  0  0  # atno 17342 bound_to 10162
  140.7266  143.6985  150.7864 LP  0  0  0  0  0  0  0  0  0  0  0  0  # atno 17343 bound_to 10162
  156.0971  130.3658  150.0287 LP  0  0  0  0  0  0  0  0  0  0  0  0  # atno 17370 bound_to 10713
  156.8409  130.9425  151.3632 LP  0  0  0  0  0  0  0  0  0  0  0  0  # atno 17371 bound_to 10713
  141.1356  133.6576  156.3583 LP  0  0  0  0  0  0  0  0  0  0  0  0  # atno 17394 bound_to 11000
  140.5363  134.6164  157.5366 LP  0  0  0  0  0  0  0  0  0  0  0  0  # atno 17395 bound_to 11000

$$$$
