AV-unprocessed.smi:2138|AV-procd|sdf|8711|dock10
  -GOLD-   2272011473D 1   1.00000     0.00000
 Structure written by MMmdl.
 46 47  0  0  0  0  0  0  0  0  1 V2000
  142.5292  136.7397  153.3201 C   0  0  0  0  0  0  0  0  0  0  0  0
  143.6558  137.2776  153.9899 O   0  0  0  0  0  0  0  0  0  0  0  0
  143.3167  137.8678  155.2334 C   0  0  0  0  0  0  0  0  0  0  0  0
  144.5651  138.5191  155.8345 C   0  0  0  0  0  0  0  0  0  0  0  0
  145.1385  139.3902  154.8642 O   0  0  0  0  0  0  0  0  0  0  0  0
  146.2836  140.0848  155.1970 C   0  0  0  0  0  0  0  0  0  0  0  0
  146.8755  140.9144  154.2243 C   0  0  0  0  0  0  0  0  0  0  0  0
  148.0413  141.6314  154.5563 C   0  0  0  0  0  0  0  0  0  0  0  0
  148.5856  141.4898  155.8561 C   0  0  0  0  0  0  0  0  0  0  0  0
  149.7438  142.1640  156.3324 N   0  0  0  0  0  0  0  0  0  0  0  0
  150.1319  142.4114  157.5974 C   0  0  0  0  0  0  0  0  0  0  0  0
  149.4969  142.0949  158.6031 O   0  0  0  0  0  0  0  0  0  0  0  0
  151.4673  143.1584  157.7481 C   0  0  1  0  0  0  0  0  0  0  0  0
  151.2878  144.5073  158.4700 C   0  0  0  0  0  0  0  0  0  0  0  0
  152.0069  144.3169  159.7952 C   0  0  0  0  0  0  0  0  0  0  0  0
  151.9946  145.1717  160.6796 O   0  0  0  0  0  0  0  0  0  0  0  0
  152.6202  143.1254  159.8478 N   0  0  0  0  0  0  0  0  0  0  0  0
  153.4095  142.5627  160.9508 C   0  0  0  0  0  0  0  0  0  0  0  0
  153.8721  141.1282  160.6411 C   0  0  0  0  0  0  0  0  0  0  0  0
  152.6542  142.6518  162.2883 C   0  0  0  0  0  0  0  0  0  0  0  0
  152.4826  142.3765  158.6081 C   0  0  0  0  0  0  0  0  0  0  0  0
  147.9126  140.6379  156.7565 C   0  0  0  0  0  0  0  0  0  0  0  0
  146.7947  139.9491  156.4451 N   0  0  0  0  0  0  0  0  0  0  0  0
  142.8424  136.2965  152.3747 H   0  0  0  0  0  0  0  0  0  0  0  0
  141.7933  137.5145  153.1012 H   0  0  0  0  0  0  0  0  0  0  0  0
  142.0510  135.9604  153.9150 H   0  0  0  0  0  0  0  0  0  0  0  0
  142.5354  138.6165  155.0939 H   0  0  0  0  0  0  0  0  0  0  0  0
  142.9290  137.1078  155.9136 H   0  0  0  0  0  0  0  0  0  0  0  0
  144.2906  139.0795  156.7298 H   0  0  0  0  0  0  0  0  0  0  0  0
  145.2794  137.7463  156.1238 H   0  0  0  0  0  0  0  0  0  0  0  0
  146.4392  141.0042  153.2403 H   0  0  0  0  0  0  0  0  0  0  0  0
  148.4774  142.2767  153.8110 H   0  0  0  0  0  0  0  0  0  0  0  0
  150.3477  142.5342  155.6127 H   0  0  0  0  0  0  0  0  0  0  0  0
  151.8929  143.3305  156.7579 H   0  0  0  0  0  0  0  0  0  0  0  0
  151.7611  145.3166  157.9133 H   0  0  0  0  0  0  0  0  0  0  0  0
  150.2449  144.7809  158.6388 H   0  0  0  0  0  0  0  0  0  0  0  0
  154.3087  143.1723  161.0516 H   0  0  0  0  0  0  0  0  0  0  0  0
  154.5408  140.7600  161.4193 H   0  0  0  0  0  0  0  0  0  0  0  0
  154.4135  141.0865  159.6953 H   0  0  0  0  0  0  0  0  0  0  0  0
  153.0337  140.4344  160.5765 H   0  0  0  0  0  0  0  0  0  0  0  0
  153.2878  142.3291  163.1148 H   0  0  0  0  0  0  0  0  0  0  0  0
  151.7639  142.0227  162.2952 H   0  0  0  0  0  0  0  0  0  0  0  0
  152.3422  143.6760  162.4950 H   0  0  0  0  0  0  0  0  0  0  0  0
  152.1658  141.3520  158.8133 H   0  0  0  0  0  0  0  0  0  0  0  0
  153.4517  142.3258  158.1102 H   0  0  0  0  0  0  0  0  0  0  0  0
  148.2823  140.5022  157.7624 H   0  0  0  0  0  0  0  0  0  0  0  0
  1  2  1  0  0  0  0
  1 24  1  0  0  0  0
  1 25  1  0  0  0  0
  1 26  1  0  0  0  0
  2  3  1  0  0  0  0
  3  4  1  0  0  0  0
  3 27  1  0  0  0  0
  3 28  1  0  0  0  0
  4  5  1  0  0  0  0
  4 29  1  0  0  0  0
  4 30  1  0  0  0  0
  5  6  1  0  0  0  0
  6 23  1  0  0  0  0
  6  7  2  0  0  0  0
  7  8  1  0  0  0  0
  7 31  1  0  0  0  0
  8  9  2  0  0  0  0
  8 32  1  0  0  0  0
  9 10  1  0  0  0  0
  9 22  1  0  0  0  0
 10 11  1  0  0  0  0
 10 33  1  0  0  0  0
 11 12  2  0  0  0  0
 11 13  1  0  0  0  0
 13 21  1  0  0  0  0
 13 14  1  0  0  0  0
 13 34  1  0  0  0  0
 14 15  1  0  0  0  0
 14 35  1  0  0  0  0
 14 36  1  0  0  0  0
 15 16  2  0  0  0  0
 15 17  1  0  0  0  0
 17 18  1  0  0  0  0
 17 21  1  0  0  0  0
 18 19  1  0  0  0  0
 18 20  1  0  0  0  0
 18 37  1  0  0  0  0
 19 38  1  0  0  0  0
 19 39  1  0  0  0  0
 19 40  1  0  0  0  0
 20 41  1  0  0  0  0
 20 42  1  0  0  0  0
 20 43  1  0  0  0  0
 21 44  1  0  0  0  0
 21 45  1  0  0  0  0
 22 23  2  0  0  0  0
 22 46  1  0  0  0  0
M  END
> <s_m_source_file>
AV-unprocessed.smi

> <i_m_source_file_index>
2138

> <i_lp_mmshare_version>
43012

> <i_f3d_flags>
0

> <s_epik_input>
W0NIM11PW0NIMl1bQ0gyXU9jMVtjSF1bY0hdYyhbY0hdbjEpW05IXUMoPU8pW0NAQEhdMltDSDJdQyg9TylOKFtDSDJdMilbQ0hdKFtDSDNdKVtDSDNd

> <s_epik_cmdline>
J2VwaWtfcHl0aG9uJywgJy1waCcsICc3LjAnLCAnLXRuJywgJzgnLCAnLW1hJywgJzIwMCcsICctbWV0YWxfYmluZGluZycsICctaW1hZScsICc8aW5maWxlLm1hZT4nLCAnLW9tYWUnLCAnPG91dGZpbGUubWFlPic=

> <r_lp_tautomer_probability>
1

> <r_epik_Ionization_Penalty>
1.72652e-05

> <r_epik_Ionization_Penalty_Charging>
0

> <r_epik_Ionization_Penalty_Neutral>
1.72652e-05

> <r_epik_State_Penalty>
-0

> <r_epik_Charging_Adjusted_Penalty>
0

> <i_epik_Tot_Q>
0

> <i_epik_Tot_abs_Q>
0

> <r_epik_Metal_State_Penalty>
-0

> <b_epik_Metal_Only>
0

> <s_lp_Force_Field>
OPLS_2005

> <r_lp_Energy>
21.5992

> <b_lp_Chiralities_Consistent>
1

> <s_lp_Variant>
AV-unprocessed.smi:2138-2

> <Gold.Version>
5.8.1

> <Gold.Id.Protein>
6NUR|6NUR_protein|mol2

> <Gold.PLP.Fitness>
40.5619

> <Gold.PLP.PLP>
-40.9844

> <Gold.PLP.part.hbond>
-1.3360

> <Gold.PLP.part.metal>
0.0000

> <Gold.PLP.part.buried>
-6.8787

> <Gold.PLP.part.nonpolar>
-34.0238

> <Gold.PLP.part.repulsive>
0.9469

> <Gold.PLP.ligand.clash>
0.0000

> <Gold.PLP.ligand.torsion>
0.2576

> <Gold.PLP.Chemscore.Hbond>
0.0000

> <Gold.PLP.Chemscore.CHOScore>
0.0000

> <Gold.PLP.Chemscore.Metal>
0.0000

> <Gold.PLP.Chemscore.Internal.Correction>
0.0926

> <Gold.Rescore>
     Score         DG    S(hbond)    S(metal)    S(lipo)     H(rot)  DE(clash)    DE(int)     intcor
      9.70     -11.24       0.00        0.00      93.10       2.00       0.02       1.53       ----

> <Gold.Chemscore.Fitness>
9.6975

> <Gold.Chemscore.DG>
-11.2439

> <Gold.Chemscore.ZeroCoef>
-5.4800

> <Gold.Chemscore.Hbond>
0.0000

> <Gold.Chemscore.Metal>
0.0000

> <Gold.Chemscore.Lipo>
93.1016

> <Gold.Chemscore.Internal_Hbond>
0.0000

> <Gold.Chemscore.DEClash>
0.0167

> <Gold.Chemscore.DEInternal>
1.5296

> <Gold.Chemscore.Rot>
2.0035

> <Gold.Chemscore.Internal.Correction>
   9.000000E+99

> <Gold.Chemscore.Hbond.Weighted>
-0.0000

> <Gold.Chemscore.Metal.Weighted>
-0.0000

> <Gold.Chemscore.Lipo.Weighted>
-10.8929

> <Gold.Chemscore.Internal_Hbond.Weighted>
0.0000

> <Gold.Chemscore.DEClash.Weighted>
0.0167

> <Gold.Chemscore.DEInternal.Weighted>
1.5296

> <Gold.Chemscore.Rot.Weighted>
5.1290

> <Gold.Chemscore.Internal.Correction.Weighted>
   9.000000E+99

> <Gold.Protein.RotatedTorsions>
[ 6907 6896 6895 6894 ] final   14.47 input  -60.11 | X-H torsion
[ 7974 7965 7964 7962 ] final -138.74 input  175.53 | X-H torsion
[ 8008 7997 7996 7995 ] final  107.26 input   59.86 | X-H torsion
[ 10167 10162 10161 10158 ] final -117.17 input  -65.29 | X-H torsion
[ 10718 10713 10712 10709 ] final -121.27 input   66.30 | X-H torsion
[ 10763 10752 10751 10750 ] final -159.92 input  -60.55 | X-H torsion
[ 11005 11000 10999 10996 ] final   -5.70 input  -57.11 | X-H torsion

> <Gold.Protein.ActiveResidues>
 VAL166  LYS551  ARG553  GLY616  TRP617  ASP618  TYR619  PRO620  LYS621  CYS622 
 ASP623  PHE694  ASN695  SER759  ASP760  ASP761  ALA762  ILE779  LEU786  VAL792 
 PHE793  MET794  SER795  GLU796  ALA797  LYS798  CYS799  TRP800  GLU811  SER814 

> <Gold.Protein.RotatedAtoms>
  151.8027  135.0704  160.0402 H   0  0  0  0  0  0  0  0  0  0  0  0  # atno 6907 bound_to 6896
  152.3077  133.5716  159.5669 H   0  0  0  0  0  0  0  0  0  0  0  0  # atno 6908 bound_to 6896
  150.7304  134.0114  159.3713 H   0  0  0  0  0  0  0  0  0  0  0  0  # atno 6909 bound_to 6896
  144.8734  140.6401  143.5252 H   0  0  0  0  0  0  0  0  0  0  0  0  # atno 7974 bound_to 7965
  156.1810  140.3098  155.9148 H   0  0  0  0  0  0  0  0  0  0  0  0  # atno 8008 bound_to 7997
  155.3384  140.0464  157.3061 H   0  0  0  0  0  0  0  0  0  0  0  0  # atno 8009 bound_to 7997
  154.5342  140.2240  155.8761 H   0  0  0  0  0  0  0  0  0  0  0  0  # atno 8010 bound_to 7997
  140.0712  143.4875  152.1978 H   0  0  0  0  0  0  0  0  0  0  0  0  # atno 10167 bound_to 10162
  156.1324  130.6405  150.9642 H   0  0  0  0  0  0  0  0  0  0  0  0  # atno 10718 bound_to 10713
  154.7434  135.3074  154.8688 H   0  0  0  0  0  0  0  0  0  0  0  0  # atno 10763 bound_to 10752
  153.9496  135.6765  153.4748 H   0  0  0  0  0  0  0  0  0  0  0  0  # atno 10764 bound_to 10752
  153.1031  135.4902  154.8829 H   0  0  0  0  0  0  0  0  0  0  0  0  # atno 10765 bound_to 10752
  140.6940  133.9047  155.8637 H   0  0  0  0  0  0  0  0  0  0  0  0  # atno 11005 bound_to 11000
  145.4088  139.1584  143.4137 LP  0  0  0  0  0  0  0  0  0  0  0  0  # atno 17320 bound_to 7965
  146.2946  140.4190  142.8726 LP  0  0  0  0  0  0  0  0  0  0  0  0  # atno 17321 bound_to 7965
  139.5834  144.7521  151.3581 LP  0  0  0  0  0  0  0  0  0  0  0  0  # atno 17342 bound_to 10162
  140.7124  143.7355  150.7592 LP  0  0  0  0  0  0  0  0  0  0  0  0  # atno 17343 bound_to 10162
  157.6500  131.0898  150.8070 LP  0  0  0  0  0  0  0  0  0  0  0  0  # atno 17370 bound_to 10713
  156.8154  130.4966  149.5350 LP  0  0  0  0  0  0  0  0  0  0  0  0  # atno 17371 bound_to 10713
  141.0218  134.0878  157.4111 LP  0  0  0  0  0  0  0  0  0  0  0  0  # atno 17394 bound_to 11000
  139.8915  135.0119  156.6797 LP  0  0  0  0  0  0  0  0  0  0  0  0  # atno 17395 bound_to 11000

$$$$
