AV-unprocessed.smi:1661|AV-procd|sdf|6655|dock7
  -GOLD-   22720 7363D 1   1.00000     0.00000
 Structure written by MMmdl.
 37 38  0  0  0  0  0  0  0  0  3 V2000
  145.4709  132.2260  150.4642 C   0  0  0  0  0  0  0  0  0  0  0  0
  145.2567  133.5013  151.2915 C   0  0  2  0  0  0  0  0  0  0  0  0
  145.3895  134.7681  150.4299 C   0  0  0  0  0  0  0  0  0  0  0  0
  145.2056  136.0404  151.2745 C   0  0  0  0  0  0  0  0  0  0  0  0
  146.1700  136.0816  152.4041 N   0  3  1  0  0  0  0  0  0  0  0  0
  146.1006  137.3611  153.1535 C   0  0  0  0  0  0  0  0  0  0  0  0
  146.6135  138.5508  152.3277 C   0  0  0  0  0  0  0  0  0  0  0  0
  147.7254  139.1987  153.0088 N   0  0  0  0  0  0  0  0  0  0  0  0
  147.6338  139.8677  154.1653 C   0  0  0  0  0  0  0  0  0  0  0  0
  146.5433  139.9647  154.7326 O   0  0  0  0  0  0  0  0  0  0  0  0
  148.8100  140.3802  154.5908 N   0  5  0  0  0  0  0  0  0  0  0  0
  149.8133  139.5581  154.9408 C   0  0  0  0  0  0  0  0  0  0  0  0
  150.9758  140.0143  155.4345 N   0  0  0  0  0  0  0  0  0  0  0  0
  151.8796  139.0019  155.7270 N   0  0  0  0  0  0  0  0  0  0  0  0
  151.3756  137.8023  155.4377 C   0  0  0  0  0  0  0  0  0  0  0  0
  149.7536  137.8007  154.7779 S   0  0  0  0  0  0  0  0  0  0  0  0
  146.0382  134.8829  153.2747 C   0  0  0  0  0  0  0  0  0  0  0  0
  146.2400  133.5874  152.4708 C   0  0  0  0  0  0  0  0  0  0  0  0
  146.4708  132.1965  150.0300 H   0  0  0  0  0  0  0  0  0  0  0  0
  144.7513  132.1628  149.6474 H   0  0  0  0  0  0  0  0  0  0  0  0
  145.3487  131.3340  151.0796 H   0  0  0  0  0  0  0  0  0  0  0  0
  144.2434  133.4685  151.6948 H   0  0  0  0  0  0  0  0  0  0  0  0
  146.3689  134.7891  149.9494 H   0  0  0  0  0  0  0  0  0  0  0  0
  144.6521  134.7524  149.6263 H   0  0  0  0  0  0  0  0  0  0  0  0
  145.3473  136.9132  150.6360 H   0  0  0  0  0  0  0  0  0  0  0  0
  144.1869  136.0926  151.6621 H   0  0  0  0  0  0  0  0  0  0  0  0
  145.0629  137.5631  153.4232 H   0  0  0  0  0  0  0  0  0  0  0  0
  146.6512  137.2717  154.0913 H   0  0  0  0  0  0  0  0  0  0  0  0
  146.9520  138.2293  151.3428 H   0  0  0  0  0  0  0  0  0  0  0  0
  145.8120  139.2755  152.1756 H   0  0  0  0  0  0  0  0  0  0  0  0
  148.6346  139.1419  152.5738 H   0  0  0  0  0  0  0  0  0  0  0  0
  151.9638  136.9136  155.6104 H   0  0  0  0  0  0  0  0  0  0  0  0
  146.7727  134.9128  154.0786 H   0  0  0  0  0  0  0  0  0  0  0  0
  145.0546  134.8811  153.7473 H   0  0  0  0  0  0  0  0  0  0  0  0
  146.1118  132.7258  153.1270 H   0  0  0  0  0  0  0  0  0  0  0  0
  147.2663  133.5446  152.1025 H   0  0  0  0  0  0  0  0  0  0  0  0
  147.0903  136.0461  151.9891 H   0  0  0  0  0  0  0  0  0  0  0  0
  1  2  1  0  0  0  0
  1 19  1  0  0  0  0
  1 20  1  0  0  0  0
  1 21  1  0  0  0  0
  2 18  1  0  0  0  0
  2  3  1  0  0  0  0
  2 22  1  0  0  0  0
  3  4  1  0  0  0  0
  3 23  1  0  0  0  0
  3 24  1  0  0  0  0
  4  5  1  0  0  0  0
  4 25  1  0  0  0  0
  4 26  1  0  0  0  0
  5  6  1  0  0  0  0
  5 17  1  0  0  0  0
  5 37  1  0  0  0  0
  6  7  1  0  0  0  0
  6 27  1  0  0  0  0
  6 28  1  0  0  0  0
  7  8  1  0  0  0  0
  7 29  1  0  0  0  0
  7 30  1  0  0  0  0
  8  9  1  0  0  0  0
  8 31  1  0  0  0  0
  9 10  2  0  0  0  0
  9 11  1  0  0  0  0
 11 12  1  0  0  0  0
 12 16  1  0  0  0  0
 12 13  2  0  0  0  0
 13 14  1  0  0  0  0
 14 15  2  0  0  0  0
 15 16  1  0  0  0  0
 15 32  1  0  0  0  0
 17 18  1  0  0  0  0
 17 33  1  0  0  0  0
 17 34  1  0  0  0  0
 18 35  1  0  0  0  0
 18 36  1  0  0  0  0
M  CHG  1   5   1
M  CHG  1  11  -1
M  END
> <s_m_source_file>
AV-unprocessed.smi

> <i_m_source_file_index>
1661

> <i_lp_mmshare_version>
43012

> <i_f3d_flags>
0

> <s_epik_input>
W0NIM11bQ0hdMVtDSDJdW0NIMl1OKFtDSDJdW0NIMl0xKVtDSDJdW0NIMl1bTkhdQyg9TylbTkhdYzJubltjSF1zMg==

> <s_epik_cmdline>
J2VwaWtfcHl0aG9uJywgJy1waCcsICc3LjAnLCAnLXRuJywgJzgnLCAnLW1hJywgJzIwMCcsICctbWV0YWxfYmluZGluZycsICctaW1hZScsICc8aW5maWxlLm1hZT4nLCAnLW9tYWUnLCAnPG91dGZpbGUubWFlPic=

> <r_lp_tautomer_probability>
1

> <r_epik_Ionization_Penalty>
3.04466

> <r_epik_Ionization_Penalty_Charging>
3.01305

> <r_epik_Ionization_Penalty_Neutral>
0.0316037

> <r_epik_State_Penalty>
3.00821

> <r_epik_Charging_Adjusted_Penalty>
6.02127

> <i_epik_Tot_Q>
0

> <i_epik_Tot_abs_Q>
2

> <r_epik_Metal_State_Penalty>
0.454395

> <b_epik_Metal_Only>
1

> <s_lp_Force_Field>
OPLS_2005

> <r_lp_Energy>
9.82396

> <b_lp_Chiralities_Consistent>
1

> <s_lp_Variant>
AV-unprocessed.smi:1661-3

> <Gold.Version>
5.8.1

> <Gold.Id.Protein>
6NUR|6NUR_protein|mol2

> <Gold.PLP.Fitness>
40.0917

> <Gold.PLP.PLP>
-30.2650

> <Gold.PLP.part.hbond>
-3.7058

> <Gold.PLP.part.metal>
0.0000

> <Gold.PLP.part.buried>
-3.4035

> <Gold.PLP.part.nonpolar>
-24.0572

> <Gold.PLP.part.repulsive>
0.3710

> <Gold.PLP.ligand.clash>
0.0000

> <Gold.PLP.ligand.torsion>
1.0995

> <Gold.PLP.Chemscore.Hbond>
3.9913

> <Gold.PLP.Chemscore.CHOScore>
0.0000

> <Gold.PLP.Chemscore.Metal>
0.0000

> <Gold.Chemscore.Hbonds>
donor molecule, donor type, donor heavy atom, donor atom, acceptor molecule, acceptor atom, score
      L1  H     5    37       P1  7948  2.00
      L1  H     8    31       P1  7957  0.75
      P1  H  7989  7998       L1    13  0.38

> <Gold.PLP.Chemscore.Internal.Correction>
0.0520

> <Gold.Rescore>
     Score         DG    S(hbond)    S(metal)    S(lipo)     H(rot)  DE(clash)    DE(int)     intcor
     15.01     -16.22       2.45        0.00      58.53       1.68       0.11       1.10       ----

> <Gold.Chemscore.Fitness>
15.0069

> <Gold.Chemscore.DG>
-16.2213

> <Gold.Chemscore.ZeroCoef>
-5.4800

> <Gold.Chemscore.Hbond>
2.4514

> <Gold.Chemscore.Metal>
0.0000

> <Gold.Chemscore.Lipo>
58.5340

> <Gold.Chemscore.Internal_Hbond>
0.0000

> <Gold.Chemscore.DEClash>
0.1140

> <Gold.Chemscore.DEInternal>
1.1004

> <Gold.Chemscore.Rot>
1.6777

> <Gold.Chemscore.Internal.Correction>
   9.000000E+99

> <Gold.Chemscore.Hbonds>
donor molecule, donor type, donor heavy atom, donor atom, acceptor molecule, acceptor atom, score
      L1  H     5    37       P1  7948  1.00
      L1  H     8    31       P1  7957  0.75
      P1  H  7989  7998       L1    13  0.02

> <Gold.Chemscore.Hbond.Weighted>
-8.1878

> <Gold.Chemscore.Metal.Weighted>
-0.0000

> <Gold.Chemscore.Lipo.Weighted>
-6.8485

> <Gold.Chemscore.Internal_Hbond.Weighted>
0.0000

> <Gold.Chemscore.DEClash.Weighted>
0.1140

> <Gold.Chemscore.DEInternal.Weighted>
1.1004

> <Gold.Chemscore.Rot.Weighted>
4.2950

> <Gold.Chemscore.Internal.Correction.Weighted>
   9.000000E+99

> <Gold.Protein.RotatedTorsions>
[ 6907 6896 6895 6894 ] final   -2.01 input  -60.11 | X-H torsion
[ 7974 7965 7964 7962 ] final    2.01 input  175.53 | X-H torsion
[ 8008 7997 7996 7995 ] final   76.14 input   59.86 | X-H torsion
[ 10167 10162 10161 10158 ] final  164.47 input  -65.29 | X-H torsion
[ 10718 10713 10712 10709 ] final  154.10 input   66.30 | X-H torsion
[ 10763 10752 10751 10750 ] final   28.42 input  -60.55 | X-H torsion
[ 11005 11000 10999 10996 ] final -141.86 input  -57.11 | X-H torsion

> <Gold.Protein.ActiveResidues>
 VAL166  LYS551  ARG553  GLY616  TRP617  ASP618  TYR619  PRO620  LYS621  CYS622 
 ASP623  PHE694  ASN695  SER759  ASP760  ASP761  ALA762  ILE779  LEU786  VAL792 
 PHE793  MET794  SER795  GLU796  ALA797  LYS798  CYS799  TRP800  GLU811  SER814 

> <Gold.Protein.RotatedAtoms>
  151.5368  135.1068  159.9916 H   0  0  0  0  0  0  0  0  0  0  0  0  # atno 6907 bound_to 6896
  152.4554  133.7708  159.6808 H   0  0  0  0  0  0  0  0  0  0  0  0  # atno 6908 bound_to 6896
  150.8495  133.7743  159.3055 H   0  0  0  0  0  0  0  0  0  0  0  0  # atno 6909 bound_to 6896
  146.2442  140.0901  142.8352 H   0  0  0  0  0  0  0  0  0  0  0  0  # atno 7974 bound_to 7965
  155.8231  140.3469  155.5526 H   0  0  0  0  0  0  0  0  0  0  0  0  # atno 8008 bound_to 7997
  155.8321  140.0928  157.1806 H   0  0  0  0  0  0  0  0  0  0  0  0  # atno 8009 bound_to 7997
  154.4004  140.1410  156.3614 H   0  0  0  0  0  0  0  0  0  0  0  0  # atno 8010 bound_to 7997
  139.4889  144.4232  151.9161 H   0  0  0  0  0  0  0  0  0  0  0  0  # atno 10167 bound_to 10162
  157.2361  131.0749  151.1822 H   0  0  0  0  0  0  0  0  0  0  0  0  # atno 10718 bound_to 10713
  153.0493  135.6513  154.0735 H   0  0  0  0  0  0  0  0  0  0  0  0  # atno 10763 bound_to 10752
  154.0426  135.2902  155.3354 H   0  0  0  0  0  0  0  0  0  0  0  0  # atno 10764 bound_to 10752
  154.6771  135.5334  153.8280 H   0  0  0  0  0  0  0  0  0  0  0  0  # atno 10765 bound_to 10752
  140.8282  134.2548  157.4869 H   0  0  0  0  0  0  0  0  0  0  0  0  # atno 11005 bound_to 11000
  145.0658  140.9120  143.4911 LP  0  0  0  0  0  0  0  0  0  0  0  0  # atno 17320 bound_to 7965
  145.1025  139.2812  143.5679 LP  0  0  0  0  0  0  0  0  0  0  0  0  # atno 17321 bound_to 7965
  140.3676  144.2895  150.5924 LP  0  0  0  0  0  0  0  0  0  0  0  0  # atno 17342 bound_to 10162
  140.5347  143.2236  151.8182 LP  0  0  0  0  0  0  0  0  0  0  0  0  # atno 17343 bound_to 10162
  157.3428  130.7042  149.6392 LP  0  0  0  0  0  0  0  0  0  0  0  0  # atno 17370 bound_to 10713
  155.9672  130.4275  150.4746 LP  0  0  0  0  0  0  0  0  0  0  0  0  # atno 17371 bound_to 10713
  139.8706  134.9572  156.4261 LP  0  0  0  0  0  0  0  0  0  0  0  0  # atno 17394 bound_to 11000
  140.9026  133.7768  155.9698 LP  0  0  0  0  0  0  0  0  0  0  0  0  # atno 17395 bound_to 11000

$$$$
