AV-unprocessed.smi:542|AV-procd|sdf|2874|dock9
  -GOLD-   2262023363D 1   1.00000     0.00000
 Structure written by MMmdl.
 45 47  0  0  0  0  0  0  0  0  2 V2000
  155.4924  139.8941  164.0374 C   0  0  0  0  0  0  0  0  0  0  0  0
  156.1143  140.0812  162.7782 O   0  0  0  0  0  0  0  0  0  0  0  0
  155.4954  139.3261  161.7504 C   0  0  0  0  0  0  0  0  0  0  0  0
  154.0084  139.7122  161.6807 C   0  0  0  0  0  0  0  0  0  0  0  0
  153.4581  139.5741  160.3347 N   0  0  0  0  0  0  0  0  0  0  0  0
  153.0468  140.5470  159.4693 C   0  0  0  0  0  0  0  0  0  0  0  0
  153.0696  141.9169  159.7690 N   0  0  0  0  0  0  0  0  0  0  0  0
  153.5345  143.0120  158.9136 C   0  0  0  0  0  0  0  0  0  0  0  0
  152.5171  144.1659  158.8425 C   0  0  0  0  0  0  0  0  0  0  0  0
  152.2215  144.7201  160.2452 C   0  0  0  0  0  0  0  0  0  0  0  0
  151.1483  145.8171  160.2143 C   0  0  0  0  0  0  0  0  0  0  0  0
  151.8286  143.5564  161.1697 C   0  0  0  0  0  0  0  0  0  0  0  0
  152.8845  142.4377  161.1254 C   0  0  0  0  0  0  0  0  0  0  0  0
  152.6450  140.0859  158.2817 N   0  0  0  0  0  0  0  0  0  0  0  0
  152.7951  138.7148  158.4004 C   0  0  0  0  0  0  0  0  0  0  0  0
  153.2932  138.3811  159.6200 C   0  0  0  0  0  0  0  0  0  0  0  0
  153.5974  136.9899  160.0277 C   0  0  0  0  0  0  0  0  0  0  0  0
  154.0783  136.7402  161.1309 O   0  0  0  0  0  0  0  0  0  0  0  0
  153.2852  136.0828  159.0488 N   0  5  0  0  0  0  0  0  0  0  0  0
  152.7697  136.3779  157.8054 C   0  0  0  0  0  0  0  0  0  0  0  0
  152.5155  135.4985  156.9813 O   0  0  0  0  0  0  0  0  0  0  0  0
  152.5275  137.6816  157.4615 N   0  0  0  0  0  0  0  0  0  0  0  0
  151.9874  138.0266  156.1432 C   0  0  0  0  0  0  0  0  0  0  0  0
  156.0001  140.4969  164.7903 H   0  0  0  0  0  0  0  0  0  0  0  0
  155.5434  138.8505  164.3509 H   0  0  0  0  0  0  0  0  0  0  0  0
  154.4461  140.2009  164.0099 H   0  0  0  0  0  0  0  0  0  0  0  0
  155.9888  139.5220  160.7985 H   0  0  0  0  0  0  0  0  0  0  0  0
  155.6133  138.2614  161.9511 H   0  0  0  0  0  0  0  0  0  0  0  0
  153.4235  139.1172  162.3773 H   0  0  0  0  0  0  0  0  0  0  0  0
  153.8697  140.7407  162.0130 H   0  0  0  0  0  0  0  0  0  0  0  0
  154.4805  143.3835  159.3099 H   0  0  0  0  0  0  0  0  0  0  0  0
  153.7632  142.6545  157.9145 H   0  0  0  0  0  0  0  0  0  0  0  0
  152.9050  144.9586  158.2022 H   0  0  0  0  0  0  0  0  0  0  0  0
  151.5928  143.8197  158.3793 H   0  0  0  0  0  0  0  0  0  0  0  0
  153.1399  145.1630  160.6334 H   0  0  0  0  0  0  0  0  0  0  0  0
  150.2013  145.4351  159.8318 H   0  0  0  0  0  0  0  0  0  0  0  0
  151.4547  146.6470  159.5771 H   0  0  0  0  0  0  0  0  0  0  0  0
  150.9676  146.2168  161.2123 H   0  0  0  0  0  0  0  0  0  0  0  0
  151.7138  143.9139  162.1935 H   0  0  0  0  0  0  0  0  0  0  0  0
  150.8600  143.1525  160.8713 H   0  0  0  0  0  0  0  0  0  0  0  0
  152.5746  141.6335  161.7935 H   0  0  0  0  0  0  0  0  0  0  0  0
  153.8397  142.8018  161.5057 H   0  0  0  0  0  0  0  0  0  0  0  0
  152.6473  137.6660  155.3533 H   0  0  0  0  0  0  0  0  0  0  0  0
  151.8722  139.1010  156.0032 H   0  0  0  0  0  0  0  0  0  0  0  0
  151.0060  137.5718  156.0026 H   0  0  0  0  0  0  0  0  0  0  0  0
  1  2  1  0  0  0  0
  1 24  1  0  0  0  0
  1 25  1  0  0  0  0
  1 26  1  0  0  0  0
  2  3  1  0  0  0  0
  3  4  1  0  0  0  0
  3 27  1  0  0  0  0
  3 28  1  0  0  0  0
  4  5  1  0  0  0  0
  4 29  1  0  0  0  0
  4 30  1  0  0  0  0
  5 16  1  0  0  0  0
  5  6  1  0  0  0  0
  6  7  1  0  0  0  0
  6 14  2  0  0  0  0
  7 13  1  0  0  0  0
  7  8  1  0  0  0  0
  8  9  1  0  0  0  0
  8 31  1  0  0  0  0
  8 32  1  0  0  0  0
  9 10  1  0  0  0  0
  9 33  1  0  0  0  0
  9 34  1  0  0  0  0
 10 11  1  0  0  0  0
 10 12  1  0  0  0  0
 10 35  1  0  0  0  0
 11 36  1  0  0  0  0
 11 37  1  0  0  0  0
 11 38  1  0  0  0  0
 12 13  1  0  0  0  0
 12 39  1  0  0  0  0
 12 40  1  0  0  0  0
 13 41  1  0  0  0  0
 13 42  1  0  0  0  0
 14 15  1  0  0  0  0
 15 22  1  0  0  0  0
 15 16  2  0  0  0  0
 16 17  1  0  0  0  0
 17 18  2  0  0  0  0
 17 19  1  0  0  0  0
 19 20  1  0  0  0  0
 20 21  2  0  0  0  0
 20 22  1  0  0  0  0
 22 23  1  0  0  0  0
 23 43  1  0  0  0  0
 23 44  1  0  0  0  0
 23 45  1  0  0  0  0
M  CHG  1  19  -1
M  END
> <s_m_source_file>
AV-unprocessed.smi

> <i_m_source_file_index>
542

> <i_lp_mmshare_version>
43012

> <i_f3d_flags>
0

> <s_epik_input>
W0NIM11uMWMoPU8pW25IXWMoPU8pYyhjMTIpbihbQ0gyXVtDSDJdT1tDSDNdKWMobjIpTjNbQ0gyXVtDSDJdW0NIXShbQ0gzXSlbQ0gyXVtDSDJdMw==

> <s_epik_cmdline>
J2VwaWtfcHl0aG9uJywgJy1waCcsICc3LjAnLCAnLXRuJywgJzgnLCAnLW1hJywgJzIwMCcsICctbWV0YWxfYmluZGluZycsICctaW1hZScsICc8aW5maWxlLm1hZT4nLCAnLW9tYWUnLCAnPG91dGZpbGUubWFlPic=

> <r_lp_tautomer_probability>
1

> <r_epik_Ionization_Penalty>
5.11335

> <r_epik_Ionization_Penalty_Charging>
0.0783784

> <r_epik_Ionization_Penalty_Neutral>
5.03497

> <r_epik_State_Penalty>
5.01923

> <r_epik_Charging_Adjusted_Penalty>
5.09761

> <i_epik_Tot_Q>
-1

> <i_epik_Tot_abs_Q>
1

> <r_epik_Metal_State_Penalty>
1.13361

> <b_epik_Metal_Only>
1

> <s_lp_Force_Field>
OPLS_2005

> <r_lp_Energy>
42.8721

> <b_lp_Chiralities_Consistent>
1

> <s_lp_Variant>
AV-unprocessed.smi:542-2

> <Gold.Version>
5.8.1

> <Gold.Id.Protein>
6NUR|6NUR_protein|mol2

> <Gold.PLP.Fitness>
47.5615

> <Gold.PLP.PLP>
-40.0266

> <Gold.PLP.part.hbond>
-3.6899

> <Gold.PLP.part.metal>
0.0000

> <Gold.PLP.part.buried>
-3.6229

> <Gold.PLP.part.nonpolar>
-33.5278

> <Gold.PLP.part.repulsive>
0.0000

> <Gold.PLP.ligand.clash>
0.0033

> <Gold.PLP.ligand.torsion>
0.7944

> <Gold.PLP.Chemscore.Hbond>
3.0000

> <Gold.PLP.Chemscore.CHOScore>
0.0000

> <Gold.PLP.Chemscore.Metal>
0.0000

> <Gold.Chemscore.Hbonds>
donor molecule, donor type, donor heavy atom, donor atom, acceptor molecule, acceptor atom, score
      P1  H  6896  6907       L1    19  1.73
      P1  H 10752 10765       L1    21  1.00

> <Gold.PLP.Chemscore.Internal.Correction>
0.1270

> <Gold.Rescore>
     Score         DG    S(hbond)    S(metal)    S(lipo)     H(rot)  DE(clash)    DE(int)     intcor
     15.01     -17.85       1.18        0.00     103.52       1.44       1.07       1.77       ----

> <Gold.Chemscore.Fitness>
15.0060

> <Gold.Chemscore.DG>
-17.8455

> <Gold.Chemscore.ZeroCoef>
-5.4800

> <Gold.Chemscore.Hbond>
1.1776

> <Gold.Chemscore.Metal>
0.0000

> <Gold.Chemscore.Lipo>
103.5189

> <Gold.Chemscore.Internal_Hbond>
0.0000

> <Gold.Chemscore.DEClash>
1.0679

> <Gold.Chemscore.DEInternal>
1.7717

> <Gold.Chemscore.Rot>
1.4372

> <Gold.Chemscore.Internal.Correction>
   9.000000E+99

> <Gold.Chemscore.Hbonds>
donor molecule, donor type, donor heavy atom, donor atom, acceptor molecule, acceptor atom, score
      P1  H  6896  6907       L1    19  0.27
      P1  H 10752 10765       L1    21  0.98

> <Gold.Chemscore.Hbond.Weighted>
-3.9331

> <Gold.Chemscore.Metal.Weighted>
-0.0000

> <Gold.Chemscore.Lipo.Weighted>
-12.1117

> <Gold.Chemscore.Internal_Hbond.Weighted>
0.0000

> <Gold.Chemscore.DEClash.Weighted>
1.0679

> <Gold.Chemscore.DEInternal.Weighted>
1.7717

> <Gold.Chemscore.Rot.Weighted>
3.6793

> <Gold.Chemscore.Internal.Correction.Weighted>
   9.000000E+99

> <Gold.Protein.RotatedTorsions>
[ 6907 6896 6895 6894 ] final   49.28 input  -60.11 | X-H torsion
[ 7974 7965 7964 7962 ] final  -23.35 input  175.53 | X-H torsion
[ 8008 7997 7996 7995 ] final -119.84 input   59.86 | X-H torsion
[ 10167 10162 10161 10158 ] final  -86.13 input  -65.29 | X-H torsion
[ 10718 10713 10712 10709 ] final  -16.03 input   66.30 | X-H torsion
[ 10763 10752 10751 10750 ] final -129.67 input  -60.55 | X-H torsion
[ 11005 11000 10999 10996 ] final  -43.70 input  -57.11 | X-H torsion

> <Gold.Protein.ActiveResidues>
 VAL166  LYS551  ARG553  GLY616  TRP617  ASP618  TYR619  PRO620  LYS621  CYS622 
 ASP623  PHE694  ASN695  SER759  ASP760  ASP761  ALA762  ILE779  LEU786  VAL792 
 PHE793  MET794  SER795  GLU796  ALA797  LYS798  CYS799  TRP800  GLU811  SER814 

> <Gold.Protein.RotatedAtoms>
  152.2890  134.7743  160.0381 H   0  0  0  0  0  0  0  0  0  0  0  0  # atno 6907 bound_to 6896
  151.8295  133.3401  159.3617 H   0  0  0  0  0  0  0  0  0  0  0  0  # atno 6908 bound_to 6896
  150.7222  134.5425  159.5798 H   0  0  0  0  0  0  0  0  0  0  0  0  # atno 6909 bound_to 6896
  146.1621  140.4603  142.8567 H   0  0  0  0  0  0  0  0  0  0  0  0  # atno 7974 bound_to 7965
  155.1222  140.0399  157.2753 H   0  0  0  0  0  0  0  0  0  0  0  0  # atno 8008 bound_to 7997
  154.6605  140.2590  155.7088 H   0  0  0  0  0  0  0  0  0  0  0  0  # atno 8009 bound_to 7997
  156.2617  140.2818  156.1075 H   0  0  0  0  0  0  0  0  0  0  0  0  # atno 8010 bound_to 7997
  140.3971  143.2679  151.9190 H   0  0  0  0  0  0  0  0  0  0  0  0  # atno 10167 bound_to 10162
  156.5933  130.4805  149.6270 H   0  0  0  0  0  0  0  0  0  0  0  0  # atno 10718 bound_to 10713
  154.8757  135.3888  154.3957 H   0  0  0  0  0  0  0  0  0  0  0  0  # atno 10763 bound_to 10752
  153.4687  135.7030  153.6011 H   0  0  0  0  0  0  0  0  0  0  0  0  # atno 10764 bound_to 10752
  153.4478  135.3841  155.2234 H   0  0  0  0  0  0  0  0  0  0  0  0  # atno 10765 bound_to 10752
  141.0401  133.6783  156.2770 H   0  0  0  0  0  0  0  0  0  0  0  0  # atno 11005 bound_to 11000
  144.8042  140.6269  143.6458 LP  0  0  0  0  0  0  0  0  0  0  0  0  # atno 17320 bound_to 7965
  145.4560  139.1518  143.3892 LP  0  0  0  0  0  0  0  0  0  0  0  0  # atno 17321 bound_to 7965
  139.4786  144.5670  151.8149 LP  0  0  0  0  0  0  0  0  0  0  0  0  # atno 17342 bound_to 10162
  140.4779  144.1493  150.5928 LP  0  0  0  0  0  0  0  0  0  0  0  0  # atno 17343 bound_to 10162
  156.2531  130.6919  151.1663 LP  0  0  0  0  0  0  0  0  0  0  0  0  # atno 17370 bound_to 10713
  157.7298  131.0621  150.5756 LP  0  0  0  0  0  0  0  0  0  0  0  0  # atno 17371 bound_to 10713
  140.6249  134.5323  157.5552 LP  0  0  0  0  0  0  0  0  0  0  0  0  # atno 17394 bound_to 11000
  139.9270  134.8037  156.1041 LP  0  0  0  0  0  0  0  0  0  0  0  0  # atno 17395 bound_to 11000

$$$$
