AV-unprocessed.smi:2270|AV-procd|sdf|9157|dock3
  -GOLD-   2272012363D 1   1.00000     0.00000
 Structure written by MMmdl.
 53 54  0  0  0  0  0  0  0  0  2 V2000
  153.6606  142.1718  161.2043 C   0  0  0  0  0  0  0  0  0  0  0  0
  152.8634  143.2726  160.5364 C   0  0  0  0  0  0  0  0  0  0  0  0
  152.8354  144.5747  161.0733 C   0  0  0  0  0  0  0  0  0  0  0  0
  152.0723  145.5504  160.4074 C   0  0  0  0  0  0  0  0  0  0  0  0
  151.3790  145.1891  159.2362 C   0  0  0  0  0  0  0  0  0  0  0  0
  151.4767  143.8594  158.7547 C   0  0  0  0  0  0  0  0  0  0  0  0
  150.7687  143.4672  157.5905 N   0  0  0  0  0  0  0  0  0  0  0  0
  150.6533  142.2273  157.0862 C   0  0  0  0  0  0  0  0  0  0  0  0
  151.2766  141.2410  157.4790 O   0  0  0  0  0  0  0  0  0  0  0  0
  149.7343  142.1863  156.1108 N   0  0  0  0  0  0  0  0  0  0  0  0
  149.2817  140.9868  155.4112 C   0  0  0  0  0  0  0  0  0  0  0  0
  148.0028  141.2234  154.5548 C   0  0  1  0  0  0  0  0  0  0  0  0
  147.3579  139.8968  154.0547 C   0  0  0  0  0  0  0  0  0  0  0  0
  148.3649  138.7349  153.9536 C   0  0  0  0  0  0  0  0  0  0  0  0
  146.6672  140.0735  152.6875 C   0  0  0  0  0  0  0  0  0  0  0  0
  146.9646  142.0699  155.2257 N   0  3  0  0  0  0  0  0  0  0  0  0
  146.5800  141.6432  156.5953 C   0  0  0  0  0  0  0  0  0  0  0  0
  145.7116  142.7253  157.2692 C   0  0  0  0  0  0  0  0  0  0  0  0
  144.5234  143.0514  156.4783 N   0  0  0  0  0  0  0  0  0  0  0  0
  143.5274  141.9845  156.4701 C   0  0  0  0  0  0  0  0  0  0  0  0
  144.9210  143.4808  155.1360 C   0  0  0  0  0  0  0  0  0  0  0  0
  145.7695  142.4148  154.4133 C   0  0  0  0  0  0  0  0  0  0  0  0
  152.1986  142.9239  159.4134 N   0  0  0  0  0  0  0  0  0  0  0  0
  154.0355  142.4908  162.1773 H   0  0  0  0  0  0  0  0  0  0  0  0
  154.5133  141.8933  160.5846 H   0  0  0  0  0  0  0  0  0  0  0  0
  153.0404  141.2876  161.3541 H   0  0  0  0  0  0  0  0  0  0  0  0
  153.3776  144.8215  161.9742 H   0  0  0  0  0  0  0  0  0  0  0  0
  152.0148  146.5585  160.7908 H   0  0  0  0  0  0  0  0  0  0  0  0
  150.7762  145.9293  158.7312 H   0  0  0  0  0  0  0  0  0  0  0  0
  150.1389  144.1608  157.2151 H   0  0  0  0  0  0  0  0  0  0  0  0
  149.2894  143.0542  155.8496 H   0  0  0  0  0  0  0  0  0  0  0  0
  150.1149  140.6984  154.7726 H   0  0  0  0  0  0  0  0  0  0  0  0
  149.1296  140.1512  156.0960 H   0  0  0  0  0  0  0  0  0  0  0  0
  148.3179  141.7587  153.6575 H   0  0  0  0  0  0  0  0  0  0  0  0
  146.5929  139.5906  154.7686 H   0  0  0  0  0  0  0  0  0  0  0  0
  149.2180  139.0007  153.3287 H   0  0  0  0  0  0  0  0  0  0  0  0
  147.9002  137.8504  153.5166 H   0  0  0  0  0  0  0  0  0  0  0  0
  148.7409  138.4325  154.9305 H   0  0  0  0  0  0  0  0  0  0  0  0
  147.3729  140.4113  151.9275 H   0  0  0  0  0  0  0  0  0  0  0  0
  145.8513  140.7952  152.7301 H   0  0  0  0  0  0  0  0  0  0  0  0
  146.2361  139.1335  152.3415 H   0  0  0  0  0  0  0  0  0  0  0  0
  146.0510  140.6928  156.5835 H   0  0  0  0  0  0  0  0  0  0  0  0
  147.4783  141.4909  157.1942 H   0  0  0  0  0  0  0  0  0  0  0  0
  145.4104  142.4039  158.2669 H   0  0  0  0  0  0  0  0  0  0  0  0
  146.2999  143.6344  157.4024 H   0  0  0  0  0  0  0  0  0  0  0  0
  142.6396  142.3025  155.9224 H   0  0  0  0  0  0  0  0  0  0  0  0
  143.2193  141.7492  157.4891 H   0  0  0  0  0  0  0  0  0  0  0  0
  143.8943  141.0672  156.0107 H   0  0  0  0  0  0  0  0  0  0  0  0
  144.0330  143.7206  154.5500 H   0  0  0  0  0  0  0  0  0  0  0  0
  145.4932  144.4053  155.2224 H   0  0  0  0  0  0  0  0  0  0  0  0
  146.0818  142.8066  153.4458 H   0  0  0  0  0  0  0  0  0  0  0  0
  145.1651  141.5346  154.2088 H   0  0  0  0  0  0  0  0  0  0  0  0
  147.4354  142.9509  155.3751 H   0  0  0  0  0  0  0  0  0  0  0  0
  1  2  1  0  0  0  0
  1 24  1  0  0  0  0
  1 25  1  0  0  0  0
  1 26  1  0  0  0  0
  2 23  1  0  0  0  0
  2  3  2  0  0  0  0
  3  4  1  0  0  0  0
  3 27  1  0  0  0  0
  4  5  2  0  0  0  0
  4 28  1  0  0  0  0
  5  6  1  0  0  0  0
  5 29  1  0  0  0  0
  6  7  1  0  0  0  0
  6 23  2  0  0  0  0
  7  8  1  0  0  0  0
  7 30  1  0  0  0  0
  8  9  2  0  0  0  0
  8 10  1  0  0  0  0
 10 11  1  0  0  0  0
 10 31  1  0  0  0  0
 11 12  1  0  0  0  0
 11 32  1  0  0  0  0
 11 33  1  0  0  0  0
 12 13  1  0  0  0  0
 12 16  1  0  0  0  0
 12 34  1  0  0  0  0
 13 14  1  0  0  0  0
 13 15  1  0  0  0  0
 13 35  1  0  0  0  0
 14 36  1  0  0  0  0
 14 37  1  0  0  0  0
 14 38  1  0  0  0  0
 15 39  1  0  0  0  0
 15 40  1  0  0  0  0
 15 41  1  0  0  0  0
 16 22  1  0  0  0  0
 16 17  1  0  0  0  0
 16 53  1  0  0  0  0
 17 18  1  0  0  0  0
 17 42  1  0  0  0  0
 17 43  1  0  0  0  0
 18 19  1  0  0  0  0
 18 44  1  0  0  0  0
 18 45  1  0  0  0  0
 19 20  1  0  0  0  0
 19 21  1  0  0  0  0
 20 46  1  0  0  0  0
 20 47  1  0  0  0  0
 20 48  1  0  0  0  0
 21 22  1  0  0  0  0
 21 49  1  0  0  0  0
 21 50  1  0  0  0  0
 22 51  1  0  0  0  0
 22 52  1  0  0  0  0
M  CHG  1  16   1
M  END
> <s_m_source_file>
AV-unprocessed.smi

> <i_m_source_file_index>
2270

> <i_lp_mmshare_version>
43012

> <i_f3d_flags>
0

> <s_epik_input>
W0NIM11jMVtjSF1bY0hdW2NIXWMobjEpW05IXUMoPU8pW05IXVtDSDJdW0NASF0oW0NIXShbQ0gzXSlbQ0gzXSlOMltDSDJdW0NIMl1OKFtDSDNdKVtDSDJdW0NIMl0y

> <s_epik_cmdline>
J2VwaWtfcHl0aG9uJywgJy1waCcsICc3LjAnLCAnLXRuJywgJzgnLCAnLW1hJywgJzIwMCcsICctbWV0YWxfYmluZGluZycsICctaW1hZScsICc8aW5maWxlLm1hZT4nLCAnLW9tYWUnLCAnPG91dGZpbGUubWFlPic=

> <r_epik_Ionization_Penalty>
0.201855

> <r_epik_Ionization_Penalty_Charging>
0.20006

> <r_epik_Ionization_Penalty_Neutral>
0.00179462

> <r_epik_State_Penalty>
1.43207

> <r_epik_Charging_Adjusted_Penalty>
1.63213

> <i_epik_Tot_Q>
1

> <i_epik_Tot_abs_Q>
1

> <r_epik_Metal_State_Penalty>
1.43208

> <b_epik_Metal_Only>
0

> <s_lp_Force_Field>
OPLS_2005

> <r_lp_Energy>
37.2403

> <b_lp_Chiralities_Consistent>
1

> <s_lp_Variant>
AV-unprocessed.smi:2270-4

> <Gold.Version>
5.8.1

> <Gold.Id.Protein>
6NUR|6NUR_protein|mol2

> <Gold.PLP.Fitness>
55.4985

> <Gold.PLP.PLP>
-45.1195

> <Gold.PLP.part.hbond>
-2.9923

> <Gold.PLP.part.metal>
0.0000

> <Gold.PLP.part.buried>
-4.7868

> <Gold.PLP.part.nonpolar>
-37.2007

> <Gold.PLP.part.repulsive>
0.4123

> <Gold.PLP.ligand.clash>
0.0000

> <Gold.PLP.ligand.torsion>
0.9878

> <Gold.PLP.Chemscore.Hbond>
3.9745

> <Gold.PLP.Chemscore.CHOScore>
0.0000

> <Gold.PLP.Chemscore.Metal>
0.0000

> <Gold.Chemscore.Hbonds>
donor molecule, donor type, donor heavy atom, donor atom, acceptor molecule, acceptor atom, score
      L1  H     7    30       P1  8028  0.94
      L1  H    10    31       P1  8028  1.00
      L1  H    16    53       P1  8028  0.81

> <Gold.PLP.Chemscore.Internal.Correction>
0.4311

> <Gold.Rescore>
     Score         DG    S(hbond)    S(metal)    S(lipo)     H(rot)  DE(clash)    DE(int)     intcor
     17.85     -23.13       2.40        0.00     117.42       1.61       2.05       3.23       ----

> <Gold.Chemscore.Fitness>
17.8523

> <Gold.Chemscore.DG>
-23.1346

> <Gold.Chemscore.ZeroCoef>
-5.4800

> <Gold.Chemscore.Hbond>
2.4044

> <Gold.Chemscore.Metal>
0.0000

> <Gold.Chemscore.Lipo>
117.4186

> <Gold.Chemscore.Internal_Hbond>
0.0000

> <Gold.Chemscore.DEClash>
2.0537

> <Gold.Chemscore.DEInternal>
3.2286

> <Gold.Chemscore.Rot>
1.6070

> <Gold.Chemscore.Internal.Correction>
   9.000000E+99

> <Gold.Chemscore.Hbonds>
donor molecule, donor type, donor heavy atom, donor atom, acceptor molecule, acceptor atom, score
      L1  H     7    30       P1  8028  0.66
      L1  H    10    31       P1  8028  1.00
      L1  H    16    53       P1  8028  0.12

> <Gold.Chemscore.Hbond.Weighted>
-8.0306

> <Gold.Chemscore.Metal.Weighted>
-0.0000

> <Gold.Chemscore.Lipo.Weighted>
-13.7380

> <Gold.Chemscore.Internal_Hbond.Weighted>
0.0000

> <Gold.Chemscore.DEClash.Weighted>
2.0537

> <Gold.Chemscore.DEInternal.Weighted>
3.2286

> <Gold.Chemscore.Rot.Weighted>
4.1140

> <Gold.Chemscore.Internal.Correction.Weighted>
   9.000000E+99

> <Gold.Protein.RotatedTorsions>
[ 6907 6896 6895 6894 ] final -153.80 input  -60.11 | X-H torsion
[ 7974 7965 7964 7962 ] final    8.44 input  175.53 | X-H torsion
[ 8008 7997 7996 7995 ] final  -29.37 input   59.86 | X-H torsion
[ 10167 10162 10161 10158 ] final  127.91 input  -65.29 | X-H torsion
[ 10718 10713 10712 10709 ] final  -81.32 input   66.30 | X-H torsion
[ 10763 10752 10751 10750 ] final  -19.17 input  -60.55 | X-H torsion
[ 11005 11000 10999 10996 ] final  -47.44 input  -57.11 | X-H torsion

> <Gold.Protein.ActiveResidues>
 VAL166  LYS551  ARG553  GLY616  TRP617  ASP618  TYR619  PRO620  LYS621  CYS622 
 ASP623  PHE694  ASN695  SER759  ASP760  ASP761  ALA762  ILE779  LEU786  VAL792 
 PHE793  MET794  SER795  GLU796  ALA797  LYS798  CYS799  TRP800  GLU811  SER814 

> <Gold.Protein.RotatedAtoms>
  151.2480  133.4365  159.2609 H   0  0  0  0  0  0  0  0  0  0  0  0  # atno 6907 bound_to 6896
  151.0644  134.9758  159.8287 H   0  0  0  0  0  0  0  0  0  0  0  0  # atno 6908 bound_to 6896
  152.5403  134.2428  159.8921 H   0  0  0  0  0  0  0  0  0  0  0  0  # atno 6909 bound_to 6896
  146.2416  139.9932  142.8423 H   0  0  0  0  0  0  0  0  0  0  0  0  # atno 7974 bound_to 7965
  154.4293  140.1820  156.1237 H   0  0  0  0  0  0  0  0  0  0  0  0  # atno 8008 bound_to 7997
  156.0123  140.3349  155.6928 H   0  0  0  0  0  0  0  0  0  0  0  0  # atno 8009 bound_to 7997
  155.6094  140.0648  157.2701 H   0  0  0  0  0  0  0  0  0  0  0  0  # atno 8010 bound_to 7997
  139.5554  144.6844  151.4199 H   0  0  0  0  0  0  0  0  0  0  0  0  # atno 10167 bound_to 10162
  156.0053  130.4600  150.3934 H   0  0  0  0  0  0  0  0  0  0  0  0  # atno 10718 bound_to 10713
  153.6007  135.6999  153.5385 H   0  0  0  0  0  0  0  0  0  0  0  0  # atno 10763 bound_to 10752
  153.3099  135.4104  155.1327 H   0  0  0  0  0  0  0  0  0  0  0  0  # atno 10764 bound_to 10752
  154.8583  135.3669  154.5542 H   0  0  0  0  0  0  0  0  0  0  0  0  # atno 10765 bound_to 10752
  141.0640  133.6699  156.3297 H   0  0  0  0  0  0  0  0  0  0  0  0  # atno 11005 bound_to 11000
  145.1484  140.9609  143.4447 LP  0  0  0  0  0  0  0  0  0  0  0  0  # atno 17320 bound_to 7965
  145.0229  139.3408  143.6063 LP  0  0  0  0  0  0  0  0  0  0  0  0  # atno 17321 bound_to 7965
  140.6825  143.8048  150.7141 LP  0  0  0  0  0  0  0  0  0  0  0  0  # atno 17342 bound_to 10162
  140.1506  143.4361  152.2134 LP  0  0  0  0  0  0  0  0  0  0  0  0  # atno 17343 bound_to 10162
  157.2007  131.0437  151.2652 LP  0  0  0  0  0  0  0  0  0  0  0  0  # atno 17370 bound_to 10713
  157.3978  130.7317  149.6744 LP  0  0  0  0  0  0  0  0  0  0  0  0  # atno 17371 bound_to 10713
  140.5810  134.5745  157.5479 LP  0  0  0  0  0  0  0  0  0  0  0  0  # atno 17394 bound_to 11000
  139.9459  134.7703  156.0563 LP  0  0  0  0  0  0  0  0  0  0  0  0  # atno 17395 bound_to 11000

$$$$
