AV-unprocessed.smi:2034|AV-procd|sdf|8265|dock2
  -GOLD-   2272010533D 1   1.00000     0.00000
 Structure written by MMmdl.
 50 52  0  0  0  0  0  0  0  0  1 V2000
  153.3193  141.8147  160.9615 C   0  0  0  0  0  0  0  0  0  0  0  0
  152.3685  142.5602  160.0190 C   0  0  2  0  0  0  0  0  0  0  0  0
  151.9113  141.6748  158.8455 C   0  0  0  0  0  0  0  0  0  0  0  0
  151.1017  142.4544  157.9205 N   0  0  0  0  0  0  0  0  0  0  0  0
  150.5121  141.6849  156.9094 C   0  0  0  0  0  0  0  0  0  0  0  0
  149.1322  141.7778  156.6177 C   0  0  0  0  0  0  0  0  0  0  0  0
  148.6053  140.9774  155.5868 C   0  0  0  0  0  0  0  0  0  0  0  0
  149.4663  140.1193  154.8738 C   0  0  0  0  0  0  0  0  0  0  0  0
  148.9045  139.3087  153.8515 N   0  0  0  0  0  0  0  0  0  0  0  0
  147.6637  139.3541  153.3376 C   0  0  0  0  0  0  0  0  0  0  0  0
  146.7659  140.1101  153.7080 O   0  0  0  0  0  0  0  0  0  0  0  0
  147.5090  138.4403  152.3699 N   0  0  0  0  0  0  0  0  0  0  0  0
  146.2715  138.1956  151.6386 C   0  0  0  0  0  0  0  0  0  0  0  0
  145.7440  136.7733  151.8870 C   0  0  1  0  0  0  0  0  0  0  0  0
  144.2411  136.7133  152.1522 C   0  0  0  0  0  0  0  0  0  0  0  0
  143.9171  135.2955  151.7412 C   0  0  0  0  0  0  0  0  0  0  0  0
  144.8146  135.1141  150.5210 C   0  0  0  0  0  0  0  0  0  0  0  0
  145.9457  135.9546  150.7367 O   0  0  0  0  0  0  0  0  0  0  0  0
  150.8308  140.0913  155.2520 C   0  0  0  0  0  0  0  0  0  0  0  0
  151.3415  140.8547  156.2416 N   0  0  0  0  0  0  0  0  0  0  0  0
  151.8003  143.6322  157.4236 C   0  0  0  0  0  0  0  0  0  0  0  0
  152.2973  144.5031  158.5944 C   0  0  1  0  0  0  0  0  0  0  0  0
  151.1736  145.2879  159.2947 C   0  0  0  0  0  0  0  0  0  0  0  0
  153.0533  143.7069  159.5118 O   0  0  0  0  0  0  0  0  0  0  0  0
  152.8395  140.9329  161.3872 H   0  0  0  0  0  0  0  0  0  0  0  0
  153.6299  142.4548  161.7878 H   0  0  0  0  0  0  0  0  0  0  0  0
  154.2179  141.4871  160.4378 H   0  0  0  0  0  0  0  0  0  0  0  0
  151.5006  142.8780  160.5973 H   0  0  0  0  0  0  0  0  0  0  0  0
  152.7790  141.2695  158.3231 H   0  0  0  0  0  0  0  0  0  0  0  0
  151.3323  140.8281  159.2168 H   0  0  0  0  0  0  0  0  0  0  0  0
  148.4875  142.4461  157.1692 H   0  0  0  0  0  0  0  0  0  0  0  0
  147.5534  141.0282  155.3460 H   0  0  0  0  0  0  0  0  0  0  0  0
  149.5007  138.5710  153.5062 H   0  0  0  0  0  0  0  0  0  0  0  0
  148.2973  137.8547  152.1363 H   0  0  0  0  0  0  0  0  0  0  0  0
  145.5187  138.9335  151.9215 H   0  0  0  0  0  0  0  0  0  0  0  0
  146.4651  138.3437  150.5761 H   0  0  0  0  0  0  0  0  0  0  0  0
  146.2680  136.3108  152.7253 H   0  0  0  0  0  0  0  0  0  0  0  0
  143.9834  136.9285  153.1896 H   0  0  0  0  0  0  0  0  0  0  0  0
  143.7069  137.4177  151.5128 H   0  0  0  0  0  0  0  0  0  0  0  0
  144.2090  134.6009  152.5303 H   0  0  0  0  0  0  0  0  0  0  0  0
  142.8605  135.1409  151.5211 H   0  0  0  0  0  0  0  0  0  0  0  0
  145.1120  134.0754  150.3754 H   0  0  0  0  0  0  0  0  0  0  0  0
  144.3028  135.4498  149.6183 H   0  0  0  0  0  0  0  0  0  0  0  0
  151.5425  139.4337  154.7779 H   0  0  0  0  0  0  0  0  0  0  0  0
  152.6529  143.3166  156.8205 H   0  0  0  0  0  0  0  0  0  0  0  0
  151.1446  144.2100  156.7708 H   0  0  0  0  0  0  0  0  0  0  0  0
  152.9903  145.2403  158.1881 H   0  0  0  0  0  0  0  0  0  0  0  0
  150.6943  145.9775  158.5994 H   0  0  0  0  0  0  0  0  0  0  0  0
  151.5679  145.8762  160.1232 H   0  0  0  0  0  0  0  0  0  0  0  0
  150.3952  144.6344  159.6881 H   0  0  0  0  0  0  0  0  0  0  0  0
  1  2  1  0  0  0  0
  1 25  1  0  0  0  0
  1 26  1  0  0  0  0
  1 27  1  0  0  0  0
  2 24  1  0  0  0  0
  2  3  1  0  0  0  0
  2 28  1  0  0  0  0
  3  4  1  0  0  0  0
  3 29  1  0  0  0  0
  3 30  1  0  0  0  0
  4  5  1  0  0  0  0
  4 21  1  0  0  0  0
  5 20  1  0  0  0  0
  5  6  2  0  0  0  0
  6  7  1  0  0  0  0
  6 31  1  0  0  0  0
  7  8  2  0  0  0  0
  7 32  1  0  0  0  0
  8  9  1  0  0  0  0
  8 19  1  0  0  0  0
  9 10  1  0  0  0  0
  9 33  1  0  0  0  0
 10 11  2  0  0  0  0
 10 12  1  0  0  0  0
 12 13  1  0  0  0  0
 12 34  1  0  0  0  0
 13 14  1  0  0  0  0
 13 35  1  0  0  0  0
 13 36  1  0  0  0  0
 14 18  1  0  0  0  0
 14 15  1  0  0  0  0
 14 37  1  0  0  0  0
 15 16  1  0  0  0  0
 15 38  1  0  0  0  0
 15 39  1  0  0  0  0
 16 17  1  0  0  0  0
 16 40  1  0  0  0  0
 16 41  1  0  0  0  0
 17 18  1  0  0  0  0
 17 42  1  0  0  0  0
 17 43  1  0  0  0  0
 19 20  2  0  0  0  0
 19 44  1  0  0  0  0
 21 22  1  0  0  0  0
 21 45  1  0  0  0  0
 21 46  1  0  0  0  0
 22 23  1  0  0  0  0
 22 24  1  0  0  0  0
 22 47  1  0  0  0  0
 23 48  1  0  0  0  0
 23 49  1  0  0  0  0
 23 50  1  0  0  0  0
M  END
> <s_m_source_file>
AV-unprocessed.smi

> <i_m_source_file_index>
2034

> <i_lp_mmshare_version>
43012

> <i_f3d_flags>
0

> <s_epik_input>
W0NIM11bQ0BASF0xW0NIMl1OKFtDSDJdW0NASF0oTzEpW0NIM10pYzJbY0hdW2NIXWMoW2NIXW4yKVtOSF1DKD1PKVtOSF1bQ0gyXVtDQEBIXTNbQ0gyXVtDSDJdW0NIMl1PMw==

> <s_epik_cmdline>
J2VwaWtfcHl0aG9uJywgJy1waCcsICc3LjAnLCAnLXRuJywgJzgnLCAnLW1hJywgJzIwMCcsICctbWV0YWxfYmluZGluZycsICctaW1hZScsICc8aW5maWxlLm1hZT4nLCAnLW9tYWUnLCAnPG91dGZpbGUubWFlPic=

> <r_lp_tautomer_probability>
1

> <r_epik_Ionization_Penalty>
0.00268225

> <r_epik_Ionization_Penalty_Charging>
0

> <r_epik_Ionization_Penalty_Neutral>
0.00268225

> <r_epik_State_Penalty>
0.00184408

> <r_epik_Charging_Adjusted_Penalty>
0.00184408

> <i_epik_Tot_Q>
0

> <i_epik_Tot_abs_Q>
0

> <r_epik_Metal_State_Penalty>
-0

> <b_epik_Metal_Only>
0

> <s_lp_Force_Field>
OPLS_2005

> <r_lp_Energy>
37.53

> <b_lp_Chiralities_Consistent>
1

> <s_lp_Variant>
AV-unprocessed.smi:2034-3

> <Gold.Version>
5.8.1

> <Gold.Id.Protein>
6NUR|6NUR_protein|mol2

> <Gold.PLP.Fitness>
49.1328

> <Gold.PLP.PLP>
-48.0899

> <Gold.PLP.part.hbond>
-3.0000

> <Gold.PLP.part.metal>
0.0000

> <Gold.PLP.part.buried>
-2.8623

> <Gold.PLP.part.nonpolar>
-43.1129

> <Gold.PLP.part.repulsive>
0.6397

> <Gold.PLP.ligand.clash>
0.0000

> <Gold.PLP.ligand.torsion>
1.0444

> <Gold.PLP.Chemscore.Hbond>
1.0000

> <Gold.PLP.Chemscore.CHOScore>
0.0000

> <Gold.PLP.Chemscore.Metal>
0.0000

> <Gold.Chemscore.Hbonds>
donor molecule, donor type, donor heavy atom, donor atom, acceptor molecule, acceptor atom, score
      L1  H    12    34       P1  7948  1.00

> <Gold.PLP.Chemscore.Internal.Correction>
0.1316

> <Gold.Rescore>
     Score         DG    S(hbond)    S(metal)    S(lipo)     H(rot)  DE(clash)    DE(int)     intcor
     16.36     -18.88       0.99        0.00     116.10       1.37       0.06       2.46       ----

> <Gold.Chemscore.Fitness>
16.3594

> <Gold.Chemscore.DG>
-18.8774

> <Gold.Chemscore.ZeroCoef>
-5.4800

> <Gold.Chemscore.Hbond>
0.9915

> <Gold.Chemscore.Metal>
0.0000

> <Gold.Chemscore.Lipo>
116.0996

> <Gold.Chemscore.Internal_Hbond>
0.0000

> <Gold.Chemscore.DEClash>
0.0625

> <Gold.Chemscore.DEInternal>
2.4555

> <Gold.Chemscore.Rot>
1.3663

> <Gold.Chemscore.Internal.Correction>
   9.000000E+99

> <Gold.Chemscore.Hbonds>
donor molecule, donor type, donor heavy atom, donor atom, acceptor molecule, acceptor atom, score
      L1  H    12    34       P1  7948  0.94

> <Gold.Chemscore.Hbond.Weighted>
-3.3115

> <Gold.Chemscore.Metal.Weighted>
-0.0000

> <Gold.Chemscore.Lipo.Weighted>
-13.5837

> <Gold.Chemscore.Internal_Hbond.Weighted>
0.0000

> <Gold.Chemscore.DEClash.Weighted>
0.0625

> <Gold.Chemscore.DEInternal.Weighted>
2.4555

> <Gold.Chemscore.Rot.Weighted>
3.4977

> <Gold.Chemscore.Internal.Correction.Weighted>
   9.000000E+99

> <Gold.Protein.RotatedTorsions>
[ 6907 6896 6895 6894 ] final   32.59 input  -60.11 | X-H torsion
[ 7974 7965 7964 7962 ] final  -18.21 input  175.53 | X-H torsion
[ 8008 7997 7996 7995 ] final -175.57 input   59.86 | X-H torsion
[ 10167 10162 10161 10158 ] final  -78.16 input  -65.29 | X-H torsion
[ 10718 10713 10712 10709 ] final   33.96 input   66.30 | X-H torsion
[ 10763 10752 10751 10750 ] final   36.24 input  -60.55 | X-H torsion
[ 11005 11000 10999 10996 ] final  126.67 input  -57.11 | X-H torsion

> <Gold.Protein.ActiveResidues>
 VAL166  LYS551  ARG553  GLY616  TRP617  ASP618  TYR619  PRO620  LYS621  CYS622 
 ASP623  PHE694  ASN695  SER759  ASP760  ASP761  ALA762  ILE779  LEU786  VAL792 
 PHE793  MET794  SER795  GLU796  ALA797  LYS798  CYS799  TRP800  GLU811  SER814 

> <Gold.Protein.RotatedAtoms>
  152.0767  134.9498  160.0573 H   0  0  0  0  0  0  0  0  0  0  0  0  # atno 6907 bound_to 6896
  152.0803  133.4145  159.4506 H   0  0  0  0  0  0  0  0  0  0  0  0  # atno 6908 bound_to 6896
  150.6836  134.2909  159.4710 H   0  0  0  0  0  0  0  0  0  0  0  0  # atno 6909 bound_to 6896
  146.1903  140.3889  142.8460 H   0  0  0  0  0  0  0  0  0  0  0  0  # atno 7974 bound_to 7965
  155.9842  140.1188  157.0698 H   0  0  0  0  0  0  0  0  0  0  0  0  # atno 8008 bound_to 7997
  154.4192  140.1138  156.5545 H   0  0  0  0  0  0  0  0  0  0  0  0  # atno 8009 bound_to 7997
  155.6430  140.3473  155.4724 H   0  0  0  0  0  0  0  0  0  0  0  0  # atno 8010 bound_to 7997
  140.4707  143.2427  151.8209 H   0  0  0  0  0  0  0  0  0  0  0  0  # atno 10167 bound_to 10162
  157.3044  130.7367  149.6686 H   0  0  0  0  0  0  0  0  0  0  0  0  # atno 10718 bound_to 10713
  153.0085  135.6311  154.1954 H   0  0  0  0  0  0  0  0  0  0  0  0  # atno 10763 bound_to 10752
  154.1697  135.2819  155.3086 H   0  0  0  0  0  0  0  0  0  0  0  0  # atno 10764 bound_to 10752
  154.5918  135.5615  153.7346 H   0  0  0  0  0  0  0  0  0  0  0  0  # atno 10765 bound_to 10752
  139.9468  134.9628  156.8742 H   0  0  0  0  0  0  0  0  0  0  0  0  # atno 11005 bound_to 11000
  144.8474  140.6950  143.6190 LP  0  0  0  0  0  0  0  0  0  0  0  0  # atno 17320 bound_to 7965
  145.3812  139.1636  143.4279 LP  0  0  0  0  0  0  0  0  0  0  0  0  # atno 17321 bound_to 7965
  139.4818  144.4895  151.9203 LP  0  0  0  0  0  0  0  0  0  0  0  0  # atno 17342 bound_to 10162
  140.3980  144.2529  150.5895 LP  0  0  0  0  0  0  0  0  0  0  0  0  # atno 17343 bound_to 10162
  155.9673  130.4270  150.4724 LP  0  0  0  0  0  0  0  0  0  0  0  0  # atno 17370 bound_to 10713
  157.2711  131.0587  151.2259 LP  0  0  0  0  0  0  0  0  0  0  0  0  # atno 17371 bound_to 10713
  140.5815  134.0347  155.7466 LP  0  0  0  0  0  0  0  0  0  0  0  0  # atno 17394 bound_to 11000
  141.1121  133.9600  157.2892 LP  0  0  0  0  0  0  0  0  0  0  0  0  # atno 17395 bound_to 11000

$$$$
