AV-unprocessed.smi:2085|AV-procd|sdf|8517|dock5
  -GOLD-   2272011233D 1   1.00000     0.00000
 Structure written by MMmdl.
 30 31  0  0  0  0  0  0  0  0  1 V2000
  153.5698  138.5389  154.5649 C   0  0  0  0  0  0  0  0  0  0  0  0
  152.8516  139.4256  155.4159 O   0  0  0  0  0  0  0  0  0  0  0  0
  151.5113  139.6448  155.1600 C   0  0  0  0  0  0  0  0  0  0  0  0
  150.9161  138.9254  154.1756 N   0  0  0  0  0  0  0  0  0  0  0  0
  149.6065  139.1337  153.9288 C   0  0  0  0  0  0  0  0  0  0  0  0
  148.8241  140.0551  154.6485 C   0  0  0  0  0  0  0  0  0  0  0  0
  149.4390  140.8030  155.6694 C   0  0  0  0  0  0  0  0  0  0  0  0
  150.8176  140.6092  155.9282 C   0  0  0  0  0  0  0  0  0  0  0  0
  151.5316  141.3000  156.9461 N   0  0  0  0  0  0  0  0  0  0  0  0
  151.0680  142.1940  157.8383 C   0  0  0  0  0  0  0  0  0  0  0  0
  149.8963  142.5648  157.9118 O   0  0  0  0  0  0  0  0  0  0  0  0
  152.1101  142.7686  158.8049 C   0  0  1  0  0  0  0  0  0  0  0  0
  152.3478  144.2822  158.6441 C   0  0  0  0  0  0  0  0  0  0  0  0
  151.7716  144.8759  159.9149 C   0  0  0  0  0  0  0  0  0  0  0  0
  151.9559  143.7353  160.9054 C   0  0  0  0  0  0  0  0  0  0  0  0
  151.6275  142.5902  160.1353 O   0  0  0  0  0  0  0  0  0  0  0  0
  154.6039  138.4736  154.9031 H   0  0  0  0  0  0  0  0  0  0  0  0
  153.5814  138.8963  153.5341 H   0  0  0  0  0  0  0  0  0  0  0  0
  153.1491  137.5329  154.5912 H   0  0  0  0  0  0  0  0  0  0  0  0
  149.1676  138.5431  153.1383 H   0  0  0  0  0  0  0  0  0  0  0  0
  147.7749  140.1820  154.4262 H   0  0  0  0  0  0  0  0  0  0  0  0
  148.8403  141.4954  156.2406 H   0  0  0  0  0  0  0  0  0  0  0  0
  152.5306  141.1517  156.9484 H   0  0  0  0  0  0  0  0  0  0  0  0
  153.0580  142.2378  158.6987 H   0  0  0  0  0  0  0  0  0  0  0  0
  153.4190  144.4807  158.5920 H   0  0  0  0  0  0  0  0  0  0  0  0
  151.8950  144.7143  157.7503 H   0  0  0  0  0  0  0  0  0  0  0  0
  152.2695  145.7955  160.2229 H   0  0  0  0  0  0  0  0  0  0  0  0
  150.7096  145.0874  159.7828 H   0  0  0  0  0  0  0  0  0  0  0  0
  152.9933  143.6696  161.2374 H   0  0  0  0  0  0  0  0  0  0  0  0
  151.3149  143.8277  161.7821 H   0  0  0  0  0  0  0  0  0  0  0  0
  1  2  1  0  0  0  0
  1 17  1  0  0  0  0
  1 18  1  0  0  0  0
  1 19  1  0  0  0  0
  2  3  1  0  0  0  0
  3  8  1  0  0  0  0
  3  4  2  0  0  0  0
  4  5  1  0  0  0  0
  5  6  2  0  0  0  0
  5 20  1  0  0  0  0
  6  7  1  0  0  0  0
  6 21  1  0  0  0  0
  7  8  2  0  0  0  0
  7 22  1  0  0  0  0
  8  9  1  0  0  0  0
  9 10  1  0  0  0  0
  9 23  1  0  0  0  0
 10 11  2  0  0  0  0
 10 12  1  0  0  0  0
 12 16  1  0  0  0  0
 12 13  1  0  0  0  0
 12 24  1  0  0  0  0
 13 14  1  0  0  0  0
 13 25  1  0  0  0  0
 13 26  1  0  0  0  0
 14 15  1  0  0  0  0
 14 27  1  0  0  0  0
 14 28  1  0  0  0  0
 15 16  1  0  0  0  0
 15 29  1  0  0  0  0
 15 30  1  0  0  0  0
M  END
> <s_m_source_file>
AV-unprocessed.smi

> <i_m_source_file_index>
2085

> <i_lp_mmshare_version>
43012

> <i_f3d_flags>
0

> <s_epik_input>
W0NIM11PYzFuW2NIXVtjSF1bY0hdYzFbTkhdQyg9TylbQ0BASF0yW0NIMl1bQ0gyXVtDSDJdTzI=

> <s_epik_cmdline>
J2VwaWtfcHl0aG9uJywgJy1waCcsICc3LjAnLCAnLXRuJywgJzgnLCAnLW1hJywgJzIwMCcsICctbWV0YWxfYmluZGluZycsICctaW1hZScsICc8aW5maWxlLm1hZT4nLCAnLW9tYWUnLCAnPG91dGZpbGUubWFlPic=

> <r_lp_tautomer_probability>
1

> <r_epik_Ionization_Penalty>
2.59253e-05

> <r_epik_Ionization_Penalty_Charging>
0

> <r_epik_Ionization_Penalty_Neutral>
2.59253e-05

> <r_epik_State_Penalty>
-0

> <r_epik_Charging_Adjusted_Penalty>
0

> <i_epik_Tot_Q>
0

> <i_epik_Tot_abs_Q>
0

> <r_epik_Metal_State_Penalty>
-0

> <b_epik_Metal_Only>
0

> <s_lp_Force_Field>
OPLS_2005

> <r_lp_Energy>
23.5272

> <b_lp_Chiralities_Consistent>
1

> <s_lp_Variant>
AV-unprocessed.smi:2085-2

> <Gold.Version>
5.8.1

> <Gold.Id.Protein>
6NUR|6NUR_protein|mol2

> <Gold.PLP.Fitness>
39.6425

> <Gold.PLP.PLP>
-33.5452

> <Gold.PLP.part.hbond>
-1.9104

> <Gold.PLP.part.metal>
0.0000

> <Gold.PLP.part.buried>
0.3765

> <Gold.PLP.part.nonpolar>
-32.4002

> <Gold.PLP.part.repulsive>
0.4674

> <Gold.PLP.ligand.clash>
0.0000

> <Gold.PLP.ligand.torsion>
0.0980

> <Gold.PLP.Chemscore.Hbond>
0.9000

> <Gold.PLP.Chemscore.CHOScore>
1.1944

> <Gold.PLP.Chemscore.Metal>
0.0000

> <Gold.Chemscore.Hbonds>
donor molecule, donor type, donor heavy atom, donor atom, acceptor molecule, acceptor atom, score
      P1  H  7997  8009       L1     2  0.86
      L1  C     5    20       P1  7948  0.79
      L1  C     5    20       P1  7957  0.42

> <Gold.PLP.Chemscore.Internal.Correction>
0.0102

> <Gold.Rescore>
     Score         DG    S(hbond)    S(metal)    S(lipo)     H(rot)  DE(clash)    DE(int)     intcor
     11.96     -13.27       0.40        0.00      82.26       1.24       0.03       1.28       ----

> <Gold.Chemscore.Fitness>
11.9578

> <Gold.Chemscore.DG>
-13.2716

> <Gold.Chemscore.ZeroCoef>
-5.4800

> <Gold.Chemscore.Hbond>
0.4002

> <Gold.Chemscore.Metal>
0.0000

> <Gold.Chemscore.Lipo>
82.2598

> <Gold.Chemscore.Internal_Hbond>
0.0000

> <Gold.Chemscore.DEClash>
0.0331

> <Gold.Chemscore.DEInternal>
1.2807

> <Gold.Chemscore.Rot>
1.2381

> <Gold.Chemscore.Internal.Correction>
   9.000000E+99

> <Gold.Chemscore.Hbonds>
donor molecule, donor type, donor heavy atom, donor atom, acceptor molecule, acceptor atom, score
      P1  H  7997  8009       L1     2  0.16

> <Gold.Chemscore.Hbond.Weighted>
-1.3366

> <Gold.Chemscore.Metal.Weighted>
-0.0000

> <Gold.Chemscore.Lipo.Weighted>
-9.6244

> <Gold.Chemscore.Internal_Hbond.Weighted>
0.0000

> <Gold.Chemscore.DEClash.Weighted>
0.0331

> <Gold.Chemscore.DEInternal.Weighted>
1.2807

> <Gold.Chemscore.Rot.Weighted>
3.1694

> <Gold.Chemscore.Internal.Correction.Weighted>
   9.000000E+99

> <Gold.Protein.RotatedTorsions>
[ 6907 6896 6895 6894 ] final  149.81 input  -60.11 | X-H torsion
[ 7974 7965 7964 7962 ] final  169.30 input  175.53 | X-H torsion
[ 8008 7997 7996 7995 ] final -168.32 input   59.86 | X-H torsion
[ 10167 10162 10161 10158 ] final  -28.22 input  -65.29 | X-H torsion
[ 10718 10713 10712 10709 ] final  -15.82 input   66.30 | X-H torsion
[ 10763 10752 10751 10750 ] final   31.24 input  -60.55 | X-H torsion
[ 11005 11000 10999 10996 ] final  163.15 input  -57.11 | X-H torsion

> <Gold.Protein.ActiveResidues>
 VAL166  LYS551  ARG553  GLY616  TRP617  ASP618  TYR619  PRO620  LYS621  CYS622 
 ASP623  PHE694  ASN695  SER759  ASP760  ASP761  ALA762  ILE779  LEU786  VAL792 
 PHE793  MET794  SER795  GLU796  ALA797  LYS798  CYS799  TRP800  GLU811  SER814 

> <Gold.Protein.RotatedAtoms>
  152.1230  133.4364  159.4684 H   0  0  0  0  0  0  0  0  0  0  0  0  # atno 6907 bound_to 6896
  150.6873  134.2512  159.4520 H   0  0  0  0  0  0  0  0  0  0  0  0  # atno 6908 bound_to 6896
  152.0390  134.9722  160.0624 H   0  0  0  0  0  0  0  0  0  0  0  0  # atno 6909 bound_to 6896
  144.7359  139.9034  143.6411 H   0  0  0  0  0  0  0  0  0  0  0  0  # atno 7974 bound_to 7965
  155.8898  140.1023  157.1426 H   0  0  0  0  0  0  0  0  0  0  0  0  # atno 8008 bound_to 7997
  154.4014  140.1313  156.4366 H   0  0  0  0  0  0  0  0  0  0  0  0  # atno 8009 bound_to 7997
  155.7546  140.3464  155.5170 H   0  0  0  0  0  0  0  0  0  0  0  0  # atno 8010 bound_to 7997
  140.7271  143.4028  151.1236 H   0  0  0  0  0  0  0  0  0  0  0  0  # atno 10167 bound_to 10162
  156.5963  130.4812  149.6258 H   0  0  0  0  0  0  0  0  0  0  0  0  # atno 10718 bound_to 10713
  153.0327  135.6444  154.1168 H   0  0  0  0  0  0  0  0  0  0  0  0  # atno 10763 bound_to 10752
  154.0888  135.2868  155.3277 H   0  0  0  0  0  0  0  0  0  0  0  0  # atno 10764 bound_to 10752
  154.6479  135.5436  153.7930 H   0  0  0  0  0  0  0  0  0  0  0  0  # atno 10765 bound_to 10752
  140.2329  134.8110  157.3335 H   0  0  0  0  0  0  0  0  0  0  0  0  # atno 11005 bound_to 11000
  146.1054  139.4054  143.0320 LP  0  0  0  0  0  0  0  0  0  0  0  0  # atno 17320 bound_to 7965
  145.7518  140.9969  143.1246 LP  0  0  0  0  0  0  0  0  0  0  0  0  # atno 17321 bound_to 7965
  139.7650  143.8579  152.3108 LP  0  0  0  0  0  0  0  0  0  0  0  0  # atno 17342 bound_to 10162
  139.8478  144.7179  150.9252 LP  0  0  0  0  0  0  0  0  0  0  0  0  # atno 17343 bound_to 10162
  156.2506  130.6905  151.1641 LP  0  0  0  0  0  0  0  0  0  0  0  0  # atno 17370 bound_to 10713
  157.7291  131.0627  150.5790 LP  0  0  0  0  0  0  0  0  0  0  0  0  # atno 17371 bound_to 10713
  140.1732  134.4582  155.7818 LP  0  0  0  0  0  0  0  0  0  0  0  0  # atno 17394 bound_to 11000
  141.2216  133.6951  156.7743 LP  0  0  0  0  0  0  0  0  0  0  0  0  # atno 17395 bound_to 11000

$$$$
