AV-unprocessed.smi:1745|AV-procd|sdf|7029|dock1
  -GOLD-   22720 8243D 1   1.00000     0.00000
 Structure written by MMmdl.
 47 49  0  0  0  0  0  0  0  0  1 V2000
  144.2912  137.1522  152.7355 C   0  0  0  0  0  0  0  0  0  0  0  0
  145.3327  136.0234  152.7898 C   0  0  2  0  0  0  0  0  0  0  0  0
  146.6465  136.6104  153.0446 N   0  0  0  0  0  0  0  0  0  0  0  0
  146.9515  137.4519  154.0429 C   0  0  0  0  0  0  0  0  0  0  0  0
  146.1373  137.8484  154.8763 O   0  0  0  0  0  0  0  0  0  0  0  0
  148.2459  137.8101  153.9910 N   0  0  0  0  0  0  0  0  0  0  0  0
  148.9603  138.6760  154.8623 C   0  0  0  0  0  0  0  0  0  0  0  0
  148.6021  138.9256  156.2084 C   0  0  0  0  0  0  0  0  0  0  0  0
  149.3999  139.7967  156.9745 C   0  0  0  0  0  0  0  0  0  0  0  0
  150.5342  140.3837  156.3774 C   0  0  0  0  0  0  0  0  0  0  0  0
  151.3270  141.2564  157.1362 N   0  0  0  0  0  0  0  0  0  0  0  0
  151.8816  140.6407  158.3352 C   0  0  0  0  0  0  0  0  0  0  0  0
  152.8382  141.6212  159.0355 C   0  0  0  0  0  0  0  0  0  0  0  0
  152.1516  142.8370  159.3199 O   0  0  0  0  0  0  0  0  0  0  0  0
  151.6736  143.4711  158.1367 C   0  0  0  0  0  0  0  0  0  0  0  0
  150.6886  142.5375  157.4119 C   0  0  0  0  0  0  0  0  0  0  0  0
  150.8926  140.1367  155.0951 N   0  0  0  0  0  0  0  0  0  0  0  0
  150.1233  139.3006  154.3663 C   0  0  0  0  0  0  0  0  0  0  0  0
  145.3842  135.2028  151.4859 C   0  0  2  0  0  0  0  0  0  0  0  0
  144.0935  134.4516  151.1528 C   0  0  0  0  0  0  0  0  0  0  0  0
  144.6064  133.3345  150.2743 C   0  0  0  0  0  0  0  0  0  0  0  0
  145.9204  132.9802  150.9623 C   0  0  0  0  0  0  0  0  0  0  0  0
  146.3783  134.1825  151.5760 O   0  0  0  0  0  0  0  0  0  0  0  0
  143.2834  136.7580  152.6053 H   0  0  0  0  0  0  0  0  0  0  0  0
  144.4905  137.8375  151.9110 H   0  0  0  0  0  0  0  0  0  0  0  0
  144.2945  137.7322  153.6591 H   0  0  0  0  0  0  0  0  0  0  0  0
  145.0543  135.3516  153.6036 H   0  0  0  0  0  0  0  0  0  0  0  0
  147.3866  136.3440  152.4121 H   0  0  0  0  0  0  0  0  0  0  0  0
  148.7687  137.4674  153.1984 H   0  0  0  0  0  0  0  0  0  0  0  0
  147.7455  138.4612  156.6711 H   0  0  0  0  0  0  0  0  0  0  0  0
  149.1448  140.0061  158.0031 H   0  0  0  0  0  0  0  0  0  0  0  0
  151.0744  140.3633  159.0146 H   0  0  0  0  0  0  0  0  0  0  0  0
  152.4105  139.7244  158.0700 H   0  0  0  0  0  0  0  0  0  0  0  0
  153.2010  141.1907  159.9689 H   0  0  0  0  0  0  0  0  0  0  0  0
  153.7130  141.8218  158.4149 H   0  0  0  0  0  0  0  0  0  0  0  0
  151.1776  144.4029  158.4086 H   0  0  0  0  0  0  0  0  0  0  0  0
  152.5116  143.7326  157.4884 H   0  0  0  0  0  0  0  0  0  0  0  0
  150.3571  142.9934  156.4781 H   0  0  0  0  0  0  0  0  0  0  0  0
  149.8028  142.3843  158.0298 H   0  0  0  0  0  0  0  0  0  0  0  0
  150.4455  139.1300  153.3493 H   0  0  0  0  0  0  0  0  0  0  0  0
  145.6480  135.8463  150.6448 H   0  0  0  0  0  0  0  0  0  0  0  0
  143.6426  134.0375  152.0560 H   0  0  0  0  0  0  0  0  0  0  0  0
  143.3519  135.0773  150.6552 H   0  0  0  0  0  0  0  0  0  0  0  0
  143.9194  132.4909  150.2038 H   0  0  0  0  0  0  0  0  0  0  0  0
  144.7967  133.7073  149.2670 H   0  0  0  0  0  0  0  0  0  0  0  0
  145.7529  132.2370  151.7426 H   0  0  0  0  0  0  0  0  0  0  0  0
  146.6593  132.5814  150.2666 H   0  0  0  0  0  0  0  0  0  0  0  0
  1  2  1  0  0  0  0
  1 24  1  0  0  0  0
  1 25  1  0  0  0  0
  1 26  1  0  0  0  0
  2  3  1  0  0  0  0
  2 19  1  0  0  0  0
  2 27  1  0  0  0  0
  3  4  1  0  0  0  0
  3 28  1  0  0  0  0
  4  5  2  0  0  0  0
  4  6  1  0  0  0  0
  6  7  1  0  0  0  0
  6 29  1  0  0  0  0
  7 18  1  0  0  0  0
  7  8  2  0  0  0  0
  8  9  1  0  0  0  0
  8 30  1  0  0  0  0
  9 10  2  0  0  0  0
  9 31  1  0  0  0  0
 10 11  1  0  0  0  0
 10 17  1  0  0  0  0
 11 16  1  0  0  0  0
 11 12  1  0  0  0  0
 12 13  1  0  0  0  0
 12 32  1  0  0  0  0
 12 33  1  0  0  0  0
 13 14  1  0  0  0  0
 13 34  1  0  0  0  0
 13 35  1  0  0  0  0
 14 15  1  0  0  0  0
 15 16  1  0  0  0  0
 15 36  1  0  0  0  0
 15 37  1  0  0  0  0
 16 38  1  0  0  0  0
 16 39  1  0  0  0  0
 17 18  2  0  0  0  0
 18 40  1  0  0  0  0
 19 23  1  0  0  0  0
 19 20  1  0  0  0  0
 19 41  1  0  0  0  0
 20 21  1  0  0  0  0
 20 42  1  0  0  0  0
 20 43  1  0  0  0  0
 21 22  1  0  0  0  0
 21 44  1  0  0  0  0
 21 45  1  0  0  0  0
 22 23  1  0  0  0  0
 22 46  1  0  0  0  0
 22 47  1  0  0  0  0
M  END
> <s_m_source_file>
AV-unprocessed.smi

> <i_m_source_file_index>
1745

> <i_lp_mmshare_version>
43012

> <i_f3d_flags>
0

> <s_epik_input>
TzFbQ0gyXVtDSDJdW0NIMl1bQ0BIXTFbQ0BIXShbQ0gzXSlbTkhdQyg9TylbTkhdYzJbY0hdW2NIXWMobltjSF0yKU4zW0NIMl1bQ0gyXU9bQ0gyXVtDSDJdMw==

> <s_epik_cmdline>
J2VwaWtfcHl0aG9uJywgJy1waCcsICc3LjAnLCAnLXRuJywgJzgnLCAnLW1hJywgJzIwMCcsICctbWV0YWxfYmluZGluZycsICctaW1hZScsICc8aW5maWxlLm1hZT4nLCAnLW9tYWUnLCAnPG91dGZpbGUubWFlPic=

> <r_lp_tautomer_probability>
1

> <r_epik_Ionization_Penalty>
0.00206005

> <r_epik_Ionization_Penalty_Charging>
0

> <r_epik_Ionization_Penalty_Neutral>
0.00206005

> <r_epik_State_Penalty>
0.00138459

> <r_epik_Charging_Adjusted_Penalty>
0.00138459

> <i_epik_Tot_Q>
0

> <i_epik_Tot_abs_Q>
0

> <r_epik_Metal_State_Penalty>
-0

> <b_epik_Metal_Only>
0

> <s_lp_Force_Field>
OPLS_2005

> <r_lp_Energy>
36.624

> <b_lp_Chiralities_Consistent>
1

> <s_lp_Variant>
AV-unprocessed.smi:1745-1

> <Gold.Version>
5.8.1

> <Gold.Id.Protein>
6NUR|6NUR_protein|mol2

> <Gold.PLP.Fitness>
43.5107

> <Gold.PLP.PLP>
-33.1596

> <Gold.PLP.part.hbond>
-3.0000

> <Gold.PLP.part.metal>
0.0000

> <Gold.PLP.part.buried>
-5.4070

> <Gold.PLP.part.nonpolar>
-25.3171

> <Gold.PLP.part.repulsive>
0.3292

> <Gold.PLP.ligand.clash>
0.0000

> <Gold.PLP.ligand.torsion>
0.2840

> <Gold.PLP.Chemscore.Hbond>
2.6000

> <Gold.PLP.Chemscore.CHOScore>
1.0000

> <Gold.PLP.Chemscore.Metal>
0.0000

> <Gold.Chemscore.Hbonds>
donor molecule, donor type, donor heavy atom, donor atom, acceptor molecule, acceptor atom, score
      L1  H     3    28       P1  7948  1.00
      L1  H     6    29       P1  7948  1.00
      P1  H  7989  7998       L1    17  0.55
      L1  C    18    40       P1  7957  1.00

> <Gold.PLP.Chemscore.Internal.Correction>
0.1192

> <Gold.Rescore>
     Score         DG    S(hbond)    S(metal)    S(lipo)     H(rot)  DE(clash)    DE(int)     intcor
     16.89     -18.35       2.07        0.00      81.33       1.40       0.26       1.20       ----

> <Gold.Chemscore.Fitness>
16.8873

> <Gold.Chemscore.DG>
-18.3502

> <Gold.Chemscore.ZeroCoef>
-5.4800

> <Gold.Chemscore.Hbond>
2.0737

> <Gold.Chemscore.Metal>
0.0000

> <Gold.Chemscore.Lipo>
81.3277

> <Gold.Chemscore.Internal_Hbond>
0.0000

> <Gold.Chemscore.DEClash>
0.2641

> <Gold.Chemscore.DEInternal>
1.1989

> <Gold.Chemscore.Rot>
1.3950

> <Gold.Chemscore.Internal.Correction>
   9.000000E+99

> <Gold.Chemscore.Hbonds>
donor molecule, donor type, donor heavy atom, donor atom, acceptor molecule, acceptor atom, score
      L1  H     3    28       P1  7948  0.99
      L1  H     6    29       P1  7948  0.94
      P1  H  7989  7998       L1    17  0.03

> <Gold.Chemscore.Hbond.Weighted>
-6.9261

> <Gold.Chemscore.Metal.Weighted>
-0.0000

> <Gold.Chemscore.Lipo.Weighted>
-9.5153

> <Gold.Chemscore.Internal_Hbond.Weighted>
0.0000

> <Gold.Chemscore.DEClash.Weighted>
0.2641

> <Gold.Chemscore.DEInternal.Weighted>
1.1989

> <Gold.Chemscore.Rot.Weighted>
3.5712

> <Gold.Chemscore.Internal.Correction.Weighted>
   9.000000E+99

> <Gold.Protein.RotatedTorsions>
[ 6907 6896 6895 6894 ] final   87.69 input  -60.11 | X-H torsion
[ 7974 7965 7964 7962 ] final   79.94 input  175.53 | X-H torsion
[ 8008 7997 7996 7995 ] final   44.32 input   59.86 | X-H torsion
[ 10167 10162 10161 10158 ] final   71.16 input  -65.29 | X-H torsion
[ 10718 10713 10712 10709 ] final   51.90 input   66.30 | X-H torsion
[ 10763 10752 10751 10750 ] final -135.50 input  -60.55 | X-H torsion
[ 11005 11000 10999 10996 ] final  -71.27 input  -57.11 | X-H torsion

> <Gold.Protein.ActiveResidues>
 VAL166  LYS551  ARG553  GLY616  TRP617  ASP618  TYR619  PRO620  LYS621  CYS622 
 ASP623  PHE694  ASN695  SER759  ASP760  ASP761  ALA762  ILE779  LEU786  VAL792 
 PHE793  MET794  SER795  GLU796  ALA797  LYS798  CYS799  TRP800  GLU811  SER814 

> <Gold.Protein.RotatedAtoms>
  152.5415  134.2237  159.8797 H   0  0  0  0  0  0  0  0  0  0  0  0  # atno 6907 bound_to 6896
  151.2212  133.4494  159.2608 H   0  0  0  0  0  0  0  0  0  0  0  0  # atno 6908 bound_to 6896
  151.0803  134.9867  159.8409 H   0  0  0  0  0  0  0  0  0  0  0  0  # atno 6909 bound_to 6896
  145.6577  139.2463  143.1940 H   0  0  0  0  0  0  0  0  0  0  0  0  # atno 7974 bound_to 7965
  155.3174  140.3395  155.4242 H   0  0  0  0  0  0  0  0  0  0  0  0  # atno 8008 bound_to 7997
  156.1926  140.1703  156.8100 H   0  0  0  0  0  0  0  0  0  0  0  0  # atno 8009 bound_to 7997
  154.5460  140.0715  156.8573 H   0  0  0  0  0  0  0  0  0  0  0  0  # atno 8010 bound_to 7997
  140.0491  144.5326  150.7376 H   0  0  0  0  0  0  0  0  0  0  0  0  # atno 10167 bound_to 10162
  157.5024  130.8447  149.8333 H   0  0  0  0  0  0  0  0  0  0  0  0  # atno 10718 bound_to 10713
  154.8702  135.3701  154.4908 H   0  0  0  0  0  0  0  0  0  0  0  0  # atno 10763 bound_to 10752
  153.5555  135.7024  153.5576 H   0  0  0  0  0  0  0  0  0  0  0  0  # atno 10764 bound_to 10752
  153.3675  135.4030  155.1728 H   0  0  0  0  0  0  0  0  0  0  0  0  # atno 10765 bound_to 10752
  141.1589  133.6813  156.6880 H   0  0  0  0  0  0  0  0  0  0  0  0  # atno 11005 bound_to 11000
  146.1151  140.7379  142.9484 LP  0  0  0  0  0  0  0  0  0  0  0  0  # atno 17320 bound_to 7965
  144.7100  140.4002  143.7088 LP  0  0  0  0  0  0  0  0  0  0  0  0  # atno 17321 bound_to 7965
  140.7225  143.2603  151.4231 LP  0  0  0  0  0  0  0  0  0  0  0  0  # atno 17342 bound_to 10162
  139.5964  144.1388  152.2149 LP  0  0  0  0  0  0  0  0  0  0  0  0  # atno 17343 bound_to 10162
  156.0237  130.3786  150.1885 LP  0  0  0  0  0  0  0  0  0  0  0  0  # atno 17370 bound_to 10713
  157.0074  130.9941  151.3375 LP  0  0  0  0  0  0  0  0  0  0  0  0  # atno 17371 bound_to 10713
  140.3052  134.8131  157.4131 LP  0  0  0  0  0  0  0  0  0  0  0  0  # atno 17394 bound_to 11000
  140.1226  134.5199  155.8171 LP  0  0  0  0  0  0  0  0  0  0  0  0  # atno 17395 bound_to 11000

$$$$
