AV-unprocessed.smi:2865|AV-procd|sdf|11018|dock8
  -GOLD-   2272015483D 1   1.00000     0.00000
 Structure written by MMmdl.
 38 41  0  0  0  0  0  0  0  0  1 V2000
  145.7741  138.3838  153.9921 O   0  0  0  0  0  0  0  0  0  0  0  0
  146.6331  137.8392  153.3028 C   0  0  0  0  0  0  0  0  0  0  0  0
  147.9501  138.1205  153.3510 N   0  0  0  0  0  0  0  0  0  0  0  0
  148.6220  139.1105  154.1172 C   0  0  0  0  0  0  0  0  0  0  0  0
  150.0274  139.0498  154.2230 C   0  0  0  0  0  0  0  0  0  0  0  0
  150.7343  139.9653  154.9199 N   0  0  0  0  0  0  0  0  0  0  0  0
  150.0389  140.9383  155.5146 C   0  0  0  0  0  0  0  0  0  0  0  0
  150.8279  141.9748  156.2527 C   0  0  0  0  0  0  0  0  0  0  0  0
  151.6739  141.5983  157.4520 C   0  0  0  0  0  0  0  0  0  0  0  0
  150.4242  142.4109  157.6464 C   0  0  0  0  0  0  0  0  0  0  0  0
  148.7155  141.1134  155.4671 N   0  0  0  0  0  0  0  0  0  0  0  0
  148.0001  140.2016  154.7735 C   0  0  0  0  0  0  0  0  0  0  0  0
  146.3118  136.8627  152.4364 N   0  0  0  0  0  0  0  0  0  0  0  0
  144.9848  136.3189  152.1427 C   0  0  1  0  0  0  0  0  0  0  0  0
  145.0205  135.1720  151.1239 C   0  0  0  0  0  0  0  0  0  0  0  0
  144.3878  134.0220  151.9188 C   0  0  2  0  0  0  0  0  0  0  0  0
  142.8879  134.2436  152.1642 C   0  0  0  0  0  0  0  0  0  0  0  0
  142.9007  135.3530  153.2162 C   0  0  0  0  0  0  0  0  0  0  0  0
  144.4049  135.6089  153.3779 C   0  0  1  0  0  0  0  0  0  0  0  0
  144.9058  134.2930  153.2084 O   0  0  0  0  0  0  0  0  0  0  0  0
  148.5457  137.5358  152.7829 H   0  0  0  0  0  0  0  0  0  0  0  0
  150.5920  138.2628  153.7446 H   0  0  0  0  0  0  0  0  0  0  0  0
  151.2149  142.7333  155.5748 H   0  0  0  0  0  0  0  0  0  0  0  0
  151.6534  140.5621  157.7844 H   0  0  0  0  0  0  0  0  0  0  0  0
  152.6279  142.1073  157.5721 H   0  0  0  0  0  0  0  0  0  0  0  0
  150.5423  143.4632  157.8963 H   0  0  0  0  0  0  0  0  0  0  0  0
  149.5722  141.9153  158.1079 H   0  0  0  0  0  0  0  0  0  0  0  0
  146.9370  140.3783  154.7406 H   0  0  0  0  0  0  0  0  0  0  0  0
  147.0791  136.4298  151.9426 H   0  0  0  0  0  0  0  0  0  0  0  0
  144.3173  137.1226  151.8270 H   0  0  0  0  0  0  0  0  0  0  0  0
  144.4663  135.4007  150.2130 H   0  0  0  0  0  0  0  0  0  0  0  0
  146.0430  134.9171  150.8413 H   0  0  0  0  0  0  0  0  0  0  0  0
  144.6327  133.0315  151.5346 H   0  0  0  0  0  0  0  0  0  0  0  0
  142.3569  134.5270  151.2549 H   0  0  0  0  0  0  0  0  0  0  0  0
  142.4223  133.3429  152.5658 H   0  0  0  0  0  0  0  0  0  0  0  0
  142.3551  136.2436  152.9028 H   0  0  0  0  0  0  0  0  0  0  0  0
  142.4664  134.9979  154.1514 H   0  0  0  0  0  0  0  0  0  0  0  0
  144.6678  136.0720  154.3298 H   0  0  0  0  0  0  0  0  0  0  0  0
  1  2  2  0  0  0  0
  2  3  1  0  0  0  0
  2 13  1  0  0  0  0
  3  4  1  0  0  0  0
  3 21  1  0  0  0  0
  4 12  1  0  0  0  0
  4  5  2  0  0  0  0
  5  6  1  0  0  0  0
  5 22  1  0  0  0  0
  6  7  2  0  0  0  0
  7  8  1  0  0  0  0
  7 11  1  0  0  0  0
  8 10  1  0  0  0  0
  8  9  1  0  0  0  0
  8 23  1  0  0  0  0
  9 10  1  0  0  0  0
  9 24  1  0  0  0  0
  9 25  1  0  0  0  0
 10 26  1  0  0  0  0
 10 27  1  0  0  0  0
 11 12  2  0  0  0  0
 12 28  1  0  0  0  0
 13 14  1  0  0  0  0
 13 29  1  0  0  0  0
 14 19  1  0  0  0  0
 14 15  1  0  0  0  0
 14 30  1  0  0  0  0
 15 16  1  0  0  0  0
 15 31  1  0  0  0  0
 15 32  1  0  0  0  0
 16 20  1  0  0  0  0
 16 17  1  0  0  0  0
 16 33  1  0  0  0  0
 17 18  1  0  0  0  0
 17 34  1  0  0  0  0
 17 35  1  0  0  0  0
 18 19  1  0  0  0  0
 18 36  1  0  0  0  0
 18 37  1  0  0  0  0
 19 20  1  0  0  0  0
 19 38  1  0  0  0  0
M  END
> <s_m_source_file>
AV-unprocessed.smi

> <i_m_source_file_index>
2865

> <i_lp_mmshare_version>
43012

> <i_f3d_flags>
0

> <s_epik_input>
W0NIMl0xW0NIMl1bQ0BIXShPMilbQ0BASF0oW0NIMl1bQ0BASF0xMilbTkhdQyg9TylbTkhdYzNbY0hdbmMobltjSF0zKVtDSF00W0NIMl1bQ0gyXTQ=

> <s_epik_cmdline>
J2VwaWtfcHl0aG9uJywgJy1waCcsICc3LjAnLCAnLXRuJywgJzgnLCAnLW1hJywgJzIwMCcsICctbWV0YWxfYmluZGluZycsICctaW1hZScsICc8aW5maWxlLm1hZT4nLCAnLW9tYWUnLCAnPG91dGZpbGUubWFlPic=

> <r_lp_tautomer_probability>
1

> <r_epik_Ionization_Penalty>
2.43104e-05

> <r_epik_Ionization_Penalty_Charging>
0

> <r_epik_Ionization_Penalty_Neutral>
2.43104e-05

> <r_epik_State_Penalty>
-0

> <r_epik_Charging_Adjusted_Penalty>
0

> <i_epik_Tot_Q>
0

> <i_epik_Tot_abs_Q>
0

> <r_epik_Metal_State_Penalty>
-0

> <b_epik_Metal_Only>
0

> <s_lp_Force_Field>
OPLS_2005

> <r_lp_Energy>
45.9934

> <b_lp_Chiralities_Consistent>
1

> <s_lp_Variant>
AV-unprocessed.smi:2865-4

> <Gold.Version>
5.8.1

> <Gold.Id.Protein>
6NUR|6NUR_protein|mol2

> <Gold.PLP.Fitness>
37.8404

> <Gold.PLP.PLP>
-29.2517

> <Gold.PLP.part.hbond>
-3.0094

> <Gold.PLP.part.metal>
0.0000

> <Gold.PLP.part.buried>
-4.7916

> <Gold.PLP.part.nonpolar>
-21.8870

> <Gold.PLP.part.repulsive>
0.4482

> <Gold.PLP.ligand.clash>
0.0000

> <Gold.PLP.ligand.torsion>
0.1950

> <Gold.PLP.Chemscore.Hbond>
2.9440

> <Gold.PLP.Chemscore.CHOScore>
0.0000

> <Gold.PLP.Chemscore.Metal>
0.0000

> <Gold.Chemscore.Hbonds>
donor molecule, donor type, donor heavy atom, donor atom, acceptor molecule, acceptor atom, score
      L1  H     3    21       P1  7948  1.00
      L1  H    13    29       P1  7948  0.93
      P1  H  7989  7998       L1     6  1.00

> <Gold.PLP.Chemscore.Internal.Correction>
0.1467

> <Gold.Rescore>
     Score         DG    S(hbond)    S(metal)    S(lipo)     H(rot)  DE(clash)    DE(int)     intcor
     16.21     -17.52       2.22        0.00      65.72       1.20       0.04       1.27       ----

> <Gold.Chemscore.Fitness>
16.2060

> <Gold.Chemscore.DG>
-17.5213

> <Gold.Chemscore.ZeroCoef>
-5.4800

> <Gold.Chemscore.Hbond>
2.2238

> <Gold.Chemscore.Metal>
0.0000

> <Gold.Chemscore.Lipo>
65.7184

> <Gold.Chemscore.Internal_Hbond>
0.0000

> <Gold.Chemscore.DEClash>
0.0436

> <Gold.Chemscore.DEInternal>
1.2717

> <Gold.Chemscore.Rot>
1.2012

> <Gold.Chemscore.Internal.Correction>
   9.000000E+99

> <Gold.Chemscore.Hbonds>
donor molecule, donor type, donor heavy atom, donor atom, acceptor molecule, acceptor atom, score
      L1  H     3    21       P1  7948  0.99
      L1  H    13    29       P1  7948  0.91
      P1  H  7989  7998       L1     6  0.12

> <Gold.Chemscore.Hbond.Weighted>
-7.4274

> <Gold.Chemscore.Metal.Weighted>
-0.0000

> <Gold.Chemscore.Lipo.Weighted>
-7.6891

> <Gold.Chemscore.Internal_Hbond.Weighted>
0.0000

> <Gold.Chemscore.DEClash.Weighted>
0.0436

> <Gold.Chemscore.DEInternal.Weighted>
1.2717

> <Gold.Chemscore.Rot.Weighted>
3.0752

> <Gold.Chemscore.Internal.Correction.Weighted>
   9.000000E+99

> <Gold.Protein.RotatedTorsions>
[ 6907 6896 6895 6894 ] final  -86.21 input  -60.11 | X-H torsion
[ 7974 7965 7964 7962 ] final  -40.23 input  175.53 | X-H torsion
[ 8008 7997 7996 7995 ] final   -0.77 input   59.86 | X-H torsion
[ 10167 10162 10161 10158 ] final  105.25 input  -65.29 | X-H torsion
[ 10718 10713 10712 10709 ] final  123.49 input   66.30 | X-H torsion
[ 10763 10752 10751 10750 ] final   72.96 input  -60.55 | X-H torsion
[ 11005 11000 10999 10996 ] final -128.19 input  -57.11 | X-H torsion

> <Gold.Protein.ActiveResidues>
 VAL166  LYS551  ARG553  GLY616  TRP617  ASP618  TYR619  PRO620  LYS621  CYS622 
 ASP623  PHE694  ASN695  SER759  ASP760  ASP761  ALA762  ILE779  LEU786  VAL792 
 PHE793  MET794  SER795  GLU796  ALA797  LYS798  CYS799  TRP800  GLU811  SER814 

> <Gold.Protein.RotatedAtoms>
  150.6867  134.3086  159.4736 H   0  0  0  0  0  0  0  0  0  0  0  0  # atno 6907 bound_to 6896
  152.0974  134.9362  160.0579 H   0  0  0  0  0  0  0  0  0  0  0  0  # atno 6908 bound_to 6896
  152.0654  133.4047  159.4473 H   0  0  0  0  0  0  0  0  0  0  0  0  # atno 6909 bound_to 6896
  146.0324  140.6715  142.9126 H   0  0  0  0  0  0  0  0  0  0  0  0  # atno 7974 bound_to 7965
  154.6543  140.2576  155.7178 H   0  0  0  0  0  0  0  0  0  0  0  0  # atno 8008 bound_to 7997
  156.2590  140.2861  156.0911 H   0  0  0  0  0  0  0  0  0  0  0  0  # atno 8009 bound_to 7997
  155.1403  140.0380  157.2787 H   0  0  0  0  0  0  0  0  0  0  0  0  # atno 8010 bound_to 7997
  139.7108  144.7078  151.1030 H   0  0  0  0  0  0  0  0  0  0  0  0  # atno 10167 bound_to 10162
  157.5660  131.1086  150.8453 H   0  0  0  0  0  0  0  0  0  0  0  0  # atno 10718 bound_to 10713
  153.0491  135.5080  154.7822 H   0  0  0  0  0  0  0  0  0  0  0  0  # atno 10763 bound_to 10752
  154.6698  135.2951  154.9759 H   0  0  0  0  0  0  0  0  0  0  0  0  # atno 10764 bound_to 10752
  154.0581  135.6695  153.4861 H   0  0  0  0  0  0  0  0  0  0  0  0  # atno 10765 bound_to 10752
  140.9537  134.1031  157.4037 H   0  0  0  0  0  0  0  0  0  0  0  0  # atno 11005 bound_to 11000
  144.7036  140.3759  143.7136 LP  0  0  0  0  0  0  0  0  0  0  0  0  # atno 17320 bound_to 7965
  145.7019  139.1663  143.2588 LP  0  0  0  0  0  0  0  0  0  0  0  0  # atno 17321 bound_to 7965
  140.7733  143.5295  150.9440 LP  0  0  0  0  0  0  0  0  0  0  0  0  # atno 17342 bound_to 10162
  139.8980  143.6871  152.3135 LP  0  0  0  0  0  0  0  0  0  0  0  0  # atno 17343 bound_to 10162
  156.8937  130.5222  149.5285 LP  0  0  0  0  0  0  0  0  0  0  0  0  # atno 17370 bound_to 10713
  156.0709  130.5742  150.9380 LP  0  0  0  0  0  0  0  0  0  0  0  0  # atno 17371 bound_to 10713
  139.8855  135.0073  156.6441 LP  0  0  0  0  0  0  0  0  0  0  0  0  # atno 17394 bound_to 11000
  140.7566  133.8852  155.8387 LP  0  0  0  0  0  0  0  0  0  0  0  0  # atno 17395 bound_to 11000

$$$$
