AV-unprocessed.smi:720|AV-procd|sdf|3500|dock4
  -GOLD-   22720 0493D 1   1.00000     0.00000
 Structure written by MMmdl.
 46 48  0  0  0  0  0  0  0  0  1 V2000
  151.7750  142.0721  159.8278 C   0  0  0  0  0  0  0  0  0  0  0  0
  151.8336  142.2652  158.3833 N   0  0  0  0  0  0  0  0  0  0  0  0
  151.8070  143.6981  158.1196 C   0  0  0  0  0  0  0  0  0  0  0  0
  150.7014  141.6367  157.6996 C   0  0  0  0  0  0  0  0  0  0  0  0
  151.0803  140.9625  156.3635 C   0  0  0  0  0  0  0  0  0  0  0  0
  149.9362  140.6581  155.5217 N   0  0  0  0  0  0  0  0  0  0  0  0
  148.9494  141.5134  155.0730 C   0  0  0  0  0  0  0  0  0  0  0  0
  148.0939  140.7851  154.2969 C   0  0  0  0  0  0  0  0  0  0  0  0
  148.6610  139.4762  154.3274 C   0  0  0  0  0  0  0  0  0  0  0  0
  148.1497  138.3292  153.6693 N   0  0  0  0  0  0  0  0  0  0  0  0
  146.9416  137.7494  153.8086 C   0  0  0  0  0  0  0  0  0  0  0  0
  146.0431  138.1653  154.5373 O   0  0  0  0  0  0  0  0  0  0  0  0
  146.7812  136.6330  153.0754 N   0  0  0  0  0  0  0  0  0  0  0  0
  145.6005  135.7694  152.9966 C   0  0  1  0  0  0  0  0  0  0  0  0
  144.3904  136.4497  152.3124 C   0  0  0  0  0  0  0  0  0  0  0  0
  144.0774  135.4973  151.1440 C   0  0  2  0  0  0  0  0  0  0  0  0
  143.5213  134.1696  151.6949 C   0  0  0  0  0  0  0  0  0  0  0  0
  144.7679  133.5059  152.3130 C   0  0  0  0  0  0  0  0  0  0  0  0
  145.8632  134.5609  152.0713 C   0  0  1  0  0  0  0  0  0  0  0  0
  145.4747  135.0934  150.6951 C   0  0  0  0  0  0  0  0  0  0  0  0
  149.7715  139.4064  155.0404 N   0  0  0  0  0  0  0  0  0  0  0  0
  151.9012  141.0245  160.0934 H   0  0  0  0  0  0  0  0  0  0  0  0
  150.8269  142.4214  160.2393 H   0  0  0  0  0  0  0  0  0  0  0  0
  152.5802  142.6196  160.3191 H   0  0  0  0  0  0  0  0  0  0  0  0
  151.8861  143.8958  157.0500 H   0  0  0  0  0  0  0  0  0  0  0  0
  152.6475  144.1944  158.6061 H   0  0  0  0  0  0  0  0  0  0  0  0
  150.8843  144.1522  158.4840 H   0  0  0  0  0  0  0  0  0  0  0  0
  150.1775  140.9469  158.3632 H   0  0  0  0  0  0  0  0  0  0  0  0
  149.9859  142.4243  157.4593 H   0  0  0  0  0  0  0  0  0  0  0  0
  151.7209  141.6372  155.7949 H   0  0  0  0  0  0  0  0  0  0  0  0
  151.6671  140.0587  156.5378 H   0  0  0  0  0  0  0  0  0  0  0  0
  148.9362  142.5586  155.3439 H   0  0  0  0  0  0  0  0  0  0  0  0
  147.2105  141.1472  153.7929 H   0  0  0  0  0  0  0  0  0  0  0  0
  148.7967  137.8636  153.0501 H   0  0  0  0  0  0  0  0  0  0  0  0
  147.5721  136.3444  152.5179 H   0  0  0  0  0  0  0  0  0  0  0  0
  145.3460  135.4230  154.0001 H   0  0  0  0  0  0  0  0  0  0  0  0
  143.5436  136.5649  152.9901 H   0  0  0  0  0  0  0  0  0  0  0  0
  144.6466  137.4404  151.9335 H   0  0  0  0  0  0  0  0  0  0  0  0
  143.4552  135.9459  150.3691 H   0  0  0  0  0  0  0  0  0  0  0  0
  142.7288  134.3283  152.4271 H   0  0  0  0  0  0  0  0  0  0  0  0
  143.1170  133.5521  150.8919 H   0  0  0  0  0  0  0  0  0  0  0  0
  144.6369  133.2708  153.3699 H   0  0  0  0  0  0  0  0  0  0  0  0
  145.0046  132.5774  151.7920 H   0  0  0  0  0  0  0  0  0  0  0  0
  146.8736  134.1561  152.1420 H   0  0  0  0  0  0  0  0  0  0  0  0
  145.4753  134.3271  149.9179 H   0  0  0  0  0  0  0  0  0  0  0  0
  146.0846  135.9369  150.3665 H   0  0  0  0  0  0  0  0  0  0  0  0
  1  2  1  0  0  0  0
  1 22  1  0  0  0  0
  1 23  1  0  0  0  0
  1 24  1  0  0  0  0
  2  3  1  0  0  0  0
  2  4  1  0  0  0  0
  3 25  1  0  0  0  0
  3 26  1  0  0  0  0
  3 27  1  0  0  0  0
  4  5  1  0  0  0  0
  4 28  1  0  0  0  0
  4 29  1  0  0  0  0
  5  6  1  0  0  0  0
  5 30  1  0  0  0  0
  5 31  1  0  0  0  0
  6 21  1  0  0  0  0
  6  7  1  0  0  0  0
  7  8  2  0  0  0  0
  7 32  1  0  0  0  0
  8  9  1  0  0  0  0
  8 33  1  0  0  0  0
  9 10  1  0  0  0  0
  9 21  2  0  0  0  0
 10 11  1  0  0  0  0
 10 34  1  0  0  0  0
 11 12  2  0  0  0  0
 11 13  1  0  0  0  0
 13 14  1  0  0  0  0
 13 35  1  0  0  0  0
 14 19  1  0  0  0  0
 14 15  1  0  0  0  0
 14 36  1  0  0  0  0
 15 16  1  0  0  0  0
 15 37  1  0  0  0  0
 15 38  1  0  0  0  0
 16 20  1  0  0  0  0
 16 17  1  0  0  0  0
 16 39  1  0  0  0  0
 17 18  1  0  0  0  0
 17 40  1  0  0  0  0
 17 41  1  0  0  0  0
 18 19  1  0  0  0  0
 18 42  1  0  0  0  0
 18 43  1  0  0  0  0
 19 20  1  0  0  0  0
 19 44  1  0  0  0  0
 20 45  1  0  0  0  0
 20 46  1  0  0  0  0
M  END
> <s_m_source_file>
AV-unprocessed.smi

> <i_m_source_file_index>
720

> <i_lp_mmshare_version>
43012

> <i_f3d_flags>
0

> <s_epik_input>
W0NIM11OKFtDSDNdKVtDSDJdW0NIMl1uMVtjSF1bY0hdYyhuMSlbTkhdQyg9TylbTkhdW0NASF0oW0NIMl1bQ0BIXTIzKVtDQEhdKFtDSDJdMylbQ0gyXVtDSDJdMg==

> <s_epik_cmdline>
J2VwaWtfcHl0aG9uJywgJy1waCcsICc3LjAnLCAnLXRuJywgJzgnLCAnLW1hJywgJzIwMCcsICctbWV0YWxfYmluZGluZycsICctaW1hZScsICc8aW5maWxlLm1hZT4nLCAnLW9tYWUnLCAnPG91dGZpbGUubWFlPic=

> <r_lp_tautomer_probability>
1

> <r_epik_Ionization_Penalty>
1.83819

> <r_epik_Ionization_Penalty_Charging>
0

> <r_epik_Ionization_Penalty_Neutral>
1.83819

> <r_epik_State_Penalty>
1.95467

> <r_epik_Charging_Adjusted_Penalty>
1.95467

> <i_epik_Tot_Q>
0

> <i_epik_Tot_abs_Q>
0

> <r_epik_Metal_State_Penalty>
1.95467

> <b_epik_Metal_Only>
0

> <s_lp_Force_Field>
OPLS_2005

> <r_lp_Energy>
64.3951

> <b_lp_Chiralities_Consistent>
1

> <s_lp_Variant>
AV-unprocessed.smi:720-6

> <Gold.Version>
5.8.1

> <Gold.Id.Protein>
6NUR|6NUR_protein|mol2

> <Gold.PLP.Fitness>
42.9113

> <Gold.PLP.PLP>
-36.7144

> <Gold.PLP.part.hbond>
-2.3454

> <Gold.PLP.part.metal>
0.0000

> <Gold.PLP.part.buried>
-2.4174

> <Gold.PLP.part.nonpolar>
-33.1043

> <Gold.PLP.part.repulsive>
0.2644

> <Gold.PLP.ligand.clash>
0.0000

> <Gold.PLP.ligand.torsion>
1.2284

> <Gold.PLP.Chemscore.Hbond>
1.8640

> <Gold.PLP.Chemscore.CHOScore>
1.0000

> <Gold.PLP.Chemscore.Metal>
0.0000

> <Gold.Chemscore.Hbonds>
donor molecule, donor type, donor heavy atom, donor atom, acceptor molecule, acceptor atom, score
      L1  H    10    34       P1  7948  0.85
      L1  H    13    35       P1  7948  0.99
      L1  C     7    32       P1  8028  1.00

> <Gold.PLP.Chemscore.Internal.Correction>
0.0617

> <Gold.Rescore>
     Score         DG    S(hbond)    S(metal)    S(lipo)     H(rot)  DE(clash)    DE(int)     intcor
     16.25     -17.53       1.87        0.00      83.23       1.53       0.00       1.28       ----

> <Gold.Chemscore.Fitness>
16.2548

> <Gold.Chemscore.DG>
-17.5317

> <Gold.Chemscore.ZeroCoef>
-5.4800

> <Gold.Chemscore.Hbond>
1.8665

> <Gold.Chemscore.Metal>
0.0000

> <Gold.Chemscore.Lipo>
83.2258

> <Gold.Chemscore.Internal_Hbond>
0.0000

> <Gold.Chemscore.DEClash>
0.0019

> <Gold.Chemscore.DEInternal>
1.2750

> <Gold.Chemscore.Rot>
1.5312

> <Gold.Chemscore.Internal.Correction>
   9.000000E+99

> <Gold.Chemscore.Hbonds>
donor molecule, donor type, donor heavy atom, donor atom, acceptor molecule, acceptor atom, score
      L1  H    10    34       P1  7948  0.82
      L1  H    13    35       P1  7948  0.92

> <Gold.Chemscore.Hbond.Weighted>
-6.2341

> <Gold.Chemscore.Metal.Weighted>
-0.0000

> <Gold.Chemscore.Lipo.Weighted>
-9.7374

> <Gold.Chemscore.Internal_Hbond.Weighted>
0.0000

> <Gold.Chemscore.DEClash.Weighted>
0.0019

> <Gold.Chemscore.DEInternal.Weighted>
1.2750

> <Gold.Chemscore.Rot.Weighted>
3.9199

> <Gold.Chemscore.Internal.Correction.Weighted>
   9.000000E+99

> <Gold.Protein.RotatedTorsions>
[ 6907 6896 6895 6894 ] final -175.46 input  -60.11 | X-H torsion
[ 7974 7965 7964 7962 ] final  -33.25 input  175.53 | X-H torsion
[ 8008 7997 7996 7995 ] final  -88.00 input   59.86 | X-H torsion
[ 10167 10162 10161 10158 ] final  -50.86 input  -65.29 | X-H torsion
[ 10718 10713 10712 10709 ] final -140.10 input   66.30 | X-H torsion
[ 10763 10752 10751 10750 ] final -107.34 input  -60.55 | X-H torsion
[ 11005 11000 10999 10996 ] final  -34.52 input  -57.11 | X-H torsion

> <Gold.Protein.ActiveResidues>
 VAL166  LYS551  ARG553  GLY616  TRP617  ASP618  TYR619  PRO620  LYS621  CYS622 
 ASP623  PHE694  ASN695  SER759  ASP760  ASP761  ALA762  ILE779  LEU786  VAL792 
 PHE793  MET794  SER795  GLU796  ALA797  LYS798  CYS799  TRP800  GLU811  SER814 

> <Gold.Protein.RotatedAtoms>
  151.5890  133.3369  159.3023 H   0  0  0  0  0  0  0  0  0  0  0  0  # atno 6907 bound_to 6896
  150.8271  134.7510  159.6833 H   0  0  0  0  0  0  0  0  0  0  0  0  # atno 6908 bound_to 6896
  152.4359  134.5693  159.9968 H   0  0  0  0  0  0  0  0  0  0  0  0  # atno 6909 bound_to 6896
  146.0925  140.5893  142.8858 H   0  0  0  0  0  0  0  0  0  0  0  0  # atno 7974 bound_to 7965
  154.6697  140.0559  157.0152 H   0  0  0  0  0  0  0  0  0  0  0  0  # atno 8008 bound_to 7997
  155.1107  140.3238  155.4504 H   0  0  0  0  0  0  0  0  0  0  0  0  # atno 8009 bound_to 7997
  156.2652  140.2015  156.6231 H   0  0  0  0  0  0  0  0  0  0  0  0  # atno 8010 bound_to 7997
  140.6617  143.2641  151.4420 H   0  0  0  0  0  0  0  0  0  0  0  0  # atno 10167 bound_to 10162
  156.3184  130.7521  151.1613 H   0  0  0  0  0  0  0  0  0  0  0  0  # atno 10718 bound_to 10713
  154.8069  135.4678  154.0415 H   0  0  0  0  0  0  0  0  0  0  0  0  # atno 10763 bound_to 10752
  153.1877  135.6850  153.8401 H   0  0  0  0  0  0  0  0  0  0  0  0  # atno 10764 bound_to 10752
  153.7929  135.3240  155.3358 H   0  0  0  0  0  0  0  0  0  0  0  0  # atno 10765 bound_to 10752
  140.9723  133.7103  156.1544 H   0  0  0  0  0  0  0  0  0  0  0  0  # atno 11005 bound_to 11000
  144.7371  140.4838  143.6896 LP  0  0  0  0  0  0  0  0  0  0  0  0  # atno 17320 bound_to 7965
  145.6011  139.1504  143.3128 LP  0  0  0  0  0  0  0  0  0  0  0  0  # atno 17321 bound_to 7965
  139.5853  144.1619  152.2020 LP  0  0  0  0  0  0  0  0  0  0  0  0  # atno 17342 bound_to 10162
  140.0956  144.5583  150.7024 LP  0  0  0  0  0  0  0  0  0  0  0  0  # atno 17343 bound_to 10162
  157.7406  131.0514  150.5151 LP  0  0  0  0  0  0  0  0  0  0  0  0  # atno 17370 bound_to 10713
  156.5300  130.4182  149.6206 LP  0  0  0  0  0  0  0  0  0  0  0  0  # atno 17371 bound_to 10713
  140.7311  134.4253  157.5566 LP  0  0  0  0  0  0  0  0  0  0  0  0  # atno 17394 bound_to 11000
  139.8917  134.8774  156.2308 LP  0  0  0  0  0  0  0  0  0  0  0  0  # atno 17395 bound_to 11000

$$$$
