AV-unprocessed.smi:1704|AV-procd|sdf|6881|dock10
  -GOLD-   22720 8 83D 1   1.00000     0.00000
 Structure written by MMmdl.
 41 43  0  0  0  0  0  0  0  0  1 V2000
  154.8847  139.8870  160.9638 C   0  0  0  0  0  0  0  0  0  0  0  0
  153.8947  140.8322  160.4137 N   0  0  0  0  0  0  0  0  0  0  0  0
  153.3553  140.5621  159.1833 C   0  0  0  0  0  0  0  0  0  0  0  0
  153.6532  139.5942  158.4826 O   0  0  0  0  0  0  0  0  0  0  0  0
  152.3610  141.5463  158.7418 C   0  0  0  0  0  0  0  0  0  0  0  0
  152.0398  142.6437  159.4693 C   0  0  0  0  0  0  0  0  0  0  0  0
  151.0864  143.4212  158.8226 N   0  0  0  0  0  0  0  0  0  0  0  0
  150.8743  142.7250  157.7055 C   0  0  0  0  0  0  0  0  0  0  0  0
  151.5848  141.5845  157.5829 N   0  0  0  0  0  0  0  0  0  0  0  0
  151.5256  140.6508  156.4639 C   0  0  0  0  0  0  0  0  0  0  0  0
  150.0963  140.3881  155.9203 C   0  0  0  0  0  0  0  0  0  0  0  0
  149.2716  140.0206  157.0112 O   0  0  0  0  0  0  0  0  0  0  0  0
  149.4761  141.6435  155.2561 C   0  0  0  0  0  0  0  0  0  0  0  0
  148.1241  141.3621  154.5753 C   0  0  0  0  0  0  0  0  0  0  0  0
  148.2283  140.2052  153.5723 C   0  0  0  0  0  0  0  0  0  0  0  0
  148.7714  138.9404  154.2503 C   0  0  0  0  0  0  0  0  0  0  0  0
  150.1299  139.2057  154.9232 C   0  0  0  0  0  0  0  0  0  0  0  0
  152.6791  142.8445  160.7177 N   0  0  0  0  0  0  0  0  0  0  0  0
  152.3135  144.0480  161.4708 C   0  0  0  0  0  0  0  0  0  0  0  0
  153.5879  141.9322  161.1970 C   0  0  0  0  0  0  0  0  0  0  0  0
  154.1183  142.0920  162.2998 O   0  0  0  0  0  0  0  0  0  0  0  0
  155.1157  139.0364  160.3215 H   0  0  0  0  0  0  0  0  0  0  0  0
  154.5290  139.4727  161.9085 H   0  0  0  0  0  0  0  0  0  0  0  0
  155.8314  140.3947  161.1555 H   0  0  0  0  0  0  0  0  0  0  0  0
  150.1709  143.0505  156.9532 H   0  0  0  0  0  0  0  0  0  0  0  0
  152.1470  141.0560  155.6641 H   0  0  0  0  0  0  0  0  0  0  0  0
  152.0058  139.7173  156.7557 H   0  0  0  0  0  0  0  0  0  0  0  0
  148.8739  140.8025  157.3624 H   0  0  0  0  0  0  0  0  0  0  0  0
  149.3425  142.4403  155.9884 H   0  0  0  0  0  0  0  0  0  0  0  0
  150.1693  142.0315  154.5087 H   0  0  0  0  0  0  0  0  0  0  0  0
  147.3726  141.1253  155.3294 H   0  0  0  0  0  0  0  0  0  0  0  0
  147.7731  142.2607  154.0674 H   0  0  0  0  0  0  0  0  0  0  0  0
  147.2501  140.0024  153.1352 H   0  0  0  0  0  0  0  0  0  0  0  0
  148.8830  140.4911  152.7482 H   0  0  0  0  0  0  0  0  0  0  0  0
  148.0539  138.5836  154.9900 H   0  0  0  0  0  0  0  0  0  0  0  0
  148.8742  138.1422  153.5147 H   0  0  0  0  0  0  0  0  0  0  0  0
  150.8656  139.4138  154.1448 H   0  0  0  0  0  0  0  0  0  0  0  0
  150.4724  138.2998  155.4253 H   0  0  0  0  0  0  0  0  0  0  0  0
  152.8786  144.1923  162.3921 H   0  0  0  0  0  0  0  0  0  0  0  0
  151.2566  144.0125  161.7370 H   0  0  0  0  0  0  0  0  0  0  0  0
  152.4731  144.9344  160.8558 H   0  0  0  0  0  0  0  0  0  0  0  0
  1  2  1  0  0  0  0
  1 22  1  0  0  0  0
  1 23  1  0  0  0  0
  1 24  1  0  0  0  0
  2 20  1  0  0  0  0
  2  3  1  0  0  0  0
  3  4  2  0  0  0  0
  3  5  1  0  0  0  0
  5  9  1  0  0  0  0
  5  6  2  0  0  0  0
  6  7  1  0  0  0  0
  6 18  1  0  0  0  0
  7  8  2  0  0  0  0
  8  9  1  0  0  0  0
  8 25  1  0  0  0  0
  9 10  1  0  0  0  0
 10 11  1  0  0  0  0
 10 26  1  0  0  0  0
 10 27  1  0  0  0  0
 11 17  1  0  0  0  0
 11 12  1  0  0  0  0
 11 13  1  0  0  0  0
 12 28  1  0  0  0  0
 13 14  1  0  0  0  0
 13 29  1  0  0  0  0
 13 30  1  0  0  0  0
 14 15  1  0  0  0  0
 14 31  1  0  0  0  0
 14 32  1  0  0  0  0
 15 16  1  0  0  0  0
 15 33  1  0  0  0  0
 15 34  1  0  0  0  0
 16 17  1  0  0  0  0
 16 35  1  0  0  0  0
 16 36  1  0  0  0  0
 17 37  1  0  0  0  0
 17 38  1  0  0  0  0
 18 19  1  0  0  0  0
 18 20  1  0  0  0  0
 19 39  1  0  0  0  0
 19 40  1  0  0  0  0
 19 41  1  0  0  0  0
 20 21  2  0  0  0  0
M  END
> <s_m_source_file>
AV-unprocessed.smi

> <i_m_source_file_index>
1704

> <i_lp_mmshare_version>
43012

> <i_f3d_flags>
0

> <s_epik_input>
Tz1jMW4oW0NIM10pYyg9TyluKFtDSDNdKWMoYzEyKW5bY0hdbjJbQ0gyXUMzKFtPSF0pW0NIMl1bQ0gyXVtDSDJdW0NIMl1bQ0gyXTM=

> <s_epik_cmdline>
J2VwaWtfcHl0aG9uJywgJy1waCcsICc3LjAnLCAnLXRuJywgJzgnLCAnLW1hJywgJzIwMCcsICctbWV0YWxfYmluZGluZycsICctaW1hZScsICc8aW5maWxlLm1hZT4nLCAnLW9tYWUnLCAnPG91dGZpbGUubWFlPic=

> <r_lp_tautomer_probability>
1

> <r_epik_Ionization_Penalty>
6.70257e-06

> <r_epik_Ionization_Penalty_Charging>
6.65152e-09

> <r_epik_Ionization_Penalty_Neutral>
6.69592e-06

> <r_epik_State_Penalty>
-0

> <r_epik_Charging_Adjusted_Penalty>
6.65152e-09

> <i_epik_Tot_Q>
0

> <i_epik_Tot_abs_Q>
0

> <r_epik_Metal_State_Penalty>
-0

> <b_epik_Metal_Only>
0

> <s_lp_Force_Field>
OPLS_2005

> <r_lp_Energy>
39.0788

> <b_lp_Chiralities_Consistent>
1

> <s_lp_Variant>
AV-unprocessed.smi:1704-1

> <Gold.Version>
5.8.1

> <Gold.Id.Protein>
6NUR|6NUR_protein|mol2

> <Gold.PLP.Fitness>
50.1873

> <Gold.PLP.PLP>
-44.8266

> <Gold.PLP.part.hbond>
-2.0000

> <Gold.PLP.part.metal>
0.0000

> <Gold.PLP.part.buried>
-0.4425

> <Gold.PLP.part.nonpolar>
-42.0144

> <Gold.PLP.part.repulsive>
0.0992

> <Gold.PLP.ligand.clash>
0.0000

> <Gold.PLP.ligand.torsion>
0.3217

> <Gold.PLP.Chemscore.Hbond>
1.0000

> <Gold.PLP.Chemscore.CHOScore>
1.0000

> <Gold.PLP.Chemscore.Metal>
0.0000

> <Gold.Chemscore.Hbonds>
donor molecule, donor type, donor heavy atom, donor atom, acceptor molecule, acceptor atom, score
      P1  H  7997  8009       L1     4  1.00
      L1  C     8    25       P1  8028  1.00

> <Gold.PLP.Chemscore.Internal.Correction>
0.0041

> <Gold.Rescore>
     Score         DG    S(hbond)    S(metal)    S(lipo)     H(rot)  DE(clash)    DE(int)     intcor
     11.12     -13.27       0.98        0.00      78.81       1.84       1.80       0.35       ----

> <Gold.Chemscore.Fitness>
11.1164

> <Gold.Chemscore.DG>
-13.2717

> <Gold.Chemscore.ZeroCoef>
-5.4800

> <Gold.Chemscore.Hbond>
0.9815

> <Gold.Chemscore.Metal>
0.0000

> <Gold.Chemscore.Lipo>
78.8135

> <Gold.Chemscore.Internal_Hbond>
0.0000

> <Gold.Chemscore.DEClash>
1.8040

> <Gold.Chemscore.DEInternal>
0.3513

> <Gold.Chemscore.Rot>
1.8389

> <Gold.Chemscore.Internal.Correction>
   9.000000E+99

> <Gold.Chemscore.Hbonds>
donor molecule, donor type, donor heavy atom, donor atom, acceptor molecule, acceptor atom, score
      P1  H  7997  8009       L1     4  0.77

> <Gold.Chemscore.Hbond.Weighted>
-3.2781

> <Gold.Chemscore.Metal.Weighted>
-0.0000

> <Gold.Chemscore.Lipo.Weighted>
-9.2212

> <Gold.Chemscore.Internal_Hbond.Weighted>
0.0000

> <Gold.Chemscore.DEClash.Weighted>
1.8040

> <Gold.Chemscore.DEInternal.Weighted>
0.3513

> <Gold.Chemscore.Rot.Weighted>
4.7076

> <Gold.Chemscore.Internal.Correction.Weighted>
   9.000000E+99

> <Gold.Protein.RotatedTorsions>
[ 6907 6896 6895 6894 ] final  141.65 input  -60.11 | X-H torsion
[ 7974 7965 7964 7962 ] final   40.87 input  175.53 | X-H torsion
[ 8008 7997 7996 7995 ] final  130.01 input   59.86 | X-H torsion
[ 10167 10162 10161 10158 ] final   -9.00 input  -65.29 | X-H torsion
[ 10718 10713 10712 10709 ] final -137.64 input   66.30 | X-H torsion
[ 10763 10752 10751 10750 ] final   25.49 input  -60.55 | X-H torsion
[ 11005 11000 10999 10996 ] final  132.48 input  -57.11 | X-H torsion

> <Gold.Protein.ActiveResidues>
 VAL166  LYS551  ARG553  GLY616  TRP617  ASP618  TYR619  PRO620  LYS621  CYS622 
 ASP623  PHE694  ASN695  SER759  ASP760  ASP761  ALA762  ILE779  LEU786  VAL792 
 PHE793  MET794  SER795  GLU796  ALA797  LYS798  CYS799  TRP800  GLU811  SER814 

> <Gold.Protein.RotatedAtoms>
  152.2284  133.5039  159.5201 H   0  0  0  0  0  0  0  0  0  0  0  0  # atno 6907 bound_to 6896
  150.7031  134.1249  159.4057 H   0  0  0  0  0  0  0  0  0  0  0  0  # atno 6908 bound_to 6896
  151.9170  135.0314  160.0570 H   0  0  0  0  0  0  0  0  0  0  0  0  # atno 6909 bound_to 6896
  146.0870  139.5482  142.9500 H   0  0  0  0  0  0  0  0  0  0  0  0  # atno 7974 bound_to 7965
  156.2947  140.2606  156.2692 H   0  0  0  0  0  0  0  0  0  0  0  0  # atno 8008 bound_to 7997
  154.9712  140.0391  157.2254 H   0  0  0  0  0  0  0  0  0  0  0  0  # atno 8009 bound_to 7997
  154.7857  140.2803  155.6034 H   0  0  0  0  0  0  0  0  0  0  0  0  # atno 8010 bound_to 7997
  140.7075  143.5906  150.8898 H   0  0  0  0  0  0  0  0  0  0  0  0  # atno 10167 bound_to 10162
  156.2904  130.7371  151.1395 H   0  0  0  0  0  0  0  0  0  0  0  0  # atno 10718 bound_to 10713
  153.0688  135.6582  154.0293 H   0  0  0  0  0  0  0  0  0  0  0  0  # atno 10763 bound_to 10752
  153.9943  135.2943  155.3410 H   0  0  0  0  0  0  0  0  0  0  0  0  # atno 10764 bound_to 10752
  154.7056  135.5226  153.8660 H   0  0  0  0  0  0  0  0  0  0  0  0  # atno 10765 bound_to 10752
  139.9792  134.9553  156.9587 H   0  0  0  0  0  0  0  0  0  0  0  0  # atno 11005 bound_to 11000
  145.6111  141.0339  143.1966 LP  0  0  0  0  0  0  0  0  0  0  0  0  # atno 17320 bound_to 7965
  144.7333  139.7661  143.7339 LP  0  0  0  0  0  0  0  0  0  0  0  0  # atno 17321 bound_to 7965
  139.9631  143.6141  152.2996 LP  0  0  0  0  0  0  0  0  0  0  0  0  # atno 17342 bound_to 10162
  139.6701  144.7661  151.1800 LP  0  0  0  0  0  0  0  0  0  0  0  0  # atno 17343 bound_to 10162
  157.7340  131.0585  150.5544 LP  0  0  0  0  0  0  0  0  0  0  0  0  # atno 17370 bound_to 10713
  156.5660  130.4267  149.6041 LP  0  0  0  0  0  0  0  0  0  0  0  0  # atno 17371 bound_to 10713
  140.5130  134.0983  155.7274 LP  0  0  0  0  0  0  0  0  0  0  0  0  # atno 17394 bound_to 11000
  141.1466  133.9043  157.2200 LP  0  0  0  0  0  0  0  0  0  0  0  0  # atno 17395 bound_to 11000

$$$$
