AV-unprocessed.smi:2438|AV-procd|sdf|9597|dock1
  -GOLD-   2272013233D 1   1.00000     0.00000
 Structure written by MMmdl.
 43 44  0  0  0  0  0  0  0  0  1 V2000
  149.1553  140.7130  156.2078 C   0  0  0  0  0  0  0  0  0  0  0  0
  149.5895  139.8723  155.0991 N   0  0  0  0  0  0  0  0  0  0  0  0
  148.5308  139.2442  154.3204 C   0  0  0  0  0  0  0  0  0  0  0  0
  150.6777  139.0133  155.3531 C   0  0  0  0  0  0  0  0  0  0  0  0
  151.8222  139.2122  154.6546 N   0  0  0  0  0  0  0  0  0  0  0  0
  152.8552  138.4111  154.9200 C   0  0  0  0  0  0  0  0  0  0  0  0
  152.8854  137.4168  155.8074 N   0  0  0  0  0  0  0  0  0  0  0  0
  151.7560  137.1986  156.5126 C   0  0  0  0  0  0  0  0  0  0  0  0
  150.5937  137.9871  156.3302 C   0  0  0  0  0  0  0  0  0  0  0  0
  149.3741  137.7391  157.0173 N   0  0  0  0  0  0  0  0  0  0  0  0
  149.1693  136.8956  158.0415 C   0  0  0  0  0  0  0  0  0  0  0  0
  150.0387  136.2037  158.5715 O   0  0  0  0  0  0  0  0  0  0  0  0
  147.8902  136.9219  158.4406 N   0  0  0  0  0  0  0  0  0  0  0  0
  147.3361  136.1684  159.5613 C   0  0  2  0  0  0  0  0  0  0  0  0
  147.9894  136.6411  160.8719 C   0  0  0  0  0  0  0  0  0  0  0  0
  147.4952  135.8177  162.0699 C   0  0  0  0  0  0  0  0  0  0  0  0
  147.7338  134.3161  161.8490 C   0  0  0  0  0  0  0  0  0  0  0  0
  147.0697  133.8200  160.5474 C   0  0  2  0  0  0  0  0  0  0  0  0
  147.2919  132.3094  160.3256 C   0  0  0  0  0  0  0  0  0  0  0  0
  148.5881  132.0384  160.1693 F   0  0  0  0  0  0  0  0  0  0  0  0
  146.8309  131.6214  161.3701 F   0  0  0  0  0  0  0  0  0  0  0  0
  146.6338  131.9057  159.2390 F   0  0  0  0  0  0  0  0  0  0  0  0
  147.5602  134.6578  159.3469 C   0  0  0  0  0  0  0  0  0  0  0  0
  150.0088  141.1847  156.6966 H   0  0  0  0  0  0  0  0  0  0  0  0
  148.6081  140.1294  156.9492 H   0  0  0  0  0  0  0  0  0  0  0  0
  148.4984  141.5041  155.8455 H   0  0  0  0  0  0  0  0  0  0  0  0
  148.9158  138.7637  153.4209 H   0  0  0  0  0  0  0  0  0  0  0  0
  147.7956  139.9878  154.0117 H   0  0  0  0  0  0  0  0  0  0  0  0
  148.0191  138.4877  154.9167 H   0  0  0  0  0  0  0  0  0  0  0  0
  153.7593  138.5838  154.3551 H   0  0  0  0  0  0  0  0  0  0  0  0
  151.7855  136.3681  157.2015 H   0  0  0  0  0  0  0  0  0  0  0  0
  148.5986  138.3308  156.7564 H   0  0  0  0  0  0  0  0  0  0  0  0
  147.2517  137.5237  157.9414 H   0  0  0  0  0  0  0  0  0  0  0  0
  146.2633  136.3584  159.6334 H   0  0  0  0  0  0  0  0  0  0  0  0
  149.0746  136.5545  160.7984 H   0  0  0  0  0  0  0  0  0  0  0  0
  147.7738  137.6972  161.0380 H   0  0  0  0  0  0  0  0  0  0  0  0
  148.0016  136.1448  162.9785 H   0  0  0  0  0  0  0  0  0  0  0  0
  146.4312  136.0003  162.2266 H   0  0  0  0  0  0  0  0  0  0  0  0
  148.8063  134.1209  161.8154 H   0  0  0  0  0  0  0  0  0  0  0  0
  147.3472  133.7602  162.7033 H   0  0  0  0  0  0  0  0  0  0  0  0
  145.9945  133.9800  160.6435 H   0  0  0  0  0  0  0  0  0  0  0  0
  147.0453  134.3387  158.4401 H   0  0  0  0  0  0  0  0  0  0  0  0
  148.6210  134.4663  159.1795 H   0  0  0  0  0  0  0  0  0  0  0  0
  1  2  1  0  0  0  0
  1 24  1  0  0  0  0
  1 25  1  0  0  0  0
  1 26  1  0  0  0  0
  2  3  1  0  0  0  0
  2  4  1  0  0  0  0
  3 27  1  0  0  0  0
  3 28  1  0  0  0  0
  3 29  1  0  0  0  0
  4  9  1  0  0  0  0
  4  5  2  0  0  0  0
  5  6  1  0  0  0  0
  6  7  2  0  0  0  0
  6 30  1  0  0  0  0
  7  8  1  0  0  0  0
  8  9  2  0  0  0  0
  8 31  1  0  0  0  0
  9 10  1  0  0  0  0
 10 11  1  0  0  0  0
 10 32  1  0  0  0  0
 11 12  2  0  0  0  0
 11 13  1  0  0  0  0
 13 14  1  0  0  0  0
 13 33  1  0  0  0  0
 14 23  1  0  0  0  0
 14 15  1  0  0  0  0
 14 34  1  0  0  0  0
 15 16  1  0  0  0  0
 15 35  1  0  0  0  0
 15 36  1  0  0  0  0
 16 17  1  0  0  0  0
 16 37  1  0  0  0  0
 16 38  1  0  0  0  0
 17 18  1  0  0  0  0
 17 39  1  0  0  0  0
 17 40  1  0  0  0  0
 18 19  1  0  0  0  0
 18 23  1  0  0  0  0
 18 41  1  0  0  0  0
 19 20  1  0  0  0  0
 19 21  1  0  0  0  0
 19 22  1  0  0  0  0
 23 42  1  0  0  0  0
 23 43  1  0  0  0  0
M  END
> <s_m_source_file>
AV-unprocessed.smi

> <i_m_source_file_index>
2438

> <i_lp_mmshare_version>
43012

> <i_f3d_flags>
0

> <s_epik_input>
W0NIM11OKFtDSDNdKWMxbltjSF1uW2NIXWMxW05IXUMoPU8pW05IXVtDQEBIXTJbQ0gyXVtDSDJdW0NIMl1bQ0BASF0oQyhGKShGKUYpW0NIMl0y

> <s_epik_cmdline>
J2VwaWtfcHl0aG9uJywgJy1waCcsICc3LjAnLCAnLXRuJywgJzgnLCAnLW1hJywgJzIwMCcsICctbWV0YWxfYmluZGluZycsICctaW1hZScsICc8aW5maWxlLm1hZT4nLCAnLW9tYWUnLCAnPG91dGZpbGUubWFlPic=

> <r_lp_tautomer_probability>
1

> <r_epik_Ionization_Penalty>
0.01759

> <r_epik_Ionization_Penalty_Charging>
0

> <r_epik_Ionization_Penalty_Neutral>
0.01759

> <r_epik_State_Penalty>
0.0133536

> <r_epik_Charging_Adjusted_Penalty>
0.0133536

> <i_epik_Tot_Q>
0

> <i_epik_Tot_abs_Q>
0

> <r_epik_Metal_State_Penalty>
0.0129828

> <b_epik_Metal_Only>
0

> <s_lp_Force_Field>
OPLS_2005

> <r_lp_Energy>
11.5061

> <b_lp_Chiralities_Consistent>
1

> <s_lp_Variant>
AV-unprocessed.smi:2438-3

> <Gold.Version>
5.8.1

> <Gold.Id.Protein>
6NUR|6NUR_protein|mol2

> <Gold.PLP.Fitness>
35.8132

> <Gold.PLP.PLP>
-28.2574

> <Gold.PLP.part.hbond>
-3.0000

> <Gold.PLP.part.metal>
0.0000

> <Gold.PLP.part.buried>
-4.2582

> <Gold.PLP.part.nonpolar>
-21.2872

> <Gold.PLP.part.repulsive>
0.2205

> <Gold.PLP.ligand.clash>
0.0000

> <Gold.PLP.ligand.torsion>
0.2352

> <Gold.PLP.Chemscore.Hbond>
2.5600

> <Gold.PLP.Chemscore.CHOScore>
0.0000

> <Gold.PLP.Chemscore.Metal>
0.0000

> <Gold.Chemscore.Hbonds>
donor molecule, donor type, donor heavy atom, donor atom, acceptor molecule, acceptor atom, score
      P1  H  6896  6909       L1    12  1.00
      P1  H  7989  7998       L1     5  1.00
      P1  H 10752 10765       L1     7  0.46

> <Gold.PLP.Chemscore.Internal.Correction>
0.3463

> <Gold.Rescore>
     Score         DG    S(hbond)    S(metal)    S(lipo)     H(rot)  DE(clash)    DE(int)     intcor
     13.35     -15.80       2.14        0.00      55.68       1.30       0.00       2.45       ----

> <Gold.Chemscore.Fitness>
13.3514

> <Gold.Chemscore.DG>
-15.8046

> <Gold.Chemscore.ZeroCoef>
-5.4800

> <Gold.Chemscore.Hbond>
2.1359

> <Gold.Chemscore.Metal>
0.0000

> <Gold.Chemscore.Lipo>
55.6845

> <Gold.Chemscore.Internal_Hbond>
0.0000

> <Gold.Chemscore.DEClash>
0.0000

> <Gold.Chemscore.DEInternal>
2.4532

> <Gold.Chemscore.Rot>
1.2987

> <Gold.Chemscore.Internal.Correction>
   9.000000E+99

> <Gold.Chemscore.Hbonds>
donor molecule, donor type, donor heavy atom, donor atom, acceptor molecule, acceptor atom, score
      P1  H  6896  6909       L1    12  0.96
      P1  H  7989  7998       L1     5  0.70
      P1  H 10752 10765       L1     7  0.10

> <Gold.Chemscore.Hbond.Weighted>
-7.1340

> <Gold.Chemscore.Metal.Weighted>
-0.0000

> <Gold.Chemscore.Lipo.Weighted>
-6.5151

> <Gold.Chemscore.Internal_Hbond.Weighted>
0.0000

> <Gold.Chemscore.DEClash.Weighted>
0.0000

> <Gold.Chemscore.DEInternal.Weighted>
2.4532

> <Gold.Chemscore.Rot.Weighted>
3.3246

> <Gold.Chemscore.Internal.Correction.Weighted>
   9.000000E+99

> <Gold.Protein.RotatedTorsions>
[ 6907 6896 6895 6894 ] final   60.35 input  -60.11 | X-H torsion
[ 7974 7965 7964 7962 ] final -104.43 input  175.53 | X-H torsion
[ 8008 7997 7996 7995 ] final  -64.81 input   59.86 | X-H torsion
[ 10167 10162 10161 10158 ] final  -37.53 input  -65.29 | X-H torsion
[ 10718 10713 10712 10709 ] final   13.61 input   66.30 | X-H torsion
[ 10763 10752 10751 10750 ] final -152.51 input  -60.55 | X-H torsion
[ 11005 11000 10999 10996 ] final -166.81 input  -57.11 | X-H torsion

> <Gold.Protein.ActiveResidues>
 VAL166  LYS551  ARG553  GLY616  TRP617  ASP618  TYR619  PRO620  LYS621  CYS622 
 ASP623  PHE694  ASN695  SER759  ASP760  ASP761  ALA762  ILE779  LEU786  VAL792 
 PHE793  MET794  SER795  GLU796  ALA797  LYS798  CYS799  TRP800  GLU811  SER814 

> <Gold.Protein.RotatedAtoms>
  152.3995  134.6310  160.0075 H   0  0  0  0  0  0  0  0  0  0  0  0  # atno 6907 bound_to 6896
  151.6519  133.3315  159.3162 H   0  0  0  0  0  0  0  0  0  0  0  0  # atno 6908 bound_to 6896
  150.7897  134.6954  159.6565 H   0  0  0  0  0  0  0  0  0  0  0  0  # atno 6909 bound_to 6896
  145.2433  140.9213  143.3137 H   0  0  0  0  0  0  0  0  0  0  0  0  # atno 7974 bound_to 7965
  154.4634  140.0946  156.6955 H   0  0  0  0  0  0  0  0  0  0  0  0  # atno 8008 bound_to 7997
  155.4928  140.3471  155.4339 H   0  0  0  0  0  0  0  0  0  0  0  0  # atno 8009 bound_to 7997
  156.0912  140.1398  156.9578 H   0  0  0  0  0  0  0  0  0  0  0  0  # atno 8010 bound_to 7997
  140.7116  143.3336  151.2513 H   0  0  0  0  0  0  0  0  0  0  0  0  # atno 10167 bound_to 10162
  157.0271  130.6178  149.5730 H   0  0  0  0  0  0  0  0  0  0  0  0  # atno 10718 bound_to 10713
  154.7989  135.3234  154.7598 H   0  0  0  0  0  0  0  0  0  0  0  0  # atno 10763 bound_to 10752
  153.8270  135.6882  153.4824 H   0  0  0  0  0  0  0  0  0  0  0  0  # atno 10764 bound_to 10752
  153.1695  135.4628  154.9826 H   0  0  0  0  0  0  0  0  0  0  0  0  # atno 10765 bound_to 10752
  140.5603  134.5340  157.5142 H   0  0  0  0  0  0  0  0  0  0  0  0  # atno 11005 bound_to 11000
  144.9569  139.4021  143.6375 LP  0  0  0  0  0  0  0  0  0  0  0  0  # atno 17320 bound_to 7965
  146.3322  139.8604  142.8857 LP  0  0  0  0  0  0  0  0  0  0  0  0  # atno 17321 bound_to 7965
  139.6825  143.9831  152.2816 LP  0  0  0  0  0  0  0  0  0  0  0  0  # atno 17342 bound_to 10162
  139.9465  144.6648  150.8214 LP  0  0  0  0  0  0  0  0  0  0  0  0  # atno 17343 bound_to 10162
  156.0082  130.5171  150.7901 LP  0  0  0  0  0  0  0  0  0  0  0  0  # atno 17370 bound_to 10713
  157.5205  131.0931  151.0084 LP  0  0  0  0  0  0  0  0  0  0  0  0  # atno 17371 bound_to 10713
  139.9411  134.7786  156.0677 LP  0  0  0  0  0  0  0  0  0  0  0  0  # atno 17394 bound_to 11000
  141.1118  133.6640  156.2998 LP  0  0  0  0  0  0  0  0  0  0  0  0  # atno 17395 bound_to 11000

$$$$
