AV-unprocessed.smi:1667|AV-procd|sdf|6676|dock5
  -GOLD-   22720 7393D 1   1.00000     0.00000
 Structure written by MMmdl.
 45 47  0  0  0  0  0  0  0  0  1 V2000
  152.9592  138.9655  159.5552 C   0  0  0  0  0  0  0  0  0  0  0  0
  151.6087  138.2586  159.5302 C   0  0  0  0  0  0  0  0  0  0  0  0
  151.4457  137.2253  160.1770 O   0  0  0  0  0  0  0  0  0  0  0  0
  150.6586  138.8361  158.7756 N   0  0  0  0  0  0  0  0  0  0  0  0
  149.2836  138.3826  158.5515 C   0  0  2  0  0  0  0  0  0  0  0  0
  149.1199  136.8520  158.6250 C   0  0  0  0  0  0  0  0  0  0  0  0
  148.7388  139.0052  157.2875 C   0  0  0  0  0  0  0  0  0  0  0  0
  148.3167  138.2626  156.2614 N   0  0  0  0  0  0  0  0  0  0  0  0
  147.9819  139.2041  155.3117 C   0  0  0  0  0  0  0  0  0  0  0  0
  147.4703  139.0445  154.0041 C   0  0  0  0  0  0  0  0  0  0  0  0
  147.2112  140.1711  153.1970 C   0  0  0  0  0  0  0  0  0  0  0  0
  147.4614  141.4698  153.6846 C   0  0  0  0  0  0  0  0  0  0  0  0
  147.9719  141.6495  154.9846 C   0  0  0  0  0  0  0  0  0  0  0  0
  148.2247  140.5216  155.7895 C   0  0  0  0  0  0  0  0  0  0  0  0
  148.7162  140.3508  157.0820 N   0  0  0  0  0  0  0  0  0  0  0  0
  149.1382  141.4215  157.9831 C   0  0  0  0  0  0  0  0  0  0  0  0
  150.6117  141.8588  157.8048 C   0  0  1  0  0  0  0  0  0  0  0  0
  150.7883  142.5053  156.5600 O   0  0  0  0  0  0  0  0  0  0  0  0
  151.1365  142.6810  158.9747 C   0  0  0  0  0  0  0  0  0  0  0  0
  150.6963  144.0071  159.1884 C   0  0  0  0  0  0  0  0  0  0  0  0
  151.1790  144.7482  160.2842 C   0  0  0  0  0  0  0  0  0  0  0  0
  152.1012  144.1682  161.1759 C   0  0  0  0  0  0  0  0  0  0  0  0
  152.5429  142.8474  160.9693 C   0  0  0  0  0  0  0  0  0  0  0  0
  153.4268  142.2871  161.8283 F   0  0  0  0  0  0  0  0  0  0  0  0
  152.0639  142.1073  159.8709 C   0  0  0  0  0  0  0  0  0  0  0  0
  148.7167  138.7674  159.3950 H   0  0  0  0  0  0  0  0  0  0  0  0
  152.8629  139.9525  160.0084 H   0  0  0  0  0  0  0  0  0  0  0  0
  153.3464  139.0851  158.5428 H   0  0  0  0  0  0  0  0  0  0  0  0
  153.6862  138.3934  160.1325 H   0  0  0  0  0  0  0  0  0  0  0  0
  150.9197  139.6836  158.2933 H   0  0  0  0  0  0  0  0  0  0  0  0
  148.0689  136.5718  158.5582 H   0  0  0  0  0  0  0  0  0  0  0  0
  149.5036  136.4633  159.5685 H   0  0  0  0  0  0  0  0  0  0  0  0
  149.6441  136.3400  157.8183 H   0  0  0  0  0  0  0  0  0  0  0  0
  147.2803  138.0528  153.6205 H   0  0  0  0  0  0  0  0  0  0  0  0
  146.8211  140.0377  152.1987 H   0  0  0  0  0  0  0  0  0  0  0  0
  147.2617  142.3282  153.0602 H   0  0  0  0  0  0  0  0  0  0  0  0
  148.1643  142.6437  155.3591 H   0  0  0  0  0  0  0  0  0  0  0  0
  148.4698  142.2752  157.8746 H   0  0  0  0  0  0  0  0  0  0  0  0
  148.9880  141.0723  159.0054 H   0  0  0  0  0  0  0  0  0  0  0  0
  151.2179  140.9535  157.7509 H   0  0  0  0  0  0  0  0  0  0  0  0
  150.1311  143.1794  156.4767 H   0  0  0  0  0  0  0  0  0  0  0  0
  149.9782  144.4589  158.5198 H   0  0  0  0  0  0  0  0  0  0  0  0
  150.8365  145.7599  160.4444 H   0  0  0  0  0  0  0  0  0  0  0  0
  152.4680  144.7354  162.0186 H   0  0  0  0  0  0  0  0  0  0  0  0
  152.4047  141.0930  159.7232 H   0  0  0  0  0  0  0  0  0  0  0  0
  1  2  1  0  0  0  0
  1 27  1  0  0  0  0
  1 28  1  0  0  0  0
  1 29  1  0  0  0  0
  2  3  2  0  0  0  0
  2  4  1  0  0  0  0
  4  5  1  0  0  0  0
  4 30  1  0  0  0  0
  5 26  1  0  0  0  0
  5  6  1  0  0  0  0
  5  7  1  0  0  0  0
  6 31  1  0  0  0  0
  6 32  1  0  0  0  0
  6 33  1  0  0  0  0
  7 15  1  0  0  0  0
  7  8  2  0  0  0  0
  8  9  1  0  0  0  0
  9 14  2  0  0  0  0
  9 10  1  0  0  0  0
 10 11  2  0  0  0  0
 10 34  1  0  0  0  0
 11 12  1  0  0  0  0
 11 35  1  0  0  0  0
 12 13  2  0  0  0  0
 12 36  1  0  0  0  0
 13 14  1  0  0  0  0
 13 37  1  0  0  0  0
 14 15  1  0  0  0  0
 15 16  1  0  0  0  0
 16 17  1  0  0  0  0
 16 38  1  0  0  0  0
 16 39  1  0  0  0  0
 17 18  1  0  0  0  0
 17 19  1  0  0  0  0
 17 40  1  0  0  0  0
 18 41  1  0  0  0  0
 19 25  1  0  0  0  0
 19 20  2  0  0  0  0
 20 21  1  0  0  0  0
 20 42  1  0  0  0  0
 21 22  2  0  0  0  0
 21 43  1  0  0  0  0
 22 23  1  0  0  0  0
 22 44  1  0  0  0  0
 23 24  1  0  0  0  0
 23 25  2  0  0  0  0
 25 45  1  0  0  0  0
M  END
> <s_m_source_file>
AV-unprocessed.smi

> <i_m_source_file_index>
1667

> <i_lp_mmshare_version>
43012

> <i_f3d_flags>
0

> <s_epik_input>
W0NIM11DKD1PKVtOSF1bQ0BASF0oW0NIM10pYyhuMSluKGMoYzEyKVtjSF1bY0hdW2NIXVtjSF0yKVtDSDJdW0NASF0oW09IXSljM1tjSF1bY0hdW2NIXWMoRilbY0hdMw==

> <s_epik_cmdline>
J2VwaWtfcHl0aG9uJywgJy1waCcsICc3LjAnLCAnLXRuJywgJzgnLCAnLW1hJywgJzIwMCcsICctbWV0YWxfYmluZGluZycsICctaW1hZScsICc8aW5maWxlLm1hZT4nLCAnLW9tYWUnLCAnPG91dGZpbGUubWFlPic=

> <r_epik_Ionization_Penalty>
0.133011

> <r_epik_Ionization_Penalty_Charging>
0

> <r_epik_Ionization_Penalty_Neutral>
0.133011

> <r_epik_State_Penalty>
0.122384

> <r_epik_Charging_Adjusted_Penalty>
0.122384

> <i_epik_Tot_Q>
0

> <i_epik_Tot_abs_Q>
0

> <r_epik_Metal_State_Penalty>
0.0997374

> <b_epik_Metal_Only>
0

> <s_lp_Force_Field>
OPLS_2005

> <r_lp_Energy>
8.29393

> <b_lp_Chiralities_Consistent>
1

> <s_lp_Variant>
AV-unprocessed.smi:1667-4

> <Gold.Version>
5.8.1

> <Gold.Id.Protein>
6NUR|6NUR_protein|mol2

> <Gold.PLP.Fitness>
48.1605

> <Gold.PLP.PLP>
-43.9328

> <Gold.PLP.part.hbond>
-1.9900

> <Gold.PLP.part.metal>
0.0000

> <Gold.PLP.part.buried>
-7.7237

> <Gold.PLP.part.nonpolar>
-33.9932

> <Gold.PLP.part.repulsive>
0.1396

> <Gold.PLP.ligand.clash>
0.0000

> <Gold.PLP.ligand.torsion>
0.9908

> <Gold.PLP.Chemscore.Hbond>
2.0000

> <Gold.PLP.Chemscore.CHOScore>
0.0000

> <Gold.PLP.Chemscore.Metal>
0.0000

> <Gold.Chemscore.Hbonds>
donor molecule, donor type, donor heavy atom, donor atom, acceptor molecule, acceptor atom, score
      L1  H    18    41       P1  8028  0.73
      P1  H  6896  6907       L1     3  0.93

> <Gold.PLP.Chemscore.Internal.Correction>
0.2093

> <Gold.Rescore>
     Score         DG    S(hbond)    S(metal)    S(lipo)     H(rot)  DE(clash)    DE(int)     intcor
     16.58     -18.90       1.94        0.00     113.37       2.48       0.07       2.24       ----

> <Gold.Chemscore.Fitness>
16.5846

> <Gold.Chemscore.DG>
-18.8988

> <Gold.Chemscore.ZeroCoef>
-5.4800

> <Gold.Chemscore.Hbond>
1.9439

> <Gold.Chemscore.Metal>
0.0000

> <Gold.Chemscore.Lipo>
113.3732

> <Gold.Chemscore.Internal_Hbond>
0.0000

> <Gold.Chemscore.DEClash>
0.0721

> <Gold.Chemscore.DEInternal>
2.2421

> <Gold.Chemscore.Rot>
2.4760

> <Gold.Chemscore.Internal.Correction>
   9.000000E+99

> <Gold.Chemscore.Hbonds>
donor molecule, donor type, donor heavy atom, donor atom, acceptor molecule, acceptor atom, score
      L1  H    18    41       P1  8028  0.73
      P1  H  6896  6907       L1     3  0.89

> <Gold.Chemscore.Hbond.Weighted>
-6.4927

> <Gold.Chemscore.Metal.Weighted>
-0.0000

> <Gold.Chemscore.Lipo.Weighted>
-13.2647

> <Gold.Chemscore.Internal_Hbond.Weighted>
0.0000

> <Gold.Chemscore.DEClash.Weighted>
0.0721

> <Gold.Chemscore.DEInternal.Weighted>
2.2421

> <Gold.Chemscore.Rot.Weighted>
6.3385

> <Gold.Chemscore.Internal.Correction.Weighted>
   9.000000E+99

> <Gold.Protein.RotatedTorsions>
[ 6907 6896 6895 6894 ] final   -1.52 input  -60.11 | X-H torsion
[ 7974 7965 7964 7962 ] final   48.36 input  175.53 | X-H torsion
[ 8008 7997 7996 7995 ] final -142.51 input   59.86 | X-H torsion
[ 10167 10162 10161 10158 ] final  117.94 input  -65.29 | X-H torsion
[ 10718 10713 10712 10709 ] final -155.97 input   66.30 | X-H torsion
[ 10763 10752 10751 10750 ] final  160.32 input  -60.55 | X-H torsion
[ 11005 11000 10999 10996 ] final  -52.35 input  -57.11 | X-H torsion

> <Gold.Protein.ActiveResidues>
 VAL166  LYS551  ARG553  GLY616  TRP617  ASP618  TYR619  PRO620  LYS621  CYS622 
 ASP623  PHE694  ASN695  SER759  ASP760  ASP761  ALA762  ILE779  LEU786  VAL792 
 PHE793  MET794  SER795  GLU796  ALA797  LYS798  CYS799  TRP800  GLU811  SER814 

> <Gold.Protein.RotatedAtoms>
  151.5447  135.1068  159.9934 H   0  0  0  0  0  0  0  0  0  0  0  0  # atno 6907 bound_to 6896
  152.4519  133.7642  159.6774 H   0  0  0  0  0  0  0  0  0  0  0  0  # atno 6908 bound_to 6896
  150.8450  133.7809  159.3071 H   0  0  0  0  0  0  0  0  0  0  0  0  # atno 6909 bound_to 6896
  146.0211  139.4652  142.9896 H   0  0  0  0  0  0  0  0  0  0  0  0  # atno 7974 bound_to 7965
  155.4954  140.0571  157.2947 H   0  0  0  0  0  0  0  0  0  0  0  0  # atno 8008 bound_to 7997
  154.4607  140.1995  156.0203 H   0  0  0  0  0  0  0  0  0  0  0  0  # atno 8009 bound_to 7997
  156.0885  140.3237  155.7789 H   0  0  0  0  0  0  0  0  0  0  0  0  # atno 8010 bound_to 7997
  139.6144  144.7089  151.2771 H   0  0  0  0  0  0  0  0  0  0  0  0  # atno 10167 bound_to 10162
  156.5202  130.8474  151.2679 H   0  0  0  0  0  0  0  0  0  0  0  0  # atno 10718 bound_to 10713
  154.2455  135.2773  155.2837 H   0  0  0  0  0  0  0  0  0  0  0  0  # atno 10763 bound_to 10752
  154.5509  135.5675  153.6924 H   0  0  0  0  0  0  0  0  0  0  0  0  # atno 10764 bound_to 10752
  152.9991  135.6274  154.2601 H   0  0  0  0  0  0  0  0  0  0  0  0  # atno 10765 bound_to 10752
  141.0919  133.6631  156.4011 H   0  0  0  0  0  0  0  0  0  0  0  0  # atno 11005 bound_to 11000
  145.7191  141.0081  143.1412 LP  0  0  0  0  0  0  0  0  0  0  0  0  # atno 17320 bound_to 7965
  144.6990  139.8849  143.7449 LP  0  0  0  0  0  0  0  0  0  0  0  0  # atno 17321 bound_to 7965
  140.7341  143.6775  150.8029 LP  0  0  0  0  0  0  0  0  0  0  0  0  # atno 17342 bound_to 10162
  140.0375  143.5380  152.2732 LP  0  0  0  0  0  0  0  0  0  0  0  0  # atno 17343 bound_to 10162
  157.7438  130.9920  150.2620 LP  0  0  0  0  0  0  0  0  0  0  0  0  # atno 17370 bound_to 10713
  156.3157  130.3778  149.7621 LP  0  0  0  0  0  0  0  0  0  0  0  0  # atno 17371 bound_to 10713
  140.5231  134.6285  157.5325 LP  0  0  0  0  0  0  0  0  0  0  0  0  # atno 17394 bound_to 11000
  139.9747  134.7234  155.9972 LP  0  0  0  0  0  0  0  0  0  0  0  0  # atno 17395 bound_to 11000

$$$$
