AV-unprocessed.smi:3001|AV-procd|sdf|11431|dock1
  -GOLD-   2272016353D 1   1.00000     0.00000
 Structure written by MMmdl.
 41 42  0  0  0  0  0  0  0  0  1 V2000
  140.5267  141.0960  154.4163 C   0  0  0  0  0  0  0  0  0  0  0  0
  141.5535  141.2348  155.0623 C   0  0  0  0  0  0  0  0  0  0  0  0
  142.7878  141.4156  155.8411 C   0  0  0  0  0  0  0  0  0  0  0  0
  143.9511  141.5510  154.9791 N   0  0  0  0  0  0  0  0  0  0  0  0
  144.9612  142.4125  155.1832 C   0  0  0  0  0  0  0  0  0  0  0  0
  144.9977  143.1758  156.1475 O   0  0  0  0  0  0  0  0  0  0  0  0
  146.1139  142.4366  154.1655 C   0  0  0  0  0  0  0  0  0  0  0  0
  147.4440  142.2701  154.7518 N   0  0  0  0  0  0  0  0  0  0  0  0
  148.2679  141.2384  154.5180 C   0  0  0  0  0  0  0  0  0  0  0  0
  148.0213  140.3336  153.7204 O   0  0  0  0  0  0  0  0  0  0  0  0
  149.3637  141.3077  155.2903 N   0  0  0  0  0  0  0  0  0  0  0  0
  150.3660  140.3118  155.4411 C   0  0  0  0  0  0  0  0  0  0  0  0
  150.3668  139.1516  154.6303 C   0  0  0  0  0  0  0  0  0  0  0  0
  151.4143  138.2231  154.7589 C   0  0  0  0  0  0  0  0  0  0  0  0
  152.4347  138.4974  155.6850 C   0  0  0  0  0  0  0  0  0  0  0  0
  152.4529  139.6036  156.4560 N   0  0  0  0  0  0  0  0  0  0  0  0
  151.4412  140.5010  156.3553 C   0  0  0  0  0  0  0  0  0  0  0  0
  151.4974  141.6286  157.2070 N   0  0  0  0  0  0  0  0  0  0  0  0
  151.8861  142.9335  156.6822 C   0  0  0  0  0  0  0  0  0  0  0  0
  152.2130  143.7740  157.9132 C   0  0  0  0  0  0  0  0  0  0  0  0
  152.8369  142.7464  158.8520 C   0  0  0  0  0  0  0  0  0  0  0  0
  152.0711  141.4567  158.5391 C   0  0  0  0  0  0  0  0  0  0  0  0
  139.6275  140.9804  153.8534 H   0  0  0  0  0  0  0  0  0  0  0  0
  142.6737  142.3055  156.4615 H   0  0  0  0  0  0  0  0  0  0  0  0
  142.9051  140.5566  156.5029 H   0  0  0  0  0  0  0  0  0  0  0  0
  143.9885  140.9592  154.1621 H   0  0  0  0  0  0  0  0  0  0  0  0
  145.9370  141.6729  153.4062 H   0  0  0  0  0  0  0  0  0  0  0  0
  146.0925  143.3957  153.6477 H   0  0  0  0  0  0  0  0  0  0  0  0
  147.7347  142.9689  155.4198 H   0  0  0  0  0  0  0  0  0  0  0  0
  149.3907  142.0592  155.9640 H   0  0  0  0  0  0  0  0  0  0  0  0
  149.5903  138.9749  153.9009 H   0  0  0  0  0  0  0  0  0  0  0  0
  151.4408  137.3293  154.1533 H   0  0  0  0  0  0  0  0  0  0  0  0
  153.2611  137.8131  155.8077 H   0  0  0  0  0  0  0  0  0  0  0  0
  152.7743  142.8498  156.0549 H   0  0  0  0  0  0  0  0  0  0  0  0
  151.0866  143.3775  156.0886 H   0  0  0  0  0  0  0  0  0  0  0  0
  152.8760  144.6110  157.6931 H   0  0  0  0  0  0  0  0  0  0  0  0
  151.2957  144.1706  158.3507 H   0  0  0  0  0  0  0  0  0  0  0  0
  153.8912  142.6162  158.6035 H   0  0  0  0  0  0  0  0  0  0  0  0
  152.7724  143.0325  159.9021 H   0  0  0  0  0  0  0  0  0  0  0  0
  151.2609  141.3243  159.2565 H   0  0  0  0  0  0  0  0  0  0  0  0
  152.7219  140.5831  158.5988 H   0  0  0  0  0  0  0  0  0  0  0  0
  1  2  3  0  0  0  0
  1 23  1  0  0  0  0
  2  3  1  0  0  0  0
  3  4  1  0  0  0  0
  3 24  1  0  0  0  0
  3 25  1  0  0  0  0
  4  5  1  0  0  0  0
  4 26  1  0  0  0  0
  5  6  2  0  0  0  0
  5  7  1  0  0  0  0
  7  8  1  0  0  0  0
  7 27  1  0  0  0  0
  7 28  1  0  0  0  0
  8  9  1  0  0  0  0
  8 29  1  0  0  0  0
  9 10  2  0  0  0  0
  9 11  1  0  0  0  0
 11 12  1  0  0  0  0
 11 30  1  0  0  0  0
 12 17  1  0  0  0  0
 12 13  2  0  0  0  0
 13 14  1  0  0  0  0
 13 31  1  0  0  0  0
 14 15  2  0  0  0  0
 14 32  1  0  0  0  0
 15 16  1  0  0  0  0
 15 33  1  0  0  0  0
 16 17  2  0  0  0  0
 17 18  1  0  0  0  0
 18 22  1  0  0  0  0
 18 19  1  0  0  0  0
 19 20  1  0  0  0  0
 19 34  1  0  0  0  0
 19 35  1  0  0  0  0
 20 21  1  0  0  0  0
 20 36  1  0  0  0  0
 20 37  1  0  0  0  0
 21 22  1  0  0  0  0
 21 38  1  0  0  0  0
 21 39  1  0  0  0  0
 22 40  1  0  0  0  0
 22 41  1  0  0  0  0
M  END
> <s_m_source_file>
AV-unprocessed.smi

> <i_m_source_file_index>
3001

> <i_lp_mmshare_version>
43012

> <i_f3d_flags>
0

> <s_epik_input>
W0NIXSNDW0NIMl1bTkhdQyg9TylbQ0gyXVtOSF1DKD1PKVtOSF1jMVtjSF1bY0hdW2NIXW5jMU4yW0NIMl1bQ0gyXVtDSDJdW0NIMl0y

> <s_epik_cmdline>
J2VwaWtfcHl0aG9uJywgJy1waCcsICc3LjAnLCAnLXRuJywgJzgnLCAnLW1hJywgJzIwMCcsICctbWV0YWxfYmluZGluZycsICctaW1hZScsICc8aW5maWxlLm1hZT4nLCAnLW9tYWUnLCAnPG91dGZpbGUubWFlPic=

> <r_lp_tautomer_probability>
1

> <r_epik_Ionization_Penalty>
0.243831

> <r_epik_Ionization_Penalty_Charging>
0

> <r_epik_Ionization_Penalty_Neutral>
0.243831

> <r_epik_State_Penalty>
0.234327

> <r_epik_Charging_Adjusted_Penalty>
0.234327

> <i_epik_Tot_Q>
0

> <i_epik_Tot_abs_Q>
0

> <r_epik_Metal_State_Penalty>
0.165313

> <b_epik_Metal_Only>
0

> <s_lp_Force_Field>
OPLS_2005

> <r_lp_Energy>
26.7815

> <b_lp_Chiralities_Consistent>
1

> <s_lp_Variant>
AV-unprocessed.smi:3001-1

> <Gold.Version>
5.8.1

> <Gold.Id.Protein>
6NUR|6NUR_protein|mol2

> <Gold.PLP.Fitness>
47.9534

> <Gold.PLP.PLP>
-41.4039

> <Gold.PLP.part.hbond>
-4.6425

> <Gold.PLP.part.metal>
0.0000

> <Gold.PLP.part.buried>
-4.4434

> <Gold.PLP.part.nonpolar>
-32.8026

> <Gold.PLP.part.repulsive>
1.2757

> <Gold.PLP.ligand.clash>
0.0000

> <Gold.PLP.ligand.torsion>
0.7177

> <Gold.PLP.Chemscore.Hbond>
2.5288

> <Gold.PLP.Chemscore.CHOScore>
0.0000

> <Gold.PLP.Chemscore.Metal>
0.0000

> <Gold.Chemscore.Hbonds>
donor molecule, donor type, donor heavy atom, donor atom, acceptor molecule, acceptor atom, score
      L1  H     4    26       P1 10175  1.00
      L1  H     8    29       P1  8028  0.76
      P1  H  7997  8009       L1    16  1.00

> <Gold.PLP.Chemscore.Internal.Correction>
0.3985

> <Gold.Rescore>
     Score         DG    S(hbond)    S(metal)    S(lipo)     H(rot)  DE(clash)    DE(int)     intcor
     12.50     -16.53       1.70        0.00      85.79       1.82       1.86       2.17       ----

> <Gold.Chemscore.Fitness>
12.4980

> <Gold.Chemscore.DG>
-16.5299

> <Gold.Chemscore.ZeroCoef>
-5.4800

> <Gold.Chemscore.Hbond>
1.7011

> <Gold.Chemscore.Metal>
0.0000

> <Gold.Chemscore.Lipo>
85.7852

> <Gold.Chemscore.Internal_Hbond>
0.0000

> <Gold.Chemscore.DEClash>
1.8641

> <Gold.Chemscore.DEInternal>
2.1679

> <Gold.Chemscore.Rot>
1.8236

> <Gold.Chemscore.Internal.Correction>
   9.000000E+99

> <Gold.Chemscore.Hbonds>
donor molecule, donor type, donor heavy atom, donor atom, acceptor molecule, acceptor atom, score
      L1  H     4    26       P1 10175  0.86
      L1  H     8    29       P1  8028  0.45
      P1  H  7997  8009       L1    16  0.39

> <Gold.Chemscore.Hbond.Weighted>
-5.6816

> <Gold.Chemscore.Metal.Weighted>
-0.0000

> <Gold.Chemscore.Lipo.Weighted>
-10.0369

> <Gold.Chemscore.Internal_Hbond.Weighted>
0.0000

> <Gold.Chemscore.DEClash.Weighted>
1.8641

> <Gold.Chemscore.DEInternal.Weighted>
2.1679

> <Gold.Chemscore.Rot.Weighted>
4.6685

> <Gold.Chemscore.Internal.Correction.Weighted>
   9.000000E+99

> <Gold.Protein.RotatedTorsions>
[ 6907 6896 6895 6894 ] final   22.78 input  -60.11 | X-H torsion
[ 7974 7965 7964 7962 ] final -101.32 input  175.53 | X-H torsion
[ 8008 7997 7996 7995 ] final -171.48 input   59.86 | X-H torsion
[ 10167 10162 10161 10158 ] final  127.95 input  -65.29 | X-H torsion
[ 10718 10713 10712 10709 ] final  140.67 input   66.30 | X-H torsion
[ 10763 10752 10751 10750 ] final  -38.66 input  -60.55 | X-H torsion
[ 11005 11000 10999 10996 ] final  -11.21 input  -57.11 | X-H torsion

> <Gold.Protein.ActiveResidues>
 VAL166  LYS551  ARG553  GLY616  TRP617  ASP618  TYR619  PRO620  LYS621  CYS622 
 ASP623  PHE694  ASN695  SER759  ASP760  ASP761  ALA762  ILE779  LEU786  VAL792 
 PHE793  MET794  SER795  GLU796  ALA797  LYS798  CYS799  TRP800  GLU811  SER814 

> <Gold.Protein.RotatedAtoms>
  151.9323  135.0251  160.0529 H   0  0  0  0  0  0  0  0  0  0  0  0  # atno 6907 bound_to 6896
  152.2107  133.4905  159.5117 H   0  0  0  0  0  0  0  0  0  0  0  0  # atno 6908 bound_to 6896
  150.6975  134.1387  159.4139 H   0  0  0  0  0  0  0  0  0  0  0  0  # atno 6909 bound_to 6896
  145.2832  140.9332  143.2920 H   0  0  0  0  0  0  0  0  0  0  0  0  # atno 7974 bound_to 7965
  155.9321  140.1093  157.1124 H   0  0  0  0  0  0  0  0  0  0  0  0  # atno 8008 bound_to 7997
  154.4073  140.1235  156.4882 H   0  0  0  0  0  0  0  0  0  0  0  0  # atno 8009 bound_to 7997
  155.7067  140.3471  155.4958 H   0  0  0  0  0  0  0  0  0  0  0  0  # atno 8010 bound_to 7997
  139.5552  144.6843  151.4204 H   0  0  0  0  0  0  0  0  0  0  0  0  # atno 10167 bound_to 10162
  157.4006  131.1016  151.0555 H   0  0  0  0  0  0  0  0  0  0  0  0  # atno 10718 bound_to 10713
  153.9165  135.6787  153.4749 H   0  0  0  0  0  0  0  0  0  0  0  0  # atno 10763 bound_to 10752
  153.1051  135.4809  154.8933 H   0  0  0  0  0  0  0  0  0  0  0  0  # atno 10764 bound_to 10752
  154.7500  135.3182  154.8531 H   0  0  0  0  0  0  0  0  0  0  0  0  # atno 10765 bound_to 10752
  140.7528  133.8578  155.9059 H   0  0  0  0  0  0  0  0  0  0  0  0  # atno 11005 bound_to 11000
  144.9235  139.4383  143.6529 LP  0  0  0  0  0  0  0  0  0  0  0  0  # atno 17320 bound_to 7965
  146.3209  139.8109  142.8946 LP  0  0  0  0  0  0  0  0  0  0  0  0  # atno 17321 bound_to 7965
  140.6823  143.8053  150.7138 LP  0  0  0  0  0  0  0  0  0  0  0  0  # atno 17342 bound_to 10162
  140.1511  143.4357  152.2131 LP  0  0  0  0  0  0  0  0  0  0  0  0  # atno 17343 bound_to 10162
  157.1555  130.6203  149.5595 LP  0  0  0  0  0  0  0  0  0  0  0  0  # atno 17370 bound_to 10713
  155.9822  130.4834  150.6870 LP  0  0  0  0  0  0  0  0  0  0  0  0  # atno 17371 bound_to 10713
  140.9735  134.1500  157.4556 LP  0  0  0  0  0  0  0  0  0  0  0  0  # atno 17394 bound_to 11000
  139.8784  134.9986  156.5911 LP  0  0  0  0  0  0  0  0  0  0  0  0  # atno 17395 bound_to 11000

$$$$
