AV-unprocessed.smi:910|AV-procd|sdf|4122|dock8
  -GOLD-   22720 2 23D 1   1.00000     0.00000
 Structure written by MMmdl.
 46 47  0  0  0  0  0  0  0  0  1 V2000
  145.7417  132.1035  149.5767 C   0  0  0  0  0  0  0  0  0  0  0  0
  146.1817  132.7336  150.8798 C   0  0  0  0  0  0  0  0  0  0  0  0
  147.4252  132.5144  151.4079 N   0  0  0  0  0  0  0  0  0  0  0  0
  147.5189  133.2161  152.5995 C   0  0  0  0  0  0  0  0  0  0  0  0
  148.5319  133.2826  153.4063 N   0  0  0  0  0  0  0  0  0  0  0  0
  148.4008  134.0392  154.5587 C   0  0  0  0  0  0  0  0  0  0  0  0
  147.8371  133.7176  155.6096 O   0  0  0  0  0  0  0  0  0  0  0  0
  148.9333  135.2580  154.3822 N   0  0  0  0  0  0  0  0  0  0  0  0
  148.8918  136.3502  155.3493 C   0  0  0  0  0  0  0  0  0  0  0  0
  150.0377  137.3438  155.1131 C   0  0  0  0  0  0  0  0  0  0  0  0
  149.5948  138.6525  155.4374 O   0  0  0  0  0  0  0  0  0  0  0  0
  150.4247  139.6989  154.9484 C   0  0  2  0  0  0  0  0  0  0  0  0
  151.7552  139.6391  155.7218 C   0  0  0  0  0  0  0  0  0  0  0  0
  151.5702  139.9703  157.2125 C   0  0  0  0  0  0  0  0  0  0  0  0
  150.8822  141.3304  157.3998 C   0  0  0  0  0  0  0  0  0  0  0  0
  149.5460  141.3831  156.6445 C   0  0  0  0  0  0  0  0  0  0  0  0
  149.7252  141.0651  155.1475 C   0  0  2  0  0  0  0  0  0  0  0  0
  148.3943  141.1700  154.3872 C   0  0  0  0  0  0  0  0  0  0  0  0
  146.3129  133.8569  152.7690 O   0  0  0  0  0  0  0  0  0  0  0  0
  145.5226  133.5424  151.7061 C   0  0  0  0  0  0  0  0  0  0  0  0
  144.1228  134.1115  151.6482 C   0  0  0  0  0  0  0  0  0  0  0  0
  144.8537  131.4915  149.7353 H   0  0  0  0  0  0  0  0  0  0  0  0
  146.5270  131.4702  149.1635 H   0  0  0  0  0  0  0  0  0  0  0  0
  145.5026  132.8762  148.8461 H   0  0  0  0  0  0  0  0  0  0  0  0
  148.1222  131.9299  150.9706 H   0  0  0  0  0  0  0  0  0  0  0  0
  149.3690  135.4554  153.4930 H   0  0  0  0  0  0  0  0  0  0  0  0
  147.9270  136.8599  155.3305 H   0  0  0  0  0  0  0  0  0  0  0  0
  148.9904  135.9133  156.3430 H   0  0  0  0  0  0  0  0  0  0  0  0
  150.8899  137.0889  155.7441 H   0  0  0  0  0  0  0  0  0  0  0  0
  150.3722  137.2872  154.0765 H   0  0  0  0  0  0  0  0  0  0  0  0
  150.6451  139.5561  153.8885 H   0  0  0  0  0  0  0  0  0  0  0  0
  152.2047  138.6516  155.6136 H   0  0  0  0  0  0  0  0  0  0  0  0
  152.4597  140.3461  155.2820 H   0  0  0  0  0  0  0  0  0  0  0  0
  150.9741  139.1920  157.6910 H   0  0  0  0  0  0  0  0  0  0  0  0
  152.5373  139.9706  157.7159 H   0  0  0  0  0  0  0  0  0  0  0  0
  150.7160  141.5200  158.4608 H   0  0  0  0  0  0  0  0  0  0  0  0
  151.5375  142.1253  157.0418 H   0  0  0  0  0  0  0  0  0  0  0  0
  148.8529  140.6705  157.0907 H   0  0  0  0  0  0  0  0  0  0  0  0
  149.0963  142.3690  156.7654 H   0  0  0  0  0  0  0  0  0  0  0  0
  150.3848  141.8276  154.7304 H   0  0  0  0  0  0  0  0  0  0  0  0
  147.6548  140.4710  154.7781 H   0  0  0  0  0  0  0  0  0  0  0  0
  148.5293  140.9585  153.3263 H   0  0  0  0  0  0  0  0  0  0  0  0
  147.9740  142.1723  154.4720 H   0  0  0  0  0  0  0  0  0  0  0  0
  143.7562  134.1303  150.6218 H   0  0  0  0  0  0  0  0  0  0  0  0
  144.1086  135.1288  152.0379 H   0  0  0  0  0  0  0  0  0  0  0  0
  143.4454  133.5032  152.2475 H   0  0  0  0  0  0  0  0  0  0  0  0
  1 22  1  0  0  0  0
  1 23  1  0  0  0  0
  1 24  1  0  0  0  0
  1  2  1  0  0  0  0
  2  3  1  0  0  0  0
  2 20  2  0  0  0  0
  3 25  1  0  0  0  0
  3  4  1  0  0  0  0
  4 19  1  0  0  0  0
  4  5  2  0  0  0  0
  5  6  1  0  0  0  0
  6  8  1  0  0  0  0
  6  7  2  0  0  0  0
  8  9  1  0  0  0  0
  8 26  1  0  0  0  0
  9 10  1  0  0  0  0
  9 27  1  0  0  0  0
  9 28  1  0  0  0  0
 10 11  1  0  0  0  0
 10 29  1  0  0  0  0
 10 30  1  0  0  0  0
 11 12  1  0  0  0  0
 12 17  1  0  0  0  0
 12 13  1  0  0  0  0
 12 31  1  0  0  0  0
 13 14  1  0  0  0  0
 13 32  1  0  0  0  0
 13 33  1  0  0  0  0
 14 15  1  0  0  0  0
 14 34  1  0  0  0  0
 14 35  1  0  0  0  0
 15 16  1  0  0  0  0
 15 36  1  0  0  0  0
 15 37  1  0  0  0  0
 16 17  1  0  0  0  0
 16 38  1  0  0  0  0
 16 39  1  0  0  0  0
 17 18  1  0  0  0  0
 17 40  1  0  0  0  0
 18 41  1  0  0  0  0
 18 42  1  0  0  0  0
 18 43  1  0  0  0  0
 19 20  1  0  0  0  0
 20 21  1  0  0  0  0
 21 44  1  0  0  0  0
 21 45  1  0  0  0  0
 21 46  1  0  0  0  0
M  END
> <s_m_source_file>
AV-unprocessed.smi

> <i_m_source_file_index>
910

> <i_lp_mmshare_version>
43012

> <i_f3d_flags>
0

> <s_epik_input>
W0NIM11jMW5jKG9jMVtDSDNdKVtOSF1DKD1PKVtOSF1bQ0gyXVtDSDJdT1tDQEBIXTJbQ0gyXVtDSDJdW0NIMl1bQ0gyXVtDQEhdMltDSDNd

> <s_epik_cmdline>
J2VwaWtfcHl0aG9uJywgJy1waCcsICc3LjAnLCAnLXRuJywgJzgnLCAnLW1hJywgJzIwMCcsICctbWV0YWxfYmluZGluZycsICctaW1hZScsICc8aW5maWxlLm1hZT4nLCAnLW9tYWUnLCAnPG91dGZpbGUubWFlPic=

> <r_lp_tautomer_probability>
0.107061

> <r_epik_Ionization_Penalty>
0.727192

> <r_epik_Ionization_Penalty_Charging>
0.726719

> <r_epik_Ionization_Penalty_Neutral>
0.000473387

> <r_epik_State_Penalty>
2.53712

> <r_epik_Charging_Adjusted_Penalty>
3.26383

> <i_epik_Tot_Q>
0

> <i_epik_Tot_abs_Q>
0

> <r_epik_Metal_State_Penalty>
3.71015

> <b_epik_Metal_Only>
0

> <s_lp_Force_Field>
OPLS_2005

> <r_lp_Energy>
29.3715

> <b_lp_Chiralities_Consistent>
1

> <s_lp_Variant>
AV-unprocessed.smi:910-7

> <Gold.Version>
5.8.1

> <Gold.Id.Protein>
6NUR|6NUR_protein|mol2

> <Gold.PLP.Fitness>
39.0198

> <Gold.PLP.PLP>
-35.9127

> <Gold.PLP.part.hbond>
-2.0000

> <Gold.PLP.part.metal>
0.0000

> <Gold.PLP.part.buried>
-4.8198

> <Gold.PLP.part.nonpolar>
-30.1965

> <Gold.PLP.part.repulsive>
0.4312

> <Gold.PLP.ligand.clash>
0.0000

> <Gold.PLP.ligand.torsion>
1.2232

> <Gold.PLP.Chemscore.Hbond>
1.8320

> <Gold.PLP.Chemscore.CHOScore>
0.0000

> <Gold.PLP.Chemscore.Metal>
0.0000

> <Gold.Chemscore.Hbonds>
donor molecule, donor type, donor heavy atom, donor atom, acceptor molecule, acceptor atom, score
      L1  H     3    25       P1 10747  1.00
      L1  H     8    26       P1  7948  0.79

> <Gold.PLP.Chemscore.Internal.Correction>
0.0575

> <Gold.Rescore>
     Score         DG    S(hbond)    S(metal)    S(lipo)     H(rot)  DE(clash)    DE(int)     intcor
     15.78     -16.97       1.88        0.00      80.77       1.66       0.00       1.18       ----

> <Gold.Chemscore.Fitness>
15.7814

> <Gold.Chemscore.DG>
-16.9659

> <Gold.Chemscore.ZeroCoef>
-5.4800

> <Gold.Chemscore.Hbond>
1.8800

> <Gold.Chemscore.Metal>
0.0000

> <Gold.Chemscore.Lipo>
80.7714

> <Gold.Chemscore.Internal_Hbond>
0.0000

> <Gold.Chemscore.DEClash>
0.0048

> <Gold.Chemscore.DEInternal>
1.1797

> <Gold.Chemscore.Rot>
1.6576

> <Gold.Chemscore.Internal.Correction>
   9.000000E+99

> <Gold.Chemscore.Hbonds>
donor molecule, donor type, donor heavy atom, donor atom, acceptor molecule, acceptor atom, score
      L1  H     3    25       P1 10747  0.93
      L1  H     8    26       P1  7948  0.18

> <Gold.Chemscore.Hbond.Weighted>
-6.2792

> <Gold.Chemscore.Metal.Weighted>
-0.0000

> <Gold.Chemscore.Lipo.Weighted>
-9.4503

> <Gold.Chemscore.Internal_Hbond.Weighted>
0.0000

> <Gold.Chemscore.DEClash.Weighted>
0.0048

> <Gold.Chemscore.DEInternal.Weighted>
1.1797

> <Gold.Chemscore.Rot.Weighted>
4.2436

> <Gold.Chemscore.Internal.Correction.Weighted>
   9.000000E+99

> <Gold.Protein.RotatedTorsions>
[ 6907 6896 6895 6894 ] final   20.27 input  -60.11 | X-H torsion
[ 7974 7965 7964 7962 ] final -174.21 input  175.53 | X-H torsion
[ 8008 7997 7996 7995 ] final  143.69 input   59.86 | X-H torsion
[ 10167 10162 10161 10158 ] final -175.60 input  -65.29 | X-H torsion
[ 10718 10713 10712 10709 ] final    6.13 input   66.30 | X-H torsion
[ 10763 10752 10751 10750 ] final  146.42 input  -60.55 | X-H torsion
[ 11005 11000 10999 10996 ] final -115.28 input  -57.11 | X-H torsion

> <Gold.Protein.ActiveResidues>
 VAL166  LYS551  ARG553  GLY616  TRP617  ASP618  TYR619  PRO620  LYS621  CYS622 
 ASP623  PHE694  ASN695  SER759  ASP760  ASP761  ALA762  ILE779  LEU786  VAL792 
 PHE793  MET794  SER795  GLU796  ALA797  LYS798  CYS799  TRP800  GLU811  SER814 

> <Gold.Protein.RotatedAtoms>
  151.8938  135.0406  160.0499 H   0  0  0  0  0  0  0  0  0  0  0  0  # atno 6907 bound_to 6896
  152.2414  133.5134  159.5280 H   0  0  0  0  0  0  0  0  0  0  0  0  # atno 6908 bound_to 6896
  150.7055  134.1000  159.4005 H   0  0  0  0  0  0  0  0  0  0  0  0  # atno 6909 bound_to 6896
  144.7133  140.1506  143.6384 H   0  0  0  0  0  0  0  0  0  0  0  0  # atno 7974 bound_to 7965
  156.2925  140.2255  156.4932 H   0  0  0  0  0  0  0  0  0  0  0  0  # atno 8008 bound_to 7997
  154.7753  140.0464  157.1105 H   0  0  0  0  0  0  0  0  0  0  0  0  # atno 8009 bound_to 7997
  154.9824  140.3080  155.4944 H   0  0  0  0  0  0  0  0  0  0  0  0  # atno 8010 bound_to 7997
  139.5572  144.1958  152.1180 H   0  0  0  0  0  0  0  0  0  0  0  0  # atno 10167 bound_to 10162
  156.9177  130.5779  149.5647 H   0  0  0  0  0  0  0  0  0  0  0  0  # atno 10718 bound_to 10713
  154.0216  135.2905  155.3380 H   0  0  0  0  0  0  0  0  0  0  0  0  # atno 10763 bound_to 10752
  154.7042  135.5176  153.8574 H   0  0  0  0  0  0  0  0  0  0  0  0  # atno 10764 bound_to 10752
  153.0678  135.6637  154.0438 H   0  0  0  0  0  0  0  0  0  0  0  0  # atno 10765 bound_to 10752
  141.0497  133.9706  157.2856 H   0  0  0  0  0  0  0  0  0  0  0  0  # atno 11005 bound_to 11000
  145.9120  139.2492  143.1432 LP  0  0  0  0  0  0  0  0  0  0  0  0  # atno 17320 bound_to 7965
  145.9707  140.8762  143.0164 LP  0  0  0  0  0  0  0  0  0  0  0  0  # atno 17321 bound_to 7965
  140.1465  144.5154  150.6713 LP  0  0  0  0  0  0  0  0  0  0  0  0  # atno 17342 bound_to 10162
  140.6847  143.2344  151.5291 LP  0  0  0  0  0  0  0  0  0  0  0  0  # atno 17343 bound_to 10162
  156.0506  130.5576  150.8980 LP  0  0  0  0  0  0  0  0  0  0  0  0  # atno 17370 bound_to 10713
  157.5927  131.0944  150.9091 LP  0  0  0  0  0  0  0  0  0  0  0  0  # atno 17371 bound_to 10713
  139.9341  135.0198  156.8497 LP  0  0  0  0  0  0  0  0  0  0  0  0  # atno 17394 bound_to 11000
  140.6078  134.0111  155.7564 LP  0  0  0  0  0  0  0  0  0  0  0  0  # atno 17395 bound_to 11000

$$$$
