AV-unprocessed.smi:1629|AV-procd|sdf|6522|dock4
  -GOLD-   22720 7193D 1   1.00000     0.00000
 Structure written by MMmdl.
 45 46  0  0  0  0  0  0  0  0  2 V2000
  153.3833  132.1235  162.4842 C   0  0  0  0  0  0  0  0  0  0  0  0
  154.3495  133.4503  163.3109 S   0  0  0  0  0  0  0  0  0  0  0  0
  153.4171  134.3997  163.9370 O   0  0  0  0  0  0  0  0  0  0  0  0
  155.4129  132.8189  164.1076 O   0  0  0  0  0  0  0  0  0  0  0  0
  155.0892  134.2532  161.9727 N   0  0  0  0  0  0  0  0  0  0  0  0
  154.2534  135.0165  161.0416 C   0  0  0  0  0  0  0  0  0  0  0  0
  155.0481  135.3884  159.7702 C   0  0  0  0  0  0  0  0  0  0  0  0
  154.2394  136.3417  158.8717 C   0  0  0  0  0  0  0  0  0  0  0  0
  153.8634  137.5335  159.6521 N   0  0  0  0  0  0  0  0  0  0  0  0
  154.4024  138.7732  159.5318 C   0  0  0  0  0  0  0  0  0  0  0  0
  155.4811  138.9909  158.9781 O   0  0  0  0  0  0  0  0  0  0  0  0
  153.6918  139.7548  160.1108 N   0  0  0  0  0  0  0  0  0  0  0  0
  154.0958  141.1533  160.1516 C   0  0  0  0  0  0  0  0  0  0  0  0
  153.1850  141.9544  161.0919 C   0  0  0  0  0  0  0  0  0  0  0  0
  152.5747  143.1617  160.4061 C   0  0  0  0  0  0  0  0  0  0  0  0
  152.9860  143.5833  159.1228 C   0  0  0  0  0  0  0  0  0  0  0  0
  152.3701  144.7089  158.5369 C   0  0  0  0  0  0  0  0  0  0  0  0
  151.3568  145.3880  159.2447 C   0  0  0  0  0  0  0  0  0  0  0  0
  150.9831  144.9223  160.5218 C   0  0  0  0  0  0  0  0  0  0  0  0
  151.5965  143.8399  161.0494 N   0  3  0  0  0  0  0  0  0  0  0  0
  152.9614  137.1833  160.7569 C   0  0  0  0  0  0  0  0  0  0  0  0
  153.7091  136.2741  161.7485 C   0  0  0  0  0  0  0  0  0  0  0  0
  152.8676  131.5278  163.2371 H   0  0  0  0  0  0  0  0  0  0  0  0
  154.0577  131.4828  161.9160 H   0  0  0  0  0  0  0  0  0  0  0  0
  152.6515  132.5695  161.8110 H   0  0  0  0  0  0  0  0  0  0  0  0
  155.7180  133.6255  161.4722 H   0  0  0  0  0  0  0  0  0  0  0  0
  153.4020  134.3987  160.7535 H   0  0  0  0  0  0  0  0  0  0  0  0
  155.9901  135.8647  160.0460 H   0  0  0  0  0  0  0  0  0  0  0  0
  155.3071  134.4895  159.2097 H   0  0  0  0  0  0  0  0  0  0  0  0
  154.8093  136.5628  157.9697 H   0  0  0  0  0  0  0  0  0  0  0  0
  153.3330  135.8432  158.5249 H   0  0  0  0  0  0  0  0  0  0  0  0
  152.8227  139.5096  160.5625 H   0  0  0  0  0  0  0  0  0  0  0  0
  155.1306  141.2221  160.4916 H   0  0  0  0  0  0  0  0  0  0  0  0
  154.0582  141.5673  159.1428 H   0  0  0  0  0  0  0  0  0  0  0  0
  152.3832  141.3180  161.4699 H   0  0  0  0  0  0  0  0  0  0  0  0
  153.7497  142.2884  161.9636 H   0  0  0  0  0  0  0  0  0  0  0  0
  153.7613  143.0506  158.5914 H   0  0  0  0  0  0  0  0  0  0  0  0
  152.6705  145.0470  157.5558 H   0  0  0  0  0  0  0  0  0  0  0  0
  150.8729  146.2524  158.8135 H   0  0  0  0  0  0  0  0  0  0  0  0
  150.2180  145.3792  161.1326 H   0  0  0  0  0  0  0  0  0  0  0  0
  152.5713  138.0599  161.2760 H   0  0  0  0  0  0  0  0  0  0  0  0
  152.0878  136.6650  160.3590 H   0  0  0  0  0  0  0  0  0  0  0  0
  153.0444  135.9879  162.5643 H   0  0  0  0  0  0  0  0  0  0  0  0
  154.5301  136.8341  162.1994 H   0  0  0  0  0  0  0  0  0  0  0  0
  151.3091  143.5204  161.9748 H   0  0  0  0  0  0  0  0  0  0  0  0
  1  2  1  0  0  0  0
  1 23  1  0  0  0  0
  1 24  1  0  0  0  0
  1 25  1  0  0  0  0
  2  3  2  0  0  0  0
  2  4  2  0  0  0  0
  2  5  1  0  0  0  0
  5  6  1  0  0  0  0
  5 26  1  0  0  0  0
  6 22  1  0  0  0  0
  6  7  1  0  0  0  0
  6 27  1  0  0  0  0
  7  8  1  0  0  0  0
  7 28  1  0  0  0  0
  7 29  1  0  0  0  0
  8  9  1  0  0  0  0
  8 30  1  0  0  0  0
  8 31  1  0  0  0  0
  9 10  1  0  0  0  0
  9 21  1  0  0  0  0
 10 11  2  0  0  0  0
 10 12  1  0  0  0  0
 12 13  1  0  0  0  0
 12 32  1  0  0  0  0
 13 14  1  0  0  0  0
 13 33  1  0  0  0  0
 13 34  1  0  0  0  0
 14 15  1  0  0  0  0
 14 35  1  0  0  0  0
 14 36  1  0  0  0  0
 15 20  1  0  0  0  0
 15 16  2  0  0  0  0
 16 17  1  0  0  0  0
 16 37  1  0  0  0  0
 17 18  2  0  0  0  0
 17 38  1  0  0  0  0
 18 19  1  0  0  0  0
 18 39  1  0  0  0  0
 19 20  2  0  0  0  0
 19 40  1  0  0  0  0
 20 45  1  0  0  0  0
 21 22  1  0  0  0  0
 21 41  1  0  0  0  0
 21 42  1  0  0  0  0
 22 43  1  0  0  0  0
 22 44  1  0  0  0  0
M  CHG  1  20   1
M  END
> <s_m_source_file>
AV-unprocessed.smi

> <i_m_source_file_index>
1629

> <i_lp_mmshare_version>
43012

> <i_f3d_flags>
0

> <s_epik_input>
W0NIM11TKD1PKSg9TylbTkhdW0NIXTFbQ0gyXVtDSDJdTihbQ0gyXVtDSDJdMSlDKD1PKVtOSF1bQ0gyXVtDSDJdYzJbY0hdW2NIXVtjSF1bY0hdbjI=

> <s_epik_cmdline>
J2VwaWtfcHl0aG9uJywgJy1waCcsICc3LjAnLCAnLXRuJywgJzgnLCAnLW1hJywgJzIwMCcsICctbWV0YWxfYmluZGluZycsICctaW1hZScsICc8aW5maWxlLm1hZT4nLCAnLW9tYWUnLCAnPG91dGZpbGUubWFlPic=

> <r_epik_Ionization_Penalty>
1.55223

> <r_epik_Ionization_Penalty_Charging>
1.55216

> <r_epik_Ionization_Penalty_Neutral>
6.06433e-05

> <r_epik_State_Penalty>
1.64647

> <r_epik_Charging_Adjusted_Penalty>
3.19864

> <i_epik_Tot_Q>
1

> <i_epik_Tot_abs_Q>
1

> <r_epik_Metal_State_Penalty>
1.69511

> <b_epik_Metal_Only>
0

> <s_lp_Force_Field>
OPLS_2005

> <r_lp_Energy>
29.0489

> <b_lp_Chiralities_Consistent>
1

> <s_lp_Variant>
AV-unprocessed.smi:1629-2

> <Gold.Version>
5.8.1

> <Gold.Id.Protein>
6NUR|6NUR_protein|mol2

> <Gold.PLP.Fitness>
45.0583

> <Gold.PLP.PLP>
-43.6443

> <Gold.PLP.part.hbond>
-1.0000

> <Gold.PLP.part.metal>
0.0000

> <Gold.PLP.part.buried>
-5.7917

> <Gold.PLP.part.nonpolar>
-37.5415

> <Gold.PLP.part.repulsive>
0.2791

> <Gold.PLP.ligand.clash>
0.0000

> <Gold.PLP.ligand.torsion>
0.8903

> <Gold.PLP.Chemscore.Hbond>
1.0000

> <Gold.PLP.Chemscore.CHOScore>
0.0000

> <Gold.PLP.Chemscore.Metal>
0.0000

> <Gold.Chemscore.Hbonds>
donor molecule, donor type, donor heavy atom, donor atom, acceptor molecule, acceptor atom, score
      P1  H  7997  8008       L1    11  1.00

> <Gold.PLP.Chemscore.Internal.Correction>
0.1946

> <Gold.Rescore>
     Score         DG    S(hbond)    S(metal)    S(lipo)     H(rot)  DE(clash)    DE(int)     intcor
     14.85     -17.14       0.99        0.00     118.01       2.13       0.01       2.28       ----

> <Gold.Chemscore.Fitness>
14.8516

> <Gold.Chemscore.DG>
-17.1436

> <Gold.Chemscore.ZeroCoef>
-5.4800

> <Gold.Chemscore.Hbond>
0.9929

> <Gold.Chemscore.Metal>
0.0000

> <Gold.Chemscore.Lipo>
118.0079

> <Gold.Chemscore.Internal_Hbond>
0.0000

> <Gold.Chemscore.DEClash>
0.0147

> <Gold.Chemscore.DEInternal>
2.2773

> <Gold.Chemscore.Rot>
2.1326

> <Gold.Chemscore.Internal.Correction>
   9.000000E+99

> <Gold.Chemscore.Hbonds>
donor molecule, donor type, donor heavy atom, donor atom, acceptor molecule, acceptor atom, score
      P1  H  7997  8008       L1    11  0.85

> <Gold.Chemscore.Hbond.Weighted>
-3.3162

> <Gold.Chemscore.Metal.Weighted>
-0.0000

> <Gold.Chemscore.Lipo.Weighted>
-13.8069

> <Gold.Chemscore.Internal_Hbond.Weighted>
0.0000

> <Gold.Chemscore.DEClash.Weighted>
0.0147

> <Gold.Chemscore.DEInternal.Weighted>
2.2773

> <Gold.Chemscore.Rot.Weighted>
5.4595

> <Gold.Chemscore.Internal.Correction.Weighted>
   9.000000E+99

> <Gold.Protein.RotatedTorsions>
[ 6907 6896 6895 6894 ] final  104.96 input  -60.11 | X-H torsion
[ 7974 7965 7964 7962 ] final -113.91 input  175.53 | X-H torsion
[ 8008 7997 7996 7995 ] final -129.98 input   59.86 | X-H torsion
[ 10167 10162 10161 10158 ] final -126.29 input  -65.29 | X-H torsion
[ 10718 10713 10712 10709 ] final  -21.71 input   66.30 | X-H torsion
[ 10763 10752 10751 10750 ] final  150.83 input  -60.55 | X-H torsion
[ 11005 11000 10999 10996 ] final   51.58 input  -57.11 | X-H torsion

> <Gold.Protein.ActiveResidues>
 VAL166  LYS551  ARG553  GLY616  TRP617  ASP618  TYR619  PRO620  LYS621  CYS622 
 ASP623  PHE694  ASN695  SER759  ASP760  ASP761  ALA762  ILE779  LEU786  VAL792 
 PHE793  MET794  SER795  GLU796  ALA797  LYS798  CYS799  TRP800  GLU811  SER814 

> <Gold.Protein.RotatedAtoms>
  152.5247  133.9599  159.7711 H   0  0  0  0  0  0  0  0  0  0  0  0  # atno 6907 bound_to 6896
  150.9892  133.6159  159.2718 H   0  0  0  0  0  0  0  0  0  0  0  0  # atno 6908 bound_to 6896
  151.3308  135.0847  159.9391 H   0  0  0  0  0  0  0  0  0  0  0  0  # atno 6909 bound_to 6896
  145.1264  140.8699  143.3783 H   0  0  0  0  0  0  0  0  0  0  0  0  # atno 7974 bound_to 7965
  155.2881  140.0447  157.3021 H   0  0  0  0  0  0  0  0  0  0  0  0  # atno 8008 bound_to 7997
  154.5557  140.2331  155.8382 H   0  0  0  0  0  0  0  0  0  0  0  0  # atno 8009 bound_to 7997
  156.2005  140.3027  155.9524 H   0  0  0  0  0  0  0  0  0  0  0  0  # atno 8010 bound_to 7997
  139.9730  143.5824  152.2406 H   0  0  0  0  0  0  0  0  0  0  0  0  # atno 10167 bound_to 10162
  156.5144  130.4617  149.6630 H   0  0  0  0  0  0  0  0  0  0  0  0  # atno 10718 bound_to 10713
  154.0940  135.2850  155.3266 H   0  0  0  0  0  0  0  0  0  0  0  0  # atno 10763 bound_to 10752
  154.6601  135.5338  153.8010 H   0  0  0  0  0  0  0  0  0  0  0  0  # atno 10764 bound_to 10752
  153.0403  135.6531  154.1107 H   0  0  0  0  0  0  0  0  0  0  0  0  # atno 10765 bound_to 10752
  140.0920  134.5196  155.8843 H   0  0  0  0  0  0  0  0  0  0  0  0  # atno 11005 bound_to 11000
  145.0683  139.3051  143.5845 LP  0  0  0  0  0  0  0  0  0  0  0  0  # atno 17320 bound_to 7965
  146.3517  140.0149  142.8663 LP  0  0  0  0  0  0  0  0  0  0  0  0  # atno 17321 bound_to 7965
  139.6466  144.7658  151.2231 LP  0  0  0  0  0  0  0  0  0  0  0  0  # atno 17342 bound_to 10162
  140.7515  143.6228  150.8497 LP  0  0  0  0  0  0  0  0  0  0  0  0  # atno 17343 bound_to 10162
  156.3209  130.7280  151.2191 LP  0  0  0  0  0  0  0  0  0  0  0  0  # atno 17370 bound_to 10713
  157.7446  131.0456  150.4851 LP  0  0  0  0  0  0  0  0  0  0  0  0  # atno 17371 bound_to 10713
  141.2081  133.6670  156.6347 LP  0  0  0  0  0  0  0  0  0  0  0  0  # atno 17394 bound_to 11000
  140.3338  134.7906  157.4346 LP  0  0  0  0  0  0  0  0  0  0  0  0  # atno 17395 bound_to 11000

$$$$
