AV-unprocessed.smi:1570|AV-procd|sdf|6323|dock4
  -GOLD-   22720 6533D 1   1.00000     0.00000
 Structure written by MMmdl.
 52 54  0  0  0  0  0  0  0  0  2 V2000
  151.1014  144.7833  159.1864 C   0  0  0  0  0  0  0  0  0  0  0  0
  151.4826  144.2484  157.8003 C   0  0  0  0  0  0  0  0  0  0  0  0
  151.5716  142.7904  157.8034 N   0  0  0  0  0  0  0  0  0  0  0  0
  151.0085  141.9454  156.9088 C   0  0  0  0  0  0  0  0  0  0  0  0
  150.3120  142.2675  155.9461 O   0  0  0  0  0  0  0  0  0  0  0  0
  151.3583  140.6809  157.2450 N   0  0  0  0  0  0  0  0  0  0  0  0
  150.9664  139.4582  156.5448 C   0  0  0  0  0  0  0  0  0  0  0  0
  151.4136  139.4735  155.0687 C   0  0  1  0  0  0  0  0  0  0  0  0
  152.8263  139.5356  155.0362 O   0  0  0  0  0  0  0  0  0  0  0  0
  150.9847  138.1907  154.3275 C   0  0  0  0  0  0  0  0  0  0  0  0
  149.5083  138.0391  154.2713 N   0  3  1  0  0  0  0  0  0  0  0  0
  148.9747  137.2157  155.3804 C   0  0  0  0  0  0  0  0  0  0  0  0
  147.4605  136.9967  155.2067 C   0  0  1  0  0  0  0  0  0  0  0  0
  146.8521  136.2256  156.3833 C   0  0  0  0  0  0  0  0  0  0  0  0
  146.8036  138.2589  155.1241 O   0  0  0  0  0  0  0  0  0  0  0  0
  147.2634  139.1082  154.0726 C   0  0  2  0  0  0  0  0  0  0  0  0
  146.8259  138.6090  152.6839 C   0  0  0  0  0  0  0  0  0  0  0  0
  148.7831  139.3315  154.1963 C   0  0  0  0  0  0  0  0  0  0  0  0
  152.1824  140.7194  158.3794 C   0  0  0  0  0  0  0  0  0  0  0  0
  152.8159  139.6926  159.1016 C   0  0  0  0  0  0  0  0  0  0  0  0
  153.6004  140.0739  160.2155 C   0  0  0  0  0  0  0  0  0  0  0  0
  153.7353  141.4393  160.5771 C   0  0  0  0  0  0  0  0  0  0  0  0
  153.0898  142.4530  159.8313 C   0  0  0  0  0  0  0  0  0  0  0  0
  152.3157  142.0469  158.7305 C   0  0  0  0  0  0  0  0  0  0  0  0
  151.0330  145.8711  159.1763 H   0  0  0  0  0  0  0  0  0  0  0  0
  151.8428  144.5033  159.9355 H   0  0  0  0  0  0  0  0  0  0  0  0
  150.1352  144.3934  159.5083 H   0  0  0  0  0  0  0  0  0  0  0  0
  150.7484  144.5681  157.0605 H   0  0  0  0  0  0  0  0  0  0  0  0
  152.4344  144.6791  157.4860 H   0  0  0  0  0  0  0  0  0  0  0  0
  151.3320  138.5703  157.0613 H   0  0  0  0  0  0  0  0  0  0  0  0
  149.8782  139.3949  156.5961 H   0  0  0  0  0  0  0  0  0  0  0  0
  151.0075  140.3506  154.5663 H   0  0  0  0  0  0  0  0  0  0  0  0
  153.1476  138.8363  154.4874 H   0  0  0  0  0  0  0  0  0  0  0  0
  151.3981  138.2139  153.3177 H   0  0  0  0  0  0  0  0  0  0  0  0
  151.4111  137.3079  154.8070 H   0  0  0  0  0  0  0  0  0  0  0  0
  149.4815  136.2500  155.3998 H   0  0  0  0  0  0  0  0  0  0  0  0
  149.1831  137.7069  156.3325 H   0  0  0  0  0  0  0  0  0  0  0  0
  147.2751  136.4246  154.2974 H   0  0  0  0  0  0  0  0  0  0  0  0
  147.3085  135.2407  156.4860 H   0  0  0  0  0  0  0  0  0  0  0  0
  145.7805  136.0815  156.2424 H   0  0  0  0  0  0  0  0  0  0  0  0
  146.9945  136.7606  157.3228 H   0  0  0  0  0  0  0  0  0  0  0  0
  146.7744  140.0704  154.2278 H   0  0  0  0  0  0  0  0  0  0  0  0
  147.0759  139.3401  151.9146 H   0  0  0  0  0  0  0  0  0  0  0  0
  145.7475  138.4528  152.6497 H   0  0  0  0  0  0  0  0  0  0  0  0
  147.3098  137.6726  152.4075 H   0  0  0  0  0  0  0  0  0  0  0  0
  148.9930  139.9092  155.0981 H   0  0  0  0  0  0  0  0  0  0  0  0
  149.1341  139.9293  153.3558 H   0  0  0  0  0  0  0  0  0  0  0  0
  152.7156  138.6547  158.8222 H   0  0  0  0  0  0  0  0  0  0  0  0
  154.1049  139.3163  160.7970 H   0  0  0  0  0  0  0  0  0  0  0  0
  154.3397  141.7084  161.4309 H   0  0  0  0  0  0  0  0  0  0  0  0
  153.1926  143.4943  160.0989 H   0  0  0  0  0  0  0  0  0  0  0  0
  149.3071  137.5332  153.4200 H   0  0  0  0  0  0  0  0  0  0  0  0
  1  2  1  0  0  0  0
  1 25  1  0  0  0  0
  1 26  1  0  0  0  0
  1 27  1  0  0  0  0
  2  3  1  0  0  0  0
  2 28  1  0  0  0  0
  2 29  1  0  0  0  0
  3 24  1  0  0  0  0
  3  4  1  0  0  0  0
  4  5  2  0  0  0  0
  4  6  1  0  0  0  0
  6  7  1  0  0  0  0
  6 19  1  0  0  0  0
  7  8  1  0  0  0  0
  7 30  1  0  0  0  0
  7 31  1  0  0  0  0
  8  9  1  0  0  0  0
  8 10  1  0  0  0  0
  8 32  1  0  0  0  0
  9 33  1  0  0  0  0
 10 11  1  0  0  0  0
 10 34  1  0  0  0  0
 10 35  1  0  0  0  0
 11 18  1  0  0  0  0
 11 12  1  0  0  0  0
 11 52  1  0  0  0  0
 12 13  1  0  0  0  0
 12 36  1  0  0  0  0
 12 37  1  0  0  0  0
 13 14  1  0  0  0  0
 13 15  1  0  0  0  0
 13 38  1  0  0  0  0
 14 39  1  0  0  0  0
 14 40  1  0  0  0  0
 14 41  1  0  0  0  0
 15 16  1  0  0  0  0
 16 17  1  0  0  0  0
 16 18  1  0  0  0  0
 16 42  1  0  0  0  0
 17 43  1  0  0  0  0
 17 44  1  0  0  0  0
 17 45  1  0  0  0  0
 18 46  1  0  0  0  0
 18 47  1  0  0  0  0
 19 24  2  0  0  0  0
 19 20  1  0  0  0  0
 20 21  2  0  0  0  0
 20 48  1  0  0  0  0
 21 22  1  0  0  0  0
 21 49  1  0  0  0  0
 22 23  2  0  0  0  0
 22 50  1  0  0  0  0
 23 24  1  0  0  0  0
 23 51  1  0  0  0  0
M  CHG  1  11   1
M  END
> <s_m_source_file>
AV-unprocessed.smi

> <i_m_source_file_index>
1570

> <i_lp_mmshare_version>
43012

> <i_f3d_flags>
0

> <s_epik_input>
W2NIXTFbY0hdW2NIXVtjSF1jKGMxMiluKFtDSDJdW0NIM10pYyg9TyluMltDSDJdW0NASF0oW09IXSlbQ0gyXU4zW0NIMl1bQ0BASF0oW0NIM10pT1tDQEBIXShbQ0gzXSlbQ0gyXTM=

> <s_epik_cmdline>
J2VwaWtfcHl0aG9uJywgJy1waCcsICc3LjAnLCAnLXRuJywgJzgnLCAnLW1hJywgJzIwMCcsICctbWV0YWxfYmluZGluZycsICctaW1hZScsICc8aW5maWxlLm1hZT4nLCAnLW9tYWUnLCAnPG91dGZpbGUubWFlPic=

> <r_epik_Ionization_Penalty>
0.706332

> <r_epik_Ionization_Penalty_Charging>
0.706318

> <r_epik_Ionization_Penalty_Neutral>
1.42224e-05

> <r_epik_State_Penalty>
0.729493

> <r_epik_Charging_Adjusted_Penalty>
1.43581

> <i_epik_Tot_Q>
1

> <i_epik_Tot_abs_Q>
1

> <r_epik_Metal_State_Penalty>
0.729493

> <b_epik_Metal_Only>
0

> <s_lp_Force_Field>
OPLS_2005

> <r_lp_Energy>
55.371

> <b_lp_Chiralities_Consistent>
1

> <s_lp_Variant>
AV-unprocessed.smi:1570-12

> <Gold.Version>
5.8.1

> <Gold.Id.Protein>
6NUR|6NUR_protein|mol2

> <Gold.PLP.Fitness>
53.6187

> <Gold.PLP.PLP>
-45.4520

> <Gold.PLP.part.hbond>
-3.0000

> <Gold.PLP.part.metal>
0.0000

> <Gold.PLP.part.buried>
-3.3211

> <Gold.PLP.part.nonpolar>
-40.7212

> <Gold.PLP.part.repulsive>
1.9545

> <Gold.PLP.ligand.clash>
0.0000

> <Gold.PLP.ligand.torsion>
0.4928

> <Gold.PLP.Chemscore.Hbond>
3.0000

> <Gold.PLP.Chemscore.CHOScore>
0.0000

> <Gold.PLP.Chemscore.Metal>
0.0000

> <Gold.Chemscore.Hbonds>
donor molecule, donor type, donor heavy atom, donor atom, acceptor molecule, acceptor atom, score
      L1  H    11    52       P1  7948  1.98
      P1  H  7997  8008       L1     9  1.00

> <Gold.PLP.Chemscore.Internal.Correction>
0.1523

> <Gold.Rescore>
     Score         DG    S(hbond)    S(metal)    S(lipo)     H(rot)  DE(clash)    DE(int)     intcor
     18.24     -19.79       1.80        0.00     117.60       2.13       1.14       0.41       ----

> <Gold.Chemscore.Fitness>
18.2371

> <Gold.Chemscore.DG>
-19.7870

> <Gold.Chemscore.ZeroCoef>
-5.4800

> <Gold.Chemscore.Hbond>
1.7969

> <Gold.Chemscore.Metal>
0.0000

> <Gold.Chemscore.Lipo>
117.5971

> <Gold.Chemscore.Internal_Hbond>
0.0000

> <Gold.Chemscore.DEClash>
1.1413

> <Gold.Chemscore.DEInternal>
0.4085

> <Gold.Chemscore.Rot>
2.1303

> <Gold.Chemscore.Internal.Correction>
   9.000000E+99

> <Gold.Chemscore.Hbonds>
donor molecule, donor type, donor heavy atom, donor atom, acceptor molecule, acceptor atom, score
      L1  H    11    52       P1  7948  0.91
      P1  H  7997  8008       L1     9  0.49

> <Gold.Chemscore.Hbond.Weighted>
-6.0016

> <Gold.Chemscore.Metal.Weighted>
-0.0000

> <Gold.Chemscore.Lipo.Weighted>
-13.7589

> <Gold.Chemscore.Internal_Hbond.Weighted>
0.0000

> <Gold.Chemscore.DEClash.Weighted>
1.1413

> <Gold.Chemscore.DEInternal.Weighted>
0.4085

> <Gold.Chemscore.Rot.Weighted>
5.4535

> <Gold.Chemscore.Internal.Correction.Weighted>
   9.000000E+99

> <Gold.Protein.RotatedTorsions>
[ 6907 6896 6895 6894 ] final  175.84 input  -60.11 | X-H torsion
[ 7974 7965 7964 7962 ] final   60.07 input  175.53 | X-H torsion
[ 8008 7997 7996 7995 ] final  -26.52 input   59.86 | X-H torsion
[ 10167 10162 10161 10158 ] final  -26.99 input  -65.29 | X-H torsion
[ 10718 10713 10712 10709 ] final -106.76 input   66.30 | X-H torsion
[ 10763 10752 10751 10750 ] final   -3.72 input  -60.55 | X-H torsion
[ 11005 11000 10999 10996 ] final  -93.40 input  -57.11 | X-H torsion

> <Gold.Protein.ActiveResidues>
 VAL166  LYS551  ARG553  GLY616  TRP617  ASP618  TYR619  PRO620  LYS621  CYS622 
 ASP623  PHE694  ASN695  SER759  ASP760  ASP761  ALA762  ILE779  LEU786  VAL792 
 PHE793  MET794  SER795  GLU796  ALA797  LYS798  CYS799  TRP800  GLU811  SER814 

> <Gold.Protein.RotatedAtoms>
  151.7297  133.3317  159.3336 H   0  0  0  0  0  0  0  0  0  0  0  0  # atno 6907 bound_to 6896
  150.7618  134.6374  159.6228 H   0  0  0  0  0  0  0  0  0  0  0  0  # atno 6908 bound_to 6896
  152.3599  134.6889  160.0262 H   0  0  0  0  0  0  0  0  0  0  0  0  # atno 6909 bound_to 6896
  145.9001  139.3575  143.0597 H   0  0  0  0  0  0  0  0  0  0  0  0  # atno 7974 bound_to 7965
  154.4421  140.1897  156.0787 H   0  0  0  0  0  0  0  0  0  0  0  0  # atno 8008 bound_to 7997
  156.0455  140.3315  155.7265 H   0  0  0  0  0  0  0  0  0  0  0  0  # atno 8009 bound_to 7997
  155.5636  140.0606  157.2814 H   0  0  0  0  0  0  0  0  0  0  0  0  # atno 8010 bound_to 7997
  140.7280  143.4131  151.1073 H   0  0  0  0  0  0  0  0  0  0  0  0  # atno 10167 bound_to 10162
  156.0405  130.5629  150.7726 H   0  0  0  0  0  0  0  0  0  0  0  0  # atno 10718 bound_to 10713
  153.3752  135.6996  153.6607 H   0  0  0  0  0  0  0  0  0  0  0  0  # atno 10763 bound_to 10752
  153.5241  135.3606  155.2646 H   0  0  0  0  0  0  0  0  0  0  0  0  # atno 10764 bound_to 10752
  154.8686  135.4165  154.3038 H   0  0  0  0  0  0  0  0  0  0  0  0  # atno 10765 bound_to 10752
  141.1498  133.7885  157.0154 H   0  0  0  0  0  0  0  0  0  0  0  0  # atno 11005 bound_to 11000
  145.8801  140.9368  143.0606 LP  0  0  0  0  0  0  0  0  0  0  0  0  # atno 17320 bound_to 7965
  144.6735  140.0769  143.7471 LP  0  0  0  0  0  0  0  0  0  0  0  0  # atno 17321 bound_to 7965
  139.7767  143.8415  152.3130 LP  0  0  0  0  0  0  0  0  0  0  0  0  # atno 17342 bound_to 10162
  139.8352  144.7235  150.9400 LP  0  0  0  0  0  0  0  0  0  0  0  0  # atno 17343 bound_to 10162
  157.5216  131.0932  151.0071 LP  0  0  0  0  0  0  0  0  0  0  0  0  # atno 17370 bound_to 10713
  157.0400  130.5745  149.5355 LP  0  0  0  0  0  0  0  0  0  0  0  0  # atno 17371 bound_to 10713
  140.0850  134.9626  157.1685 LP  0  0  0  0  0  0  0  0  0  0  0  0  # atno 17394 bound_to 11000
  140.3524  134.2584  155.7197 LP  0  0  0  0  0  0  0  0  0  0  0  0  # atno 17395 bound_to 11000

$$$$
