AV-unprocessed.smi:2014|AV-procd|sdf|8161|dock10
  -GOLD-   2272010403D 1   1.00000     0.00000
 Structure written by MMmdl.
 46 48  0  0  0  0  0  0  0  0  1 V2000
  152.4030  144.8403  158.5329 C   0  0  0  0  0  0  0  0  0  0  0  0
  152.2864  143.3214  158.3421 C   0  0  2  0  0  0  0  0  0  0  0  0
  150.9260  142.9333  157.7319 C   0  0  0  0  0  0  0  0  0  0  0  0
  150.8019  141.4131  157.5420 C   0  0  0  0  0  0  0  0  0  0  0  0
  151.0391  140.6568  158.8649 C   0  0  1  0  0  0  0  0  0  0  0  0
  150.9951  139.2146  158.6450 N   0  0  0  0  0  0  0  0  0  0  0  0
  149.8900  138.5046  158.3719 C   0  0  0  0  0  0  0  0  0  0  0  0
  148.7677  139.0069  158.2932 O   0  0  0  0  0  0  0  0  0  0  0  0
  150.1007  136.9978  158.1589 C   0  0  0  0  0  0  0  0  0  0  0  0
  148.9482  136.1748  158.5874 N   0  0  0  0  0  0  0  0  0  0  0  0
  148.3608  135.2915  157.6457 C   0  0  0  0  0  0  0  0  0  0  0  0
  148.8144  135.1874  156.5046 O   0  0  0  0  0  0  0  0  0  0  0  0
  147.1973  134.5472  158.1218 C   0  0  0  0  0  0  0  0  0  0  0  0
  146.5568  133.6766  157.1927 C   0  0  0  0  0  0  0  0  0  0  0  0
  146.0473  132.9502  156.4494 N   0  0  0  0  0  0  0  0  0  0  0  0
  146.7513  134.6900  159.3868 C   0  0  0  0  0  0  0  0  0  0  0  0
  147.3619  135.5231  160.2986 N   0  0  0  0  0  0  0  0  0  0  0  0
  146.7817  135.7743  161.5877 C   0  0  0  0  0  0  0  0  0  0  0  0
  147.6485  135.7706  162.8322 C   0  0  0  0  0  0  0  0  0  0  0  0
  146.6839  134.6373  162.5813 C   0  0  0  0  0  0  0  0  0  0  0  0
  148.4487  136.3333  159.9027 C   0  0  0  0  0  0  0  0  0  0  0  0
  148.9417  137.1606  160.6735 O   0  0  0  0  0  0  0  0  0  0  0  0
  152.3976  141.0456  159.4764 C   0  0  0  0  0  0  0  0  0  0  0  0
  152.5148  142.5668  159.6658 C   0  0  0  0  0  0  0  0  0  0  0  0
  151.6438  145.2134  159.2214 H   0  0  0  0  0  0  0  0  0  0  0  0
  152.2794  145.3651  157.5851 H   0  0  0  0  0  0  0  0  0  0  0  0
  153.3800  145.1117  158.9343 H   0  0  0  0  0  0  0  0  0  0  0  0
  153.0676  143.0177  157.6433 H   0  0  0  0  0  0  0  0  0  0  0  0
  150.1190  143.2836  158.3770 H   0  0  0  0  0  0  0  0  0  0  0  0
  150.7913  143.4322  156.7716 H   0  0  0  0  0  0  0  0  0  0  0  0
  149.8143  141.1767  157.1441 H   0  0  0  0  0  0  0  0  0  0  0  0
  151.5227  141.0830  156.7922 H   0  0  0  0  0  0  0  0  0  0  0  0
  150.2571  140.9330  159.5751 H   0  0  0  0  0  0  0  0  0  0  0  0
  151.8744  138.7206  158.6942 H   0  0  0  0  0  0  0  0  0  0  0  0
  150.3269  136.8197  157.1062 H   0  0  0  0  0  0  0  0  0  0  0  0
  151.0141  136.7034  158.6778 H   0  0  0  0  0  0  0  0  0  0  0  0
  145.8843  134.1270  159.7016 H   0  0  0  0  0  0  0  0  0  0  0  0
  145.9515  136.4784  161.5924 H   0  0  0  0  0  0  0  0  0  0  0  0
  148.7092  135.5522  162.7220 H   0  0  0  0  0  0  0  0  0  0  0  0
  147.3988  136.4802  163.6181 H   0  0  0  0  0  0  0  0  0  0  0  0
  145.7922  134.5898  163.2030 H   0  0  0  0  0  0  0  0  0  0  0  0
  147.1094  133.6749  162.3035 H   0  0  0  0  0  0  0  0  0  0  0  0
  152.5326  140.5454  160.4364 H   0  0  0  0  0  0  0  0  0  0  0  0
  153.2070  140.6997  158.8315 H   0  0  0  0  0  0  0  0  0  0  0  0
  153.4990  142.8084  160.0688 H   0  0  0  0  0  0  0  0  0  0  0  0
  151.7879  142.8965  160.4095 H   0  0  0  0  0  0  0  0  0  0  0  0
  1  2  1  0  0  0  0
  1 25  1  0  0  0  0
  1 26  1  0  0  0  0
  1 27  1  0  0  0  0
  2 24  1  0  0  0  0
  2  3  1  0  0  0  0
  2 28  1  0  0  0  0
  3  4  1  0  0  0  0
  3 29  1  0  0  0  0
  3 30  1  0  0  0  0
  4  5  1  0  0  0  0
  4 31  1  0  0  0  0
  4 32  1  0  0  0  0
  5  6  1  0  0  0  0
  5 23  1  0  0  0  0
  5 33  1  0  0  0  0
  6  7  1  0  0  0  0
  6 34  1  0  0  0  0
  7  8  2  0  0  0  0
  7  9  1  0  0  0  0
  9 10  1  0  0  0  0
  9 35  1  0  0  0  0
  9 36  1  0  0  0  0
 10 21  1  0  0  0  0
 10 11  1  0  0  0  0
 11 12  2  0  0  0  0
 11 13  1  0  0  0  0
 13 14  1  0  0  0  0
 13 16  2  0  0  0  0
 14 15  3  0  0  0  0
 16 17  1  0  0  0  0
 16 37  1  0  0  0  0
 17 18  1  0  0  0  0
 17 21  1  0  0  0  0
 18 20  1  0  0  0  0
 18 19  1  0  0  0  0
 18 38  1  0  0  0  0
 19 20  1  0  0  0  0
 19 39  1  0  0  0  0
 19 40  1  0  0  0  0
 20 41  1  0  0  0  0
 20 42  1  0  0  0  0
 21 22  2  0  0  0  0
 23 24  1  0  0  0  0
 23 43  1  0  0  0  0
 23 44  1  0  0  0  0
 24 45  1  0  0  0  0
 24 46  1  0  0  0  0
M  END
> <s_m_source_file>
AV-unprocessed.smi

> <i_m_source_file_index>
2014

> <i_lp_mmshare_version>
43012

> <i_f3d_flags>
0

> <s_epik_input>
W0NIM11bQ0BASF0xW0NIMl1bQ0gyXVtDQEhdKFtDSDJdW0NIMl0xKVtOSF1DKD1PKVtDSDJdbjJjKD1PKWMoQyNOKVtjSF1uKGMyPU8pW0NIXTNbQ0gyXVtDSDJdMw==

> <s_epik_cmdline>
J2VwaWtfcHl0aG9uJywgJy1waCcsICc3LjAnLCAnLXRuJywgJzgnLCAnLW1hJywgJzIwMCcsICctbWV0YWxfYmluZGluZycsICctaW1hZScsICc8aW5maWxlLm1hZT4nLCAnLW9tYWUnLCAnPG91dGZpbGUubWFlPic=

> <r_lp_tautomer_probability>
1

> <r_epik_Ionization_Penalty>
1.91358e-08

> <r_epik_Ionization_Penalty_Charging>
8.89021e-11

> <r_epik_Ionization_Penalty_Neutral>
1.90469e-08

> <r_epik_State_Penalty>
-0

> <r_epik_Charging_Adjusted_Penalty>
8.89021e-11

> <i_epik_Tot_Q>
0

> <i_epik_Tot_abs_Q>
0

> <r_epik_Metal_State_Penalty>
-0

> <b_epik_Metal_Only>
0

> <s_lp_Force_Field>
OPLS_2005

> <r_lp_Energy>
34.0792

> <b_lp_Chiralities_Consistent>
1

> <s_lp_Variant>
AV-unprocessed.smi:2014-1

> <Gold.Version>
5.8.1

> <Gold.Id.Protein>
6NUR|6NUR_protein|mol2

> <Gold.PLP.Fitness>
42.3815

> <Gold.PLP.PLP>
-41.3897

> <Gold.PLP.part.hbond>
-1.6461

> <Gold.PLP.part.metal>
0.0000

> <Gold.PLP.part.buried>
-5.0170

> <Gold.PLP.part.nonpolar>
-35.6660

> <Gold.PLP.part.repulsive>
0.2121

> <Gold.PLP.ligand.clash>
0.0000

> <Gold.PLP.ligand.torsion>
0.6888

> <Gold.PLP.Chemscore.Hbond>
0.7200

> <Gold.PLP.Chemscore.CHOScore>
0.0000

> <Gold.PLP.Chemscore.Metal>
0.0000

> <Gold.Chemscore.Hbonds>
donor molecule, donor type, donor heavy atom, donor atom, acceptor molecule, acceptor atom, score
      P1  H  6931  6943       L1    22  0.72

> <Gold.PLP.Chemscore.Internal.Correction>
0.2093

> <Gold.Rescore>
     Score         DG    S(hbond)    S(metal)    S(lipo)     H(rot)  DE(clash)    DE(int)     intcor
     12.66     -15.56       0.84        0.00      99.39       1.70       0.01       2.89       ----

> <Gold.Chemscore.Fitness>
12.6586

> <Gold.Chemscore.DG>
-15.5630

> <Gold.Chemscore.ZeroCoef>
-5.4800

> <Gold.Chemscore.Hbond>
0.8433

> <Gold.Chemscore.Metal>
0.0000

> <Gold.Chemscore.Lipo>
99.3864

> <Gold.Chemscore.Internal_Hbond>
0.0000

> <Gold.Chemscore.DEClash>
0.0110

> <Gold.Chemscore.DEInternal>
2.8935

> <Gold.Chemscore.Rot>
1.7038

> <Gold.Chemscore.Internal.Correction>
   9.000000E+99

> <Gold.Chemscore.Hbonds>
donor molecule, donor type, donor heavy atom, donor atom, acceptor molecule, acceptor atom, score
      P1  H  6931  6943       L1    22  0.71

> <Gold.Chemscore.Hbond.Weighted>
-2.8166

> <Gold.Chemscore.Metal.Weighted>
-0.0000

> <Gold.Chemscore.Lipo.Weighted>
-11.6282

> <Gold.Chemscore.Internal_Hbond.Weighted>
0.0000

> <Gold.Chemscore.DEClash.Weighted>
0.0110

> <Gold.Chemscore.DEInternal.Weighted>
2.8935

> <Gold.Chemscore.Rot.Weighted>
4.3618

> <Gold.Chemscore.Internal.Correction.Weighted>
   9.000000E+99

> <Gold.Protein.RotatedTorsions>
[ 6907 6896 6895 6894 ] final  -28.80 input  -60.11 | X-H torsion
[ 7974 7965 7964 7962 ] final  170.13 input  175.53 | X-H torsion
[ 8008 7997 7996 7995 ] final   78.63 input   59.86 | X-H torsion
[ 10167 10162 10161 10158 ] final   92.53 input  -65.29 | X-H torsion
[ 10718 10713 10712 10709 ] final   34.17 input   66.30 | X-H torsion
[ 10763 10752 10751 10750 ] final  155.20 input  -60.55 | X-H torsion
[ 11005 11000 10999 10996 ] final  100.89 input  -57.11 | X-H torsion

> <Gold.Protein.ActiveResidues>
 VAL166  LYS551  ARG553  GLY616  TRP617  ASP618  TYR619  PRO620  LYS621  CYS622 
 ASP623  PHE694  ASN695  SER759  ASP760  ASP761  ALA762  ILE779  LEU786  VAL792 
 PHE793  MET794  SER795  GLU796  ALA797  LYS798  CYS799  TRP800  GLU811  SER814 

> <Gold.Protein.RotatedAtoms>
  151.1280  135.0115  159.8568 H   0  0  0  0  0  0  0  0  0  0  0  0  # atno 6907 bound_to 6896
  152.5450  134.1644  159.8581 H   0  0  0  0  0  0  0  0  0  0  0  0  # atno 6908 bound_to 6896
  151.1708  133.4740  159.2627 H   0  0  0  0  0  0  0  0  0  0  0  0  # atno 6909 bound_to 6896
  144.7333  139.9156  143.6417 H   0  0  0  0  0  0  0  0  0  0  0  0  # atno 7974 bound_to 7965
  155.8585  140.3455  155.5740 H   0  0  0  0  0  0  0  0  0  0  0  0  # atno 8008 bound_to 7997
  155.7960  140.0878  157.2003 H   0  0  0  0  0  0  0  0  0  0  0  0  # atno 8009 bound_to 7997
  154.4010  140.1474  156.3206 H   0  0  0  0  0  0  0  0  0  0  0  0  # atno 8010 bound_to 7997
  139.8268  144.6706  150.9449 H   0  0  0  0  0  0  0  0  0  0  0  0  # atno 10167 bound_to 10162
  157.3070  130.7380  149.6702 H   0  0  0  0  0  0  0  0  0  0  0  0  # atno 10718 bound_to 10713
  154.1645  135.2808  155.3099 H   0  0  0  0  0  0  0  0  0  0  0  0  # atno 10763 bound_to 10752
  154.6121  135.5495  153.7488 H   0  0  0  0  0  0  0  0  0  0  0  0  # atno 10764 bound_to 10752
  153.0182  135.6418  154.1787 H   0  0  0  0  0  0  0  0  0  0  0  0  # atno 10765 bound_to 10752
  139.8772  134.9160  156.4825 H   0  0  0  0  0  0  0  0  0  0  0  0  # atno 11005 bound_to 11000
  146.0968  139.3961  143.0371 LP  0  0  0  0  0  0  0  0  0  0  0  0  # atno 17320 bound_to 7965
  145.7634  140.9926  143.1188 LP  0  0  0  0  0  0  0  0  0  0  0  0  # atno 17321 bound_to 7965
  140.7809  143.4039  151.1104 LP  0  0  0  0  0  0  0  0  0  0  0  0  # atno 17342 bound_to 10162
  139.7695  143.8515  152.3117 LP  0  0  0  0  0  0  0  0  0  0  0  0  # atno 17343 bound_to 10162
  155.9675  130.4262  150.4691 LP  0  0  0  0  0  0  0  0  0  0  0  0  # atno 17370 bound_to 10713
  157.2682  131.0581  151.2277 LP  0  0  0  0  0  0  0  0  0  0  0  0  # atno 17371 bound_to 10713
  140.8717  133.7983  155.9372 LP  0  0  0  0  0  0  0  0  0  0  0  0  # atno 17394 bound_to 11000
  140.8945  134.2454  157.5076 LP  0  0  0  0  0  0  0  0  0  0  0  0  # atno 17395 bound_to 11000

$$$$
