AV-unprocessed.smi:3261|AV-procd|sdf|12478|dock6
  -GOLD-   2272018383D 1   1.00000     0.00000
 Structure written by MMmdl.
 30 31  0  0  0  0  0  0  0  0  1 V2000
  146.8312  132.5354  154.2295 O   0  0  0  0  0  0  0  0  0  0  0  0
  147.3524  133.4060  153.5362 C   0  0  0  0  0  0  0  0  0  0  0  0
  146.9590  133.7378  152.2902 N   0  0  0  0  0  0  0  0  0  0  0  0
  145.9423  133.1572  151.4841 C   0  0  0  0  0  0  0  0  0  0  0  0
  145.7224  131.7701  151.6125 C   0  0  0  0  0  0  0  0  0  0  0  0
  144.7091  131.1679  150.8406 C   0  0  0  0  0  0  0  0  0  0  0  0
  143.9248  131.8533  149.9828 N   0  0  0  0  0  0  0  0  0  0  0  0
  144.1278  133.1829  149.8699 C   0  0  0  0  0  0  0  0  0  0  0  0
  145.1133  133.8826  150.5944 C   0  0  0  0  0  0  0  0  0  0  0  0
  148.3762  134.1424  154.0050 N   0  0  0  0  0  0  0  0  0  0  0  0
  149.0415  134.0465  155.3055 C   0  0  2  0  0  0  0  0  0  0  0  0
  150.2937  134.9416  155.3518 C   0  0  0  0  0  0  0  0  0  0  0  0
  151.1371  134.5443  156.5696 C   0  0  0  0  0  0  0  0  0  0  0  0
  150.8448  132.7531  156.8294 S   0  0  0  0  0  0  0  0  0  0  0  0
  152.0036  131.9871  156.3465 O   0  0  0  0  0  0  0  0  0  0  0  0
  150.3135  132.5492  158.1854 O   0  0  0  0  0  0  0  0  0  0  0  0
  149.4819  132.6065  155.6143 C   0  0  0  0  0  0  0  0  0  0  0  0
  147.4291  134.5311  151.8801 H   0  0  0  0  0  0  0  0  0  0  0  0
  146.3192  131.1730  152.2866 H   0  0  0  0  0  0  0  0  0  0  0  0
  144.5224  130.1069  150.9162 H   0  0  0  0  0  0  0  0  0  0  0  0
  143.4800  133.7088  149.1843 H   0  0  0  0  0  0  0  0  0  0  0  0
  145.1996  134.9496  150.4612 H   0  0  0  0  0  0  0  0  0  0  0  0
  148.7142  134.8732  153.3952 H   0  0  0  0  0  0  0  0  0  0  0  0
  148.3712  134.3880  156.0965 H   0  0  0  0  0  0  0  0  0  0  0  0
  150.8862  134.7786  154.4501 H   0  0  0  0  0  0  0  0  0  0  0  0
  150.0354  136.0008  155.3744 H   0  0  0  0  0  0  0  0  0  0  0  0
  152.2010  134.7373  156.4320 H   0  0  0  0  0  0  0  0  0  0  0  0
  150.8004  135.0725  157.4620 H   0  0  0  0  0  0  0  0  0  0  0  0
  148.6820  131.9878  156.0216 H   0  0  0  0  0  0  0  0  0  0  0  0
  149.8820  132.1174  154.7253 H   0  0  0  0  0  0  0  0  0  0  0  0
  1  2  2  0  0  0  0
  2  3  1  0  0  0  0
  2 10  1  0  0  0  0
  3  4  1  0  0  0  0
  3 18  1  0  0  0  0
  4  9  1  0  0  0  0
  4  5  2  0  0  0  0
  5  6  1  0  0  0  0
  5 19  1  0  0  0  0
  6  7  2  0  0  0  0
  6 20  1  0  0  0  0
  7  8  1  0  0  0  0
  8  9  2  0  0  0  0
  8 21  1  0  0  0  0
  9 22  1  0  0  0  0
 10 11  1  0  0  0  0
 10 23  1  0  0  0  0
 11 17  1  0  0  0  0
 11 12  1  0  0  0  0
 11 24  1  0  0  0  0
 12 13  1  0  0  0  0
 12 25  1  0  0  0  0
 12 26  1  0  0  0  0
 13 14  1  0  0  0  0
 13 27  1  0  0  0  0
 13 28  1  0  0  0  0
 14 15  2  0  0  0  0
 14 16  2  0  0  0  0
 14 17  1  0  0  0  0
 17 29  1  0  0  0  0
 17 30  1  0  0  0  0
M  END
> <s_m_source_file>
AV-unprocessed.smi

> <i_m_source_file_index>
3261

> <i_lp_mmshare_version>
43012

> <i_f3d_flags>
0

> <s_epik_input>
Tz1TMSg9TylbQ0gyXVtDSDJdW0NASF0oW0NIMl0xKVtOSF1DKD1PKVtOSF1jMltjSF1bY0hdbltjSF1bY0hdMg==

> <s_epik_cmdline>
J2VwaWtfcHl0aG9uJywgJy1waCcsICc3LjAnLCAnLXRuJywgJzgnLCAnLW1hJywgJzIwMCcsICctbWV0YWxfYmluZGluZycsICctaW1hZScsICc8aW5maWxlLm1hZT4nLCAnLW9tYWUnLCAnPG91dGZpbGUubWFlPic=

> <r_epik_Ionization_Penalty>
0.0999693

> <r_epik_Ionization_Penalty_Charging>
0

> <r_epik_Ionization_Penalty_Neutral>
0.0999693

> <r_epik_State_Penalty>
0.0899812

> <r_epik_Charging_Adjusted_Penalty>
0.0899812

> <i_epik_Tot_Q>
0

> <i_epik_Tot_abs_Q>
0

> <r_epik_Metal_State_Penalty>
0.0778619

> <b_epik_Metal_Only>
0

> <s_lp_Force_Field>
OPLS_2005

> <r_lp_Energy>
18.6703

> <b_lp_Chiralities_Consistent>
1

> <s_lp_Variant>
AV-unprocessed.smi:3261-1

> <Gold.Version>
5.8.1

> <Gold.Id.Protein>
6NUR|6NUR_protein|mol2

> <Gold.PLP.Fitness>
36.5320

> <Gold.PLP.PLP>
-25.6022

> <Gold.PLP.part.hbond>
-3.3626

> <Gold.PLP.part.metal>
0.0000

> <Gold.PLP.part.buried>
-4.4839

> <Gold.PLP.part.nonpolar>
-19.2265

> <Gold.PLP.part.repulsive>
0.2543

> <Gold.PLP.ligand.clash>
0.0000

> <Gold.PLP.ligand.torsion>
0.3086

> <Gold.PLP.Chemscore.Hbond>
2.8532

> <Gold.PLP.Chemscore.CHOScore>
0.9957

> <Gold.PLP.Chemscore.Metal>
0.0000

> <Gold.Chemscore.Hbonds>
donor molecule, donor type, donor heavy atom, donor atom, acceptor molecule, acceptor atom, score
      L1  H     3    18       P1  7948  0.49
      L1  H    10    23       P1  7948  1.00
      P1  H  6896  6908       L1    16  0.83
      P1  H 10785 10796       L1     7  0.37
      L1  C     8    21       P1 10186  0.82

> <Gold.PLP.Chemscore.Internal.Correction>
0.0006

> <Gold.Rescore>
     Score         DG    S(hbond)    S(metal)    S(lipo)     H(rot)  DE(clash)    DE(int)     intcor
     13.98     -16.84       2.04        0.00      60.69       1.00       0.22       2.64       ----

> <Gold.Chemscore.Fitness>
13.9786

> <Gold.Chemscore.DG>
-16.8353

> <Gold.Chemscore.ZeroCoef>
-5.4800

> <Gold.Chemscore.Hbond>
2.0402

> <Gold.Chemscore.Metal>
0.0000

> <Gold.Chemscore.Lipo>
60.6931

> <Gold.Chemscore.Internal_Hbond>
0.0000

> <Gold.Chemscore.DEClash>
0.2154

> <Gold.Chemscore.DEInternal>
2.6413

> <Gold.Chemscore.Rot>
1.0000

> <Gold.Chemscore.Internal.Correction>
   9.000000E+99

> <Gold.Chemscore.Hbonds>
donor molecule, donor type, donor heavy atom, donor atom, acceptor molecule, acceptor atom, score
      L1  H     3    18       P1  7948  0.27
      L1  H    10    23       P1  7948  0.47
      P1  H  6896  6908       L1    16  0.41
      P1  H 10785 10796       L1     7  0.07

> <Gold.Chemscore.Hbond.Weighted>
-6.8142

> <Gold.Chemscore.Metal.Weighted>
-0.0000

> <Gold.Chemscore.Lipo.Weighted>
-7.1011

> <Gold.Chemscore.Internal_Hbond.Weighted>
0.0000

> <Gold.Chemscore.DEClash.Weighted>
0.2154

> <Gold.Chemscore.DEInternal.Weighted>
2.6413

> <Gold.Chemscore.Rot.Weighted>
2.5600

> <Gold.Chemscore.Internal.Correction.Weighted>
   9.000000E+99

> <Gold.Protein.RotatedTorsions>
[ 6907 6896 6895 6894 ] final   70.68 input  -60.11 | X-H torsion
[ 7974 7965 7964 7962 ] final   76.29 input  175.53 | X-H torsion
[ 8008 7997 7996 7995 ] final   18.60 input   59.86 | X-H torsion
[ 10167 10162 10161 10158 ] final   19.84 input  -65.29 | X-H torsion
[ 10718 10713 10712 10709 ] final -109.53 input   66.30 | X-H torsion
[ 10763 10752 10751 10750 ] final  171.39 input  -60.55 | X-H torsion
[ 11005 11000 10999 10996 ] final -123.78 input  -57.11 | X-H torsion

> <Gold.Protein.ActiveResidues>
 VAL166  LYS551  ARG553  GLY616  TRP617  ASP618  TYR619  PRO620  LYS621  CYS622 
 ASP623  PHE694  ASN695  SER759  ASP760  ASP761  ALA762  ILE779  LEU786  VAL792 
 PHE793  MET794  SER795  GLU796  ALA797  LYS798  CYS799  TRP800  GLU811  SER814 

> <Gold.Protein.RotatedAtoms>
  152.4764  134.4832  159.9671 H   0  0  0  0  0  0  0  0  0  0  0  0  # atno 6907 bound_to 6896
  151.4847  133.3532  159.2851 H   0  0  0  0  0  0  0  0  0  0  0  0  # atno 6908 bound_to 6896
  150.8806  134.8223  159.7283 H   0  0  0  0  0  0  0  0  0  0  0  0  # atno 6909 bound_to 6896
  145.7048  139.2594  143.1684 H   0  0  0  0  0  0  0  0  0  0  0  0  # atno 7974 bound_to 7965
  154.9085  140.3010  155.5279 H   0  0  0  0  0  0  0  0  0  0  0  0  # atno 8008 bound_to 7997
  156.3016  140.2393  156.4056 H   0  0  0  0  0  0  0  0  0  0  0  0  # atno 8009 bound_to 7997
  154.8450  140.0412  157.1555 H   0  0  0  0  0  0  0  0  0  0  0  0  # atno 8010 bound_to 7997
  140.5549  143.9443  150.6602 H   0  0  0  0  0  0  0  0  0  0  0  0  # atno 10167 bound_to 10162
  156.0542  130.5769  150.8113 H   0  0  0  0  0  0  0  0  0  0  0  0  # atno 10718 bound_to 10713
  154.4112  135.2756  155.2035 H   0  0  0  0  0  0  0  0  0  0  0  0  # atno 10763 bound_to 10752
  154.4020  135.6042  153.5906 H   0  0  0  0  0  0  0  0  0  0  0  0  # atno 10764 bound_to 10752
  152.9831  135.5928  154.4394 H   0  0  0  0  0  0  0  0  0  0  0  0  # atno 10765 bound_to 10752
  140.9893  134.0562  157.3674 H   0  0  0  0  0  0  0  0  0  0  0  0  # atno 11005 bound_to 11000
  146.0766  140.7811  142.9662 LP  0  0  0  0  0  0  0  0  0  0  0  0  # atno 17320 bound_to 7965
  144.6958  140.3423  143.7197 LP  0  0  0  0  0  0  0  0  0  0  0  0  # atno 17321 bound_to 7965
  140.2878  143.3345  152.1091 LP  0  0  0  0  0  0  0  0  0  0  0  0  # atno 17342 bound_to 10162
  139.5043  144.6773  151.6096 LP  0  0  0  0  0  0  0  0  0  0  0  0  # atno 17343 bound_to 10162
  157.5497  131.0943  150.9713 LP  0  0  0  0  0  0  0  0  0  0  0  0  # atno 17370 bound_to 10713
  156.9976  130.5587  149.5308 LP  0  0  0  0  0  0  0  0  0  0  0  0  # atno 17371 bound_to 10713
  139.8985  135.0154  156.7149 LP  0  0  0  0  0  0  0  0  0  0  0  0  # atno 17394 bound_to 11000
  140.7066  133.9260  155.8057 LP  0  0  0  0  0  0  0  0  0  0  0  0  # atno 17395 bound_to 11000

$$$$
