AV-unprocessed.smi:1743|AV-procd|sdf|7023|dock9
  -GOLD-   22720 8243D 1   1.00000     0.00000
 Structure written by MMmdl.
 38 39  0  0  0  0  0  0  0  0  1 V2000
  151.6177  137.8360  158.6258 C   0  0  0  0  0  0  0  0  0  0  0  0
  150.6406  136.8063  158.7312 O   0  0  0  0  0  0  0  0  0  0  0  0
  150.0098  136.3817  157.5796 C   0  0  0  0  0  0  0  0  0  0  0  0
  149.0493  135.3552  157.6761 C   0  0  0  0  0  0  0  0  0  0  0  0
  148.4026  134.9146  156.5056 C   0  0  0  0  0  0  0  0  0  0  0  0
  148.7442  135.5125  155.2693 C   0  0  0  0  0  0  0  0  0  0  0  0
  148.1495  135.1699  154.0251 N   0  0  0  0  0  0  0  0  0  0  0  0
  147.2720  134.1864  153.7616 C   0  0  0  0  0  0  0  0  0  0  0  0
  146.8589  133.3659  154.5809 O   0  0  0  0  0  0  0  0  0  0  0  0
  146.9124  134.1949  152.4698 N   0  0  0  0  0  0  0  0  0  0  0  0
  145.9898  133.2599  151.8310 C   0  0  2  0  0  0  0  0  0  0  0  0
  146.4305  133.0011  150.3783 C   0  0  0  0  0  0  0  0  0  0  0  0
  145.4415  132.0801  149.6417 C   0  0  0  0  0  0  0  0  0  0  0  0
  143.9952  132.6072  149.7023 C   0  0  2  0  0  0  0  0  0  0  0  0
  143.8689  133.7681  148.9051 O   0  0  0  0  0  0  0  0  0  0  0  0
  143.5627  132.9101  151.1495 C   0  0  0  0  0  0  0  0  0  0  0  0
  144.5600  133.8290  151.8769 C   0  0  0  0  0  0  0  0  0  0  0  0
  149.7063  136.5436  155.2828 C   0  0  0  0  0  0  0  0  0  0  0  0
  150.3314  136.9693  156.4005 N   0  0  0  0  0  0  0  0  0  0  0  0
  152.0179  138.0568  159.6152 H   0  0  0  0  0  0  0  0  0  0  0  0
  151.1869  138.7570  158.2303 H   0  0  0  0  0  0  0  0  0  0  0  0
  152.4515  137.5306  157.9920 H   0  0  0  0  0  0  0  0  0  0  0  0
  148.8090  134.9155  158.6328 H   0  0  0  0  0  0  0  0  0  0  0  0
  147.6524  134.1431  156.5815 H   0  0  0  0  0  0  0  0  0  0  0  0
  148.4684  135.7052  153.2309 H   0  0  0  0  0  0  0  0  0  0  0  0
  147.3132  134.9052  151.8750 H   0  0  0  0  0  0  0  0  0  0  0  0
  145.9883  132.3067  152.3628 H   0  0  0  0  0  0  0  0  0  0  0  0
  146.5129  133.9476  149.8417 H   0  0  0  0  0  0  0  0  0  0  0  0
  147.4250  132.5538  150.3649 H   0  0  0  0  0  0  0  0  0  0  0  0
  145.7530  131.9483  148.6049 H   0  0  0  0  0  0  0  0  0  0  0  0
  145.4768  131.0897  150.0972 H   0  0  0  0  0  0  0  0  0  0  0  0
  143.3252  131.8582  149.2788 H   0  0  0  0  0  0  0  0  0  0  0  0
  142.9839  134.0901  148.9821 H   0  0  0  0  0  0  0  0  0  0  0  0
  142.5661  133.3528  151.1626 H   0  0  0  0  0  0  0  0  0  0  0  0
  143.4843  131.9715  151.6995 H   0  0  0  0  0  0  0  0  0  0  0  0
  144.2455  133.9606  152.9130 H   0  0  0  0  0  0  0  0  0  0  0  0
  144.5405  134.8204  151.4220 H   0  0  0  0  0  0  0  0  0  0  0  0
  149.9888  137.0418  154.3669 H   0  0  0  0  0  0  0  0  0  0  0  0
  1  2  1  0  0  0  0
  1 20  1  0  0  0  0
  1 21  1  0  0  0  0
  1 22  1  0  0  0  0
  2  3  1  0  0  0  0
  3 19  1  0  0  0  0
  3  4  2  0  0  0  0
  4  5  1  0  0  0  0
  4 23  1  0  0  0  0
  5  6  2  0  0  0  0
  5 24  1  0  0  0  0
  6  7  1  0  0  0  0
  6 18  1  0  0  0  0
  7  8  1  0  0  0  0
  7 25  1  0  0  0  0
  8  9  2  0  0  0  0
  8 10  1  0  0  0  0
 10 11  1  0  0  0  0
 10 26  1  0  0  0  0
 11 17  1  0  0  0  0
 11 12  1  0  0  0  0
 11 27  1  0  0  0  0
 12 13  1  0  0  0  0
 12 28  1  0  0  0  0
 12 29  1  0  0  0  0
 13 14  1  0  0  0  0
 13 30  1  0  0  0  0
 13 31  1  0  0  0  0
 14 15  1  0  0  0  0
 14 16  1  0  0  0  0
 14 32  1  0  0  0  0
 15 33  1  0  0  0  0
 16 17  1  0  0  0  0
 16 34  1  0  0  0  0
 16 35  1  0  0  0  0
 17 36  1  0  0  0  0
 17 37  1  0  0  0  0
 18 19  2  0  0  0  0
 18 38  1  0  0  0  0
M  END
> <s_m_source_file>
AV-unprocessed.smi

> <i_m_source_file_index>
1743

> <i_lp_mmshare_version>
43012

> <i_f3d_flags>
0

> <s_epik_input>
W0NIM11PYzFbY0hdW2NIXWMoW2NIXW4xKVtOSF1DKD1PKVtOSF1bQ0BASF0yW0NIMl1bQ0gyXVtDQEBIXShbT0hdKVtDSDJdW0NIMl0y

> <s_epik_cmdline>
J2VwaWtfcHl0aG9uJywgJy1waCcsICc3LjAnLCAnLXRuJywgJzgnLCAnLW1hJywgJzIwMCcsICctbWV0YWxfYmluZGluZycsICctaW1hZScsICc8aW5maWxlLm1hZT4nLCAnLW9tYWUnLCAnPG91dGZpbGUubWFlPic=

> <r_lp_tautomer_probability>
1

> <r_epik_Ionization_Penalty>
9.95686e-05

> <r_epik_Ionization_Penalty_Charging>
0

> <r_epik_Ionization_Penalty_Neutral>
9.95686e-05

> <r_epik_State_Penalty>
-0

> <r_epik_Charging_Adjusted_Penalty>
0

> <i_epik_Tot_Q>
0

> <i_epik_Tot_abs_Q>
0

> <r_epik_Metal_State_Penalty>
-0

> <b_epik_Metal_Only>
0

> <s_lp_Force_Field>
OPLS_2005

> <r_lp_Energy>
13.581

> <b_lp_Chiralities_Consistent>
1

> <s_lp_Variant>
AV-unprocessed.smi:1743-2

> <Gold.Version>
5.8.1

> <Gold.Id.Protein>
6NUR|6NUR_protein|mol2

> <Gold.PLP.Fitness>
40.0173

> <Gold.PLP.PLP>
-28.6890

> <Gold.PLP.part.hbond>
-4.9619

> <Gold.PLP.part.metal>
0.0000

> <Gold.PLP.part.buried>
-5.0211

> <Gold.PLP.part.nonpolar>
-18.9813

> <Gold.PLP.part.repulsive>
0.0694

> <Gold.PLP.ligand.clash>
0.0000

> <Gold.PLP.ligand.torsion>
0.3713

> <Gold.PLP.Chemscore.Hbond>
3.7323

> <Gold.PLP.Chemscore.CHOScore>
0.2904

> <Gold.PLP.Chemscore.Metal>
0.0000

> <Gold.Chemscore.Hbonds>
donor molecule, donor type, donor heavy atom, donor atom, acceptor molecule, acceptor atom, score
      L1  H     7    25       P1  7948  1.00
      L1  H    10    26       P1  7948  0.73
      L1  H    15    33       P1 10186  0.89
      P1  H  6896  6908       L1     2  0.81
      L1  C    18    38       P1  7948  0.28

> <Gold.PLP.Chemscore.Internal.Correction>
0.0030

> <Gold.Rescore>
     Score         DG    S(hbond)    S(metal)    S(lipo)     H(rot)  DE(clash)    DE(int)     intcor
     18.61     -20.28       3.54        0.00      64.12       1.77       0.04       1.64       ----

> <Gold.Chemscore.Fitness>
18.6052

> <Gold.Chemscore.DG>
-20.2791

> <Gold.Chemscore.ZeroCoef>
-5.4800

> <Gold.Chemscore.Hbond>
3.5423

> <Gold.Chemscore.Metal>
0.0000

> <Gold.Chemscore.Lipo>
64.1235

> <Gold.Chemscore.Internal_Hbond>
0.0000

> <Gold.Chemscore.DEClash>
0.0372

> <Gold.Chemscore.DEInternal>
1.6367

> <Gold.Chemscore.Rot>
1.7714

> <Gold.Chemscore.Internal.Correction>
   9.000000E+99

> <Gold.Chemscore.Hbonds>
donor molecule, donor type, donor heavy atom, donor atom, acceptor molecule, acceptor atom, score
      L1  H     7    25       P1  7948  0.93
      L1  H    10    26       P1  7948  0.62
      L1  H    15    33       P1 10186  0.87
      P1  H  6896  6908       L1     2  0.42

> <Gold.Chemscore.Hbond.Weighted>
-11.8314

> <Gold.Chemscore.Metal.Weighted>
-0.0000

> <Gold.Chemscore.Lipo.Weighted>
-7.5024

> <Gold.Chemscore.Internal_Hbond.Weighted>
0.0000

> <Gold.Chemscore.DEClash.Weighted>
0.0372

> <Gold.Chemscore.DEInternal.Weighted>
1.6367

> <Gold.Chemscore.Rot.Weighted>
4.5347

> <Gold.Chemscore.Internal.Correction.Weighted>
   9.000000E+99

> <Gold.Protein.RotatedTorsions>
[ 6907 6896 6895 6894 ] final -149.09 input  -60.11 | X-H torsion
[ 7974 7965 7964 7962 ] final  -55.33 input  175.53 | X-H torsion
[ 8008 7997 7996 7995 ] final  155.94 input   59.86 | X-H torsion
[ 10167 10162 10161 10158 ] final  152.74 input  -65.29 | X-H torsion
[ 10718 10713 10712 10709 ] final   58.83 input   66.30 | X-H torsion
[ 10763 10752 10751 10750 ] final   38.86 input  -60.55 | X-H torsion
[ 11005 11000 10999 10996 ] final -174.30 input  -57.11 | X-H torsion

> <Gold.Protein.ActiveResidues>
 VAL166  LYS551  ARG553  GLY616  TRP617  ASP618  TYR619  PRO620  LYS621  CYS622 
 ASP623  PHE694  ASN695  SER759  ASP760  ASP761  ALA762  ILE779  LEU786  VAL792 
 PHE793  MET794  SER795  GLU796  ALA797  LYS798  CYS799  TRP800  GLU811  SER814 

> <Gold.Protein.RotatedAtoms>
  151.1792  133.4736  159.2593 H   0  0  0  0  0  0  0  0  0  0  0  0  # atno 6907 bound_to 6896
  151.1277  135.0113  159.8578 H   0  0  0  0  0  0  0  0  0  0  0  0  # atno 6908 bound_to 6896
  152.5459  134.1697  159.8645 H   0  0  0  0  0  0  0  0  0  0  0  0  # atno 6909 bound_to 6896
  145.8754  140.8184  142.9867 H   0  0  0  0  0  0  0  0  0  0  0  0  # atno 7974 bound_to 7965
  156.2450  140.1926  156.6879 H   0  0  0  0  0  0  0  0  0  0  0  0  # atno 8008 bound_to 7997
  154.6273  140.0600  156.9715 H   0  0  0  0  0  0  0  0  0  0  0  0  # atno 8009 bound_to 7997
  155.1766  140.3273  155.4385 H   0  0  0  0  0  0  0  0  0  0  0  0  # atno 8010 bound_to 7997
  139.4831  144.5332  151.7688 H   0  0  0  0  0  0  0  0  0  0  0  0  # atno 10167 bound_to 10162
  157.5627  130.8848  149.9137 H   0  0  0  0  0  0  0  0  0  0  0  0  # atno 10718 bound_to 10713
  152.9986  135.6237  154.2372 H   0  0  0  0  0  0  0  0  0  0  0  0  # atno 10763 bound_to 10752
  154.2113  135.2800  155.2959 H   0  0  0  0  0  0  0  0  0  0  0  0  # atno 10764 bound_to 10752
  154.5604  135.5707  153.7061 H   0  0  0  0  0  0  0  0  0  0  0  0  # atno 10765 bound_to 10752
  140.4760  134.6120  157.4901 H   0  0  0  0  0  0  0  0  0  0  0  0  # atno 11005 bound_to 11000
  144.6726  140.1303  143.7444 LP  0  0  0  0  0  0  0  0  0  0  0  0  # atno 17320 bound_to 7965
  145.9087  139.2474  143.1450 LP  0  0  0  0  0  0  0  0  0  0  0  0  # atno 17321 bound_to 7965
  140.4861  144.1378  150.5941 LP  0  0  0  0  0  0  0  0  0  0  0  0  # atno 17342 bound_to 10162
  140.4223  143.2606  151.9699 LP  0  0  0  0  0  0  0  0  0  0  0  0  # atno 17343 bound_to 10162
  156.0678  130.3689  150.0840 LP  0  0  0  0  0  0  0  0  0  0  0  0  # atno 17370 bound_to 10713
  156.9002  130.9618  151.3577 LP  0  0  0  0  0  0  0  0  0  0  0  0  # atno 17371 bound_to 10713
  139.9855  134.7068  155.9781 LP  0  0  0  0  0  0  0  0  0  0  0  0  # atno 17394 bound_to 11000
  141.1554  133.6543  156.4145 LP  0  0  0  0  0  0  0  0  0  0  0  0  # atno 17395 bound_to 11000

$$$$
