AV-unprocessed.smi:462|AV-procd|sdf|2632|dock3
  -GOLD-   2262023 43D 1   1.00000     0.00000
 Structure written by MMmdl.
 46 48  0  0  0  0  0  0  0  0  1 V2000
  144.5953  144.1264  158.3945 C   0  0  0  0  0  0  0  0  0  0  0  0
  145.5925  143.2441  157.9024 O   0  0  0  0  0  0  0  0  0  0  0  0
  145.7497  143.1276  156.5364 C   0  0  0  0  0  0  0  0  0  0  0  0
  144.9358  143.8004  155.5904 C   0  0  0  0  0  0  0  0  0  0  0  0
  145.1581  143.6333  154.2112 C   0  0  0  0  0  0  0  0  0  0  0  0
  146.1920  142.7939  153.7621 C   0  0  0  0  0  0  0  0  0  0  0  0
  147.0054  142.1213  154.6919 C   0  0  0  0  0  0  0  0  0  0  0  0
  146.7903  142.2848  156.0834 C   0  0  0  0  0  0  0  0  0  0  0  0
  147.5458  141.6615  157.0524 O   0  0  0  0  0  0  0  0  0  0  0  0
  148.6994  140.9306  156.6624 C   0  0  0  0  0  0  0  0  0  0  0  0
  149.8987  141.8911  156.6120 C   0  0  0  0  0  0  0  0  0  0  0  0
  151.0961  141.3134  157.2139 N   0  0  0  0  0  0  0  0  0  0  0  0
  151.8247  140.2194  156.8403 C   0  0  0  0  0  0  0  0  0  0  0  0
  151.4703  139.2992  155.6841 C   0  0  0  0  0  0  0  0  0  0  0  0
  152.7150  138.5760  155.1272 C   0  0  0  0  0  0  0  0  0  0  0  0
  150.4062  138.2769  156.1173 C   0  0  0  0  0  0  0  0  0  0  0  0
  150.9643  139.9842  154.5549 O   0  0  0  0  0  0  0  0  0  0  0  0
  152.8335  139.9136  157.6630 N   0  0  0  0  0  0  0  0  0  0  0  0
  152.8026  140.9228  158.6006 C   0  0  0  0  0  0  0  0  0  0  0  0
  153.6412  141.1699  159.7110 C   0  0  0  0  0  0  0  0  0  0  0  0
  153.4076  142.2799  160.5487 C   0  0  0  0  0  0  0  0  0  0  0  0
  152.3316  143.1529  160.2903 C   0  0  0  0  0  0  0  0  0  0  0  0
  151.4823  142.9192  159.1919 C   0  0  0  0  0  0  0  0  0  0  0  0
  151.7248  141.8139  158.3528 C   0  0  0  0  0  0  0  0  0  0  0  0
  144.6150  144.1161  159.4843 H   0  0  0  0  0  0  0  0  0  0  0  0
  143.5979  143.8166  158.0796 H   0  0  0  0  0  0  0  0  0  0  0  0
  144.7754  145.1526  158.0717 H   0  0  0  0  0  0  0  0  0  0  0  0
  144.1325  144.4522  155.8979 H   0  0  0  0  0  0  0  0  0  0  0  0
  144.5340  144.1502  153.4973 H   0  0  0  0  0  0  0  0  0  0  0  0
  146.3617  142.6655  152.7032 H   0  0  0  0  0  0  0  0  0  0  0  0
  147.7891  141.4833  154.3125 H   0  0  0  0  0  0  0  0  0  0  0  0
  148.8980  140.1331  157.3796 H   0  0  0  0  0  0  0  0  0  0  0  0
  148.5431  140.4744  155.6843 H   0  0  0  0  0  0  0  0  0  0  0  0
  150.1229  142.1358  155.5733 H   0  0  0  0  0  0  0  0  0  0  0  0
  149.6637  142.8422  157.0863 H   0  0  0  0  0  0  0  0  0  0  0  0
  153.1770  137.9331  155.8773 H   0  0  0  0  0  0  0  0  0  0  0  0
  153.4712  139.2872  154.7918 H   0  0  0  0  0  0  0  0  0  0  0  0
  152.4629  137.9399  154.2777 H   0  0  0  0  0  0  0  0  0  0  0  0
  150.7630  137.6689  156.9495 H   0  0  0  0  0  0  0  0  0  0  0  0
  150.1463  137.5992  155.3033 H   0  0  0  0  0  0  0  0  0  0  0  0
  149.4890  138.7692  156.4418 H   0  0  0  0  0  0  0  0  0  0  0  0
  150.0913  139.6684  154.3799 H   0  0  0  0  0  0  0  0  0  0  0  0
  154.4666  140.5048  159.9171 H   0  0  0  0  0  0  0  0  0  0  0  0
  154.0562  142.4614  161.3932 H   0  0  0  0  0  0  0  0  0  0  0  0
  152.1583  144.0023  160.9347 H   0  0  0  0  0  0  0  0  0  0  0  0
  150.6597  143.5894  158.9915 H   0  0  0  0  0  0  0  0  0  0  0  0
  1  2  1  0  0  0  0
  1 25  1  0  0  0  0
  1 26  1  0  0  0  0
  1 27  1  0  0  0  0
  2  3  1  0  0  0  0
  3  8  1  0  0  0  0
  3  4  2  0  0  0  0
  4  5  1  0  0  0  0
  4 28  1  0  0  0  0
  5  6  2  0  0  0  0
  5 29  1  0  0  0  0
  6  7  1  0  0  0  0
  6 30  1  0  0  0  0
  7  8  2  0  0  0  0
  7 31  1  0  0  0  0
  8  9  1  0  0  0  0
  9 10  1  0  0  0  0
 10 11  1  0  0  0  0
 10 32  1  0  0  0  0
 10 33  1  0  0  0  0
 11 12  1  0  0  0  0
 11 34  1  0  0  0  0
 11 35  1  0  0  0  0
 12 24  1  0  0  0  0
 12 13  1  0  0  0  0
 13 14  1  0  0  0  0
 13 18  2  0  0  0  0
 14 15  1  0  0  0  0
 14 16  1  0  0  0  0
 14 17  1  0  0  0  0
 15 36  1  0  0  0  0
 15 37  1  0  0  0  0
 15 38  1  0  0  0  0
 16 39  1  0  0  0  0
 16 40  1  0  0  0  0
 16 41  1  0  0  0  0
 17 42  1  0  0  0  0
 18 19  1  0  0  0  0
 19 24  2  0  0  0  0
 19 20  1  0  0  0  0
 20 21  2  0  0  0  0
 20 43  1  0  0  0  0
 21 22  1  0  0  0  0
 21 44  1  0  0  0  0
 22 23  2  0  0  0  0
 22 45  1  0  0  0  0
 23 24  1  0  0  0  0
 23 46  1  0  0  0  0
M  END
> <s_m_source_file>
AV-unprocessed.smi

> <i_m_source_file_index>
462

> <i_lp_mmshare_version>
43012

> <i_f3d_flags>
0

> <s_epik_input>
W0NIM11PYzFbY0hdW2NIXVtjSF1bY0hdYzFPW0NIMl1bQ0gyXW4oYyhuMilDKFtDSDNdKShbQ0gzXSlbT0hdKWMoYzIzKVtjSF1bY0hdW2NIXVtjSF0z

> <s_epik_cmdline>
J2VwaWtfcHl0aG9uJywgJy1waCcsICc3LjAnLCAnLXRuJywgJzgnLCAnLW1hJywgJzIwMCcsICctbWV0YWxfYmluZGluZycsICctaW1hZScsICc8aW5maWxlLm1hZT4nLCAnLW9tYWUnLCAnPG91dGZpbGUubWFlPic=

> <r_lp_tautomer_probability>
1

> <r_epik_Ionization_Penalty>
0.0665975

> <r_epik_Ionization_Penalty_Charging>
0

> <r_epik_Ionization_Penalty_Neutral>
0.0665975

> <r_epik_State_Penalty>
0.0581545

> <r_epik_Charging_Adjusted_Penalty>
0.0581545

> <i_epik_Tot_Q>
0

> <i_epik_Tot_abs_Q>
0

> <r_epik_Metal_State_Penalty>
6.11011e-05

> <b_epik_Metal_Only>
0

> <s_lp_Force_Field>
OPLS_2005

> <r_lp_Energy>
19.5197

> <b_lp_Chiralities_Consistent>
1

> <s_lp_Variant>
AV-unprocessed.smi:462-1

> <Gold.Version>
5.8.1

> <Gold.Id.Protein>
6NUR|6NUR_protein|mol2

> <Gold.PLP.Fitness>
48.5202

> <Gold.PLP.PLP>
-45.4709

> <Gold.PLP.part.hbond>
-2.0000

> <Gold.PLP.part.metal>
0.0000

> <Gold.PLP.part.buried>
-5.5650

> <Gold.PLP.part.nonpolar>
-37.4486

> <Gold.PLP.part.repulsive>
0.2358

> <Gold.PLP.ligand.clash>
0.0000

> <Gold.PLP.ligand.torsion>
1.5833

> <Gold.PLP.Chemscore.Hbond>
2.0000

> <Gold.PLP.Chemscore.CHOScore>
0.0000

> <Gold.PLP.Chemscore.Metal>
0.0000

> <Gold.Chemscore.Hbonds>
donor molecule, donor type, donor heavy atom, donor atom, acceptor molecule, acceptor atom, score
      P1  H  7989  7998       L1    17  1.00
      P1  H  7997  8008       L1    18  1.00

> <Gold.PLP.Chemscore.Internal.Correction>
0.2160

> <Gold.Rescore>
     Score         DG    S(hbond)    S(metal)    S(lipo)     H(rot)  DE(clash)    DE(int)     intcor
     16.14     -18.65       1.53        0.00     118.16       2.25       0.08       2.43       ----

> <Gold.Chemscore.Fitness>
16.1364

> <Gold.Chemscore.DG>
-18.6535

> <Gold.Chemscore.ZeroCoef>
-5.4800

> <Gold.Chemscore.Hbond>
1.5326

> <Gold.Chemscore.Metal>
0.0000

> <Gold.Chemscore.Lipo>
118.1630

> <Gold.Chemscore.Internal_Hbond>
0.0000

> <Gold.Chemscore.DEClash>
0.0837

> <Gold.Chemscore.DEInternal>
2.4334

> <Gold.Chemscore.Rot>
2.2541

> <Gold.Chemscore.Internal.Correction>
   9.000000E+99

> <Gold.Chemscore.Hbonds>
donor molecule, donor type, donor heavy atom, donor atom, acceptor molecule, acceptor atom, score
      P1  H  7989  7998       L1    17  0.90
      P1  H  7997  8008       L1    18  0.35

> <Gold.Chemscore.Hbond.Weighted>
-5.1189

> <Gold.Chemscore.Metal.Weighted>
-0.0000

> <Gold.Chemscore.Lipo.Weighted>
-13.8251

> <Gold.Chemscore.Internal_Hbond.Weighted>
0.0000

> <Gold.Chemscore.DEClash.Weighted>
0.0837

> <Gold.Chemscore.DEInternal.Weighted>
2.4334

> <Gold.Chemscore.Rot.Weighted>
5.7705

> <Gold.Chemscore.Internal.Correction.Weighted>
   9.000000E+99

> <Gold.Protein.RotatedTorsions>
[ 6907 6896 6895 6894 ] final -106.06 input  -60.11 | X-H torsion
[ 7974 7965 7964 7962 ] final   59.28 input  175.53 | X-H torsion
[ 8008 7997 7996 7995 ] final  -59.95 input   59.86 | X-H torsion
[ 10167 10162 10161 10158 ] final  113.60 input  -65.29 | X-H torsion
[ 10718 10713 10712 10709 ] final  171.91 input   66.30 | X-H torsion
[ 10763 10752 10751 10750 ] final    4.06 input  -60.55 | X-H torsion
[ 11005 11000 10999 10996 ] final   52.32 input  -57.11 | X-H torsion

> <Gold.Protein.ActiveResidues>
 VAL166  LYS551  ARG553  GLY616  TRP617  ASP618  TYR619  PRO620  LYS621  CYS622 
 ASP623  PHE694  ASN695  SER759  ASP760  ASP761  ALA762  ILE779  LEU786  VAL792 
 PHE793  MET794  SER795  GLU796  ALA797  LYS798  CYS799  TRP800  GLU811  SER814 

> <Gold.Protein.RotatedAtoms>
  150.7369  134.0033  159.3645 H   0  0  0  0  0  0  0  0  0  0  0  0  # atno 6907 bound_to 6896
  151.7988  135.0712  160.0407 H   0  0  0  0  0  0  0  0  0  0  0  0  # atno 6908 bound_to 6896
  152.3155  133.5762  159.5746 H   0  0  0  0  0  0  0  0  0  0  0  0  # atno 6909 bound_to 6896
  145.9089  139.3639  143.0547 H   0  0  0  0  0  0  0  0  0  0  0  0  # atno 7974 bound_to 7965
  154.4376  140.1050  156.6197 H   0  0  0  0  0  0  0  0  0  0  0  0  # atno 8008 bound_to 7997
  155.5721  140.3489  155.4499 H   0  0  0  0  0  0  0  0  0  0  0  0  # atno 8009 bound_to 7997
  156.0382  140.1276  157.0174 H   0  0  0  0  0  0  0  0  0  0  0  0  # atno 8010 bound_to 7997
  139.6449  144.7126  151.2162 H   0  0  0  0  0  0  0  0  0  0  0  0  # atno 10167 bound_to 10162
  156.9867  131.0135  151.2867 H   0  0  0  0  0  0  0  0  0  0  0  0  # atno 10718 bound_to 10713
  153.2758  135.6936  153.7434 H   0  0  0  0  0  0  0  0  0  0  0  0  # atno 10763 bound_to 10752
  153.6441  135.3388  155.3081 H   0  0  0  0  0  0  0  0  0  0  0  0  # atno 10764 bound_to 10752
  154.8479  135.4438  154.1795 H   0  0  0  0  0  0  0  0  0  0  0  0  # atno 10765 bound_to 10752
  140.0859  134.5275  155.8900 H   0  0  0  0  0  0  0  0  0  0  0  0  # atno 11005 bound_to 11000
  145.8696  140.9427  143.0657 LP  0  0  0  0  0  0  0  0  0  0  0  0  # atno 17320 bound_to 7965
  144.6741  140.0638  143.7475 LP  0  0  0  0  0  0  0  0  0  0  0  0  # atno 17321 bound_to 7965
  140.7510  143.6247  150.8479 LP  0  0  0  0  0  0  0  0  0  0  0  0  # atno 17342 bound_to 10162
  139.9889  143.5869  152.2917 LP  0  0  0  0  0  0  0  0  0  0  0  0  # atno 17343 bound_to 10162
  157.5488  130.8168  149.8119 LP  0  0  0  0  0  0  0  0  0  0  0  0  # atno 17370 bound_to 10713
  156.0223  130.3791  150.1925 LP  0  0  0  0  0  0  0  0  0  0  0  0  # atno 17371 bound_to 10713
  141.2062  133.6653  156.6229 LP  0  0  0  0  0  0  0  0  0  0  0  0  # atno 17394 bound_to 11000
  140.3421  134.7840  157.4405 LP  0  0  0  0  0  0  0  0  0  0  0  0  # atno 17395 bound_to 11000

$$$$
