AV-unprocessed.smi:212|AV-procd|sdf|1618|dock9
  -GOLD-   2262019553D 1   1.00000     0.00000
 Structure written by MMmdl.
 65 68  0  0  0  0  0  0  0  0  2 V2000
  153.1279  139.7571  158.4863 C   0  0  0  0  0  0  0  0  0  0  0  0
  151.5928  139.8112  158.5637 C   0  0  1  0  0  0  0  0  0  0  0  0
  151.0846  141.1610  159.1124 C   0  0  0  0  0  0  0  0  0  0  0  0
  151.2545  142.2523  158.1180 N   0  3  2  0  0  0  0  0  0  0  0  0
  150.9105  143.5963  158.6510 C   0  0  0  0  0  0  0  0  0  0  0  0
  152.1021  144.2570  159.3812 C   0  0  0  0  0  0  0  0  0  0  0  0
  151.6219  145.4735  160.1899 C   0  0  0  0  0  0  0  0  0  0  0  0
  152.8609  143.2768  160.2946 C   0  0  0  0  0  0  0  0  0  0  0  0
  153.0045  144.7441  158.4071 O   0  0  0  0  0  0  0  0  0  0  0  0
  150.5924  141.9435  156.8261 C   0  0  0  0  0  0  0  0  0  0  0  0
  151.0826  140.5955  156.2654 C   0  0  0  0  0  0  0  0  0  0  0  0
  150.9752  139.5307  157.2646 N   0  0  0  0  0  0  0  0  0  0  0  0
  149.8454  138.7761  157.2960 C   0  0  0  0  0  0  0  0  0  0  0  0
  148.9873  138.7939  156.2414 N   0  0  0  0  0  0  0  0  0  0  0  0
  147.8655  138.0688  156.2704 C   0  0  0  0  0  0  0  0  0  0  0  0
  147.4162  137.2668  157.2368 N   0  0  0  0  0  0  0  0  0  0  0  0
  148.2777  137.2332  158.2927 C   0  0  0  0  0  0  0  0  0  0  0  0
  149.5015  137.9517  158.4045 C   0  0  0  0  0  0  0  0  0  0  0  0
  150.1092  137.6636  159.6209 N   0  0  0  0  0  0  0  0  0  0  0  0
  149.2883  136.8296  160.1986 C   0  0  0  0  0  0  0  0  0  0  0  0
  148.1702  136.5039  159.4641 N   0  0  0  0  0  0  0  0  0  0  0  0
  147.0948  135.6149  159.8646 C   0  0  0  0  0  0  0  0  0  0  0  0
  146.2186  136.1314  161.0411 C   0  0  2  0  0  0  0  0  0  0  0  0
  147.1088  136.4194  162.2705 C   0  0  0  0  0  0  0  0  0  0  0  0
  146.8951  137.7250  162.7658 O   0  0  0  0  0  0  0  0  0  0  0  0
  145.0188  135.2322  161.4620 C   0  0  2  0  0  0  0  0  0  0  0  0
  144.0401  135.8064  162.4693 C   0  0  0  0  0  0  0  0  0  0  0  0
  143.2466  134.5675  162.8843 C   0  0  0  0  0  0  0  0  0  0  0  0
  144.0901  133.4431  162.6393 O   0  0  0  0  0  0  0  0  0  0  0  0
  145.3287  133.8702  162.0845 C   0  0  0  0  0  0  0  0  0  0  0  0
  153.5719  139.9038  159.4712 H   0  0  0  0  0  0  0  0  0  0  0  0
  153.5339  140.5237  157.8261 H   0  0  0  0  0  0  0  0  0  0  0  0
  153.4640  138.7875  158.1175 H   0  0  0  0  0  0  0  0  0  0  0  0
  151.2949  139.0504  159.2848 H   0  0  0  0  0  0  0  0  0  0  0  0
  150.0265  141.0776  159.3659 H   0  0  0  0  0  0  0  0  0  0  0  0
  151.6076  141.4080  160.0369 H   0  0  0  0  0  0  0  0  0  0  0  0
  150.5823  144.2469  157.8384 H   0  0  0  0  0  0  0  0  0  0  0  0
  150.0548  143.5257  159.3247 H   0  0  0  0  0  0  0  0  0  0  0  0
  150.9183  145.1765  160.9683 H   0  0  0  0  0  0  0  0  0  0  0  0
  151.1189  146.2030  159.5538 H   0  0  0  0  0  0  0  0  0  0  0  0
  152.4541  145.9826  160.6779 H   0  0  0  0  0  0  0  0  0  0  0  0
  152.1990  142.8496  161.0487 H   0  0  0  0  0  0  0  0  0  0  0  0
  153.6769  143.7750  160.8191 H   0  0  0  0  0  0  0  0  0  0  0  0
  153.2979  142.4513  159.7320 H   0  0  0  0  0  0  0  0  0  0  0  0
  152.9432  144.1969  157.6386 H   0  0  0  0  0  0  0  0  0  0  0  0
  149.5114  141.9256  156.9708 H   0  0  0  0  0  0  0  0  0  0  0  0
  150.8039  142.7348  156.1058 H   0  0  0  0  0  0  0  0  0  0  0  0
  150.5378  140.3370  155.3565 H   0  0  0  0  0  0  0  0  0  0  0  0
  152.1276  140.6814  155.9675 H   0  0  0  0  0  0  0  0  0  0  0  0
  147.2377  138.1411  155.3945 H   0  0  0  0  0  0  0  0  0  0  0  0
  149.4829  136.4214  161.1797 H   0  0  0  0  0  0  0  0  0  0  0  0
  146.4751  135.3996  158.9939 H   0  0  0  0  0  0  0  0  0  0  0  0
  147.5600  134.6668  160.1353 H   0  0  0  0  0  0  0  0  0  0  0  0
  145.7898  137.0890  160.7430 H   0  0  0  0  0  0  0  0  0  0  0  0
  146.8871  135.7261  163.0823 H   0  0  0  0  0  0  0  0  0  0  0  0
  148.1635  136.2950  162.0232 H   0  0  0  0  0  0  0  0  0  0  0  0
  146.9641  137.7044  163.7082 H   0  0  0  0  0  0  0  0  0  0  0  0
  144.4497  135.0056  160.5587 H   0  0  0  0  0  0  0  0  0  0  0  0
  144.5572  136.2090  163.3390 H   0  0  0  0  0  0  0  0  0  0  0  0
  143.4086  136.5925  162.0549 H   0  0  0  0  0  0  0  0  0  0  0  0
  142.9410  134.6098  163.9300 H   0  0  0  0  0  0  0  0  0  0  0  0
  142.3487  134.4639  162.2743 H   0  0  0  0  0  0  0  0  0  0  0  0
  145.7058  133.1524  161.3556 H   0  0  0  0  0  0  0  0  0  0  0  0
  146.0460  133.9301  162.8979 H   0  0  0  0  0  0  0  0  0  0  0  0
  152.2426  142.2915  157.9113 H   0  0  0  0  0  0  0  0  0  0  0  0
  1  2  1  0  0  0  0
  1 31  1  0  0  0  0
  1 32  1  0  0  0  0
  1 33  1  0  0  0  0
  2 12  1  0  0  0  0
  2  3  1  0  0  0  0
  2 34  1  0  0  0  0
  3  4  1  0  0  0  0
  3 35  1  0  0  0  0
  3 36  1  0  0  0  0
  4  5  1  0  0  0  0
  4 10  1  0  0  0  0
  4 65  1  0  0  0  0
  5  6  1  0  0  0  0
  5 37  1  0  0  0  0
  5 38  1  0  0  0  0
  6  7  1  0  0  0  0
  6  8  1  0  0  0  0
  6  9  1  0  0  0  0
  7 39  1  0  0  0  0
  7 40  1  0  0  0  0
  7 41  1  0  0  0  0
  8 42  1  0  0  0  0
  8 43  1  0  0  0  0
  8 44  1  0  0  0  0
  9 45  1  0  0  0  0
 10 11  1  0  0  0  0
 10 46  1  0  0  0  0
 10 47  1  0  0  0  0
 11 12  1  0  0  0  0
 11 48  1  0  0  0  0
 11 49  1  0  0  0  0
 12 13  1  0  0  0  0
 13 18  1  0  0  0  0
 13 14  2  0  0  0  0
 14 15  1  0  0  0  0
 15 16  2  0  0  0  0
 15 50  1  0  0  0  0
 16 17  1  0  0  0  0
 17 21  1  0  0  0  0
 17 18  2  0  0  0  0
 18 19  1  0  0  0  0
 19 20  2  0  0  0  0
 20 21  1  0  0  0  0
 20 51  1  0  0  0  0
 21 22  1  0  0  0  0
 22 23  1  0  0  0  0
 22 52  1  0  0  0  0
 22 53  1  0  0  0  0
 23 24  1  0  0  0  0
 23 26  1  0  0  0  0
 23 54  1  0  0  0  0
 24 25  1  0  0  0  0
 24 55  1  0  0  0  0
 24 56  1  0  0  0  0
 25 57  1  0  0  0  0
 26 30  1  0  0  0  0
 26 27  1  0  0  0  0
 26 58  1  0  0  0  0
 27 28  1  0  0  0  0
 27 59  1  0  0  0  0
 27 60  1  0  0  0  0
 28 29  1  0  0  0  0
 28 61  1  0  0  0  0
 28 62  1  0  0  0  0
 29 30  1  0  0  0  0
 30 63  1  0  0  0  0
 30 64  1  0  0  0  0
M  CHG  1   4   1
M  END
> <s_m_source_file>
AV-unprocessed.smi

> <i_m_source_file_index>
212

> <i_lp_mmshare_version>
43012

> <i_f3d_flags>
0

> <s_epik_input>
W0NIM11bQ0BASF0xW0NIMl1OKFtDSDJdQyhbQ0gzXSkoW0NIM10pW09IXSlbQ0gyXVtDSDJdTjFjKG5bY0hdbjIpYyhjMjMpbltjSF1uM1tDSDJdW0NASF0oW0NIMl1bT0hdKVtDQEBIXTRbQ0gyXVtDSDJdT1tDSDJdNA==

> <s_epik_cmdline>
J2VwaWtfcHl0aG9uJywgJy1waCcsICc3LjAnLCAnLXRuJywgJzgnLCAnLW1hJywgJzIwMCcsICctbWV0YWxfYmluZGluZycsICctaW1hZScsICc8aW5maWxlLm1hZT4nLCAnLW9tYWUnLCAnPG91dGZpbGUubWFlPic=

> <r_lp_tautomer_probability>
1

> <r_epik_Ionization_Penalty>
0.00182193

> <r_epik_Ionization_Penalty_Charging>
0.00173996

> <r_epik_Ionization_Penalty_Neutral>
8.19718e-05

> <r_epik_State_Penalty>
-0

> <r_epik_Charging_Adjusted_Penalty>
0.00173996

> <i_epik_Tot_Q>
1

> <i_epik_Tot_abs_Q>
1

> <r_epik_Metal_State_Penalty>
-0

> <b_epik_Metal_Only>
0

> <s_lp_Force_Field>
OPLS_2005

> <r_lp_Energy>
59.4292

> <b_lp_Chiralities_Consistent>
1

> <s_lp_Variant>
AV-unprocessed.smi:212-2

> <Gold.Version>
5.8.1

> <Gold.Id.Protein>
6NUR|6NUR_protein|mol2

> <Gold.PLP.Fitness>
45.6148

> <Gold.PLP.PLP>
-46.3795

> <Gold.PLP.part.hbond>
-3.0000

> <Gold.PLP.part.metal>
0.0000

> <Gold.PLP.part.buried>
-1.5821

> <Gold.PLP.part.nonpolar>
-40.7825

> <Gold.PLP.part.repulsive>
0.1471

> <Gold.PLP.ligand.clash>
0.0000

> <Gold.PLP.ligand.torsion>
1.4752

> <Gold.PLP.Chemscore.Hbond>
0.3327

> <Gold.PLP.Chemscore.CHOScore>
0.0000

> <Gold.PLP.Chemscore.Metal>
0.0000

> <Gold.Chemscore.Hbonds>
donor molecule, donor type, donor heavy atom, donor atom, acceptor molecule, acceptor atom, score
      P1  H  6931  6943       L1    25  0.04
      P1  H  6934  6947       L1    25  0.19

> <Gold.PLP.Chemscore.Internal.Correction>
1.1876

> <Gold.Rescore>
     Score         DG    S(hbond)    S(metal)    S(lipo)     H(rot)  DE(clash)    DE(int)     intcor
      7.14     -10.14       0.30        0.00     105.58       3.40       0.12       2.88       ----

> <Gold.Chemscore.Fitness>
7.1438

> <Gold.Chemscore.DG>
-10.1417

> <Gold.Chemscore.ZeroCoef>
-5.4800

> <Gold.Chemscore.Hbond>
0.3023

> <Gold.Chemscore.Metal>
0.0000

> <Gold.Chemscore.Lipo>
105.5770

> <Gold.Chemscore.Internal_Hbond>
0.0000

> <Gold.Chemscore.DEClash>
0.1214

> <Gold.Chemscore.DEInternal>
2.8764

> <Gold.Chemscore.Rot>
3.3986

> <Gold.Chemscore.Internal.Correction>
   9.000000E+99

> <Gold.Chemscore.Hbonds>
donor molecule, donor type, donor heavy atom, donor atom, acceptor molecule, acceptor atom, score
      P1  H  6934  6947       L1    25  0.08

> <Gold.Chemscore.Hbond.Weighted>
-1.0096

> <Gold.Chemscore.Metal.Weighted>
-0.0000

> <Gold.Chemscore.Lipo.Weighted>
-12.3525

> <Gold.Chemscore.Internal_Hbond.Weighted>
0.0000

> <Gold.Chemscore.DEClash.Weighted>
0.1214

> <Gold.Chemscore.DEInternal.Weighted>
2.8764

> <Gold.Chemscore.Rot.Weighted>
8.7005

> <Gold.Chemscore.Internal.Correction.Weighted>
   9.000000E+99

> <Gold.Protein.RotatedTorsions>
[ 6907 6896 6895 6894 ] final -178.77 input  -60.11 | X-H torsion
[ 7974 7965 7964 7962 ] final -151.34 input  175.53 | X-H torsion
[ 8008 7997 7996 7995 ] final  -13.36 input   59.86 | X-H torsion
[ 10167 10162 10161 10158 ] final  -50.72 input  -65.29 | X-H torsion
[ 10718 10713 10712 10709 ] final  153.69 input   66.30 | X-H torsion
[ 10763 10752 10751 10750 ] final   37.43 input  -60.55 | X-H torsion
[ 11005 11000 10999 10996 ] final  -65.81 input  -57.11 | X-H torsion

> <Gold.Protein.ActiveResidues>
 VAL166  LYS551  ARG553  GLY616  TRP617  ASP618  TYR619  PRO620  LYS621  CYS622 
 ASP623  PHE694  ASN695  SER759  ASP760  ASP761  ALA762  ILE779  LEU786  VAL792 
 PHE793  MET794  SER795  GLU796  ALA797  LYS798  CYS799  TRP800  GLU811  SER814 

> <Gold.Protein.RotatedAtoms>
  151.6426  133.3325  159.3133 H   0  0  0  0  0  0  0  0  0  0  0  0  # atno 6907 bound_to 6896
  150.8000  134.7091  159.6603 H   0  0  0  0  0  0  0  0  0  0  0  0  # atno 6908 bound_to 6896
  152.4091  134.6159  160.0089 H   0  0  0  0  0  0  0  0  0  0  0  0  # atno 6909 bound_to 6896
  144.7855  140.4810  143.5809 H   0  0  0  0  0  0  0  0  0  0  0  0  # atno 7974 bound_to 7965
  154.5299  140.2251  155.8823 H   0  0  0  0  0  0  0  0  0  0  0  0  # atno 8008 bound_to 7997
  156.1752  140.3113  155.9011 H   0  0  0  0  0  0  0  0  0  0  0  0  # atno 8009 bound_to 7997
  155.3473  140.0454  157.3036 H   0  0  0  0  0  0  0  0  0  0  0  0  # atno 8010 bound_to 7997
  140.6624  143.2647  151.4400 H   0  0  0  0  0  0  0  0  0  0  0  0  # atno 10167 bound_to 10162
  157.2415  131.0760  151.1789 H   0  0  0  0  0  0  0  0  0  0  0  0  # atno 10718 bound_to 10713
  153.0038  135.6278  154.2144 H   0  0  0  0  0  0  0  0  0  0  0  0  # atno 10763 bound_to 10752
  154.1888  135.2809  155.3030 H   0  0  0  0  0  0  0  0  0  0  0  0  # atno 10764 bound_to 10752
  154.5776  135.5657  153.7214 H   0  0  0  0  0  0  0  0  0  0  0  0  # atno 10765 bound_to 10752
  141.1465  133.6688  156.6043 H   0  0  0  0  0  0  0  0  0  0  0  0  # atno 11005 bound_to 11000
  145.5933  139.1497  143.3170 LP  0  0  0  0  0  0  0  0  0  0  0  0  # atno 17320 bound_to 7965
  146.2085  140.6058  142.9070 LP  0  0  0  0  0  0  0  0  0  0  0  0  # atno 17321 bound_to 7965
  139.5861  144.1601  152.2031 LP  0  0  0  0  0  0  0  0  0  0  0  0  # atno 17342 bound_to 10162
  140.0941  144.5596  150.7034 LP  0  0  0  0  0  0  0  0  0  0  0  0  # atno 17343 bound_to 10162
  157.3374  130.7016  149.6361 LP  0  0  0  0  0  0  0  0  0  0  0  0  # atno 17370 bound_to 10713
  155.9670  130.4290  150.4812 LP  0  0  0  0  0  0  0  0  0  0  0  0  # atno 17371 bound_to 10713
  140.3664  134.7643  157.4569 LP  0  0  0  0  0  0  0  0  0  0  0  0  # atno 17394 bound_to 11000
  140.0745  134.5817  155.8606 LP  0  0  0  0  0  0  0  0  0  0  0  0  # atno 17395 bound_to 11000

$$$$
