AV-unprocessed.smi:515|AV-procd|sdf|2781|dock10
  -GOLD-   2262023253D 1   1.00000     0.00000
 Structure written by MMmdl.
 48 50  0  0  0  0  0  0  0  0  2 V2000
  151.8049  131.0837  155.8574 C   0  0  0  0  0  0  0  0  0  0  0  0
  151.7614  131.3689  157.3600 C   0  0  0  0  0  0  0  0  0  0  0  0
  151.0833  132.5947  157.5689 O   0  0  0  0  0  0  0  0  0  0  0  0
  149.7403  132.5708  157.1156 C   0  0  0  0  0  0  0  0  0  0  0  0
  149.1618  133.9928  157.1453 C   0  0  0  0  0  0  0  0  0  0  0  0
  149.8360  134.8793  156.2020 N   0  0  0  0  0  0  0  0  0  0  0  0
  149.9832  134.7076  154.8614 C   0  0  0  0  0  0  0  0  0  0  0  0
  149.4405  133.5261  154.1078 C   0  0  0  0  0  0  0  0  0  0  0  0
  148.3338  134.0765  153.2848 N   0  3  0  0  0  0  0  0  0  0  0  0
  147.7437  133.0992  152.3346 C   0  0  0  0  0  0  0  0  0  0  0  0
  146.6347  133.7633  151.5017 C   0  0  0  0  0  0  0  0  0  0  0  0
  145.6461  134.3064  152.3678 O   0  0  0  0  0  0  0  0  0  0  0  0
  146.1812  135.3097  153.2218 C   0  0  0  0  0  0  0  0  0  0  0  0
  147.2743  134.6973  154.1138 C   0  0  0  0  0  0  0  0  0  0  0  0
  150.6528  135.6928  154.2538 N   0  0  0  0  0  0  0  0  0  0  0  0
  150.9491  136.5655  155.2902 C   0  0  0  0  0  0  0  0  0  0  0  0
  150.4627  136.0979  156.4671 C   0  0  0  0  0  0  0  0  0  0  0  0
  150.6174  136.8327  157.7311 C   0  0  0  0  0  0  0  0  0  0  0  0
  150.1804  136.4324  158.8076 O   0  0  0  0  0  0  0  0  0  0  0  0
  151.2897  138.0004  157.5874 N   0  0  0  0  0  0  0  0  0  0  0  0
  151.8074  138.5258  156.4353 C   0  0  0  0  0  0  0  0  0  0  0  0
  152.3957  139.6065  156.4616 O   0  0  0  0  0  0  0  0  0  0  0  0
  151.6436  137.8083  155.2779 N   0  0  0  0  0  0  0  0  0  0  0  0
  152.1793  138.3230  154.0162 C   0  0  0  0  0  0  0  0  0  0  0  0
  151.4222  138.5461  158.4264 H   0  0  0  0  0  0  0  0  0  0  0  0
  152.3205  130.1451  155.6539 H   0  0  0  0  0  0  0  0  0  0  0  0
  152.3285  131.8771  155.3237 H   0  0  0  0  0  0  0  0  0  0  0  0
  150.7986  131.0094  155.4444 H   0  0  0  0  0  0  0  0  0  0  0  0
  151.2464  130.5589  157.8783 H   0  0  0  0  0  0  0  0  0  0  0  0
  152.7753  131.4269  157.7586 H   0  0  0  0  0  0  0  0  0  0  0  0
  149.6950  132.1748  156.1002 H   0  0  0  0  0  0  0  0  0  0  0  0
  149.1464  131.9116  157.7503 H   0  0  0  0  0  0  0  0  0  0  0  0
  148.0958  133.9724  156.9253 H   0  0  0  0  0  0  0  0  0  0  0  0
  149.2347  134.4104  158.1488 H   0  0  0  0  0  0  0  0  0  0  0  0
  150.1913  133.0229  153.4998 H   0  0  0  0  0  0  0  0  0  0  0  0
  149.0630  132.8027  154.8318 H   0  0  0  0  0  0  0  0  0  0  0  0
  148.5077  132.7060  151.6638 H   0  0  0  0  0  0  0  0  0  0  0  0
  147.3372  132.2513  152.8881 H   0  0  0  0  0  0  0  0  0  0  0  0
  147.0445  134.5455  150.8606 H   0  0  0  0  0  0  0  0  0  0  0  0
  146.1659  133.0286  150.8471 H   0  0  0  0  0  0  0  0  0  0  0  0
  146.5776  136.1364  152.6299 H   0  0  0  0  0  0  0  0  0  0  0  0
  145.3781  135.7153  153.8371 H   0  0  0  0  0  0  0  0  0  0  0  0
  146.8402  133.9461  154.7757 H   0  0  0  0  0  0  0  0  0  0  0  0
  147.7066  135.4728  154.7475 H   0  0  0  0  0  0  0  0  0  0  0  0
  153.2533  138.4968  154.0971 H   0  0  0  0  0  0  0  0  0  0  0  0
  151.6999  139.2678  153.7565 H   0  0  0  0  0  0  0  0  0  0  0  0
  152.0246  137.6375  153.1831 H   0  0  0  0  0  0  0  0  0  0  0  0
  148.7354  134.8216  152.7326 H   0  0  0  0  0  0  0  0  0  0  0  0
  1  2  1  0  0  0  0
  1 26  1  0  0  0  0
  1 27  1  0  0  0  0
  1 28  1  0  0  0  0
  2  3  1  0  0  0  0
  2 29  1  0  0  0  0
  2 30  1  0  0  0  0
  3  4  1  0  0  0  0
  4  5  1  0  0  0  0
  4 31  1  0  0  0  0
  4 32  1  0  0  0  0
  5  6  1  0  0  0  0
  5 33  1  0  0  0  0
  5 34  1  0  0  0  0
  6 17  1  0  0  0  0
  6  7  1  0  0  0  0
  7  8  1  0  0  0  0
  7 15  2  0  0  0  0
  8  9  1  0  0  0  0
  8 35  1  0  0  0  0
  8 36  1  0  0  0  0
  9 14  1  0  0  0  0
  9 10  1  0  0  0  0
  9 48  1  0  0  0  0
 10 11  1  0  0  0  0
 10 37  1  0  0  0  0
 10 38  1  0  0  0  0
 11 12  1  0  0  0  0
 11 39  1  0  0  0  0
 11 40  1  0  0  0  0
 12 13  1  0  0  0  0
 13 14  1  0  0  0  0
 13 41  1  0  0  0  0
 13 42  1  0  0  0  0
 14 43  1  0  0  0  0
 14 44  1  0  0  0  0
 15 16  1  0  0  0  0
 16 23  1  0  0  0  0
 16 17  2  0  0  0  0
 17 18  1  0  0  0  0
 18 19  2  0  0  0  0
 18 20  1  0  0  0  0
 20 25  1  0  0  0  0
 20 21  1  0  0  0  0
 21 22  2  0  0  0  0
 21 23  1  0  0  0  0
 23 24  1  0  0  0  0
 24 45  1  0  0  0  0
 24 46  1  0  0  0  0
 24 47  1  0  0  0  0
M  CHG  1   9   1
M  END
> <s_m_source_file>
AV-unprocessed.smi

> <i_m_source_file_index>
515

> <i_lp_mmshare_version>
43012

> <i_f3d_flags>
0

> <s_epik_input>
W0NIM11uMWMoPU8pW25IXWMoPU8pYyhjMTIpbihbQ0gyXVtDSDJdT1tDSDJdW0NIM10pYyhuMilbQ0gyXU4zW0NIMl1bQ0gyXU9bQ0gyXVtDSDJdMw==

> <s_epik_cmdline>
J2VwaWtfcHl0aG9uJywgJy1waCcsICc3LjAnLCAnLXRuJywgJzgnLCAnLW1hJywgJzIwMCcsICctbWV0YWxfYmluZGluZycsICctaW1hZScsICc8aW5maWxlLm1hZT4nLCAnLW9tYWUnLCAnPG91dGZpbGUubWFlPic=

> <r_epik_Ionization_Penalty>
1.12075

> <r_epik_Ionization_Penalty_Charging>
1.12075

> <r_epik_Ionization_Penalty_Neutral>
5.33793e-09

> <r_epik_State_Penalty>
1.17893

> <r_epik_Charging_Adjusted_Penalty>
2.29968

> <i_epik_Tot_Q>
1

> <i_epik_Tot_abs_Q>
1

> <r_epik_Metal_State_Penalty>
1.3264

> <b_epik_Metal_Only>
0

> <s_lp_Force_Field>
OPLS_2005

> <r_lp_Energy>
34.9817

> <b_lp_Chiralities_Consistent>
1

> <s_lp_Variant>
AV-unprocessed.smi:515-2

> <Gold.Version>
5.8.1

> <Gold.Id.Protein>
6NUR|6NUR_protein|mol2

> <Gold.PLP.Fitness>
43.6156

> <Gold.PLP.PLP>
-28.8512

> <Gold.PLP.part.hbond>
-4.4645

> <Gold.PLP.part.metal>
0.0000

> <Gold.PLP.part.buried>
-5.1978

> <Gold.PLP.part.nonpolar>
-21.2906

> <Gold.PLP.part.repulsive>
1.6233

> <Gold.PLP.ligand.clash>
0.0000

> <Gold.PLP.ligand.torsion>
0.1493

> <Gold.PLP.Chemscore.Hbond>
5.0000

> <Gold.PLP.Chemscore.CHOScore>
0.0000

> <Gold.PLP.Chemscore.Metal>
0.0000

> <Gold.Chemscore.Hbonds>
donor molecule, donor type, donor heavy atom, donor atom, acceptor molecule, acceptor atom, score
      L1  H     9    48       P1  7948  1.60
      P1  H  6896  6907       L1     3  1.00
      P1  H  6896  6908       L1    19  1.00
      P1  H  7997  8008       L1    22  1.00

> <Gold.PLP.Chemscore.Internal.Correction>
0.0630

> <Gold.Rescore>
     Score         DG    S(hbond)    S(metal)    S(lipo)     H(rot)  DE(clash)    DE(int)     intcor
     17.35     -17.77       3.86        0.00      43.34       2.22       0.19       0.24       ----

> <Gold.Chemscore.Fitness>
17.3464

> <Gold.Chemscore.DG>
-17.7728

> <Gold.Chemscore.ZeroCoef>
-5.4800

> <Gold.Chemscore.Hbond>
3.8624

> <Gold.Chemscore.Metal>
0.0000

> <Gold.Chemscore.Lipo>
43.3421

> <Gold.Chemscore.Internal_Hbond>
0.0000

> <Gold.Chemscore.DEClash>
0.1890

> <Gold.Chemscore.DEInternal>
0.2374

> <Gold.Chemscore.Rot>
2.2182

> <Gold.Chemscore.Internal.Correction>
   9.000000E+99

> <Gold.Chemscore.Hbonds>
donor molecule, donor type, donor heavy atom, donor atom, acceptor molecule, acceptor atom, score
      L1  H     9    48       P1  7948  0.12
      P1  H  6896  6907       L1     3  0.68
      P1  H  6896  6908       L1    19  0.93
      P1  H  7997  8008       L1    22  0.95

> <Gold.Chemscore.Hbond.Weighted>
-12.9003

> <Gold.Chemscore.Metal.Weighted>
-0.0000

> <Gold.Chemscore.Lipo.Weighted>
-5.0710

> <Gold.Chemscore.Internal_Hbond.Weighted>
0.0000

> <Gold.Chemscore.DEClash.Weighted>
0.1890

> <Gold.Chemscore.DEInternal.Weighted>
0.2374

> <Gold.Chemscore.Rot.Weighted>
5.6785

> <Gold.Chemscore.Internal.Correction.Weighted>
   9.000000E+99

> <Gold.Protein.RotatedTorsions>
[ 6907 6896 6895 6894 ] final -147.25 input  -60.11 | X-H torsion
[ 7974 7965 7964 7962 ] final  176.33 input  175.53 | X-H torsion
[ 8008 7997 7996 7995 ] final  -41.25 input   59.86 | X-H torsion
[ 10167 10162 10161 10158 ] final  -97.45 input  -65.29 | X-H torsion
[ 10718 10713 10712 10709 ] final  126.90 input   66.30 | X-H torsion
[ 10763 10752 10751 10750 ] final -165.13 input  -60.55 | X-H torsion
[ 11005 11000 10999 10996 ] final  178.74 input  -57.11 | X-H torsion

> <Gold.Protein.ActiveResidues>
 VAL166  LYS551  ARG553  GLY616  TRP617  ASP618  TYR619  PRO620  LYS621  CYS622 
 ASP623  PHE694  ASN695  SER759  ASP760  ASP761  ALA762  ILE779  LEU786  VAL792 
 PHE793  MET794  SER795  GLU796  ALA797  LYS798  CYS799  TRP800  GLU811  SER814 

> <Gold.Protein.RotatedAtoms>
  151.1530  133.4895  159.2594 H   0  0  0  0  0  0  0  0  0  0  0  0  # atno 6907 bound_to 6896
  151.1534  135.0238  159.8688 H   0  0  0  0  0  0  0  0  0  0  0  0  # atno 6908 bound_to 6896
  152.5463  134.1412  159.8533 H   0  0  0  0  0  0  0  0  0  0  0  0  # atno 6909 bound_to 6896
  144.7186  140.0080  143.6440 H   0  0  0  0  0  0  0  0  0  0  0  0  # atno 7974 bound_to 7965
  154.4005  140.1504  156.3161 H   0  0  0  0  0  0  0  0  0  0  0  0  # atno 8008 bound_to 7997
  155.8572  140.3455  155.5710 H   0  0  0  0  0  0  0  0  0  0  0  0  # atno 8009 bound_to 7997
  155.7920  140.0858  157.1994 H   0  0  0  0  0  0  0  0  0  0  0  0  # atno 8010 bound_to 7997
  140.2832  143.3268  152.0420 H   0  0  0  0  0  0  0  0  0  0  0  0  # atno 10167 bound_to 10162
  157.5379  131.1097  150.8905 H   0  0  0  0  0  0  0  0  0  0  0  0  # atno 10718 bound_to 10713
  154.6962  135.2979  154.9408 H   0  0  0  0  0  0  0  0  0  0  0  0  # atno 10763 bound_to 10752
  154.0355  135.6664  153.4789 H   0  0  0  0  0  0  0  0  0  0  0  0  # atno 10764 bound_to 10752
  153.0647  135.5095  154.8081 H   0  0  0  0  0  0  0  0  0  0  0  0  # atno 10765 bound_to 10752
  140.3985  134.6799  157.4548 H   0  0  0  0  0  0  0  0  0  0  0  0  # atno 11005 bound_to 11000
  146.0281  139.3311  143.0772 LP  0  0  0  0  0  0  0  0  0  0  0  0  # atno 17320 bound_to 7965
  145.8486  140.9541  143.0761 LP  0  0  0  0  0  0  0  0  0  0  0  0  # atno 17321 bound_to 7965
  139.4957  144.6577  151.6536 LP  0  0  0  0  0  0  0  0  0  0  0  0  # atno 17342 bound_to 10162
  140.5794  143.9972  150.6260 LP  0  0  0  0  0  0  0  0  0  0  0  0  # atno 17343 bound_to 10162
  156.9467  130.5404  149.5281 LP  0  0  0  0  0  0  0  0  0  0  0  0  # atno 17370 bound_to 10713
  156.0473  130.5548  150.8911 LP  0  0  0  0  0  0  0  0  0  0  0  0  # atno 17371 bound_to 10713
  140.0354  134.6345  155.9051 LP  0  0  0  0  0  0  0  0  0  0  0  0  # atno 17394 bound_to 11000
  141.1865  133.6557  156.5243 LP  0  0  0  0  0  0  0  0  0  0  0  0  # atno 17395 bound_to 11000

$$$$
