AV-unprocessed.smi:2527|AV-procd|sdf|9944|dock1
  -GOLD-   2272013583D 1   1.00000     0.00000
 Structure written by MMmdl.
 37 39  0  0  0  0  0  0  0  0  2 V2000
  149.5427  137.5660  158.5490 C   0  0  0  0  0  0  0  0  0  0  0  0
  150.6285  138.3946  158.1741 O   0  0  0  0  0  0  0  0  0  0  0  0
  150.8043  138.4590  156.7682 C   0  0  0  0  0  0  0  0  0  0  0  0
  151.7864  139.5851  156.4154 C   0  0  0  0  0  0  0  0  0  0  0  0
  151.2343  140.9176  156.7016 N   0  0  0  0  0  0  0  0  0  0  0  0
  150.3120  141.6518  156.0191 C   0  0  0  0  0  0  0  0  0  0  0  0
  149.4927  141.1708  154.5317 S   0  0  0  0  0  0  0  0  0  0  0  0
  148.4501  139.7546  154.9732 C   0  0  0  0  0  0  0  0  0  0  0  0
  147.3756  139.4397  153.9545 C   0  0  0  0  0  0  0  0  0  0  0  0
  147.7766  139.1277  152.6801 N   0  0  0  0  0  0  0  0  0  0  0  0
  146.6667  138.8923  151.9908 C   0  0  0  0  0  0  0  0  0  0  0  0
  146.5684  138.5785  150.8070 O   0  0  0  0  0  0  0  0  0  0  0  0
  145.6799  139.0735  152.8768 N   0  0  0  0  0  0  0  0  0  0  0  0
  146.0997  139.4168  154.1200 N   0  0  0  0  0  0  0  0  0  0  0  0
  150.1341  142.8218  156.6933 N   0  3  0  0  0  0  0  0  0  0  0  0
  150.9486  142.8350  157.8270 C   0  0  0  0  0  0  0  0  0  0  0  0
  151.1137  143.7974  158.8183 C   0  0  0  0  0  0  0  0  0  0  0  0
  152.0264  143.4959  159.8507 C   0  0  0  0  0  0  0  0  0  0  0  0
  152.2808  144.6414  161.1151 Cl  0  0  0  0  0  0  0  0  0  0  0  0
  152.7329  142.2754  159.8689 C   0  0  0  0  0  0  0  0  0  0  0  0
  152.5599  141.3077  158.8578 C   0  0  0  0  0  0  0  0  0  0  0  0
  151.6566  141.6145  157.8404 C   0  0  0  0  0  0  0  0  0  0  0  0
  144.6902  138.9778  152.6992 H   0  0  0  0  0  0  0  0  0  0  0  0
  148.7278  139.0897  152.3445 H   0  0  0  0  0  0  0  0  0  0  0  0
  149.4554  137.5463  159.6352 H   0  0  0  0  0  0  0  0  0  0  0  0
  149.6902  136.5417  158.2042 H   0  0  0  0  0  0  0  0  0  0  0  0
  148.6027  137.9409  158.1425 H   0  0  0  0  0  0  0  0  0  0  0  0
  151.1865  137.5074  156.3961 H   0  0  0  0  0  0  0  0  0  0  0  0
  149.8449  138.6380  156.2800 H   0  0  0  0  0  0  0  0  0  0  0  0
  152.7295  139.4638  156.9484 H   0  0  0  0  0  0  0  0  0  0  0  0
  152.0298  139.5477  155.3532 H   0  0  0  0  0  0  0  0  0  0  0  0
  149.0927  138.8847  155.1145 H   0  0  0  0  0  0  0  0  0  0  0  0
  147.9740  139.9544  155.9335 H   0  0  0  0  0  0  0  0  0  0  0  0
  150.5716  144.7318  158.8069 H   0  0  0  0  0  0  0  0  0  0  0  0
  153.4221  142.0751  160.6765 H   0  0  0  0  0  0  0  0  0  0  0  0
  153.1031  140.3746  158.8874 H   0  0  0  0  0  0  0  0  0  0  0  0
  149.5008  143.5539  156.3996 H   0  0  0  0  0  0  0  0  0  0  0  0
  1  2  1  0  0  0  0
  1 25  1  0  0  0  0
  1 26  1  0  0  0  0
  1 27  1  0  0  0  0
  2  3  1  0  0  0  0
  3  4  1  0  0  0  0
  3 28  1  0  0  0  0
  3 29  1  0  0  0  0
  4  5  1  0  0  0  0
  4 30  1  0  0  0  0
  4 31  1  0  0  0  0
  5 22  1  0  0  0  0
  5  6  1  0  0  0  0
  6  7  1  0  0  0  0
  6 15  2  0  0  0  0
  7  8  1  0  0  0  0
  8 32  1  0  0  0  0
  8 33  1  0  0  0  0
  8  9  1  0  0  0  0
  9 14  2  0  0  0  0
  9 10  1  0  0  0  0
 10 11  1  0  0  0  0
 10 24  1  0  0  0  0
 11 13  1  0  0  0  0
 11 12  2  0  0  0  0
 13 14  1  0  0  0  0
 13 23  1  0  0  0  0
 15 16  1  0  0  0  0
 15 37  1  0  0  0  0
 16 22  2  0  0  0  0
 16 17  1  0  0  0  0
 17 18  2  0  0  0  0
 17 34  1  0  0  0  0
 18 19  1  0  0  0  0
 18 20  1  0  0  0  0
 20 21  2  0  0  0  0
 20 35  1  0  0  0  0
 21 22  1  0  0  0  0
 21 36  1  0  0  0  0
M  CHG  1  15   1
M  END
> <s_m_source_file>
AV-unprocessed.smi

> <i_m_source_file_index>
2527

> <i_lp_mmshare_version>
43012

> <i_f3d_flags>
0

> <s_epik_input>
W2NIXTFjKENsKVtjSF1bY0hdYyhjMTIpbihbQ0gyXVtDSDJdT1tDSDNdKWMobjIpU1tDSDJdYzNuYyg9TylbbkhdW25IXTM=

> <s_epik_cmdline>
J2VwaWtfcHl0aG9uJywgJy1waCcsICc3LjAnLCAnLXRuJywgJzgnLCAnLW1hJywgJzIwMCcsICctbWV0YWxfYmluZGluZycsICctaW1hZScsICc8aW5maWxlLm1hZT4nLCAnLW9tYWUnLCAnPG91dGZpbGUubWFlPic=

> <r_lp_tautomer_probability>
0.999897

> <r_epik_Ionization_Penalty>
2.55529

> <r_epik_Ionization_Penalty_Charging>
2.55529

> <r_epik_Ionization_Penalty_Neutral>
1.25843e-08

> <r_epik_State_Penalty>
2.65345

> <r_epik_Charging_Adjusted_Penalty>
5.20874

> <i_epik_Tot_Q>
1

> <i_epik_Tot_abs_Q>
1

> <r_epik_Metal_State_Penalty>
3.01692

> <b_epik_Metal_Only>
0

> <s_lp_Force_Field>
OPLS_2005

> <r_lp_Energy>
34.0124

> <b_lp_Chiralities_Consistent>
1

> <s_lp_Variant>
AV-unprocessed.smi:2527-3

> <Gold.Version>
5.8.1

> <Gold.Id.Protein>
6NUR|6NUR_protein|mol2

> <Gold.PLP.Fitness>
52.7274

> <Gold.PLP.PLP>
-41.5839

> <Gold.PLP.part.hbond>
-4.8901

> <Gold.PLP.part.metal>
0.0000

> <Gold.PLP.part.buried>
-5.2462

> <Gold.PLP.part.nonpolar>
-33.2851

> <Gold.PLP.part.repulsive>
1.3787

> <Gold.PLP.ligand.clash>
0.0000

> <Gold.PLP.ligand.torsion>
0.3703

> <Gold.PLP.Chemscore.Hbond>
3.9088

> <Gold.PLP.Chemscore.CHOScore>
0.0000

> <Gold.PLP.Chemscore.Metal>
0.0000

> <Gold.Chemscore.Hbonds>
donor molecule, donor type, donor heavy atom, donor atom, acceptor molecule, acceptor atom, score
      L1  H    10    24       P1  7957  0.66
      L1  H    13    23       P1 10175  0.40
      L1  H    15    37       P1  8028  1.89
      P1  H  7954  7966       L1    12  0.91

> <Gold.PLP.Chemscore.Internal.Correction>
0.1579

> <Gold.Rescore>
     Score         DG    S(hbond)    S(metal)    S(lipo)     H(rot)  DE(clash)    DE(int)     intcor
     17.93     -18.87       2.93        0.00      94.98       2.93       0.63       0.31       ----

> <Gold.Chemscore.Fitness>
17.9305

> <Gold.Chemscore.DG>
-18.8726

> <Gold.Chemscore.ZeroCoef>
-5.4800

> <Gold.Chemscore.Hbond>
2.9261

> <Gold.Chemscore.Metal>
0.0000

> <Gold.Chemscore.Lipo>
94.9804

> <Gold.Chemscore.Internal_Hbond>
0.0000

> <Gold.Chemscore.DEClash>
0.6329

> <Gold.Chemscore.DEInternal>
0.3093

> <Gold.Chemscore.Rot>
2.9270

> <Gold.Chemscore.Internal.Correction>
   9.000000E+99

> <Gold.Chemscore.Hbonds>
donor molecule, donor type, donor heavy atom, donor atom, acceptor molecule, acceptor atom, score
      L1  H    10    24       P1  7957  0.66
      L1  H    13    23       P1 10175  0.40
      L1  H    15    37       P1  8028  0.90
      P1  H  7954  7966       L1    12  0.85

> <Gold.Chemscore.Hbond.Weighted>
-9.7732

> <Gold.Chemscore.Metal.Weighted>
-0.0000

> <Gold.Chemscore.Lipo.Weighted>
-11.1127

> <Gold.Chemscore.Internal_Hbond.Weighted>
0.0000

> <Gold.Chemscore.DEClash.Weighted>
0.6329

> <Gold.Chemscore.DEInternal.Weighted>
0.3093

> <Gold.Chemscore.Rot.Weighted>
7.4932

> <Gold.Chemscore.Internal.Correction.Weighted>
   9.000000E+99

> <Gold.Protein.RotatedTorsions>
[ 6907 6896 6895 6894 ] final  -20.76 input  -60.11 | X-H torsion
[ 7974 7965 7964 7962 ] final  -19.14 input  175.53 | X-H torsion
[ 8008 7997 7996 7995 ] final   22.00 input   59.86 | X-H torsion
[ 10167 10162 10161 10158 ] final -169.41 input  -65.29 | X-H torsion
[ 10718 10713 10712 10709 ] final   72.74 input   66.30 | X-H torsion
[ 10763 10752 10751 10750 ] final  168.76 input  -60.55 | X-H torsion
[ 11005 11000 10999 10996 ] final   -9.56 input  -57.11 | X-H torsion

> <Gold.Protein.ActiveResidues>
 VAL166  LYS551  ARG553  GLY616  TRP617  ASP618  TYR619  PRO620  LYS621  CYS622 
 ASP623  PHE694  ASN695  SER759  ASP760  ASP761  ALA762  ILE779  LEU786  VAL792 
 PHE793  MET794  SER795  GLU796  ALA797  LYS798  CYS799  TRP800  GLU811  SER814 

> <Gold.Protein.RotatedAtoms>
  151.2434  135.0597  159.9033 H   0  0  0  0  0  0  0  0  0  0  0  0  # atno 6907 bound_to 6896
  152.5390  134.0410  159.8077 H   0  0  0  0  0  0  0  0  0  0  0  0  # atno 6908 bound_to 6896
  151.0607  133.5498  159.2666 H   0  0  0  0  0  0  0  0  0  0  0  0  # atno 6909 bound_to 6896
  146.1856  140.4020  142.8477 H   0  0  0  0  0  0  0  0  0  0  0  0  # atno 7974 bound_to 7965
  154.9591  140.3075  155.5039 H   0  0  0  0  0  0  0  0  0  0  0  0  # atno 8008 bound_to 7997
  156.2979  140.2304  156.4614 H   0  0  0  0  0  0  0  0  0  0  0  0  # atno 8009 bound_to 7997
  154.7982  140.0435  157.1241 H   0  0  0  0  0  0  0  0  0  0  0  0  # atno 8010 bound_to 7997
  139.5925  144.1183  152.1650 H   0  0  0  0  0  0  0  0  0  0  0  0  # atno 10167 bound_to 10162
  157.6515  130.9593  150.0971 H   0  0  0  0  0  0  0  0  0  0  0  0  # atno 10718 bound_to 10713
  154.3732  135.2753  155.2254 H   0  0  0  0  0  0  0  0  0  0  0  0  # atno 10763 bound_to 10752
  154.4392  135.5958  153.6122 H   0  0  0  0  0  0  0  0  0  0  0  0  # atno 10764 bound_to 10752
  152.9837  135.6014  154.3966 H   0  0  0  0  0  0  0  0  0  0  0  0  # atno 10765 bound_to 10752
  140.7354  133.8714  155.8925 H   0  0  0  0  0  0  0  0  0  0  0  0  # atno 11005 bound_to 11000
  144.8392  140.6830  143.6240 LP  0  0  0  0  0  0  0  0  0  0  0  0  # atno 17320 bound_to 7965
  145.3947  139.1609  143.4210 LP  0  0  0  0  0  0  0  0  0  0  0  0  # atno 17321 bound_to 7965
  140.0761  144.5739  150.7156 LP  0  0  0  0  0  0  0  0  0  0  0  0  # atno 17342 bound_to 10162
  140.7184  143.2566  151.4358 LP  0  0  0  0  0  0  0  0  0  0  0  0  # atno 17343 bound_to 10162
  156.1904  130.3654  149.8918 LP  0  0  0  0  0  0  0  0  0  0  0  0  # atno 17370 bound_to 10713
  156.6848  130.8872  151.3580 LP  0  0  0  0  0  0  0  0  0  0  0  0  # atno 17371 bound_to 10713
  140.9884  134.1312  157.4431 LP  0  0  0  0  0  0  0  0  0  0  0  0  # atno 17394 bound_to 11000
  139.8817  135.0033  156.6176 LP  0  0  0  0  0  0  0  0  0  0  0  0  # atno 17395 bound_to 11000

$$$$
