AV-unprocessed.smi:1686|AV-procd|sdf|6763|dock7
  -GOLD-   22720 7523D 1   1.00000     0.00000
 Structure written by MMmdl.
 41 43  0  0  0  0  0  0  0  0  1 V2000
  149.4658  135.6018  156.0205 C   0  0  0  0  0  0  0  0  0  0  0  0
  149.8632  134.1565  156.1118 C   0  0  0  0  0  0  0  0  0  0  0  0
  150.3066  133.6820  157.2685 N   0  0  0  0  0  0  0  0  0  0  0  0
  150.5865  132.3270  157.0577 O   0  0  0  0  0  0  0  0  0  0  0  0
  150.2921  132.0582  155.7652 C   0  0  0  0  0  0  0  0  0  0  0  0
  150.4848  130.4915  155.0838 Cl  0  0  0  0  0  0  0  0  0  0  0  0
  149.8340  133.1561  155.0958 C   0  0  0  0  0  0  0  0  0  0  0  0
  149.3990  133.2849  153.6555 C   0  0  0  0  0  0  0  0  0  0  0  0
  147.8744  133.3900  153.5273 C   0  0  0  0  0  0  0  0  0  0  0  0
  147.1303  132.5426  154.0238 O   0  0  0  0  0  0  0  0  0  0  0  0
  147.4232  134.4526  152.8435 N   0  0  0  0  0  0  0  0  0  0  0  0
  146.0201  134.7558  152.5691 C   0  0  1  0  0  0  0  0  0  0  0  0
  145.8222  136.2825  152.5868 C   0  0  0  0  0  0  0  0  0  0  0  0
  145.6007  134.1257  151.2183 C   0  0  2  0  0  0  0  0  0  0  0  0
  144.0785  134.2014  150.9435 C   0  0  0  0  0  0  0  0  0  0  0  0
  143.6977  132.7408  150.6442 C   0  0  1  0  0  0  0  0  0  0  0  0
  144.3018  132.3169  149.2932 C   0  0  0  0  0  0  0  0  0  0  0  0
  145.8016  132.1920  149.6193 C   0  0  0  0  0  0  0  0  0  0  0  0
  145.8625  132.6008  151.1037 C   0  0  2  0  0  0  0  0  0  0  0  0
  144.5720  131.9881  151.6377 C   0  0  0  0  0  0  0  0  0  0  0  0
  149.0894  135.8520  155.0289 H   0  0  0  0  0  0  0  0  0  0  0  0
  150.3137  136.2552  156.2269 H   0  0  0  0  0  0  0  0  0  0  0  0
  148.6799  135.8378  156.7385 H   0  0  0  0  0  0  0  0  0  0  0  0
  149.8491  134.1617  153.1894 H   0  0  0  0  0  0  0  0  0  0  0  0
  149.7315  132.4290  153.0675 H   0  0  0  0  0  0  0  0  0  0  0  0
  148.1055  135.0970  152.4710 H   0  0  0  0  0  0  0  0  0  0  0  0
  145.4047  134.3191  153.3577 H   0  0  0  0  0  0  0  0  0  0  0  0
  144.7794  136.5550  152.4271 H   0  0  0  0  0  0  0  0  0  0  0  0
  146.4143  136.7676  151.8101 H   0  0  0  0  0  0  0  0  0  0  0  0
  146.1215  136.7075  153.5455 H   0  0  0  0  0  0  0  0  0  0  0  0
  146.1421  134.6433  150.4245 H   0  0  0  0  0  0  0  0  0  0  0  0
  143.5296  134.5500  151.8192 H   0  0  0  0  0  0  0  0  0  0  0  0
  143.8389  134.8714  150.1169 H   0  0  0  0  0  0  0  0  0  0  0  0
  142.6290  132.5418  150.7283 H   0  0  0  0  0  0  0  0  0  0  0  0
  143.8984  131.3571  148.9681 H   0  0  0  0  0  0  0  0  0  0  0  0
  144.1057  133.0471  148.5072 H   0  0  0  0  0  0  0  0  0  0  0  0
  146.1356  131.1619  149.4890 H   0  0  0  0  0  0  0  0  0  0  0  0
  146.4218  132.8244  148.9833 H   0  0  0  0  0  0  0  0  0  0  0  0
  146.7692  132.2538  151.5991 H   0  0  0  0  0  0  0  0  0  0  0  0
  144.3650  132.2424  152.6784 H   0  0  0  0  0  0  0  0  0  0  0  0
  144.5262  130.9038  151.5200 H   0  0  0  0  0  0  0  0  0  0  0  0
  1  2  1  0  0  0  0
  1 21  1  0  0  0  0
  1 22  1  0  0  0  0
  1 23  1  0  0  0  0
  2  7  1  0  0  0  0
  2  3  2  0  0  0  0
  3  4  1  0  0  0  0
  4  5  1  0  0  0  0
  5  6  1  0  0  0  0
  5  7  2  0  0  0  0
  7  8  1  0  0  0  0
  8  9  1  0  0  0  0
  8 24  1  0  0  0  0
  8 25  1  0  0  0  0
  9 10  2  0  0  0  0
  9 11  1  0  0  0  0
 11 12  1  0  0  0  0
 11 26  1  0  0  0  0
 12 13  1  0  0  0  0
 12 14  1  0  0  0  0
 12 27  1  0  0  0  0
 13 28  1  0  0  0  0
 13 29  1  0  0  0  0
 13 30  1  0  0  0  0
 14 19  1  0  0  0  0
 14 15  1  0  0  0  0
 14 31  1  0  0  0  0
 15 16  1  0  0  0  0
 15 32  1  0  0  0  0
 15 33  1  0  0  0  0
 16 20  1  0  0  0  0
 16 17  1  0  0  0  0
 16 34  1  0  0  0  0
 17 18  1  0  0  0  0
 17 35  1  0  0  0  0
 17 36  1  0  0  0  0
 18 19  1  0  0  0  0
 18 37  1  0  0  0  0
 18 38  1  0  0  0  0
 19 20  1  0  0  0  0
 19 39  1  0  0  0  0
 20 40  1  0  0  0  0
 20 41  1  0  0  0  0
M  END
> <s_m_source_file>
AV-unprocessed.smi

> <i_m_source_file_index>
1686

> <i_lp_mmshare_version>
43012

> <i_f3d_flags>
0

> <s_epik_input>
W0NIM11jMW5vYyhDbCljMVtDSDJdQyg9TylbTkhdW0NASF0oW0NIM10pW0NASF0oW0NIMl1bQ0BIXTIzKVtDQEhdKFtDSDJdMylbQ0gyXVtDSDJdMg==

> <s_epik_cmdline>
J2VwaWtfcHl0aG9uJywgJy1waCcsICc3LjAnLCAnLXRuJywgJzgnLCAnLW1hJywgJzIwMCcsICctbWV0YWxfYmluZGluZycsICctaW1hZScsICc8aW5maWxlLm1hZT4nLCAnLW9tYWUnLCAnPG91dGZpbGUubWFlPic=

> <r_lp_tautomer_probability>
1

> <r_epik_Ionization_Penalty>
2.01576e-08

> <r_epik_Ionization_Penalty_Charging>
0

> <r_epik_Ionization_Penalty_Neutral>
2.01576e-08

> <r_epik_State_Penalty>
-0

> <r_epik_Charging_Adjusted_Penalty>
0

> <i_epik_Tot_Q>
0

> <i_epik_Tot_abs_Q>
0

> <r_epik_Metal_State_Penalty>
-0

> <b_epik_Metal_Only>
0

> <s_lp_Force_Field>
OPLS_2005

> <r_lp_Energy>
46.9039

> <b_lp_Chiralities_Consistent>
1

> <s_lp_Variant>
AV-unprocessed.smi:1686-6

> <Gold.Version>
5.8.1

> <Gold.Id.Protein>
6NUR|6NUR_protein|mol2

> <Gold.PLP.Fitness>
42.7011

> <Gold.PLP.PLP>
-38.1170

> <Gold.PLP.part.hbond>
-2.0000

> <Gold.PLP.part.metal>
0.0000

> <Gold.PLP.part.buried>
-5.1752

> <Gold.PLP.part.nonpolar>
-30.9352

> <Gold.PLP.part.repulsive>
0.0612

> <Gold.PLP.ligand.clash>
0.0000

> <Gold.PLP.ligand.torsion>
0.6128

> <Gold.PLP.Chemscore.Hbond>
1.9280

> <Gold.PLP.Chemscore.CHOScore>
0.0000

> <Gold.PLP.Chemscore.Metal>
0.0000

> <Gold.Chemscore.Hbonds>
donor molecule, donor type, donor heavy atom, donor atom, acceptor molecule, acceptor atom, score
      L1  H    11    26       P1  7948  0.94
      P1  H  6896  6909       L1     3  0.61

> <Gold.PLP.Chemscore.Internal.Correction>
0.0258

> <Gold.Rescore>
     Score         DG    S(hbond)    S(metal)    S(lipo)     H(rot)  DE(clash)    DE(int)     intcor
     18.49     -19.27       1.96        0.00      94.02       1.46       0.01       0.77       ----

> <Gold.Chemscore.Fitness>
18.4862

> <Gold.Chemscore.DG>
-19.2665

> <Gold.Chemscore.ZeroCoef>
-5.4800

> <Gold.Chemscore.Hbond>
1.9569

> <Gold.Chemscore.Metal>
0.0000

> <Gold.Chemscore.Lipo>
94.0202

> <Gold.Chemscore.Internal_Hbond>
0.0000

> <Gold.Chemscore.DEClash>
0.0063

> <Gold.Chemscore.DEInternal>
0.7740

> <Gold.Chemscore.Rot>
1.4648

> <Gold.Chemscore.Internal.Correction>
   9.000000E+99

> <Gold.Chemscore.Hbonds>
donor molecule, donor type, donor heavy atom, donor atom, acceptor molecule, acceptor atom, score
      L1  H    11    26       P1  7948  0.77
      P1  H  6896  6909       L1     3  0.06

> <Gold.Chemscore.Hbond.Weighted>
-6.5361

> <Gold.Chemscore.Metal.Weighted>
-0.0000

> <Gold.Chemscore.Lipo.Weighted>
-11.0004

> <Gold.Chemscore.Internal_Hbond.Weighted>
0.0000

> <Gold.Chemscore.DEClash.Weighted>
0.0063

> <Gold.Chemscore.DEInternal.Weighted>
0.7740

> <Gold.Chemscore.Rot.Weighted>
3.7500

> <Gold.Chemscore.Internal.Correction.Weighted>
   9.000000E+99

> <Gold.Protein.RotatedTorsions>
[ 6907 6896 6895 6894 ] final  -11.47 input  -60.11 | X-H torsion
[ 7974 7965 7964 7962 ] final   53.62 input  175.53 | X-H torsion
[ 8008 7997 7996 7995 ] final   16.04 input   59.86 | X-H torsion
[ 10167 10162 10161 10158 ] final  -10.24 input  -65.29 | X-H torsion
[ 10718 10713 10712 10709 ] final   26.77 input   66.30 | X-H torsion
[ 10763 10752 10751 10750 ] final   48.84 input  -60.55 | X-H torsion
[ 11005 11000 10999 10996 ] final -169.50 input  -57.11 | X-H torsion

> <Gold.Protein.ActiveResidues>
 VAL166  LYS551  ARG553  GLY616  TRP617  ASP618  TYR619  PRO620  LYS621  CYS622 
 ASP623  PHE694  ASN695  SER759  ASP760  ASP761  ALA762  ILE779  LEU786  VAL792 
 PHE793  MET794  SER795  GLU796  ALA797  LYS798  CYS799  TRP800  GLU811  SER814 

> <Gold.Protein.RotatedAtoms>
  151.3857  135.0947  159.9509 H   0  0  0  0  0  0  0  0  0  0  0  0  # atno 6907 bound_to 6896
  152.5095  133.9029  159.7460 H   0  0  0  0  0  0  0  0  0  0  0  0  # atno 6908 bound_to 6896
  150.9471  133.6535  159.2808 H   0  0  0  0  0  0  0  0  0  0  0  0  # atno 6909 bound_to 6896
  145.9693  139.4134  143.0200 H   0  0  0  0  0  0  0  0  0  0  0  0  # atno 7974 bound_to 7965
  154.8713  140.2959  155.5479 H   0  0  0  0  0  0  0  0  0  0  0  0  # atno 8008 bound_to 7997
  156.3021  140.2459  156.3635 H   0  0  0  0  0  0  0  0  0  0  0  0  # atno 8009 bound_to 7997
  154.8814  140.0398  157.1773 H   0  0  0  0  0  0  0  0  0  0  0  0  # atno 8010 bound_to 7997
  140.7108  143.5770  150.9032 H   0  0  0  0  0  0  0  0  0  0  0  0  # atno 10167 bound_to 10162
  157.2113  130.6935  149.6229 H   0  0  0  0  0  0  0  0  0  0  0  0  # atno 10718 bound_to 10713
  152.9789  135.5931  154.3991 H   0  0  0  0  0  0  0  0  0  0  0  0  # atno 10763 bound_to 10752
  154.3638  135.2767  155.2307 H   0  0  0  0  0  0  0  0  0  0  0  0  # atno 10764 bound_to 10752
  154.4292  135.6040  153.6113 H   0  0  0  0  0  0  0  0  0  0  0  0  # atno 10765 bound_to 10752
  140.5300  134.5625  157.5072 H   0  0  0  0  0  0  0  0  0  0  0  0  # atno 11005 bound_to 11000
  145.7929  140.9806  143.1039 LP  0  0  0  0  0  0  0  0  0  0  0  0  # atno 17320 bound_to 7965
  144.6833  139.9705  143.7482 LP  0  0  0  0  0  0  0  0  0  0  0  0  # atno 17321 bound_to 7965
  139.9496  143.6287  152.3032 LP  0  0  0  0  0  0  0  0  0  0  0  0  # atno 17342 bound_to 10162
  139.6801  144.7656  151.1624 LP  0  0  0  0  0  0  0  0  0  0  0  0  # atno 17343 bound_to 10162
  155.9690  130.4550  150.5872 LP  0  0  0  0  0  0  0  0  0  0  0  0  # atno 17370 bound_to 10713
  157.3669  131.0759  151.1590 LP  0  0  0  0  0  0  0  0  0  0  0  0  # atno 17371 bound_to 10713
  139.9559  134.7536  156.0343 LP  0  0  0  0  0  0  0  0  0  0  0  0  # atno 17394 bound_to 11000
  141.1286  133.6592  156.3404 LP  0  0  0  0  0  0  0  0  0  0  0  0  # atno 17395 bound_to 11000

$$$$
