AV-unprocessed.smi:49|AV-procd|sdf|479|dock9
  -GOLD-   2262016343D 1   1.00000     0.00000
 Structure written by MMmdl.
 28 29  0  0  0  0  0  0  0  0  2 V2000
  151.5560  144.0842  157.7077 C   0  0  0  0  0  0  0  0  0  0  0  0
  151.3250  142.5774  157.8646 C   0  0  0  0  0  0  0  0  0  0  0  0
  150.7623  141.9509  156.6309 C   0  0  0  0  0  0  0  0  0  0  0  0
  149.6465  142.4099  156.0460 N   0  0  0  0  0  0  0  0  0  0  0  0
  149.4832  141.5761  155.0081 C   0  0  0  0  0  0  0  0  0  0  0  0
  148.3244  141.7219  154.0635 C   0  0  2  0  0  0  0  0  0  0  0  0
  146.9530  141.7347  154.7556 C   0  0  0  0  0  0  0  0  0  0  0  0
  146.4761  140.2866  154.6586 C   0  0  1  0  0  0  0  0  0  0  0  0
  145.0684  140.1822  154.6896 O   0  0  0  0  0  0  0  0  0  0  0  0
  147.0689  139.8192  153.3296 C   0  0  0  0  0  0  0  0  0  0  0  0
  148.3737  140.4982  153.2317 N   0  3  0  0  0  0  0  0  0  0  0  0
  150.4358  140.6367  154.9427 N   0  0  0  0  0  0  0  0  0  0  0  0
  151.2776  140.8848  156.0122 N   0  0  0  0  0  0  0  0  0  0  0  0
  148.4621  142.6085  153.4429 H   0  0  0  0  0  0  0  0  0  0  0  0
  146.8997  139.7031  155.4775 H   0  0  0  0  0  0  0  0  0  0  0  0
  149.0694  143.1902  156.3256 H   0  0  0  0  0  0  0  0  0  0  0  0
  151.9651  144.5117  158.6231 H   0  0  0  0  0  0  0  0  0  0  0  0
  150.6238  144.6042  157.4853 H   0  0  0  0  0  0  0  0  0  0  0  0
  152.2574  144.2926  156.8994 H   0  0  0  0  0  0  0  0  0  0  0  0
  152.2624  142.0824  158.1203 H   0  0  0  0  0  0  0  0  0  0  0  0
  150.6402  142.3926  158.6930 H   0  0  0  0  0  0  0  0  0  0  0  0
  146.9818  142.1183  155.7762 H   0  0  0  0  0  0  0  0  0  0  0  0
  146.2785  142.3749  154.1846 H   0  0  0  0  0  0  0  0  0  0  0  0
  144.7545  139.9951  153.8180 H   0  0  0  0  0  0  0  0  0  0  0  0
  147.1705  138.7354  153.2671 H   0  0  0  0  0  0  0  0  0  0  0  0
  146.4492  140.1514  152.4954 H   0  0  0  0  0  0  0  0  0  0  0  0
  148.5997  140.7131  152.2713 H   0  0  0  0  0  0  0  0  0  0  0  0
  149.0818  139.8911  153.6208 H   0  0  0  0  0  0  0  0  0  0  0  0
  1  2  1  0  0  0  0
  1 17  1  0  0  0  0
  1 18  1  0  0  0  0
  1 19  1  0  0  0  0
  2 20  1  0  0  0  0
  2 21  1  0  0  0  0
  2  3  1  0  0  0  0
  3  4  1  0  0  0  0
  3 13  2  0  0  0  0
  4 16  1  0  0  0  0
  4  5  1  0  0  0  0
  5 12  2  0  0  0  0
  5  6  1  0  0  0  0
  6 14  1  0  0  0  0
  6 11  1  0  0  0  0
  6  7  1  0  0  0  0
  7  8  1  0  0  0  0
  7 22  1  0  0  0  0
  7 23  1  0  0  0  0
  8 15  1  0  0  0  0
  8  9  1  0  0  0  0
  8 10  1  0  0  0  0
  9 24  1  0  0  0  0
 10 11  1  0  0  0  0
 10 25  1  0  0  0  0
 10 26  1  0  0  0  0
 11 27  1  0  0  0  0
 11 28  1  0  0  0  0
 12 13  1  0  0  0  0
M  CHG  1  11   1
M  END
> <s_m_source_file>
AV-unprocessed.smi

> <i_m_source_file_index>
49

> <i_lp_mmshare_version>
43012

> <i_f3d_flags>
0

> <s_epik_input>
W0NIM11bQ0gyXWMxbmMobltuSF0xKVtDQEBIXTJbQ0gyXVtDQEBIXShbT0hdKVtDSDJdW05IXTI=

> <s_epik_cmdline>
J2VwaWtfcHl0aG9uJywgJy1waCcsICc3LjAnLCAnLXRuJywgJzgnLCAnLW1hJywgJzIwMCcsICctbWV0YWxfYmluZGluZycsICctaW1hZScsICc8aW5maWxlLm1hZT4nLCAnLW9tYWUnLCAnPG91dGZpbGUubWFlPic=

> <r_lp_tautomer_probability>
0.0517155

> <r_epik_Ionization_Penalty>
0.939819

> <r_epik_Ionization_Penalty_Charging>
0.0688988

> <r_epik_Ionization_Penalty_Neutral>
0.87092

> <r_epik_State_Penalty>
2.1224

> <r_epik_Charging_Adjusted_Penalty>
2.1913

> <i_epik_Tot_Q>
1

> <i_epik_Tot_abs_Q>
1

> <r_epik_Metal_State_Penalty>
2.39725

> <b_epik_Metal_Only>
0

> <s_lp_Force_Field>
OPLS_2005

> <r_lp_Energy>
21.4308

> <b_lp_Chiralities_Consistent>
1

> <s_lp_Variant>
AV-unprocessed.smi:49-17

> <Gold.Version>
5.8.1

> <Gold.Id.Protein>
6NUR|6NUR_protein|mol2

> <Gold.PLP.Fitness>
37.8889

> <Gold.PLP.PLP>
-26.2067

> <Gold.PLP.part.hbond>
-3.6293

> <Gold.PLP.part.metal>
0.0000

> <Gold.PLP.part.buried>
-4.1195

> <Gold.PLP.part.nonpolar>
-19.5066

> <Gold.PLP.part.repulsive>
0.3666

> <Gold.PLP.ligand.clash>
0.0000

> <Gold.PLP.ligand.torsion>
0.1553

> <Gold.PLP.Chemscore.Hbond>
3.9920

> <Gold.PLP.Chemscore.CHOScore>
0.0000

> <Gold.PLP.Chemscore.Metal>
0.0000

> <Gold.Chemscore.Hbonds>
donor molecule, donor type, donor heavy atom, donor atom, acceptor molecule, acceptor atom, score
      L1  H     4    16       P1  8028  0.64
      L1  H     9    24       P1 10175  0.93
      L1  H    11    27       P1  7957  0.70
      P1  H  7989  7998       L1    12  0.93

> <Gold.PLP.Chemscore.Internal.Correction>
0.0169

> <Gold.Rescore>
     Score         DG    S(hbond)    S(metal)    S(lipo)     H(rot)  DE(clash)    DE(int)     intcor
     15.60     -15.81       2.96        0.00      45.18       1.89       0.01       0.20       ----

> <Gold.Chemscore.Fitness>
15.5980

> <Gold.Chemscore.DG>
-15.8086

> <Gold.Chemscore.ZeroCoef>
-5.4800

> <Gold.Chemscore.Hbond>
2.9570

> <Gold.Chemscore.Metal>
0.0000

> <Gold.Chemscore.Lipo>
45.1823

> <Gold.Chemscore.Internal_Hbond>
0.0000

> <Gold.Chemscore.DEClash>
0.0106

> <Gold.Chemscore.DEInternal>
0.1999

> <Gold.Chemscore.Rot>
1.8883

> <Gold.Chemscore.Internal.Correction>
   9.000000E+99

> <Gold.Chemscore.Hbonds>
donor molecule, donor type, donor heavy atom, donor atom, acceptor molecule, acceptor atom, score
      L1  H     4    16       P1  8028  0.64
      L1  H     9    24       P1 10175  0.91
      L1  H    11    27       P1  7957  0.70
      P1  H  7989  7998       L1    12  0.23

> <Gold.Chemscore.Hbond.Weighted>
-9.8763

> <Gold.Chemscore.Metal.Weighted>
-0.0000

> <Gold.Chemscore.Lipo.Weighted>
-5.2863

> <Gold.Chemscore.Internal_Hbond.Weighted>
0.0000

> <Gold.Chemscore.DEClash.Weighted>
0.0106

> <Gold.Chemscore.DEInternal.Weighted>
0.1999

> <Gold.Chemscore.Rot.Weighted>
4.8340

> <Gold.Chemscore.Internal.Correction.Weighted>
   9.000000E+99

> <Gold.Protein.RotatedTorsions>
[ 6907 6896 6895 6894 ] final -139.35 input  -60.11 | X-H torsion
[ 7974 7965 7964 7962 ] final  -68.60 input  175.53 | X-H torsion
[ 8008 7997 7996 7995 ] final -146.94 input   59.86 | X-H torsion
[ 10167 10162 10161 10158 ] final   65.76 input  -65.29 | X-H torsion
[ 10718 10713 10712 10709 ] final  122.60 input   66.30 | X-H torsion
[ 10763 10752 10751 10750 ] final  152.13 input  -60.55 | X-H torsion
[ 11005 11000 10999 10996 ] final  -98.45 input  -57.11 | X-H torsion

> <Gold.Protein.ActiveResidues>
 VAL166  LYS551  ARG553  GLY616  TRP617  ASP618  TYR619  PRO620  LYS621  CYS622 
 ASP623  PHE694  ASN695  SER759  ASP760  ASP761  ALA762  ILE779  LEU786  VAL792 
 PHE793  MET794  SER795  GLU796  ALA797  LYS798  CYS799  TRP800  GLU811  SER814 

> <Gold.Protein.RotatedAtoms>
  151.0466  133.5660  159.2645 H   0  0  0  0  0  0  0  0  0  0  0  0  # atno 6907 bound_to 6896
  151.2686  135.0676  159.9135 H   0  0  0  0  0  0  0  0  0  0  0  0  # atno 6908 bound_to 6896
  152.5374  134.0200  159.8031 H   0  0  0  0  0  0  0  0  0  0  0  0  # atno 6909 bound_to 6896
  145.7145  140.9064  143.0663 H   0  0  0  0  0  0  0  0  0  0  0  0  # atno 7974 bound_to 7965
  155.5675  140.0631  157.2814 H   0  0  0  0  0  0  0  0  0  0  0  0  # atno 8008 bound_to 7997
  154.4371  140.1875  156.0891 H   0  0  0  0  0  0  0  0  0  0  0  0  # atno 8009 bound_to 7997
  156.0401  140.3296  155.7238 H   0  0  0  0  0  0  0  0  0  0  0  0  # atno 8010 bound_to 7997
  140.1078  144.4845  150.6997 H   0  0  0  0  0  0  0  0  0  0  0  0  # atno 10167 bound_to 10162
  157.5729  131.1082  150.8333 H   0  0  0  0  0  0  0  0  0  0  0  0  # atno 10718 bound_to 10713
  154.1150  135.2836  155.3222 H   0  0  0  0  0  0  0  0  0  0  0  0  # atno 10763 bound_to 10752
  154.6463  135.5385  153.7852 H   0  0  0  0  0  0  0  0  0  0  0  0  # atno 10764 bound_to 10752
  153.0332  135.6499  154.1307 H   0  0  0  0  0  0  0  0  0  0  0  0  # atno 10765 bound_to 10752
  141.1344  133.8246  157.0841 H   0  0  0  0  0  0  0  0  0  0  0  0  # atno 11005 bound_to 11000
  144.6933  139.9119  143.7464 LP  0  0  0  0  0  0  0  0  0  0  0  0  # atno 17320 bound_to 7965
  146.0682  139.3672  143.0539 LP  0  0  0  0  0  0  0  0  0  0  0  0  # atno 17321 bound_to 7965
  140.6942  143.2394  151.5046 LP  0  0  0  0  0  0  0  0  0  0  0  0  # atno 17342 bound_to 10162
  139.5636  144.2097  152.1729 LP  0  0  0  0  0  0  0  0  0  0  0  0  # atno 17343 bound_to 10162
  156.8799  130.5176  149.5291 LP  0  0  0  0  0  0  0  0  0  0  0  0  # atno 17370 bound_to 10713
  156.0774  130.5793  150.9500 LP  0  0  0  0  0  0  0  0  0  0  0  0  # atno 17371 bound_to 10713
  140.0433  134.9843  157.1003 LP  0  0  0  0  0  0  0  0  0  0  0  0  # atno 17394 bound_to 11000
  140.4101  134.1990  155.7163 LP  0  0  0  0  0  0  0  0  0  0  0  0  # atno 17395 bound_to 11000

$$$$
