AV-unprocessed.smi:2664|AV-procd|sdf|10328|dock4
  -GOLD-   2272014343D 1   1.00000     0.00000
 Structure written by MMmdl.
 44 45  0  0  0  0  0  0  0  0  2 V2000
  145.6526  138.3491  154.0126 O   0  0  0  0  0  0  0  0  0  0  0  0
  146.6227  137.9039  153.4006 C   0  0  0  0  0  0  0  0  0  0  0  0
  146.5906  136.8644  152.5489 N   0  0  0  0  0  0  0  0  0  0  0  0
  145.4706  136.0970  152.1272 C   0  0  0  0  0  0  0  0  0  0  0  0
  145.5604  135.4434  150.8780 C   0  0  0  0  0  0  0  0  0  0  0  0
  144.4682  134.6852  150.4089 C   0  0  0  0  0  0  0  0  0  0  0  0
  143.3434  134.5963  151.1505 N   0  3  0  0  0  0  0  0  0  0  0  0
  143.2051  135.2135  152.3435 C   0  0  0  0  0  0  0  0  0  0  0  0
  144.2632  135.9866  152.8636 C   0  0  0  0  0  0  0  0  0  0  0  0
  147.8669  138.3926  153.5184 N   0  0  0  0  0  0  0  0  0  0  0  0
  148.2727  139.5279  154.3524 C   0  0  2  0  0  0  0  0  0  0  0  0
  147.7332  140.8352  153.7179 C   0  0  0  0  0  0  0  0  0  0  0  0
  147.3848  141.9541  154.7180 C   0  0  0  0  0  0  0  0  0  0  0  0
  147.0489  143.1435  154.0356 O   0  0  0  0  0  0  0  0  0  0  0  0
  149.8171  139.5227  154.5466 C   0  0  0  0  0  0  0  0  0  0  0  0
  150.3894  138.0866  154.6738 C   0  0  0  0  0  0  0  0  0  0  0  0
  151.9137  138.0774  154.8704 C   0  0  0  0  0  0  0  0  0  0  0  0
  152.3230  138.9101  156.0910 C   0  0  0  0  0  0  0  0  0  0  0  0
  151.7875  140.3418  155.9708 C   0  0  0  0  0  0  0  0  0  0  0  0
  150.2631  140.3575  155.7728 C   0  0  0  0  0  0  0  0  0  0  0  0
  147.4842  136.5585  152.1925 H   0  0  0  0  0  0  0  0  0  0  0  0
  146.4597  135.5154  150.2834 H   0  0  0  0  0  0  0  0  0  0  0  0
  144.4604  134.1529  149.4689 H   0  0  0  0  0  0  0  0  0  0  0  0
  142.2558  135.0774  152.8409 H   0  0  0  0  0  0  0  0  0  0  0  0
  144.1214  136.4874  153.8089 H   0  0  0  0  0  0  0  0  0  0  0  0
  148.5986  137.9518  152.9805 H   0  0  0  0  0  0  0  0  0  0  0  0
  147.8233  139.4346  155.3425 H   0  0  0  0  0  0  0  0  0  0  0  0
  148.4583  141.2423  153.0148 H   0  0  0  0  0  0  0  0  0  0  0  0
  146.8438  140.6041  153.1304 H   0  0  0  0  0  0  0  0  0  0  0  0
  146.5288  141.6548  155.3232 H   0  0  0  0  0  0  0  0  0  0  0  0
  148.2045  142.1484  155.4096 H   0  0  0  0  0  0  0  0  0  0  0  0
  147.6995  143.7997  154.2339 H   0  0  0  0  0  0  0  0  0  0  0  0
  150.2639  139.9748  153.6594 H   0  0  0  0  0  0  0  0  0  0  0  0
  149.9124  137.5758  155.5116 H   0  0  0  0  0  0  0  0  0  0  0  0
  150.1605  137.4968  153.7865 H   0  0  0  0  0  0  0  0  0  0  0  0
  152.2670  137.0523  154.9860 H   0  0  0  0  0  0  0  0  0  0  0  0
  152.3997  138.4730  153.9776 H   0  0  0  0  0  0  0  0  0  0  0  0
  151.9371  138.4470  157.0001 H   0  0  0  0  0  0  0  0  0  0  0  0
  153.4091  138.9248  156.1857 H   0  0  0  0  0  0  0  0  0  0  0  0
  152.0514  140.9121  156.8620 H   0  0  0  0  0  0  0  0  0  0  0  0
  152.2693  140.8427  155.1303 H   0  0  0  0  0  0  0  0  0  0  0  0
  149.9556  141.3966  155.6685 H   0  0  0  0  0  0  0  0  0  0  0  0
  149.7757  139.9790  156.6723 H   0  0  0  0  0  0  0  0  0  0  0  0
  142.5638  134.0438  150.7926 H   0  0  0  0  0  0  0  0  0  0  0  0
  1  2  2  0  0  0  0
  2  3  1  0  0  0  0
  2 10  1  0  0  0  0
  3  4  1  0  0  0  0
  3 21  1  0  0  0  0
  4  9  1  0  0  0  0
  4  5  2  0  0  0  0
  5  6  1  0  0  0  0
  5 22  1  0  0  0  0
  6  7  2  0  0  0  0
  6 23  1  0  0  0  0
  7  8  1  0  0  0  0
  7 44  1  0  0  0  0
  8  9  2  0  0  0  0
  8 24  1  0  0  0  0
  9 25  1  0  0  0  0
 10 11  1  0  0  0  0
 10 26  1  0  0  0  0
 11 12  1  0  0  0  0
 11 15  1  0  0  0  0
 11 27  1  0  0  0  0
 12 13  1  0  0  0  0
 12 28  1  0  0  0  0
 12 29  1  0  0  0  0
 13 14  1  0  0  0  0
 13 30  1  0  0  0  0
 13 31  1  0  0  0  0
 14 32  1  0  0  0  0
 15 20  1  0  0  0  0
 15 16  1  0  0  0  0
 15 33  1  0  0  0  0
 16 17  1  0  0  0  0
 16 34  1  0  0  0  0
 16 35  1  0  0  0  0
 17 18  1  0  0  0  0
 17 36  1  0  0  0  0
 17 37  1  0  0  0  0
 18 19  1  0  0  0  0
 18 38  1  0  0  0  0
 18 39  1  0  0  0  0
 19 20  1  0  0  0  0
 19 40  1  0  0  0  0
 19 41  1  0  0  0  0
 20 42  1  0  0  0  0
 20 43  1  0  0  0  0
M  CHG  1   7   1
M  END
> <s_m_source_file>
AV-unprocessed.smi

> <i_m_source_file_index>
2664

> <i_lp_mmshare_version>
43012

> <i_f3d_flags>
0

> <s_epik_input>
W2NIXTFbY0hdbltjSF1bY0hdYzFbTkhdQyg9TylbTkhdW0NASF0oW0NIMl1bQ0gyXVtPSF0pW0NIXTJbQ0gyXVtDSDJdW0NIMl1bQ0gyXVtDSDJdMg==

> <s_epik_cmdline>
J2VwaWtfcHl0aG9uJywgJy1waCcsICc3LjAnLCAnLXRuJywgJzgnLCAnLW1hJywgJzIwMCcsICctbWV0YWxfYmluZGluZycsICctaW1hZScsICc8aW5maWxlLm1hZT4nLCAnLW9tYWUnLCAnPG91dGZpbGUubWFlPic=

> <r_epik_Ionization_Penalty>
1.0085

> <r_epik_Ionization_Penalty_Charging>
1.00848

> <r_epik_Ionization_Penalty_Neutral>
2.14516e-05

> <r_epik_State_Penalty>
1.05769

> <r_epik_Charging_Adjusted_Penalty>
2.06617

> <i_epik_Tot_Q>
1

> <i_epik_Tot_abs_Q>
1

> <r_epik_Metal_State_Penalty>
1.15842

> <b_epik_Metal_Only>
0

> <s_lp_Force_Field>
OPLS_2005

> <r_lp_Energy>
27.8621

> <b_lp_Chiralities_Consistent>
1

> <s_lp_Variant>
AV-unprocessed.smi:2664-3

> <Gold.Version>
5.8.1

> <Gold.Id.Protein>
6NUR|6NUR_protein|mol2

> <Gold.PLP.Fitness>
47.9031

> <Gold.PLP.PLP>
-37.0497

> <Gold.PLP.part.hbond>
-5.0692

> <Gold.PLP.part.metal>
0.0000

> <Gold.PLP.part.buried>
-2.9304

> <Gold.PLP.part.nonpolar>
-31.0387

> <Gold.PLP.part.repulsive>
0.2156

> <Gold.PLP.ligand.clash>
0.0000

> <Gold.PLP.ligand.torsion>
1.0690

> <Gold.PLP.Chemscore.Hbond>
4.3040

> <Gold.PLP.Chemscore.CHOScore>
0.0000

> <Gold.PLP.Chemscore.Metal>
0.0000

> <Gold.Chemscore.Hbonds>
donor molecule, donor type, donor heavy atom, donor atom, acceptor molecule, acceptor atom, score
      L1  H     3    21       P1  7948  0.99
      L1  H     7    44       P1 10186  1.38
      L1  H    10    26       P1  7948  0.77
      L1  H    14    32       P1  8028  0.98

> <Gold.PLP.Chemscore.Internal.Correction>
0.0795

> <Gold.Rescore>
     Score         DG    S(hbond)    S(metal)    S(lipo)     H(rot)  DE(clash)    DE(int)     intcor
     17.72     -20.03       3.10        0.00      85.44       2.27       0.23       2.08       ----

> <Gold.Chemscore.Fitness>
17.7161

> <Gold.Chemscore.DG>
-20.0251

> <Gold.Chemscore.ZeroCoef>
-5.4800

> <Gold.Chemscore.Hbond>
3.1043

> <Gold.Chemscore.Metal>
0.0000

> <Gold.Chemscore.Lipo>
85.4354

> <Gold.Chemscore.Internal_Hbond>
0.0000

> <Gold.Chemscore.DEClash>
0.2307

> <Gold.Chemscore.DEInternal>
2.0783

> <Gold.Chemscore.Rot>
2.2731

> <Gold.Chemscore.Internal.Correction>
   9.000000E+99

> <Gold.Chemscore.Hbonds>
donor molecule, donor type, donor heavy atom, donor atom, acceptor molecule, acceptor atom, score
      L1  H     3    21       P1  7948  0.92
      L1  H     7    44       P1 10186  0.39
      L1  H    10    26       P1  7948  0.74
      L1  H    14    32       P1  8028  0.27

> <Gold.Chemscore.Hbond.Weighted>
-10.3684

> <Gold.Chemscore.Metal.Weighted>
-0.0000

> <Gold.Chemscore.Lipo.Weighted>
-9.9959

> <Gold.Chemscore.Internal_Hbond.Weighted>
0.0000

> <Gold.Chemscore.DEClash.Weighted>
0.2307

> <Gold.Chemscore.DEInternal.Weighted>
2.0783

> <Gold.Chemscore.Rot.Weighted>
5.8192

> <Gold.Chemscore.Internal.Correction.Weighted>
   9.000000E+99

> <Gold.Protein.RotatedTorsions>
[ 6907 6896 6895 6894 ] final  140.65 input  -60.11 | X-H torsion
[ 7974 7965 7964 7962 ] final  -77.69 input  175.53 | X-H torsion
[ 8008 7997 7996 7995 ] final   50.88 input   59.86 | X-H torsion
[ 10167 10162 10161 10158 ] final  -84.08 input  -65.29 | X-H torsion
[ 10718 10713 10712 10709 ] final -174.96 input   66.30 | X-H torsion
[ 10763 10752 10751 10750 ] final  137.75 input  -60.55 | X-H torsion
[ 11005 11000 10999 10996 ] final -142.14 input  -57.11 | X-H torsion

> <Gold.Protein.ActiveResidues>
 VAL166  LYS551  ARG553  GLY616  TRP617  ASP618  TYR619  PRO620  LYS621  CYS622 
 ASP623  PHE694  ASN695  SER759  ASP760  ASP761  ALA762  ILE779  LEU786  VAL792 
 PHE793  MET794  SER795  GLU796  ALA797  LYS798  CYS799  TRP800  GLU811  SER814 

> <Gold.Protein.RotatedAtoms>
  152.2405  133.5131  159.5266 H   0  0  0  0  0  0  0  0  0  0  0  0  # atno 6907 bound_to 6896
  150.7063  134.1096  159.4004 H   0  0  0  0  0  0  0  0  0  0  0  0  # atno 6908 bound_to 6896
  151.9017  135.0375  160.0557 H   0  0  0  0  0  0  0  0  0  0  0  0  # atno 6909 bound_to 6896
  145.5964  140.9418  143.1264 H   0  0  0  0  0  0  0  0  0  0  0  0  # atno 7974 bound_to 7965
  155.4261  140.3448  155.4275 H   0  0  0  0  0  0  0  0  0  0  0  0  # atno 8008 bound_to 7997
  156.1364  140.1529  156.9018 H   0  0  0  0  0  0  0  0  0  0  0  0  # atno 8009 bound_to 7997
  154.4935  140.0834  156.7627 H   0  0  0  0  0  0  0  0  0  0  0  0  # atno 8010 bound_to 7997
  140.4166  143.2601  151.8946 H   0  0  0  0  0  0  0  0  0  0  0  0  # atno 10167 bound_to 10162
  156.7928  130.9524  151.3120 H   0  0  0  0  0  0  0  0  0  0  0  0  # atno 10718 bound_to 10713
  153.8783  135.3047  155.3444 H   0  0  0  0  0  0  0  0  0  0  0  0  # atno 10763 bound_to 10752
  154.7773  135.4854  153.9775 H   0  0  0  0  0  0  0  0  0  0  0  0  # atno 10764 bound_to 10752
  153.1366  135.6815  153.9190 H   0  0  0  0  0  0  0  0  0  0  0  0  # atno 10765 bound_to 10752
  140.8254  134.2580  157.4881 H   0  0  0  0  0  0  0  0  0  0  0  0  # atno 11005 bound_to 11000
  144.7329  139.7673  143.7340 LP  0  0  0  0  0  0  0  0  0  0  0  0  # atno 17320 bound_to 7965
  146.1609  139.4722  142.9989 LP  0  0  0  0  0  0  0  0  0  0  0  0  # atno 17321 bound_to 7965
  139.4782  144.5481  151.8427 LP  0  0  0  0  0  0  0  0  0  0  0  0  # atno 17342 bound_to 10162
  140.4579  144.1763  150.5903 LP  0  0  0  0  0  0  0  0  0  0  0  0  # atno 17343 bound_to 10162
  157.6592  130.8951  149.9794 LP  0  0  0  0  0  0  0  0  0  0  0  0  # atno 17370 bound_to 10713
  156.1149  130.3648  149.9986 LP  0  0  0  0  0  0  0  0  0  0  0  0  # atno 17371 bound_to 10713
  139.8706  134.9558  156.4217 LP  0  0  0  0  0  0  0  0  0  0  0  0  # atno 17394 bound_to 11000
  140.9054  133.7749  155.9729 LP  0  0  0  0  0  0  0  0  0  0  0  0  # atno 17395 bound_to 11000

$$$$
