AV-unprocessed.smi:102|AV-procd|sdf|976|dock2
  -GOLD-   2262017533D 1   1.00000     0.00000
 Structure written by MMmdl.
 43 44  0  0  0  0  0  0  0  0  2 V2000
  151.2257  141.6990  157.8420 C   0  0  0  0  0  0  0  0  0  0  0  0
  151.9207  140.3662  157.5975 C   0  0  0  0  0  0  0  0  0  0  0  0
  152.8254  139.9697  158.3325 O   0  0  0  0  0  0  0  0  0  0  0  0
  151.4310  139.7225  156.5225 O   0  0  0  0  0  0  0  0  0  0  0  0
  152.0544  138.5367  156.0483 C   0  0  0  0  0  0  0  0  0  0  0  0
  151.0770  137.7094  155.1923 C   0  0  1  0  0  0  0  0  0  0  0  0
  151.5096  136.3534  155.1356 O   0  0  0  0  0  0  0  0  0  0  0  0
  150.9500  135.6163  156.1822 C   0  0  2  0  0  0  0  0  0  0  0  0
  150.4293  134.3084  155.6243 N   0  0  0  0  0  0  0  0  0  0  0  0
  149.6201  134.2971  154.5009 C   0  0  0  0  0  0  0  0  0  0  0  0
  149.1315  133.1435  154.0027 C   0  0  0  0  0  0  0  0  0  0  0  0
  148.3462  133.1650  152.9120 F   0  0  0  0  0  0  0  0  0  0  0  0
  149.4579  131.8781  154.6576 C   0  0  0  0  0  0  0  0  0  0  0  0
  149.0160  130.8281  154.1941 O   0  0  0  0  0  0  0  0  0  0  0  0
  150.2470  131.9202  155.7704 N   0  5  0  0  0  0  0  0  0  0  0  0
  150.7363  133.0867  156.2838 C   0  0  0  0  0  0  0  0  0  0  0  0
  151.4238  133.1361  157.3038 O   0  0  0  0  0  0  0  0  0  0  0  0
  149.8385  136.4737  156.8211 C   0  0  2  0  0  0  0  0  0  0  0  0
  148.6253  135.7570  157.0370 O   0  0  0  0  0  0  0  0  0  0  0  0
  148.1850  135.5282  158.2832 C   0  0  0  0  0  0  0  0  0  0  0  0
  146.8846  134.7363  158.3015 C   0  0  0  0  0  0  0  0  0  0  0  0
  148.7263  135.9016  159.3241 O   0  0  0  0  0  0  0  0  0  0  0  0
  149.6852  137.6188  155.8257 C   0  0  2  0  0  0  0  0  0  0  0  0
  148.7256  137.2958  154.8227 O   0  0  0  0  0  0  0  0  0  0  0  0
  148.1289  138.2637  154.1087 C   0  0  0  0  0  0  0  0  0  0  0  0
  146.8674  137.7722  153.4119 C   0  0  0  0  0  0  0  0  0  0  0  0
  148.5184  139.4258  153.9928 O   0  0  0  0  0  0  0  0  0  0  0  0
  150.1432  141.5702  157.8405 H   0  0  0  0  0  0  0  0  0  0  0  0
  151.4923  142.4119  157.0615 H   0  0  0  0  0  0  0  0  0  0  0  0
  151.5226  142.1145  158.8053 H   0  0  0  0  0  0  0  0  0  0  0  0
  152.9788  138.7516  155.5102 H   0  0  0  0  0  0  0  0  0  0  0  0
  152.3387  137.9550  156.9254 H   0  0  0  0  0  0  0  0  0  0  0  0
  151.0305  138.1354  154.1891 H   0  0  0  0  0  0  0  0  0  0  0  0
  151.7466  135.3622  156.8825 H   0  0  0  0  0  0  0  0  0  0  0  0
  149.3654  135.2245  154.0105 H   0  0  0  0  0  0  0  0  0  0  0  0
  150.2383  136.8553  157.7620 H   0  0  0  0  0  0  0  0  0  0  0  0
  146.8447  134.0447  157.4593 H   0  0  0  0  0  0  0  0  0  0  0  0
  146.0322  135.4123  158.2356 H   0  0  0  0  0  0  0  0  0  0  0  0
  146.8019  134.1612  159.2237 H   0  0  0  0  0  0  0  0  0  0  0  0
  149.4006  138.5389  156.3385 H   0  0  0  0  0  0  0  0  0  0  0  0
  146.1943  137.3058  154.1316 H   0  0  0  0  0  0  0  0  0  0  0  0
  147.1203  137.0375  152.6474 H   0  0  0  0  0  0  0  0  0  0  0  0
  146.3440  138.6017  152.9361 H   0  0  0  0  0  0  0  0  0  0  0  0
  1  2  1  0  0  0  0
  1 28  1  0  0  0  0
  1 29  1  0  0  0  0
  1 30  1  0  0  0  0
  2  3  2  0  0  0  0
  2  4  1  0  0  0  0
  4  5  1  0  0  0  0
  5  6  1  0  0  0  0
  5 31  1  0  0  0  0
  5 32  1  0  0  0  0
  6 23  1  0  0  0  0
  6  7  1  0  0  0  0
  6 33  1  0  0  0  0
  7  8  1  0  0  0  0
  8  9  1  0  0  0  0
  8 18  1  0  0  0  0
  8 34  1  0  0  0  0
  9 16  1  0  0  0  0
  9 10  1  0  0  0  0
 10 11  2  0  0  0  0
 10 35  1  0  0  0  0
 11 12  1  0  0  0  0
 11 13  1  0  0  0  0
 13 14  2  0  0  0  0
 13 15  1  0  0  0  0
 15 16  1  0  0  0  0
 16 17  2  0  0  0  0
 18 19  1  0  0  0  0
 18 23  1  0  0  0  0
 18 36  1  0  0  0  0
 19 20  1  0  0  0  0
 20 21  1  0  0  0  0
 20 22  2  0  0  0  0
 21 37  1  0  0  0  0
 21 38  1  0  0  0  0
 21 39  1  0  0  0  0
 23 24  1  0  0  0  0
 23 40  1  0  0  0  0
 24 25  1  0  0  0  0
 25 26  1  0  0  0  0
 25 27  2  0  0  0  0
 26 41  1  0  0  0  0
 26 42  1  0  0  0  0
 26 43  1  0  0  0  0
M  CHG  1  15  -1
M  END
> <s_m_source_file>
AV-unprocessed.smi

> <i_m_source_file_index>
102

> <i_lp_mmshare_version>
43012

> <i_f3d_flags>
0

> <s_epik_input>
W0NIM11DKD1PKU9bQ0gyXVtDQEBIXTFPW0NASF0oW0NAQEhdKE9DKD1PKVtDSDNdKVtDQEhdMU9DKD1PKVtDSDNdKW4yW2NIXWMoRiljKD1PKVtuSF1jMj1P

> <s_epik_cmdline>
J2VwaWtfcHl0aG9uJywgJy1waCcsICc3LjAnLCAnLXRuJywgJzgnLCAnLW1hJywgJzIwMCcsICctbWV0YWxfYmluZGluZycsICctaW1hZScsICc8aW5maWxlLm1hZT4nLCAnLW9tYWUnLCAnPG91dGZpbGUubWFlPic=

> <r_epik_Ionization_Penalty>
1.40304

> <r_epik_Ionization_Penalty_Charging>
1.43915e-08

> <r_epik_Ionization_Penalty_Neutral>
1.40304

> <r_epik_State_Penalty>
1.48536

> <r_epik_Charging_Adjusted_Penalty>
1.48536

> <i_epik_Tot_Q>
-1

> <i_epik_Tot_abs_Q>
1

> <r_epik_Metal_State_Penalty>
0.00663881

> <b_epik_Metal_Only>
0

> <s_epik_Chemistry_Notes>
This compound has an ester and may undergo hydrolysis at high or low pH. This compound contains an acetal/aminal-like group ( X-CH(R)-Y where X, Y are N, S, or O) that may be acid/base labile, releasing an aldehyde.

> <s_lp_Force_Field>
OPLS_2005

> <r_lp_Energy>
22.8271

> <b_lp_Chiralities_Consistent>
1

> <s_lp_Variant>
AV-unprocessed.smi:102-32

> <Gold.Version>
5.8.1

> <Gold.Id.Protein>
6NUR|6NUR_protein|mol2

> <Gold.PLP.Fitness>
42.9564

> <Gold.PLP.PLP>
-32.0979

> <Gold.PLP.part.hbond>
-4.0000

> <Gold.PLP.part.metal>
0.0000

> <Gold.PLP.part.buried>
-5.9093

> <Gold.PLP.part.nonpolar>
-23.6721

> <Gold.PLP.part.repulsive>
0.4308

> <Gold.PLP.ligand.clash>
0.0000

> <Gold.PLP.ligand.torsion>
1.7676

> <Gold.PLP.Chemscore.Hbond>
3.7360

> <Gold.PLP.Chemscore.CHOScore>
1.0000

> <Gold.PLP.Chemscore.Metal>
0.0000

> <Gold.Chemscore.Hbonds>
donor molecule, donor type, donor heavy atom, donor atom, acceptor molecule, acceptor atom, score
      P1  H  6896  6907       L1    17  0.77
      P1  H  6896  6908       L1    22  0.16
      P1  H  7997  8010       L1     3  0.55
      P1  H 10752 10764       L1     7  1.00
      L1  C    10    35       P1  7948  1.00

> <Gold.PLP.Chemscore.Internal.Correction>
0.1857

> <Gold.Rescore>
     Score         DG    S(hbond)    S(metal)    S(lipo)     H(rot)  DE(clash)    DE(int)     intcor
     10.29     -12.03       3.67        0.00      38.58       4.00       0.07       1.67       ----

> <Gold.Chemscore.Fitness>
10.2920

> <Gold.Chemscore.DG>
-12.0302

> <Gold.Chemscore.ZeroCoef>
-5.4800

> <Gold.Chemscore.Hbond>
3.6717

> <Gold.Chemscore.Metal>
0.0000

> <Gold.Chemscore.Lipo>
38.5830

> <Gold.Chemscore.Internal_Hbond>
0.0000

> <Gold.Chemscore.DEClash>
0.0687

> <Gold.Chemscore.DEInternal>
1.6694

> <Gold.Chemscore.Rot>
3.9951

> <Gold.Chemscore.Internal.Correction>
   9.000000E+99

> <Gold.Chemscore.Hbonds>
donor molecule, donor type, donor heavy atom, donor atom, acceptor molecule, acceptor atom, score
      P1  H  6896  6907       L1    17  0.75
      P1  H  6896  6908       L1    22  0.15
      P1  H  7997  8010       L1     3  0.26
      P1  H 10752 10764       L1     7  0.70

> <Gold.Chemscore.Hbond.Weighted>
-12.2634

> <Gold.Chemscore.Metal.Weighted>
-0.0000

> <Gold.Chemscore.Lipo.Weighted>
-4.5142

> <Gold.Chemscore.Internal_Hbond.Weighted>
0.0000

> <Gold.Chemscore.DEClash.Weighted>
0.0687

> <Gold.Chemscore.DEInternal.Weighted>
1.6694

> <Gold.Chemscore.Rot.Weighted>
10.2274

> <Gold.Chemscore.Internal.Correction.Weighted>
   9.000000E+99

> <Gold.Protein.RotatedTorsions>
[ 6907 6896 6895 6894 ] final -170.85 input  -60.11 | X-H torsion
[ 7974 7965 7964 7962 ] final  -88.96 input  175.53 | X-H torsion
[ 8008 7997 7996 7995 ] final   28.24 input   59.86 | X-H torsion
[ 10167 10162 10161 10158 ] final  152.46 input  -65.29 | X-H torsion
[ 10718 10713 10712 10709 ] final  -95.84 input   66.30 | X-H torsion
[ 10763 10752 10751 10750 ] final  -58.19 input  -60.55 | X-H torsion
[ 11005 11000 10999 10996 ] final  -21.23 input  -57.11 | X-H torsion

> <Gold.Protein.ActiveResidues>
 VAL166  LYS551  ARG553  GLY616  TRP617  ASP618  TYR619  PRO620  LYS621  CYS622 
 ASP623  PHE694  ASN695  SER759  ASP760  ASP761  ALA762  ILE779  LEU786  VAL792 
 PHE793  MET794  SER795  GLU796  ALA797  LYS798  CYS799  TRP800  GLU811  SER814 

> <Gold.Protein.RotatedAtoms>
  151.5143  133.3479  159.2890 H   0  0  0  0  0  0  0  0  0  0  0  0  # atno 6907 bound_to 6896
  150.8692  134.8065  159.7153 H   0  0  0  0  0  0  0  0  0  0  0  0  # atno 6908 bound_to 6896
  152.4686  134.5024  159.9780 H   0  0  0  0  0  0  0  0  0  0  0  0  # atno 6909 bound_to 6896
  145.4461  140.9560  143.2048 H   0  0  0  0  0  0  0  0  0  0  0  0  # atno 7974 bound_to 7965
  155.0555  140.3184  155.4677 H   0  0  0  0  0  0  0  0  0  0  0  0  # atno 8008 bound_to 7997
  156.2825  140.2138  156.5626 H   0  0  0  0  0  0  0  0  0  0  0  0  # atno 8009 bound_to 7997
  154.7175  140.0492  157.0596 H   0  0  0  0  0  0  0  0  0  0  0  0  # atno 8010 bound_to 7997
  139.4833  144.5356  151.7650 H   0  0  0  0  0  0  0  0  0  0  0  0  # atno 10167 bound_to 10162
  156.0050  130.5126  150.6136 H   0  0  0  0  0  0  0  0  0  0  0  0  # atno 10718 bound_to 10713
  154.2342  135.6355  153.5185 H   0  0  0  0  0  0  0  0  0  0  0  0  # atno 10763 bound_to 10752
  152.9943  135.5526  154.5980 H   0  0  0  0  0  0  0  0  0  0  0  0  # atno 10764 bound_to 10752
  154.5470  135.2899  155.1018 H   0  0  0  0  0  0  0  0  0  0  0  0  # atno 10765 bound_to 10752
  140.8541  133.7835  156.0000 H   0  0  0  0  0  0  0  0  0  0  0  0  # atno 11005 bound_to 11000
  144.8090  139.5996  143.7038 LP  0  0  0  0  0  0  0  0  0  0  0  0  # atno 17320 bound_to 7965
  146.2530  139.6240  142.9414 LP  0  0  0  0  0  0  0  0  0  0  0  0  # atno 17321 bound_to 7965
  140.4888  144.1341  150.5946 LP  0  0  0  0  0  0  0  0  0  0  0  0  # atno 17342 bound_to 10162
  140.4194  143.2618  151.9734 LP  0  0  0  0  0  0  0  0  0  0  0  0  # atno 17343 bound_to 10162
  157.3964  131.0803  151.1348 LP  0  0  0  0  0  0  0  0  0  0  0  0  # atno 17370 bound_to 10713
  157.2023  130.6400  149.5743 LP  0  0  0  0  0  0  0  0  0  0  0  0  # atno 17371 bound_to 10713
  140.8756  134.2673  157.5169 LP  0  0  0  0  0  0  0  0  0  0  0  0  # atno 17394 bound_to 11000
  139.8705  134.9589  156.4316 LP  0  0  0  0  0  0  0  0  0  0  0  0  # atno 17395 bound_to 11000

$$$$
