AV-unprocessed.smi:409|AV-procd|sdf|2505|dock7
  -GOLD-   2262022453D 1   1.00000     0.00000
 Structure written by MMmdl.
 35 36  0  0  0  0  0  0  0  0  1 V2000
  150.4303  141.1407  158.0372 O   0  0  0  0  0  0  0  0  0  0  0  0
  150.2267  141.8466  157.0481 C   0  0  0  0  0  0  0  0  0  0  0  0
  149.5267  141.2764  155.8063 C   0  0  0  0  0  0  0  0  0  0  0  0
  150.2105  140.1002  155.2491 N   0  0  0  0  0  0  0  0  0  0  0  0
  151.5164  139.8093  155.6177 C   0  0  0  0  0  0  0  0  0  0  0  0
  152.2093  138.7509  155.1347 C   0  0  0  0  0  0  0  0  0  0  0  0
  151.5938  137.8410  154.1747 C   0  0  0  0  0  0  0  0  0  0  0  0
  152.1383  136.8557  153.6817 O   0  0  0  0  0  0  0  0  0  0  0  0
  150.2807  138.1683  153.8272 N   0  0  0  0  0  0  0  0  0  0  0  0
  149.5613  139.2583  154.3199 C   0  0  0  0  0  0  0  0  0  0  0  0
  148.4072  139.4587  153.9431 O   0  0  0  0  0  0  0  0  0  0  0  0
  150.5707  143.1423  156.9874 N   0  0  0  0  0  0  0  0  0  0  0  0
  151.2382  143.8897  158.0485 C   0  0  0  0  0  0  0  0  0  0  0  0
  152.3964  143.0664  158.6501 C   0  0  0  0  0  0  0  0  0  0  0  0
  153.0625  143.8059  159.8217 C   0  0  0  0  0  0  0  0  0  0  0  0
  152.0355  144.1821  160.9011 C   0  0  0  0  0  0  0  0  0  0  0  0
  150.8835  145.0071  160.3063 C   0  0  0  0  0  0  0  0  0  0  0  0
  150.2146  144.2678  159.1360 C   0  0  0  0  0  0  0  0  0  0  0  0
  149.8142  137.5681  153.1627 H   0  0  0  0  0  0  0  0  0  0  0  0
  148.5024  141.0222  156.0828 H   0  0  0  0  0  0  0  0  0  0  0  0
  149.4345  142.0530  155.0442 H   0  0  0  0  0  0  0  0  0  0  0  0
  152.0146  140.4591  156.3234 H   0  0  0  0  0  0  0  0  0  0  0  0
  153.2250  138.5776  155.4598 H   0  0  0  0  0  0  0  0  0  0  0  0
  150.3601  143.6477  156.1390 H   0  0  0  0  0  0  0  0  0  0  0  0
  151.6424  144.8138  157.6301 H   0  0  0  0  0  0  0  0  0  0  0  0
  152.0224  142.1022  158.9978 H   0  0  0  0  0  0  0  0  0  0  0  0
  153.1433  142.8496  157.8855 H   0  0  0  0  0  0  0  0  0  0  0  0
  153.8467  143.1848  160.2552 H   0  0  0  0  0  0  0  0  0  0  0  0
  153.5516  144.7079  159.4520 H   0  0  0  0  0  0  0  0  0  0  0  0
  151.6379  143.2758  161.3594 H   0  0  0  0  0  0  0  0  0  0  0  0
  152.5225  144.7438  161.6989 H   0  0  0  0  0  0  0  0  0  0  0  0
  150.1452  145.2249  161.0787 H   0  0  0  0  0  0  0  0  0  0  0  0
  151.2634  145.9694  159.9610 H   0  0  0  0  0  0  0  0  0  0  0  0
  149.4291  144.8927  158.7093 H   0  0  0  0  0  0  0  0  0  0  0  0
  149.7242  143.3686  159.5119 H   0  0  0  0  0  0  0  0  0  0  0  0
  1  2  2  0  0  0  0
  2  3  1  0  0  0  0
  2 12  1  0  0  0  0
  3  4  1  0  0  0  0
  3 20  1  0  0  0  0
  3 21  1  0  0  0  0
  4 10  1  0  0  0  0
  4  5  1  0  0  0  0
  5  6  2  0  0  0  0
  5 22  1  0  0  0  0
  6  7  1  0  0  0  0
  6 23  1  0  0  0  0
  7  8  2  0  0  0  0
  7  9  1  0  0  0  0
  9 19  1  0  0  0  0
  9 10  1  0  0  0  0
 10 11  2  0  0  0  0
 12 13  1  0  0  0  0
 12 24  1  0  0  0  0
 13 18  1  0  0  0  0
 13 14  1  0  0  0  0
 13 25  1  0  0  0  0
 14 15  1  0  0  0  0
 14 26  1  0  0  0  0
 14 27  1  0  0  0  0
 15 16  1  0  0  0  0
 15 28  1  0  0  0  0
 15 29  1  0  0  0  0
 16 17  1  0  0  0  0
 16 30  1  0  0  0  0
 16 31  1  0  0  0  0
 17 18  1  0  0  0  0
 17 32  1  0  0  0  0
 17 33  1  0  0  0  0
 18 34  1  0  0  0  0
 18 35  1  0  0  0  0
M  END
> <s_m_source_file>
AV-unprocessed.smi

> <i_m_source_file_index>
409

> <i_lp_mmshare_version>
43012

> <i_f3d_flags>
0

> <s_epik_input>
W0NIMl0xW0NIMl1bQ0gyXVtDSDJdW0NIMl1bQ0hdMVtOSF1DKD1PKVtDSDJdbjJbY0hdW2NIXWMoPU8pW25IXWMyPU8=

> <s_epik_cmdline>
J2VwaWtfcHl0aG9uJywgJy1waCcsICc3LjAnLCAnLXRuJywgJzgnLCAnLW1hJywgJzIwMCcsICctbWV0YWxfYmluZGluZycsICctaW1hZScsICc8aW5maWxlLm1hZT4nLCAnLW9tYWUnLCAnPG91dGZpbGUubWFlPic=

> <r_lp_tautomer_probability>
0.999537

> <r_epik_Ionization_Penalty>
0.00309578

> <r_epik_Ionization_Penalty_Charging>
0.00309576

> <r_epik_Ionization_Penalty_Neutral>
1.90469e-08

> <r_epik_State_Penalty>
0.00217825

> <r_epik_Charging_Adjusted_Penalty>
0.00527401

> <i_epik_Tot_Q>
0

> <i_epik_Tot_abs_Q>
0

> <r_epik_Metal_State_Penalty>
0.362603

> <b_epik_Metal_Only>
0

> <s_lp_Force_Field>
OPLS_2005

> <r_lp_Energy>
8.21917

> <b_lp_Chiralities_Consistent>
1

> <s_lp_Variant>
AV-unprocessed.smi:409-1

> <Gold.Version>
5.8.1

> <Gold.Id.Protein>
6NUR|6NUR_protein|mol2

> <Gold.PLP.Fitness>
43.4327

> <Gold.PLP.PLP>
-36.1907

> <Gold.PLP.part.hbond>
-3.0590

> <Gold.PLP.part.metal>
0.0000

> <Gold.PLP.part.buried>
-6.8754

> <Gold.PLP.part.nonpolar>
-31.6945

> <Gold.PLP.part.repulsive>
4.4116

> <Gold.PLP.ligand.clash>
0.0000

> <Gold.PLP.ligand.torsion>
0.4374

> <Gold.PLP.Chemscore.Hbond>
2.7040

> <Gold.PLP.Chemscore.CHOScore>
0.0000

> <Gold.PLP.Chemscore.Metal>
0.0000

> <Gold.Chemscore.Hbonds>
donor molecule, donor type, donor heavy atom, donor atom, acceptor molecule, acceptor atom, score
      L1  H     9    19       P1  7948  1.00
      L1  H    12    24       P1  8028  0.64
      P1  H 10752 10765       L1     8  0.98

> <Gold.PLP.Chemscore.Internal.Correction>
0.0048

> <Gold.Rescore>
     Score         DG    S(hbond)    S(metal)    S(lipo)     H(rot)  DE(clash)    DE(int)     intcor
     15.98     -20.95       2.87        0.00      87.38       1.70       1.94       3.03       ----

> <Gold.Chemscore.Fitness>
15.9826

> <Gold.Chemscore.DG>
-20.9479

> <Gold.Chemscore.ZeroCoef>
-5.4800

> <Gold.Chemscore.Hbond>
2.8745

> <Gold.Chemscore.Metal>
0.0000

> <Gold.Chemscore.Lipo>
87.3774

> <Gold.Chemscore.Internal_Hbond>
0.0000

> <Gold.Chemscore.DEClash>
1.9369

> <Gold.Chemscore.DEInternal>
3.0284

> <Gold.Chemscore.Rot>
1.7015

> <Gold.Chemscore.Internal.Correction>
   9.000000E+99

> <Gold.Chemscore.Hbonds>
donor molecule, donor type, donor heavy atom, donor atom, acceptor molecule, acceptor atom, score
      L1  H     9    19       P1  7948  0.53
      L1  H    12    24       P1  8028  0.64
      P1  H 10752 10765       L1     8  0.87

> <Gold.Chemscore.Hbond.Weighted>
-9.6007

> <Gold.Chemscore.Metal.Weighted>
-0.0000

> <Gold.Chemscore.Lipo.Weighted>
-10.2232

> <Gold.Chemscore.Internal_Hbond.Weighted>
0.0000

> <Gold.Chemscore.DEClash.Weighted>
1.9369

> <Gold.Chemscore.DEInternal.Weighted>
3.0284

> <Gold.Chemscore.Rot.Weighted>
4.3559

> <Gold.Chemscore.Internal.Correction.Weighted>
   9.000000E+99

> <Gold.Protein.RotatedTorsions>
[ 6907 6896 6895 6894 ] final -118.48 input  -60.11 | X-H torsion
[ 7974 7965 7964 7962 ] final  101.48 input  175.53 | X-H torsion
[ 8008 7997 7996 7995 ] final  -60.50 input   59.86 | X-H torsion
[ 10167 10162 10161 10158 ] final  134.78 input  -65.29 | X-H torsion
[ 10718 10713 10712 10709 ] final  111.35 input   66.30 | X-H torsion
[ 10763 10752 10751 10750 ] final  126.95 input  -60.55 | X-H torsion
[ 11005 11000 10999 10996 ] final   39.75 input  -57.11 | X-H torsion

> <Gold.Protein.ActiveResidues>
 VAL166  LYS551  ARG553  GLY616  TRP617  ASP618  TYR619  PRO620  LYS621  CYS622 
 ASP623  PHE694  ASN695  SER759  ASP760  ASP761  ALA762  ILE779  LEU786  VAL792 
 PHE793  MET794  SER795  GLU796  ALA797  LYS798  CYS799  TRP800  GLU811  SER814 

> <Gold.Protein.RotatedAtoms>
  150.8223  133.8231  159.3133 H   0  0  0  0  0  0  0  0  0  0  0  0  # atno 6907 bound_to 6896
  151.5986  135.1047  160.0064 H   0  0  0  0  0  0  0  0  0  0  0  0  # atno 6908 bound_to 6896
  152.4311  133.7238  159.6605 H   0  0  0  0  0  0  0  0  0  0  0  0  # atno 6909 bound_to 6896
  145.3717  139.2397  143.3451 H   0  0  0  0  0  0  0  0  0  0  0  0  # atno 7974 bound_to 7965
  154.4402  140.1038  156.6283 H   0  0  0  0  0  0  0  0  0  0  0  0  # atno 8008 bound_to 7997
  155.5632  140.3488  155.4478 H   0  0  0  0  0  0  0  0  0  0  0  0  # atno 8009 bound_to 7997
  156.0444  140.1289  157.0109 H   0  0  0  0  0  0  0  0  0  0  0  0  # atno 8010 bound_to 7997
  139.5243  144.6550  151.5189 H   0  0  0  0  0  0  0  0  0  0  0  0  # atno 10167 bound_to 10162
  157.6449  131.0949  150.6735 H   0  0  0  0  0  0  0  0  0  0  0  0  # atno 10718 bound_to 10713
  153.7015  135.3282  155.3226 H   0  0  0  0  0  0  0  0  0  0  0  0  # atno 10763 bound_to 10752
  154.8411  135.4455  154.1406 H   0  0  0  0  0  0  0  0  0  0  0  0  # atno 10764 bound_to 10752
  153.2474  135.6977  153.7794 H   0  0  0  0  0  0  0  0  0  0  0  0  # atno 10765 bound_to 10752
  140.1997  134.3885  155.8102 H   0  0  0  0  0  0  0  0  0  0  0  0  # atno 11005 bound_to 11000
  146.2882  140.4370  142.8749 LP  0  0  0  0  0  0  0  0  0  0  0  0  # atno 17320 bound_to 7965
  144.8571  140.7086  143.6131 LP  0  0  0  0  0  0  0  0  0  0  0  0  # atno 17321 bound_to 7965
  140.6372  143.8961  150.6658 LP  0  0  0  0  0  0  0  0  0  0  0  0  # atno 17342 bound_to 10162
  140.2284  143.3754  152.1586 LP  0  0  0  0  0  0  0  0  0  0  0  0  # atno 17343 bound_to 10162
  156.7054  130.4635  149.5561 LP  0  0  0  0  0  0  0  0  0  0  0  0  # atno 17370 bound_to 10713
  156.1767  130.6472  151.0902 LP  0  0  0  0  0  0  0  0  0  0  0  0  # atno 17371 bound_to 10713
  141.2227  133.7088  156.8237 LP  0  0  0  0  0  0  0  0  0  0  0  0  # atno 17394 bound_to 11000
  140.2067  134.8857  157.3230 LP  0  0  0  0  0  0  0  0  0  0  0  0  # atno 17395 bound_to 11000

$$$$
