AV-unprocessed.smi:1265|AV-procd|sdf|5317|dock1
  -GOLD-   22720 4443D 1   1.00000     0.00000
 Structure written by MMmdl.
 45 47  0  0  0  0  0  0  0  0  2 V2000
  144.8242  136.1209  153.3654 O   0  0  0  0  0  0  0  0  0  0  0  0
  145.9567  136.1900  152.8896 C   0  0  0  0  0  0  0  0  0  0  0  0
  146.8595  137.1097  153.2580 N   0  0  0  0  0  0  0  0  0  0  0  0
  146.6531  138.1669  154.2473 C   0  0  0  0  0  0  0  0  0  0  0  0
  147.9326  139.0398  154.4686 C   0  0  1  0  0  0  0  0  0  0  0  0
  149.1617  138.1904  154.3930 N   0  0  0  0  0  0  0  0  0  0  0  0
  150.4458  138.9023  154.4747 C   0  0  0  0  0  0  0  0  0  0  0  0
  151.6515  137.9609  154.3100 C   0  0  0  0  0  0  0  0  0  0  0  0
  151.5934  136.9272  155.2834 O   0  0  0  0  0  0  0  0  0  0  0  0
  150.3995  136.1637  155.1819 C   0  0  0  0  0  0  0  0  0  0  0  0
  149.1806  137.0841  155.3602 C   0  0  0  0  0  0  0  0  0  0  0  0
  147.9121  140.1913  153.4215 C   0  0  0  0  0  0  0  0  0  0  0  0
  146.8008  141.1830  153.7824 C   0  0  0  0  0  0  0  0  0  0  0  0
  146.6606  141.2019  155.5850 S   0  0  0  0  0  0  0  0  0  0  0  0
  147.7779  139.7909  155.8161 C   0  0  0  0  0  0  0  0  0  0  0  0
  146.4611  135.3712  151.9498 N   0  0  0  0  0  0  0  0  0  0  0  0
  145.8581  134.2551  151.3053 C   0  0  0  0  0  0  0  0  0  0  0  0
  144.4586  134.1130  151.4400 C   0  0  0  0  0  0  0  0  0  0  0  0
  143.8053  133.0229  150.8301 C   0  0  0  0  0  0  0  0  0  0  0  0
  144.5199  132.1195  150.1265 N   0  3  0  0  0  0  0  0  0  0  0  0
  145.8587  132.2060  149.9767 C   0  0  0  0  0  0  0  0  0  0  0  0
  146.5672  133.2737  150.5648 C   0  0  0  0  0  0  0  0  0  0  0  0
  147.7623  137.0951  152.8064 H   0  0  0  0  0  0  0  0  0  0  0  0
  145.7911  138.7760  153.9765 H   0  0  0  0  0  0  0  0  0  0  0  0
  146.3388  137.6913  155.1752 H   0  0  0  0  0  0  0  0  0  0  0  0
  150.5304  139.6503  153.6902 H   0  0  0  0  0  0  0  0  0  0  0  0
  150.5379  139.4222  155.4276 H   0  0  0  0  0  0  0  0  0  0  0  0
  151.6697  137.5279  153.3085 H   0  0  0  0  0  0  0  0  0  0  0  0
  152.5823  138.5141  154.4357 H   0  0  0  0  0  0  0  0  0  0  0  0
  150.3627  135.6551  154.2172 H   0  0  0  0  0  0  0  0  0  0  0  0
  150.4055  135.3909  155.9507 H   0  0  0  0  0  0  0  0  0  0  0  0
  149.1796  137.4779  156.3772 H   0  0  0  0  0  0  0  0  0  0  0  0
  148.2936  136.4624  155.2633 H   0  0  0  0  0  0  0  0  0  0  0  0
  148.8309  140.7721  153.4559 H   0  0  0  0  0  0  0  0  0  0  0  0
  147.8159  139.8330  152.3967 H   0  0  0  0  0  0  0  0  0  0  0  0
  147.0114  142.1829  153.4021 H   0  0  0  0  0  0  0  0  0  0  0  0
  145.8474  140.8697  153.3571 H   0  0  0  0  0  0  0  0  0  0  0  0
  147.4112  139.1468  156.6159 H   0  0  0  0  0  0  0  0  0  0  0  0
  148.7258  140.2057  156.1542 H   0  0  0  0  0  0  0  0  0  0  0  0
  147.4225  135.5437  151.6950 H   0  0  0  0  0  0  0  0  0  0  0  0
  143.8848  134.8346  152.0036 H   0  0  0  0  0  0  0  0  0  0  0  0
  142.7408  132.8475  150.8853 H   0  0  0  0  0  0  0  0  0  0  0  0
  146.3224  131.4203  149.3980 H   0  0  0  0  0  0  0  0  0  0  0  0
  147.6378  133.3064  150.4390 H   0  0  0  0  0  0  0  0  0  0  0  0
  144.0286  131.3371  149.6929 H   0  0  0  0  0  0  0  0  0  0  0  0
  1  2  2  0  0  0  0
  2  3  1  0  0  0  0
  2 16  1  0  0  0  0
  3  4  1  0  0  0  0
  3 23  1  0  0  0  0
  4  5  1  0  0  0  0
  4 24  1  0  0  0  0
  4 25  1  0  0  0  0
  5 15  1  0  0  0  0
  5  6  1  0  0  0  0
  5 12  1  0  0  0  0
  6 11  1  0  0  0  0
  6  7  1  0  0  0  0
  7  8  1  0  0  0  0
  7 26  1  0  0  0  0
  7 27  1  0  0  0  0
  8  9  1  0  0  0  0
  8 28  1  0  0  0  0
  8 29  1  0  0  0  0
  9 10  1  0  0  0  0
 10 11  1  0  0  0  0
 10 30  1  0  0  0  0
 10 31  1  0  0  0  0
 11 32  1  0  0  0  0
 11 33  1  0  0  0  0
 12 13  1  0  0  0  0
 12 34  1  0  0  0  0
 12 35  1  0  0  0  0
 13 14  1  0  0  0  0
 13 36  1  0  0  0  0
 13 37  1  0  0  0  0
 14 15  1  0  0  0  0
 15 38  1  0  0  0  0
 15 39  1  0  0  0  0
 16 17  1  0  0  0  0
 16 40  1  0  0  0  0
 17 22  1  0  0  0  0
 17 18  2  0  0  0  0
 18 19  1  0  0  0  0
 18 41  1  0  0  0  0
 19 20  2  0  0  0  0
 19 42  1  0  0  0  0
 20 21  1  0  0  0  0
 20 45  1  0  0  0  0
 21 22  2  0  0  0  0
 21 43  1  0  0  0  0
 22 44  1  0  0  0  0
M  CHG  1  20   1
M  END
> <s_m_source_file>
AV-unprocessed.smi

> <i_m_source_file_index>
1265

> <i_lp_mmshare_version>
43012

> <i_f3d_flags>
0

> <s_epik_input>
W2NIXTFbY0hdbltjSF1bY0hdYzFbTkhdQyg9TylbTkhdW0NIMl1bQ0BdMihbQ0gyXVtDSDJdU1tDSDJdMilOM1tDSDJdW0NIMl1PW0NIMl1bQ0gyXTM=

> <s_epik_cmdline>
J2VwaWtfcHl0aG9uJywgJy1waCcsICc3LjAnLCAnLXRuJywgJzgnLCAnLW1hJywgJzIwMCcsICctbWV0YWxfYmluZGluZycsICctaW1hZScsICc8aW5maWxlLm1hZT4nLCAnLW9tYWUnLCAnPG91dGZpbGUubWFlPic=

> <r_epik_Ionization_Penalty>
1.06168

> <r_epik_Ionization_Penalty_Charging>
1.04215

> <r_epik_Ionization_Penalty_Neutral>
0.019527

> <r_epik_State_Penalty>
1.12733

> <r_epik_Charging_Adjusted_Penalty>
2.16948

> <i_epik_Tot_Q>
1

> <i_epik_Tot_abs_Q>
1

> <r_epik_Metal_State_Penalty>
1.22116

> <b_epik_Metal_Only>
0

> <s_lp_Force_Field>
OPLS_2005

> <r_lp_Energy>
64.97

> <b_lp_Chiralities_Consistent>
1

> <s_lp_Variant>
AV-unprocessed.smi:1265-3

> <Gold.Version>
5.8.1

> <Gold.Id.Protein>
6NUR|6NUR_protein|mol2

> <Gold.PLP.Fitness>
40.2773

> <Gold.PLP.PLP>
-32.1122

> <Gold.PLP.part.hbond>
-3.0000

> <Gold.PLP.part.metal>
0.0000

> <Gold.PLP.part.buried>
-3.9426

> <Gold.PLP.part.nonpolar>
-25.9290

> <Gold.PLP.part.repulsive>
0.5436

> <Gold.PLP.ligand.clash>
0.0000

> <Gold.PLP.ligand.torsion>
0.4447

> <Gold.PLP.Chemscore.Hbond>
2.9920

> <Gold.PLP.Chemscore.CHOScore>
0.0000

> <Gold.PLP.Chemscore.Metal>
0.0000

> <Gold.Chemscore.Hbonds>
donor molecule, donor type, donor heavy atom, donor atom, acceptor molecule, acceptor atom, score
      L1  H     3    23       P1  7948  0.99
      L1  H    16    40       P1  7948  1.00
      P1  H 10752 10765       L1     9  1.00

> <Gold.PLP.Chemscore.Internal.Correction>
0.0785

> <Gold.Rescore>
     Score         DG    S(hbond)    S(metal)    S(lipo)     H(rot)  DE(clash)    DE(int)     intcor
     17.73     -20.12       2.50        0.00      86.00       1.47       0.55       1.84       ----

> <Gold.Chemscore.Fitness>
17.7275

> <Gold.Chemscore.DG>
-20.1222

> <Gold.Chemscore.ZeroCoef>
-5.4800

> <Gold.Chemscore.Hbond>
2.5013

> <Gold.Chemscore.Metal>
0.0000

> <Gold.Chemscore.Lipo>
86.0009

> <Gold.Chemscore.Internal_Hbond>
0.0000

> <Gold.Chemscore.DEClash>
0.5546

> <Gold.Chemscore.DEInternal>
1.8402

> <Gold.Chemscore.Rot>
1.4743

> <Gold.Chemscore.Internal.Correction>
   9.000000E+99

> <Gold.Chemscore.Hbonds>
donor molecule, donor type, donor heavy atom, donor atom, acceptor molecule, acceptor atom, score
      L1  H     3    23       P1  7948  0.93
      L1  H    16    40       P1  7948  0.98
      P1  H 10752 10765       L1     9  0.13

> <Gold.Chemscore.Hbond.Weighted>
-8.3544

> <Gold.Chemscore.Metal.Weighted>
-0.0000

> <Gold.Chemscore.Lipo.Weighted>
-10.0621

> <Gold.Chemscore.Internal_Hbond.Weighted>
0.0000

> <Gold.Chemscore.DEClash.Weighted>
0.5546

> <Gold.Chemscore.DEInternal.Weighted>
1.8402

> <Gold.Chemscore.Rot.Weighted>
3.7742

> <Gold.Chemscore.Internal.Correction.Weighted>
   9.000000E+99

> <Gold.Protein.RotatedTorsions>
[ 6907 6896 6895 6894 ] final   30.78 input  -60.11 | X-H torsion
[ 7974 7965 7964 7962 ] final -120.99 input  175.53 | X-H torsion
[ 8008 7997 7996 7995 ] final -103.14 input   59.86 | X-H torsion
[ 10167 10162 10161 10158 ] final -158.45 input  -65.29 | X-H torsion
[ 10718 10713 10712 10709 ] final   57.42 input   66.30 | X-H torsion
[ 10763 10752 10751 10750 ] final -175.08 input  -60.55 | X-H torsion
[ 11005 11000 10999 10996 ] final   48.81 input  -57.11 | X-H torsion

> <Gold.Protein.ActiveResidues>
 VAL166  LYS551  ARG553  GLY616  TRP617  ASP618  TYR619  PRO620  LYS621  CYS622 
 ASP623  PHE694  ASN695  SER759  ASP760  ASP761  ALA762  ILE779  LEU786  VAL792 
 PHE793  MET794  SER795  GLU796  ALA797  LYS798  CYS799  TRP800  GLU811  SER814 

> <Gold.Protein.RotatedAtoms>
  152.0509  134.9654  160.0574 H   0  0  0  0  0  0  0  0  0  0  0  0  # atno 6907 bound_to 6896
  152.1055  133.4268  159.4615 H   0  0  0  0  0  0  0  0  0  0  0  0  # atno 6908 bound_to 6896
  150.6841  134.2629  159.4600 H   0  0  0  0  0  0  0  0  0  0  0  0  # atno 6909 bound_to 6896
  145.0452  140.8176  143.4242 H   0  0  0  0  0  0  0  0  0  0  0  0  # atno 7974 bound_to 7965
  154.8667  140.0424  157.1699 H   0  0  0  0  0  0  0  0  0  0  0  0  # atno 8008 bound_to 7997
  154.8782  140.2968  155.5420 H   0  0  0  0  0  0  0  0  0  0  0  0  # atno 8009 bound_to 7997
  156.2999  140.2416  156.3781 H   0  0  0  0  0  0  0  0  0  0  0  0  # atno 8010 bound_to 7997
  139.6691  143.9776  152.2273 H   0  0  0  0  0  0  0  0  0  0  0  0  # atno 10167 bound_to 10162
  157.5513  130.8767  149.8967 H   0  0  0  0  0  0  0  0  0  0  0  0  # atno 10718 bound_to 10713
  154.5887  135.2843  155.0658 H   0  0  0  0  0  0  0  0  0  0  0  0  # atno 10763 bound_to 10752
  154.1967  135.6431  153.5079 H   0  0  0  0  0  0  0  0  0  0  0  0  # atno 10764 bound_to 10752
  153.0113  135.5459  154.6565 H   0  0  0  0  0  0  0  0  0  0  0  0  # atno 10765 bound_to 10752
  140.1158  134.4895  155.8639 H   0  0  0  0  0  0  0  0  0  0  0  0  # atno 11005 bound_to 11000
  145.1597  139.2466  143.5398 LP  0  0  0  0  0  0  0  0  0  0  0  0  # atno 17320 bound_to 7965
  146.3513  140.1320  142.8597 LP  0  0  0  0  0  0  0  0  0  0  0  0  # atno 17321 bound_to 7965
  139.9536  144.6604  150.8148 LP  0  0  0  0  0  0  0  0  0  0  0  0  # atno 17342 bound_to 10162
  140.7611  143.3167  151.2717 LP  0  0  0  0  0  0  0  0  0  0  0  0  # atno 17343 bound_to 10162
  156.0579  130.3705  150.1049 LP  0  0  0  0  0  0  0  0  0  0  0  0  # atno 17370 bound_to 10713
  156.9222  130.9686  151.3547 LP  0  0  0  0  0  0  0  0  0  0  0  0  # atno 17371 bound_to 10713
  141.2141  133.6743  156.6793 LP  0  0  0  0  0  0  0  0  0  0  0  0  # atno 17394 bound_to 11000
  140.3030  134.8148  157.4114 LP  0  0  0  0  0  0  0  0  0  0  0  0  # atno 17395 bound_to 11000

$$$$
