AV-unprocessed.smi:770|AV-procd|sdf|3679|dock3
  -GOLD-   22720 1 93D 1   1.00000     0.00000
 Structure written by MMmdl.
 37 38  0  0  0  0  0  0  0  0  1 V2000
  149.3783  132.0930  153.3662 C   0  0  0  0  0  0  0  0  0  0  0  0
  149.7963  132.9750  154.1000 C   0  0  0  0  0  0  0  0  0  0  0  0
  150.2888  134.0584  154.9689 C   0  0  0  0  0  0  0  0  0  0  0  0
  150.2838  135.3557  154.3024 N   0  0  0  0  0  0  0  0  0  0  0  0
  150.8979  136.4569  154.7582 C   0  0  0  0  0  0  0  0  0  0  0  0
  151.5986  136.4856  155.7702 O   0  0  0  0  0  0  0  0  0  0  0  0
  150.6188  137.5302  154.0039 N   0  0  0  0  0  0  0  0  0  0  0  0
  151.0186  138.9027  154.3080 C   0  0  0  0  0  0  0  0  0  0  0  0
  152.4233  138.9763  154.9413 C   0  0  0  0  0  0  0  0  0  0  0  0
  152.4179  139.4877  156.3528 C   0  0  0  0  0  0  0  0  0  0  0  0
  152.6082  138.7520  157.4970 C   0  0  0  0  0  0  0  0  0  0  0  0
  152.6078  139.7534  158.9222 S   0  0  0  0  0  0  0  0  0  0  0  0
  152.3230  141.1547  157.8948 C   0  0  0  0  0  0  0  0  0  0  0  0
  152.2050  142.4402  158.4140 N   0  0  0  0  0  0  0  0  0  0  0  0
  151.9206  143.6539  157.6548 C   0  0  0  0  0  0  0  0  0  0  0  0
  151.5968  144.7616  158.6540 C   0  0  0  0  0  0  0  0  0  0  0  0
  152.4308  144.3619  159.8555 C   0  0  0  0  0  0  0  0  0  0  0  0
  152.3546  142.8374  159.8105 C   0  0  0  0  0  0  0  0  0  0  0  0
  152.2389  140.8526  156.5968 N   0  0  0  0  0  0  0  0  0  0  0  0
  149.0098  131.3281  152.7206 H   0  0  0  0  0  0  0  0  0  0  0  0
  149.6858  134.0797  155.8779 H   0  0  0  0  0  0  0  0  0  0  0  0
  151.3093  133.8154  155.2646 H   0  0  0  0  0  0  0  0  0  0  0  0
  149.7303  135.4327  153.4618 H   0  0  0  0  0  0  0  0  0  0  0  0
  150.0359  137.3982  153.1903 H   0  0  0  0  0  0  0  0  0  0  0  0
  150.9812  139.5204  153.4090 H   0  0  0  0  0  0  0  0  0  0  0  0
  150.2858  139.3250  154.9957 H   0  0  0  0  0  0  0  0  0  0  0  0
  152.8795  137.9863  154.9091 H   0  0  0  0  0  0  0  0  0  0  0  0
  153.0587  139.6113  154.3229 H   0  0  0  0  0  0  0  0  0  0  0  0
  152.7742  137.6888  157.5847 H   0  0  0  0  0  0  0  0  0  0  0  0
  152.8060  143.9117  157.0728 H   0  0  0  0  0  0  0  0  0  0  0  0
  151.0977  143.4975  156.9568 H   0  0  0  0  0  0  0  0  0  0  0  0
  151.8333  145.7571  158.2778 H   0  0  0  0  0  0  0  0  0  0  0  0
  150.5371  144.7356  158.9113 H   0  0  0  0  0  0  0  0  0  0  0  0
  153.4623  144.6890  159.7166 H   0  0  0  0  0  0  0  0  0  0  0  0
  152.0629  144.7801  160.7928 H   0  0  0  0  0  0  0  0  0  0  0  0
  151.4855  142.4824  160.3654 H   0  0  0  0  0  0  0  0  0  0  0  0
  153.2420  142.3864  160.2558 H   0  0  0  0  0  0  0  0  0  0  0  0
  1  2  3  0  0  0  0
  1 20  1  0  0  0  0
  2  3  1  0  0  0  0
  3  4  1  0  0  0  0
  3 21  1  0  0  0  0
  3 22  1  0  0  0  0
  4  5  1  0  0  0  0
  4 23  1  0  0  0  0
  5  6  2  0  0  0  0
  5  7  1  0  0  0  0
  7  8  1  0  0  0  0
  7 24  1  0  0  0  0
  8  9  1  0  0  0  0
  8 25  1  0  0  0  0
  8 26  1  0  0  0  0
  9 10  1  0  0  0  0
  9 27  1  0  0  0  0
  9 28  1  0  0  0  0
 10 19  1  0  0  0  0
 10 11  2  0  0  0  0
 11 12  1  0  0  0  0
 11 29  1  0  0  0  0
 12 13  1  0  0  0  0
 13 14  1  0  0  0  0
 13 19  2  0  0  0  0
 14 18  1  0  0  0  0
 14 15  1  0  0  0  0
 15 16  1  0  0  0  0
 15 30  1  0  0  0  0
 15 31  1  0  0  0  0
 16 17  1  0  0  0  0
 16 32  1  0  0  0  0
 16 33  1  0  0  0  0
 17 18  1  0  0  0  0
 17 34  1  0  0  0  0
 17 35  1  0  0  0  0
 18 36  1  0  0  0  0
 18 37  1  0  0  0  0
M  END
> <s_m_source_file>
AV-unprocessed.smi

> <i_m_source_file_index>
770

> <i_lp_mmshare_version>
43012

> <i_f3d_flags>
0

> <s_epik_input>
W0NIXSNDW0NIMl1bTkhdQyg9TylbTkhdW0NIMl1bQ0gyXWMxW2NIXXNjKG4xKU4yW0NIMl1bQ0gyXVtDSDJdW0NIMl0y

> <s_epik_cmdline>
J2VwaWtfcHl0aG9uJywgJy1waCcsICc3LjAnLCAnLXRuJywgJzgnLCAnLW1hJywgJzIwMCcsICctbWV0YWxfYmluZGluZycsICctaW1hZScsICc8aW5maWxlLm1hZT4nLCAnLW9tYWUnLCAnPG91dGZpbGUubWFlPic=

> <r_epik_Ionization_Penalty>
0.174338

> <r_epik_Ionization_Penalty_Charging>
0

> <r_epik_Ionization_Penalty_Neutral>
0.174338

> <r_epik_State_Penalty>
0.163676

> <r_epik_Charging_Adjusted_Penalty>
0.163676

> <i_epik_Tot_Q>
0

> <i_epik_Tot_abs_Q>
0

> <r_epik_Metal_State_Penalty>
0.126089

> <b_epik_Metal_Only>
0

> <s_lp_Force_Field>
OPLS_2005

> <r_lp_Energy>
12.0865

> <b_lp_Chiralities_Consistent>
1

> <s_lp_Variant>
AV-unprocessed.smi:770-1

> <Gold.Version>
5.8.1

> <Gold.Id.Protein>
6NUR|6NUR_protein|mol2

> <Gold.PLP.Fitness>
47.7917

> <Gold.PLP.PLP>
-42.1940

> <Gold.PLP.part.hbond>
-3.6116

> <Gold.PLP.part.metal>
0.0000

> <Gold.PLP.part.buried>
-2.2258

> <Gold.PLP.part.nonpolar>
-35.4464

> <Gold.PLP.part.repulsive>
0.1705

> <Gold.PLP.ligand.clash>
0.0000

> <Gold.PLP.ligand.torsion>
0.7932

> <Gold.PLP.Chemscore.Hbond>
2.3902

> <Gold.PLP.Chemscore.CHOScore>
0.0000

> <Gold.PLP.Chemscore.Metal>
0.0000

> <Gold.Chemscore.Hbonds>
donor molecule, donor type, donor heavy atom, donor atom, acceptor molecule, acceptor atom, score
      L1  H     4    23       P1  7948  0.50
      L1  H     7    24       P1  7948  0.95
      P1  H 10752 10763       L1     6  0.30

> <Gold.PLP.Chemscore.Internal.Correction>
0.0135

> <Gold.Rescore>
     Score         DG    S(hbond)    S(metal)    S(lipo)     H(rot)  DE(clash)    DE(int)     intcor
     15.70     -17.69       1.61        0.00      96.28       1.73       0.08       1.90       ----

> <Gold.Chemscore.Fitness>
15.7036

> <Gold.Chemscore.DG>
-17.6887

> <Gold.Chemscore.ZeroCoef>
-5.4800

> <Gold.Chemscore.Hbond>
1.6060

> <Gold.Chemscore.Metal>
0.0000

> <Gold.Chemscore.Lipo>
96.2829

> <Gold.Chemscore.Internal_Hbond>
0.0000

> <Gold.Chemscore.DEClash>
0.0824

> <Gold.Chemscore.DEInternal>
1.9028

> <Gold.Chemscore.Rot>
1.7267

> <Gold.Chemscore.Internal.Correction>
   9.000000E+99

> <Gold.Chemscore.Hbonds>
donor molecule, donor type, donor heavy atom, donor atom, acceptor molecule, acceptor atom, score
      L1  H     4    23       P1  7948  0.02
      L1  H     7    24       P1  7948  0.20

> <Gold.Chemscore.Hbond.Weighted>
-5.3640

> <Gold.Chemscore.Metal.Weighted>
-0.0000

> <Gold.Chemscore.Lipo.Weighted>
-11.2651

> <Gold.Chemscore.Internal_Hbond.Weighted>
0.0000

> <Gold.Chemscore.DEClash.Weighted>
0.0824

> <Gold.Chemscore.DEInternal.Weighted>
1.9028

> <Gold.Chemscore.Rot.Weighted>
4.4204

> <Gold.Chemscore.Internal.Correction.Weighted>
   9.000000E+99

> <Gold.Protein.RotatedTorsions>
[ 6907 6896 6895 6894 ] final   37.38 input  -60.11 | X-H torsion
[ 7974 7965 7964 7962 ] final  101.88 input  175.53 | X-H torsion
[ 8008 7997 7996 7995 ] final  -89.97 input   59.86 | X-H torsion
[ 10167 10162 10161 10158 ] final   37.83 input  -65.29 | X-H torsion
[ 10718 10713 10712 10709 ] final   34.62 input   66.30 | X-H torsion
[ 10763 10752 10751 10750 ] final   64.10 input  -60.55 | X-H torsion
[ 11005 11000 10999 10996 ] final  -29.14 input  -57.11 | X-H torsion

> <Gold.Protein.ActiveResidues>
 VAL166  LYS551  ARG553  GLY616  TRP617  ASP618  TYR619  PRO620  LYS621  CYS622 
 ASP623  PHE694  ASN695  SER759  ASP760  ASP761  ALA762  ILE779  LEU786  VAL792 
 PHE793  MET794  SER795  GLU796  ALA797  LYS798  CYS799  TRP800  GLU811  SER814 

> <Gold.Protein.RotatedAtoms>
  152.1423  134.9052  160.0552 H   0  0  0  0  0  0  0  0  0  0  0  0  # atno 6907 bound_to 6896
  152.0116  133.3858  159.4230 H   0  0  0  0  0  0  0  0  0  0  0  0  # atno 6908 bound_to 6896
  150.6866  134.3646  159.5009 H   0  0  0  0  0  0  0  0  0  0  0  0  # atno 6909 bound_to 6896
  145.3665  139.2407  143.3478 H   0  0  0  0  0  0  0  0  0  0  0  0  # atno 7974 bound_to 7965
  154.6929  140.0536  157.0382 H   0  0  0  0  0  0  0  0  0  0  0  0  # atno 8008 bound_to 7997
  155.0791  140.3207  155.4588 H   0  0  0  0  0  0  0  0  0  0  0  0  # atno 8009 bound_to 7997
  156.2734  140.2068  156.5919 H   0  0  0  0  0  0  0  0  0  0  0  0  # atno 8010 bound_to 7997
  140.3995  144.1743  150.6133 H   0  0  0  0  0  0  0  0  0  0  0  0  # atno 10167 bound_to 10162
  157.3126  130.7407  149.6734 H   0  0  0  0  0  0  0  0  0  0  0  0  # atno 10718 bound_to 10713
  153.0043  135.5405  154.6457 H   0  0  0  0  0  0  0  0  0  0  0  0  # atno 10763 bound_to 10752
  154.5701  135.2841  155.0837 H   0  0  0  0  0  0  0  0  0  0  0  0  # atno 10764 bound_to 10752
  154.2006  135.6484  153.5138 H   0  0  0  0  0  0  0  0  0  0  0  0  # atno 10765 bound_to 10752
  140.9270  133.7362  156.0882 H   0  0  0  0  0  0  0  0  0  0  0  0  # atno 11005 bound_to 11000
  146.2904  140.4309  142.8741 LP  0  0  0  0  0  0  0  0  0  0  0  0  # atno 17320 bound_to 7965
  144.8607  140.7136  143.6109 LP  0  0  0  0  0  0  0  0  0  0  0  0  # atno 17321 bound_to 7965
  140.4755  143.2397  151.9029 LP  0  0  0  0  0  0  0  0  0  0  0  0  # atno 17342 bound_to 10162
  139.4785  144.5324  151.8647 LP  0  0  0  0  0  0  0  0  0  0  0  0  # atno 17343 bound_to 10162
  155.9679  130.4247  150.4619 LP  0  0  0  0  0  0  0  0  0  0  0  0  # atno 17370 bound_to 10713
  157.2620  131.0569  151.2314 LP  0  0  0  0  0  0  0  0  0  0  0  0  # atno 17371 bound_to 10713
  140.7913  134.3615  157.5464 LP  0  0  0  0  0  0  0  0  0  0  0  0  # atno 17394 bound_to 11000
  139.8788  134.9142  156.3100 LP  0  0  0  0  0  0  0  0  0  0  0  0  # atno 17395 bound_to 11000

$$$$
