AV-unprocessed.smi:2355|AV-procd|sdf|9386|dock7
  -GOLD-   2272013 13D 1   1.00000     0.00000
 Structure written by MMmdl.
 48 49  0  0  0  0  0  0  0  0  1 V2000
  153.7579  141.1406  160.0278 C   0  0  0  0  0  0  0  0  0  0  0  0
  152.9061  142.2958  159.5456 C   0  0  0  0  0  0  0  0  0  0  0  0
  152.8639  143.5080  160.2604 C   0  0  0  0  0  0  0  0  0  0  0  0
  152.0506  144.5448  159.7631 C   0  0  0  0  0  0  0  0  0  0  0  0
  151.9580  145.8756  160.4798 C   0  0  0  0  0  0  0  0  0  0  0  0
  151.3118  144.4266  158.6394 N   0  0  0  0  0  0  0  0  0  0  0  0
  151.3434  143.2633  157.9431 C   0  0  0  0  0  0  0  0  0  0  0  0
  150.6063  143.0404  156.7495 N   0  0  0  0  0  0  0  0  0  0  0  0
  150.1239  141.8770  156.2782 C   0  0  0  0  0  0  0  0  0  0  0  0
  150.2618  140.7780  156.8169 O   0  0  0  0  0  0  0  0  0  0  0  0
  149.4670  142.0551  155.1219 N   0  0  0  0  0  0  0  0  0  0  0  0
  148.8395  140.9926  154.3363 C   0  0  1  0  0  0  0  0  0  0  0  0
  149.7873  139.7816  154.2817 C   0  0  0  0  0  0  0  0  0  0  0  0
  147.4127  140.6428  154.8727 C   0  0  2  0  0  0  0  0  0  0  0  0
  146.7291  139.6214  153.9265 C   0  0  0  0  0  0  0  0  0  0  0  0
  146.5642  141.8244  155.1572 N   0  0  0  0  0  0  0  0  0  0  0  0
  146.1283  142.5070  153.9335 C   0  0  0  0  0  0  0  0  0  0  0  0
  145.2267  143.7209  154.2147 C   0  0  0  0  0  0  0  0  0  0  0  0
  144.0955  143.3102  154.9698 O   0  0  0  0  0  0  0  0  0  0  0  0
  144.4672  142.7108  156.2031 C   0  0  0  0  0  0  0  0  0  0  0  0
  145.3680  141.4916  155.9398 C   0  0  0  0  0  0  0  0  0  0  0  0
  152.1349  142.1742  158.3720 C   0  0  0  0  0  0  0  0  0  0  0  0
  154.4995  141.4753  160.7537 H   0  0  0  0  0  0  0  0  0  0  0  0
  154.2854  140.6789  159.1927 H   0  0  0  0  0  0  0  0  0  0  0  0
  153.1318  140.3837  160.5005 H   0  0  0  0  0  0  0  0  0  0  0  0
  153.4390  143.6392  161.1656 H   0  0  0  0  0  0  0  0  0  0  0  0
  152.6831  145.9389  161.2916 H   0  0  0  0  0  0  0  0  0  0  0  0
  150.9611  146.0093  160.9005 H   0  0  0  0  0  0  0  0  0  0  0  0
  152.1520  146.6955  159.7876 H   0  0  0  0  0  0  0  0  0  0  0  0
  150.4268  143.8610  156.1904 H   0  0  0  0  0  0  0  0  0  0  0  0
  149.4022  142.9915  154.7503 H   0  0  0  0  0  0  0  0  0  0  0  0
  148.7705  141.3888  153.3242 H   0  0  0  0  0  0  0  0  0  0  0  0
  149.3695  138.9799  153.6725 H   0  0  0  0  0  0  0  0  0  0  0  0
  149.9871  139.3766  155.2739 H   0  0  0  0  0  0  0  0  0  0  0  0
  150.7460  140.0570  153.8416 H   0  0  0  0  0  0  0  0  0  0  0  0
  147.5613  140.1223  155.8201 H   0  0  0  0  0  0  0  0  0  0  0  0
  147.3949  138.8105  153.6338 H   0  0  0  0  0  0  0  0  0  0  0  0
  146.3740  140.0993  153.0130 H   0  0  0  0  0  0  0  0  0  0  0  0
  145.8765  139.1372  154.4013 H   0  0  0  0  0  0  0  0  0  0  0  0
  146.9865  142.8687  153.3695 H   0  0  0  0  0  0  0  0  0  0  0  0
  145.5979  141.8053  153.2879 H   0  0  0  0  0  0  0  0  0  0  0  0
  145.7754  144.4938  154.7553 H   0  0  0  0  0  0  0  0  0  0  0  0
  144.8870  144.1649  153.2789 H   0  0  0  0  0  0  0  0  0  0  0  0
  144.9800  143.4403  156.8321 H   0  0  0  0  0  0  0  0  0  0  0  0
  143.5661  142.4068  156.7357 H   0  0  0  0  0  0  0  0  0  0  0  0
  144.7925  140.7195  155.4268 H   0  0  0  0  0  0  0  0  0  0  0  0
  145.6425  141.0902  156.9130 H   0  0  0  0  0  0  0  0  0  0  0  0
  152.1507  141.2520  157.8088 H   0  0  0  0  0  0  0  0  0  0  0  0
  1  2  1  0  0  0  0
  1 23  1  0  0  0  0
  1 24  1  0  0  0  0
  1 25  1  0  0  0  0
  2 22  1  0  0  0  0
  2  3  2  0  0  0  0
  3  4  1  0  0  0  0
  3 26  1  0  0  0  0
  4  5  1  0  0  0  0
  4  6  2  0  0  0  0
  5 27  1  0  0  0  0
  5 28  1  0  0  0  0
  5 29  1  0  0  0  0
  6  7  1  0  0  0  0
  7  8  1  0  0  0  0
  7 22  2  0  0  0  0
  8  9  1  0  0  0  0
  8 30  1  0  0  0  0
  9 10  2  0  0  0  0
  9 11  1  0  0  0  0
 11 12  1  0  0  0  0
 11 31  1  0  0  0  0
 12 13  1  0  0  0  0
 12 14  1  0  0  0  0
 12 32  1  0  0  0  0
 13 33  1  0  0  0  0
 13 34  1  0  0  0  0
 13 35  1  0  0  0  0
 14 15  1  0  0  0  0
 14 16  1  0  0  0  0
 14 36  1  0  0  0  0
 15 37  1  0  0  0  0
 15 38  1  0  0  0  0
 15 39  1  0  0  0  0
 16 21  1  0  0  0  0
 16 17  1  0  0  0  0
 17 18  1  0  0  0  0
 17 40  1  0  0  0  0
 17 41  1  0  0  0  0
 18 19  1  0  0  0  0
 18 42  1  0  0  0  0
 18 43  1  0  0  0  0
 19 20  1  0  0  0  0
 20 21  1  0  0  0  0
 20 44  1  0  0  0  0
 20 45  1  0  0  0  0
 21 46  1  0  0  0  0
 21 47  1  0  0  0  0
 22 48  1  0  0  0  0
M  END
> <s_m_source_file>
AV-unprocessed.smi

> <i_m_source_file_index>
2355

> <i_lp_mmshare_version>
43012

> <i_f3d_flags>
0

> <s_epik_input>
W0NIM11jMVtjSF1jKFtDSDNdKW5jKFtjSF0xKVtOSF1DKD1PKVtOSF1bQ0BIXShbQ0gzXSlbQ0BIXShbQ0gzXSlOMltDSDJdW0NIMl1PW0NIMl1bQ0gyXTI=

> <s_epik_cmdline>
J2VwaWtfcHl0aG9uJywgJy1waCcsICc3LjAnLCAnLXRuJywgJzgnLCAnLW1hJywgJzIwMCcsICctbWV0YWxfYmluZGluZycsICctaW1hZScsICc8aW5maWxlLm1hZT4nLCAnLW9tYWUnLCAnPG91dGZpbGUubWFlPic=

> <r_epik_Ionization_Penalty>
0.266238

> <r_epik_Ionization_Penalty_Charging>
0

> <r_epik_Ionization_Penalty_Neutral>
0.266238

> <r_epik_State_Penalty>
0.257924

> <r_epik_Charging_Adjusted_Penalty>
0.257924

> <i_epik_Tot_Q>
0

> <i_epik_Tot_abs_Q>
0

> <r_epik_Metal_State_Penalty>
0.257904

> <b_epik_Metal_Only>
0

> <s_lp_Force_Field>
OPLS_2005

> <r_lp_Energy>
33.1774

> <b_lp_Chiralities_Consistent>
1

> <s_lp_Variant>
AV-unprocessed.smi:2355-2

> <Gold.Version>
5.8.1

> <Gold.Id.Protein>
6NUR|6NUR_protein|mol2

> <Gold.PLP.Fitness>
47.4211

> <Gold.PLP.PLP>
-45.3938

> <Gold.PLP.part.hbond>
-2.0000

> <Gold.PLP.part.metal>
0.0000

> <Gold.PLP.part.buried>
-7.6437

> <Gold.PLP.part.nonpolar>
-37.6447

> <Gold.PLP.part.repulsive>
0.6985

> <Gold.PLP.ligand.clash>
0.0000

> <Gold.PLP.ligand.torsion>
0.6296

> <Gold.PLP.Chemscore.Hbond>
1.0630

> <Gold.PLP.Chemscore.CHOScore>
0.0000

> <Gold.PLP.Chemscore.Metal>
0.0000

> <Gold.Chemscore.Hbonds>
donor molecule, donor type, donor heavy atom, donor atom, acceptor molecule, acceptor atom, score
      L1  H     8    30       P1  8028  0.69
      L1  H    11    31       P1  8028  0.62

> <Gold.PLP.Chemscore.Internal.Correction>
0.0975

> <Gold.Rescore>
     Score         DG    S(hbond)    S(metal)    S(lipo)     H(rot)  DE(clash)    DE(int)     intcor
     15.26     -19.42       1.45        0.00     108.35       1.40       0.49       3.67       ----

> <Gold.Chemscore.Fitness>
15.2579

> <Gold.Chemscore.DG>
-19.4245

> <Gold.Chemscore.ZeroCoef>
-5.4800

> <Gold.Chemscore.Hbond>
1.4535

> <Gold.Chemscore.Metal>
0.0000

> <Gold.Chemscore.Lipo>
108.3542

> <Gold.Chemscore.Internal_Hbond>
0.0000

> <Gold.Chemscore.DEClash>
0.4944

> <Gold.Chemscore.DEInternal>
3.6722

> <Gold.Chemscore.Rot>
1.4015

> <Gold.Chemscore.Internal.Correction>
   9.000000E+99

> <Gold.Chemscore.Hbonds>
donor molecule, donor type, donor heavy atom, donor atom, acceptor molecule, acceptor atom, score
      L1  H     8    30       P1  8028  0.70
      L1  H    11    31       P1  8028  0.60

> <Gold.Chemscore.Hbond.Weighted>
-4.8548

> <Gold.Chemscore.Metal.Weighted>
-0.0000

> <Gold.Chemscore.Lipo.Weighted>
-12.6774

> <Gold.Chemscore.Internal_Hbond.Weighted>
0.0000

> <Gold.Chemscore.DEClash.Weighted>
0.4944

> <Gold.Chemscore.DEInternal.Weighted>
3.6722

> <Gold.Chemscore.Rot.Weighted>
3.5878

> <Gold.Chemscore.Internal.Correction.Weighted>
   9.000000E+99

> <Gold.Protein.RotatedTorsions>
[ 6907 6896 6895 6894 ] final   72.02 input  -60.11 | X-H torsion
[ 7974 7965 7964 7962 ] final -124.71 input  175.53 | X-H torsion
[ 8008 7997 7996 7995 ] final  -73.73 input   59.86 | X-H torsion
[ 10167 10162 10161 10158 ] final   85.11 input  -65.29 | X-H torsion
[ 10718 10713 10712 10709 ] final -166.26 input   66.30 | X-H torsion
[ 10763 10752 10751 10750 ] final   53.03 input  -60.55 | X-H torsion
[ 11005 11000 10999 10996 ] final  -40.09 input  -57.11 | X-H torsion

> <Gold.Protein.ActiveResidues>
 VAL166  LYS551  ARG553  GLY616  TRP617  ASP618  TYR619  PRO620  LYS621  CYS622 
 ASP623  PHE694  ASN695  SER759  ASP760  ASP761  ALA762  ILE779  LEU786  VAL792 
 PHE793  MET794  SER795  GLU796  ALA797  LYS798  CYS799  TRP800  GLU811  SER814 

> <Gold.Protein.RotatedAtoms>
  152.4844  134.4633  159.9612 H   0  0  0  0  0  0  0  0  0  0  0  0  # atno 6907 bound_to 6896
  151.4633  133.3581  159.2820 H   0  0  0  0  0  0  0  0  0  0  0  0  # atno 6908 bound_to 6896
  150.8942  134.8374  159.7375 H   0  0  0  0  0  0  0  0  0  0  0  0  # atno 6909 bound_to 6896
  145.0052  140.7856  143.4472 H   0  0  0  0  0  0  0  0  0  0  0  0  # atno 7974 bound_to 7965
  154.5271  140.0774  156.8278 H   0  0  0  0  0  0  0  0  0  0  0  0  # atno 8008 bound_to 7997
  155.3452  140.3409  155.4221 H   0  0  0  0  0  0  0  0  0  0  0  0  # atno 8009 bound_to 7997
  156.1743  140.1630  156.8378 H   0  0  0  0  0  0  0  0  0  0  0  0  # atno 8010 bound_to 7997
  139.9011  144.6329  150.8636 H   0  0  0  0  0  0  0  0  0  0  0  0  # atno 10167 bound_to 10162
  156.6654  130.9062  151.3035 H   0  0  0  0  0  0  0  0  0  0  0  0  # atno 10718 bound_to 10713
  152.9792  135.5792  154.4675 H   0  0  0  0  0  0  0  0  0  0  0  0  # atno 10763 bound_to 10752
  154.4243  135.2772  155.1957 H   0  0  0  0  0  0  0  0  0  0  0  0  # atno 10764 bound_to 10752
  154.3692  135.6171  153.5785 H   0  0  0  0  0  0  0  0  0  0  0  0  # atno 10765 bound_to 10752
  141.0149  133.6890  156.2274 H   0  0  0  0  0  0  0  0  0  0  0  0  # atno 11005 bound_to 11000
  145.2099  139.2210  143.5149 LP  0  0  0  0  0  0  0  0  0  0  0  0  # atno 17320 bound_to 7965
  146.3459  140.1934  142.8589 LP  0  0  0  0  0  0  0  0  0  0  0  0  # atno 17321 bound_to 7965
  140.7706  143.3436  151.2157 LP  0  0  0  0  0  0  0  0  0  0  0  0  # atno 17342 bound_to 10162
  139.7025  143.9510  152.2912 LP  0  0  0  0  0  0  0  0  0  0  0  0  # atno 17343 bound_to 10162
  157.7095  130.9424  150.1043 LP  0  0  0  0  0  0  0  0  0  0  0  0  # atno 17370 bound_to 10713
  156.1979  130.3658  149.8825 LP  0  0  0  0  0  0  0  0  0  0  0  0  # atno 17371 bound_to 10713
  140.6671  134.4906  157.5586 LP  0  0  0  0  0  0  0  0  0  0  0  0  # atno 17394 bound_to 11000
  139.9111  134.8343  156.1525 LP  0  0  0  0  0  0  0  0  0  0  0  0  # atno 17395 bound_to 11000

$$$$
