AV-unprocessed.smi:4|AV-procd|sdf|36|dock5
  -GOLD-   2262015153D 1   1.00000     0.00000
 Structure written by MMmdl.
 42 43  0  0  0  0  0  0  0  0  2 V2000
  150.2170  138.7286  156.6403 C   0  0  0  0  0  0  0  0  0  0  0  0
  150.9888  137.6884  155.7837 C   0  0  0  0  0  0  0  0  0  0  0  0
  150.6692  138.0458  154.3107 C   0  0  0  0  0  0  0  0  0  0  0  0
  152.4880  137.9378  156.0902 C   0  0  0  0  0  0  0  0  0  0  0  0
  150.6195  136.2523  156.0686 N   0  0  0  0  0  0  0  0  0  0  0  0
  150.1319  135.4249  155.0234 C   0  0  0  0  0  0  0  0  0  0  0  0
  149.7718  134.1319  155.1905 C   0  0  0  0  0  0  0  0  0  0  0  0
  149.2512  133.2280  154.0726 C   0  0  0  0  0  0  0  0  0  0  0  0
  148.0178  133.7131  153.4535 N   0  0  0  0  0  0  0  0  0  0  0  0
  147.1678  132.6452  152.9353 C   0  0  0  0  0  0  0  0  0  0  0  0
  145.9248  133.2117  152.2421 C   0  0  0  0  0  0  0  0  0  0  0  0
  145.2892  134.0196  153.2137 O   0  0  0  0  0  0  0  0  0  0  0  0
  146.1385  133.9246  150.8941 C   0  0  0  0  0  0  0  0  0  0  0  0
  144.8663  133.2623  150.3632 C   0  0  0  0  0  0  0  0  0  0  0  0
  144.9934  132.2393  151.4925 C   0  0  0  0  0  0  0  0  0  0  0  0
  149.8985  133.5766  156.5359 C   0  0  0  0  0  0  0  0  0  0  0  0
  149.5721  132.4095  156.7508 O   0  0  0  0  0  0  0  0  0  0  0  0
  150.3797  134.3870  157.5161 N   0  5  0  0  0  0  0  0  0  0  0  0
  150.7426  135.6896  157.3202 C   0  0  0  0  0  0  0  0  0  0  0  0
  151.1772  136.3578  158.2571 O   0  0  0  0  0  0  0  0  0  0  0  0
  150.5307  139.7460  156.4039 H   0  0  0  0  0  0  0  0  0  0  0  0
  150.3957  138.5931  157.7080 H   0  0  0  0  0  0  0  0  0  0  0  0
  149.1418  138.6928  156.4587 H   0  0  0  0  0  0  0  0  0  0  0  0
  149.6268  137.8314  154.0728 H   0  0  0  0  0  0  0  0  0  0  0  0
  151.2861  137.5085  153.5925 H   0  0  0  0  0  0  0  0  0  0  0  0
  150.8346  139.1062  154.1172 H   0  0  0  0  0  0  0  0  0  0  0  0
  152.7380  138.9960  156.0081 H   0  0  0  0  0  0  0  0  0  0  0  0
  153.1611  137.4196  155.4093 H   0  0  0  0  0  0  0  0  0  0  0  0
  152.7391  137.6233  157.1039 H   0  0  0  0  0  0  0  0  0  0  0  0
  150.0513  135.8746  154.0525 H   0  0  0  0  0  0  0  0  0  0  0  0
  150.0255  133.1310  153.3101 H   0  0  0  0  0  0  0  0  0  0  0  0
  149.0942  132.2327  154.4902 H   0  0  0  0  0  0  0  0  0  0  0  0
  148.2515  134.3419  152.6916 H   0  0  0  0  0  0  0  0  0  0  0  0
  147.7332  132.0110  152.2506 H   0  0  0  0  0  0  0  0  0  0  0  0
  146.8694  131.9992  153.7618 H   0  0  0  0  0  0  0  0  0  0  0  0
  144.7393  133.4497  153.7293 H   0  0  0  0  0  0  0  0  0  0  0  0
  146.0916  135.0133  150.9365 H   0  0  0  0  0  0  0  0  0  0  0  0
  147.0342  133.5878  150.3698 H   0  0  0  0  0  0  0  0  0  0  0  0
  143.9856  133.8977  150.4663 H   0  0  0  0  0  0  0  0  0  0  0  0
  144.9534  132.8462  149.3593 H   0  0  0  0  0  0  0  0  0  0  0  0
  145.4994  131.3256  151.1756 H   0  0  0  0  0  0  0  0  0  0  0  0
  144.0566  132.0164  152.0043 H   0  0  0  0  0  0  0  0  0  0  0  0
  1  2  1  0  0  0  0
  1 21  1  0  0  0  0
  1 22  1  0  0  0  0
  1 23  1  0  0  0  0
  2  3  1  0  0  0  0
  2  4  1  0  0  0  0
  2  5  1  0  0  0  0
  3 24  1  0  0  0  0
  3 25  1  0  0  0  0
  3 26  1  0  0  0  0
  4 27  1  0  0  0  0
  4 28  1  0  0  0  0
  4 29  1  0  0  0  0
  5 19  1  0  0  0  0
  5  6  1  0  0  0  0
  6  7  2  0  0  0  0
  6 30  1  0  0  0  0
  7  8  1  0  0  0  0
  7 16  1  0  0  0  0
  8  9  1  0  0  0  0
  8 31  1  0  0  0  0
  8 32  1  0  0  0  0
  9 10  1  0  0  0  0
  9 33  1  0  0  0  0
 10 11  1  0  0  0  0
 10 34  1  0  0  0  0
 10 35  1  0  0  0  0
 11 15  1  0  0  0  0
 11 12  1  0  0  0  0
 11 13  1  0  0  0  0
 12 36  1  0  0  0  0
 13 14  1  0  0  0  0
 13 37  1  0  0  0  0
 13 38  1  0  0  0  0
 14 15  1  0  0  0  0
 14 39  1  0  0  0  0
 14 40  1  0  0  0  0
 15 41  1  0  0  0  0
 15 42  1  0  0  0  0
 16 17  2  0  0  0  0
 16 18  1  0  0  0  0
 18 19  1  0  0  0  0
 19 20  2  0  0  0  0
M  CHG  1  18  -1
M  END
> <s_m_source_file>
AV-unprocessed.smi

> <i_m_source_file_index>
4

> <i_lp_mmshare_version>
43012

> <i_f3d_flags>
0

> <s_epik_input>
W0NIM11DKFtDSDNdKShbQ0gzXSluMVtjSF1jKGMoPU8pW25IXWMxPU8pW0NIMl1bTkhdW0NIMl1DMihbT0hdKVtDSDJdW0NIMl1bQ0gyXTI=

> <s_epik_cmdline>
J2VwaWtfcHl0aG9uJywgJy1waCcsICc3LjAnLCAnLXRuJywgJzgnLCAnLW1hJywgJzIwMCcsICctbWV0YWxfYmluZGluZycsICctaW1hZScsICc8aW5maWxlLm1hZT4nLCAnLW9tYWUnLCAnPG91dGZpbGUubWFlPic=

> <r_lp_tautomer_probability>
0.999537

> <r_epik_Ionization_Penalty>
6.25758

> <r_epik_Ionization_Penalty_Charging>
1.60838e-06

> <r_epik_Ionization_Penalty_Neutral>
6.25758

> <r_epik_State_Penalty>
6.1746

> <r_epik_Charging_Adjusted_Penalty>
6.1746

> <i_epik_Tot_Q>
-1

> <i_epik_Tot_abs_Q>
1

> <r_epik_Metal_State_Penalty>
2.58365

> <b_epik_Metal_Only>
1

> <s_lp_Force_Field>
OPLS_2005

> <r_lp_Energy>
44.4869

> <b_lp_Chiralities_Consistent>
1

> <s_lp_Variant>
AV-unprocessed.smi:4-4

> <Gold.Version>
5.8.1

> <Gold.Id.Protein>
6NUR|6NUR_protein|mol2

> <Gold.PLP.Fitness>
39.0890

> <Gold.PLP.PLP>
-29.1342

> <Gold.PLP.part.hbond>
-3.0000

> <Gold.PLP.part.metal>
0.0000

> <Gold.PLP.part.buried>
-4.5994

> <Gold.PLP.part.nonpolar>
-22.8362

> <Gold.PLP.part.repulsive>
0.0000

> <Gold.PLP.ligand.clash>
0.0000

> <Gold.PLP.ligand.torsion>
0.2455

> <Gold.PLP.Chemscore.Hbond>
2.5241

> <Gold.PLP.Chemscore.CHOScore>
0.9186

> <Gold.PLP.Chemscore.Metal>
0.0000

> <Gold.Chemscore.Hbonds>
donor molecule, donor type, donor heavy atom, donor atom, acceptor molecule, acceptor atom, score
      L1  H     9    33       P1  7948  0.71
      P1  H  6896  6907       L1    20  0.43
      P1  H  6896  6909       L1    18  1.22
      L1  C     6    30       P1  7948  0.75

> <Gold.PLP.Chemscore.Internal.Correction>
0.1176

> <Gold.Rescore>
     Score         DG    S(hbond)    S(metal)    S(lipo)     H(rot)  DE(clash)    DE(int)     intcor
     10.87     -12.55       1.55        0.00      68.56       2.40       0.08       1.60       ----

> <Gold.Chemscore.Fitness>
10.8682

> <Gold.Chemscore.DG>
-12.5481

> <Gold.Chemscore.ZeroCoef>
-5.4800

> <Gold.Chemscore.Hbond>
1.5526

> <Gold.Chemscore.Metal>
0.0000

> <Gold.Chemscore.Lipo>
68.5643

> <Gold.Chemscore.Internal_Hbond>
0.0000

> <Gold.Chemscore.DEClash>
0.0757

> <Gold.Chemscore.DEInternal>
1.6042

> <Gold.Chemscore.Rot>
2.3983

> <Gold.Chemscore.Internal.Correction>
   9.000000E+99

> <Gold.Chemscore.Hbonds>
donor molecule, donor type, donor heavy atom, donor atom, acceptor molecule, acceptor atom, score
      L1  H     9    33       P1  7948  0.16
      P1  H  6896  6907       L1    20  0.31
      P1  H  6896  6909       L1    18  0.50

> <Gold.Chemscore.Hbond.Weighted>
-5.1856

> <Gold.Chemscore.Metal.Weighted>
-0.0000

> <Gold.Chemscore.Lipo.Weighted>
-8.0220

> <Gold.Chemscore.Internal_Hbond.Weighted>
0.0000

> <Gold.Chemscore.DEClash.Weighted>
0.0757

> <Gold.Chemscore.DEInternal.Weighted>
1.6042

> <Gold.Chemscore.Rot.Weighted>
6.1395

> <Gold.Chemscore.Internal.Correction.Weighted>
   9.000000E+99

> <Gold.Protein.RotatedTorsions>
[ 6907 6896 6895 6894 ] final   -4.77 input  -60.11 | X-H torsion
[ 7974 7965 7964 7962 ] final  159.24 input  175.53 | X-H torsion
[ 8008 7997 7996 7995 ] final -157.86 input   59.86 | X-H torsion
[ 10167 10162 10161 10158 ] final   55.77 input  -65.29 | X-H torsion
[ 10718 10713 10712 10709 ] final   26.33 input   66.30 | X-H torsion
[ 10763 10752 10751 10750 ] final   90.24 input  -60.55 | X-H torsion
[ 11005 11000 10999 10996 ] final  -34.94 input  -57.11 | X-H torsion

> <Gold.Protein.ActiveResidues>
 VAL166  LYS551  ARG553  GLY616  TRP617  ASP618  TYR619  PRO620  LYS621  CYS622 
 ASP623  PHE694  ASN695  SER759  ASP760  ASP761  ALA762  ILE779  LEU786  VAL792 
 PHE793  MET794  SER795  GLU796  ALA797  LYS798  CYS799  TRP800  GLU811  SER814 

> <Gold.Protein.RotatedAtoms>
  151.4924  135.1058  159.9806 H   0  0  0  0  0  0  0  0  0  0  0  0  # atno 6907 bound_to 6896
  152.4735  133.8081  159.6999 H   0  0  0  0  0  0  0  0  0  0  0  0  # atno 6908 bound_to 6896
  150.8759  133.7377  159.2973 H   0  0  0  0  0  0  0  0  0  0  0  0  # atno 6909 bound_to 6896
  144.7801  139.7590  143.6263 H   0  0  0  0  0  0  0  0  0  0  0  0  # atno 7974 bound_to 7965
  155.7388  140.0811  157.2255 H   0  0  0  0  0  0  0  0  0  0  0  0  # atno 8008 bound_to 7997
  154.4024  140.1582  156.2647 H   0  0  0  0  0  0  0  0  0  0  0  0  # atno 8009 bound_to 7997
  155.9040  140.3408  155.6051 H   0  0  0  0  0  0  0  0  0  0  0  0  # atno 8010 bound_to 7997
  140.2159  144.3840  150.6470 H   0  0  0  0  0  0  0  0  0  0  0  0  # atno 10167 bound_to 10162
  157.2054  130.6909  149.6206 H   0  0  0  0  0  0  0  0  0  0  0  0  # atno 10718 bound_to 10713
  153.1955  135.4441  155.0203 H   0  0  0  0  0  0  0  0  0  0  0  0  # atno 10763 bound_to 10752
  154.8116  135.3297  154.7291 H   0  0  0  0  0  0  0  0  0  0  0  0  # atno 10764 bound_to 10752
  153.7741  135.6982  153.4956 H   0  0  0  0  0  0  0  0  0  0  0  0  # atno 10765 bound_to 10752
  140.9756  133.7085  156.1597 H   0  0  0  0  0  0  0  0  0  0  0  0  # atno 11005 bound_to 11000
  146.2004  139.5296  142.9747 LP  0  0  0  0  0  0  0  0  0  0  0  0  # atno 17320 bound_to 7965
  145.6074  141.0345  143.1985 LP  0  0  0  0  0  0  0  0  0  0  0  0  # atno 17321 bound_to 7965
  140.6290  143.2185  151.6536 LP  0  0  0  0  0  0  0  0  0  0  0  0  # atno 17342 bound_to 10162
  139.5162  144.3354  152.0789 LP  0  0  0  0  0  0  0  0  0  0  0  0  # atno 17343 bound_to 10162
  155.9696  130.4569  150.5941 LP  0  0  0  0  0  0  0  0  0  0  0  0  # atno 17370 bound_to 10713
  157.3725  131.0768  151.1545 LP  0  0  0  0  0  0  0  0  0  0  0  0  # atno 17371 bound_to 10713
  140.7264  134.4303  157.5570 LP  0  0  0  0  0  0  0  0  0  0  0  0  # atno 17394 bound_to 11000
  139.8929  134.8743  156.2248 LP  0  0  0  0  0  0  0  0  0  0  0  0  # atno 17395 bound_to 11000

$$$$
