AV-unprocessed.smi:578|AV-procd|sdf|2982|dock2
  -GOLD-   2262023493D 1   1.00000     0.00000
 Structure written by MMmdl.
 33 34  0  0  0  0  0  0  0  0  3 V2000
  150.2109  142.1218  156.8577 C   0  0  0  0  0  0  0  0  0  0  0  0
  151.4628  142.5196  157.6465 C   0  0  2  0  0  0  0  0  0  0  0  0
  151.8829  141.4318  158.6535 C   0  0  0  0  0  0  0  0  0  0  0  0
  153.0159  141.8936  159.4446 N   0  0  0  0  0  0  0  0  0  0  0  0
  153.5293  140.9126  160.3040 C   0  0  0  0  0  0  0  0  0  0  0  0
  154.3332  141.3055  161.3953 C   0  0  0  0  0  0  0  0  0  0  0  0
  154.8512  140.3209  162.2597 C   0  0  0  0  0  0  0  0  0  0  0  0
  154.5743  139.0189  162.0355 N   0  3  0  0  0  0  0  0  0  0  0  0
  153.8106  138.5870  161.0058 C   0  0  0  0  0  0  0  0  0  0  0  0
  153.5683  137.1146  160.8521 C   0  0  0  0  0  0  0  0  0  0  0  0
  152.8451  136.7190  159.9115 O   0  0  0  0  0  0  0  0  0  0  0  0
  154.1000  136.3341  161.6729 O   0  5  0  0  0  0  0  0  0  0  0  0
  153.2668  139.5359  160.1096 C   0  0  0  0  0  0  0  0  0  0  0  0
  152.7507  143.1644  160.1065 C   0  0  0  0  0  0  0  0  0  0  0  0
  152.3146  144.2184  159.0709 C   0  0  2  0  0  0  0  0  0  0  0  0
  151.9287  145.5474  159.7288 C   0  0  0  0  0  0  0  0  0  0  0  0
  151.1839  143.7260  158.3545 O   0  0  0  0  0  0  0  0  0  0  0  0
  150.3794  141.2068  156.2893 H   0  0  0  0  0  0  0  0  0  0  0  0
  149.9306  142.9042  156.1519 H   0  0  0  0  0  0  0  0  0  0  0  0
  149.3625  141.9526  157.5214 H   0  0  0  0  0  0  0  0  0  0  0  0
  152.2751  142.7002  156.9402 H   0  0  0  0  0  0  0  0  0  0  0  0
  151.0464  141.1913  159.3112 H   0  0  0  0  0  0  0  0  0  0  0  0
  152.1526  140.5160  158.1254 H   0  0  0  0  0  0  0  0  0  0  0  0
  154.5515  142.3493  161.5692 H   0  0  0  0  0  0  0  0  0  0  0  0
  155.4736  140.5323  163.1165 H   0  0  0  0  0  0  0  0  0  0  0  0
  152.6547  139.2116  159.2801 H   0  0  0  0  0  0  0  0  0  0  0  0
  151.9688  143.0354  160.8563 H   0  0  0  0  0  0  0  0  0  0  0  0
  153.6475  143.5003  160.6290 H   0  0  0  0  0  0  0  0  0  0  0  0
  153.1294  144.4029  158.3684 H   0  0  0  0  0  0  0  0  0  0  0  0
  152.7682  145.9698  160.2817 H   0  0  0  0  0  0  0  0  0  0  0  0
  151.1000  145.4179  160.4256 H   0  0  0  0  0  0  0  0  0  0  0  0
  151.6230  146.2783  158.9799 H   0  0  0  0  0  0  0  0  0  0  0  0
  154.9565  138.3166  162.6699 H   0  0  0  0  0  0  0  0  0  0  0  0
  1  2  1  0  0  0  0
  1 18  1  0  0  0  0
  1 19  1  0  0  0  0
  1 20  1  0  0  0  0
  2 17  1  0  0  0  0
  2  3  1  0  0  0  0
  2 21  1  0  0  0  0
  3  4  1  0  0  0  0
  3 22  1  0  0  0  0
  3 23  1  0  0  0  0
  4  5  1  0  0  0  0
  4 14  1  0  0  0  0
  5 13  1  0  0  0  0
  5  6  2  0  0  0  0
  6  7  1  0  0  0  0
  6 24  1  0  0  0  0
  7  8  2  0  0  0  0
  7 25  1  0  0  0  0
  8  9  1  0  0  0  0
  8 33  1  0  0  0  0
  9 10  1  0  0  0  0
  9 13  2  0  0  0  0
 10 11  2  0  0  0  0
 10 12  1  0  0  0  0
 13 26  1  0  0  0  0
 14 15  1  0  0  0  0
 14 27  1  0  0  0  0
 14 28  1  0  0  0  0
 15 16  1  0  0  0  0
 15 17  1  0  0  0  0
 15 29  1  0  0  0  0
 16 30  1  0  0  0  0
 16 31  1  0  0  0  0
 16 32  1  0  0  0  0
M  CHG  1   8   1
M  CHG  1  12  -1
M  END
> <s_m_source_file>
AV-unprocessed.smi

> <i_m_source_file_index>
578

> <i_lp_mmshare_version>
43012

> <i_f3d_flags>
0

> <s_epik_input>
W0NIM11bQ0BASF0xW0NIMl1OKFtDSDJdW0NASF0oTzEpW0NIM10pYzJbY0hdW2NIXW5jKFtjSF0yKUMoPU8pW09IXQ==

> <s_epik_cmdline>
J2VwaWtfcHl0aG9uJywgJy1waCcsICc3LjAnLCAnLXRuJywgJzgnLCAnLW1hJywgJzIwMCcsICctbWV0YWxfYmluZGluZycsICctaW1hZScsICc8aW5maWxlLm1hZT4nLCAnLW9tYWUnLCAnPG91dGZpbGUubWFlPic=

> <r_epik_Ionization_Penalty>
0.0203651

> <r_epik_Ionization_Penalty_Charging>
0.0203651

> <r_epik_Ionization_Penalty_Neutral>
3.18831e-12

> <r_epik_State_Penalty>
0.0163096

> <r_epik_Charging_Adjusted_Penalty>
0.0366747

> <i_epik_Tot_Q>
0

> <i_epik_Tot_abs_Q>
2

> <r_epik_Metal_State_Penalty>
1.99323

> <b_epik_Metal_Only>
0

> <s_lp_Force_Field>
OPLS_2005

> <r_lp_Energy>
16.452

> <b_lp_Chiralities_Consistent>
1

> <s_lp_Variant>
AV-unprocessed.smi:578-2

> <Gold.Version>
5.8.1

> <Gold.Id.Protein>
6NUR|6NUR_protein|mol2

> <Gold.PLP.Fitness>
40.1022

> <Gold.PLP.PLP>
-35.2803

> <Gold.PLP.part.hbond>
-1.0000

> <Gold.PLP.part.metal>
0.0000

> <Gold.PLP.part.buried>
-4.0182

> <Gold.PLP.part.nonpolar>
-29.8980

> <Gold.PLP.part.repulsive>
0.1150

> <Gold.PLP.ligand.clash>
0.0000

> <Gold.PLP.ligand.torsion>
0.6383

> <Gold.PLP.Chemscore.Hbond>
2.0000

> <Gold.PLP.Chemscore.CHOScore>
0.0000

> <Gold.PLP.Chemscore.Metal>
0.0000

> <Gold.Chemscore.Hbonds>
donor molecule, donor type, donor heavy atom, donor atom, acceptor molecule, acceptor atom, score
      P1  H  6896  6908       L1    11  2.00

> <Gold.PLP.Chemscore.Internal.Correction>
0.0986

> <Gold.Rescore>
     Score         DG    S(hbond)    S(metal)    S(lipo)     H(rot)  DE(clash)    DE(int)     intcor
     17.57     -18.20       1.00        0.00     102.04       1.00       0.04       0.58       ----

> <Gold.Chemscore.Fitness>
17.5702

> <Gold.Chemscore.DG>
-18.1978

> <Gold.Chemscore.ZeroCoef>
-5.4800

> <Gold.Chemscore.Hbond>
0.9997

> <Gold.Chemscore.Metal>
0.0000

> <Gold.Chemscore.Lipo>
102.0420

> <Gold.Chemscore.Internal_Hbond>
0.0000

> <Gold.Chemscore.DEClash>
0.0436

> <Gold.Chemscore.DEInternal>
0.5840

> <Gold.Chemscore.Rot>
1.0000

> <Gold.Chemscore.Internal.Correction>
   9.000000E+99

> <Gold.Chemscore.Hbonds>
donor molecule, donor type, donor heavy atom, donor atom, acceptor molecule, acceptor atom, score
      P1  H  6896  6908       L1    11  0.94

> <Gold.Chemscore.Hbond.Weighted>
-3.3389

> <Gold.Chemscore.Metal.Weighted>
-0.0000

> <Gold.Chemscore.Lipo.Weighted>
-11.9389

> <Gold.Chemscore.Internal_Hbond.Weighted>
0.0000

> <Gold.Chemscore.DEClash.Weighted>
0.0436

> <Gold.Chemscore.DEInternal.Weighted>
0.5840

> <Gold.Chemscore.Rot.Weighted>
2.5600

> <Gold.Chemscore.Internal.Correction.Weighted>
   9.000000E+99

> <Gold.Protein.RotatedTorsions>
[ 6907 6896 6895 6894 ] final  -85.59 input  -60.11 | X-H torsion
[ 7974 7965 7964 7962 ] final   17.37 input  175.53 | X-H torsion
[ 8008 7997 7996 7995 ] final  153.12 input   59.86 | X-H torsion
[ 10167 10162 10161 10158 ] final   49.54 input  -65.29 | X-H torsion
[ 10718 10713 10712 10709 ] final   24.17 input   66.30 | X-H torsion
[ 10763 10752 10751 10750 ] final  108.55 input  -60.55 | X-H torsion
[ 11005 11000 10999 10996 ] final  146.09 input  -57.11 | X-H torsion

> <Gold.Protein.ActiveResidues>
 VAL166  LYS551  ARG553  GLY616  TRP617  ASP618  TYR619  PRO620  LYS621  CYS622 
 ASP623  PHE694  ASN695  SER759  ASP760  ASP761  ALA762  ILE779  LEU786  VAL792 
 PHE793  MET794  SER795  GLU796  ALA797  LYS798  CYS799  TRP800  GLU811  SER814 

> <Gold.Protein.RotatedAtoms>
  150.6869  134.3181  159.4774 H   0  0  0  0  0  0  0  0  0  0  0  0  # atno 6907 bound_to 6896
  152.1059  134.9306  160.0577 H   0  0  0  0  0  0  0  0  0  0  0  0  # atno 6908 bound_to 6896
  152.0567  133.4008  159.4437 H   0  0  0  0  0  0  0  0  0  0  0  0  # atno 6909 bound_to 6896
  146.2220  139.8612  142.8604 H   0  0  0  0  0  0  0  0  0  0  0  0  # atno 7974 bound_to 7965
  156.2597  140.2002  156.6440 H   0  0  0  0  0  0  0  0  0  0  0  0  # atno 8008 bound_to 7997
  154.6587  140.0563  157.0063 H   0  0  0  0  0  0  0  0  0  0  0  0  # atno 8009 bound_to 7997
  155.1308  140.3233  155.4477 H   0  0  0  0  0  0  0  0  0  0  0  0  # atno 8010 bound_to 7997
  140.2818  144.3147  150.6262 H   0  0  0  0  0  0  0  0  0  0  0  0  # atno 10167 bound_to 10162
  157.1761  130.6781  149.6095 H   0  0  0  0  0  0  0  0  0  0  0  0  # atno 10718 bound_to 10713
  153.4222  135.3808  155.2118 H   0  0  0  0  0  0  0  0  0  0  0  0  # atno 10763 bound_to 10752
  154.8745  135.3820  154.4370 H   0  0  0  0  0  0  0  0  0  0  0  0  # atno 10764 bound_to 10752
  153.4891  135.7088  153.5957 H   0  0  0  0  0  0  0  0  0  0  0  0  # atno 10765 bound_to 10752
  140.0765  134.9122  157.1431 H   0  0  0  0  0  0  0  0  0  0  0  0  # atno 11005 bound_to 11000
  145.2702  141.0106  143.3776 LP  0  0  0  0  0  0  0  0  0  0  0  0  # atno 17320 bound_to 7965
  144.9229  139.4390  143.6532 LP  0  0  0  0  0  0  0  0  0  0  0  0  # atno 17321 bound_to 7965
  140.5805  143.2173  151.7437 LP  0  0  0  0  0  0  0  0  0  0  0  0  # atno 17342 bound_to 10162
  139.4960  144.4087  152.0104 LP  0  0  0  0  0  0  0  0  0  0  0  0  # atno 17343 bound_to 10162
  155.9731  130.4662  150.6282 LP  0  0  0  0  0  0  0  0  0  0  0  0  # atno 17370 bound_to 10713
  157.3997  131.0808  151.1319 LP  0  0  0  0  0  0  0  0  0  0  0  0  # atno 17371 bound_to 10713
  140.3550  134.2557  155.7194 LP  0  0  0  0  0  0  0  0  0  0  0  0  # atno 17394 bound_to 11000
  141.2031  133.7920  157.0355 LP  0  0  0  0  0  0  0  0  0  0  0  0  # atno 17395 bound_to 11000

$$$$
