AV-unprocessed.smi:255|AV-procd|sdf|1953|dock8
  -GOLD-   2262021 93D 1   1.00000     0.00000
 Structure written by MMmdl.
 44 47  0  0  0  0  0  0  0  0  1 V2000
  143.4305  134.2503  154.6575 O   0  0  0  0  0  0  0  0  0  0  0  0
  142.9414  135.1290  153.6663 C   0  0  0  0  0  0  0  0  0  0  0  0
  143.6692  134.8931  152.3293 C   0  0  2  0  0  0  0  0  0  0  0  0
  143.3423  133.5400  151.6973 C   0  0  0  0  0  0  0  0  0  0  0  0
  144.4929  133.3744  150.7116 C   0  0  2  0  0  0  0  0  0  0  0  0
  144.7082  132.1002  150.3859 F   0  0  0  0  0  0  0  0  0  0  0  0
  145.6849  134.0076  151.4357 C   0  0  0  0  0  0  0  0  0  0  0  0
  145.1234  134.8705  152.4728 N   0  0  0  0  0  0  0  0  0  0  0  0
  145.7067  136.0828  152.5978 C   0  0  0  0  0  0  0  0  0  0  0  0
  145.6720  136.9682  151.5671 N   0  0  0  0  0  0  0  0  0  0  0  0
  146.2361  138.1720  151.7049 C   0  0  0  0  0  0  0  0  0  0  0  0
  146.8715  138.6805  152.7636 N   0  0  0  0  0  0  0  0  0  0  0  0
  146.9061  137.7908  153.7974 C   0  0  0  0  0  0  0  0  0  0  0  0
  146.3483  136.4824  153.7983 C   0  0  0  0  0  0  0  0  0  0  0  0
  146.5625  135.8707  155.0260 N   0  0  0  0  0  0  0  0  0  0  0  0
  147.2174  136.7668  155.7132 C   0  0  0  0  0  0  0  0  0  0  0  0
  147.4761  137.9460  155.0493 N   0  0  0  0  0  0  0  0  0  0  0  0
  148.1838  139.1042  155.5748 C   0  0  0  0  0  0  0  0  0  0  0  0
  149.2821  139.6446  154.6267 C   0  0  2  0  0  0  0  0  0  0  0  0
  148.6612  140.2840  153.5259 O   0  0  0  0  0  0  0  0  0  0  0  0
  150.1989  138.5361  154.1048 C   0  0  0  0  0  0  0  0  0  0  0  0
  151.5064  138.7744  154.8502 C   0  0  0  0  0  0  0  0  0  0  0  0
  151.5566  140.1871  154.9372 O   0  0  0  0  0  0  0  0  0  0  0  0
  150.2577  140.6287  155.3045 C   0  0  0  0  0  0  0  0  0  0  0  0
  143.3797  135.6675  151.6158 H   0  0  0  0  0  0  0  0  0  0  0  0
  144.2798  133.9200  149.7913 H   0  0  0  0  0  0  0  0  0  0  0  0
  142.8988  133.4691  154.6551 H   0  0  0  0  0  0  0  0  0  0  0  0
  141.8608  135.0250  153.5616 H   0  0  0  0  0  0  0  0  0  0  0  0
  143.1322  136.1426  154.0197 H   0  0  0  0  0  0  0  0  0  0  0  0
  143.3742  132.7503  152.4501 H   0  0  0  0  0  0  0  0  0  0  0  0
  142.3632  133.5170  151.2178 H   0  0  0  0  0  0  0  0  0  0  0  0
  146.2779  133.2385  151.9317 H   0  0  0  0  0  0  0  0  0  0  0  0
  146.3434  134.5290  150.7394 H   0  0  0  0  0  0  0  0  0  0  0  0
  146.1678  138.8213  150.8445 H   0  0  0  0  0  0  0  0  0  0  0  0
  147.5371  136.5896  156.7299 H   0  0  0  0  0  0  0  0  0  0  0  0
  147.4529  139.8868  155.7826 H   0  0  0  0  0  0  0  0  0  0  0  0
  148.6168  138.8301  156.5378 H   0  0  0  0  0  0  0  0  0  0  0  0
  149.1468  140.0696  152.7439 H   0  0  0  0  0  0  0  0  0  0  0  0
  149.8048  137.5318  154.2657 H   0  0  0  0  0  0  0  0  0  0  0  0
  150.3792  138.6481  153.0342 H   0  0  0  0  0  0  0  0  0  0  0  0
  151.4731  138.3421  155.8517 H   0  0  0  0  0  0  0  0  0  0  0  0
  152.3723  138.3705  154.3255 H   0  0  0  0  0  0  0  0  0  0  0  0
  150.0962  141.6699  155.0225 H   0  0  0  0  0  0  0  0  0  0  0  0
  150.1890  140.5683  156.3906 H   0  0  0  0  0  0  0  0  0  0  0  0
  1  2  1  0  0  0  0
  1 27  1  0  0  0  0
  2  3  1  0  0  0  0
  2 28  1  0  0  0  0
  2 29  1  0  0  0  0
  3 25  1  0  0  0  0
  3  8  1  0  0  0  0
  3  4  1  0  0  0  0
  4  5  1  0  0  0  0
  4 30  1  0  0  0  0
  4 31  1  0  0  0  0
  5 26  1  0  0  0  0
  5  6  1  0  0  0  0
  5  7  1  0  0  0  0
  7  8  1  0  0  0  0
  7 32  1  0  0  0  0
  7 33  1  0  0  0  0
  8  9  1  0  0  0  0
  9 14  1  0  0  0  0
  9 10  2  0  0  0  0
 10 11  1  0  0  0  0
 11 12  2  0  0  0  0
 11 34  1  0  0  0  0
 12 13  1  0  0  0  0
 13 17  1  0  0  0  0
 13 14  2  0  0  0  0
 14 15  1  0  0  0  0
 15 16  2  0  0  0  0
 16 17  1  0  0  0  0
 16 35  1  0  0  0  0
 17 18  1  0  0  0  0
 18 19  1  0  0  0  0
 18 36  1  0  0  0  0
 18 37  1  0  0  0  0
 19 24  1  0  0  0  0
 19 20  1  0  0  0  0
 19 21  1  0  0  0  0
 20 38  1  0  0  0  0
 21 22  1  0  0  0  0
 21 39  1  0  0  0  0
 21 40  1  0  0  0  0
 22 23  1  0  0  0  0
 22 41  1  0  0  0  0
 22 42  1  0  0  0  0
 23 24  1  0  0  0  0
 24 43  1  0  0  0  0
 24 44  1  0  0  0  0
M  END
> <s_m_source_file>
AV-unprocessed.smi

> <i_m_source_file_index>
255

> <i_lp_mmshare_version>
43012

> <i_f3d_flags>
0

> <s_epik_input>
W09IXVtDSDJdW0NAQEhdMVtDSDJdW0NASF0oRilbQ0gyXU4xYyhuW2NIXW4yKWMoYzIzKW5bY0hdbjNbQ0gyXVtDQEBdNChbT0hdKVtDSDJdW0NIMl1PW0NIMl00

> <s_epik_cmdline>
J2VwaWtfcHl0aG9uJywgJy1waCcsICc3LjAnLCAnLXRuJywgJzgnLCAnLW1hJywgJzIwMCcsICctbWV0YWxfYmluZGluZycsICctaW1hZScsICc8aW5maWxlLm1hZT4nLCAnLW9tYWUnLCAnPG91dGZpbGUubWFlPic=

> <r_lp_tautomer_probability>
1

> <r_epik_Ionization_Penalty>
0.0058098

> <r_epik_Ionization_Penalty_Charging>
0

> <r_epik_Ionization_Penalty_Neutral>
0.0058098

> <r_epik_State_Penalty>
0.00411166

> <r_epik_Charging_Adjusted_Penalty>
0.00411166

> <i_epik_Tot_Q>
0

> <i_epik_Tot_abs_Q>
0

> <r_epik_Metal_State_Penalty>
-0

> <b_epik_Metal_Only>
0

> <s_lp_Force_Field>
OPLS_2005

> <r_lp_Energy>
52.96

> <b_lp_Chiralities_Consistent>
1

> <s_lp_Variant>
AV-unprocessed.smi:255-5

> <Gold.Version>
5.8.1

> <Gold.Id.Protein>
6NUR|6NUR_protein|mol2

> <Gold.PLP.Fitness>
44.1465

> <Gold.PLP.PLP>
-33.8590

> <Gold.PLP.part.hbond>
-3.0000

> <Gold.PLP.part.metal>
0.0000

> <Gold.PLP.part.buried>
-4.8334

> <Gold.PLP.part.nonpolar>
-28.2298

> <Gold.PLP.part.repulsive>
1.4204

> <Gold.PLP.ligand.clash>
0.0000

> <Gold.PLP.ligand.torsion>
0.3179

> <Gold.PLP.Chemscore.Hbond>
3.0000

> <Gold.PLP.Chemscore.CHOScore>
0.6115

> <Gold.PLP.Chemscore.Metal>
0.0000

> <Gold.Chemscore.Hbonds>
donor molecule, donor type, donor heavy atom, donor atom, acceptor molecule, acceptor atom, score
      L1  H     1    27       P1 10957  1.00
      L1  H    20    38       P1  7957  1.00
      P1  H  7989  7998       L1    23  0.95
      L1  C    11    34       P1 10171  0.60

> <Gold.PLP.Chemscore.Internal.Correction>
0.0890

> <Gold.Rescore>
     Score         DG    S(hbond)    S(metal)    S(lipo)     H(rot)  DE(clash)    DE(int)     intcor
     10.72     -11.73       2.36        0.00      58.75       3.33       0.52       0.49       ----

> <Gold.Chemscore.Fitness>
10.7165

> <Gold.Chemscore.DG>
-11.7272

> <Gold.Chemscore.ZeroCoef>
-5.4800

> <Gold.Chemscore.Hbond>
2.3627

> <Gold.Chemscore.Metal>
0.0000

> <Gold.Chemscore.Lipo>
58.7486

> <Gold.Chemscore.Internal_Hbond>
0.0000

> <Gold.Chemscore.DEClash>
0.5241

> <Gold.Chemscore.DEInternal>
0.4866

> <Gold.Chemscore.Rot>
3.3273

> <Gold.Chemscore.Internal.Correction>
   9.000000E+99

> <Gold.Chemscore.Hbonds>
donor molecule, donor type, donor heavy atom, donor atom, acceptor molecule, acceptor atom, score
      L1  H     1    27       P1 10957  0.98
      L1  H    20    38       P1  7957  0.99
      P1  H  7989  7998       L1    23  0.17

> <Gold.Chemscore.Hbond.Weighted>
-7.8915

> <Gold.Chemscore.Metal.Weighted>
-0.0000

> <Gold.Chemscore.Lipo.Weighted>
-6.8736

> <Gold.Chemscore.Internal_Hbond.Weighted>
0.0000

> <Gold.Chemscore.DEClash.Weighted>
0.5241

> <Gold.Chemscore.DEInternal.Weighted>
0.4866

> <Gold.Chemscore.Rot.Weighted>
8.5179

> <Gold.Chemscore.Internal.Correction.Weighted>
   9.000000E+99

> <Gold.Protein.RotatedTorsions>
[ 6907 6896 6895 6894 ] final  -11.53 input  -60.11 | X-H torsion
[ 7974 7965 7964 7962 ] final   56.11 input  175.53 | X-H torsion
[ 8008 7997 7996 7995 ] final   21.81 input   59.86 | X-H torsion
[ 10167 10162 10161 10158 ] final  -77.07 input  -65.29 | X-H torsion
[ 10718 10713 10712 10709 ] final   48.07 input   66.30 | X-H torsion
[ 10763 10752 10751 10750 ] final   48.19 input  -60.55 | X-H torsion
[ 11005 11000 10999 10996 ] final  138.10 input  -57.11 | X-H torsion

> <Gold.Protein.ActiveResidues>
 VAL166  LYS551  ARG553  GLY616  TRP617  ASP618  TYR619  PRO620  LYS621  CYS622 
 ASP623  PHE694  ASN695  SER759  ASP760  ASP761  ALA762  ILE779  LEU786  VAL792 
 PHE793  MET794  SER795  GLU796  ALA797  LYS798  CYS799  TRP800  GLU811  SER814 

> <Gold.Protein.RotatedAtoms>
  151.3847  135.0946  159.9506 H   0  0  0  0  0  0  0  0  0  0  0  0  # atno 6907 bound_to 6896
  152.5098  133.9038  159.7464 H   0  0  0  0  0  0  0  0  0  0  0  0  # atno 6908 bound_to 6896
  150.9478  133.6527  159.2806 H   0  0  0  0  0  0  0  0  0  0  0  0  # atno 6909 bound_to 6896
  145.9433  139.3907  143.0350 H   0  0  0  0  0  0  0  0  0  0  0  0  # atno 7974 bound_to 7965
  154.9562  140.3072  155.5052 H   0  0  0  0  0  0  0  0  0  0  0  0  # atno 8008 bound_to 7997
  156.2982  140.2309  156.4582 H   0  0  0  0  0  0  0  0  0  0  0  0  # atno 8009 bound_to 7997
  154.8007  140.0434  157.1259 H   0  0  0  0  0  0  0  0  0  0  0  0  # atno 8010 bound_to 7997
  140.4802  143.2404  151.8070 H   0  0  0  0  0  0  0  0  0  0  0  0  # atno 10167 bound_to 10162
  157.4650  130.8220  149.7926 H   0  0  0  0  0  0  0  0  0  0  0  0  # atno 10718 bound_to 10713
  152.9793  135.5952  154.3886 H   0  0  0  0  0  0  0  0  0  0  0  0  # atno 10763 bound_to 10752
  154.3544  135.2767  155.2356 H   0  0  0  0  0  0  0  0  0  0  0  0  # atno 10764 bound_to 10752
  154.4381  135.6020  153.6167 H   0  0  0  0  0  0  0  0  0  0  0  0  # atno 10765 bound_to 10752
  140.0160  134.9418  157.0377 H   0  0  0  0  0  0  0  0  0  0  0  0  # atno 11005 bound_to 11000
  145.8270  140.9650  143.0869 LP  0  0  0  0  0  0  0  0  0  0  0  0  # atno 17320 bound_to 7965
  144.6783  140.0114  143.7484 LP  0  0  0  0  0  0  0  0  0  0  0  0  # atno 17321 bound_to 7965
  139.4832  144.4782  151.9340 LP  0  0  0  0  0  0  0  0  0  0  0  0  # atno 17342 bound_to 10162
  140.3867  144.2667  150.5903 LP  0  0  0  0  0  0  0  0  0  0  0  0  # atno 17343 bound_to 10162
  156.0046  130.3862  150.2478 LP  0  0  0  0  0  0  0  0  0  0  0  0  # atno 17370 bound_to 10713
  157.0658  131.0103  151.3207 LP  0  0  0  0  0  0  0  0  0  0  0  0  # atno 17371 bound_to 10713
  140.4470  134.1622  155.7178 LP  0  0  0  0  0  0  0  0  0  0  0  0  # atno 17394 bound_to 11000
  141.1743  133.8546  157.1471 LP  0  0  0  0  0  0  0  0  0  0  0  0  # atno 17395 bound_to 11000

$$$$
