AV-unprocessed.smi:827|AV-procd|sdf|3856|dock10
  -GOLD-   22720 1303D 1   1.00000     0.00000
 Structure written by MMmdl.
 46 47  0  0  0  0  0  0  0  0  1 V2000
  151.6452  138.1464  154.7101 C   0  0  0  0  0  0  0  0  0  0  0  0
  150.3192  138.1661  154.1926 O   0  0  0  0  0  0  0  0  0  0  0  0
  149.5869  139.3334  154.2979 C   0  0  0  0  0  0  0  0  0  0  0  0
  150.1895  140.4271  154.8284 N   0  0  0  0  0  0  0  0  0  0  0  0
  149.4753  141.5664  154.9357 C   0  0  0  0  0  0  0  0  0  0  0  0
  148.1318  141.6743  154.5318 C   0  0  0  0  0  0  0  0  0  0  0  0
  147.5046  140.5416  153.9808 C   0  0  0  0  0  0  0  0  0  0  0  0
  148.2465  139.3431  153.8458 C   0  0  0  0  0  0  0  0  0  0  0  0
  147.7039  138.1384  153.3195 N   0  0  0  0  0  0  0  0  0  0  0  0
  146.4496  137.6697  153.4318 C   0  0  0  0  0  0  0  0  0  0  0  0
  145.5316  138.2289  154.0321 O   0  0  0  0  0  0  0  0  0  0  0  0
  146.3054  136.5078  152.7790 N   0  0  0  0  0  0  0  0  0  0  0  0
  145.0588  135.7590  152.6767 C   0  0  0  0  0  0  0  0  0  0  0  0
  145.0479  134.5667  153.6534 C   0  0  0  0  0  0  0  0  0  0  0  0
  145.9508  133.4956  153.2349 N   0  0  0  0  0  0  0  0  0  0  0  0
  146.2691  132.6021  154.3564 C   0  0  0  0  0  0  0  0  0  0  0  0
  147.1937  131.4616  153.8876 C   0  0  0  0  0  0  0  0  0  0  0  0
  146.5238  130.7154  152.8181 N   0  0  0  0  0  0  0  0  0  0  0  0
  146.1219  129.4235  152.8796 C   0  0  0  0  0  0  0  0  0  0  0  0
  145.3878  128.8114  151.6847 C   0  0  0  0  0  0  0  0  0  0  0  0
  146.3234  128.7102  153.8625 O   0  0  0  0  0  0  0  0  0  0  0  0
  146.2356  131.5945  151.6822 C   0  0  0  0  0  0  0  0  0  0  0  0
  145.3118  132.7326  152.1574 C   0  0  0  0  0  0  0  0  0  0  0  0
  152.0823  137.1620  154.5440 H   0  0  0  0  0  0  0  0  0  0  0  0
  151.6563  138.3361  155.7844 H   0  0  0  0  0  0  0  0  0  0  0  0
  152.2808  138.8787  154.2101 H   0  0  0  0  0  0  0  0  0  0  0  0
  149.9884  142.4156  155.3620 H   0  0  0  0  0  0  0  0  0  0  0  0
  147.5932  142.6033  154.6464 H   0  0  0  0  0  0  0  0  0  0  0  0
  146.4684  140.6099  153.6876 H   0  0  0  0  0  0  0  0  0  0  0  0
  148.3232  137.6126  152.7203 H   0  0  0  0  0  0  0  0  0  0  0  0
  147.1110  136.1198  152.3103 H   0  0  0  0  0  0  0  0  0  0  0  0
  144.2368  136.4369  152.9082 H   0  0  0  0  0  0  0  0  0  0  0  0
  144.9189  135.4400  151.6437 H   0  0  0  0  0  0  0  0  0  0  0  0
  145.2934  134.8883  154.6668 H   0  0  0  0  0  0  0  0  0  0  0  0
  144.0304  134.1746  153.6891 H   0  0  0  0  0  0  0  0  0  0  0  0
  146.7708  133.1538  155.1504 H   0  0  0  0  0  0  0  0  0  0  0  0
  145.3520  132.1910  154.7819 H   0  0  0  0  0  0  0  0  0  0  0  0
  148.1313  131.8698  153.5069 H   0  0  0  0  0  0  0  0  0  0  0  0
  147.4682  130.8455  154.7424 H   0  0  0  0  0  0  0  0  0  0  0  0
  146.0105  128.8441  150.7902 H   0  0  0  0  0  0  0  0  0  0  0  0
  144.4565  129.3433  151.4892 H   0  0  0  0  0  0  0  0  0  0  0  0
  145.1402  127.7673  151.8795 H   0  0  0  0  0  0  0  0  0  0  0  0
  147.1691  132.0009  151.2896 H   0  0  0  0  0  0  0  0  0  0  0  0
  145.7650  131.0678  150.8511 H   0  0  0  0  0  0  0  0  0  0  0  0
  144.3588  132.3249  152.4998 H   0  0  0  0  0  0  0  0  0  0  0  0
  145.0947  133.3953  151.3188 H   0  0  0  0  0  0  0  0  0  0  0  0
  1  2  1  0  0  0  0
  1 24  1  0  0  0  0
  1 25  1  0  0  0  0
  1 26  1  0  0  0  0
  2  3  1  0  0  0  0
  3  8  1  0  0  0  0
  3  4  2  0  0  0  0
  4  5  1  0  0  0  0
  5  6  2  0  0  0  0
  5 27  1  0  0  0  0
  6  7  1  0  0  0  0
  6 28  1  0  0  0  0
  7  8  2  0  0  0  0
  7 29  1  0  0  0  0
  8  9  1  0  0  0  0
  9 10  1  0  0  0  0
  9 30  1  0  0  0  0
 10 11  2  0  0  0  0
 10 12  1  0  0  0  0
 12 13  1  0  0  0  0
 12 31  1  0  0  0  0
 13 14  1  0  0  0  0
 13 32  1  0  0  0  0
 13 33  1  0  0  0  0
 14 15  1  0  0  0  0
 14 34  1  0  0  0  0
 14 35  1  0  0  0  0
 15 23  1  0  0  0  0
 15 16  1  0  0  0  0
 16 17  1  0  0  0  0
 16 36  1  0  0  0  0
 16 37  1  0  0  0  0
 17 18  1  0  0  0  0
 17 38  1  0  0  0  0
 17 39  1  0  0  0  0
 18 19  1  0  0  0  0
 18 22  1  0  0  0  0
 19 20  1  0  0  0  0
 19 21  2  0  0  0  0
 20 40  1  0  0  0  0
 20 41  1  0  0  0  0
 20 42  1  0  0  0  0
 22 23  1  0  0  0  0
 22 43  1  0  0  0  0
 22 44  1  0  0  0  0
 23 45  1  0  0  0  0
 23 46  1  0  0  0  0
M  END
> <s_m_source_file>
AV-unprocessed.smi

> <i_m_source_file_index>
827

> <i_lp_mmshare_version>
43012

> <i_f3d_flags>
0

> <s_epik_input>
W0NIM11PYzFuW2NIXVtjSF1bY0hdYzFbTkhdQyg9TylbTkhdW0NIMl1bQ0gyXU4yW0NIMl1bQ0gyXU4oQyg9TylbQ0gzXSlbQ0gyXVtDSDJdMg==

> <s_epik_cmdline>
J2VwaWtfcHl0aG9uJywgJy1waCcsICc3LjAnLCAnLXRuJywgJzgnLCAnLW1hJywgJzIwMCcsICctbWV0YWxfYmluZGluZycsICctaW1hZScsICc8aW5maWxlLm1hZT4nLCAnLW9tYWUnLCAnPG91dGZpbGUubWFlPic=

> <r_lp_tautomer_probability>
1

> <r_epik_Ionization_Penalty>
0.251055

> <r_epik_Ionization_Penalty_Charging>
0

> <r_epik_Ionization_Penalty_Neutral>
0.251055

> <r_epik_State_Penalty>
0.242297

> <r_epik_Charging_Adjusted_Penalty>
0.242297

> <i_epik_Tot_Q>
0

> <i_epik_Tot_abs_Q>
0

> <r_epik_Metal_State_Penalty>
0.242294

> <b_epik_Metal_Only>
0

> <s_lp_Force_Field>
OPLS_2005

> <r_lp_Energy>
35.7173

> <b_lp_Chiralities_Consistent>
1

> <s_lp_Variant>
AV-unprocessed.smi:827-1

> <Gold.Version>
5.8.1

> <Gold.Id.Protein>
6NUR|6NUR_protein|mol2

> <Gold.PLP.Fitness>
42.9961

> <Gold.PLP.PLP>
-32.5778

> <Gold.PLP.part.hbond>
-3.0000

> <Gold.PLP.part.metal>
0.0000

> <Gold.PLP.part.buried>
-2.3659

> <Gold.PLP.part.nonpolar>
-27.1872

> <Gold.PLP.part.repulsive>
0.7125

> <Gold.PLP.ligand.clash>
0.0000

> <Gold.PLP.ligand.torsion>
0.5782

> <Gold.PLP.Chemscore.Hbond>
2.9600

> <Gold.PLP.Chemscore.CHOScore>
0.8807

> <Gold.PLP.Chemscore.Metal>
0.0000

> <Gold.Chemscore.Hbonds>
donor molecule, donor type, donor heavy atom, donor atom, acceptor molecule, acceptor atom, score
      L1  H     9    30       P1  7948  1.00
      L1  H    12    31       P1  7948  1.00
      P1  H  7989  7998       L1     4  0.99
      L1  C     5    27       P1  8028  0.78

> <Gold.PLP.Chemscore.Internal.Correction>
0.0526

> <Gold.Rescore>
     Score         DG    S(hbond)    S(metal)    S(lipo)     H(rot)  DE(clash)    DE(int)     intcor
     14.64     -16.17       2.19        0.00      68.86       1.83       0.05       1.48       ----

> <Gold.Chemscore.Fitness>
14.6368

> <Gold.Chemscore.DG>
-16.1673

> <Gold.Chemscore.ZeroCoef>
-5.4800

> <Gold.Chemscore.Hbond>
2.1885

> <Gold.Chemscore.Metal>
0.0000

> <Gold.Chemscore.Lipo>
68.8643

> <Gold.Chemscore.Internal_Hbond>
0.0000

> <Gold.Chemscore.DEClash>
0.0495

> <Gold.Chemscore.DEInternal>
1.4809

> <Gold.Chemscore.Rot>
1.8280

> <Gold.Chemscore.Internal.Correction>
   9.000000E+99

> <Gold.Chemscore.Hbonds>
donor molecule, donor type, donor heavy atom, donor atom, acceptor molecule, acceptor atom, score
      L1  H     9    30       P1  7948  0.99
      L1  H    12    31       P1  7948  0.95
      P1  H  7989  7998       L1     4  0.18

> <Gold.Chemscore.Hbond.Weighted>
-7.3097

> <Gold.Chemscore.Metal.Weighted>
-0.0000

> <Gold.Chemscore.Lipo.Weighted>
-8.0571

> <Gold.Chemscore.Internal_Hbond.Weighted>
0.0000

> <Gold.Chemscore.DEClash.Weighted>
0.0495

> <Gold.Chemscore.DEInternal.Weighted>
1.4809

> <Gold.Chemscore.Rot.Weighted>
4.6796

> <Gold.Chemscore.Internal.Correction.Weighted>
   9.000000E+99

> <Gold.Protein.RotatedTorsions>
[ 6907 6896 6895 6894 ] final   50.99 input  -60.11 | X-H torsion
[ 7974 7965 7964 7962 ] final   28.62 input  175.53 | X-H torsion
[ 8008 7997 7996 7995 ] final  115.74 input   59.86 | X-H torsion
[ 10167 10162 10161 10158 ] final  -78.94 input  -65.29 | X-H torsion
[ 10718 10713 10712 10709 ] final -106.08 input   66.30 | X-H torsion
[ 10763 10752 10751 10750 ] final  148.11 input  -60.55 | X-H torsion
[ 11005 11000 10999 10996 ] final  163.91 input  -57.11 | X-H torsion

> <Gold.Protein.ActiveResidues>
 VAL166  LYS551  ARG553  GLY616  TRP617  ASP618  TYR619  PRO620  LYS621  CYS622 
 ASP623  PHE694  ASN695  SER759  ASP760  ASP761  ALA762  ILE779  LEU786  VAL792 
 PHE793  MET794  SER795  GLU796  ALA797  LYS798  CYS799  TRP800  GLU811  SER814 

> <Gold.Protein.RotatedAtoms>
  152.3078  134.7534  160.0343 H   0  0  0  0  0  0  0  0  0  0  0  0  # atno 6907 bound_to 6896
  151.8025  133.3366  159.3539 H   0  0  0  0  0  0  0  0  0  0  0  0  # atno 6908 bound_to 6896
  150.7305  134.5670  159.5915 H   0  0  0  0  0  0  0  0  0  0  0  0  # atno 6909 bound_to 6896
  146.1718  139.7031  142.8962 H   0  0  0  0  0  0  0  0  0  0  0  0  # atno 7974 bound_to 7965
  156.2399  140.2932  156.0415 H   0  0  0  0  0  0  0  0  0  0  0  0  # atno 8008 bound_to 7997
  155.1982  140.0409  157.2930 H   0  0  0  0  0  0  0  0  0  0  0  0  # atno 8009 bound_to 7997
  154.6149  140.2461  155.7630 H   0  0  0  0  0  0  0  0  0  0  0  0  # atno 8010 bound_to 7997
  140.4638  143.2446  151.8309 H   0  0  0  0  0  0  0  0  0  0  0  0  # atno 10167 bound_to 10162
  156.0374  130.5595  150.7630 H   0  0  0  0  0  0  0  0  0  0  0  0  # atno 10718 bound_to 10713
  154.0493  135.2883  155.3343 H   0  0  0  0  0  0  0  0  0  0  0  0  # atno 10763 bound_to 10752
  154.6879  135.5238  153.8355 H   0  0  0  0  0  0  0  0  0  0  0  0  # atno 10764 bound_to 10752
  153.0567  135.6598  154.0691 H   0  0  0  0  0  0  0  0  0  0  0  0  # atno 10765 bound_to 10752
  140.2406  134.8054  157.3407 H   0  0  0  0  0  0  0  0  0  0  0  0  # atno 11005 bound_to 11000
  145.4319  141.0416  143.2906 LP  0  0  0  0  0  0  0  0  0  0  0  0  # atno 17320 bound_to 7965
  144.8175  139.5851  143.7002 LP  0  0  0  0  0  0  0  0  0  0  0  0  # atno 17321 bound_to 7965
  139.4809  144.4976  151.9103 LP  0  0  0  0  0  0  0  0  0  0  0  0  # atno 17342 bound_to 10162
  140.4061  144.2429  150.5890 LP  0  0  0  0  0  0  0  0  0  0  0  0  # atno 17343 bound_to 10162
  157.5144  131.0927  151.0157 LP  0  0  0  0  0  0  0  0  0  0  0  0  # atno 17370 bound_to 10713
  157.0504  130.5785  149.5369 LP  0  0  0  0  0  0  0  0  0  0  0  0  # atno 17371 bound_to 10713
  140.1657  134.4672  155.7864 LP  0  0  0  0  0  0  0  0  0  0  0  0  # atno 17394 bound_to 11000
  141.2211  133.6920  156.7622 LP  0  0  0  0  0  0  0  0  0  0  0  0  # atno 17395 bound_to 11000

$$$$
