AV-unprocessed.smi:1856|AV-procd|sdf|7540|dock3
  -GOLD-   22720 9253D 1   1.00000     0.00000
 Structure written by MMmdl.
 45 46  0  0  0  0  0  0  0  0  2 V2000
  144.4064  144.8424  153.7851 C   0  0  0  0  0  0  0  0  0  0  0  0
  145.0171  143.5805  154.4047 C   0  0  0  0  0  0  0  0  0  0  0  0
  146.3906  143.2355  153.8011 C   0  0  0  0  0  0  0  0  0  0  0  0
  147.0163  141.9763  154.4088 C   0  0  0  0  0  0  0  0  0  0  0  0
  146.4904  140.8741  154.2518 O   0  0  0  0  0  0  0  0  0  0  0  0
  148.1488  142.1553  155.1071 N   0  0  0  0  0  0  0  0  0  0  0  0
  148.9124  141.0941  155.7581 C   0  0  1  0  0  0  0  0  0  0  0  0
  149.5726  140.2050  154.6964 C   0  0  0  0  0  0  0  0  0  0  0  0
  149.9434  141.6348  156.7055 C   0  0  0  0  0  0  0  0  0  0  0  0
  150.1840  142.9535  156.9579 N   0  3  0  0  0  0  0  0  0  0  0  0
  151.2071  143.0778  157.8970 C   0  0  0  0  0  0  0  0  0  0  0  0
  151.7878  144.2075  158.4651 C   0  0  0  0  0  0  0  0  0  0  0  0
  152.8164  143.9856  159.4038 C   0  0  0  0  0  0  0  0  0  0  0  0
  153.2284  142.6815  159.7461 C   0  0  0  0  0  0  0  0  0  0  0  0
  152.6320  141.5443  159.1631 C   0  0  0  0  0  0  0  0  0  0  0  0
  151.6180  141.7713  158.2320 C   0  0  0  0  0  0  0  0  0  0  0  0
  150.8172  140.9137  157.4664 N   0  0  0  0  0  0  0  0  0  0  0  0
  151.0075  139.4568  157.5695 C   0  0  0  0  0  0  0  0  0  0  0  0
  152.4463  139.0112  157.2442 C   0  0  1  0  0  0  0  0  0  0  0  0
  152.6118  137.4894  157.3322 C   0  0  0  0  0  0  0  0  0  0  0  0
  152.8104  139.4291  155.9444 O   0  0  0  0  0  0  0  0  0  0  0  0
  143.4340  145.0604  154.2272 H   0  0  0  0  0  0  0  0  0  0  0  0
  144.2646  144.7244  152.7104 H   0  0  0  0  0  0  0  0  0  0  0  0
  145.0468  145.7099  153.9463 H   0  0  0  0  0  0  0  0  0  0  0  0
  145.1115  143.7221  155.4823 H   0  0  0  0  0  0  0  0  0  0  0  0
  144.3271  142.7477  154.2613 H   0  0  0  0  0  0  0  0  0  0  0  0
  146.2980  143.0869  152.7247 H   0  0  0  0  0  0  0  0  0  0  0  0
  147.0708  144.0768  153.9435 H   0  0  0  0  0  0  0  0  0  0  0  0
  148.5145  143.0935  155.1835 H   0  0  0  0  0  0  0  0  0  0  0  0
  148.2084  140.4789  156.3199 H   0  0  0  0  0  0  0  0  0  0  0  0
  150.1024  139.3721  155.1597 H   0  0  0  0  0  0  0  0  0  0  0  0
  150.2920  140.7645  154.0970 H   0  0  0  0  0  0  0  0  0  0  0  0
  148.8291  139.7853  154.0181 H   0  0  0  0  0  0  0  0  0  0  0  0
  151.4708  145.2071  158.2061 H   0  0  0  0  0  0  0  0  0  0  0  0
  153.2975  144.8322  159.8720 H   0  0  0  0  0  0  0  0  0  0  0  0
  154.0174  142.5496  160.4723 H   0  0  0  0  0  0  0  0  0  0  0  0
  152.9528  140.5512  159.4406 H   0  0  0  0  0  0  0  0  0  0  0  0
  150.7494  139.1672  158.5886 H   0  0  0  0  0  0  0  0  0  0  0  0
  150.2859  138.9520  156.9273 H   0  0  0  0  0  0  0  0  0  0  0  0
  153.1376  139.4777  157.9460 H   0  0  0  0  0  0  0  0  0  0  0  0
  152.3659  137.1271  158.3308 H   0  0  0  0  0  0  0  0  0  0  0  0
  153.6391  137.1927  157.1183 H   0  0  0  0  0  0  0  0  0  0  0  0
  151.9618  136.9768  156.6222 H   0  0  0  0  0  0  0  0  0  0  0  0
  152.9514  138.6605  155.4130 H   0  0  0  0  0  0  0  0  0  0  0  0
  149.6759  143.7116  156.5211 H   0  0  0  0  0  0  0  0  0  0  0  0
  1  2  1  0  0  0  0
  1 22  1  0  0  0  0
  1 23  1  0  0  0  0
  1 24  1  0  0  0  0
  2  3  1  0  0  0  0
  2 25  1  0  0  0  0
  2 26  1  0  0  0  0
  3  4  1  0  0  0  0
  3 27  1  0  0  0  0
  3 28  1  0  0  0  0
  4  5  2  0  0  0  0
  4  6  1  0  0  0  0
  6  7  1  0  0  0  0
  6 29  1  0  0  0  0
  7  8  1  0  0  0  0
  7  9  1  0  0  0  0
  7 30  1  0  0  0  0
  8 31  1  0  0  0  0
  8 32  1  0  0  0  0
  8 33  1  0  0  0  0
  9 17  1  0  0  0  0
  9 10  2  0  0  0  0
 10 11  1  0  0  0  0
 10 45  1  0  0  0  0
 11 16  2  0  0  0  0
 11 12  1  0  0  0  0
 12 13  2  0  0  0  0
 12 34  1  0  0  0  0
 13 14  1  0  0  0  0
 13 35  1  0  0  0  0
 14 15  2  0  0  0  0
 14 36  1  0  0  0  0
 15 16  1  0  0  0  0
 15 37  1  0  0  0  0
 16 17  1  0  0  0  0
 17 18  1  0  0  0  0
 18 19  1  0  0  0  0
 18 38  1  0  0  0  0
 18 39  1  0  0  0  0
 19 20  1  0  0  0  0
 19 21  1  0  0  0  0
 19 40  1  0  0  0  0
 20 41  1  0  0  0  0
 20 42  1  0  0  0  0
 20 43  1  0  0  0  0
 21 44  1  0  0  0  0
M  CHG  1  10   1
M  END
> <s_m_source_file>
AV-unprocessed.smi

> <i_m_source_file_index>
1856

> <i_lp_mmshare_version>
43012

> <i_f3d_flags>
0

> <s_epik_input>
W0NIM11bQ0gyXVtDSDJdQyg9TylbTkhdW0NASF0oW0NIM10pYyhuMSluKFtDSDJdW0NASF0oW0NIM10pW09IXSljKGMxMilbY0hdW2NIXVtjSF1bY0hdMg==

> <s_epik_cmdline>
J2VwaWtfcHl0aG9uJywgJy1waCcsICc3LjAnLCAnLXRuJywgJzgnLCAnLW1hJywgJzIwMCcsICctbWV0YWxfYmluZGluZycsICctaW1hZScsICc8aW5maWxlLm1hZT4nLCAnLW9tYWUnLCAnPG91dGZpbGUubWFlPic=

> <r_epik_Ionization_Penalty>
0.945588

> <r_epik_Ionization_Penalty_Charging>
0.945588

> <r_epik_Ionization_Penalty_Neutral>
8.64698e-08

> <r_epik_State_Penalty>
0.989378

> <r_epik_Charging_Adjusted_Penalty>
1.93497

> <i_epik_Tot_Q>
1

> <i_epik_Tot_abs_Q>
1

> <r_epik_Metal_State_Penalty>
1.10045

> <b_epik_Metal_Only>
0

> <s_lp_Force_Field>
OPLS_2005

> <r_lp_Energy>
6.75026

> <b_lp_Chiralities_Consistent>
1

> <s_lp_Variant>
AV-unprocessed.smi:1856-8

> <Gold.Version>
5.8.1

> <Gold.Id.Protein>
6NUR|6NUR_protein|mol2

> <Gold.PLP.Fitness>
57.0645

> <Gold.PLP.PLP>
-45.3373

> <Gold.PLP.part.hbond>
-3.0000

> <Gold.PLP.part.metal>
0.0000

> <Gold.PLP.part.buried>
-7.1537

> <Gold.PLP.part.nonpolar>
-36.8060

> <Gold.PLP.part.repulsive>
0.3030

> <Gold.PLP.ligand.clash>
0.0000

> <Gold.PLP.ligand.torsion>
0.1606

> <Gold.PLP.Chemscore.Hbond>
4.0000

> <Gold.PLP.Chemscore.CHOScore>
0.0000

> <Gold.PLP.Chemscore.Metal>
0.0000

> <Gold.Chemscore.Hbonds>
donor molecule, donor type, donor heavy atom, donor atom, acceptor molecule, acceptor atom, score
      L1  H     6    29       P1  8028  1.00
      L1  H    10    45       P1  8028  2.00
      P1  H  7997  8008       L1    21  1.00

> <Gold.PLP.Chemscore.Internal.Correction>
0.0484

> <Gold.Rescore>
     Score         DG    S(hbond)    S(metal)    S(lipo)     H(rot)  DE(clash)    DE(int)     intcor
     20.67     -20.86       2.64        0.00     111.05       2.52       0.06       0.14       ----

> <Gold.Chemscore.Fitness>
20.6695

> <Gold.Chemscore.DG>
-20.8626

> <Gold.Chemscore.ZeroCoef>
-5.4800

> <Gold.Chemscore.Hbond>
2.6441

> <Gold.Chemscore.Metal>
0.0000

> <Gold.Chemscore.Lipo>
111.0459

> <Gold.Chemscore.Internal_Hbond>
0.0000

> <Gold.Chemscore.DEClash>
0.0550

> <Gold.Chemscore.DEInternal>
0.1381

> <Gold.Chemscore.Rot>
2.5161

> <Gold.Chemscore.Internal.Correction>
   9.000000E+99

> <Gold.Chemscore.Hbonds>
donor molecule, donor type, donor heavy atom, donor atom, acceptor molecule, acceptor atom, score
      L1  H     6    29       P1  8028  1.00
      L1  H    10    45       P1  8028  0.93
      P1  H  7997  8008       L1    21  0.28

> <Gold.Chemscore.Hbond.Weighted>
-8.8314

> <Gold.Chemscore.Metal.Weighted>
-0.0000

> <Gold.Chemscore.Lipo.Weighted>
-12.9924

> <Gold.Chemscore.Internal_Hbond.Weighted>
0.0000

> <Gold.Chemscore.DEClash.Weighted>
0.0550

> <Gold.Chemscore.DEInternal.Weighted>
0.1381

> <Gold.Chemscore.Rot.Weighted>
6.4412

> <Gold.Chemscore.Internal.Correction.Weighted>
   9.000000E+99

> <Gold.Protein.RotatedTorsions>
[ 6907 6896 6895 6894 ] final   65.17 input  -60.11 | X-H torsion
[ 7974 7965 7964 7962 ] final  110.25 input  175.53 | X-H torsion
[ 8008 7997 7996 7995 ] final  -23.05 input   59.86 | X-H torsion
[ 10167 10162 10161 10158 ] final   13.68 input  -65.29 | X-H torsion
[ 10718 10713 10712 10709 ] final    4.37 input   66.30 | X-H torsion
[ 10763 10752 10751 10750 ] final  -99.02 input  -60.55 | X-H torsion
[ 11005 11000 10999 10996 ] final   71.33 input  -57.11 | X-H torsion

> <Gold.Protein.ActiveResidues>
 VAL166  LYS551  ARG553  GLY616  TRP617  ASP618  TYR619  PRO620  LYS621  CYS622 
 ASP623  PHE694  ASN695  SER759  ASP760  ASP761  ALA762  ILE779  LEU786  VAL792 
 PHE793  MET794  SER795  GLU796  ALA797  LYS798  CYS799  TRP800  GLU811  SER814 

> <Gold.Protein.RotatedAtoms>
  152.4387  134.5634  159.9900 H   0  0  0  0  0  0  0  0  0  0  0  0  # atno 6907 bound_to 6896
  151.5737  133.3381  159.3002 H   0  0  0  0  0  0  0  0  0  0  0  0  # atno 6908 bound_to 6896
  150.8290  134.7568  159.6901 H   0  0  0  0  0  0  0  0  0  0  0  0  # atno 6909 bound_to 6896
  145.2573  139.2716  143.4035 H   0  0  0  0  0  0  0  0  0  0  0  0  # atno 7974 bound_to 7965
  154.4608  140.1991  156.0250 H   0  0  0  0  0  0  0  0  0  0  0  0  # atno 8008 bound_to 7997
  156.0836  140.3268  155.7696 H   0  0  0  0  0  0  0  0  0  0  0  0  # atno 8009 bound_to 7997
  155.5072  140.0558  157.2920 H   0  0  0  0  0  0  0  0  0  0  0  0  # atno 8010 bound_to 7997
  140.5986  143.8650  150.6943 H   0  0  0  0  0  0  0  0  0  0  0  0  # atno 10167 bound_to 10162
  156.8916  130.5689  149.5650 H   0  0  0  0  0  0  0  0  0  0  0  0  # atno 10718 bound_to 10713
  154.7463  135.4988  153.9210 H   0  0  0  0  0  0  0  0  0  0  0  0  # atno 10763 bound_to 10752
  153.1095  135.6706  153.9533 H   0  0  0  0  0  0  0  0  0  0  0  0  # atno 10764 bound_to 10752
  153.9296  135.3079  155.3425 H   0  0  0  0  0  0  0  0  0  0  0  0  # atno 10765 bound_to 10752
  139.9549  134.7161  156.0776 H   0  0  0  0  0  0  0  0  0  0  0  0  # atno 11005 bound_to 11000
  146.3285  140.2981  142.8619 LP  0  0  0  0  0  0  0  0  0  0  0  0  # atno 17320 bound_to 7965
  144.9449  140.8118  143.5607 LP  0  0  0  0  0  0  0  0  0  0  0  0  # atno 17321 bound_to 7965
  140.2191  143.3823  152.1657 LP  0  0  0  0  0  0  0  0  0  0  0  0  # atno 17342 bound_to 10162
  139.5275  144.7120  151.5175 LP  0  0  0  0  0  0  0  0  0  0  0  0  # atno 17343 bound_to 10162
  156.0626  130.5676  150.9224 LP  0  0  0  0  0  0  0  0  0  0  0  0  # atno 17370 bound_to 10713
  157.6080  131.0938  150.8844 LP  0  0  0  0  0  0  0  0  0  0  0  0  # atno 17371 bound_to 10713
  141.1219  133.6610  156.3236 LP  0  0  0  0  0  0  0  0  0  0  0  0  # atno 17394 bound_to 11000
  140.5632  134.5914  157.5439 LP  0  0  0  0  0  0  0  0  0  0  0  0  # atno 17395 bound_to 11000

$$$$
