AV-unprocessed.smi:21|AV-procd|sdf|127|dock8
  -GOLD-   2262015313D 1   1.00000     0.00000
 Structure written by MMmdl.
 62 65  0  0  0  0  0  0  0  0  2 V2000
  148.9579  132.6635  154.5545 C   0  0  0  0  0  0  0  0  0  0  0  0
  148.5016  133.1372  153.2975 O   0  0  0  0  0  0  0  0  0  0  0  0
  147.1006  132.9920  153.1038 C   0  0  1  0  0  0  0  0  0  0  0  0
  146.3707  133.9176  154.0687 C   0  0  0  0  0  0  0  0  0  0  0  0
  146.4161  135.2920  153.3862 C   0  0  2  0  0  0  0  0  0  0  0  0
  145.2511  136.2270  153.8025 C   0  0  0  0  0  0  0  0  0  0  0  0
  145.5831  137.0845  154.9402 N   0  0  0  0  0  0  0  0  0  0  0  0
  145.2884  136.5868  156.2836 C   0  0  0  0  0  0  0  0  0  0  0  0
  146.4414  138.1390  154.7990 C   0  0  0  0  0  0  0  0  0  0  0  0
  146.6821  138.6062  153.5432 N   0  0  0  0  0  0  0  0  0  0  0  0
  147.4975  139.6426  153.3361 C   0  0  0  0  0  0  0  0  0  0  0  0
  148.1740  140.3599  154.2315 N   0  0  0  0  0  0  0  0  0  0  0  0
  147.9516  139.9023  155.4953 C   0  0  0  0  0  0  0  0  0  0  0  0
  147.1162  138.8083  155.8694 C   0  0  0  0  0  0  0  0  0  0  0  0
  147.1645  138.6518  157.2527 N   0  0  0  0  0  0  0  0  0  0  0  0
  147.9663  139.5936  157.6662 C   0  0  0  0  0  0  0  0  0  0  0  0
  148.4744  140.3988  156.6754 N   0  0  0  0  0  0  0  0  0  0  0  0
  149.3781  141.5227  156.8403 C   0  0  0  0  0  0  0  0  0  0  0  0
  150.6127  141.2092  157.7275 C   0  0  1  0  0  0  0  0  0  0  0  0
  151.7638  140.5526  156.9225 C   0  0  0  0  0  0  0  0  0  0  0  0
  151.3366  139.4052  156.2168 O   0  0  0  0  0  0  0  0  0  0  0  0
  151.0950  142.4945  158.4507 C   0  0  2  0  0  0  0  0  0  0  0  0
  151.5723  143.6106  157.5348 C   0  0  0  0  0  0  0  0  0  0  0  0
  152.3983  144.4805  158.4757 C   0  0  0  0  0  0  0  0  0  0  0  0
  152.9510  143.5918  159.4387 O   0  0  0  0  0  0  0  0  0  0  0  0
  152.3459  142.3088  159.3190 C   0  0  0  0  0  0  0  0  0  0  0  0
  146.5373  135.0146  151.9251 N   0  3  2  0  0  0  0  0  0  0  0  0
  145.5419  135.6294  151.0161 C   0  0  0  0  0  0  0  0  0  0  0  0
  146.6746  133.5519  151.7439 C   0  0  0  0  0  0  0  0  0  0  0  0
  146.7930  131.9545  153.2472 H   0  0  0  0  0  0  0  0  0  0  0  0
  147.3621  135.7619  153.6563 H   0  0  0  0  0  0  0  0  0  0  0  0
  150.0378  132.7937  154.6213 H   0  0  0  0  0  0  0  0  0  0  0  0
  148.7403  131.6045  154.6937 H   0  0  0  0  0  0  0  0  0  0  0  0
  148.5031  133.2233  155.3727 H   0  0  0  0  0  0  0  0  0  0  0  0
  145.3364  133.5851  154.1676 H   0  0  0  0  0  0  0  0  0  0  0  0
  146.8118  133.9248  155.0662 H   0  0  0  0  0  0  0  0  0  0  0  0
  144.9167  136.8520  152.9776 H   0  0  0  0  0  0  0  0  0  0  0  0
  144.3815  135.6235  154.0640 H   0  0  0  0  0  0  0  0  0  0  0  0
  144.8820  137.3824  156.9092 H   0  0  0  0  0  0  0  0  0  0  0  0
  146.1900  136.1984  156.7587 H   0  0  0  0  0  0  0  0  0  0  0  0
  144.5524  135.7831  156.2584 H   0  0  0  0  0  0  0  0  0  0  0  0
  147.6236  139.9405  152.3056 H   0  0  0  0  0  0  0  0  0  0  0  0
  148.2023  139.7338  158.7111 H   0  0  0  0  0  0  0  0  0  0  0  0
  149.7005  141.8577  155.8537 H   0  0  0  0  0  0  0  0  0  0  0  0
  148.7927  142.3383  157.2643 H   0  0  0  0  0  0  0  0  0  0  0  0
  150.3046  140.5055  158.5026 H   0  0  0  0  0  0  0  0  0  0  0  0
  152.2070  141.2660  156.2271 H   0  0  0  0  0  0  0  0  0  0  0  0
  152.5649  140.2188  157.5794 H   0  0  0  0  0  0  0  0  0  0  0  0
  150.8629  139.6857  155.4485 H   0  0  0  0  0  0  0  0  0  0  0  0
  150.2911  142.8817  159.0789 H   0  0  0  0  0  0  0  0  0  0  0  0
  152.2074  143.2091  156.7435 H   0  0  0  0  0  0  0  0  0  0  0  0
  150.7616  144.1720  157.0705 H   0  0  0  0  0  0  0  0  0  0  0  0
  153.1763  145.0371  157.9528 H   0  0  0  0  0  0  0  0  0  0  0  0
  151.7582  145.1965  158.9927 H   0  0  0  0  0  0  0  0  0  0  0  0
  152.1161  141.8984  160.3025 H   0  0  0  0  0  0  0  0  0  0  0  0
  153.0582  141.6407  158.8327 H   0  0  0  0  0  0  0  0  0  0  0  0
  144.5287  135.2984  151.2480 H   0  0  0  0  0  0  0  0  0  0  0  0
  145.7571  135.3507  149.9843 H   0  0  0  0  0  0  0  0  0  0  0  0
  145.5808  136.7174  151.0702 H   0  0  0  0  0  0  0  0  0  0  0  0
  147.3626  133.3119  150.9341 H   0  0  0  0  0  0  0  0  0  0  0  0
  145.7028  133.1302  151.4819 H   0  0  0  0  0  0  0  0  0  0  0  0
  147.4301  135.4071  151.6619 H   0  0  0  0  0  0  0  0  0  0  0  0
  1  2  1  0  0  0  0
  1 32  1  0  0  0  0
  1 33  1  0  0  0  0
  1 34  1  0  0  0  0
  2  3  1  0  0  0  0
  3 30  1  0  0  0  0
  3 29  1  0  0  0  0
  3  4  1  0  0  0  0
  4  5  1  0  0  0  0
  4 35  1  0  0  0  0
  4 36  1  0  0  0  0
  5 31  1  0  0  0  0
  5  6  1  0  0  0  0
  5 27  1  0  0  0  0
  6  7  1  0  0  0  0
  6 37  1  0  0  0  0
  6 38  1  0  0  0  0
  7  8  1  0  0  0  0
  7  9  1  0  0  0  0
  8 39  1  0  0  0  0
  8 40  1  0  0  0  0
  8 41  1  0  0  0  0
  9 14  1  0  0  0  0
  9 10  2  0  0  0  0
 10 11  1  0  0  0  0
 11 12  2  0  0  0  0
 11 42  1  0  0  0  0
 12 13  1  0  0  0  0
 13 17  1  0  0  0  0
 13 14  2  0  0  0  0
 14 15  1  0  0  0  0
 15 16  2  0  0  0  0
 16 17  1  0  0  0  0
 16 43  1  0  0  0  0
 17 18  1  0  0  0  0
 18 19  1  0  0  0  0
 18 44  1  0  0  0  0
 18 45  1  0  0  0  0
 19 20  1  0  0  0  0
 19 22  1  0  0  0  0
 19 46  1  0  0  0  0
 20 21  1  0  0  0  0
 20 47  1  0  0  0  0
 20 48  1  0  0  0  0
 21 49  1  0  0  0  0
 22 26  1  0  0  0  0
 22 23  1  0  0  0  0
 22 50  1  0  0  0  0
 23 24  1  0  0  0  0
 23 51  1  0  0  0  0
 23 52  1  0  0  0  0
 24 25  1  0  0  0  0
 24 53  1  0  0  0  0
 24 54  1  0  0  0  0
 25 26  1  0  0  0  0
 26 55  1  0  0  0  0
 26 56  1  0  0  0  0
 27 28  1  0  0  0  0
 27 29  1  0  0  0  0
 27 62  1  0  0  0  0
 28 57  1  0  0  0  0
 28 58  1  0  0  0  0
 28 59  1  0  0  0  0
 29 60  1  0  0  0  0
 29 61  1  0  0  0  0
M  CHG  1  27   1
M  END
> <s_m_source_file>
AV-unprocessed.smi

> <i_m_source_file_index>
21

> <i_lp_mmshare_version>
43012

> <i_f3d_flags>
0

> <s_epik_input>
W0NIM11PW0NASF0xW0NIMl1bQ0BIXShOKFtDSDNdKVtDSDJdMSlbQ0gyXU4oW0NIM10pYyhuW2NIXW4yKWMoYzIzKW5bY0hdbjNbQ0gyXVtDQEhdKFtDSDJdW09IXSlbQ0BASF00W0NIMl1bQ0gyXU9bQ0gyXTQ=

> <s_epik_cmdline>
J2VwaWtfcHl0aG9uJywgJy1waCcsICc3LjAnLCAnLXRuJywgJzgnLCAnLW1hJywgJzIwMCcsICctbWV0YWxfYmluZGluZycsICctaW1hZScsICc8aW5maWxlLm1hZT4nLCAnLW9tYWUnLCAnPG91dGZpbGUubWFlPic=

> <r_lp_tautomer_probability>
1

> <r_epik_Ionization_Penalty>
0.0157465

> <r_epik_Ionization_Penalty_Charging>
0.015354

> <r_epik_Ionization_Penalty_Neutral>
0.000392529

> <r_epik_State_Penalty>
0.0120612

> <r_epik_Charging_Adjusted_Penalty>
0.0274152

> <i_epik_Tot_Q>
1

> <i_epik_Tot_abs_Q>
1

> <r_epik_Metal_State_Penalty>
0.0121253

> <b_epik_Metal_Only>
0

> <s_lp_Force_Field>
OPLS_2005

> <r_lp_Energy>
61.4457

> <b_lp_Chiralities_Consistent>
1

> <s_lp_Variant>
AV-unprocessed.smi:21-7

> <Gold.Version>
5.8.1

> <Gold.Id.Protein>
6NUR|6NUR_protein|mol2

> <Gold.PLP.Fitness>
43.0861

> <Gold.PLP.PLP>
-36.5232

> <Gold.PLP.part.hbond>
-1.0000

> <Gold.PLP.part.metal>
0.0000

> <Gold.PLP.part.buried>
-6.2832

> <Gold.PLP.part.nonpolar>
-29.6767

> <Gold.PLP.part.repulsive>
0.5957

> <Gold.PLP.ligand.clash>
0.0000

> <Gold.PLP.ligand.torsion>
1.2383

> <Gold.PLP.Chemscore.Hbond>
2.0000

> <Gold.PLP.Chemscore.CHOScore>
0.7746

> <Gold.PLP.Chemscore.Metal>
0.0000

> <Gold.Chemscore.Hbonds>
donor molecule, donor type, donor heavy atom, donor atom, acceptor molecule, acceptor atom, score
      L1  H    27    62       P1  7948  2.00
      L1  C    11    42       P1  7957  0.95

> <Gold.PLP.Chemscore.Internal.Correction>
0.7160

> <Gold.Rescore>
     Score         DG    S(hbond)    S(metal)    S(lipo)     H(rot)  DE(clash)    DE(int)     intcor
      8.94     -11.71       0.95        0.00      93.31       3.08       0.12       2.65       ----

> <Gold.Chemscore.Fitness>
8.9418

> <Gold.Chemscore.DG>
-11.7071

> <Gold.Chemscore.ZeroCoef>
-5.4800

> <Gold.Chemscore.Hbond>
0.9535

> <Gold.Chemscore.Metal>
0.0000

> <Gold.Chemscore.Lipo>
93.3054

> <Gold.Chemscore.Internal_Hbond>
0.0000

> <Gold.Chemscore.DEClash>
0.1176

> <Gold.Chemscore.DEInternal>
2.6477

> <Gold.Chemscore.Rot>
3.0758

> <Gold.Chemscore.Internal.Correction>
   9.000000E+99

> <Gold.Chemscore.Hbonds>
donor molecule, donor type, donor heavy atom, donor atom, acceptor molecule, acceptor atom, score
      L1  H    27    62       P1  7948  0.95

> <Gold.Chemscore.Hbond.Weighted>
-3.1846

> <Gold.Chemscore.Metal.Weighted>
-0.0000

> <Gold.Chemscore.Lipo.Weighted>
-10.9167

> <Gold.Chemscore.Internal_Hbond.Weighted>
0.0000

> <Gold.Chemscore.DEClash.Weighted>
0.1176

> <Gold.Chemscore.DEInternal.Weighted>
2.6477

> <Gold.Chemscore.Rot.Weighted>
7.8741

> <Gold.Chemscore.Internal.Correction.Weighted>
   9.000000E+99

> <Gold.Protein.RotatedTorsions>
[ 6907 6896 6895 6894 ] final  -56.40 input  -60.11 | X-H torsion
[ 7974 7965 7964 7962 ] final  175.44 input  175.53 | X-H torsion
[ 8008 7997 7996 7995 ] final  -45.54 input   59.86 | X-H torsion
[ 10167 10162 10161 10158 ] final -173.26 input  -65.29 | X-H torsion
[ 10718 10713 10712 10709 ] final    3.93 input   66.30 | X-H torsion
[ 10763 10752 10751 10750 ] final  -30.42 input  -60.55 | X-H torsion
[ 11005 11000 10999 10996 ] final -108.24 input  -57.11 | X-H torsion

> <Gold.Protein.ActiveResidues>
 VAL166  LYS551  ARG553  GLY616  TRP617  ASP618  TYR619  PRO620  LYS621  CYS622 
 ASP623  PHE694  ASN695  SER759  ASP760  ASP761  ALA762  ILE779  LEU786  VAL792 
 PHE793  MET794  SER795  GLU796  ALA797  LYS798  CYS799  TRP800  GLU811  SER814 

> <Gold.Protein.RotatedAtoms>
  150.8171  134.7358  159.6738 H   0  0  0  0  0  0  0  0  0  0  0  0  # atno 6907 bound_to 6896
  152.4289  134.5813  159.9958 H   0  0  0  0  0  0  0  0  0  0  0  0  # atno 6908 bound_to 6896
  151.6007  133.3319  159.3083 H   0  0  0  0  0  0  0  0  0  0  0  0  # atno 6909 bound_to 6896
  144.7202  139.9947  143.6440 H   0  0  0  0  0  0  0  0  0  0  0  0  # atno 7974 bound_to 7965
  154.4001  140.1394  156.3864 H   0  0  0  0  0  0  0  0  0  0  0  0  # atno 8008 bound_to 7997
  155.7955  140.3477  155.5352 H   0  0  0  0  0  0  0  0  0  0  0  0  # atno 8009 bound_to 7997
  155.8536  140.0945  157.1649 H   0  0  0  0  0  0  0  0  0  0  0  0  # atno 8010 bound_to 7997
  139.5698  144.1668  152.1367 H   0  0  0  0  0  0  0  0  0  0  0  0  # atno 10167 bound_to 10162
  156.8850  130.5667  149.5651 H   0  0  0  0  0  0  0  0  0  0  0  0  # atno 10718 bound_to 10713
  153.7806  135.6905  153.4889 H   0  0  0  0  0  0  0  0  0  0  0  0  # atno 10763 bound_to 10752
  153.1814  135.4505  155.0031 H   0  0  0  0  0  0  0  0  0  0  0  0  # atno 10764 bound_to 10752
  154.8083  135.3366  154.7309 H   0  0  0  0  0  0  0  0  0  0  0  0  # atno 10765 bound_to 10752
  141.0912  133.9051  157.2070 H   0  0  0  0  0  0  0  0  0  0  0  0  # atno 11005 bound_to 11000
  146.0384  139.3398  143.0712 LP  0  0  0  0  0  0  0  0  0  0  0  0  # atno 17320 bound_to 7965
  145.8366  140.9603  143.0821 LP  0  0  0  0  0  0  0  0  0  0  0  0  # atno 17321 bound_to 7965
  140.1198  144.5383  150.6870 LP  0  0  0  0  0  0  0  0  0  0  0  0  # atno 17342 bound_to 10162
  140.6983  143.2418  151.4939 LP  0  0  0  0  0  0  0  0  0  0  0  0  # atno 17343 bound_to 10162
  156.0658  130.5701  150.9284 LP  0  0  0  0  0  0  0  0  0  0  0  0  # atno 17370 bound_to 10713
  157.6117  131.0936  150.8782 LP  0  0  0  0  0  0  0  0  0  0  0  0  # atno 17371 bound_to 10713
  139.9739  135.0120  156.9581 LP  0  0  0  0  0  0  0  0  0  0  0  0  # atno 17394 bound_to 11000
  140.5247  134.0872  155.7300 LP  0  0  0  0  0  0  0  0  0  0  0  0  # atno 17395 bound_to 11000

$$$$
