AV-unprocessed.smi:1774|AV-procd|sdf|7167|dock4
  -GOLD-   22720 8403D 1   1.00000     0.00000
 Structure written by MMmdl.
 46 47  0  0  0  0  0  0  0  0  2 V2000
  151.0052  142.6385  158.7153 C   0  0  0  0  0  0  0  0  0  0  0  0
  152.0601  141.6798  159.2435 C   0  0  0  0  0  0  0  0  0  0  0  0
  152.8777  142.0792  160.3220 C   0  0  0  0  0  0  0  0  0  0  0  0
  153.8503  141.1905  160.8111 C   0  0  0  0  0  0  0  0  0  0  0  0
  153.9638  139.9314  160.1975 C   0  0  0  0  0  0  0  0  0  0  0  0
  153.1869  139.5414  159.1666 N   0  0  0  0  0  0  0  0  0  0  0  0
  152.2428  140.3872  158.6827 C   0  0  0  0  0  0  0  0  0  0  0  0
  151.3914  140.0442  157.5944 N   0  0  0  0  0  0  0  0  0  0  0  0
  151.7190  139.4564  156.4300 C   0  0  0  0  0  0  0  0  0  0  0  0
  152.8479  139.0832  156.1097 O   0  0  0  0  0  0  0  0  0  0  0  0
  150.6460  139.3125  155.6385 N   0  0  0  0  0  0  0  0  0  0  0  0
  150.6584  138.6805  154.3240 C   0  0  0  0  0  0  0  0  0  0  0  0
  151.1052  137.2071  154.4012 C   0  0  0  0  0  0  0  0  0  0  0  0
  149.9727  136.2616  154.2396 N   0  3  1  0  0  0  0  0  0  0  0  0
  150.3998  134.8466  154.3497 C   0  0  0  0  0  0  0  0  0  0  0  0
  149.2075  133.9011  154.1099 C   0  0  1  0  0  0  0  0  0  0  0  0
  149.5901  132.4283  154.2903 C   0  0  0  0  0  0  0  0  0  0  0  0
  148.1763  134.2086  155.0414 O   0  0  0  0  0  0  0  0  0  0  0  0
  147.6880  135.5377  154.8978 C   0  0  1  0  0  0  0  0  0  0  0  0
  146.5252  135.7292  155.8778 C   0  0  0  0  0  0  0  0  0  0  0  0
  148.8383  136.5286  155.1584 C   0  0  0  0  0  0  0  0  0  0  0  0
  151.0148  143.5812  159.2635 H   0  0  0  0  0  0  0  0  0  0  0  0
  150.0107  142.2028  158.8155 H   0  0  0  0  0  0  0  0  0  0  0  0
  151.1831  142.8613  157.6628 H   0  0  0  0  0  0  0  0  0  0  0  0
  152.7638  143.0546  160.7718 H   0  0  0  0  0  0  0  0  0  0  0  0
  154.4919  141.4668  161.6345 H   0  0  0  0  0  0  0  0  0  0  0  0
  154.6975  139.2181  160.5425 H   0  0  0  0  0  0  0  0  0  0  0  0
  150.4165  140.2711  157.7232 H   0  0  0  0  0  0  0  0  0  0  0  0
  149.7551  139.6451  155.9778 H   0  0  0  0  0  0  0  0  0  0  0  0
  149.6677  138.7755  153.8794 H   0  0  0  0  0  0  0  0  0  0  0  0
  151.3409  139.2424  153.6858 H   0  0  0  0  0  0  0  0  0  0  0  0
  151.8313  137.0317  153.6059 H   0  0  0  0  0  0  0  0  0  0  0  0
  151.6200  136.9980  155.3402 H   0  0  0  0  0  0  0  0  0  0  0  0
  151.1830  134.6407  153.6190 H   0  0  0  0  0  0  0  0  0  0  0  0
  150.8294  134.6720  155.3379 H   0  0  0  0  0  0  0  0  0  0  0  0
  148.8283  134.0387  153.0957 H   0  0  0  0  0  0  0  0  0  0  0  0
  150.3786  132.1383  153.5955 H   0  0  0  0  0  0  0  0  0  0  0  0
  148.7329  131.7792  154.1092 H   0  0  0  0  0  0  0  0  0  0  0  0
  149.9464  132.2334  155.3021 H   0  0  0  0  0  0  0  0  0  0  0  0
  147.3098  135.6726  153.8826 H   0  0  0  0  0  0  0  0  0  0  0  0
  146.1077  136.7334  155.8009 H   0  0  0  0  0  0  0  0  0  0  0  0
  146.8477  135.5783  156.9084 H   0  0  0  0  0  0  0  0  0  0  0  0
  145.7226  135.0202  155.6730 H   0  0  0  0  0  0  0  0  0  0  0  0
  149.1793  136.4467  156.1920 H   0  0  0  0  0  0  0  0  0  0  0  0
  148.4709  137.5452  155.0239 H   0  0  0  0  0  0  0  0  0  0  0  0
  149.6279  136.3814  153.2980 H   0  0  0  0  0  0  0  0  0  0  0  0
  1  2  1  0  0  0  0
  1 22  1  0  0  0  0
  1 23  1  0  0  0  0
  1 24  1  0  0  0  0
  2  7  1  0  0  0  0
  2  3  2  0  0  0  0
  3  4  1  0  0  0  0
  3 25  1  0  0  0  0
  4  5  2  0  0  0  0
  4 26  1  0  0  0  0
  5  6  1  0  0  0  0
  5 27  1  0  0  0  0
  6  7  2  0  0  0  0
  7  8  1  0  0  0  0
  8  9  1  0  0  0  0
  8 28  1  0  0  0  0
  9 10  2  0  0  0  0
  9 11  1  0  0  0  0
 11 12  1  0  0  0  0
 11 29  1  0  0  0  0
 12 13  1  0  0  0  0
 12 30  1  0  0  0  0
 12 31  1  0  0  0  0
 13 14  1  0  0  0  0
 13 32  1  0  0  0  0
 13 33  1  0  0  0  0
 14 21  1  0  0  0  0
 14 15  1  0  0  0  0
 14 46  1  0  0  0  0
 15 16  1  0  0  0  0
 15 34  1  0  0  0  0
 15 35  1  0  0  0  0
 16 17  1  0  0  0  0
 16 18  1  0  0  0  0
 16 36  1  0  0  0  0
 17 37  1  0  0  0  0
 17 38  1  0  0  0  0
 17 39  1  0  0  0  0
 18 19  1  0  0  0  0
 19 20  1  0  0  0  0
 19 21  1  0  0  0  0
 19 40  1  0  0  0  0
 20 41  1  0  0  0  0
 20 42  1  0  0  0  0
 20 43  1  0  0  0  0
 21 44  1  0  0  0  0
 21 45  1  0  0  0  0
M  CHG  1  14   1
M  END
> <s_m_source_file>
AV-unprocessed.smi

> <i_m_source_file_index>
1774

> <i_lp_mmshare_version>
43012

> <i_f3d_flags>
0

> <s_epik_input>
W0NIM11jMVtjSF1bY0hdW2NIXW5jMVtOSF1DKD1PKVtOSF1bQ0gyXVtDSDJdTjJbQ0gyXVtDQEBIXShbQ0gzXSlPW0NAQEhdKFtDSDNdKVtDSDJdMg==

> <s_epik_cmdline>
J2VwaWtfcHl0aG9uJywgJy1waCcsICc3LjAnLCAnLXRuJywgJzgnLCAnLW1hJywgJzIwMCcsICctbWV0YWxfYmluZGluZycsICctaW1hZScsICc8aW5maWxlLm1hZT4nLCAnLW9tYWUnLCAnPG91dGZpbGUubWFlPic=

> <r_epik_Ionization_Penalty>
0.602573

> <r_epik_Ionization_Penalty_Charging>
0.602531

> <r_epik_Ionization_Penalty_Neutral>
4.21996e-05

> <r_epik_State_Penalty>
0.617039

> <r_epik_Charging_Adjusted_Penalty>
1.21957

> <i_epik_Tot_Q>
1

> <i_epik_Tot_abs_Q>
1

> <r_epik_Metal_State_Penalty>
0.617042

> <b_epik_Metal_Only>
0

> <s_lp_Force_Field>
OPLS_2005

> <r_lp_Energy>
15.6229

> <b_lp_Chiralities_Consistent>
1

> <s_lp_Variant>
AV-unprocessed.smi:1774-4

> <Gold.Version>
5.8.1

> <Gold.Id.Protein>
6NUR|6NUR_protein|mol2

> <Gold.PLP.Fitness>
44.6281

> <Gold.PLP.PLP>
-37.0212

> <Gold.PLP.part.hbond>
-2.3255

> <Gold.PLP.part.metal>
0.0000

> <Gold.PLP.part.buried>
-4.8662

> <Gold.PLP.part.nonpolar>
-30.1093

> <Gold.PLP.part.repulsive>
0.2507

> <Gold.PLP.ligand.clash>
0.0000

> <Gold.PLP.ligand.torsion>
0.7120

> <Gold.PLP.Chemscore.Hbond>
3.0000

> <Gold.PLP.Chemscore.CHOScore>
0.0000

> <Gold.PLP.Chemscore.Metal>
0.0000

> <Gold.Chemscore.Hbonds>
donor molecule, donor type, donor heavy atom, donor atom, acceptor molecule, acceptor atom, score
      L1  H    14    46       P1  7948  2.00
      P1  H  7997  8009       L1    10  1.00

> <Gold.PLP.Chemscore.Internal.Correction>
0.0308

> <Gold.Rescore>
     Score         DG    S(hbond)    S(metal)    S(lipo)     H(rot)  DE(clash)    DE(int)     intcor
     17.47     -18.30       1.96        0.00      86.25       1.49       0.02       0.80       ----

> <Gold.Chemscore.Fitness>
17.4717

> <Gold.Chemscore.DG>
-18.2985

> <Gold.Chemscore.ZeroCoef>
-5.4800

> <Gold.Chemscore.Hbond>
1.9620

> <Gold.Chemscore.Metal>
0.0000

> <Gold.Chemscore.Lipo>
86.2523

> <Gold.Chemscore.Internal_Hbond>
0.0000

> <Gold.Chemscore.DEClash>
0.0222

> <Gold.Chemscore.DEInternal>
0.8046

> <Gold.Chemscore.Rot>
1.4946

> <Gold.Chemscore.Internal.Correction>
   9.000000E+99

> <Gold.Chemscore.Hbonds>
donor molecule, donor type, donor heavy atom, donor atom, acceptor molecule, acceptor atom, score
      L1  H    14    46       P1  7948  0.33
      P1  H  7997  8009       L1    10  1.00

> <Gold.Chemscore.Hbond.Weighted>
-6.5531

> <Gold.Chemscore.Metal.Weighted>
-0.0000

> <Gold.Chemscore.Lipo.Weighted>
-10.0915

> <Gold.Chemscore.Internal_Hbond.Weighted>
0.0000

> <Gold.Chemscore.DEClash.Weighted>
0.0222

> <Gold.Chemscore.DEInternal.Weighted>
0.8046

> <Gold.Chemscore.Rot.Weighted>
3.8261

> <Gold.Chemscore.Internal.Correction.Weighted>
   9.000000E+99

> <Gold.Protein.RotatedTorsions>
[ 6907 6896 6895 6894 ] final  -56.88 input  -60.11 | X-H torsion
[ 7974 7965 7964 7962 ] final  168.41 input  175.53 | X-H torsion
[ 8008 7997 7996 7995 ] final -159.63 input   59.86 | X-H torsion
[ 10167 10162 10161 10158 ] final  -83.68 input  -65.29 | X-H torsion
[ 10718 10713 10712 10709 ] final -119.34 input   66.30 | X-H torsion
[ 10763 10752 10751 10750 ] final  -80.21 input  -60.55 | X-H torsion
[ 11005 11000 10999 10996 ] final  -44.03 input  -57.11 | X-H torsion

> <Gold.Protein.ActiveResidues>
 VAL166  LYS551  ARG553  GLY616  TRP617  ASP618  TYR619  PRO620  LYS621  CYS622 
 ASP623  PHE694  ASN695  SER759  ASP760  ASP761  ALA762  ILE779  LEU786  VAL792 
 PHE793  MET794  SER795  GLU796  ALA797  LYS798  CYS799  TRP800  GLU811  SER814 

> <Gold.Protein.RotatedAtoms>
  150.8131  134.7298  159.6705 H   0  0  0  0  0  0  0  0  0  0  0  0  # atno 6907 bound_to 6896
  152.4251  134.5880  159.9976 H   0  0  0  0  0  0  0  0  0  0  0  0  # atno 6908 bound_to 6896
  151.6085  133.3312  159.3098 H   0  0  0  0  0  0  0  0  0  0  0  0  # atno 6909 bound_to 6896
  144.7390  139.8903  143.6402 H   0  0  0  0  0  0  0  0  0  0  0  0  # atno 7974 bound_to 7965
  155.7655  140.0845  157.2134 H   0  0  0  0  0  0  0  0  0  0  0  0  # atno 8008 bound_to 7997
  154.4000  140.1535  156.2938 H   0  0  0  0  0  0  0  0  0  0  0  0  # atno 8009 bound_to 7997
  155.8798  140.3421  155.5882 H   0  0  0  0  0  0  0  0  0  0  0  0  # atno 8010 bound_to 7997
  140.4204  143.2587  151.8897 H   0  0  0  0  0  0  0  0  0  0  0  0  # atno 10167 bound_to 10162
  156.1174  130.6296  150.9405 H   0  0  0  0  0  0  0  0  0  0  0  0  # atno 10718 bound_to 10713
  154.5484  135.5669  153.6900 H   0  0  0  0  0  0  0  0  0  0  0  0  # atno 10763 bound_to 10752
  152.9982  135.6245  154.2408 H   0  0  0  0  0  0  0  0  0  0  0  0  # atno 10764 bound_to 10752
  154.2341  135.2865  155.2858 H   0  0  0  0  0  0  0  0  0  0  0  0  # atno 10765 bound_to 10752
  141.0423  133.6775  156.2816 H   0  0  0  0  0  0  0  0  0  0  0  0  # atno 11005 bound_to 11000
  146.1147  139.4156  143.0266 LP  0  0  0  0  0  0  0  0  0  0  0  0  # atno 17320 bound_to 7965
  145.7393  141.0014  143.1310 LP  0  0  0  0  0  0  0  0  0  0  0  0  # atno 17321 bound_to 7965
  139.4782  144.5443  151.8481 LP  0  0  0  0  0  0  0  0  0  0  0  0  # atno 17342 bound_to 10162
  140.4540  144.1816  150.5900 LP  0  0  0  0  0  0  0  0  0  0  0  0  # atno 17343 bound_to 10162
  157.6357  131.0916  150.8352 LP  0  0  0  0  0  0  0  0  0  0  0  0  # atno 17370 bound_to 10713
  156.8454  130.5062  149.5317 LP  0  0  0  0  0  0  0  0  0  0  0  0  # atno 17371 bound_to 10713
  140.6211  134.5361  157.5547 LP  0  0  0  0  0  0  0  0  0  0  0  0  # atno 17394 bound_to 11000
  139.9285  134.8009  156.0998 LP  0  0  0  0  0  0  0  0  0  0  0  0  # atno 17395 bound_to 11000

$$$$
