AV-unprocessed.smi:142|AV-procd|sdf|1192|dock7
  -GOLD-   2262018353D 1   1.00000     0.00000
 Structure written by MMmdl.
 52 55  0  0  0  0  0  0  0  0  1 V2000
  153.0810  138.6800  155.0091 C   0  0  0  0  0  0  0  0  0  0  0  0
  151.7488  138.9030  155.7371 C   0  0  1  0  0  0  0  0  0  0  0  0
  151.3987  137.6988  156.4859 N   0  0  0  0  0  0  0  0  0  0  0  0
  151.0014  136.5403  155.9376 C   0  0  0  0  0  0  0  0  0  0  0  0
  150.9824  136.3366  154.7235 O   0  0  0  0  0  0  0  0  0  0  0  0
  150.5407  135.4498  156.9137 C   0  0  0  0  0  0  0  0  0  0  0  0
  150.0770  134.2423  156.1966 N   0  0  0  0  0  0  0  0  0  0  0  0
  150.8523  133.0584  156.2613 C   0  0  0  0  0  0  0  0  0  0  0  0
  151.8809  133.0023  156.9366 O   0  0  0  0  0  0  0  0  0  0  0  0
  150.3551  131.9378  155.4713 C   0  0  0  0  0  0  0  0  0  0  0  0
  151.0324  130.7772  155.4618 F   0  0  0  0  0  0  0  0  0  0  0  0
  149.2278  132.0499  154.7391 C   0  0  0  0  0  0  0  0  0  0  0  0
  148.4694  133.2036  154.6970 N   0  0  0  0  0  0  0  0  0  0  0  0
  147.2620  133.2538  153.7856 C   0  0  1  0  0  0  0  0  0  0  0  0
  147.5984  133.0774  152.2968 C   0  0  0  0  0  0  0  0  0  0  0  0
  146.3990  132.2903  151.8133 C   0  0  0  0  0  0  0  0  0  0  0  0
  146.0762  131.4211  153.0238 C   0  0  0  0  0  0  0  0  0  0  0  0
  146.3702  132.2401  154.1524 O   0  0  0  0  0  0  0  0  0  0  0  0
  148.8967  134.3416  155.4197 C   0  0  0  0  0  0  0  0  0  0  0  0
  148.2682  135.4001  155.3705 O   0  0  0  0  0  0  0  0  0  0  0  0
  151.8093  140.1455  156.6219 C   0  0  0  0  0  0  0  0  0  0  0  0
  151.1162  141.3263  156.2691 C   0  0  0  0  0  0  0  0  0  0  0  0
  151.1896  142.4688  157.0884 C   0  0  0  0  0  0  0  0  0  0  0  0
  151.9518  142.4407  158.2731 C   0  0  0  0  0  0  0  0  0  0  0  0
  152.0310  143.5827  159.0969 C   0  0  0  0  0  0  0  0  0  0  0  0
  152.7937  143.5469  160.2805 C   0  0  0  0  0  0  0  0  0  0  0  0
  153.4786  142.3712  160.6441 C   0  0  0  0  0  0  0  0  0  0  0  0
  153.4031  141.2281  159.8247 C   0  0  0  0  0  0  0  0  0  0  0  0
  152.6412  141.2578  158.6383 C   0  0  0  0  0  0  0  0  0  0  0  0
  152.5647  140.1167  157.8134 C   0  0  0  0  0  0  0  0  0  0  0  0
  153.3374  139.5406  154.3906 H   0  0  0  0  0  0  0  0  0  0  0  0
  153.0312  137.8085  154.3555 H   0  0  0  0  0  0  0  0  0  0  0  0
  153.8982  138.5218  155.7138 H   0  0  0  0  0  0  0  0  0  0  0  0
  150.9794  139.0601  154.9786 H   0  0  0  0  0  0  0  0  0  0  0  0
  151.3897  137.7748  157.4926 H   0  0  0  0  0  0  0  0  0  0  0  0
  151.3630  135.2356  157.5971 H   0  0  0  0  0  0  0  0  0  0  0  0
  149.7483  135.8326  157.5597 H   0  0  0  0  0  0  0  0  0  0  0  0
  148.9096  131.1919  154.1651 H   0  0  0  0  0  0  0  0  0  0  0  0
  146.7789  134.2124  153.9788 H   0  0  0  0  0  0  0  0  0  0  0  0
  147.7112  134.0441  151.8059 H   0  0  0  0  0  0  0  0  0  0  0  0
  148.5150  132.5069  152.1549 H   0  0  0  0  0  0  0  0  0  0  0  0
  145.5677  132.9653  151.6062 H   0  0  0  0  0  0  0  0  0  0  0  0
  146.6018  131.7096  150.9133 H   0  0  0  0  0  0  0  0  0  0  0  0
  145.0381  131.0888  153.0356 H   0  0  0  0  0  0  0  0  0  0  0  0
  146.7109  130.5349  153.0401 H   0  0  0  0  0  0  0  0  0  0  0  0
  150.5254  141.3643  155.3660 H   0  0  0  0  0  0  0  0  0  0  0  0
  150.6587  143.3648  156.8026 H   0  0  0  0  0  0  0  0  0  0  0  0
  151.5086  144.4886  158.8258 H   0  0  0  0  0  0  0  0  0  0  0  0
  152.8536  144.4223  160.9104 H   0  0  0  0  0  0  0  0  0  0  0  0
  154.0627  142.3464  161.5522 H   0  0  0  0  0  0  0  0  0  0  0  0
  153.9327  140.3309  160.1103 H   0  0  0  0  0  0  0  0  0  0  0  0
  153.0931  139.2161  158.0915 H   0  0  0  0  0  0  0  0  0  0  0  0
  1  2  1  0  0  0  0
  1 31  1  0  0  0  0
  1 32  1  0  0  0  0
  1 33  1  0  0  0  0
  2  3  1  0  0  0  0
  2 21  1  0  0  0  0
  2 34  1  0  0  0  0
  3  4  1  0  0  0  0
  3 35  1  0  0  0  0
  4  5  2  0  0  0  0
  4  6  1  0  0  0  0
  6  7  1  0  0  0  0
  6 36  1  0  0  0  0
  6 37  1  0  0  0  0
  7 19  1  0  0  0  0
  7  8  1  0  0  0  0
  8  9  2  0  0  0  0
  8 10  1  0  0  0  0
 10 11  1  0  0  0  0
 10 12  2  0  0  0  0
 12 13  1  0  0  0  0
 12 38  1  0  0  0  0
 13 14  1  0  0  0  0
 13 19  1  0  0  0  0
 14 18  1  0  0  0  0
 14 15  1  0  0  0  0
 14 39  1  0  0  0  0
 15 16  1  0  0  0  0
 15 40  1  0  0  0  0
 15 41  1  0  0  0  0
 16 17  1  0  0  0  0
 16 42  1  0  0  0  0
 16 43  1  0  0  0  0
 17 18  1  0  0  0  0
 17 44  1  0  0  0  0
 17 45  1  0  0  0  0
 19 20  2  0  0  0  0
 21 30  1  0  0  0  0
 21 22  2  0  0  0  0
 22 23  1  0  0  0  0
 22 46  1  0  0  0  0
 23 24  2  0  0  0  0
 23 47  1  0  0  0  0
 24 29  1  0  0  0  0
 24 25  1  0  0  0  0
 25 26  2  0  0  0  0
 25 48  1  0  0  0  0
 26 27  1  0  0  0  0
 26 49  1  0  0  0  0
 27 28  2  0  0  0  0
 27 50  1  0  0  0  0
 28 29  1  0  0  0  0
 28 51  1  0  0  0  0
 29 30  2  0  0  0  0
 30 52  1  0  0  0  0
M  END
> <s_m_source_file>
AV-unprocessed.smi

> <i_m_source_file_index>
142

> <i_lp_mmshare_version>
43012

> <i_f3d_flags>
0

> <s_epik_input>
W2NIXTFbY0hdW2NIXVtjSF1jKGMxMilbY0hdYyhbY0hdW2NIXTIpW0NASF0oW0NIM10pW05IXUMoPU8pW0NIMl1uM2MoPU8pYyhGKVtjSF1uKGMzPU8pW0NAQEhdNFtDSDJdW0NIMl1bQ0gyXU80

> <s_epik_cmdline>
J2VwaWtfcHl0aG9uJywgJy1waCcsICc3LjAnLCAnLXRuJywgJzgnLCAnLW1hJywgJzIwMCcsICctbWV0YWxfYmluZGluZycsICctaW1hZScsICc8aW5maWxlLm1hZT4nLCAnLW9tYWUnLCAnPG91dGZpbGUubWFlPic=

> <r_lp_tautomer_probability>
1

> <r_epik_Ionization_Penalty>
3.35688e-08

> <r_epik_Ionization_Penalty_Charging>
3.59856e-09

> <r_epik_Ionization_Penalty_Neutral>
2.99702e-08

> <r_epik_State_Penalty>
-0

> <r_epik_Charging_Adjusted_Penalty>
3.59856e-09

> <i_epik_Tot_Q>
0

> <i_epik_Tot_abs_Q>
0

> <r_epik_Metal_State_Penalty>
-0

> <b_epik_Metal_Only>
0

> <s_epik_Chemistry_Notes>
This compound contains an acetal/aminal-like group ( X-CH(R)-Y where X, Y are N, S, or O) that may be acid/base labile, releasing an aldehyde.

> <s_lp_Force_Field>
OPLS_2005

> <r_lp_Energy>
24.972

> <b_lp_Chiralities_Consistent>
1

> <s_lp_Variant>
AV-unprocessed.smi:142-4

> <Gold.Version>
5.8.1

> <Gold.Id.Protein>
6NUR|6NUR_protein|mol2

> <Gold.PLP.Fitness>
56.5480

> <Gold.PLP.PLP>
-53.9268

> <Gold.PLP.part.hbond>
-1.5376

> <Gold.PLP.part.metal>
0.0000

> <Gold.PLP.part.buried>
-3.8519

> <Gold.PLP.part.nonpolar>
-50.6164

> <Gold.PLP.part.repulsive>
0.4257

> <Gold.PLP.ligand.clash>
0.0000

> <Gold.PLP.ligand.torsion>
0.4824

> <Gold.PLP.Chemscore.Hbond>
1.1622

> <Gold.PLP.Chemscore.CHOScore>
0.0000

> <Gold.PLP.Chemscore.Metal>
0.0000

> <Gold.Chemscore.Hbonds>
donor molecule, donor type, donor heavy atom, donor atom, acceptor molecule, acceptor atom, score
      P1  H  6896  6907       L1     9  0.18
      P1  H 10752 10764       L1     5  0.83

> <Gold.PLP.Chemscore.Internal.Correction>
0.0993

> <Gold.Rescore>
     Score         DG    S(hbond)    S(metal)    S(lipo)     H(rot)  DE(clash)    DE(int)     intcor
     20.06     -22.12       1.77        0.00     135.87       2.02       0.14       1.91       ----

> <Gold.Chemscore.Fitness>
20.0616

> <Gold.Chemscore.DG>
-22.1172

> <Gold.Chemscore.ZeroCoef>
-5.4800

> <Gold.Chemscore.Hbond>
1.7680

> <Gold.Chemscore.Metal>
0.0000

> <Gold.Chemscore.Lipo>
135.8709

> <Gold.Chemscore.Internal_Hbond>
0.0000

> <Gold.Chemscore.DEClash>
0.1423

> <Gold.Chemscore.DEInternal>
1.9134

> <Gold.Chemscore.Rot>
2.0175

> <Gold.Chemscore.Internal.Correction>
   9.000000E+99

> <Gold.Chemscore.Hbonds>
donor molecule, donor type, donor heavy atom, donor atom, acceptor molecule, acceptor atom, score
      P1  H  6896  6907       L1     9  0.17
      P1  H 10752 10764       L1     5  0.18

> <Gold.Chemscore.Hbond.Weighted>
-5.9052

> <Gold.Chemscore.Metal.Weighted>
-0.0000

> <Gold.Chemscore.Lipo.Weighted>
-15.8969

> <Gold.Chemscore.Internal_Hbond.Weighted>
0.0000

> <Gold.Chemscore.DEClash.Weighted>
0.1423

> <Gold.Chemscore.DEInternal.Weighted>
1.9134

> <Gold.Chemscore.Rot.Weighted>
5.1648

> <Gold.Chemscore.Internal.Correction.Weighted>
   9.000000E+99

> <Gold.Protein.RotatedTorsions>
[ 6907 6896 6895 6894 ] final -170.53 input  -60.11 | X-H torsion
[ 7974 7965 7964 7962 ] final -157.91 input  175.53 | X-H torsion
[ 8008 7997 7996 7995 ] final   30.78 input   59.86 | X-H torsion
[ 10167 10162 10161 10158 ] final  146.32 input  -65.29 | X-H torsion
[ 10718 10713 10712 10709 ] final   15.38 input   66.30 | X-H torsion
[ 10763 10752 10751 10750 ] final  -64.98 input  -60.55 | X-H torsion
[ 11005 11000 10999 10996 ] final   33.09 input  -57.11 | X-H torsion

> <Gold.Protein.ActiveResidues>
 VAL166  LYS551  ARG553  GLY616  TRP617  ASP618  TYR619  PRO620  LYS621  CYS622 
 ASP623  PHE694  ASN695  SER759  ASP760  ASP761  ALA762  ILE779  LEU786  VAL792 
 PHE793  MET794  SER795  GLU796  ALA797  LYS798  CYS799  TRP800  GLU811  SER814 

> <Gold.Protein.RotatedAtoms>
  151.5092  133.3488  159.2881 H   0  0  0  0  0  0  0  0  0  0  0  0  # atno 6907 bound_to 6896
  150.8723  134.8102  159.7175 H   0  0  0  0  0  0  0  0  0  0  0  0  # atno 6908 bound_to 6896
  152.4707  134.4977  159.9767 H   0  0  0  0  0  0  0  0  0  0  0  0  # atno 6909 bound_to 6896
  144.7528  140.3902  143.6035 H   0  0  0  0  0  0  0  0  0  0  0  0  # atno 7974 bound_to 7965
  155.0959  140.3225  155.4560 H   0  0  0  0  0  0  0  0  0  0  0  0  # atno 8008 bound_to 7997
  156.2730  140.2069  156.6033 H   0  0  0  0  0  0  0  0  0  0  0  0  # atno 8009 bound_to 7997
  154.6867  140.0520  157.0308 H   0  0  0  0  0  0  0  0  0  0  0  0  # atno 8010 bound_to 7997
  139.4909  144.5838  151.6819 H   0  0  0  0  0  0  0  0  0  0  0  0  # atno 10167 bound_to 10162
  157.0527  130.6276  149.5771 H   0  0  0  0  0  0  0  0  0  0  0  0  # atno 10718 bound_to 10713
  154.3382  135.6162  153.5583 H   0  0  0  0  0  0  0  0  0  0  0  0  # atno 10763 bound_to 10752
  152.9806  135.5763  154.4883 H   0  0  0  0  0  0  0  0  0  0  0  0  # atno 10764 bound_to 10752
  154.4582  135.2855  155.1709 H   0  0  0  0  0  0  0  0  0  0  0  0  # atno 10765 bound_to 10752
  140.2667  134.3129  155.7840 H   0  0  0  0  0  0  0  0  0  0  0  0  # atno 11005 bound_to 11000
  145.6884  139.1634  143.2660 LP  0  0  0  0  0  0  0  0  0  0  0  0  # atno 17320 bound_to 7965
  146.1500  140.6939  142.9326 LP  0  0  0  0  0  0  0  0  0  0  0  0  # atno 17321 bound_to 7965
  140.5450  144.0518  150.6103 LP  0  0  0  0  0  0  0  0  0  0  0  0  # atno 17342 bound_to 10162
  140.3553  143.2939  152.0443 LP  0  0  0  0  0  0  0  0  0  0  0  0  # atno 17343 bound_to 10162
  156.0002  130.5080  150.7636 LP  0  0  0  0  0  0  0  0  0  0  0  0  # atno 17370 bound_to 10713
  157.5017  131.0919  151.0306 LP  0  0  0  0  0  0  0  0  0  0  0  0  # atno 17371 bound_to 10713
  141.2183  133.7442  156.9271 LP  0  0  0  0  0  0  0  0  0  0  0  0  # atno 17394 bound_to 11000
  140.1412  134.9292  157.2469 LP  0  0  0  0  0  0  0  0  0  0  0  0  # atno 17395 bound_to 11000

$$$$
