AV-unprocessed.smi:1586|AV-procd|sdf|6376|dock9
  -GOLD-   22720 7 03D 1   1.00000     0.00000
 Structure written by MMmdl.
 47 48  0  0  0  0  0  0  0  0  2 V2000
  152.6477  136.1787  157.4292 C   0  0  0  0  0  0  0  0  0  0  0  0
  151.9875  137.2432  156.5410 C   0  0  0  0  0  0  0  0  0  0  0  0
  151.7545  136.7550  155.1796 N   0  0  0  0  0  0  0  0  0  0  0  0
  150.6501  135.8051  155.0377 C   0  0  0  0  0  0  0  0  0  0  0  0
  149.2740  136.4612  155.2732 C   0  0  0  0  0  0  0  0  0  0  0  0
  149.0429  137.6070  154.3477 N   0  3  0  0  0  0  0  0  0  0  0  0
  147.7061  138.2708  154.5160 C   0  0  1  0  0  0  0  0  0  0  0  0
  147.5709  139.5130  153.6002 C   0  0  0  0  0  0  0  0  0  0  0  0
  146.5245  137.2945  154.2686 C   0  0  0  0  0  0  0  0  0  0  0  0
  146.7634  136.4119  153.1306 N   0  0  0  0  0  0  0  0  0  0  0  0
  145.8302  135.6500  152.5434 C   0  0  0  0  0  0  0  0  0  0  0  0
  144.6519  135.6245  152.8997 O   0  0  0  0  0  0  0  0  0  0  0  0
  146.3513  134.9333  151.5332 N   0  0  0  0  0  0  0  0  0  0  0  0
  145.6842  133.9974  150.7024 C   0  0  0  0  0  0  0  0  0  0  0  0
  144.6710  134.4176  149.8002 C   0  0  0  0  0  0  0  0  0  0  0  0
  144.2935  133.2511  149.1969 C   0  0  0  0  0  0  0  0  0  0  0  0
  143.2856  132.9330  148.1460 C   0  0  0  0  0  0  0  0  0  0  0  0
  145.0155  132.2077  149.6891 O   0  0  0  0  0  0  0  0  0  0  0  0
  145.9051  132.6927  150.6552 N   0  0  0  0  0  0  0  0  0  0  0  0
  150.1914  138.5534  154.4402 C   0  0  0  0  0  0  0  0  0  0  0  0
  151.5418  137.8394  154.2231 C   0  0  0  0  0  0  0  0  0  0  0  0
  152.9277  136.6073  158.3916 H   0  0  0  0  0  0  0  0  0  0  0  0
  153.5542  135.7846  156.9685 H   0  0  0  0  0  0  0  0  0  0  0  0
  151.9786  135.3432  157.6331 H   0  0  0  0  0  0  0  0  0  0  0  0
  151.0694  137.6017  157.0049 H   0  0  0  0  0  0  0  0  0  0  0  0
  152.6602  138.1002  156.4867 H   0  0  0  0  0  0  0  0  0  0  0  0
  150.6828  135.3881  154.0302 H   0  0  0  0  0  0  0  0  0  0  0  0
  150.7863  134.9597  155.7113 H   0  0  0  0  0  0  0  0  0  0  0  0
  148.5356  135.6799  155.1042 H   0  0  0  0  0  0  0  0  0  0  0  0
  149.1610  136.7838  156.3088 H   0  0  0  0  0  0  0  0  0  0  0  0
  147.6391  138.6115  155.5508 H   0  0  0  0  0  0  0  0  0  0  0  0
  146.5788  139.9603  153.6526 H   0  0  0  0  0  0  0  0  0  0  0  0
  147.7563  139.2561  152.5567 H   0  0  0  0  0  0  0  0  0  0  0  0
  148.2554  140.3123  153.8803 H   0  0  0  0  0  0  0  0  0  0  0  0
  146.3357  136.7115  155.1720 H   0  0  0  0  0  0  0  0  0  0  0  0
  145.6061  137.8288  154.0292 H   0  0  0  0  0  0  0  0  0  0  0  0
  147.7056  136.3744  152.7697 H   0  0  0  0  0  0  0  0  0  0  0  0
  147.3344  135.0610  151.3443 H   0  0  0  0  0  0  0  0  0  0  0  0
  144.2837  135.4096  149.6212 H   0  0  0  0  0  0  0  0  0  0  0  0
  142.5760  133.7520  148.0269 H   0  0  0  0  0  0  0  0  0  0  0  0
  142.7243  132.0351  148.4052 H   0  0  0  0  0  0  0  0  0  0  0  0
  143.7711  132.7637  147.1848 H   0  0  0  0  0  0  0  0  0  0  0  0
  150.1211  139.3173  153.6686 H   0  0  0  0  0  0  0  0  0  0  0  0
  150.1720  139.0739  155.3984 H   0  0  0  0  0  0  0  0  0  0  0  0
  152.3626  138.5542  154.2921 H   0  0  0  0  0  0  0  0  0  0  0  0
  151.5804  137.4289  153.2129 H   0  0  0  0  0  0  0  0  0  0  0  0
  149.0613  137.2240  153.4133 H   0  0  0  0  0  0  0  0  0  0  0  0
  1  2  1  0  0  0  0
  1 22  1  0  0  0  0
  1 23  1  0  0  0  0
  1 24  1  0  0  0  0
  2  3  1  0  0  0  0
  2 25  1  0  0  0  0
  2 26  1  0  0  0  0
  3 21  1  0  0  0  0
  3  4  1  0  0  0  0
  4  5  1  0  0  0  0
  4 27  1  0  0  0  0
  4 28  1  0  0  0  0
  5  6  1  0  0  0  0
  5 29  1  0  0  0  0
  5 30  1  0  0  0  0
  6  7  1  0  0  0  0
  6 20  1  0  0  0  0
  6 47  1  0  0  0  0
  7  8  1  0  0  0  0
  7  9  1  0  0  0  0
  7 31  1  0  0  0  0
  8 32  1  0  0  0  0
  8 33  1  0  0  0  0
  8 34  1  0  0  0  0
  9 10  1  0  0  0  0
  9 35  1  0  0  0  0
  9 36  1  0  0  0  0
 10 11  1  0  0  0  0
 10 37  1  0  0  0  0
 11 12  2  0  0  0  0
 11 13  1  0  0  0  0
 13 14  1  0  0  0  0
 13 38  1  0  0  0  0
 14 19  2  0  0  0  0
 14 15  1  0  0  0  0
 15 16  2  0  0  0  0
 15 39  1  0  0  0  0
 16 17  1  0  0  0  0
 16 18  1  0  0  0  0
 17 40  1  0  0  0  0
 17 41  1  0  0  0  0
 17 42  1  0  0  0  0
 18 19  1  0  0  0  0
 20 21  1  0  0  0  0
 20 43  1  0  0  0  0
 20 44  1  0  0  0  0
 21 45  1  0  0  0  0
 21 46  1  0  0  0  0
M  CHG  1   6   1
M  END
> <s_m_source_file>
AV-unprocessed.smi

> <i_m_source_file_index>
1586

> <i_lp_mmshare_version>
43012

> <i_f3d_flags>
0

> <s_epik_input>
W0NIM11bQ0gyXU4xW0NIMl1bQ0gyXU4oW0NIMl1bQ0gyXTEpW0NASF0oW0NIM10pW0NIMl1bTkhdQyg9TylbTkhdYzJbY0hdYyhbQ0gzXSlvbjI=

> <s_epik_cmdline>
J2VwaWtfcHl0aG9uJywgJy1waCcsICc3LjAnLCAnLXRuJywgJzgnLCAnLW1hJywgJzIwMCcsICctbWV0YWxfYmluZGluZycsICctaW1hZScsICc8aW5maWxlLm1hZT4nLCAnLW9tYWUnLCAnPG91dGZpbGUubWFlPic=

> <r_epik_Ionization_Penalty>
0.153363

> <r_epik_Ionization_Penalty_Charging>
0.151842

> <r_epik_Ionization_Penalty_Neutral>
0.00152029

> <r_epik_State_Penalty>
0.985235

> <r_epik_Charging_Adjusted_Penalty>
1.13708

> <i_epik_Tot_Q>
1

> <i_epik_Tot_abs_Q>
1

> <r_epik_Metal_State_Penalty>
0.996168

> <b_epik_Metal_Only>
0

> <s_lp_Force_Field>
OPLS_2005

> <r_lp_Energy>
21.483

> <b_lp_Chiralities_Consistent>
1

> <s_lp_Variant>
AV-unprocessed.smi:1586-4

> <Gold.Version>
5.8.1

> <Gold.Id.Protein>
6NUR|6NUR_protein|mol2

> <Gold.PLP.Fitness>
39.6924

> <Gold.PLP.PLP>
-28.3944

> <Gold.PLP.part.hbond>
-4.0000

> <Gold.PLP.part.metal>
0.0000

> <Gold.PLP.part.buried>
-0.0952

> <Gold.PLP.part.nonpolar>
-23.9100

> <Gold.PLP.part.repulsive>
0.4916

> <Gold.PLP.ligand.clash>
0.0000

> <Gold.PLP.ligand.torsion>
1.0866

> <Gold.PLP.Chemscore.Hbond>
4.4675

> <Gold.PLP.Chemscore.CHOScore>
0.0000

> <Gold.PLP.Chemscore.Metal>
0.0000

> <Gold.Chemscore.Hbonds>
donor molecule, donor type, donor heavy atom, donor atom, acceptor molecule, acceptor atom, score
      L1  H     6    47       P1  7948  2.00
      L1  H    10    37       P1  7948  1.00
      L1  H    13    38       P1  7948  0.88
      P1  H 10752 10764       L1     3  0.75

> <Gold.PLP.Chemscore.Internal.Correction>
0.0686

> <Gold.Rescore>
     Score         DG    S(hbond)    S(metal)    S(lipo)     H(rot)  DE(clash)    DE(int)     intcor
     17.41     -18.48       2.58        0.00      76.06       1.76       0.21       0.86       ----

> <Gold.Chemscore.Fitness>
17.4109

> <Gold.Chemscore.DG>
-18.4793

> <Gold.Chemscore.ZeroCoef>
-5.4800

> <Gold.Chemscore.Hbond>
2.5795

> <Gold.Chemscore.Metal>
0.0000

> <Gold.Chemscore.Lipo>
76.0582

> <Gold.Chemscore.Internal_Hbond>
0.0000

> <Gold.Chemscore.DEClash>
0.2073

> <Gold.Chemscore.DEInternal>
0.8611

> <Gold.Chemscore.Rot>
1.7637

> <Gold.Chemscore.Internal.Correction>
   9.000000E+99

> <Gold.Chemscore.Hbonds>
donor molecule, donor type, donor heavy atom, donor atom, acceptor molecule, acceptor atom, score
      L1  H     6    47       P1  7948  1.00
      L1  H    10    37       P1  7948  0.95
      L1  H    13    38       P1  7948  0.50
      P1  H 10752 10764       L1     3  0.05

> <Gold.Chemscore.Hbond.Weighted>
-8.6155

> <Gold.Chemscore.Metal.Weighted>
-0.0000

> <Gold.Chemscore.Lipo.Weighted>
-8.8988

> <Gold.Chemscore.Internal_Hbond.Weighted>
0.0000

> <Gold.Chemscore.DEClash.Weighted>
0.2073

> <Gold.Chemscore.DEInternal.Weighted>
0.8611

> <Gold.Chemscore.Rot.Weighted>
4.5150

> <Gold.Chemscore.Internal.Correction.Weighted>
   9.000000E+99

> <Gold.Protein.RotatedTorsions>
[ 6907 6896 6895 6894 ] final   94.45 input  -60.11 | X-H torsion
[ 7974 7965 7964 7962 ] final  152.46 input  175.53 | X-H torsion
[ 8008 7997 7996 7995 ] final -132.26 input   59.86 | X-H torsion
[ 10167 10162 10161 10158 ] final -161.10 input  -65.29 | X-H torsion
[ 10718 10713 10712 10709 ] final  -13.97 input   66.30 | X-H torsion
[ 10763 10752 10751 10750 ] final  -42.14 input  -60.55 | X-H torsion
[ 11005 11000 10999 10996 ] final  -90.95 input  -57.11 | X-H torsion

> <Gold.Protein.ActiveResidues>
 VAL166  LYS551  ARG553  GLY616  TRP617  ASP618  TYR619  PRO620  LYS621  CYS622 
 ASP623  PHE694  ASN695  SER759  ASP760  ASP761  ALA762  ILE779  LEU786  VAL792 
 PHE793  MET794  SER795  GLU796  ALA797  LYS798  CYS799  TRP800  GLU811  SER814 

> <Gold.Protein.RotatedAtoms>
  152.5449  134.1192  159.8391 H   0  0  0  0  0  0  0  0  0  0  0  0  # atno 6907 bound_to 6896
  151.1250  133.5070  159.2608 H   0  0  0  0  0  0  0  0  0  0  0  0  # atno 6908 bound_to 6896
  151.1737  135.0339  159.8817 H   0  0  0  0  0  0  0  0  0  0  0  0  # atno 6909 bound_to 6896
  144.8221  139.6672  143.6096 H   0  0  0  0  0  0  0  0  0  0  0  0  # atno 7974 bound_to 7965
  155.3259  140.0464  157.3041 H   0  0  0  0  0  0  0  0  0  0  0  0  # atno 8008 bound_to 7997
  154.5354  140.2271  155.8697 H   0  0  0  0  0  0  0  0  0  0  0  0  # atno 8009 bound_to 7997
  156.1830  140.3069  155.9191 H   0  0  0  0  0  0  0  0  0  0  0  0  # atno 8010 bound_to 7997
  139.6490  144.0118  152.2148 H   0  0  0  0  0  0  0  0  0  0  0  0  # atno 10167 bound_to 10162
  156.6227  130.4880  149.6158 H   0  0  0  0  0  0  0  0  0  0  0  0  # atno 10718 bound_to 10713
  153.9741  135.6725  153.4748 H   0  0  0  0  0  0  0  0  0  0  0  0  # atno 10763 bound_to 10752
  153.0779  135.4939  154.8439 H   0  0  0  0  0  0  0  0  0  0  0  0  # atno 10764 bound_to 10752
  154.7202  135.3115  154.9020 H   0  0  0  0  0  0  0  0  0  0  0  0  # atno 10765 bound_to 10752
  141.1555  133.7724  156.9810 H   0  0  0  0  0  0  0  0  0  0  0  0  # atno 11005 bound_to 11000
  146.2526  139.6232  142.9417 LP  0  0  0  0  0  0  0  0  0  0  0  0  # atno 17320 bound_to 7965
  145.5083  141.0436  143.2502 LP  0  0  0  0  0  0  0  0  0  0  0  0  # atno 17321 bound_to 7965
  139.9828  144.6416  150.7885 LP  0  0  0  0  0  0  0  0  0  0  0  0  # atno 17342 bound_to 10162
  140.7529  143.2998  151.3110 LP  0  0  0  0  0  0  0  0  0  0  0  0  # atno 17343 bound_to 10162
  156.2299  130.6788  151.1453 LP  0  0  0  0  0  0  0  0  0  0  0  0  # atno 17370 bound_to 10713
  157.7223  131.0673  150.6083 LP  0  0  0  0  0  0  0  0  0  0  0  0  # atno 17371 bound_to 10713
  140.1066  134.9503  157.2003 LP  0  0  0  0  0  0  0  0  0  0  0  0  # atno 17394 bound_to 11000
  140.3248  134.2876  155.7239 LP  0  0  0  0  0  0  0  0  0  0  0  0  # atno 17395 bound_to 11000

$$$$
