AV-unprocessed.smi:1721|AV-procd|sdf|6942|dock3
  -GOLD-   22720 8153D 1   1.00000     0.00000
 Structure written by MMmdl.
 44 46  0  0  0  0  0  0  0  0  2 V2000
  151.8553  138.3701  154.4587 C   0  0  0  0  0  0  0  0  0  0  0  0
  150.4814  138.2845  154.0962 O   0  0  0  0  0  0  0  0  0  0  0  0
  149.6871  139.4057  154.2471 C   0  0  0  0  0  0  0  0  0  0  0  0
  150.2466  140.5240  154.7730 N   0  0  0  0  0  0  0  0  0  0  0  0
  149.4758  141.6203  154.9200 C   0  0  0  0  0  0  0  0  0  0  0  0
  148.1188  141.6609  154.5531 C   0  0  0  0  0  0  0  0  0  0  0  0
  147.5354  140.5025  154.0076 C   0  0  0  0  0  0  0  0  0  0  0  0
  148.3307  139.3401  153.8479 C   0  0  0  0  0  0  0  0  0  0  0  0
  147.8625  138.1070  153.3091 N   0  0  0  0  0  0  0  0  0  0  0  0
  146.6756  137.4944  153.4604 C   0  0  0  0  0  0  0  0  0  0  0  0
  145.7291  137.9122  154.1258 O   0  0  0  0  0  0  0  0  0  0  0  0
  146.6434  136.3373  152.7844 N   0  0  0  0  0  0  0  0  0  0  0  0
  145.5037  135.4258  152.7297 C   0  0  1  0  0  0  0  0  0  0  0  0
  144.1613  136.1468  152.7099 C   0  0  0  0  0  0  0  0  0  0  0  0
  143.2228  135.0668  152.1692 C   0  0  0  0  0  0  0  0  0  0  0  0
  144.0281  134.2627  151.2210 N   0  3  2  0  0  0  0  0  0  0  0  0
  143.7020  132.8156  151.2101 C   0  0  0  0  0  0  0  0  0  0  0  0
  144.5688  132.0675  150.1799 C   0  0  0  0  0  0  0  0  0  0  0  0
  146.0716  132.3970  150.2992 C   0  0  0  0  0  0  0  0  0  0  0  0
  146.3727  133.3416  151.4730 C   0  0  0  0  0  0  0  0  0  0  0  0
  145.4659  134.5932  151.4367 C   0  0  2  0  0  0  0  0  0  0  0  0
  152.3368  137.4097  154.2749 H   0  0  0  0  0  0  0  0  0  0  0  0
  151.9746  138.6024  155.5178 H   0  0  0  0  0  0  0  0  0  0  0  0
  152.3794  139.1209  153.8655 H   0  0  0  0  0  0  0  0  0  0  0  0
  149.9552  142.4913  155.3417 H   0  0  0  0  0  0  0  0  0  0  0  0
  147.5378  142.5614  154.6866 H   0  0  0  0  0  0  0  0  0  0  0  0
  146.4959  140.5424  153.7264 H   0  0  0  0  0  0  0  0  0  0  0  0
  148.5336  137.6215  152.7314 H   0  0  0  0  0  0  0  0  0  0  0  0
  147.4660  136.0710  152.2630 H   0  0  0  0  0  0  0  0  0  0  0  0
  145.5101  134.7611  153.5966 H   0  0  0  0  0  0  0  0  0  0  0  0
  143.8608  136.5154  153.6913 H   0  0  0  0  0  0  0  0  0  0  0  0
  144.1908  136.9938  152.0225 H   0  0  0  0  0  0  0  0  0  0  0  0
  142.8847  134.4399  152.9963 H   0  0  0  0  0  0  0  0  0  0  0  0
  142.3391  135.4848  151.6866 H   0  0  0  0  0  0  0  0  0  0  0  0
  143.8573  132.3968  152.2057 H   0  0  0  0  0  0  0  0  0  0  0  0
  142.6453  132.6821  150.9757 H   0  0  0  0  0  0  0  0  0  0  0  0
  144.4139  130.9937  150.2892 H   0  0  0  0  0  0  0  0  0  0  0  0
  144.2293  132.3171  149.1738 H   0  0  0  0  0  0  0  0  0  0  0  0
  146.6509  131.4790  150.4038 H   0  0  0  0  0  0  0  0  0  0  0  0
  146.4095  132.8629  149.3727 H   0  0  0  0  0  0  0  0  0  0  0  0
  146.2332  132.8038  152.4118 H   0  0  0  0  0  0  0  0  0  0  0  0
  147.4220  133.6366  151.4490 H   0  0  0  0  0  0  0  0  0  0  0  0
  145.7595  135.2208  150.5934 H   0  0  0  0  0  0  0  0  0  0  0  0
  143.8103  134.6060  150.2964 H   0  0  0  0  0  0  0  0  0  0  0  0
  1  2  1  0  0  0  0
  1 22  1  0  0  0  0
  1 23  1  0  0  0  0
  1 24  1  0  0  0  0
  2  3  1  0  0  0  0
  3  8  1  0  0  0  0
  3  4  2  0  0  0  0
  4  5  1  0  0  0  0
  5  6  2  0  0  0  0
  5 25  1  0  0  0  0
  6  7  1  0  0  0  0
  6 26  1  0  0  0  0
  7  8  2  0  0  0  0
  7 27  1  0  0  0  0
  8  9  1  0  0  0  0
  9 10  1  0  0  0  0
  9 28  1  0  0  0  0
 10 11  2  0  0  0  0
 10 12  1  0  0  0  0
 12 13  1  0  0  0  0
 12 29  1  0  0  0  0
 13 21  1  0  0  0  0
 13 14  1  0  0  0  0
 13 30  1  0  0  0  0
 14 15  1  0  0  0  0
 14 31  1  0  0  0  0
 14 32  1  0  0  0  0
 15 16  1  0  0  0  0
 15 33  1  0  0  0  0
 15 34  1  0  0  0  0
 16 21  1  0  0  0  0
 16 17  1  0  0  0  0
 16 44  1  0  0  0  0
 17 18  1  0  0  0  0
 17 35  1  0  0  0  0
 17 36  1  0  0  0  0
 18 19  1  0  0  0  0
 18 37  1  0  0  0  0
 18 38  1  0  0  0  0
 19 20  1  0  0  0  0
 19 39  1  0  0  0  0
 19 40  1  0  0  0  0
 20 21  1  0  0  0  0
 20 41  1  0  0  0  0
 20 42  1  0  0  0  0
 21 43  1  0  0  0  0
M  CHG  1  16   1
M  END
> <s_m_source_file>
AV-unprocessed.smi

> <i_m_source_file_index>
1721

> <i_lp_mmshare_version>
43012

> <i_f3d_flags>
0

> <s_epik_input>
W0NIM11PYzFuW2NIXVtjSF1bY0hdYzFbTkhdQyg9TylbTkhdW0NASF0oW0NIMl1bQ0gyXTIpW0NAQEhdKE4yMylbQ0gyXVtDSDJdW0NIMl1bQ0gyXTM=

> <s_epik_cmdline>
J2VwaWtfcHl0aG9uJywgJy1waCcsICc3LjAnLCAnLXRuJywgJzgnLCAnLW1hJywgJzIwMCcsICctbWV0YWxfYmluZGluZycsICctaW1hZScsICc8aW5maWxlLm1hZT4nLCAnLW9tYWUnLCAnPG91dGZpbGUubWFlPic=

> <r_lp_tautomer_probability>
1

> <r_epik_Ionization_Penalty>
0.00104793

> <r_epik_Ionization_Penalty_Charging>
0.000974069

> <r_epik_Ionization_Penalty_Neutral>
7.38649e-05

> <r_epik_State_Penalty>
0.000633842

> <r_epik_Charging_Adjusted_Penalty>
0.00160791

> <i_epik_Tot_Q>
1

> <i_epik_Tot_abs_Q>
1

> <r_epik_Metal_State_Penalty>
-0

> <b_epik_Metal_Only>
0

> <s_lp_Force_Field>
OPLS_2005

> <r_lp_Energy>
42.7216

> <b_lp_Chiralities_Consistent>
1

> <s_lp_Variant>
AV-unprocessed.smi:1721-8

> <Gold.Version>
5.8.1

> <Gold.Id.Protein>
6NUR|6NUR_protein|mol2

> <Gold.PLP.Fitness>
47.6453

> <Gold.PLP.PLP>
-37.3555

> <Gold.PLP.part.hbond>
-2.8715

> <Gold.PLP.part.metal>
0.0000

> <Gold.PLP.part.buried>
-4.4412

> <Gold.PLP.part.nonpolar>
-30.9233

> <Gold.PLP.part.repulsive>
0.5132

> <Gold.PLP.ligand.clash>
0.0000

> <Gold.PLP.ligand.torsion>
0.6363

> <Gold.PLP.Chemscore.Hbond>
2.9760

> <Gold.PLP.Chemscore.CHOScore>
0.8757

> <Gold.PLP.Chemscore.Metal>
0.0000

> <Gold.Chemscore.Hbonds>
donor molecule, donor type, donor heavy atom, donor atom, acceptor molecule, acceptor atom, score
      L1  H     9    28       P1  7948  1.00
      L1  H    12    29       P1  7948  1.00
      P1  H  7989  7998       L1     4  0.94
      L1  C     5    25       P1  8028  0.91

> <Gold.PLP.Chemscore.Internal.Correction>
0.0073

> <Gold.Rescore>
     Score         DG    S(hbond)    S(metal)    S(lipo)     H(rot)  DE(clash)    DE(int)     intcor
     17.50     -19.35       2.19        0.00      83.36       1.25       0.26       1.59       ----

> <Gold.Chemscore.Fitness>
17.4970

> <Gold.Chemscore.DG>
-19.3455

> <Gold.Chemscore.ZeroCoef>
-5.4800

> <Gold.Chemscore.Hbond>
2.1874

> <Gold.Chemscore.Metal>
0.0000

> <Gold.Chemscore.Lipo>
83.3585

> <Gold.Chemscore.Internal_Hbond>
0.0000

> <Gold.Chemscore.DEClash>
0.2595

> <Gold.Chemscore.DEInternal>
1.5890

> <Gold.Chemscore.Rot>
1.2474

> <Gold.Chemscore.Internal.Correction>
   9.000000E+99

> <Gold.Chemscore.Hbonds>
donor molecule, donor type, donor heavy atom, donor atom, acceptor molecule, acceptor atom, score
      L1  H     9    28       P1  7948  0.94
      L1  H    12    29       P1  7948  0.91
      P1  H  7989  7998       L1     4  0.19

> <Gold.Chemscore.Hbond.Weighted>
-7.3060

> <Gold.Chemscore.Metal.Weighted>
-0.0000

> <Gold.Chemscore.Lipo.Weighted>
-9.7529

> <Gold.Chemscore.Internal_Hbond.Weighted>
0.0000

> <Gold.Chemscore.DEClash.Weighted>
0.2595

> <Gold.Chemscore.DEInternal.Weighted>
1.5890

> <Gold.Chemscore.Rot.Weighted>
3.1934

> <Gold.Chemscore.Internal.Correction.Weighted>
   9.000000E+99

> <Gold.Protein.RotatedTorsions>
[ 6907 6896 6895 6894 ] final   90.32 input  -60.11 | X-H torsion
[ 7974 7965 7964 7962 ] final  109.98 input  175.53 | X-H torsion
[ 8008 7997 7996 7995 ] final  -43.57 input   59.86 | X-H torsion
[ 10167 10162 10161 10158 ] final  116.13 input  -65.29 | X-H torsion
[ 10718 10713 10712 10709 ] final -126.39 input   66.30 | X-H torsion
[ 10763 10752 10751 10750 ] final -141.86 input  -60.55 | X-H torsion
[ 11005 11000 10999 10996 ] final  -38.48 input  -57.11 | X-H torsion

> <Gold.Protein.ActiveResidues>
 VAL166  LYS551  ARG553  GLY616  TRP617  ASP618  TYR619  PRO620  LYS621  CYS622 
 ASP623  PHE694  ASN695  SER759  ASP760  ASP761  ALA762  ILE779  LEU786  VAL792 
 PHE793  MET794  SER795  GLU796  ALA797  LYS798  CYS799  TRP800  GLU811  SER814 

> <Gold.Protein.RotatedAtoms>
  152.5443  134.1830  159.8642 H   0  0  0  0  0  0  0  0  0  0  0  0  # atno 6907 bound_to 6896
  151.1831  133.4706  159.2601 H   0  0  0  0  0  0  0  0  0  0  0  0  # atno 6908 bound_to 6896
  151.1158  135.0064  159.8571 H   0  0  0  0  0  0  0  0  0  0  0  0  # atno 6909 bound_to 6896
  145.2609  139.2703  143.4017 H   0  0  0  0  0  0  0  0  0  0  0  0  # atno 7974 bound_to 7965
  154.3997  140.1444  156.3540 H   0  0  0  0  0  0  0  0  0  0  0  0  # atno 8008 bound_to 7997
  155.8243  140.3468  155.5512 H   0  0  0  0  0  0  0  0  0  0  0  0  # atno 8009 bound_to 7997
  155.8255  140.0904  157.1814 H   0  0  0  0  0  0  0  0  0  0  0  0  # atno 8010 bound_to 7997
  139.6268  144.7109  151.2516 H   0  0  0  0  0  0  0  0  0  0  0  0  # atno 10167 bound_to 10162
  156.1761  130.6700  151.0244 H   0  0  0  0  0  0  0  0  0  0  0  0  # atno 10718 bound_to 10713
  154.8530  135.3512  154.5936 H   0  0  0  0  0  0  0  0  0  0  0  0  # atno 10763 bound_to 10752
  153.6545  135.6992  153.5202 H   0  0  0  0  0  0  0  0  0  0  0  0  # atno 10764 bound_to 10752
  153.2867  135.4247  155.1087 H   0  0  0  0  0  0  0  0  0  0  0  0  # atno 10765 bound_to 10752
  141.0031  133.6945  156.2059 H   0  0  0  0  0  0  0  0  0  0  0  0  # atno 11005 bound_to 11000
  146.3275  140.3026  142.8621 LP  0  0  0  0  0  0  0  0  0  0  0  0  # atno 17320 bound_to 7965
  144.9419  140.8087  143.5625 LP  0  0  0  0  0  0  0  0  0  0  0  0  # atno 17321 bound_to 7965
  140.7416  143.6553  150.8212 LP  0  0  0  0  0  0  0  0  0  0  0  0  # atno 17342 bound_to 10162
  140.0172  143.5580  152.2815 LP  0  0  0  0  0  0  0  0  0  0  0  0  # atno 17343 bound_to 10162
  157.6836  131.0831  150.7302 LP  0  0  0  0  0  0  0  0  0  0  0  0  # atno 17370 bound_to 10713
  156.7360  130.4724  149.5488 LP  0  0  0  0  0  0  0  0  0  0  0  0  # atno 17371 bound_to 10713
  140.6857  134.4720  157.5589 LP  0  0  0  0  0  0  0  0  0  0  0  0  # atno 17394 bound_to 11000
  139.9049  134.8472  156.1746 LP  0  0  0  0  0  0  0  0  0  0  0  0  # atno 17395 bound_to 11000

$$$$
