AV-unprocessed.smi:1224|AV-procd|sdf|5131|dock1
  -GOLD-   22720 4193D 1   1.00000     0.00000
 Structure written by MMmdl.
 45 47  0  0  0  0  0  0  0  0  3 V2000
  152.5479  143.8062  160.2575 C   0  0  0  0  0  0  0  0  0  0  0  0
  152.2068  142.8257  159.1484 C   0  0  0  0  0  0  0  0  0  0  0  0
  151.2357  143.1999  158.1922 C   0  0  0  0  0  0  0  0  0  0  0  0
  150.9465  142.2823  157.1893 C   0  0  0  0  0  0  0  0  0  0  0  0
  150.0561  142.3495  156.1153 N   0  3  0  0  0  0  0  0  0  0  0  0
  150.1242  141.1955  155.3952 C   0  0  0  0  0  0  0  0  0  0  0  0
  151.0434  140.3909  155.9958 N   0  0  0  0  0  0  0  0  0  0  0  0
  151.5014  139.0423  155.6350 C   0  0  0  0  0  0  0  0  0  0  0  0
  150.8643  138.5230  154.3308 C   0  0  1  0  0  0  0  0  0  0  0  0
  151.4524  137.2822  153.9889 O   0  0  0  0  0  0  0  0  0  0  0  0
  149.3450  138.3351  154.4683 C   0  0  0  0  0  0  0  0  0  0  0  0
  148.6637  138.4946  153.1655 N   0  3  0  0  0  0  0  0  0  0  0  0
  147.2167  138.7820  153.2488 C   0  0  0  0  0  0  0  0  0  0  0  0
  146.9233  140.0244  154.0255 C   0  0  0  0  0  0  0  0  0  0  0  0
  146.1157  140.1550  155.1269 C   0  0  0  0  0  0  0  0  0  0  0  0
  146.0498  141.4919  155.6178 C   0  0  0  0  0  0  0  0  0  0  0  0
  146.8094  142.3644  154.8848 C   0  0  0  0  0  0  0  0  0  0  0  0
  147.6216  141.5586  153.5711 S   0  0  0  0  0  0  0  0  0  0  0  0
  151.5838  141.0284  157.1177 C   0  0  0  0  0  0  0  0  0  0  0  0
  152.5412  140.6427  158.0525 C   0  0  0  0  0  0  0  0  0  0  0  0
  152.8519  141.5636  159.0786 C   0  0  0  0  0  0  0  0  0  0  0  0
  153.8976  141.1736  160.1093 C   0  0  0  0  0  0  0  0  0  0  0  0
  151.9737  144.7287  160.1653 H   0  0  0  0  0  0  0  0  0  0  0  0
  153.6057  144.0683  160.2259 H   0  0  0  0  0  0  0  0  0  0  0  0
  152.3271  143.3726  161.2332 H   0  0  0  0  0  0  0  0  0  0  0  0
  150.7409  144.1593  158.2384 H   0  0  0  0  0  0  0  0  0  0  0  0
  149.5504  140.9612  154.5100 H   0  0  0  0  0  0  0  0  0  0  0  0
  152.5877  139.0789  155.5401 H   0  0  0  0  0  0  0  0  0  0  0  0
  151.2880  138.3725  156.4689 H   0  0  0  0  0  0  0  0  0  0  0  0
  151.0681  139.2302  153.5257 H   0  0  0  0  0  0  0  0  0  0  0  0
  151.0374  136.9548  153.2049 H   0  0  0  0  0  0  0  0  0  0  0  0
  149.1237  137.3559  154.8951 H   0  0  0  0  0  0  0  0  0  0  0  0
  148.9455  139.0805  155.1573 H   0  0  0  0  0  0  0  0  0  0  0  0
  149.1060  139.2565  152.6719 H   0  0  0  0  0  0  0  0  0  0  0  0
  146.8003  138.8531  152.2432 H   0  0  0  0  0  0  0  0  0  0  0  0
  146.7283  137.9320  153.7258 H   0  0  0  0  0  0  0  0  0  0  0  0
  145.5733  139.3455  155.5929 H   0  0  0  0  0  0  0  0  0  0  0  0
  145.4572  141.7623  156.4794 H   0  0  0  0  0  0  0  0  0  0  0  0
  146.9417  143.4258  155.0361 H   0  0  0  0  0  0  0  0  0  0  0  0
  153.0317  139.6822  158.0001 H   0  0  0  0  0  0  0  0  0  0  0  0
  154.2983  140.1782  159.9150 H   0  0  0  0  0  0  0  0  0  0  0  0
  153.4668  141.1699  161.1107 H   0  0  0  0  0  0  0  0  0  0  0  0
  154.7313  141.8759  160.0931 H   0  0  0  0  0  0  0  0  0  0  0  0
  148.7934  137.6485  152.6288 H   0  0  0  0  0  0  0  0  0  0  0  0
  149.4470  143.1251  155.8875 H   0  0  0  0  0  0  0  0  0  0  0  0
  1  2  1  0  0  0  0
  1 23  1  0  0  0  0
  1 24  1  0  0  0  0
  1 25  1  0  0  0  0
  2 21  1  0  0  0  0
  2  3  2  0  0  0  0
  3  4  1  0  0  0  0
  3 26  1  0  0  0  0
  4 19  2  0  0  0  0
  4  5  1  0  0  0  0
  5  6  2  0  0  0  0
  5 45  1  0  0  0  0
  6  7  1  0  0  0  0
  6 27  1  0  0  0  0
  7  8  1  0  0  0  0
  7 19  1  0  0  0  0
  8  9  1  0  0  0  0
  8 28  1  0  0  0  0
  8 29  1  0  0  0  0
  9 10  1  0  0  0  0
  9 11  1  0  0  0  0
  9 30  1  0  0  0  0
 10 31  1  0  0  0  0
 11 12  1  0  0  0  0
 11 32  1  0  0  0  0
 11 33  1  0  0  0  0
 12 13  1  0  0  0  0
 12 34  1  0  0  0  0
 12 44  1  0  0  0  0
 13 14  1  0  0  0  0
 13 35  1  0  0  0  0
 13 36  1  0  0  0  0
 14 18  1  0  0  0  0
 14 15  2  0  0  0  0
 15 16  1  0  0  0  0
 15 37  1  0  0  0  0
 16 17  2  0  0  0  0
 16 38  1  0  0  0  0
 17 18  1  0  0  0  0
 17 39  1  0  0  0  0
 19 20  1  0  0  0  0
 20 21  2  0  0  0  0
 20 40  1  0  0  0  0
 21 22  1  0  0  0  0
 22 41  1  0  0  0  0
 22 42  1  0  0  0  0
 22 43  1  0  0  0  0
M  CHG  1   5   1
M  CHG  1  12   1
M  END
> <s_m_source_file>
AV-unprocessed.smi

> <i_m_source_file_index>
1224

> <i_lp_mmshare_version>
43012

> <i_f3d_flags>
0

> <s_epik_input>
W0NIM11jKFtjSF0xKWMoW0NIM10pW2NIXWMoYzEyKW4oW2NIXW4yKVtDSDJdW0NASF0oW09IXSlbQ0gyXVtOSF1bQ0gyXWMzW2NIXVtjSF1bY0hdczM=

> <s_epik_cmdline>
J2VwaWtfcHl0aG9uJywgJy1waCcsICc3LjAnLCAnLXRuJywgJzgnLCAnLW1hJywgJzIwMCcsICctbWV0YWxfYmluZGluZycsICctaW1hZScsICc8aW5maWxlLm1hZT4nLCAnLW9tYWUnLCAnPG91dGZpbGUubWFlPic=

> <r_epik_Ionization_Penalty>
1.2222

> <r_epik_Ionization_Penalty_Charging>
1.2222

> <r_epik_Ionization_Penalty_Neutral>
3.40394e-06

> <r_epik_State_Penalty>
1.23781

> <r_epik_Charging_Adjusted_Penalty>
2.46001

> <i_epik_Tot_Q>
2

> <i_epik_Tot_abs_Q>
2

> <r_epik_Metal_State_Penalty>
5.24642

> <b_epik_Metal_Only>
0

> <s_lp_Force_Field>
OPLS_2005

> <r_lp_Energy>
17.2404

> <b_lp_Chiralities_Consistent>
1

> <s_lp_Variant>
AV-unprocessed.smi:1224-4

> <Gold.Version>
5.8.1

> <Gold.Id.Protein>
6NUR|6NUR_protein|mol2

> <Gold.PLP.Fitness>
69.0229

> <Gold.PLP.PLP>
-48.3453

> <Gold.PLP.part.hbond>
-4.8348

> <Gold.PLP.part.metal>
0.0000

> <Gold.PLP.part.buried>
-5.7339

> <Gold.PLP.part.nonpolar>
-38.4571

> <Gold.PLP.part.repulsive>
0.1804

> <Gold.PLP.ligand.clash>
0.0000

> <Gold.PLP.ligand.torsion>
0.4556

> <Gold.PLP.Chemscore.Hbond>
6.6553

> <Gold.PLP.Chemscore.CHOScore>
0.4909

> <Gold.PLP.Chemscore.Metal>
0.0000

> <Gold.Chemscore.Hbonds>
donor molecule, donor type, donor heavy atom, donor atom, acceptor molecule, acceptor atom, score
      L1  H     5    45       P1  8028  2.00
      L1  H    10    31       P1  7949  0.99
      L1  H    12    34       P1  7957  0.99
      L1  H    12    44       P1  7948  2.00
      P1  H 10752 10765       L1    10  0.46
      L1  C    17    39       P1  8028  0.39

> <Gold.PLP.Chemscore.Internal.Correction>
0.1503

> <Gold.Rescore>
     Score         DG    S(hbond)    S(metal)    S(lipo)     H(rot)  DE(clash)    DE(int)     intcor
     25.02     -25.69       3.72        0.00     121.41       2.50       0.08       0.59       ----

> <Gold.Chemscore.Fitness>
25.0205

> <Gold.Chemscore.DG>
-25.6879

> <Gold.Chemscore.ZeroCoef>
-5.4800

> <Gold.Chemscore.Hbond>
3.7168

> <Gold.Chemscore.Metal>
0.0000

> <Gold.Chemscore.Lipo>
121.4080

> <Gold.Chemscore.Internal_Hbond>
0.0000

> <Gold.Chemscore.DEClash>
0.0786

> <Gold.Chemscore.DEInternal>
0.5889

> <Gold.Chemscore.Rot>
2.5042

> <Gold.Chemscore.Internal.Correction>
   9.000000E+99

> <Gold.Chemscore.Hbonds>
donor molecule, donor type, donor heavy atom, donor atom, acceptor molecule, acceptor atom, score
      L1  H     5    45       P1  8028  1.00
      L1  H    10    31       P1  7949  0.32
      L1  H    12    34       P1  7957  0.94
      L1  H    12    44       P1  7948  0.98
      P1  H 10752 10765       L1    10  0.13

> <Gold.Chemscore.Hbond.Weighted>
-12.4140

> <Gold.Chemscore.Metal.Weighted>
-0.0000

> <Gold.Chemscore.Lipo.Weighted>
-14.2047

> <Gold.Chemscore.Internal_Hbond.Weighted>
0.0000

> <Gold.Chemscore.DEClash.Weighted>
0.0786

> <Gold.Chemscore.DEInternal.Weighted>
0.5889

> <Gold.Chemscore.Rot.Weighted>
6.4108

> <Gold.Chemscore.Internal.Correction.Weighted>
   9.000000E+99

> <Gold.Protein.RotatedTorsions>
[ 6907 6896 6895 6894 ] final  152.37 input  -60.11 | X-H torsion
[ 7974 7965 7964 7962 ] final -167.86 input  175.53 | X-H torsion
[ 8008 7997 7996 7995 ] final   24.75 input   59.86 | X-H torsion
[ 10167 10162 10161 10158 ] final -141.96 input  -65.29 | X-H torsion
[ 10718 10713 10712 10709 ] final  -81.44 input   66.30 | X-H torsion
[ 10763 10752 10751 10750 ] final  170.29 input  -60.55 | X-H torsion
[ 11005 11000 10999 10996 ] final   85.10 input  -57.11 | X-H torsion

> <Gold.Protein.ActiveResidues>
 VAL166  LYS551  ARG553  GLY616  TRP617  ASP618  TYR619  PRO620  LYS621  CYS622 
 ASP623  PHE694  ASN695  SER759  ASP760  ASP761  ALA762  ILE779  LEU786  VAL792 
 PHE793  MET794  SER795  GLU796  ALA797  LYS798  CYS799  TRP800  GLU811  SER814 

> <Gold.Protein.RotatedAtoms>
  152.0877  133.4185  159.4529 H   0  0  0  0  0  0  0  0  0  0  0  0  # atno 6907 bound_to 6896
  150.6862  134.2908  159.4675 H   0  0  0  0  0  0  0  0  0  0  0  0  # atno 6908 bound_to 6896
  152.0756  134.9504  160.0624 H   0  0  0  0  0  0  0  0  0  0  0  0  # atno 6909 bound_to 6896
  144.7214  140.2456  143.6285 H   0  0  0  0  0  0  0  0  0  0  0  0  # atno 7974 bound_to 7965
  155.0010  140.3125  155.4867 H   0  0  0  0  0  0  0  0  0  0  0  0  # atno 8008 bound_to 7997
  156.2925  140.2232  156.5061 H   0  0  0  0  0  0  0  0  0  0  0  0  # atno 8009 bound_to 7997
  154.7618  140.0458  157.0968 H   0  0  0  0  0  0  0  0  0  0  0  0  # atno 8010 bound_to 7997
  139.8134  143.7672  152.2664 H   0  0  0  0  0  0  0  0  0  0  0  0  # atno 10167 bound_to 10162
  156.0050  130.4604  150.3953 H   0  0  0  0  0  0  0  0  0  0  0  0  # atno 10718 bound_to 10713
  154.3955  135.2754  155.2129 H   0  0  0  0  0  0  0  0  0  0  0  0  # atno 10763 bound_to 10752
  154.4177  135.6007  153.5994 H   0  0  0  0  0  0  0  0  0  0  0  0  # atno 10764 bound_to 10752
  152.9831  135.5965  154.4216 H   0  0  0  0  0  0  0  0  0  0  0  0  # atno 10765 bound_to 10752
  139.8981  134.8263  156.2536 H   0  0  0  0  0  0  0  0  0  0  0  0  # atno 11005 bound_to 11000
  145.8278  139.2072  143.1900 LP  0  0  0  0  0  0  0  0  0  0  0  0  # atno 17320 bound_to 7965
  146.0458  140.8120  142.9806 LP  0  0  0  0  0  0  0  0  0  0  0  0  # atno 17321 bound_to 7965
  139.7828  144.7438  151.0065 LP  0  0  0  0  0  0  0  0  0  0  0  0  # atno 17342 bound_to 10162
  140.7817  143.4524  151.0393 LP  0  0  0  0  0  0  0  0  0  0  0  0  # atno 17343 bound_to 10162
  157.2026  131.0441  151.2642 LP  0  0  0  0  0  0  0  0  0  0  0  0  # atno 17370 bound_to 10713
  157.3962  130.7308  149.6733 LP  0  0  0  0  0  0  0  0  0  0  0  0  # atno 17371 bound_to 10713
  141.0208  133.7042  156.1265 LP  0  0  0  0  0  0  0  0  0  0  0  0  # atno 17394 bound_to 11000
  140.7236  134.4331  157.5572 LP  0  0  0  0  0  0  0  0  0  0  0  0  # atno 17395 bound_to 11000

$$$$
