AV-unprocessed.smi:682|AV-procd|sdf|3329|dock8
  -GOLD-   22720 0293D 1   1.00000     0.00000
 Structure written by MMmdl.
 41 42  0  0  0  0  0  0  0  0  1 V2000
  150.2270  141.1776  155.5801 C   0  0  0  0  0  0  0  0  0  0  0  0
  151.0201  140.0757  155.1583 O   0  0  0  0  0  0  0  0  0  0  0  0
  150.9345  138.8921  155.9537 C   0  0  2  0  0  0  0  0  0  0  0  0
  151.5351  139.1483  157.3446 C   0  0  0  0  0  0  0  0  0  0  0  0
  151.4024  137.6416  155.1871 C   0  0  0  0  0  0  0  0  0  0  0  0
  150.1846  136.9331  155.7759 C   0  0  2  0  0  0  0  0  0  0  0  0
  149.5810  135.9868  154.8439 N   0  0  0  0  0  0  0  0  0  0  0  0
  149.1697  134.7560  155.1764 C   0  0  0  0  0  0  0  0  0  0  0  0
  149.2669  134.2907  156.3119 O   0  0  0  0  0  0  0  0  0  0  0  0
  148.6436  134.1154  154.1203 N   0  0  0  0  0  0  0  0  0  0  0  0
  148.0977  132.8078  154.0958 C   0  0  0  0  0  0  0  0  0  0  0  0
  148.2508  131.7487  155.0349 C   0  0  0  0  0  0  0  0  0  0  0  0
  147.5760  130.6744  154.6531 N   0  0  0  0  0  0  0  0  0  0  0  0
  146.9897  131.0239  153.4825 N   0  0  0  0  0  0  0  0  0  0  0  0
  146.1630  130.0594  152.7889 C   0  0  0  0  0  0  0  0  0  0  0  0
  147.2875  132.3207  153.1145 C   0  0  0  0  0  0  0  0  0  0  0  0
  149.4851  138.3150  155.8506 C   0  0  0  0  0  0  0  0  0  0  0  0
  148.5670  138.5354  157.0571 C   0  0  0  0  0  0  0  0  0  0  0  0
  148.6679  138.7474  154.6162 C   0  0  0  0  0  0  0  0  0  0  0  0
  150.4578  142.0417  154.9572 H   0  0  0  0  0  0  0  0  0  0  0  0
  150.4295  141.4545  156.6147 H   0  0  0  0  0  0  0  0  0  0  0  0
  149.1615  140.9766  155.4721 H   0  0  0  0  0  0  0  0  0  0  0  0
  151.3563  138.3153  158.0238 H   0  0  0  0  0  0  0  0  0  0  0  0
  151.1072  140.0402  157.8029 H   0  0  0  0  0  0  0  0  0  0  0  0
  152.6156  139.2818  157.3027 H   0  0  0  0  0  0  0  0  0  0  0  0
  151.3638  137.7524  154.1017 H   0  0  0  0  0  0  0  0  0  0  0  0
  152.3613  137.2374  155.5129 H   0  0  0  0  0  0  0  0  0  0  0  0
  150.3997  136.5082  156.7593 H   0  0  0  0  0  0  0  0  0  0  0  0
  149.4651  136.2926  153.8890 H   0  0  0  0  0  0  0  0  0  0  0  0
  148.6296  134.6161  153.2438 H   0  0  0  0  0  0  0  0  0  0  0  0
  148.8098  131.7138  155.9580 H   0  0  0  0  0  0  0  0  0  0  0  0
  145.8354  130.4663  151.8318 H   0  0  0  0  0  0  0  0  0  0  0  0
  145.2863  129.8244  153.3932 H   0  0  0  0  0  0  0  0  0  0  0  0
  146.7306  129.1458  152.6091 H   0  0  0  0  0  0  0  0  0  0  0  0
  146.9058  132.7711  152.2100 H   0  0  0  0  0  0  0  0  0  0  0  0
  147.6065  138.0358  156.9267 H   0  0  0  0  0  0  0  0  0  0  0  0
  148.3682  139.5953  157.2176 H   0  0  0  0  0  0  0  0  0  0  0  0
  148.9987  138.1423  157.9772 H   0  0  0  0  0  0  0  0  0  0  0  0
  147.7527  138.1634  154.5140 H   0  0  0  0  0  0  0  0  0  0  0  0
  149.2261  138.6292  153.6873 H   0  0  0  0  0  0  0  0  0  0  0  0
  148.3748  139.7958  154.6803 H   0  0  0  0  0  0  0  0  0  0  0  0
  1  2  1  0  0  0  0
  1 20  1  0  0  0  0
  1 21  1  0  0  0  0
  1 22  1  0  0  0  0
  2  3  1  0  0  0  0
  3 17  1  0  0  0  0
  3  4  1  0  0  0  0
  3  5  1  0  0  0  0
  4 23  1  0  0  0  0
  4 24  1  0  0  0  0
  4 25  1  0  0  0  0
  5  6  1  0  0  0  0
  5 26  1  0  0  0  0
  5 27  1  0  0  0  0
  6  7  1  0  0  0  0
  6 17  1  0  0  0  0
  6 28  1  0  0  0  0
  7  8  1  0  0  0  0
  7 29  1  0  0  0  0
  8  9  2  0  0  0  0
  8 10  1  0  0  0  0
 10 11  1  0  0  0  0
 10 30  1  0  0  0  0
 11 16  2  0  0  0  0
 11 12  1  0  0  0  0
 12 13  2  0  0  0  0
 12 31  1  0  0  0  0
 13 14  1  0  0  0  0
 14 15  1  0  0  0  0
 14 16  1  0  0  0  0
 15 32  1  0  0  0  0
 15 33  1  0  0  0  0
 15 34  1  0  0  0  0
 16 35  1  0  0  0  0
 17 18  1  0  0  0  0
 17 19  1  0  0  0  0
 18 36  1  0  0  0  0
 18 37  1  0  0  0  0
 18 38  1  0  0  0  0
 19 39  1  0  0  0  0
 19 40  1  0  0  0  0
 19 41  1  0  0  0  0
M  END
> <s_m_source_file>
AV-unprocessed.smi

> <i_m_source_file_index>
682

> <i_lp_mmshare_version>
43012

> <i_f3d_flags>
0

> <s_epik_input>
W0NIM11PW0NAQF0xKFtDSDNdKVtDSDJdW0NASF0oQzEoW0NIM10pW0NIM10pW05IXUMoPU8pW05IXWMyW2NIXW5uKFtDSDNdKVtjSF0y

> <s_epik_cmdline>
J2VwaWtfcHl0aG9uJywgJy1waCcsICc3LjAnLCAnLXRuJywgJzgnLCAnLW1hJywgJzIwMCcsICctbWV0YWxfYmluZGluZycsICctaW1hZScsICc8aW5maWxlLm1hZT4nLCAnLW9tYWUnLCAnPG91dGZpbGUubWFlPic=

> <r_lp_tautomer_probability>
1

> <r_epik_Ionization_Penalty>
0.000192302

> <r_epik_Ionization_Penalty_Charging>
0

> <r_epik_Ionization_Penalty_Neutral>
0.000192302

> <r_epik_State_Penalty>
-0

> <r_epik_Charging_Adjusted_Penalty>
0

> <i_epik_Tot_Q>
0

> <i_epik_Tot_abs_Q>
0

> <r_epik_Metal_State_Penalty>
-0

> <b_epik_Metal_Only>
0

> <s_lp_Force_Field>
OPLS_2005

> <r_lp_Energy>
23.9348

> <b_lp_Chiralities_Consistent>
1

> <s_lp_Variant>
AV-unprocessed.smi:682-4

> <Gold.Version>
5.8.1

> <Gold.Id.Protein>
6NUR|6NUR_protein|mol2

> <Gold.PLP.Fitness>
39.4830

> <Gold.PLP.PLP>
-30.9676

> <Gold.PLP.part.hbond>
-3.5894

> <Gold.PLP.part.metal>
0.0000

> <Gold.PLP.part.buried>
-3.1107

> <Gold.PLP.part.nonpolar>
-24.7154

> <Gold.PLP.part.repulsive>
0.2231

> <Gold.PLP.ligand.clash>
0.0000

> <Gold.PLP.ligand.torsion>
0.2959

> <Gold.PLP.Chemscore.Hbond>
2.9120

> <Gold.PLP.Chemscore.CHOScore>
0.0000

> <Gold.PLP.Chemscore.Metal>
0.0000

> <Gold.Chemscore.Hbonds>
donor molecule, donor type, donor heavy atom, donor atom, acceptor molecule, acceptor atom, score
      L1  H     7    29       P1  7948  0.91
      L1  H    10    30       P1  7948  0.80
      P1  H  7989  7998       L1     2  0.80

> <Gold.PLP.Chemscore.Internal.Correction>
0.3713

> <Gold.Rescore>
     Score         DG    S(hbond)    S(metal)    S(lipo)     H(rot)  DE(clash)    DE(int)     intcor
     16.24     -17.65       2.45        0.00      61.08       1.23       0.02       1.39       ----

> <Gold.Chemscore.Fitness>
16.2381

> <Gold.Chemscore.DG>
-17.6533

> <Gold.Chemscore.ZeroCoef>
-5.4800

> <Gold.Chemscore.Hbond>
2.4507

> <Gold.Chemscore.Metal>
0.0000

> <Gold.Chemscore.Lipo>
61.0773

> <Gold.Chemscore.Internal_Hbond>
0.0000

> <Gold.Chemscore.DEClash>
0.0234

> <Gold.Chemscore.DEInternal>
1.3918

> <Gold.Chemscore.Rot>
1.2336

> <Gold.Chemscore.Internal.Correction>
   9.000000E+99

> <Gold.Chemscore.Hbonds>
donor molecule, donor type, donor heavy atom, donor atom, acceptor molecule, acceptor atom, score
      L1  H     7    29       P1  7948  0.65
      L1  H    10    30       P1  7948  0.27
      P1  H  7989  7998       L1     2  0.12

> <Gold.Chemscore.Hbond.Weighted>
-8.1853

> <Gold.Chemscore.Metal.Weighted>
-0.0000

> <Gold.Chemscore.Lipo.Weighted>
-7.1460

> <Gold.Chemscore.Internal_Hbond.Weighted>
0.0000

> <Gold.Chemscore.DEClash.Weighted>
0.0234

> <Gold.Chemscore.DEInternal.Weighted>
1.3918

> <Gold.Chemscore.Rot.Weighted>
3.1581

> <Gold.Chemscore.Internal.Correction.Weighted>
   9.000000E+99

> <Gold.Protein.RotatedTorsions>
[ 6907 6896 6895 6894 ] final  -70.69 input  -60.11 | X-H torsion
[ 7974 7965 7964 7962 ] final   58.30 input  175.53 | X-H torsion
[ 8008 7997 7996 7995 ] final  -94.55 input   59.86 | X-H torsion
[ 10167 10162 10161 10158 ] final -141.85 input  -65.29 | X-H torsion
[ 10718 10713 10712 10709 ] final  159.65 input   66.30 | X-H torsion
[ 10763 10752 10751 10750 ] final   93.52 input  -60.55 | X-H torsion
[ 11005 11000 10999 10996 ] final  166.28 input  -57.11 | X-H torsion

> <Gold.Protein.ActiveResidues>
 VAL166  LYS551  ARG553  GLY616  TRP617  ASP618  TYR619  PRO620  LYS621  CYS622 
 ASP623  PHE694  ASN695  SER759  ASP760  ASP761  ALA762  ILE779  LEU786  VAL792 
 PHE793  MET794  SER795  GLU796  ALA797  LYS798  CYS799  TRP800  GLU811  SER814 

> <Gold.Protein.RotatedAtoms>
  150.7246  134.5417  159.5750 H   0  0  0  0  0  0  0  0  0  0  0  0  # atno 6907 bound_to 6896
  152.2926  134.7701  160.0384 H   0  0  0  0  0  0  0  0  0  0  0  0  # atno 6908 bound_to 6896
  151.8310  133.3373  159.3650 H   0  0  0  0  0  0  0  0  0  0  0  0  # atno 6909 bound_to 6896
  145.9196  139.3719  143.0486 H   0  0  0  0  0  0  0  0  0  0  0  0  # atno 7974 bound_to 7965
  154.7498  140.0488  157.0884 H   0  0  0  0  0  0  0  0  0  0  0  0  # atno 8008 bound_to 7997
  155.0071  140.3131  155.4825 H   0  0  0  0  0  0  0  0  0  0  0  0  # atno 8009 bound_to 7997
  156.2883  140.2191  156.5184 H   0  0  0  0  0  0  0  0  0  0  0  0  # atno 8010 bound_to 7997
  139.8145  143.7658  152.2664 H   0  0  0  0  0  0  0  0  0  0  0  0  # atno 10167 bound_to 10162
  157.1613  131.0588  151.2231 H   0  0  0  0  0  0  0  0  0  0  0  0  # atno 10718 bound_to 10713
  153.2313  135.4322  155.0598 H   0  0  0  0  0  0  0  0  0  0  0  0  # atno 10763 bound_to 10752
  154.8298  135.3380  154.6783 H   0  0  0  0  0  0  0  0  0  0  0  0  # atno 10764 bound_to 10752
  153.7211  135.7017  153.5069 H   0  0  0  0  0  0  0  0  0  0  0  0  # atno 10765 bound_to 10752
  140.2648  134.7873  157.3623 H   0  0  0  0  0  0  0  0  0  0  0  0  # atno 11005 bound_to 11000
  145.8566  140.9499  143.0722 LP  0  0  0  0  0  0  0  0  0  0  0  0  # atno 17320 bound_to 7965
  144.6751  140.0476  143.7479 LP  0  0  0  0  0  0  0  0  0  0  0  0  # atno 17321 bound_to 7965
  139.7817  144.7442  151.0079 LP  0  0  0  0  0  0  0  0  0  0  0  0  # atno 17342 bound_to 10162
  140.7816  143.4535  151.0379 LP  0  0  0  0  0  0  0  0  0  0  0  0  # atno 17343 bound_to 10162
  157.4130  130.7395  149.6853 LP  0  0  0  0  0  0  0  0  0  0  0  0  # atno 17370 bound_to 10713
  155.9753  130.4090  150.3857 LP  0  0  0  0  0  0  0  0  0  0  0  0  # atno 17371 bound_to 10713
  140.1429  134.4948  155.8018 LP  0  0  0  0  0  0  0  0  0  0  0  0  # atno 17394 bound_to 11000
  141.2185  133.6832  156.7243 LP  0  0  0  0  0  0  0  0  0  0  0  0  # atno 17395 bound_to 11000

$$$$
