AV-unprocessed.smi:1878|AV-procd|sdf|7629|dock2
  -GOLD-   22720 9353D 1   1.00000     0.00000
 Structure written by MMmdl.
 35 36  0  0  0  0  0  0  0  0  3 V2000
  151.9963  140.1582  155.1857 O   0  0  0  0  0  0  0  0  0  0  0  0
  151.3910  141.0536  155.7862 C   0  0  0  0  0  0  0  0  0  0  0  0
  151.8985  141.9428  156.6799 N   0  5  0  0  0  0  0  0  0  0  0  0
  151.1252  142.5744  157.7533 C   0  0  0  0  0  0  0  0  0  0  0  0
  151.9915  143.5830  158.5306 C   0  0  0  0  0  0  0  0  0  0  0  0
  151.2221  144.2461  159.3941 F   0  0  0  0  0  0  0  0  0  0  0  0
  152.9492  142.9541  159.2143 F   0  0  0  0  0  0  0  0  0  0  0  0
  152.5513  144.4643  157.7001 F   0  0  0  0  0  0  0  0  0  0  0  0
  150.0681  141.2191  155.6067 N   0  0  0  0  0  0  0  0  0  0  0  0
  149.1832  140.5081  154.7527 C   0  0  0  0  0  0  0  0  0  0  0  0
  147.8255  140.8914  154.7457 C   0  0  0  0  0  0  0  0  0  0  0  0
  146.9142  140.2228  153.9030 C   0  0  0  0  0  0  0  0  0  0  0  0
  147.3804  139.1846  153.0629 C   0  0  0  0  0  0  0  0  0  0  0  0
  146.5587  138.4498  152.1970 N   0  0  0  0  0  0  0  0  0  0  0  0
  146.3048  137.0707  152.5794 C   0  0  0  0  0  0  0  0  0  0  0  0
  145.7451  136.4003  151.3226 C   0  0  0  0  0  0  0  0  0  0  0  0
  146.2475  137.2653  150.1600 C   0  0  0  0  0  0  0  0  0  0  0  0
  147.0288  138.4031  150.8233 C   0  0  0  0  0  0  0  0  0  0  0  0
  148.6907  138.8578  153.0874 N   0  3  0  0  0  0  0  0  0  0  0  0
  149.5953  139.4718  153.8805 C   0  0  0  0  0  0  0  0  0  0  0  0
  150.2502  143.0935  157.3592 H   0  0  0  0  0  0  0  0  0  0  0  0
  150.7365  141.8331  158.4531 H   0  0  0  0  0  0  0  0  0  0  0  0
  149.6374  141.9062  156.2080 H   0  0  0  0  0  0  0  0  0  0  0  0
  147.4799  141.6872  155.3894 H   0  0  0  0  0  0  0  0  0  0  0  0
  145.8722  140.5060  153.9116 H   0  0  0  0  0  0  0  0  0  0  0  0
  147.2264  136.5757  152.8868 H   0  0  0  0  0  0  0  0  0  0  0  0
  145.6005  137.0166  153.4101 H   0  0  0  0  0  0  0  0  0  0  0  0
  146.0680  135.3622  151.2402 H   0  0  0  0  0  0  0  0  0  0  0  0
  144.6546  136.4081  151.3447 H   0  0  0  0  0  0  0  0  0  0  0  0
  146.8727  136.7034  149.4653 H   0  0  0  0  0  0  0  0  0  0  0  0
  145.4007  137.6617  149.5984 H   0  0  0  0  0  0  0  0  0  0  0  0
  146.8604  139.3544  150.3176 H   0  0  0  0  0  0  0  0  0  0  0  0
  148.0989  138.1915  150.7960 H   0  0  0  0  0  0  0  0  0  0  0  0
  150.6095  139.1162  153.7758 H   0  0  0  0  0  0  0  0  0  0  0  0
  149.0160  138.1112  152.4730 H   0  0  0  0  0  0  0  0  0  0  0  0
  1  2  2  0  0  0  0
  2  3  1  0  0  0  0
  2  9  1  0  0  0  0
  3  4  1  0  0  0  0
  4  5  1  0  0  0  0
  4 21  1  0  0  0  0
  4 22  1  0  0  0  0
  5  6  1  0  0  0  0
  5  7  1  0  0  0  0
  5  8  1  0  0  0  0
  9 10  1  0  0  0  0
  9 23  1  0  0  0  0
 10 20  1  0  0  0  0
 10 11  2  0  0  0  0
 11 12  1  0  0  0  0
 11 24  1  0  0  0  0
 12 13  2  0  0  0  0
 12 25  1  0  0  0  0
 13 14  1  0  0  0  0
 13 19  1  0  0  0  0
 14 18  1  0  0  0  0
 14 15  1  0  0  0  0
 15 16  1  0  0  0  0
 15 26  1  0  0  0  0
 15 27  1  0  0  0  0
 16 17  1  0  0  0  0
 16 28  1  0  0  0  0
 16 29  1  0  0  0  0
 17 18  1  0  0  0  0
 17 30  1  0  0  0  0
 17 31  1  0  0  0  0
 18 32  1  0  0  0  0
 18 33  1  0  0  0  0
 19 20  2  0  0  0  0
 19 35  1  0  0  0  0
 20 34  1  0  0  0  0
M  CHG  1   3  -1
M  CHG  1  19   1
M  END
> <s_m_source_file>
AV-unprocessed.smi

> <i_m_source_file_index>
1878

> <i_lp_mmshare_version>
43012

> <i_f3d_flags>
0

> <s_epik_input>
RkMoRikoRilbQ0gyXVtOSF1DKD1PKVtOSF1jMVtjSF1bY0hdYyhuW2NIXTEpTjJbQ0gyXVtDSDJdW0NIMl1bQ0gyXTI=

> <s_epik_cmdline>
J2VwaWtfcHl0aG9uJywgJy1waCcsICc3LjAnLCAnLXRuJywgJzgnLCAnLW1hJywgJzIwMCcsICctbWV0YWxfYmluZGluZycsICctaW1hZScsICc8aW5maWxlLm1hZT4nLCAnLW9tYWUnLCAnPG91dGZpbGUubWFlPic=

> <r_lp_tautomer_probability>
0.999994

> <r_epik_Ionization_Penalty>
8.03425

> <r_epik_Ionization_Penalty_Charging>
8.03425

> <r_epik_Ionization_Penalty_Neutral>
2.43273e-06

> <r_epik_State_Penalty>
7.63947

> <r_epik_Charging_Adjusted_Penalty>
15.6737

> <i_epik_Tot_Q>
0

> <i_epik_Tot_abs_Q>
2

> <r_epik_Metal_State_Penalty>
3.63831

> <b_epik_Metal_Only>
1

> <s_lp_Force_Field>
OPLS_2005

> <r_lp_Energy>
42.9348

> <b_lp_Chiralities_Consistent>
1

> <s_lp_Variant>
AV-unprocessed.smi:1878-4

> <Gold.Version>
5.8.1

> <Gold.Id.Protein>
6NUR|6NUR_protein|mol2

> <Gold.PLP.Fitness>
42.3909

> <Gold.PLP.PLP>
-34.3310

> <Gold.PLP.part.hbond>
-3.0000

> <Gold.PLP.part.metal>
0.0000

> <Gold.PLP.part.buried>
6.3475

> <Gold.PLP.part.nonpolar>
-38.9673

> <Gold.PLP.part.repulsive>
0.5011

> <Gold.PLP.ligand.clash>
0.0019

> <Gold.PLP.ligand.torsion>
0.3611

> <Gold.PLP.Chemscore.Hbond>
2.9120

> <Gold.PLP.Chemscore.CHOScore>
0.0000

> <Gold.PLP.Chemscore.Metal>
0.0000

> <Gold.Chemscore.Hbonds>
donor molecule, donor type, donor heavy atom, donor atom, acceptor molecule, acceptor atom, score
      L1  H    19    35       P1  7948  2.00
      P1  H  7989  7998       L1     1  0.55

> <Gold.PLP.Chemscore.Internal.Correction>
0.0480

> <Gold.Rescore>
     Score         DG    S(hbond)    S(metal)    S(lipo)     H(rot)  DE(clash)    DE(int)     intcor
     10.43     -15.21       1.73        0.00      62.87       1.33       3.20       1.58       ----

> <Gold.Chemscore.Fitness>
10.4288

> <Gold.Chemscore.DG>
-15.2080

> <Gold.Chemscore.ZeroCoef>
-5.4800

> <Gold.Chemscore.Hbond>
1.7309

> <Gold.Chemscore.Metal>
0.0000

> <Gold.Chemscore.Lipo>
62.8724

> <Gold.Chemscore.Internal_Hbond>
0.0000

> <Gold.Chemscore.DEClash>
3.2014

> <Gold.Chemscore.DEInternal>
1.5778

> <Gold.Chemscore.Rot>
1.3317

> <Gold.Chemscore.Internal.Correction>
   9.000000E+99

> <Gold.Chemscore.Hbonds>
donor molecule, donor type, donor heavy atom, donor atom, acceptor molecule, acceptor atom, score
      L1  H    19    35       P1  7948  0.93
      P1  H  7989  7998       L1     1  0.06

> <Gold.Chemscore.Hbond.Weighted>
-5.7812

> <Gold.Chemscore.Metal.Weighted>
-0.0000

> <Gold.Chemscore.Lipo.Weighted>
-7.3561

> <Gold.Chemscore.Internal_Hbond.Weighted>
0.0000

> <Gold.Chemscore.DEClash.Weighted>
3.2014

> <Gold.Chemscore.DEInternal.Weighted>
1.5778

> <Gold.Chemscore.Rot.Weighted>
3.4092

> <Gold.Chemscore.Internal.Correction.Weighted>
   9.000000E+99

> <Gold.Protein.RotatedTorsions>
[ 6907 6896 6895 6894 ] final   -0.33 input  -60.11 | X-H torsion
[ 7974 7965 7964 7962 ] final -152.64 input  175.53 | X-H torsion
[ 8008 7997 7996 7995 ] final   16.53 input   59.86 | X-H torsion
[ 10167 10162 10161 10158 ] final  171.97 input  -65.29 | X-H torsion
[ 10718 10713 10712 10709 ] final -177.93 input   66.30 | X-H torsion
[ 10763 10752 10751 10750 ] final   17.99 input  -60.55 | X-H torsion
[ 11005 11000 10999 10996 ] final  116.76 input  -57.11 | X-H torsion

> <Gold.Protein.ActiveResidues>
 VAL166  LYS551  ARG553  GLY616  TRP617  ASP618  TYR619  PRO620  LYS621  CYS622 
 ASP623  PHE694  ASN695  SER759  ASP760  ASP761  ALA762  ILE779  LEU786  VAL792 
 PHE793  MET794  SER795  GLU796  ALA797  LYS798  CYS799  TRP800  GLU811  SER814 

> <Gold.Protein.RotatedAtoms>
  151.5640  135.1064  159.9979 H   0  0  0  0  0  0  0  0  0  0  0  0  # atno 6907 bound_to 6896
  152.4433  133.7484  159.6691 H   0  0  0  0  0  0  0  0  0  0  0  0  # atno 6908 bound_to 6896
  150.8343  133.7971  159.3109 H   0  0  0  0  0  0  0  0  0  0  0  0  # atno 6909 bound_to 6896
  144.7783  140.4634  143.5857 H   0  0  0  0  0  0  0  0  0  0  0  0  # atno 7974 bound_to 7965
  154.8783  140.2969  155.5440 H   0  0  0  0  0  0  0  0  0  0  0  0  # atno 8008 bound_to 7997
  156.3022  140.2447  156.3716 H   0  0  0  0  0  0  0  0  0  0  0  0  # atno 8009 bound_to 7997
  154.8744  140.0400  157.1733 H   0  0  0  0  0  0  0  0  0  0  0  0  # atno 8010 bound_to 7997
  139.5062  144.3426  152.0003 H   0  0  0  0  0  0  0  0  0  0  0  0  # atno 10167 bound_to 10162
  156.8368  130.9672  151.3103 H   0  0  0  0  0  0  0  0  0  0  0  0  # atno 10718 bound_to 10713
  153.1289  135.6736  153.9211 H   0  0  0  0  0  0  0  0  0  0  0  0  # atno 10763 bound_to 10752
  153.8703  135.3070  155.3443 H   0  0  0  0  0  0  0  0  0  0  0  0  # atno 10764 bound_to 10752
  154.7690  135.4949  153.9691 H   0  0  0  0  0  0  0  0  0  0  0  0  # atno 10765 bound_to 10752
  139.9052  134.9602  156.7248 H   0  0  0  0  0  0  0  0  0  0  0  0  # atno 11005 bound_to 11000
  145.6122  139.1514  143.3069 LP  0  0  0  0  0  0  0  0  0  0  0  0  # atno 17320 bound_to 7965
  146.1976  140.6237  142.9117 LP  0  0  0  0  0  0  0  0  0  0  0  0  # atno 17321 bound_to 7965
  140.2863  144.3803  150.6102 LP  0  0  0  0  0  0  0  0  0  0  0  0  # atno 17342 bound_to 10162
  140.5980  143.2167  151.7127 LP  0  0  0  0  0  0  0  0  0  0  0  0  # atno 17343 bound_to 10162
  157.6377  130.8780  149.9390 LP  0  0  0  0  0  0  0  0  0  0  0  0  # atno 17370 bound_to 10713
  156.0903  130.3664  150.0408 LP  0  0  0  0  0  0  0  0  0  0  0  0  # atno 17371 bound_to 10713
  140.6972  133.9338  155.8002 LP  0  0  0  0  0  0  0  0  0  0  0  0  # atno 17394 bound_to 11000
  141.0398  134.0637  157.3915 LP  0  0  0  0  0  0  0  0  0  0  0  0  # atno 17395 bound_to 11000

$$$$
