AV-unprocessed.smi:334|AV-procd|sdf|2365|dock5
  -GOLD-   2262022283D 1   1.00000     0.00000
 Structure written by MMmdl.
 44 46  0  0  0  0  0  0  0  0  3 V2000
  151.5384  141.2811  157.7626 C   0  0  0  0  0  0  0  0  0  0  0  0
  151.4353  142.5876  156.9576 C   0  0  1  0  0  0  0  0  0  0  0  0
  150.2827  142.5380  156.0657 N   0  0  0  0  0  0  0  0  0  0  0  0
  150.0768  141.6451  155.0829 C   0  0  0  0  0  0  0  0  0  0  0  0
  150.8091  140.6741  154.8975 O   0  0  0  0  0  0  0  0  0  0  0  0
  148.8934  141.8867  154.1295 C   0  0  0  0  0  0  0  0  0  0  0  0
  147.9180  140.7817  154.0856 N   0  0  0  0  0  0  0  0  0  0  0  0
  147.7580  140.1340  152.8443 C   0  0  0  0  0  0  0  0  0  0  0  0
  146.8606  139.1465  152.6614 C   0  0  0  0  0  0  0  0  0  0  0  0
  146.6786  138.5275  151.3675 N   0  3  0  0  0  0  0  0  0  0  0  0
  145.9252  137.5636  151.2775 O   0  0  0  0  0  0  0  0  0  0  0  0
  147.2766  138.9868  150.3991 O   0  5  0  0  0  0  0  0  0  0  0  0
  146.0611  138.7434  153.8018 C   0  0  0  0  0  0  0  0  0  0  0  0
  146.2059  139.3616  154.9905 C   0  0  0  0  0  0  0  0  0  0  0  0
  147.1653  140.4546  155.1802 C   0  0  0  0  0  0  0  0  0  0  0  0
  147.2767  141.0450  156.2541 O   0  0  0  0  0  0  0  0  0  0  0  0
  151.3153  143.8272  157.8760 C   0  0  1  0  0  0  0  0  0  0  0  0
  150.2967  143.6800  159.0282 C   0  0  0  0  0  0  0  0  0  0  0  0
  151.1084  144.1117  160.2645 C   0  0  1  0  0  0  0  0  0  0  0  0
  152.1174  143.0031  160.6193 C   0  0  0  0  0  0  0  0  0  0  0  0
  153.1662  143.1285  159.4993 C   0  0  0  0  0  0  0  0  0  0  0  0
  152.5984  144.2670  158.6283 C   0  0  2  0  0  0  0  0  0  0  0  0
  152.0180  145.1926  159.6919 C   0  0  0  0  0  0  0  0  0  0  0  0
  152.4010  141.2947  158.4290 H   0  0  0  0  0  0  0  0  0  0  0  0
  151.6501  140.4189  157.1047 H   0  0  0  0  0  0  0  0  0  0  0  0
  150.6496  141.1195  158.3736 H   0  0  0  0  0  0  0  0  0  0  0  0
  152.3388  142.6867  156.3537 H   0  0  0  0  0  0  0  0  0  0  0  0
  149.6213  143.2958  156.1510 H   0  0  0  0  0  0  0  0  0  0  0  0
  148.3849  142.7995  154.4436 H   0  0  0  0  0  0  0  0  0  0  0  0
  149.2892  142.1128  153.1384 H   0  0  0  0  0  0  0  0  0  0  0  0
  148.3917  140.5180  152.0572 H   0  0  0  0  0  0  0  0  0  0  0  0
  145.3413  137.9433  153.7108 H   0  0  0  0  0  0  0  0  0  0  0  0
  145.5995  139.0459  155.8268 H   0  0  0  0  0  0  0  0  0  0  0  0
  151.0064  144.6706  157.2553 H   0  0  0  0  0  0  0  0  0  0  0  0
  149.4435  144.3408  158.8695 H   0  0  0  0  0  0  0  0  0  0  0  0
  149.9120  142.6647  159.1333 H   0  0  0  0  0  0  0  0  0  0  0  0
  150.4900  144.4252  161.1059 H   0  0  0  0  0  0  0  0  0  0  0  0
  152.5736  143.1865  161.5930 H   0  0  0  0  0  0  0  0  0  0  0  0
  151.6545  142.0159  160.6466 H   0  0  0  0  0  0  0  0  0  0  0  0
  154.1324  143.4158  159.9161 H   0  0  0  0  0  0  0  0  0  0  0  0
  153.3148  142.1977  158.9528 H   0  0  0  0  0  0  0  0  0  0  0  0
  153.3438  144.7364  157.9859 H   0  0  0  0  0  0  0  0  0  0  0  0
  151.4736  146.0438  159.2788 H   0  0  0  0  0  0  0  0  0  0  0  0
  152.7613  145.5552  160.4044 H   0  0  0  0  0  0  0  0  0  0  0  0
  1  2  1  0  0  0  0
  1 24  1  0  0  0  0
  1 25  1  0  0  0  0
  1 26  1  0  0  0  0
  2  3  1  0  0  0  0
  2 17  1  0  0  0  0
  2 27  1  0  0  0  0
  3  4  1  0  0  0  0
  3 28  1  0  0  0  0
  4  5  2  0  0  0  0
  4  6  1  0  0  0  0
  6  7  1  0  0  0  0
  6 29  1  0  0  0  0
  6 30  1  0  0  0  0
  7 15  1  0  0  0  0
  7  8  1  0  0  0  0
  8  9  2  0  0  0  0
  8 31  1  0  0  0  0
  9 10  1  0  0  0  0
  9 13  1  0  0  0  0
 10 11  2  0  0  0  0
 10 12  1  0  0  0  0
 13 14  2  0  0  0  0
 13 32  1  0  0  0  0
 14 15  1  0  0  0  0
 14 33  1  0  0  0  0
 15 16  2  0  0  0  0
 17 22  1  0  0  0  0
 17 18  1  0  0  0  0
 17 34  1  0  0  0  0
 18 19  1  0  0  0  0
 18 35  1  0  0  0  0
 18 36  1  0  0  0  0
 19 23  1  0  0  0  0
 19 20  1  0  0  0  0
 19 37  1  0  0  0  0
 20 21  1  0  0  0  0
 20 38  1  0  0  0  0
 20 39  1  0  0  0  0
 21 22  1  0  0  0  0
 21 40  1  0  0  0  0
 21 41  1  0  0  0  0
 22 23  1  0  0  0  0
 22 42  1  0  0  0  0
 23 43  1  0  0  0  0
 23 44  1  0  0  0  0
M  CHG  1  10   1
M  CHG  1  12  -1
M  END
> <s_m_source_file>
AV-unprocessed.smi

> <i_m_source_file_index>
334

> <i_lp_mmshare_version>
43012

> <i_f3d_flags>
0

> <s_epik_input>
W0NIMl0xW0NIMl1bQ0BIXShbQ0gyXTIpW0NAQEhdKFtDSDJdW0NAQEhdMTIpW0NASF0oW0NIM10pW05IXUMoPU8pW0NIMl1uM1tjSF1jKFtOK10oPU8pW08tXSlbY0hdW2NIXWMzPU8=

> <s_epik_cmdline>
J2VwaWtfcHl0aG9uJywgJy1waCcsICc3LjAnLCAnLXRuJywgJzgnLCAnLW1hJywgJzIwMCcsICctbWV0YWxfYmluZGluZycsICctaW1hZScsICc8aW5maWxlLm1hZT4nLCAnLW9tYWUnLCAnPG91dGZpbGUubWFlPic=

> <r_lp_tautomer_probability>
1

> <r_epik_Ionization_Penalty>
2.17081e-08

> <r_epik_Ionization_Penalty_Charging>
8.1195e-11

> <r_epik_Ionization_Penalty_Neutral>
2.16269e-08

> <r_epik_State_Penalty>
-0

> <r_epik_Charging_Adjusted_Penalty>
8.1195e-11

> <i_epik_Tot_Q>
0

> <i_epik_Tot_abs_Q>
2

> <r_epik_Metal_State_Penalty>
-0

> <b_epik_Metal_Only>
0

> <s_lp_Force_Field>
OPLS_2005

> <r_lp_Energy>
61.6475

> <b_lp_Chiralities_Consistent>
1

> <s_lp_Variant>
AV-unprocessed.smi:334-4

> <Gold.Version>
5.8.1

> <Gold.Id.Protein>
6NUR|6NUR_protein|mol2

> <Gold.PLP.Fitness>
58.6751

> <Gold.PLP.PLP>
-47.1795

> <Gold.PLP.part.hbond>
-3.0000

> <Gold.PLP.part.metal>
0.0000

> <Gold.PLP.part.buried>
-5.3056

> <Gold.PLP.part.nonpolar>
-40.2240

> <Gold.PLP.part.repulsive>
0.8665

> <Gold.PLP.ligand.clash>
0.0000

> <Gold.PLP.ligand.torsion>
0.2580

> <Gold.PLP.Chemscore.Hbond>
2.9833

> <Gold.PLP.Chemscore.CHOScore>
1.0000

> <Gold.PLP.Chemscore.Metal>
0.0000

> <Gold.Chemscore.Hbonds>
donor molecule, donor type, donor heavy atom, donor atom, acceptor molecule, acceptor atom, score
      L1  H     3    28       P1  8028  1.00
      P1  H  7954  7966       L1    12  0.45
      P1  H  7989  7998       L1     5  0.93

> <Gold.PLP.Chemscore.Internal.Correction>
0.0617

> <Gold.Rescore>
     Score         DG    S(hbond)    S(metal)    S(lipo)     H(rot)  DE(clash)    DE(int)     intcor
     19.08     -22.07       1.99        0.00     123.30       1.75       0.49       2.50       ----

> <Gold.Chemscore.Fitness>
19.0793

> <Gold.Chemscore.DG>
-22.0668

> <Gold.Chemscore.ZeroCoef>
-5.4800

> <Gold.Chemscore.Hbond>
1.9861

> <Gold.Chemscore.Metal>
0.0000

> <Gold.Chemscore.Lipo>
123.3043

> <Gold.Chemscore.Internal_Hbond>
0.0000

> <Gold.Chemscore.DEClash>
0.4857

> <Gold.Chemscore.DEInternal>
2.5019

> <Gold.Chemscore.Rot>
1.7474

> <Gold.Chemscore.Internal.Correction>
   9.000000E+99

> <Gold.Chemscore.Hbonds>
donor molecule, donor type, donor heavy atom, donor atom, acceptor molecule, acceptor atom, score
      L1  H     3    28       P1  8028  0.97
      P1  H  7954  7966       L1    12  0.28
      P1  H  7989  7998       L1     5  0.63

> <Gold.Chemscore.Hbond.Weighted>
-6.6336

> <Gold.Chemscore.Metal.Weighted>
-0.0000

> <Gold.Chemscore.Lipo.Weighted>
-14.4266

> <Gold.Chemscore.Internal_Hbond.Weighted>
0.0000

> <Gold.Chemscore.DEClash.Weighted>
0.4857

> <Gold.Chemscore.DEInternal.Weighted>
2.5019

> <Gold.Chemscore.Rot.Weighted>
4.4733

> <Gold.Chemscore.Internal.Correction.Weighted>
   9.000000E+99

> <Gold.Protein.RotatedTorsions>
[ 6907 6896 6895 6894 ] final   25.59 input  -60.11 | X-H torsion
[ 7974 7965 7964 7962 ] final -165.64 input  175.53 | X-H torsion
[ 8008 7997 7996 7995 ] final  137.17 input   59.86 | X-H torsion
[ 10167 10162 10161 10158 ] final   -2.65 input  -65.29 | X-H torsion
[ 10718 10713 10712 10709 ] final   54.37 input   66.30 | X-H torsion
[ 10763 10752 10751 10750 ] final  -64.34 input  -60.55 | X-H torsion
[ 11005 11000 10999 10996 ] final -140.50 input  -57.11 | X-H torsion

> <Gold.Protein.ActiveResidues>
 VAL166  LYS551  ARG553  GLY616  TRP617  ASP618  TYR619  PRO620  LYS621  CYS622 
 ASP623  PHE694  ASN695  SER759  ASP760  ASP761  ALA762  ILE779  LEU786  VAL792 
 PHE793  MET794  SER795  GLU796  ALA797  LYS798  CYS799  TRP800  GLU811  SER814 

> <Gold.Protein.RotatedAtoms>
  151.9747  135.0059  160.0554 H   0  0  0  0  0  0  0  0  0  0  0  0  # atno 6907 bound_to 6896
  152.1751  133.4664  159.4937 H   0  0  0  0  0  0  0  0  0  0  0  0  # atno 6908 bound_to 6896
  150.6908  134.1822  159.4296 H   0  0  0  0  0  0  0  0  0  0  0  0  # atno 6909 bound_to 6896
  144.7265  140.2784  143.6239 H   0  0  0  0  0  0  0  0  0  0  0  0  # atno 7974 bound_to 7965
  156.3003  140.2426  156.3865 H   0  0  0  0  0  0  0  0  0  0  0  0  # atno 8008 bound_to 7997
  154.8653  140.0418  157.1710 H   0  0  0  0  0  0  0  0  0  0  0  0  # atno 8009 bound_to 7997
  154.8853  140.2955  155.5405 H   0  0  0  0  0  0  0  0  0  0  0  0  # atno 8010 bound_to 7997
  140.6859  143.6633  150.8248 H   0  0  0  0  0  0  0  0  0  0  0  0  # atno 10167 bound_to 10162
  157.5251  130.8591  149.8610 H   0  0  0  0  0  0  0  0  0  0  0  0  # atno 10718 bound_to 10713
  154.3286  135.6181  153.5541 H   0  0  0  0  0  0  0  0  0  0  0  0  # atno 10763 bound_to 10752
  152.9813  135.5741  154.4987 H   0  0  0  0  0  0  0  0  0  0  0  0  # atno 10764 bound_to 10752
  154.4669  135.2858  155.1648 H   0  0  0  0  0  0  0  0  0  0  0  0  # atno 10765 bound_to 10752
  140.8416  134.2395  157.4807 H   0  0  0  0  0  0  0  0  0  0  0  0  # atno 11005 bound_to 11000
  145.7973  139.1950  143.2068 LP  0  0  0  0  0  0  0  0  0  0  0  0  # atno 17320 bound_to 7965
  146.0706  140.7873  142.9690 LP  0  0  0  0  0  0  0  0  0  0  0  0  # atno 17321 bound_to 7965
  140.0339  143.5415  152.2748 LP  0  0  0  0  0  0  0  0  0  0  0  0  # atno 17342 bound_to 10162
  139.6218  144.7630  151.2725 LP  0  0  0  0  0  0  0  0  0  0  0  0  # atno 17343 bound_to 10162
  156.0381  130.3746  150.1507 LP  0  0  0  0  0  0  0  0  0  0  0  0  # atno 17370 bound_to 10713
  156.9694  130.9830  151.3462 LP  0  0  0  0  0  0  0  0  0  0  0  0  # atno 17371 bound_to 10713
  139.8703  134.9638  156.4474 LP  0  0  0  0  0  0  0  0  0  0  0  0  # atno 17394 bound_to 11000
  140.8889  133.7863  155.9549 LP  0  0  0  0  0  0  0  0  0  0  0  0  # atno 17395 bound_to 11000

$$$$
