AV-unprocessed.smi:743|AV-procd|sdf|3560|dock1
  -GOLD-   22720 0553D 1   1.00000     0.00000
 Structure written by MMmdl.
 29 30  0  0  0  0  0  0  0  0  2 V2000
  147.1037  134.5070  156.2767 C   0  0  0  0  0  0  0  0  0  0  0  0
  148.2998  135.3151  156.1716 N   0  0  0  0  0  0  0  0  0  0  0  0
  148.7902  135.9879  155.0741 C   0  0  0  0  0  0  0  0  0  0  0  0
  149.9513  136.6074  155.4513 C   0  0  0  0  0  0  0  0  0  0  0  0
  150.8979  137.4669  154.6372 C   0  0  2  0  0  0  0  0  0  0  0  0
  152.0775  137.8329  155.4258 N   0  0  0  0  0  0  0  0  0  0  0  0
  152.2755  138.9909  156.0834 C   0  0  0  0  0  0  0  0  0  0  0  0
  153.2496  139.1530  156.8137 O   0  0  0  0  0  0  0  0  0  0  0  0
  151.2889  140.1526  155.8751 C   0  0  0  0  0  0  0  0  0  0  0  0
  149.9692  139.7522  155.1906 C   0  0  0  0  0  0  0  0  0  0  0  0
  150.2138  138.7341  154.0688 C   0  0  2  0  0  0  0  0  0  0  0  0
  148.9756  138.4266  153.3287 N   0  3  0  0  0  0  0  0  0  0  0  0
  150.0720  136.2535  156.8268 C   0  0  0  0  0  0  0  0  0  0  0  0
  149.0902  135.4766  157.2513 N   0  0  0  0  0  0  0  0  0  0  0  0
  150.8914  139.1924  153.3466 H   0  0  0  0  0  0  0  0  0  0  0  0
  146.5969  134.4615  155.3125 H   0  0  0  0  0  0  0  0  0  0  0  0
  146.4270  134.9430  157.0122 H   0  0  0  0  0  0  0  0  0  0  0  0
  147.3670  133.4951  156.5862 H   0  0  0  0  0  0  0  0  0  0  0  0
  148.2806  135.9657  154.1216 H   0  0  0  0  0  0  0  0  0  0  0  0
  151.2701  136.8847  153.7931 H   0  0  0  0  0  0  0  0  0  0  0  0
  152.7723  137.1104  155.5513 H   0  0  0  0  0  0  0  0  0  0  0  0
  151.0827  140.6327  156.8321 H   0  0  0  0  0  0  0  0  0  0  0  0
  151.7979  140.8964  155.2613 H   0  0  0  0  0  0  0  0  0  0  0  0
  149.2797  139.3434  155.9306 H   0  0  0  0  0  0  0  0  0  0  0  0
  149.4880  140.6443  154.7882 H   0  0  0  0  0  0  0  0  0  0  0  0
  149.0170  137.4771  152.9866 H   0  0  0  0  0  0  0  0  0  0  0  0
  148.8809  139.0613  152.5487 H   0  0  0  0  0  0  0  0  0  0  0  0
  150.8473  136.5329  157.5249 H   0  0  0  0  0  0  0  0  0  0  0  0
  148.1806  138.5283  153.9435 H   0  0  0  0  0  0  0  0  0  0  0  0
  1  2  1  0  0  0  0
  1 16  1  0  0  0  0
  1 17  1  0  0  0  0
  1 18  1  0  0  0  0
  2 14  1  0  0  0  0
  2  3  1  0  0  0  0
  3  4  2  0  0  0  0
  3 19  1  0  0  0  0
  4  5  1  0  0  0  0
  4 13  1  0  0  0  0
  5 11  1  0  0  0  0
  5  6  1  0  0  0  0
  5 20  1  0  0  0  0
  6  7  1  0  0  0  0
  6 21  1  0  0  0  0
  7  8  2  0  0  0  0
  7  9  1  0  0  0  0
  9 10  1  0  0  0  0
  9 22  1  0  0  0  0
  9 23  1  0  0  0  0
 10 11  1  0  0  0  0
 10 24  1  0  0  0  0
 10 25  1  0  0  0  0
 11 15  1  0  0  0  0
 11 12  1  0  0  0  0
 12 26  1  0  0  0  0
 12 27  1  0  0  0  0
 12 29  1  0  0  0  0
 13 14  2  0  0  0  0
 13 28  1  0  0  0  0
M  CHG  1  12   1
M  END
> <s_m_source_file>
AV-unprocessed.smi

> <i_m_source_file_index>
743

> <i_lp_mmshare_version>
43012

> <i_f3d_flags>
0

> <s_epik_input>
W0NIM11uMVtjSF1jKFtjSF1uMSlbQ0BASF0yW05IXUMoPU8pW0NIMl1bQ0gyXVtDQEBIXTJbTkgyXQ==

> <s_epik_cmdline>
J2VwaWtfcHl0aG9uJywgJy1waCcsICc3LjAnLCAnLXRuJywgJzgnLCAnLW1hJywgJzIwMCcsICctbWV0YWxfYmluZGluZycsICctaW1hZScsICc8aW5maWxlLm1hZT4nLCAnLW9tYWUnLCAnPG91dGZpbGUubWFlPic=

> <r_lp_tautomer_probability>
1

> <r_epik_Ionization_Penalty>
0.00878543

> <r_epik_Ionization_Penalty_Charging>
0.00874185

> <r_epik_Ionization_Penalty_Neutral>
4.35793e-05

> <r_epik_State_Penalty>
0.00660351

> <r_epik_Charging_Adjusted_Penalty>
0.0153454

> <i_epik_Tot_Q>
1

> <i_epik_Tot_abs_Q>
1

> <r_epik_Metal_State_Penalty>
0.00660727

> <b_epik_Metal_Only>
0

> <s_lp_Force_Field>
OPLS_2005

> <r_lp_Energy>
11.1602

> <b_lp_Chiralities_Consistent>
1

> <s_lp_Variant>
AV-unprocessed.smi:743-1

> <Gold.Version>
5.8.1

> <Gold.Id.Protein>
6NUR|6NUR_protein|mol2

> <Gold.PLP.Fitness>
32.8417

> <Gold.PLP.PLP>
-17.8685

> <Gold.PLP.part.hbond>
-2.7630

> <Gold.PLP.part.metal>
0.0000

> <Gold.PLP.part.buried>
-3.2027

> <Gold.PLP.part.nonpolar>
-13.3224

> <Gold.PLP.part.repulsive>
0.2136

> <Gold.PLP.ligand.clash>
0.0000

> <Gold.PLP.ligand.torsion>
0.0228

> <Gold.PLP.Chemscore.Hbond>
4.0000

> <Gold.PLP.Chemscore.CHOScore>
1.0000

> <Gold.PLP.Chemscore.Metal>
0.0000

> <Gold.Chemscore.Hbonds>
donor molecule, donor type, donor heavy atom, donor atom, acceptor molecule, acceptor atom, score
      L1  H    12    26       P1  7948  2.00
      L1  H    12    27       P1  7957  1.00
      P1  H  7997  8010       L1     8  0.99
      L1  C     3    19       P1  7948  1.00

> <Gold.PLP.Chemscore.Internal.Correction>
0.0189

> <Gold.Rescore>
     Score         DG    S(hbond)    S(metal)    S(lipo)     H(rot)  DE(clash)    DE(int)     intcor
     16.73     -17.10       2.93        0.00      37.59       1.00       0.09       0.29       ----

> <Gold.Chemscore.Fitness>
16.7259

> <Gold.Chemscore.DG>
-17.1044

> <Gold.Chemscore.ZeroCoef>
-5.4800

> <Gold.Chemscore.Hbond>
2.9301

> <Gold.Chemscore.Metal>
0.0000

> <Gold.Chemscore.Lipo>
37.5890

> <Gold.Chemscore.Internal_Hbond>
0.0000

> <Gold.Chemscore.DEClash>
0.0869

> <Gold.Chemscore.DEInternal>
0.2916

> <Gold.Chemscore.Rot>
1.0000

> <Gold.Chemscore.Internal.Correction>
   9.000000E+99

> <Gold.Chemscore.Hbonds>
donor molecule, donor type, donor heavy atom, donor atom, acceptor molecule, acceptor atom, score
      L1  H    12    26       P1  7948  0.99
      L1  H    12    27       P1  7957  0.95
      P1  H  7997  8010       L1     8  0.85

> <Gold.Chemscore.Hbond.Weighted>
-9.7864

> <Gold.Chemscore.Metal.Weighted>
-0.0000

> <Gold.Chemscore.Lipo.Weighted>
-4.3979

> <Gold.Chemscore.Internal_Hbond.Weighted>
0.0000

> <Gold.Chemscore.DEClash.Weighted>
0.0869

> <Gold.Chemscore.DEInternal.Weighted>
0.2916

> <Gold.Chemscore.Rot.Weighted>
2.5600

> <Gold.Chemscore.Internal.Correction.Weighted>
   9.000000E+99

> <Gold.Protein.RotatedTorsions>
[ 6907 6896 6895 6894 ] final -126.44 input  -60.11 | X-H torsion
[ 7974 7965 7964 7962 ] final   12.25 input  175.53 | X-H torsion
[ 8008 7997 7996 7995 ] final   78.65 input   59.86 | X-H torsion
[ 10167 10162 10161 10158 ] final   55.32 input  -65.29 | X-H torsion
[ 10718 10713 10712 10709 ] final -164.29 input   66.30 | X-H torsion
[ 10763 10752 10751 10750 ] final   80.10 input  -60.55 | X-H torsion
[ 11005 11000 10999 10996 ] final  164.87 input  -57.11 | X-H torsion

> <Gold.Protein.ActiveResidues>
 VAL166  LYS551  ARG553  GLY616  TRP617  ASP618  TYR619  PRO620  LYS621  CYS622 
 ASP623  PHE694  ASN695  SER759  ASP760  ASP761  ALA762  ILE779  LEU786  VAL792 
 PHE793  MET794  SER795  GLU796  ALA797  LYS798  CYS799  TRP800  GLU811  SER814 

> <Gold.Protein.RotatedAtoms>
  150.8970  133.7168  159.2889 H   0  0  0  0  0  0  0  0  0  0  0  0  # atno 6907 bound_to 6896
  151.4700  135.1043  159.9758 H   0  0  0  0  0  0  0  0  0  0  0  0  # atno 6908 bound_to 6896
  152.4854  133.8312  159.7159 H   0  0  0  0  0  0  0  0  0  0  0  0  # atno 6909 bound_to 6896
  146.2355  139.9364  142.8489 H   0  0  0  0  0  0  0  0  0  0  0  0  # atno 7974 bound_to 7965
  155.8587  140.3455  155.5742 H   0  0  0  0  0  0  0  0  0  0  0  0  # atno 8008 bound_to 7997
  155.7957  140.0878  157.2004 H   0  0  0  0  0  0  0  0  0  0  0  0  # atno 8009 bound_to 7997
  154.4011  140.1475  156.3203 H   0  0  0  0  0  0  0  0  0  0  0  0  # atno 8010 bound_to 7997
  140.2207  144.3791  150.6452 H   0  0  0  0  0  0  0  0  0  0  0  0  # atno 10167 bound_to 10162
  156.6369  130.8953  151.2988 H   0  0  0  0  0  0  0  0  0  0  0  0  # atno 10718 bound_to 10713
  153.1006  135.4815  154.8859 H   0  0  0  0  0  0  0  0  0  0  0  0  # atno 10763 bound_to 10752
  154.7374  135.3074  154.8790 H   0  0  0  0  0  0  0  0  0  0  0  0  # atno 10764 bound_to 10752
  153.9408  135.6834  153.4798 H   0  0  0  0  0  0  0  0  0  0  0  0  # atno 10765 bound_to 10752
  140.2503  134.7982  157.3496 H   0  0  0  0  0  0  0  0  0  0  0  0  # atno 11005 bound_to 11000
  145.1994  140.9848  143.4164 LP  0  0  0  0  0  0  0  0  0  0  0  0  # atno 17320 bound_to 7965
  144.9787  139.3806  143.6273 LP  0  0  0  0  0  0  0  0  0  0  0  0  # atno 17321 bound_to 7965
  140.6257  143.2181  151.6602 LP  0  0  0  0  0  0  0  0  0  0  0  0  # atno 17342 bound_to 10162
  139.5145  144.3408  152.0742 LP  0  0  0  0  0  0  0  0  0  0  0  0  # atno 17343 bound_to 10162
  157.7183  130.9525  150.1338 LP  0  0  0  0  0  0  0  0  0  0  0  0  # atno 17370 bound_to 10713
  156.2190  130.3672  149.8579 LP  0  0  0  0  0  0  0  0  0  0  0  0  # atno 17371 bound_to 10713
  140.1564  134.4784  155.7925 LP  0  0  0  0  0  0  0  0  0  0  0  0  # atno 17394 bound_to 11000
  141.2202  133.6883  156.7469 LP  0  0  0  0  0  0  0  0  0  0  0  0  # atno 17395 bound_to 11000

$$$$
