AV-unprocessed.smi:2131|AV-procd|sdf|8688|dock4
  -GOLD-   2272011443D 1   1.00000     0.00000
 Structure written by MMmdl.
 40 42  0  0  0  0  0  0  0  0  1 V2000
  151.8097  145.8020  159.6872 N   0  0  0  0  0  0  0  0  0  0  0  0
  152.3093  144.7644  159.7993 C   0  0  0  0  0  0  0  0  0  0  0  0
  152.9448  143.4457  159.9421 C   0  0  0  0  0  0  0  0  0  0  0  0
  152.1478  142.3544  159.2585 C   0  0  0  0  0  0  0  0  0  0  0  0
  152.5239  141.0052  159.4049 C   0  0  0  0  0  0  0  0  0  0  0  0
  151.7820  139.9926  158.7670 C   0  0  0  0  0  0  0  0  0  0  0  0
  150.6568  140.3087  157.9782 C   0  0  0  0  0  0  0  0  0  0  0  0
  149.9886  139.2553  157.3921 O   0  0  0  0  0  0  0  0  0  0  0  0
  150.7147  138.0634  157.1211 C   0  0  0  0  0  0  0  0  0  0  0  0
  150.2587  136.9704  158.0987 C   0  0  1  0  0  0  0  0  0  0  0  0
  150.9269  137.1598  159.3304 O   0  0  0  0  0  0  0  0  0  0  0  0
  148.7341  136.9836  158.3253 C   0  0  0  0  0  0  0  0  0  0  0  0
  148.2553  135.7645  158.9512 N   0  0  0  0  0  0  0  0  0  0  0  0
  148.0673  134.5669  158.3638 C   0  0  0  0  0  0  0  0  0  0  0  0
  147.6197  133.5764  159.1300 N   0  0  0  0  0  0  0  0  0  0  0  0
  147.5076  134.2028  160.3595 C   0  0  0  0  0  0  0  0  0  0  0  0
  147.0823  133.7001  161.6099 C   0  0  0  0  0  0  0  0  0  0  0  0
  147.0483  134.5393  162.7431 C   0  0  0  0  0  0  0  0  0  0  0  0
  147.4403  135.8904  162.6449 C   0  0  0  0  0  0  0  0  0  0  0  0
  147.8697  136.4135  161.4100 C   0  0  0  0  0  0  0  0  0  0  0  0
  147.8998  135.5731  160.2816 C   0  0  0  0  0  0  0  0  0  0  0  0
  150.2839  141.6693  157.8353 C   0  0  0  0  0  0  0  0  0  0  0  0
  151.0273  142.6830  158.4708 C   0  0  0  0  0  0  0  0  0  0  0  0
  153.9485  143.4981  159.5198 H   0  0  0  0  0  0  0  0  0  0  0  0
  153.0471  143.2247  161.0048 H   0  0  0  0  0  0  0  0  0  0  0  0
  153.3826  140.7432  160.0057 H   0  0  0  0  0  0  0  0  0  0  0  0
  152.0803  138.9612  158.8843 H   0  0  0  0  0  0  0  0  0  0  0  0
  150.5156  137.7454  156.0961 H   0  0  0  0  0  0  0  0  0  0  0  0
  151.7886  138.2311  157.2217 H   0  0  0  0  0  0  0  0  0  0  0  0
  150.5632  135.9984  157.7088 H   0  0  0  0  0  0  0  0  0  0  0  0
  150.2810  137.3429  159.9958 H   0  0  0  0  0  0  0  0  0  0  0  0
  148.4478  137.8329  158.9476 H   0  0  0  0  0  0  0  0  0  0  0  0
  148.2113  137.1031  157.3757 H   0  0  0  0  0  0  0  0  0  0  0  0
  148.2676  134.4144  157.3131 H   0  0  0  0  0  0  0  0  0  0  0  0
  146.7809  132.6667  161.6972 H   0  0  0  0  0  0  0  0  0  0  0  0
  146.7199  134.1442  163.6930 H   0  0  0  0  0  0  0  0  0  0  0  0
  147.4106  136.5251  163.5184 H   0  0  0  0  0  0  0  0  0  0  0  0
  148.1712  137.4477  161.3306 H   0  0  0  0  0  0  0  0  0  0  0  0
  149.4309  141.9630  157.2427 H   0  0  0  0  0  0  0  0  0  0  0  0
  150.7343  143.7158  158.3516 H   0  0  0  0  0  0  0  0  0  0  0  0
  1  2  3  0  0  0  0
  2  3  1  0  0  0  0
  3  4  1  0  0  0  0
  3 24  1  0  0  0  0
  3 25  1  0  0  0  0
  4 23  1  0  0  0  0
  4  5  2  0  0  0  0
  5  6  1  0  0  0  0
  5 26  1  0  0  0  0
  6  7  2  0  0  0  0
  6 27  1  0  0  0  0
  7  8  1  0  0  0  0
  7 22  1  0  0  0  0
  8  9  1  0  0  0  0
  9 10  1  0  0  0  0
  9 28  1  0  0  0  0
  9 29  1  0  0  0  0
 10 11  1  0  0  0  0
 10 12  1  0  0  0  0
 10 30  1  0  0  0  0
 11 31  1  0  0  0  0
 12 13  1  0  0  0  0
 12 32  1  0  0  0  0
 12 33  1  0  0  0  0
 13 21  1  0  0  0  0
 13 14  1  0  0  0  0
 14 15  2  0  0  0  0
 14 34  1  0  0  0  0
 15 16  1  0  0  0  0
 16 21  2  0  0  0  0
 16 17  1  0  0  0  0
 17 18  2  0  0  0  0
 17 35  1  0  0  0  0
 18 19  1  0  0  0  0
 18 36  1  0  0  0  0
 19 20  2  0  0  0  0
 19 37  1  0  0  0  0
 20 21  1  0  0  0  0
 20 38  1  0  0  0  0
 22 23  2  0  0  0  0
 22 39  1  0  0  0  0
 23 40  1  0  0  0  0
M  END
> <s_m_source_file>
AV-unprocessed.smi

> <i_m_source_file_index>
2131

> <i_lp_mmshare_version>
43012

> <i_f3d_flags>
0

> <s_epik_input>
TiNDW0NIMl1jMVtjSF1bY0hdYyhbY0hdW2NIXTEpT1tDSDJdW0NASF0oW09IXSlbQ0gyXW4oW2NIXW4yKWMoYzIzKVtjSF1bY0hdW2NIXVtjSF0z

> <s_epik_cmdline>
J2VwaWtfcHl0aG9uJywgJy1waCcsICc3LjAnLCAnLXRuJywgJzgnLCAnLW1hJywgJzIwMCcsICctbWV0YWxfYmluZGluZycsICctaW1hZScsICc8aW5maWxlLm1hZT4nLCAnLW9tYWUnLCAnPG91dGZpbGUubWFlPic=

> <r_lp_tautomer_probability>
1

> <r_epik_Ionization_Penalty>
0.0609831

> <r_epik_Ionization_Penalty_Charging>
0

> <r_epik_Ionization_Penalty_Neutral>
0.0609831

> <r_epik_State_Penalty>
0.0529032

> <r_epik_Charging_Adjusted_Penalty>
0.0529032

> <i_epik_Tot_Q>
0

> <i_epik_Tot_abs_Q>
0

> <r_epik_Metal_State_Penalty>
5.53344e-05

> <b_epik_Metal_Only>
0

> <s_lp_Force_Field>
OPLS_2005

> <r_lp_Energy>
14.7938

> <b_lp_Chiralities_Consistent>
1

> <s_lp_Variant>
AV-unprocessed.smi:2131-2

> <Gold.Version>
5.8.1

> <Gold.Id.Protein>
6NUR|6NUR_protein|mol2

> <Gold.PLP.Fitness>
45.4847

> <Gold.PLP.PLP>
-46.2536

> <Gold.PLP.part.hbond>
-1.7335

> <Gold.PLP.part.metal>
0.0000

> <Gold.PLP.part.buried>
-5.8990

> <Gold.PLP.part.nonpolar>
-39.1595

> <Gold.PLP.part.repulsive>
0.1664

> <Gold.PLP.ligand.clash>
0.0000

> <Gold.PLP.ligand.torsion>
1.2748

> <Gold.PLP.Chemscore.Hbond>
0.5728

> <Gold.PLP.Chemscore.CHOScore>
0.0000

> <Gold.PLP.Chemscore.Metal>
0.0000

> <Gold.Chemscore.Hbonds>
donor molecule, donor type, donor heavy atom, donor atom, acceptor molecule, acceptor atom, score
      P1  H  6896  6908       L1    11  0.65

> <Gold.PLP.Chemscore.Internal.Correction>
0.0622

> <Gold.Rescore>
     Score         DG    S(hbond)    S(metal)    S(lipo)     H(rot)  DE(clash)    DE(int)     intcor
     10.94     -11.87       0.00        0.00     114.05       2.72       0.01       0.93       ----

> <Gold.Chemscore.Fitness>
10.9364

> <Gold.Chemscore.DG>
-11.8740

> <Gold.Chemscore.ZeroCoef>
-5.4800

> <Gold.Chemscore.Hbond>
0.0027

> <Gold.Chemscore.Metal>
0.0000

> <Gold.Chemscore.Lipo>
114.0489

> <Gold.Chemscore.Internal_Hbond>
0.0000

> <Gold.Chemscore.DEClash>
0.0088

> <Gold.Chemscore.DEInternal>
0.9288

> <Gold.Chemscore.Rot>
2.7183

> <Gold.Chemscore.Internal.Correction>
   9.000000E+99

> <Gold.Chemscore.Hbonds>
donor molecule, donor type, donor heavy atom, donor atom, acceptor molecule, acceptor atom, score
      P1  H  6896  6908       L1    11  0.07

> <Gold.Chemscore.Hbond.Weighted>
-0.0092

> <Gold.Chemscore.Metal.Weighted>
-0.0000

> <Gold.Chemscore.Lipo.Weighted>
-13.3437

> <Gold.Chemscore.Internal_Hbond.Weighted>
0.0000

> <Gold.Chemscore.DEClash.Weighted>
0.0088

> <Gold.Chemscore.DEInternal.Weighted>
0.9288

> <Gold.Chemscore.Rot.Weighted>
6.9588

> <Gold.Chemscore.Internal.Correction.Weighted>
   9.000000E+99

> <Gold.Protein.RotatedTorsions>
[ 6907 6896 6895 6894 ] final -124.59 input  -60.11 | X-H torsion
[ 7974 7965 7964 7962 ] final   13.46 input  175.53 | X-H torsion
[ 8008 7997 7996 7995 ] final  151.84 input   59.86 | X-H torsion
[ 10167 10162 10161 10158 ] final  105.79 input  -65.29 | X-H torsion
[ 10718 10713 10712 10709 ] final  142.36 input   66.30 | X-H torsion
[ 10763 10752 10751 10750 ] final   91.99 input  -60.55 | X-H torsion
[ 11005 11000 10999 10996 ] final -140.04 input  -57.11 | X-H torsion

> <Gold.Protein.ActiveResidues>
 VAL166  LYS551  ARG553  GLY616  TRP617  ASP618  TYR619  PRO620  LYS621  CYS622 
 ASP623  PHE694  ASN695  SER759  ASP760  ASP761  ALA762  ILE779  LEU786  VAL792 
 PHE793  MET794  SER795  GLU796  ALA797  LYS798  CYS799  TRP800  GLU811  SER814 

> <Gold.Protein.RotatedAtoms>
  150.8783  133.7407  159.2939 H   0  0  0  0  0  0  0  0  0  0  0  0  # atno 6907 bound_to 6896
  151.4997  135.1060  159.9835 H   0  0  0  0  0  0  0  0  0  0  0  0  # atno 6908 bound_to 6896
  152.4743  133.8055  159.7031 H   0  0  0  0  0  0  0  0  0  0  0  0  # atno 6909 bound_to 6896
  146.2329  139.9185  142.8513 H   0  0  0  0  0  0  0  0  0  0  0  0  # atno 7974 bound_to 7965
  156.2656  140.2037  156.6239 H   0  0  0  0  0  0  0  0  0  0  0  0  # atno 8008 bound_to 7997
  154.6735  140.0547  157.0215 H   0  0  0  0  0  0  0  0  0  0  0  0  # atno 8009 bound_to 7997
  155.1102  140.3214  155.4526 H   0  0  0  0  0  0  0  0  0  0  0  0  # atno 8010 bound_to 7997
  139.7063  144.7085  151.1101 H   0  0  0  0  0  0  0  0  0  0  0  0  # atno 10167 bound_to 10162
  157.3814  131.0992  151.0735 H   0  0  0  0  0  0  0  0  0  0  0  0  # atno 10718 bound_to 10713
  153.2142  135.4378  155.0415 H   0  0  0  0  0  0  0  0  0  0  0  0  # atno 10763 bound_to 10752
  154.8216  135.3340  154.7023 H   0  0  0  0  0  0  0  0  0  0  0  0  # atno 10764 bound_to 10752
  153.7459  135.7001  153.5012 H   0  0  0  0  0  0  0  0  0  0  0  0  # atno 10765 bound_to 10752
  140.8461  134.2342  157.4785 H   0  0  0  0  0  0  0  0  0  0  0  0  # atno 11005 bound_to 11000
  145.2159  140.9915  143.4073 LP  0  0  0  0  0  0  0  0  0  0  0  0  # atno 17320 bound_to 7965
  144.9651  139.3939  143.6336 LP  0  0  0  0  0  0  0  0  0  0  0  0  # atno 17321 bound_to 7965
  140.7722  143.5354  150.9374 LP  0  0  0  0  0  0  0  0  0  0  0  0  # atno 17342 bound_to 10162
  139.9037  143.6804  152.3127 LP  0  0  0  0  0  0  0  0  0  0  0  0  # atno 17343 bound_to 10162
  157.1802  130.6306  149.5669 LP  0  0  0  0  0  0  0  0  0  0  0  0  # atno 17370 bound_to 10713
  155.9777  130.4756  150.6608 LP  0  0  0  0  0  0  0  0  0  0  0  0  # atno 17371 bound_to 10713
  139.8703  134.9660  156.4547 LP  0  0  0  0  0  0  0  0  0  0  0  0  # atno 17394 bound_to 11000
  140.8842  133.7896  155.9499 LP  0  0  0  0  0  0  0  0  0  0  0  0  # atno 17395 bound_to 11000

$$$$
