AV-unprocessed.smi:2593|AV-procd|sdf|10164|dock1
  -GOLD-   2272014173D 1   1.00000     0.00000
 Structure written by MMmdl.
 41 43  0  0  0  0  0  0  0  0  2 V2000
  153.8305  138.5328  154.6227 C   0  0  0  0  0  0  0  0  0  0  0  0
  153.5307  138.7152  155.9950 O   0  0  0  0  0  0  0  0  0  0  0  0
  152.1860  139.1119  156.2110 C   0  0  0  0  0  0  0  0  0  0  0  0
  152.0735  139.8234  157.5665 C   0  0  0  0  0  0  0  0  0  0  0  0
  151.6465  141.2227  157.4255 N   0  0  0  0  0  0  0  0  0  0  0  0
  150.9172  141.8357  156.4513 C   0  0  0  0  0  0  0  0  0  0  0  0
  150.2009  141.0795  155.0294 S   0  0  0  0  0  0  0  0  0  0  0  0
  149.1054  139.7953  155.6983 C   0  0  0  0  0  0  0  0  0  0  0  0
  148.4004  139.0775  154.5634 C   0  0  0  0  0  0  0  0  0  0  0  0
  148.1485  139.7371  153.3422 C   0  0  0  0  0  0  0  0  0  0  0  0
  147.4622  139.0366  152.3316 C   0  0  0  0  0  0  0  0  0  0  0  0
  147.0511  137.7130  152.5825 C   0  0  0  0  0  0  0  0  0  0  0  0
  147.3506  137.1428  153.8366 C   0  0  0  0  0  0  0  0  0  0  0  0
  146.9541  135.8398  154.1255 N   0  0  0  0  0  0  0  0  0  0  0  0
  148.0130  137.8048  154.8084 N   0  0  0  0  0  0  0  0  0  0  0  0
  150.8074  143.1516  156.7805 N   0  3  0  0  0  0  0  0  0  0  0  0
  151.4701  143.3858  157.9860 C   0  0  0  0  0  0  0  0  0  0  0  0
  151.6317  144.5539  158.7245 C   0  0  0  0  0  0  0  0  0  0  0  0
  152.3724  144.4492  159.9201 C   0  0  0  0  0  0  0  0  0  0  0  0
  152.9201  143.2196  160.3398 C   0  0  0  0  0  0  0  0  0  0  0  0
  152.7498  142.0413  159.5832 C   0  0  0  0  0  0  0  0  0  0  0  0
  152.0139  142.1526  158.4041 C   0  0  0  0  0  0  0  0  0  0  0  0
  154.8700  138.2241  154.5127 H   0  0  0  0  0  0  0  0  0  0  0  0
  153.6932  139.4588  154.0629 H   0  0  0  0  0  0  0  0  0  0  0  0
  153.2012  137.7593  154.1810 H   0  0  0  0  0  0  0  0  0  0  0  0
  151.8597  139.7822  155.4144 H   0  0  0  0  0  0  0  0  0  0  0  0
  151.5328  138.2384  156.1901 H   0  0  0  0  0  0  0  0  0  0  0  0
  151.3443  139.3109  158.1930 H   0  0  0  0  0  0  0  0  0  0  0  0
  153.0195  139.7940  158.1077 H   0  0  0  0  0  0  0  0  0  0  0  0
  149.6936  139.0856  156.2805 H   0  0  0  0  0  0  0  0  0  0  0  0
  148.3786  140.2448  156.3755 H   0  0  0  0  0  0  0  0  0  0  0  0
  148.4689  140.7568  153.1846 H   0  0  0  0  0  0  0  0  0  0  0  0
  147.2504  139.5077  151.3832 H   0  0  0  0  0  0  0  0  0  0  0  0
  146.5193  137.1526  151.8273 H   0  0  0  0  0  0  0  0  0  0  0  0
  146.4498  135.2820  153.4514 H   0  0  0  0  0  0  0  0  0  0  0  0
  147.2581  135.3751  154.9688 H   0  0  0  0  0  0  0  0  0  0  0  0
  151.2142  145.4976  158.4048 H   0  0  0  0  0  0  0  0  0  0  0  0
  152.5243  145.3301  160.5270 H   0  0  0  0  0  0  0  0  0  0  0  0
  153.4825  143.1788  161.2614 H   0  0  0  0  0  0  0  0  0  0  0  0
  153.1741  141.1044  159.9128 H   0  0  0  0  0  0  0  0  0  0  0  0
  150.3071  143.8331  156.2246 H   0  0  0  0  0  0  0  0  0  0  0  0
  1  2  1  0  0  0  0
  1 23  1  0  0  0  0
  1 24  1  0  0  0  0
  1 25  1  0  0  0  0
  2  3  1  0  0  0  0
  3  4  1  0  0  0  0
  3 26  1  0  0  0  0
  3 27  1  0  0  0  0
  4  5  1  0  0  0  0
  4 28  1  0  0  0  0
  4 29  1  0  0  0  0
  5 22  1  0  0  0  0
  5  6  1  0  0  0  0
  6  7  1  0  0  0  0
  6 16  2  0  0  0  0
  7  8  1  0  0  0  0
  8  9  1  0  0  0  0
  8 30  1  0  0  0  0
  8 31  1  0  0  0  0
  9 15  1  0  0  0  0
  9 10  2  0  0  0  0
 10 11  1  0  0  0  0
 10 32  1  0  0  0  0
 11 12  2  0  0  0  0
 11 33  1  0  0  0  0
 12 13  1  0  0  0  0
 12 34  1  0  0  0  0
 13 14  1  0  0  0  0
 13 15  2  0  0  0  0
 14 35  1  0  0  0  0
 14 36  1  0  0  0  0
 16 17  1  0  0  0  0
 16 41  1  0  0  0  0
 17 22  2  0  0  0  0
 17 18  1  0  0  0  0
 18 19  2  0  0  0  0
 18 37  1  0  0  0  0
 19 20  1  0  0  0  0
 19 38  1  0  0  0  0
 20 21  2  0  0  0  0
 20 39  1  0  0  0  0
 21 22  1  0  0  0  0
 21 40  1  0  0  0  0
M  CHG  1  16   1
M  END
> <s_m_source_file>
AV-unprocessed.smi

> <i_m_source_file_index>
2593

> <i_lp_mmshare_version>
43012

> <i_f3d_flags>
0

> <s_epik_input>
W2NIXTFbY0hdW2NIXVtjSF1jKGMxMiluKFtDSDJdW0NIMl1PW0NIM10pYyhuMilTW0NIMl1jM1tjSF1bY0hdW2NIXWMobjMpW05IMl0=

> <s_epik_cmdline>
J2VwaWtfcHl0aG9uJywgJy1waCcsICc3LjAnLCAnLXRuJywgJzgnLCAnLW1hJywgJzIwMCcsICctbWV0YWxfYmluZGluZycsICctaW1hZScsICc8aW5maWxlLm1hZT4nLCAnLW9tYWUnLCAnPG91dGZpbGUubWFlPic=

> <r_lp_tautomer_probability>
1

> <r_epik_Ionization_Penalty>
1.62501

> <r_epik_Ionization_Penalty_Charging>
1.62036

> <r_epik_Ionization_Penalty_Neutral>
0.00464699

> <r_epik_State_Penalty>
1.7318

> <r_epik_Charging_Adjusted_Penalty>
3.35216

> <i_epik_Tot_Q>
1

> <i_epik_Tot_abs_Q>
1

> <r_epik_Metal_State_Penalty>
1.7649

> <b_epik_Metal_Only>
0

> <s_lp_Force_Field>
OPLS_2005

> <r_lp_Energy>
8.46533

> <b_lp_Chiralities_Consistent>
1

> <s_lp_Variant>
AV-unprocessed.smi:2593-2

> <Gold.Version>
5.8.1

> <Gold.Id.Protein>
6NUR|6NUR_protein|mol2

> <Gold.PLP.Fitness>
49.9316

> <Gold.PLP.PLP>
-43.2388

> <Gold.PLP.part.hbond>
-2.0000

> <Gold.PLP.part.metal>
0.0000

> <Gold.PLP.part.buried>
-4.6554

> <Gold.PLP.part.nonpolar>
-36.9883

> <Gold.PLP.part.repulsive>
0.0866

> <Gold.PLP.ligand.clash>
0.0000

> <Gold.PLP.ligand.torsion>
1.2237

> <Gold.PLP.Chemscore.Hbond>
3.0000

> <Gold.PLP.Chemscore.CHOScore>
0.0000

> <Gold.PLP.Chemscore.Metal>
0.0000

> <Gold.Chemscore.Hbonds>
donor molecule, donor type, donor heavy atom, donor atom, acceptor molecule, acceptor atom, score
      L1  H    16    41       P1  8028  2.00
      P1  H  7997  8009       L1     2  0.83

> <Gold.PLP.Chemscore.Internal.Correction>
0.1403

> <Gold.Rescore>
     Score         DG    S(hbond)    S(metal)    S(lipo)     H(rot)  DE(clash)    DE(int)     intcor
     17.67     -19.69       1.58        0.00     124.21       2.19       0.58       1.43       ----

> <Gold.Chemscore.Fitness>
17.6744

> <Gold.Chemscore.DG>
-19.6871

> <Gold.Chemscore.ZeroCoef>
-5.4800

> <Gold.Chemscore.Hbond>
1.5843

> <Gold.Chemscore.Metal>
0.0000

> <Gold.Chemscore.Lipo>
124.2091

> <Gold.Chemscore.Internal_Hbond>
0.0000

> <Gold.Chemscore.DEClash>
0.5788

> <Gold.Chemscore.DEInternal>
1.4340

> <Gold.Chemscore.Rot>
2.1941

> <Gold.Chemscore.Internal.Correction>
   9.000000E+99

> <Gold.Chemscore.Hbonds>
donor molecule, donor type, donor heavy atom, donor atom, acceptor molecule, acceptor atom, score
      L1  H    16    41       P1  8028  0.99
      P1  H  7997  8009       L1     2  0.13

> <Gold.Chemscore.Hbond.Weighted>
-5.2916

> <Gold.Chemscore.Metal.Weighted>
-0.0000

> <Gold.Chemscore.Lipo.Weighted>
-14.5325

> <Gold.Chemscore.Internal_Hbond.Weighted>
0.0000

> <Gold.Chemscore.DEClash.Weighted>
0.5788

> <Gold.Chemscore.DEInternal.Weighted>
1.4340

> <Gold.Chemscore.Rot.Weighted>
5.6169

> <Gold.Chemscore.Internal.Correction.Weighted>
   9.000000E+99

> <Gold.Protein.RotatedTorsions>
[ 6907 6896 6895 6894 ] final  -81.08 input  -60.11 | X-H torsion
[ 7974 7965 7964 7962 ] final  -51.49 input  175.53 | X-H torsion
[ 8008 7997 7996 7995 ] final -167.30 input   59.86 | X-H torsion
[ 10167 10162 10161 10158 ] final  -18.01 input  -65.29 | X-H torsion
[ 10718 10713 10712 10709 ] final  -30.40 input   66.30 | X-H torsion
[ 10763 10752 10751 10750 ] final  -42.84 input  -60.55 | X-H torsion
[ 11005 11000 10999 10996 ] final -152.12 input  -57.11 | X-H torsion

> <Gold.Protein.ActiveResidues>
 VAL166  LYS551  ARG553  GLY616  TRP617  ASP618  TYR619  PRO620  LYS621  CYS622 
 ASP623  PHE694  ASN695  SER759  ASP760  ASP761  ALA762  ILE779  LEU786  VAL792 
 PHE793  MET794  SER795  GLU796  ALA797  LYS798  CYS799  TRP800  GLU811  SER814 

> <Gold.Protein.RotatedAtoms>
  150.6918  134.3872  159.5059 H   0  0  0  0  0  0  0  0  0  0  0  0  # atno 6907 bound_to 6896
  152.1665  134.8866  160.0547 H   0  0  0  0  0  0  0  0  0  0  0  0  # atno 6908 bound_to 6896
  151.9908  133.3755  159.4180 H   0  0  0  0  0  0  0  0  0  0  0  0  # atno 6909 bound_to 6896
  145.9183  140.7855  142.9660 H   0  0  0  0  0  0  0  0  0  0  0  0  # atno 7974 bound_to 7965
  155.8758  140.1001  157.1519 H   0  0  0  0  0  0  0  0  0  0  0  0  # atno 8008 bound_to 7997
  154.4001  140.1338  156.4197 H   0  0  0  0  0  0  0  0  0  0  0  0  # atno 8009 bound_to 7997
  155.7699  140.3461  155.5244 H   0  0  0  0  0  0  0  0  0  0  0  0  # atno 8010 bound_to 7997
  140.7254  143.4958  150.9932 H   0  0  0  0  0  0  0  0  0  0  0  0  # atno 10167 bound_to 10162
  156.4002  130.4389  149.7328 H   0  0  0  0  0  0  0  0  0  0  0  0  # atno 10718 bound_to 10713
  153.9856  135.6711  153.4752 H   0  0  0  0  0  0  0  0  0  0  0  0  # atno 10763 bound_to 10752
  153.0728  135.4965  154.8338 H   0  0  0  0  0  0  0  0  0  0  0  0  # atno 10764 bound_to 10752
  154.7139  135.3103  154.9116 H   0  0  0  0  0  0  0  0  0  0  0  0  # atno 10765 bound_to 10752
  140.7223  134.3714  157.5181 H   0  0  0  0  0  0  0  0  0  0  0  0  # atno 11005 bound_to 11000
  144.6750  140.1936  143.7394 LP  0  0  0  0  0  0  0  0  0  0  0  0  # atno 17320 bound_to 7965
  145.8582  139.2209  143.1732 LP  0  0  0  0  0  0  0  0  0  0  0  0  # atno 17321 bound_to 7965
  139.8665  143.7247  152.3170 LP  0  0  0  0  0  0  0  0  0  0  0  0  # atno 17342 bound_to 10162
  139.7481  144.7542  151.0549 LP  0  0  0  0  0  0  0  0  0  0  0  0  # atno 17343 bound_to 10162
  156.4347  130.7832  151.2852 LP  0  0  0  0  0  0  0  0  0  0  0  0  # atno 17370 bound_to 10713
  157.7503  131.0143  150.3459 LP  0  0  0  0  0  0  0  0  0  0  0  0  # atno 17371 bound_to 10713
  139.8845  134.8963  156.2698 LP  0  0  0  0  0  0  0  0  0  0  0  0  # atno 17394 bound_to 11000
  140.9993  133.7161  156.0935 LP  0  0  0  0  0  0  0  0  0  0  0  0  # atno 17395 bound_to 11000

$$$$
