AV-unprocessed.smi:1717|AV-procd|sdf|6921|dock10
  -GOLD-   22720 8123D 1   1.00000     0.00000
 Structure written by MMmdl.
 40 41  0  0  0  0  0  0  0  0  3 V2000
  152.2251  140.1390  157.8029 C   0  0  0  0  0  0  0  0  0  0  0  0
  152.4952  139.6120  156.4702 N   0  5  0  0  0  0  0  0  0  0  0  0
  151.5727  139.5910  155.4710 C   0  0  0  0  0  0  0  0  0  0  0  0
  150.8239  140.4771  155.0462 O   0  0  0  0  0  0  0  0  0  0  0  0
  151.5278  138.2188  154.7886 C   0  0  0  0  0  0  0  0  0  0  0  0
  150.3597  137.4438  155.2759 N   0  3  2  0  0  0  0  0  0  0  0  0
  150.5378  135.9812  155.0936 C   0  0  0  0  0  0  0  0  0  0  0  0
  149.3880  135.1958  155.7484 C   0  0  0  0  0  0  0  0  0  0  0  0
  148.0082  135.6451  155.2276 C   0  0  2  0  0  0  0  0  0  0  0  0
  147.7793  135.2201  153.8467 N   0  0  0  0  0  0  0  0  0  0  0  0
  146.7530  134.4643  153.4299 C   0  0  0  0  0  0  0  0  0  0  0  0
  145.8911  134.0135  154.1840 O   0  0  0  0  0  0  0  0  0  0  0  0
  146.7929  134.2745  152.1013 N   0  0  0  0  0  0  0  0  0  0  0  0
  145.8738  133.5367  151.3137 C   0  0  0  0  0  0  0  0  0  0  0  0
  144.4568  133.4349  151.4382 C   0  0  0  0  0  0  0  0  0  0  0  0
  143.9497  132.6391  150.5072 N   0  0  0  0  0  0  0  0  0  0  0  0
  145.0239  132.2327  149.7938 N   0  0  0  0  0  0  0  0  0  0  0  0
  146.2139  132.7536  150.2514 C   0  0  0  0  0  0  0  0  0  0  0  0
  147.8773  137.1730  155.3510 C   0  0  0  0  0  0  0  0  0  0  0  0
  149.0658  137.9112  154.7091 C   0  0  0  0  0  0  0  0  0  0  0  0
  144.9288  131.6063  149.0071 H   0  0  0  0  0  0  0  0  0  0  0  0
  153.0927  140.0516  158.4566 H   0  0  0  0  0  0  0  0  0  0  0  0
  151.4086  139.6155  158.3011 H   0  0  0  0  0  0  0  0  0  0  0  0
  151.9584  141.1962  157.7847 H   0  0  0  0  0  0  0  0  0  0  0  0
  151.5167  138.2847  153.6984 H   0  0  0  0  0  0  0  0  0  0  0  0
  152.4526  137.7053  155.0552 H   0  0  0  0  0  0  0  0  0  0  0  0
  150.6009  135.7497  154.0292 H   0  0  0  0  0  0  0  0  0  0  0  0
  151.4811  135.6670  155.5417 H   0  0  0  0  0  0  0  0  0  0  0  0
  149.5298  134.1256  155.5936 H   0  0  0  0  0  0  0  0  0  0  0  0
  149.4262  135.3489  156.8278 H   0  0  0  0  0  0  0  0  0  0  0  0
  147.2338  135.1907  155.8485 H   0  0  0  0  0  0  0  0  0  0  0  0
  148.4376  135.5468  153.1547 H   0  0  0  0  0  0  0  0  0  0  0  0
  147.5500  134.7133  151.5987 H   0  0  0  0  0  0  0  0  0  0  0  0
  143.7880  133.8938  152.1507 H   0  0  0  0  0  0  0  0  0  0  0  0
  147.1656  132.5276  149.7934 H   0  0  0  0  0  0  0  0  0  0  0  0
  146.9407  137.5112  154.9058 H   0  0  0  0  0  0  0  0  0  0  0  0
  147.8238  137.4424  156.4067 H   0  0  0  0  0  0  0  0  0  0  0  0
  148.9443  138.9816  154.8757 H   0  0  0  0  0  0  0  0  0  0  0  0
  149.0663  137.7628  153.6283 H   0  0  0  0  0  0  0  0  0  0  0  0
  150.3212  137.6053  156.2723 H   0  0  0  0  0  0  0  0  0  0  0  0
  1  2  1  0  0  0  0
  1 22  1  0  0  0  0
  1 23  1  0  0  0  0
  1 24  1  0  0  0  0
  2  3  1  0  0  0  0
  3  4  2  0  0  0  0
  3  5  1  0  0  0  0
  5  6  1  0  0  0  0
  5 25  1  0  0  0  0
  5 26  1  0  0  0  0
  6 20  1  0  0  0  0
  6  7  1  0  0  0  0
  6 40  1  0  0  0  0
  7  8  1  0  0  0  0
  7 27  1  0  0  0  0
  7 28  1  0  0  0  0
  8  9  1  0  0  0  0
  8 29  1  0  0  0  0
  8 30  1  0  0  0  0
  9 10  1  0  0  0  0
  9 19  1  0  0  0  0
  9 31  1  0  0  0  0
 10 11  1  0  0  0  0
 10 32  1  0  0  0  0
 11 12  2  0  0  0  0
 11 13  1  0  0  0  0
 13 14  1  0  0  0  0
 13 33  1  0  0  0  0
 14 18  2  0  0  0  0
 14 15  1  0  0  0  0
 15 16  2  0  0  0  0
 15 34  1  0  0  0  0
 16 17  1  0  0  0  0
 17 21  1  0  0  0  0
 17 18  1  0  0  0  0
 18 35  1  0  0  0  0
 19 20  1  0  0  0  0
 19 36  1  0  0  0  0
 19 37  1  0  0  0  0
 20 38  1  0  0  0  0
 20 39  1  0  0  0  0
M  CHG  1   2  -1
M  CHG  1   6   1
M  END
> <s_m_source_file>
AV-unprocessed.smi

> <i_m_source_file_index>
1717

> <i_lp_mmshare_version>
43012

> <i_f3d_flags>
0

> <s_epik_input>
W0NIM11bTkhdQyg9TylbQ0gyXU4xW0NIMl1bQ0gyXVtDSF0oW0NIMl1bQ0gyXTEpW05IXUMoPU8pW05IXWMyW2NIXW5bbkhdW2NIXTI=

> <s_epik_cmdline>
J2VwaWtfcHl0aG9uJywgJy1waCcsICc3LjAnLCAnLXRuJywgJzgnLCAnLW1hJywgJzIwMCcsICctbWV0YWxfYmluZGluZycsICctaW1hZScsICc8aW5maWxlLm1hZT4nLCAnLW9tYWUnLCAnPG91dGZpbGUubWFlPic=

> <r_lp_tautomer_probability>
0.5

> <r_epik_Ionization_Penalty>
6.1395

> <r_epik_Ionization_Penalty_Charging>
6.13946

> <r_epik_Ionization_Penalty_Neutral>
4.21226e-05

> <r_epik_State_Penalty>
6.9595

> <r_epik_Charging_Adjusted_Penalty>
13.099

> <i_epik_Tot_Q>
0

> <i_epik_Tot_abs_Q>
2

> <r_epik_Metal_State_Penalty>
2.89141

> <b_epik_Metal_Only>
1

> <s_lp_Force_Field>
OPLS_2005

> <r_lp_Energy>
13.1948

> <b_lp_Chiralities_Consistent>
1

> <s_lp_Variant>
AV-unprocessed.smi:1717-5

> <Gold.Version>
5.8.1

> <Gold.Id.Protein>
6NUR|6NUR_protein|mol2

> <Gold.PLP.Fitness>
41.7516

> <Gold.PLP.PLP>
-26.6008

> <Gold.PLP.part.hbond>
-3.8867

> <Gold.PLP.part.metal>
0.0000

> <Gold.PLP.part.buried>
-4.9588

> <Gold.PLP.part.nonpolar>
-18.0771

> <Gold.PLP.part.repulsive>
0.5464

> <Gold.PLP.ligand.clash>
0.0000

> <Gold.PLP.ligand.torsion>
1.1492

> <Gold.PLP.Chemscore.Hbond>
4.8072

> <Gold.PLP.Chemscore.CHOScore>
1.0000

> <Gold.PLP.Chemscore.Metal>
0.0000

> <Gold.Chemscore.Hbonds>
donor molecule, donor type, donor heavy atom, donor atom, acceptor molecule, acceptor atom, score
      L1  H    10    32       P1  7948  1.00
      L1  H    13    33       P1  7948  0.83
      P1  H  7989  7998       L1     4  1.00
      P1  H  7997  8010       L1     2  2.00
      L1  C    18    35       P1 10747  1.00

> <Gold.PLP.Chemscore.Internal.Correction>
0.0275

> <Gold.Rescore>
     Score         DG    S(hbond)    S(metal)    S(lipo)     H(rot)  DE(clash)    DE(int)     intcor
     16.54     -17.77       3.45        0.00      44.99       1.75       0.04       1.18       ----

> <Gold.Chemscore.Fitness>
16.5410

> <Gold.Chemscore.DG>
-17.7660

> <Gold.Chemscore.ZeroCoef>
-5.4800

> <Gold.Chemscore.Hbond>
3.4474

> <Gold.Chemscore.Metal>
0.0000

> <Gold.Chemscore.Lipo>
44.9877

> <Gold.Chemscore.Internal_Hbond>
0.0000

> <Gold.Chemscore.DEClash>
0.0442

> <Gold.Chemscore.DEInternal>
1.1808

> <Gold.Chemscore.Rot>
1.7546

> <Gold.Chemscore.Internal.Correction>
   9.000000E+99

> <Gold.Chemscore.Hbonds>
donor molecule, donor type, donor heavy atom, donor atom, acceptor molecule, acceptor atom, score
      L1  H    10    32       P1  7948  0.93
      L1  H    13    33       P1  7948  0.30
      P1  H  7989  7998       L1     4  0.29
      P1  H  7997  8010       L1     2  0.30

> <Gold.Chemscore.Hbond.Weighted>
-11.5142

> <Gold.Chemscore.Metal.Weighted>
-0.0000

> <Gold.Chemscore.Lipo.Weighted>
-5.2636

> <Gold.Chemscore.Internal_Hbond.Weighted>
0.0000

> <Gold.Chemscore.DEClash.Weighted>
0.0442

> <Gold.Chemscore.DEInternal.Weighted>
1.1808

> <Gold.Chemscore.Rot.Weighted>
4.4917

> <Gold.Chemscore.Internal.Correction.Weighted>
   9.000000E+99

> <Gold.Protein.RotatedTorsions>
[ 6907 6896 6895 6894 ] final   55.66 input  -60.11 | X-H torsion
[ 7974 7965 7964 7962 ] final -138.07 input  175.53 | X-H torsion
[ 8008 7997 7996 7995 ] final   83.55 input   59.86 | X-H torsion
[ 10167 10162 10161 10158 ] final  -95.56 input  -65.29 | X-H torsion
[ 10718 10713 10712 10709 ] final   41.73 input   66.30 | X-H torsion
[ 10763 10752 10751 10750 ] final -136.01 input  -60.55 | X-H torsion
[ 11005 11000 10999 10996 ] final -115.09 input  -57.11 | X-H torsion

> <Gold.Protein.ActiveResidues>
 VAL166  LYS551  ARG553  GLY616  TRP617  ASP618  TYR619  PRO620  LYS621  CYS622 
 ASP623  PHE694  ASN695  SER759  ASP760  ASP761  ALA762  ILE779  LEU786  VAL792 
 PHE793  MET794  SER795  GLU796  ALA797  LYS798  CYS799  TRP800  GLU811  SER814 

> <Gold.Protein.RotatedAtoms>
  152.3560  134.6939  160.0221 H   0  0  0  0  0  0  0  0  0  0  0  0  # atno 6907 bound_to 6896
  151.7277  133.3311  159.3340 H   0  0  0  0  0  0  0  0  0  0  0  0  # atno 6908 bound_to 6896
  150.7572  134.6325  159.6238 H   0  0  0  0  0  0  0  0  0  0  0  0  # atno 6909 bound_to 6896
  144.8789  140.6478  143.5219 H   0  0  0  0  0  0  0  0  0  0  0  0  # atno 7974 bound_to 7965
  155.9254  140.3418  155.6206 H   0  0  0  0  0  0  0  0  0  0  0  0  # atno 8008 bound_to 7997
  155.7222  140.0785  157.2344 H   0  0  0  0  0  0  0  0  0  0  0  0  # atno 8009 bound_to 7997
  154.4076  140.1603  156.2402 H   0  0  0  0  0  0  0  0  0  0  0  0  # atno 8010 bound_to 7997
  140.3029  143.3151  152.0229 H   0  0  0  0  0  0  0  0  0  0  0  0  # atno 10167 bound_to 10162
  157.3969  130.7838  149.7316 H   0  0  0  0  0  0  0  0  0  0  0  0  # atno 10718 bound_to 10713
  154.8692  135.3686  154.4991 H   0  0  0  0  0  0  0  0  0  0  0  0  # atno 10763 bound_to 10752
  153.5633  135.7022  153.5542 H   0  0  0  0  0  0  0  0  0  0  0  0  # atno 10764 bound_to 10752
  153.3608  135.4047  155.1680 H   0  0  0  0  0  0  0  0  0  0  0  0  # atno 10765 bound_to 10752
  141.0510  133.9687  157.2837 H   0  0  0  0  0  0  0  0  0  0  0  0  # atno 11005 bound_to 11000
  145.3991  139.1601  143.4187 LP  0  0  0  0  0  0  0  0  0  0  0  0  # atno 17320 bound_to 7965
  146.2981  140.4087  142.8714 LP  0  0  0  0  0  0  0  0  0  0  0  0  # atno 17321 bound_to 7965
  139.4911  144.6442  151.6813 LP  0  0  0  0  0  0  0  0  0  0  0  0  # atno 17342 bound_to 10162
  140.5635  144.0228  150.6181 LP  0  0  0  0  0  0  0  0  0  0  0  0  # atno 17343 bound_to 10162
  155.9813  130.4021  150.3481 LP  0  0  0  0  0  0  0  0  0  0  0  0  # atno 17370 bound_to 10713
  157.1604  131.0343  151.2843 LP  0  0  0  0  0  0  0  0  0  0  0  0  # atno 17371 bound_to 10713
  139.9350  135.0197  156.8526 LP  0  0  0  0  0  0  0  0  0  0  0  0  # atno 17394 bound_to 11000
  140.6056  134.0131  155.7555 LP  0  0  0  0  0  0  0  0  0  0  0  0  # atno 17395 bound_to 11000

$$$$
