AV-unprocessed.smi:107|AV-procd|sdf|1016|dock5
  -GOLD-   2262018 13D 1   1.00000     0.00000
 Structure written by MMmdl.
 31 32  0  0  0  0  0  0  0  0  1 V2000
  150.8661  144.8968  158.4973 C   0  0  0  0  0  0  0  0  0  0  0  0
  151.4890  143.5113  158.4570 C   0  0  0  0  0  0  0  0  0  0  0  0
  151.2566  142.6384  157.4437 C   0  0  0  0  0  0  0  0  0  0  0  0
  151.8072  141.3662  157.3793 N   0  0  0  0  0  0  0  0  0  0  0  0
  151.5025  140.4489  156.2160 C   0  0  1  0  0  0  0  0  0  0  0  0
  150.7903  139.1793  156.6937 C   0  0  0  0  0  0  0  0  0  0  0  0
  149.3604  139.4216  156.2480 C   0  0  2  0  0  0  0  0  0  0  0  0
  148.7020  138.2024  155.9709 O   0  0  0  0  0  0  0  0  0  0  0  0
  149.5473  140.2824  154.9962 C   0  0  1  0  0  0  0  0  0  0  0  0
  148.3241  141.1473  154.6563 C   0  0  0  0  0  0  0  0  0  0  0  0
  148.7423  142.4195  154.2100 O   0  0  0  0  0  0  0  0  0  0  0  0
  150.6501  141.1179  155.3357 O   0  0  0  0  0  0  0  0  0  0  0  0
  152.6539  140.9268  158.4190 C   0  0  0  0  0  0  0  0  0  0  0  0
  153.1640  139.8075  158.4453 O   0  0  0  0  0  0  0  0  0  0  0  0
  152.8966  141.8244  159.4576 N   0  0  0  0  0  0  0  0  0  0  0  0
  152.3686  143.1137  159.5595 C   0  0  0  0  0  0  0  0  0  0  0  0
  152.6578  143.8135  160.5286 O   0  0  0  0  0  0  0  0  0  0  0  0
  153.5041  141.5148  160.2020 H   0  0  0  0  0  0  0  0  0  0  0  0
  150.2442  145.0864  157.6222 H   0  0  0  0  0  0  0  0  0  0  0  0
  151.6414  145.6629  158.5285 H   0  0  0  0  0  0  0  0  0  0  0  0
  150.2395  145.0069  159.3831 H   0  0  0  0  0  0  0  0  0  0  0  0
  150.6047  142.9554  156.6434 H   0  0  0  0  0  0  0  0  0  0  0  0
  152.4396  140.2418  155.6977 H   0  0  0  0  0  0  0  0  0  0  0  0
  151.2283  138.3276  156.1709 H   0  0  0  0  0  0  0  0  0  0  0  0
  150.8953  139.0234  157.7684 H   0  0  0  0  0  0  0  0  0  0  0  0
  148.8155  139.9696  157.0176 H   0  0  0  0  0  0  0  0  0  0  0  0
  148.1736  137.9680  156.7187 H   0  0  0  0  0  0  0  0  0  0  0  0
  149.8307  139.6467  154.1546 H   0  0  0  0  0  0  0  0  0  0  0  0
  147.7531  140.6894  153.8481 H   0  0  0  0  0  0  0  0  0  0  0  0
  147.6552  141.2433  155.5122 H   0  0  0  0  0  0  0  0  0  0  0  0
  148.7991  142.9965  154.9562 H   0  0  0  0  0  0  0  0  0  0  0  0
  1  2  1  0  0  0  0
  1 19  1  0  0  0  0
  1 20  1  0  0  0  0
  1 21  1  0  0  0  0
  2 16  1  0  0  0  0
  2  3  2  0  0  0  0
  3  4  1  0  0  0  0
  3 22  1  0  0  0  0
  4  5  1  0  0  0  0
  4 13  1  0  0  0  0
  5 12  1  0  0  0  0
  5  6  1  0  0  0  0
  5 23  1  0  0  0  0
  6  7  1  0  0  0  0
  6 24  1  0  0  0  0
  6 25  1  0  0  0  0
  7  8  1  0  0  0  0
  7  9  1  0  0  0  0
  7 26  1  0  0  0  0
  8 27  1  0  0  0  0
  9 10  1  0  0  0  0
  9 12  1  0  0  0  0
  9 28  1  0  0  0  0
 10 11  1  0  0  0  0
 10 29  1  0  0  0  0
 10 30  1  0  0  0  0
 11 31  1  0  0  0  0
 13 14  2  0  0  0  0
 13 15  1  0  0  0  0
 15 18  1  0  0  0  0
 15 16  1  0  0  0  0
 16 17  2  0  0  0  0
M  END
> <s_m_source_file>
AV-unprocessed.smi

> <i_m_source_file_index>
107

> <i_lp_mmshare_version>
43012

> <i_f3d_flags>
0

> <s_epik_input>
Tz1jMVtuSF1jKD1PKW4oW2NIXWMxW0NIM10pW0NAQEhdMltDSDJdW0NAQEhdKFtPSF0pW0NASF0oTzIpW0NIMl1bT0hd

> <s_epik_cmdline>
J2VwaWtfcHl0aG9uJywgJy1waCcsICc3LjAnLCAnLXRuJywgJzgnLCAnLW1hJywgJzIwMCcsICctbWV0YWxfYmluZGluZycsICctaW1hZScsICc8aW5maWxlLm1hZT4nLCAnLW9tYWUnLCAnPG91dGZpbGUubWFlPic=

> <r_lp_tautomer_probability>
0.999537

> <r_epik_Ionization_Penalty>
0.00121888

> <r_epik_Ionization_Penalty_Charging>
0.00121876

> <r_epik_Ionization_Penalty_Neutral>
1.19946e-07

> <r_epik_State_Penalty>
0.000805124

> <r_epik_Charging_Adjusted_Penalty>
0.00202389

> <i_epik_Tot_Q>
0

> <i_epik_Tot_abs_Q>
0

> <r_epik_Metal_State_Penalty>
0.662472

> <b_epik_Metal_Only>
0

> <s_epik_Chemistry_Notes>
This compound contains an acetal/aminal-like group ( X-CH(R)-Y where X, Y are N, S, or O) that may be acid/base labile, releasing an aldehyde.

> <s_lp_Force_Field>
OPLS_2005

> <r_lp_Energy>
24.9253

> <b_lp_Chiralities_Consistent>
1

> <s_lp_Variant>
AV-unprocessed.smi:107-4

> <Gold.Version>
5.8.1

> <Gold.Id.Protein>
6NUR|6NUR_protein|mol2

> <Gold.PLP.Fitness>
37.3623

> <Gold.PLP.PLP>
-28.1473

> <Gold.PLP.part.hbond>
-4.7315

> <Gold.PLP.part.metal>
0.0000

> <Gold.PLP.part.buried>
-2.3837

> <Gold.PLP.part.nonpolar>
-19.9227

> <Gold.PLP.part.repulsive>
0.2112

> <Gold.PLP.ligand.clash>
0.0000

> <Gold.PLP.ligand.torsion>
0.5127

> <Gold.PLP.Chemscore.Hbond>
2.4105

> <Gold.PLP.Chemscore.CHOScore>
1.0000

> <Gold.PLP.Chemscore.Metal>
0.0000

> <Gold.Chemscore.Hbonds>
donor molecule, donor type, donor heavy atom, donor atom, acceptor molecule, acceptor atom, score
      L1  H    11    31       P1  8028  0.98
      P1  H  7989  7998       L1    12  0.45
      P1  H  7997  8010       L1    14  0.95
      P1  H  8011  8017       L1    11  0.13
      L1  C     3    22       P1  8028  0.71

> <Gold.PLP.Chemscore.Internal.Correction>
0.0089

> <Gold.Rescore>
     Score         DG    S(hbond)    S(metal)    S(lipo)     H(rot)  DE(clash)    DE(int)     intcor
      9.78     -10.20       1.83        0.00      47.70       2.73       0.04       0.38       ----

> <Gold.Chemscore.Fitness>
9.7837

> <Gold.Chemscore.DG>
-10.1958

> <Gold.Chemscore.ZeroCoef>
-5.4800

> <Gold.Chemscore.Hbond>
1.8299

> <Gold.Chemscore.Metal>
0.0000

> <Gold.Chemscore.Lipo>
47.7000

> <Gold.Chemscore.Internal_Hbond>
0.0000

> <Gold.Chemscore.DEClash>
0.0366

> <Gold.Chemscore.DEInternal>
0.3755

> <Gold.Chemscore.Rot>
2.7253

> <Gold.Chemscore.Internal.Correction>
   9.000000E+99

> <Gold.Chemscore.Hbonds>
donor molecule, donor type, donor heavy atom, donor atom, acceptor molecule, acceptor atom, score
      L1  H    11    31       P1  8028  0.93
      P1  H  7989  7998       L1    12  0.03
      P1  H  7997  8010       L1    14  0.20
      P1  H  8011  8017       L1    11  0.13

> <Gold.Chemscore.Hbond.Weighted>
-6.1117

> <Gold.Chemscore.Metal.Weighted>
-0.0000

> <Gold.Chemscore.Lipo.Weighted>
-5.5809

> <Gold.Chemscore.Internal_Hbond.Weighted>
0.0000

> <Gold.Chemscore.DEClash.Weighted>
0.0366

> <Gold.Chemscore.DEInternal.Weighted>
0.3755

> <Gold.Chemscore.Rot.Weighted>
6.9769

> <Gold.Chemscore.Internal.Correction.Weighted>
   9.000000E+99

> <Gold.Protein.RotatedTorsions>
[ 6907 6896 6895 6894 ] final  -66.64 input  -60.11 | X-H torsion
[ 7974 7965 7964 7962 ] final -109.21 input  175.53 | X-H torsion
[ 8008 7997 7996 7995 ] final   36.84 input   59.86 | X-H torsion
[ 10167 10162 10161 10158 ] final   -4.79 input  -65.29 | X-H torsion
[ 10718 10713 10712 10709 ] final -119.17 input   66.30 | X-H torsion
[ 10763 10752 10751 10750 ] final   12.35 input  -60.55 | X-H torsion
[ 11005 11000 10999 10996 ] final   37.87 input  -57.11 | X-H torsion

> <Gold.Protein.ActiveResidues>
 VAL166  LYS551  ARG553  GLY616  TRP617  ASP618  TYR619  PRO620  LYS621  CYS622 
 ASP623  PHE694  ASN695  SER759  ASP760  ASP761  ALA762  ILE779  LEU786  VAL792 
 PHE793  MET794  SER795  GLU796  ALA797  LYS798  CYS799  TRP800  GLU811  SER814 

> <Gold.Protein.RotatedAtoms>
  150.7454  134.5993  159.6027 H   0  0  0  0  0  0  0  0  0  0  0  0  # atno 6907 bound_to 6896
  152.3359  134.7196  160.0286 H   0  0  0  0  0  0  0  0  0  0  0  0  # atno 6908 bound_to 6896
  151.7664  133.3302  159.3469 H   0  0  0  0  0  0  0  0  0  0  0  0  # atno 6909 bound_to 6896
  145.1833  140.8981  143.3467 H   0  0  0  0  0  0  0  0  0  0  0  0  # atno 7974 bound_to 7965
  155.1941  140.3310  155.4354 H   0  0  0  0  0  0  0  0  0  0  0  0  # atno 8008 bound_to 7997
  156.2431  140.1905  156.6982 H   0  0  0  0  0  0  0  0  0  0  0  0  # atno 8009 bound_to 7997
  154.6186  140.0598  156.9572 H   0  0  0  0  0  0  0  0  0  0  0  0  # atno 8010 bound_to 7997
  140.6940  143.6383  150.8459 H   0  0  0  0  0  0  0  0  0  0  0  0  # atno 10167 bound_to 10162
  156.1161  130.6286  150.9382 H   0  0  0  0  0  0  0  0  0  0  0  0  # atno 10718 bound_to 10713
  153.1831  135.6831  153.8451 H   0  0  0  0  0  0  0  0  0  0  0  0  # atno 10763 bound_to 10752
  153.7776  135.3187  155.3362 H   0  0  0  0  0  0  0  0  0  0  0  0  # atno 10764 bound_to 10752
  154.8072  135.4741  154.0518 H   0  0  0  0  0  0  0  0  0  0  0  0  # atno 10765 bound_to 10752
  140.2183  134.3672  155.8017 H   0  0  0  0  0  0  0  0  0  0  0  0  # atno 11005 bound_to 11000
  145.0114  139.3506  143.6118 LP  0  0  0  0  0  0  0  0  0  0  0  0  # atno 17320 bound_to 7965
  146.3449  139.9378  142.8745 LP  0  0  0  0  0  0  0  0  0  0  0  0  # atno 17321 bound_to 7965
  140.0099  143.5653  152.2843 LP  0  0  0  0  0  0  0  0  0  0  0  0  # atno 17342 bound_to 10162
  139.6374  144.7651  151.2410 LP  0  0  0  0  0  0  0  0  0  0  0  0  # atno 17343 bound_to 10162
  157.6344  131.0917  150.8378 LP  0  0  0  0  0  0  0  0  0  0  0  0  # atno 17370 bound_to 10713
  156.8481  130.5071  149.5314 LP  0  0  0  0  0  0  0  0  0  0  0  0  # atno 17371 bound_to 10713
  141.2224  133.7180  156.8533 LP  0  0  0  0  0  0  0  0  0  0  0  0  # atno 17394 bound_to 11000
  140.1877  134.8988  157.3023 LP  0  0  0  0  0  0  0  0  0  0  0  0  # atno 17395 bound_to 11000

$$$$
