AV-unprocessed.smi:61|AV-procd|sdf|600|dock5
  -GOLD-   2262016493D 1   1.00000     0.00000
 Structure written by MMmdl.
 29 30  0  0  0  0  0  0  0  0  2 V2000
  146.4955  138.1717  151.1111 N   0  0  0  0  0  0  0  0  0  0  0  0
  145.6170  137.1215  151.2183 C   0  0  0  0  0  0  0  0  0  0  0  0
  144.3503  137.3840  151.5559 N   0  0  0  0  0  0  0  0  0  0  0  0
  143.4819  136.3596  151.6652 C   0  0  0  0  0  0  0  0  0  0  0  0
  143.8786  135.0327  151.4304 C   0  0  0  0  0  0  0  0  0  0  0  0
  145.2288  134.8239  151.0716 C   0  0  0  0  0  0  0  0  0  0  0  0
  145.7724  133.5584  150.8058 N   0  0  0  0  0  0  0  0  0  0  0  0
  146.7975  133.1418  151.7561 C   0  0  0  0  0  0  0  0  0  0  0  0
  146.6441  131.6247  151.9347 C   0  0  0  0  0  0  0  0  0  0  0  0
  145.6786  131.2094  150.8268 C   0  0  0  0  0  0  0  0  0  0  0  0
  144.8221  132.4637  150.6535 C   0  0  2  0  0  0  0  0  0  0  0  0
  144.0559  132.5285  149.3196 C   0  0  0  0  0  0  0  0  0  0  0  0
  142.8326  131.8337  149.4311 O   0  0  0  0  0  0  0  0  0  0  0  0
  146.0708  135.8832  150.9791 N   0  3  0  0  0  0  0  0  0  0  0  0
  147.4594  138.0076  150.8577 H   0  0  0  0  0  0  0  0  0  0  0  0
  146.1912  139.1186  151.2857 H   0  0  0  0  0  0  0  0  0  0  0  0
  142.4665  136.6006  151.9429 H   0  0  0  0  0  0  0  0  0  0  0  0
  143.1758  134.2183  151.5281 H   0  0  0  0  0  0  0  0  0  0  0  0
  147.7751  133.3775  151.3345 H   0  0  0  0  0  0  0  0  0  0  0  0
  146.7160  133.6600  152.7127 H   0  0  0  0  0  0  0  0  0  0  0  0
  147.5960  131.0955  151.8822 H   0  0  0  0  0  0  0  0  0  0  0  0
  146.1989  131.4147  152.9080 H   0  0  0  0  0  0  0  0  0  0  0  0
  146.2330  130.9955  149.9116 H   0  0  0  0  0  0  0  0  0  0  0  0
  145.0935  130.3260  151.0839 H   0  0  0  0  0  0  0  0  0  0  0  0
  144.1043  132.5021  151.4737 H   0  0  0  0  0  0  0  0  0  0  0  0
  143.8355  133.5615  149.0484 H   0  0  0  0  0  0  0  0  0  0  0  0
  144.6449  132.0995  148.5083 H   0  0  0  0  0  0  0  0  0  0  0  0
  142.1377  132.4626  149.5547 H   0  0  0  0  0  0  0  0  0  0  0  0
  147.0462  135.7285  150.7239 H   0  0  0  0  0  0  0  0  0  0  0  0
  1  2  1  0  0  0  0
  1 15  1  0  0  0  0
  1 16  1  0  0  0  0
  2 14  1  0  0  0  0
  2  3  2  0  0  0  0
  3  4  1  0  0  0  0
  4  5  2  0  0  0  0
  4 17  1  0  0  0  0
  5  6  1  0  0  0  0
  5 18  1  0  0  0  0
  6  7  1  0  0  0  0
  6 14  2  0  0  0  0
  7 11  1  0  0  0  0
  7  8  1  0  0  0  0
  8  9  1  0  0  0  0
  8 19  1  0  0  0  0
  8 20  1  0  0  0  0
  9 10  1  0  0  0  0
  9 21  1  0  0  0  0
  9 22  1  0  0  0  0
 10 11  1  0  0  0  0
 10 23  1  0  0  0  0
 10 24  1  0  0  0  0
 11 12  1  0  0  0  0
 11 25  1  0  0  0  0
 12 13  1  0  0  0  0
 12 26  1  0  0  0  0
 12 27  1  0  0  0  0
 13 28  1  0  0  0  0
 14 29  1  0  0  0  0
M  CHG  1  14   1
M  END
> <s_m_source_file>
AV-unprocessed.smi

> <i_m_source_file_index>
61

> <i_lp_mmshare_version>
43012

> <i_f3d_flags>
0

> <s_epik_input>
W05IMl1jMW5bY0hdW2NIXWMobjEpTjJbQ0gyXVtDSDJdW0NIMl1bQ0BIXTJbQ0gyXVtPSF0=

> <s_epik_cmdline>
J2VwaWtfcHl0aG9uJywgJy1waCcsICc3LjAnLCAnLXRuJywgJzgnLCAnLW1hJywgJzIwMCcsICctbWV0YWxfYmluZGluZycsICctaW1hZScsICc8aW5maWxlLm1hZT4nLCAnLW9tYWUnLCAnPG91dGZpbGUubWFlPic=

> <r_lp_tautomer_probability>
0.424989

> <r_epik_Ionization_Penalty>
0.696162

> <r_epik_Ionization_Penalty_Charging>
0.696158

> <r_epik_Ionization_Penalty_Neutral>
4.43138e-06

> <r_epik_State_Penalty>
0.906374

> <r_epik_Charging_Adjusted_Penalty>
1.60253

> <i_epik_Tot_Q>
1

> <i_epik_Tot_abs_Q>
1

> <r_epik_Metal_State_Penalty>
1.16703

> <b_epik_Metal_Only>
0

> <s_lp_Force_Field>
OPLS_2005

> <r_lp_Energy>
27.4593

> <b_lp_Chiralities_Consistent>
1

> <s_lp_Variant>
AV-unprocessed.smi:61-6

> <Gold.Version>
5.8.1

> <Gold.Id.Protein>
6NUR|6NUR_protein|mol2

> <Gold.PLP.Fitness>
43.3925

> <Gold.PLP.PLP>
-27.2277

> <Gold.PLP.part.hbond>
-5.0000

> <Gold.PLP.part.metal>
0.0000

> <Gold.PLP.part.buried>
-7.0985

> <Gold.PLP.part.nonpolar>
-16.9896

> <Gold.PLP.part.repulsive>
1.1064

> <Gold.PLP.ligand.clash>
0.0000

> <Gold.PLP.ligand.torsion>
0.4121

> <Gold.PLP.Chemscore.Hbond>
5.6458

> <Gold.PLP.Chemscore.CHOScore>
0.0000

> <Gold.PLP.Chemscore.Metal>
0.0000

> <Gold.Chemscore.Hbonds>
donor molecule, donor type, donor heavy atom, donor atom, acceptor molecule, acceptor atom, score
      L1  H    13    28       P1 10186  0.46
      L1  H    14    29       P1  7948  0.69
      P1  H 10785 10796       L1    13  1.00

> <Gold.PLP.Chemscore.Internal.Correction>
0.0517

> <Gold.Rescore>
     Score         DG    S(hbond)    S(metal)    S(lipo)     H(rot)  DE(clash)    DE(int)     intcor
     15.65     -16.24       3.11        0.00      46.68       1.98       0.00       0.59       ----

> <Gold.Chemscore.Fitness>
15.6487

> <Gold.Chemscore.DG>
-16.2366

> <Gold.Chemscore.ZeroCoef>
-5.4800

> <Gold.Chemscore.Hbond>
3.1059

> <Gold.Chemscore.Metal>
0.0000

> <Gold.Chemscore.Lipo>
46.6793

> <Gold.Chemscore.Internal_Hbond>
0.0000

> <Gold.Chemscore.DEClash>
0.0000

> <Gold.Chemscore.DEInternal>
0.5879

> <Gold.Chemscore.Rot>
1.9838

> <Gold.Chemscore.Internal.Correction>
   9.000000E+99

> <Gold.Chemscore.Hbonds>
donor molecule, donor type, donor heavy atom, donor atom, acceptor molecule, acceptor atom, score
      L1  H     1    15       P1  7948  0.01
      L1  H    13    28       P1 10186  0.45
      L1  H    14    29       P1  7948  0.26
      P1  H 10785 10796       L1    13  0.50

> <Gold.Chemscore.Hbond.Weighted>
-10.3737

> <Gold.Chemscore.Metal.Weighted>
-0.0000

> <Gold.Chemscore.Lipo.Weighted>
-5.4615

> <Gold.Chemscore.Internal_Hbond.Weighted>
0.0000

> <Gold.Chemscore.DEClash.Weighted>
0.0000

> <Gold.Chemscore.DEInternal.Weighted>
0.5879

> <Gold.Chemscore.Rot.Weighted>
5.0786

> <Gold.Chemscore.Internal.Correction.Weighted>
   9.000000E+99

> <Gold.Protein.RotatedTorsions>
[ 6907 6896 6895 6894 ] final  -96.51 input  -60.11 | X-H torsion
[ 7974 7965 7964 7962 ] final  176.68 input  175.53 | X-H torsion
[ 8008 7997 7996 7995 ] final -132.85 input   59.86 | X-H torsion
[ 10167 10162 10161 10158 ] final -145.91 input  -65.29 | X-H torsion
[ 10718 10713 10712 10709 ] final  -56.23 input   66.30 | X-H torsion
[ 10763 10752 10751 10750 ] final   39.41 input  -60.55 | X-H torsion
[ 11005 11000 10999 10996 ] final  -68.58 input  -57.11 | X-H torsion

> <Gold.Protein.ActiveResidues>
 VAL166  LYS551  ARG553  GLY616  TRP617  ASP618  TYR619  PRO620  LYS621  CYS622 
 ASP623  PHE694  ASN695  SER759  ASP760  ASP761  ALA762  ILE779  LEU786  VAL792 
 PHE793  MET794  SER795  GLU796  ALA797  LYS798  CYS799  TRP800  GLU811  SER814 

> <Gold.Protein.RotatedAtoms>
  150.6991  134.1491  159.4133 H   0  0  0  0  0  0  0  0  0  0  0  0  # atno 6907 bound_to 6896
  151.9474  135.0183  160.0549 H   0  0  0  0  0  0  0  0  0  0  0  0  # atno 6908 bound_to 6896
  152.2040  133.4827  159.5111 H   0  0  0  0  0  0  0  0  0  0  0  0  # atno 6909 bound_to 6896
  144.7180  140.0133  143.6440 H   0  0  0  0  0  0  0  0  0  0  0  0  # atno 7974 bound_to 7965
  155.3358  140.0469  157.3044 H   0  0  0  0  0  0  0  0  0  0  0  0  # atno 8008 bound_to 7997
  154.5304  140.2255  155.8780 H   0  0  0  0  0  0  0  0  0  0  0  0  # atno 8009 bound_to 7997
  156.1782  140.3080  155.9105 H   0  0  0  0  0  0  0  0  0  0  0  0  # atno 8010 bound_to 7997
  139.7762  143.8166  152.2632 H   0  0  0  0  0  0  0  0  0  0  0  0  # atno 10167 bound_to 10162
  156.1305  130.4160  150.0277 H   0  0  0  0  0  0  0  0  0  0  0  0  # atno 10718 bound_to 10713
  152.9968  135.6221  154.2460 H   0  0  0  0  0  0  0  0  0  0  0  0  # atno 10763 bound_to 10752
  154.2200  135.2796  155.2930 H   0  0  0  0  0  0  0  0  0  0  0  0  # atno 10764 bound_to 10752
  154.5536  135.5726  153.7003 H   0  0  0  0  0  0  0  0  0  0  0  0  # atno 10765 bound_to 10752
  141.1535  133.6744  156.6468 H   0  0  0  0  0  0  0  0  0  0  0  0  # atno 11005 bound_to 11000
  146.0241  139.3276  143.0795 LP  0  0  0  0  0  0  0  0  0  0  0  0  # atno 17320 bound_to 7965
  145.8533  140.9517  143.0738 LP  0  0  0  0  0  0  0  0  0  0  0  0  # atno 17321 bound_to 7965
  139.8215  144.7293  150.9566 LP  0  0  0  0  0  0  0  0  0  0  0  0  # atno 17342 bound_to 10162
  140.7816  143.4154  151.0925 LP  0  0  0  0  0  0  0  0  0  0  0  0  # atno 17343 bound_to 10162
  156.8191  130.9352  151.3642 LP  0  0  0  0  0  0  0  0  0  0  0  0  # atno 17370 bound_to 10713
  157.6483  130.8863  149.9582 LP  0  0  0  0  0  0  0  0  0  0  0  0  # atno 17371 bound_to 10713
  140.3351  134.7896  157.4356 LP  0  0  0  0  0  0  0  0  0  0  0  0  # atno 17394 bound_to 11000
  140.0984  134.5506  155.8376 LP  0  0  0  0  0  0  0  0  0  0  0  0  # atno 17395 bound_to 11000

$$$$
