AV-unprocessed.smi:1960|AV-procd|sdf|7916|dock3
  -GOLD-   2272010 83D 1   1.00000     0.00000
 Structure written by MMmdl.
 38 39  0  0  0  0  0  0  0  0  1 V2000
  149.5458  141.4860  154.9514 C   0  0  0  0  0  0  0  0  0  0  0  0
  148.0923  141.1168  156.0169 S   0  0  0  0  0  0  0  0  0  0  0  0
  148.3878  139.9007  156.7898 O   0  0  0  0  0  0  0  0  0  0  0  0
  147.7124  142.3525  156.7186 O   0  0  0  0  0  0  0  0  0  0  0  0
  146.8244  140.7350  154.8872 N   0  0  0  0  0  0  0  0  0  0  0  0
  147.0622  140.8753  153.4366 C   0  0  0  0  0  0  0  0  0  0  0  0
  147.3365  139.5160  152.7695 C   0  0  0  0  0  0  0  0  0  0  0  0
  146.2189  138.5043  153.0753 C   0  0  0  0  0  0  0  0  0  0  0  0
  146.5272  137.1973  152.5011 N   0  0  0  0  0  0  0  0  0  0  0  0
  145.6221  136.3282  152.0283 C   0  0  0  0  0  0  0  0  0  0  0  0
  144.4107  136.5464  152.0263 O   0  0  0  0  0  0  0  0  0  0  0  0
  146.2158  135.2213  151.5478 N   0  0  0  0  0  0  0  0  0  0  0  0
  145.6149  134.0700  150.9700 C   0  0  0  0  0  0  0  0  0  0  0  0
  146.4642  133.0201  150.5636 C   0  0  0  0  0  0  0  0  0  0  0  0
  145.8915  131.8608  150.0031 C   0  0  0  0  0  0  0  0  0  0  0  0
  144.5622  131.6944  149.8405 N   0  0  0  0  0  0  0  0  0  0  0  0
  143.7495  132.6942  150.2429 C   0  0  0  0  0  0  0  0  0  0  0  0
  144.2186  133.8940  150.8149 C   0  0  0  0  0  0  0  0  0  0  0  0
  146.0519  138.3790  154.5967 C   0  0  0  0  0  0  0  0  0  0  0  0
  145.7867  139.7480  155.2480 C   0  0  0  0  0  0  0  0  0  0  0  0
  150.3945  141.7419  155.5849 H   0  0  0  0  0  0  0  0  0  0  0  0
  149.3242  142.3302  154.3009 H   0  0  0  0  0  0  0  0  0  0  0  0
  149.8011  140.6116  154.3554 H   0  0  0  0  0  0  0  0  0  0  0  0
  146.1788  141.3290  152.9860 H   0  0  0  0  0  0  0  0  0  0  0  0
  147.8878  141.5619  153.2512 H   0  0  0  0  0  0  0  0  0  0  0  0
  147.4299  139.6578  151.6923 H   0  0  0  0  0  0  0  0  0  0  0  0
  148.2948  139.1225  153.1071 H   0  0  0  0  0  0  0  0  0  0  0  0
  145.2797  138.8688  152.6543 H   0  0  0  0  0  0  0  0  0  0  0  0
  147.5018  136.9378  152.4609 H   0  0  0  0  0  0  0  0  0  0  0  0
  147.2253  135.2268  151.5450 H   0  0  0  0  0  0  0  0  0  0  0  0
  147.5362  133.0993  150.6716 H   0  0  0  0  0  0  0  0  0  0  0  0
  146.5192  131.0441  149.6781 H   0  0  0  0  0  0  0  0  0  0  0  0
  142.6902  132.5308  150.1112 H   0  0  0  0  0  0  0  0  0  0  0  0
  143.5045  134.6390  151.1297 H   0  0  0  0  0  0  0  0  0  0  0  0
  145.2267  137.7037  154.8251 H   0  0  0  0  0  0  0  0  0  0  0  0
  146.9425  137.9276  155.0328 H   0  0  0  0  0  0  0  0  0  0  0  0
  145.7188  139.6466  156.3307 H   0  0  0  0  0  0  0  0  0  0  0  0
  144.8205  140.1283  154.9143 H   0  0  0  0  0  0  0  0  0  0  0  0
  1  2  1  0  0  0  0
  1 21  1  0  0  0  0
  1 22  1  0  0  0  0
  1 23  1  0  0  0  0
  2  3  2  0  0  0  0
  2  4  2  0  0  0  0
  2  5  1  0  0  0  0
  5 20  1  0  0  0  0
  5  6  1  0  0  0  0
  6  7  1  0  0  0  0
  6 24  1  0  0  0  0
  6 25  1  0  0  0  0
  7  8  1  0  0  0  0
  7 26  1  0  0  0  0
  7 27  1  0  0  0  0
  8  9  1  0  0  0  0
  8 19  1  0  0  0  0
  8 28  1  0  0  0  0
  9 10  1  0  0  0  0
  9 29  1  0  0  0  0
 10 11  2  0  0  0  0
 10 12  1  0  0  0  0
 12 13  1  0  0  0  0
 12 30  1  0  0  0  0
 13 18  1  0  0  0  0
 13 14  2  0  0  0  0
 14 15  1  0  0  0  0
 14 31  1  0  0  0  0
 15 16  2  0  0  0  0
 15 32  1  0  0  0  0
 16 17  1  0  0  0  0
 17 18  2  0  0  0  0
 17 33  1  0  0  0  0
 18 34  1  0  0  0  0
 19 20  1  0  0  0  0
 19 35  1  0  0  0  0
 19 36  1  0  0  0  0
 20 37  1  0  0  0  0
 20 38  1  0  0  0  0
M  END
> <s_m_source_file>
AV-unprocessed.smi

> <i_m_source_file_index>
1960

> <i_lp_mmshare_version>
43012

> <i_f3d_flags>
0

> <s_epik_input>
W0NIM11TKD1PKSg9TylOMVtDSDJdW0NIMl1bQ0hdKFtDSDJdW0NIMl0xKVtOSF1DKD1PKVtOSF1jMltjSF1bY0hdbltjSF1bY0hdMg==

> <s_epik_cmdline>
J2VwaWtfcHl0aG9uJywgJy1waCcsICc3LjAnLCAnLXRuJywgJzgnLCAnLW1hJywgJzIwMCcsICctbWV0YWxfYmluZGluZycsICctaW1hZScsICc8aW5maWxlLm1hZT4nLCAnLW9tYWUnLCAnPG91dGZpbGUubWFlPic=

> <r_epik_Ionization_Penalty>
0.116752

> <r_epik_Ionization_Penalty_Charging>
0

> <r_epik_Ionization_Penalty_Neutral>
0.116752

> <r_epik_State_Penalty>
0.106329

> <r_epik_Charging_Adjusted_Penalty>
0.106329

> <i_epik_Tot_Q>
0

> <i_epik_Tot_abs_Q>
0

> <r_epik_Metal_State_Penalty>
0.0886803

> <b_epik_Metal_Only>
0

> <s_lp_Force_Field>
OPLS_2005

> <r_lp_Energy>
6.48368

> <b_lp_Chiralities_Consistent>
1

> <s_lp_Variant>
AV-unprocessed.smi:1960-1

> <Gold.Version>
5.8.1

> <Gold.Id.Protein>
6NUR|6NUR_protein|mol2

> <Gold.PLP.Fitness>
40.1427

> <Gold.PLP.PLP>
-29.4389

> <Gold.PLP.part.hbond>
-3.0000

> <Gold.PLP.part.metal>
0.0000

> <Gold.PLP.part.buried>
-3.2656

> <Gold.PLP.part.nonpolar>
-25.7708

> <Gold.PLP.part.repulsive>
2.2785

> <Gold.PLP.ligand.clash>
0.0000

> <Gold.PLP.ligand.torsion>
1.5737

> <Gold.PLP.Chemscore.Hbond>
2.1404

> <Gold.PLP.Chemscore.CHOScore>
1.7925

> <Gold.PLP.Chemscore.Metal>
0.0000

> <Gold.Chemscore.Hbonds>
donor molecule, donor type, donor heavy atom, donor atom, acceptor molecule, acceptor atom, score
      L1  H     9    29       P1  7948  1.00
      L1  H    12    30       P1  7948  1.00
      P1  H 10785 10796       L1    16  0.13
      L1  C    15    32       P1 10747  0.88
      L1  C    17    33       P1 10186  0.76
      L1  C    17    33       P1 10952  0.03

> <Gold.PLP.Chemscore.Internal.Correction>
2.0524

> <Gold.Rescore>
     Score         DG    S(hbond)    S(metal)    S(lipo)     H(rot)  DE(clash)    DE(int)     intcor
     14.40     -17.62       1.96        0.00      69.81       1.00       0.40       2.81       ----

> <Gold.Chemscore.Fitness>
14.4039

> <Gold.Chemscore.DG>
-17.6176

> <Gold.Chemscore.ZeroCoef>
-5.4800

> <Gold.Chemscore.Hbond>
1.9551

> <Gold.Chemscore.Metal>
0.0000

> <Gold.Chemscore.Lipo>
69.8083

> <Gold.Chemscore.Internal_Hbond>
0.0000

> <Gold.Chemscore.DEClash>
0.4003

> <Gold.Chemscore.DEInternal>
2.8134

> <Gold.Chemscore.Rot>
1.0000

> <Gold.Chemscore.Internal.Correction>
   9.000000E+99

> <Gold.Chemscore.Hbonds>
donor molecule, donor type, donor heavy atom, donor atom, acceptor molecule, acceptor atom, score
      L1  H     9    29       P1  7948  0.99
      L1  H    12    30       P1  7948  0.84
      P1  H 10785 10796       L1    16  0.08

> <Gold.Chemscore.Hbond.Weighted>
-6.5300

> <Gold.Chemscore.Metal.Weighted>
-0.0000

> <Gold.Chemscore.Lipo.Weighted>
-8.1676

> <Gold.Chemscore.Internal_Hbond.Weighted>
0.0000

> <Gold.Chemscore.DEClash.Weighted>
0.4003

> <Gold.Chemscore.DEInternal.Weighted>
2.8134

> <Gold.Chemscore.Rot.Weighted>
2.5600

> <Gold.Chemscore.Internal.Correction.Weighted>
   9.000000E+99

> <Gold.Protein.RotatedTorsions>
[ 6907 6896 6895 6894 ] final   84.01 input  -60.11 | X-H torsion
[ 7974 7965 7964 7962 ] final  -12.73 input  175.53 | X-H torsion
[ 8008 7997 7996 7995 ] final  164.41 input   59.86 | X-H torsion
[ 10167 10162 10161 10158 ] final   58.06 input  -65.29 | X-H torsion
[ 10718 10713 10712 10709 ] final  -89.95 input   66.30 | X-H torsion
[ 10763 10752 10751 10750 ] final   33.92 input  -60.55 | X-H torsion
[ 11005 11000 10999 10996 ] final  -44.89 input  -57.11 | X-H torsion

> <Gold.Protein.ActiveResidues>
 VAL166  LYS551  ARG553  GLY616  TRP617  ASP618  TYR619  PRO620  LYS621  CYS622 
 ASP623  PHE694  ASN695  SER759  ASP760  ASP761  ALA762  ILE779  LEU786  VAL792 
 PHE793  MET794  SER795  GLU796  ALA797  LYS798  CYS799  TRP800  GLU811  SER814 

> <Gold.Protein.RotatedAtoms>
  152.5342  134.2807  159.9006 H   0  0  0  0  0  0  0  0  0  0  0  0  # atno 6907 bound_to 6896
  151.2761  133.4225  159.2632 H   0  0  0  0  0  0  0  0  0  0  0  0  # atno 6908 bound_to 6896
  151.0324  134.9564  159.8175 H   0  0  0  0  0  0  0  0  0  0  0  0  # atno 6909 bound_to 6896
  146.2141  140.3101  142.8382 H   0  0  0  0  0  0  0  0  0  0  0  0  # atno 7974 bound_to 7965
  156.1882  140.1697  156.8144 H   0  0  0  0  0  0  0  0  0  0  0  0  # atno 8008 bound_to 7997
  154.5439  140.0731  156.8588 H   0  0  0  0  0  0  0  0  0  0  0  0  # atno 8009 bound_to 7997
  155.3160  140.3370  155.4245 H   0  0  0  0  0  0  0  0  0  0  0  0  # atno 8010 bound_to 7997
  140.1912  144.4083  150.6570 H   0  0  0  0  0  0  0  0  0  0  0  0  # atno 10167 bound_to 10162
  155.9986  130.4891  150.5249 H   0  0  0  0  0  0  0  0  0  0  0  0  # atno 10718 bound_to 10713
  153.0188  135.6374  154.1587 H   0  0  0  0  0  0  0  0  0  0  0  0  # atno 10763 bound_to 10752
  154.1324  135.2839  155.3183 H   0  0  0  0  0  0  0  0  0  0  0  0  # atno 10764 bound_to 10752
  154.6185  135.5533  153.7611 H   0  0  0  0  0  0  0  0  0  0  0  0  # atno 10765 bound_to 10752
  141.0480  133.6754  156.2936 H   0  0  0  0  0  0  0  0  0  0  0  0  # atno 11005 bound_to 11000
  144.8995  140.7624  143.5876 LP  0  0  0  0  0  0  0  0  0  0  0  0  # atno 17320 bound_to 7965
  145.3026  139.1845  143.4681 LP  0  0  0  0  0  0  0  0  0  0  0  0  # atno 17321 bound_to 7965
  140.6454  143.2212  151.6197 LP  0  0  0  0  0  0  0  0  0  0  0  0  # atno 17342 bound_to 10162
  139.5255  144.3073  152.1023 LP  0  0  0  0  0  0  0  0  0  0  0  0  # atno 17343 bound_to 10162
  157.3205  131.0681  151.1935 LP  0  0  0  0  0  0  0  0  0  0  0  0  # atno 17370 bound_to 10713
  157.2850  130.6768  149.6085 LP  0  0  0  0  0  0  0  0  0  0  0  0  # atno 17371 bound_to 10713
  140.6110  134.5458  157.5533 LP  0  0  0  0  0  0  0  0  0  0  0  0  # atno 17394 bound_to 11000
  139.9327  134.7933  156.0886 LP  0  0  0  0  0  0  0  0  0  0  0  0  # atno 17395 bound_to 11000

$$$$
