AV-unprocessed.smi:3156|AV-procd|sdf|12035|dock5
  -GOLD-   2272017453D 1   1.00000     0.00000
 Structure written by MMmdl.
 41 42  0  0  0  0  0  0  0  0  2 V2000
  149.9928  139.7436  154.6724 C   0  0  0  0  0  0  0  0  0  0  0  0
  149.3128  141.0988  154.4060 C   0  0  2  0  0  0  0  0  0  0  0  0
  149.8750  142.1053  155.3347 N   0  3  0  0  0  0  0  0  0  0  0  0
  149.9090  141.6925  156.7530 C   0  0  0  0  0  0  0  0  0  0  0  0
  151.1795  142.2043  157.4610 C   0  0  1  0  0  0  0  0  0  0  0  0
  151.2485  143.7441  157.5055 C   0  0  0  0  0  0  0  0  0  0  0  0
  152.4800  144.2077  158.2917 C   0  0  0  0  0  0  0  0  0  0  0  0
  152.4904  143.5421  159.6716 C   0  0  0  0  0  0  0  0  0  0  0  0
  152.3556  142.0180  159.5297 C   0  0  0  0  0  0  0  0  0  0  0  0
  151.1760  141.7011  158.7958 O   0  0  0  0  0  0  0  0  0  0  0  0
  147.7674  141.0470  154.5415 C   0  0  1  0  0  0  0  0  0  0  0  0
  147.0966  142.3950  154.2132 C   0  0  0  0  0  0  0  0  0  0  0  0
  147.1785  139.9868  153.7329 N   0  0  0  0  0  0  0  0  0  0  0  0
  147.1661  139.8681  152.3583 C   0  0  0  0  0  0  0  0  0  0  0  0
  146.5048  138.7131  152.0538 C   0  0  0  0  0  0  0  0  0  0  0  0
  146.1464  138.1832  153.3243 C   0  0  0  0  0  0  0  0  0  0  0  0
  146.5509  138.9464  154.3268 N   0  0  0  0  0  0  0  0  0  0  0  0
  149.6868  138.9859  153.9507 H   0  0  0  0  0  0  0  0  0  0  0  0
  149.7552  139.3696  155.6689 H   0  0  0  0  0  0  0  0  0  0  0  0
  151.0775  139.8312  154.6005 H   0  0  0  0  0  0  0  0  0  0  0  0
  149.5573  141.3825  153.3805 H   0  0  0  0  0  0  0  0  0  0  0  0
  150.8180  142.3158  155.0404 H   0  0  0  0  0  0  0  0  0  0  0  0
  149.0109  142.0624  157.2495 H   0  0  0  0  0  0  0  0  0  0  0  0
  149.8627  140.6036  156.8028 H   0  0  0  0  0  0  0  0  0  0  0  0
  152.0660  141.8193  156.9526 H   0  0  0  0  0  0  0  0  0  0  0  0
  151.2788  144.1508  156.4941 H   0  0  0  0  0  0  0  0  0  0  0  0
  150.3478  144.1411  157.9761 H   0  0  0  0  0  0  0  0  0  0  0  0
  153.3869  143.9407  157.7476 H   0  0  0  0  0  0  0  0  0  0  0  0
  152.4821  145.2934  158.3923 H   0  0  0  0  0  0  0  0  0  0  0  0
  153.4072  143.7932  160.2056 H   0  0  0  0  0  0  0  0  0  0  0  0
  151.6636  143.9262  160.2704 H   0  0  0  0  0  0  0  0  0  0  0  0
  153.2306  141.5939  159.0347 H   0  0  0  0  0  0  0  0  0  0  0  0
  152.2927  141.5546  160.5144 H   0  0  0  0  0  0  0  0  0  0  0  0
  147.5316  140.8098  155.5802 H   0  0  0  0  0  0  0  0  0  0  0  0
  147.4167  143.1794  154.8990 H   0  0  0  0  0  0  0  0  0  0  0  0
  146.0115  142.3212  154.2931 H   0  0  0  0  0  0  0  0  0  0  0  0
  147.3323  142.7241  153.2007 H   0  0  0  0  0  0  0  0  0  0  0  0
  147.6232  140.6076  151.7172 H   0  0  0  0  0  0  0  0  0  0  0  0
  146.3084  138.3073  151.0725 H   0  0  0  0  0  0  0  0  0  0  0  0
  145.6090  137.2730  153.5464 H   0  0  0  0  0  0  0  0  0  0  0  0
  149.3218  142.9473  155.2626 H   0  0  0  0  0  0  0  0  0  0  0  0
  1  2  1  0  0  0  0
  1 18  1  0  0  0  0
  1 19  1  0  0  0  0
  1 20  1  0  0  0  0
  2  3  1  0  0  0  0
  2 11  1  0  0  0  0
  2 21  1  0  0  0  0
  3  4  1  0  0  0  0
  3 22  1  0  0  0  0
  3 41  1  0  0  0  0
  4  5  1  0  0  0  0
  4 23  1  0  0  0  0
  4 24  1  0  0  0  0
  5 10  1  0  0  0  0
  5  6  1  0  0  0  0
  5 25  1  0  0  0  0
  6  7  1  0  0  0  0
  6 26  1  0  0  0  0
  6 27  1  0  0  0  0
  7  8  1  0  0  0  0
  7 28  1  0  0  0  0
  7 29  1  0  0  0  0
  8  9  1  0  0  0  0
  8 30  1  0  0  0  0
  8 31  1  0  0  0  0
  9 10  1  0  0  0  0
  9 32  1  0  0  0  0
  9 33  1  0  0  0  0
 11 12  1  0  0  0  0
 11 13  1  0  0  0  0
 11 34  1  0  0  0  0
 12 35  1  0  0  0  0
 12 36  1  0  0  0  0
 12 37  1  0  0  0  0
 13 17  1  0  0  0  0
 13 14  1  0  0  0  0
 14 15  2  0  0  0  0
 14 38  1  0  0  0  0
 15 16  1  0  0  0  0
 15 39  1  0  0  0  0
 16 17  2  0  0  0  0
 16 40  1  0  0  0  0
M  CHG  1   3   1
M  END
> <s_m_source_file>
AV-unprocessed.smi

> <i_m_source_file_index>
3156

> <i_lp_mmshare_version>
43012

> <i_f3d_flags>
0

> <s_epik_input>
bjFbY0hdW2NIXVtjSF1uMVtDQEBIXShbQ0gzXSlbQ0BIXShbQ0gzXSlbTkhdW0NIMl1bQ0BASF0yW0NIMl1bQ0gyXVtDSDJdW0NIMl1PMg==

> <s_epik_cmdline>
J2VwaWtfcHl0aG9uJywgJy1waCcsICc3LjAnLCAnLXRuJywgJzgnLCAnLW1hJywgJzIwMCcsICctbWV0YWxfYmluZGluZycsICctaW1hZScsICc8aW5maWxlLm1hZT4nLCAnLW9tYWUnLCAnPG91dGZpbGUubWFlPic=

> <r_lp_tautomer_probability>
1

> <r_epik_Ionization_Penalty>
0.00658015

> <r_epik_Ionization_Penalty_Charging>
0.00656881

> <r_epik_Ionization_Penalty_Neutral>
1.13431e-05

> <r_epik_State_Penalty>
0.0048654

> <r_epik_Charging_Adjusted_Penalty>
0.0114342

> <i_epik_Tot_Q>
1

> <i_epik_Tot_abs_Q>
1

> <r_epik_Metal_State_Penalty>
-0

> <b_epik_Metal_Only>
0

> <s_lp_Force_Field>
OPLS_2005

> <r_lp_Energy>
21.7915

> <b_lp_Chiralities_Consistent>
1

> <s_lp_Variant>
AV-unprocessed.smi:3156-7

> <Gold.Version>
5.8.1

> <Gold.Id.Protein>
6NUR|6NUR_protein|mol2

> <Gold.PLP.Fitness>
45.7613

> <Gold.PLP.PLP>
-38.5054

> <Gold.PLP.part.hbond>
-1.0000

> <Gold.PLP.part.metal>
0.0000

> <Gold.PLP.part.buried>
1.7409

> <Gold.PLP.part.nonpolar>
-39.6466

> <Gold.PLP.part.repulsive>
0.3194

> <Gold.PLP.ligand.clash>
0.0000

> <Gold.PLP.ligand.torsion>
0.3966

> <Gold.PLP.Chemscore.Hbond>
2.0000

> <Gold.PLP.Chemscore.CHOScore>
0.6550

> <Gold.PLP.Chemscore.Metal>
0.0000

> <Gold.Chemscore.Hbonds>
donor molecule, donor type, donor heavy atom, donor atom, acceptor molecule, acceptor atom, score
      L1  H     3    41       P1  8028  2.00
      L1  C    14    38       P1  7957  0.65

> <Gold.PLP.Chemscore.Internal.Correction>
0.0842

> <Gold.Rescore>
     Score         DG    S(hbond)    S(metal)    S(lipo)     H(rot)  DE(clash)    DE(int)     intcor
     16.95     -17.47       1.00        0.00     108.93       1.59       0.12       0.40       ----

> <Gold.Chemscore.Fitness>
16.9523

> <Gold.Chemscore.DG>
-17.4694

> <Gold.Chemscore.ZeroCoef>
-5.4800

> <Gold.Chemscore.Hbond>
0.9955

> <Gold.Chemscore.Metal>
0.0000

> <Gold.Chemscore.Lipo>
108.9297

> <Gold.Chemscore.Internal_Hbond>
0.0000

> <Gold.Chemscore.DEClash>
0.1182

> <Gold.Chemscore.DEInternal>
0.3989

> <Gold.Chemscore.Rot>
1.5938

> <Gold.Chemscore.Internal.Correction>
   9.000000E+99

> <Gold.Chemscore.Hbonds>
donor molecule, donor type, donor heavy atom, donor atom, acceptor molecule, acceptor atom, score
      L1  H     3    41       P1  8028  0.98

> <Gold.Chemscore.Hbond.Weighted>
-3.3249

> <Gold.Chemscore.Metal.Weighted>
-0.0000

> <Gold.Chemscore.Lipo.Weighted>
-12.7448

> <Gold.Chemscore.Internal_Hbond.Weighted>
0.0000

> <Gold.Chemscore.DEClash.Weighted>
0.1182

> <Gold.Chemscore.DEInternal.Weighted>
0.3989

> <Gold.Chemscore.Rot.Weighted>
4.0802

> <Gold.Chemscore.Internal.Correction.Weighted>
   9.000000E+99

> <Gold.Protein.RotatedTorsions>
[ 6907 6896 6895 6894 ] final    6.38 input  -60.11 | X-H torsion
[ 7974 7965 7964 7962 ] final  100.59 input  175.53 | X-H torsion
[ 8008 7997 7996 7995 ] final   21.01 input   59.86 | X-H torsion
[ 10167 10162 10161 10158 ] final  174.11 input  -65.29 | X-H torsion
[ 10718 10713 10712 10709 ] final   88.45 input   66.30 | X-H torsion
[ 10763 10752 10751 10750 ] final -138.40 input  -60.55 | X-H torsion
[ 11005 11000 10999 10996 ] final -140.65 input  -57.11 | X-H torsion

> <Gold.Protein.ActiveResidues>
 VAL166  LYS551  ARG553  GLY616  TRP617  ASP618  TYR619  PRO620  LYS621  CYS622 
 ASP623  PHE694  ASN695  SER759  ASP760  ASP761  ALA762  ILE779  LEU786  VAL792 
 PHE793  MET794  SER795  GLU796  ALA797  LYS798  CYS799  TRP800  GLU811  SER814 

> <Gold.Protein.RotatedAtoms>
  151.6728  135.0973  160.0200 H   0  0  0  0  0  0  0  0  0  0  0  0  # atno 6907 bound_to 6896
  152.3881  133.6636  159.6224 H   0  0  0  0  0  0  0  0  0  0  0  0  # atno 6908 bound_to 6896
  150.7803  133.8917  159.3356 H   0  0  0  0  0  0  0  0  0  0  0  0  # atno 6909 bound_to 6896
  145.3835  139.2375  143.3390 H   0  0  0  0  0  0  0  0  0  0  0  0  # atno 7974 bound_to 7965
  154.9442  140.3057  155.5106 H   0  0  0  0  0  0  0  0  0  0  0  0  # atno 8008 bound_to 7997
  156.2993  140.2330  156.4452 H   0  0  0  0  0  0  0  0  0  0  0  0  # atno 8009 bound_to 7997
  154.8116  140.0428  157.1335 H   0  0  0  0  0  0  0  0  0  0  0  0  # atno 8010 bound_to 7997
  139.5131  144.3184  152.0226 H   0  0  0  0  0  0  0  0  0  0  0  0  # atno 10167 bound_to 10162
  157.6949  131.0295  150.3276 H   0  0  0  0  0  0  0  0  0  0  0  0  # atno 10718 bound_to 10713
  154.8638  135.3613  154.5378 H   0  0  0  0  0  0  0  0  0  0  0  0  # atno 10763 bound_to 10752
  153.6001  135.7013  153.5393 H   0  0  0  0  0  0  0  0  0  0  0  0  # atno 10764 bound_to 10752
  153.3298  135.4127  155.1447 H   0  0  0  0  0  0  0  0  0  0  0  0  # atno 10765 bound_to 10752
  140.8402  134.2411  157.4814 H   0  0  0  0  0  0  0  0  0  0  0  0  # atno 11005 bound_to 11000
  146.2831  140.4507  142.8768 LP  0  0  0  0  0  0  0  0  0  0  0  0  # atno 17320 bound_to 7965
  144.8490  140.6973  143.6180 LP  0  0  0  0  0  0  0  0  0  0  0  0  # atno 17321 bound_to 7965
  140.2627  144.4050  150.6180 LP  0  0  0  0  0  0  0  0  0  0  0  0  # atno 17342 bound_to 10162
  140.6146  143.2171  151.6818 LP  0  0  0  0  0  0  0  0  0  0  0  0  # atno 17343 bound_to 10162
  156.3754  130.3871  149.7142 LP  0  0  0  0  0  0  0  0  0  0  0  0  # atno 17370 bound_to 10713
  156.4543  130.7921  151.2942 LP  0  0  0  0  0  0  0  0  0  0  0  0  # atno 17371 bound_to 10713
  139.8703  134.9631  156.4451 LP  0  0  0  0  0  0  0  0  0  0  0  0  # atno 17394 bound_to 11000
  140.8904  133.7852  155.9565 LP  0  0  0  0  0  0  0  0  0  0  0  0  # atno 17395 bound_to 11000

$$$$
