AV-unprocessed.smi:1686|AV-procd|sdf|6764|dock9
  -GOLD-   22720 7523D 1   1.00000     0.00000
 Structure written by MMmdl.
 41 43  0  0  0  0  0  0  0  0  1 V2000
  146.0450  143.1595  154.1818 C   0  0  0  0  0  0  0  0  0  0  0  0
  146.4371  142.2423  155.3044 C   0  0  0  0  0  0  0  0  0  0  0  0
  145.6125  142.0815  156.3314 N   0  0  0  0  0  0  0  0  0  0  0  0
  146.2401  141.1855  157.2046 O   0  0  0  0  0  0  0  0  0  0  0  0
  147.4244  140.8503  156.6437 C   0  0  0  0  0  0  0  0  0  0  0  0
  148.5212  139.7614  157.3954 Cl  0  0  0  0  0  0  0  0  0  0  0  0
  147.6271  141.4695  155.4441 C   0  0  0  0  0  0  0  0  0  0  0  0
  148.8002  141.3765  154.5023 C   0  0  0  0  0  0  0  0  0  0  0  0
  150.0978  141.3448  155.3091 C   0  0  0  0  0  0  0  0  0  0  0  0
  151.0293  140.6261  154.9473 O   0  0  0  0  0  0  0  0  0  0  0  0
  150.1505  142.1388  156.3895 N   0  0  0  0  0  0  0  0  0  0  0  0
  151.3144  142.3127  157.2552 C   0  0  2  0  0  0  0  0  0  0  0  0
  151.2792  141.2759  158.3919 C   0  0  0  0  0  0  0  0  0  0  0  0
  151.3563  143.7607  157.7987 C   0  0  1  0  0  0  0  0  0  0  0  0
  150.3489  144.0511  158.9341 C   0  0  0  0  0  0  0  0  0  0  0  0
  151.2252  144.7097  160.0160 C   0  0  1  0  0  0  0  0  0  0  0  0
  152.1059  143.6333  160.6775 C   0  0  0  0  0  0  0  0  0  0  0  0
  153.1405  143.3218  159.5809 C   0  0  0  0  0  0  0  0  0  0  0  0
  152.6932  144.2360  158.4217 C   0  0  2  0  0  0  0  0  0  0  0  0
  152.2421  145.4791  159.1816 C   0  0  0  0  0  0  0  0  0  0  0  0
  146.9198  143.6298  153.7328 H   0  0  0  0  0  0  0  0  0  0  0  0
  145.3865  143.9572  154.5275 H   0  0  0  0  0  0  0  0  0  0  0  0
  145.5224  142.6128  153.3970 H   0  0  0  0  0  0  0  0  0  0  0  0
  148.7336  140.4904  153.8693 H   0  0  0  0  0  0  0  0  0  0  0  0
  148.8337  142.2289  153.8231 H   0  0  0  0  0  0  0  0  0  0  0  0
  149.3358  142.6938  156.6079 H   0  0  0  0  0  0  0  0  0  0  0  0
  152.2172  142.1363  156.6683 H   0  0  0  0  0  0  0  0  0  0  0  0
  152.1418  141.3796  159.0502 H   0  0  0  0  0  0  0  0  0  0  0  0
  151.2922  140.2583  158.0001 H   0  0  0  0  0  0  0  0  0  0  0  0
  150.3819  141.3849  159.0019 H   0  0  0  0  0  0  0  0  0  0  0  0
  151.1342  144.4331  156.9680 H   0  0  0  0  0  0  0  0  0  0  0  0
  149.5717  144.7343  158.5892 H   0  0  0  0  0  0  0  0  0  0  0  0
  149.8555  143.1533  159.3088 H   0  0  0  0  0  0  0  0  0  0  0  0
  150.6612  145.3116  160.7290 H   0  0  0  0  0  0  0  0  0  0  0  0
  152.5983  144.0257  161.5680 H   0  0  0  0  0  0  0  0  0  0  0  0
  151.5335  142.7530  160.9723 H   0  0  0  0  0  0  0  0  0  0  0  0
  154.1411  143.5977  159.9163 H   0  0  0  0  0  0  0  0  0  0  0  0
  153.1706  142.2659  159.3138 H   0  0  0  0  0  0  0  0  0  0  0  0
  153.4750  144.4223  157.6858 H   0  0  0  0  0  0  0  0  0  0  0  0
  151.7911  146.2408  158.5431 H   0  0  0  0  0  0  0  0  0  0  0  0
  153.0346  145.9356  159.7776 H   0  0  0  0  0  0  0  0  0  0  0  0
  1  2  1  0  0  0  0
  1 21  1  0  0  0  0
  1 22  1  0  0  0  0
  1 23  1  0  0  0  0
  2  7  1  0  0  0  0
  2  3  2  0  0  0  0
  3  4  1  0  0  0  0
  4  5  1  0  0  0  0
  5  6  1  0  0  0  0
  5  7  2  0  0  0  0
  7  8  1  0  0  0  0
  8  9  1  0  0  0  0
  8 24  1  0  0  0  0
  8 25  1  0  0  0  0
  9 10  2  0  0  0  0
  9 11  1  0  0  0  0
 11 12  1  0  0  0  0
 11 26  1  0  0  0  0
 12 13  1  0  0  0  0
 12 14  1  0  0  0  0
 12 27  1  0  0  0  0
 13 28  1  0  0  0  0
 13 29  1  0  0  0  0
 13 30  1  0  0  0  0
 14 19  1  0  0  0  0
 14 15  1  0  0  0  0
 14 31  1  0  0  0  0
 15 16  1  0  0  0  0
 15 32  1  0  0  0  0
 15 33  1  0  0  0  0
 16 20  1  0  0  0  0
 16 17  1  0  0  0  0
 16 34  1  0  0  0  0
 17 18  1  0  0  0  0
 17 35  1  0  0  0  0
 17 36  1  0  0  0  0
 18 19  1  0  0  0  0
 18 37  1  0  0  0  0
 18 38  1  0  0  0  0
 19 20  1  0  0  0  0
 19 39  1  0  0  0  0
 20 40  1  0  0  0  0
 20 41  1  0  0  0  0
M  END
> <s_m_source_file>
AV-unprocessed.smi

> <i_m_source_file_index>
1686

> <i_lp_mmshare_version>
43012

> <i_f3d_flags>
0

> <s_epik_input>
W0NIM11jMW5vYyhDbCljMVtDSDJdQyg9TylbTkhdW0NASF0oW0NIM10pW0NASF0oW0NIMl1bQ0BIXTIzKVtDQEhdKFtDSDJdMylbQ0gyXVtDSDJdMg==

> <s_epik_cmdline>
J2VwaWtfcHl0aG9uJywgJy1waCcsICc3LjAnLCAnLXRuJywgJzgnLCAnLW1hJywgJzIwMCcsICctbWV0YWxfYmluZGluZycsICctaW1hZScsICc8aW5maWxlLm1hZT4nLCAnLW9tYWUnLCAnPG91dGZpbGUubWFlPic=

> <r_lp_tautomer_probability>
1

> <r_epik_Ionization_Penalty>
2.01576e-08

> <r_epik_Ionization_Penalty_Charging>
0

> <r_epik_Ionization_Penalty_Neutral>
2.01576e-08

> <r_epik_State_Penalty>
-0

> <r_epik_Charging_Adjusted_Penalty>
0

> <i_epik_Tot_Q>
0

> <i_epik_Tot_abs_Q>
0

> <r_epik_Metal_State_Penalty>
-0

> <b_epik_Metal_Only>
0

> <s_lp_Force_Field>
OPLS_2005

> <r_lp_Energy>
45.5839

> <b_lp_Chiralities_Consistent>
1

> <s_lp_Variant>
AV-unprocessed.smi:1686-7

> <Gold.Version>
5.8.1

> <Gold.Id.Protein>
6NUR|6NUR_protein|mol2

> <Gold.PLP.Fitness>
48.2102

> <Gold.PLP.PLP>
-46.4656

> <Gold.PLP.part.hbond>
-2.0000

> <Gold.PLP.part.metal>
0.0000

> <Gold.PLP.part.buried>
-5.0789

> <Gold.PLP.part.nonpolar>
-38.4037

> <Gold.PLP.part.repulsive>
0.2827

> <Gold.PLP.ligand.clash>
0.0000

> <Gold.PLP.ligand.torsion>
1.1699

> <Gold.PLP.Chemscore.Hbond>
1.3557

> <Gold.PLP.Chemscore.CHOScore>
0.0000

> <Gold.PLP.Chemscore.Metal>
0.0000

> <Gold.Chemscore.Hbonds>
donor molecule, donor type, donor heavy atom, donor atom, acceptor molecule, acceptor atom, score
      L1  H    11    26       P1  8028  0.18
      P1  H  7989  7998       L1    10  0.94

> <Gold.PLP.Chemscore.Internal.Correction>
0.0174

> <Gold.Rescore>
     Score         DG    S(hbond)    S(metal)    S(lipo)     H(rot)  DE(clash)    DE(int)     intcor
     17.25     -18.22       0.94        0.00     114.17       1.46       0.04       0.93       ----

> <Gold.Chemscore.Fitness>
17.2535

> <Gold.Chemscore.DG>
-18.2180

> <Gold.Chemscore.ZeroCoef>
-5.4800

> <Gold.Chemscore.Hbond>
0.9371

> <Gold.Chemscore.Metal>
0.0000

> <Gold.Chemscore.Lipo>
114.1704

> <Gold.Chemscore.Internal_Hbond>
0.0000

> <Gold.Chemscore.DEClash>
0.0383

> <Gold.Chemscore.DEInternal>
0.9262

> <Gold.Chemscore.Rot>
1.4648

> <Gold.Chemscore.Internal.Correction>
   9.000000E+99

> <Gold.Chemscore.Hbonds>
donor molecule, donor type, donor heavy atom, donor atom, acceptor molecule, acceptor atom, score
      L1  H    11    26       P1  8028  0.18
      P1  H  7989  7998       L1    10  0.84

> <Gold.Chemscore.Hbond.Weighted>
-3.1300

> <Gold.Chemscore.Metal.Weighted>
-0.0000

> <Gold.Chemscore.Lipo.Weighted>
-13.3579

> <Gold.Chemscore.Internal_Hbond.Weighted>
0.0000

> <Gold.Chemscore.DEClash.Weighted>
0.0383

> <Gold.Chemscore.DEInternal.Weighted>
0.9262

> <Gold.Chemscore.Rot.Weighted>
3.7500

> <Gold.Chemscore.Internal.Correction.Weighted>
   9.000000E+99

> <Gold.Protein.RotatedTorsions>
[ 6907 6896 6895 6894 ] final  157.76 input  -60.11 | X-H torsion
[ 7974 7965 7964 7962 ] final   -6.93 input  175.53 | X-H torsion
[ 8008 7997 7996 7995 ] final -136.65 input   59.86 | X-H torsion
[ 10167 10162 10161 10158 ] final  -67.18 input  -65.29 | X-H torsion
[ 10718 10713 10712 10709 ] final  -42.99 input   66.30 | X-H torsion
[ 10763 10752 10751 10750 ] final   71.98 input  -60.55 | X-H torsion
[ 11005 11000 10999 10996 ] final  -79.23 input  -57.11 | X-H torsion

> <Gold.Protein.ActiveResidues>
 VAL166  LYS551  ARG553  GLY616  TRP617  ASP618  TYR619  PRO620  LYS621  CYS622 
 ASP623  PHE694  ASN695  SER759  ASP760  ASP761  ALA762  ILE779  LEU786  VAL792 
 PHE793  MET794  SER795  GLU796  ALA797  LYS798  CYS799  TRP800  GLU811  SER814 

> <Gold.Protein.RotatedAtoms>
  152.0104  133.3859  159.4217 H   0  0  0  0  0  0  0  0  0  0  0  0  # atno 6907 bound_to 6896
  150.6900  134.3736  159.5012 H   0  0  0  0  0  0  0  0  0  0  0  0  # atno 6908 bound_to 6896
  152.1496  134.8998  160.0599 H   0  0  0  0  0  0  0  0  0  0  0  0  # atno 6909 bound_to 6896
  146.2319  140.2244  142.8338 H   0  0  0  0  0  0  0  0  0  0  0  0  # atno 7974 bound_to 7965
  155.3988  140.0504  157.3037 H   0  0  0  0  0  0  0  0  0  0  0  0  # atno 8008 bound_to 7997
  154.5001  140.2153  155.9326 H   0  0  0  0  0  0  0  0  0  0  0  0  # atno 8009 bound_to 7997
  156.1456  140.3146  155.8570 H   0  0  0  0  0  0  0  0  0  0  0  0  # atno 8010 bound_to 7997
  140.5602  143.2312  151.6742 H   0  0  0  0  0  0  0  0  0  0  0  0  # atno 10167 bound_to 10162
  156.2537  130.4190  149.8620 H   0  0  0  0  0  0  0  0  0  0  0  0  # atno 10718 bound_to 10713
  153.0431  135.5117  154.7675 H   0  0  0  0  0  0  0  0  0  0  0  0  # atno 10763 bound_to 10752
  154.6597  135.2937  154.9885 H   0  0  0  0  0  0  0  0  0  0  0  0  # atno 10764 bound_to 10752
  154.0740  135.6673  153.4881 H   0  0  0  0  0  0  0  0  0  0  0  0  # atno 10765 bound_to 10752
  141.1667  133.7097  156.8091 H   0  0  0  0  0  0  0  0  0  0  0  0  # atno 11005 bound_to 11000
  144.9606  140.8271  143.5515 LP  0  0  0  0  0  0  0  0  0  0  0  0  # atno 17320 bound_to 7965
  145.2215  139.2157  143.5090 LP  0  0  0  0  0  0  0  0  0  0  0  0  # atno 17321 bound_to 7965
  139.5067  144.3674  152.0504 LP  0  0  0  0  0  0  0  0  0  0  0  0  # atno 17342 bound_to 10162
  140.2799  144.3871  150.6122 LP  0  0  0  0  0  0  0  0  0  0  0  0  # atno 17343 bound_to 10162
  156.6160  130.8606  151.3465 LP  0  0  0  0  0  0  0  0  0  0  0  0  # atno 17370 bound_to 10713
  157.7224  130.9577  150.1494 LP  0  0  0  0  0  0  0  0  0  0  0  0  # atno 17371 bound_to 10713
  140.2201  134.8763  157.3368 LP  0  0  0  0  0  0  0  0  0  0  0  0  # atno 17394 bound_to 11000
  140.1997  134.4270  155.7669 LP  0  0  0  0  0  0  0  0  0  0  0  0  # atno 17395 bound_to 11000

$$$$
