AV-unprocessed.smi:1601|AV-procd|sdf|6431|dock10
  -GOLD-   22720 7 73D 1   1.00000     0.00000
 Structure written by MMmdl.
 41 42  0  0  0  0  0  0  0  0  1 V2000
  151.8620  139.0378  158.1323 C   0  0  0  0  0  0  0  0  0  0  0  0
  151.2795  140.3754  157.6071 C   0  0  2  0  0  0  0  0  0  0  0  0
  151.0023  140.2391  156.0845 C   0  0  0  0  0  0  0  0  0  0  0  0
  149.5835  140.0722  155.7906 N   0  0  0  0  0  0  0  0  0  0  0  0
  148.9529  140.6113  154.7368 C   0  0  0  0  0  0  0  0  0  0  0  0
  149.5172  141.3288  153.9102 O   0  0  0  0  0  0  0  0  0  0  0  0
  147.4535  140.2984  154.6009 C   0  0  2  0  0  0  0  0  0  0  0  0
  147.1974  139.4645  153.3260 C   0  0  0  0  0  0  0  0  0  0  0  0
  146.6464  141.5219  154.6652 N   0  0  0  0  0  0  0  0  0  0  0  0
  146.7199  142.6520  153.8683 C   0  0  0  0  0  0  0  0  0  0  0  0
  145.8269  143.5649  154.3509 C   0  0  0  0  0  0  0  0  0  0  0  0
  145.2641  142.9168  155.4832 C   0  0  0  0  0  0  0  0  0  0  0  0
  145.7691  141.7110  155.6800 N   0  0  0  0  0  0  0  0  0  0  0  0
  152.1305  141.5399  157.9472 N   0  0  0  0  0  0  0  0  0  0  0  0
  151.5600  142.8144  157.4959 C   0  0  0  0  0  0  0  0  0  0  0  0
  152.4274  144.0268  157.8772 C   0  0  0  0  0  0  0  0  0  0  0  0
  152.6258  144.0512  159.2837 O   0  0  0  0  0  0  0  0  0  0  0  0
  153.2518  142.8655  159.7539 C   0  0  0  0  0  0  0  0  0  0  0  0
  152.3890  141.6455  159.3881 C   0  0  0  0  0  0  0  0  0  0  0  0
  151.2640  138.1757  157.8393 H   0  0  0  0  0  0  0  0  0  0  0  0
  151.8952  138.9995  159.2201 H   0  0  0  0  0  0  0  0  0  0  0  0
  152.8734  138.8756  157.7580 H   0  0  0  0  0  0  0  0  0  0  0  0
  150.3125  140.5137  158.0935 H   0  0  0  0  0  0  0  0  0  0  0  0
  151.3133  141.1286  155.5383 H   0  0  0  0  0  0  0  0  0  0  0  0
  151.5666  139.3977  155.6783 H   0  0  0  0  0  0  0  0  0  0  0  0
  149.0485  139.4972  156.4252 H   0  0  0  0  0  0  0  0  0  0  0  0
  147.1582  139.6872  155.4555 H   0  0  0  0  0  0  0  0  0  0  0  0
  147.8708  138.6082  153.2710 H   0  0  0  0  0  0  0  0  0  0  0  0
  147.3413  140.0568  152.4212 H   0  0  0  0  0  0  0  0  0  0  0  0
  146.1808  139.0702  153.3084 H   0  0  0  0  0  0  0  0  0  0  0  0
  147.3933  142.7168  153.0263 H   0  0  0  0  0  0  0  0  0  0  0  0
  145.6171  144.5498  153.9614 H   0  0  0  0  0  0  0  0  0  0  0  0
  144.5175  143.2876  156.1700 H   0  0  0  0  0  0  0  0  0  0  0  0
  151.4581  142.8297  156.4126 H   0  0  0  0  0  0  0  0  0  0  0  0
  150.5597  142.9404  157.9128 H   0  0  0  0  0  0  0  0  0  0  0  0
  153.3907  143.9896  157.3657 H   0  0  0  0  0  0  0  0  0  0  0  0
  151.9391  144.9521  157.5714 H   0  0  0  0  0  0  0  0  0  0  0  0
  154.2513  142.7763  159.3250 H   0  0  0  0  0  0  0  0  0  0  0  0
  153.3723  142.9322  160.8351 H   0  0  0  0  0  0  0  0  0  0  0  0
  151.4435  141.6961  159.9303 H   0  0  0  0  0  0  0  0  0  0  0  0
  152.9151  140.7644  159.7505 H   0  0  0  0  0  0  0  0  0  0  0  0
  1  2  1  0  0  0  0
  1 20  1  0  0  0  0
  1 21  1  0  0  0  0
  1 22  1  0  0  0  0
  2  3  1  0  0  0  0
  2 14  1  0  0  0  0
  2 23  1  0  0  0  0
  3  4  1  0  0  0  0
  3 24  1  0  0  0  0
  3 25  1  0  0  0  0
  4  5  1  0  0  0  0
  4 26  1  0  0  0  0
  5  6  2  0  0  0  0
  5  7  1  0  0  0  0
  7  8  1  0  0  0  0
  7  9  1  0  0  0  0
  7 27  1  0  0  0  0
  8 28  1  0  0  0  0
  8 29  1  0  0  0  0
  8 30  1  0  0  0  0
  9 13  1  0  0  0  0
  9 10  1  0  0  0  0
 10 11  2  0  0  0  0
 10 31  1  0  0  0  0
 11 12  1  0  0  0  0
 11 32  1  0  0  0  0
 12 13  2  0  0  0  0
 12 33  1  0  0  0  0
 14 19  1  0  0  0  0
 14 15  1  0  0  0  0
 15 16  1  0  0  0  0
 15 34  1  0  0  0  0
 15 35  1  0  0  0  0
 16 17  1  0  0  0  0
 16 36  1  0  0  0  0
 16 37  1  0  0  0  0
 17 18  1  0  0  0  0
 18 19  1  0  0  0  0
 18 38  1  0  0  0  0
 18 39  1  0  0  0  0
 19 40  1  0  0  0  0
 19 41  1  0  0  0  0
M  END
> <s_m_source_file>
AV-unprocessed.smi

> <i_m_source_file_index>
1601

> <i_lp_mmshare_version>
43012

> <i_f3d_flags>
0

> <s_epik_input>
W0NIMl0xW0NIMl1PW0NIMl1bQ0gyXU4xW0NASF0oW0NIM10pW0NIMl1bTkhdQyg9TylbQ0BIXShbQ0gzXSluMltjSF1bY0hdW2NIXW4y

> <s_epik_cmdline>
J2VwaWtfcHl0aG9uJywgJy1waCcsICc3LjAnLCAnLXRuJywgJzgnLCAnLW1hJywgJzIwMCcsICctbWV0YWxfYmluZGluZycsICctaW1hZScsICc8aW5maWxlLm1hZT4nLCAnLW9tYWUnLCAnPG91dGZpbGUubWFlPic=

> <r_lp_tautomer_probability>
1

> <r_epik_Ionization_Penalty>
0.203323

> <r_epik_Ionization_Penalty_Charging>
0

> <r_epik_Ionization_Penalty_Neutral>
0.203323

> <r_epik_State_Penalty>
0.193192

> <r_epik_Charging_Adjusted_Penalty>
0.193192

> <i_epik_Tot_Q>
0

> <i_epik_Tot_abs_Q>
0

> <r_epik_Metal_State_Penalty>
0.193187

> <b_epik_Metal_Only>
0

> <s_lp_Force_Field>
OPLS_2005

> <r_lp_Energy>
34.8704

> <b_lp_Chiralities_Consistent>
1

> <s_lp_Variant>
AV-unprocessed.smi:1601-1

> <Gold.Version>
5.8.1

> <Gold.Id.Protein>
6NUR|6NUR_protein|mol2

> <Gold.PLP.Fitness>
39.2687

> <Gold.PLP.PLP>
-38.3206

> <Gold.PLP.part.hbond>
-2.0000

> <Gold.PLP.part.metal>
0.0000

> <Gold.PLP.part.buried>
-6.1942

> <Gold.PLP.part.nonpolar>
-31.2339

> <Gold.PLP.part.repulsive>
0.8552

> <Gold.PLP.ligand.clash>
0.0000

> <Gold.PLP.ligand.torsion>
0.8989

> <Gold.PLP.Chemscore.Hbond>
0.8538

> <Gold.PLP.Chemscore.CHOScore>
0.0000

> <Gold.PLP.Chemscore.Metal>
0.0000

> <Gold.Chemscore.Hbonds>
donor molecule, donor type, donor heavy atom, donor atom, acceptor molecule, acceptor atom, score
      P1  H  7989  7998       L1     6  0.18
      P1  H  8011  8017       L1     6  0.78

> <Gold.PLP.Chemscore.Internal.Correction>
0.1844

> <Gold.Rescore>
     Score         DG    S(hbond)    S(metal)    S(lipo)     H(rot)  DE(clash)    DE(int)     intcor
     13.38     -14.35       0.90        0.00      89.30       1.79       0.09       0.88       ----

> <Gold.Chemscore.Fitness>
13.3753

> <Gold.Chemscore.DG>
-14.3492

> <Gold.Chemscore.ZeroCoef>
-5.4800

> <Gold.Chemscore.Hbond>
0.8971

> <Gold.Chemscore.Metal>
0.0000

> <Gold.Chemscore.Lipo>
89.2988

> <Gold.Chemscore.Internal_Hbond>
0.0000

> <Gold.Chemscore.DEClash>
0.0935

> <Gold.Chemscore.DEInternal>
0.8804

> <Gold.Chemscore.Rot>
1.7872

> <Gold.Chemscore.Internal.Correction>
   9.000000E+99

> <Gold.Chemscore.Hbonds>
donor molecule, donor type, donor heavy atom, donor atom, acceptor molecule, acceptor atom, score
      P1  H  7989  7998       L1     6  0.16
      P1  H  8011  8017       L1     6  0.77

> <Gold.Chemscore.Hbond.Weighted>
-2.9965

> <Gold.Chemscore.Metal.Weighted>
-0.0000

> <Gold.Chemscore.Lipo.Weighted>
-10.4480

> <Gold.Chemscore.Internal_Hbond.Weighted>
0.0000

> <Gold.Chemscore.DEClash.Weighted>
0.0935

> <Gold.Chemscore.DEInternal.Weighted>
0.8804

> <Gold.Chemscore.Rot.Weighted>
4.5752

> <Gold.Chemscore.Internal.Correction.Weighted>
   9.000000E+99

> <Gold.Protein.RotatedTorsions>
[ 6907 6896 6895 6894 ] final  143.61 input  -60.11 | X-H torsion
[ 7974 7965 7964 7962 ] final   74.00 input  175.53 | X-H torsion
[ 8008 7997 7996 7995 ] final   64.12 input   59.86 | X-H torsion
[ 10167 10162 10161 10158 ] final   99.84 input  -65.29 | X-H torsion
[ 10718 10713 10712 10709 ] final -179.01 input   66.30 | X-H torsion
[ 10763 10752 10751 10750 ] final  173.76 input  -60.55 | X-H torsion
[ 11005 11000 10999 10996 ] final  -49.20 input  -57.11 | X-H torsion

> <Gold.Protein.ActiveResidues>
 VAL166  LYS551  ARG553  GLY616  TRP617  ASP618  TYR619  PRO620  LYS621  CYS622 
 ASP623  PHE694  ASN695  SER759  ASP760  ASP761  ALA762  ILE779  LEU786  VAL792 
 PHE793  MET794  SER795  GLU796  ALA797  LYS798  CYS799  TRP800  GLU811  SER814 

> <Gold.Protein.RotatedAtoms>
  152.2041  133.4862  159.5074 H   0  0  0  0  0  0  0  0  0  0  0  0  # atno 6907 bound_to 6896
  150.6976  134.1552  159.4164 H   0  0  0  0  0  0  0  0  0  0  0  0  # atno 6908 bound_to 6896
  151.9470  135.0186  160.0590 H   0  0  0  0  0  0  0  0  0  0  0  0  # atno 6909 bound_to 6896
  145.7338  139.2694  143.1526 H   0  0  0  0  0  0  0  0  0  0  0  0  # atno 7974 bound_to 7965
  155.6411  140.3497  155.4715 H   0  0  0  0  0  0  0  0  0  0  0  0  # atno 8008 bound_to 7997
  155.9925  140.1196  157.0648 H   0  0  0  0  0  0  0  0  0  0  0  0  # atno 8009 bound_to 7997
  154.4223  140.1116  156.5572 H   0  0  0  0  0  0  0  0  0  0  0  0  # atno 8010 bound_to 7997
  139.7581  144.6963  151.0333 H   0  0  0  0  0  0  0  0  0  0  0  0  # atno 10167 bound_to 10162
  156.8528  130.9725  151.3091 H   0  0  0  0  0  0  0  0  0  0  0  0  # atno 10718 bound_to 10713
  154.4446  135.2763  155.1824 H   0  0  0  0  0  0  0  0  0  0  0  0  # atno 10763 bound_to 10752
  154.3676  135.6115  153.5727 H   0  0  0  0  0  0  0  0  0  0  0  0  # atno 10764 bound_to 10752
  152.9843  135.5849  154.4779 H   0  0  0  0  0  0  0  0  0  0  0  0  # atno 10765 bound_to 10752
  141.0745  133.6669  156.3551 H   0  0  0  0  0  0  0  0  0  0  0  0  # atno 11005 bound_to 11000
  146.0513  140.8067  142.9780 LP  0  0  0  0  0  0  0  0  0  0  0  0  # atno 17320 bound_to 7965
  144.6886  140.3056  143.7256 LP  0  0  0  0  0  0  0  0  0  0  0  0  # atno 17321 bound_to 7965
  140.7804  143.4729  151.0121 LP  0  0  0  0  0  0  0  0  0  0  0  0  # atno 17342 bound_to 10162
  139.8416  143.7556  152.3180 LP  0  0  0  0  0  0  0  0  0  0  0  0  # atno 17343 bound_to 10162
  157.6294  130.8717  149.9246 LP  0  0  0  0  0  0  0  0  0  0  0  0  # atno 17370 bound_to 10713
  156.0819  130.3672  150.0564 LP  0  0  0  0  0  0  0  0  0  0  0  0  # atno 17371 bound_to 10713
  140.5602  134.5941  157.5431 LP  0  0  0  0  0  0  0  0  0  0  0  0  # atno 17394 bound_to 11000
  139.9558  134.7538  156.0346 LP  0  0  0  0  0  0  0  0  0  0  0  0  # atno 17395 bound_to 11000

$$$$
