AV-unprocessed.smi:155|AV-procd|sdf|1286|dock5
  -GOLD-   2262018563D 1   1.00000     0.00000
 Structure written by MMmdl.
 64 67  0  0  0  0  0  0  0  0  3 V2000
  145.4060  132.1493  150.1010 C   0  0  0  0  0  0  0  0  0  0  0  0
  146.6700  132.1587  150.8725 N   0  3  0  0  0  0  0  0  0  0  0  0
  146.5880  131.2804  152.0608 C   0  0  0  0  0  0  0  0  0  0  0  0
  147.1336  133.5263  151.2184 C   0  0  0  0  0  0  0  0  0  0  0  0
  146.5465  134.0320  152.5531 C   0  0  0  0  0  0  0  0  0  0  0  0
  146.2920  135.4973  152.5470 N   0  3  1  0  0  0  0  0  0  0  0  0
  145.8772  136.0122  151.2143 C   0  0  0  0  0  0  0  0  0  0  0  0
  146.6054  137.3296  150.8945 C   0  0  0  0  0  0  0  0  0  0  0  0
  146.1047  138.5361  151.7080 C   0  0  0  0  0  0  0  0  0  0  0  0
  146.1391  138.3017  153.1504 N   0  0  0  0  0  0  0  0  0  0  0  0
  147.2790  138.4756  153.8866 C   0  0  0  0  0  0  0  0  0  0  0  0
  147.8702  137.3648  154.4049 N   0  0  0  0  0  0  0  0  0  0  0  0
  148.9868  137.4489  155.1312 C   0  0  0  0  0  0  0  0  0  0  0  0
  149.6853  138.5345  155.4565 N   0  0  0  0  0  0  0  0  0  0  0  0
  149.1104  139.6598  154.9477 C   0  0  0  0  0  0  0  0  0  0  0  0
  147.9206  139.7258  154.1617 C   0  0  0  0  0  0  0  0  0  0  0  0
  147.6705  141.0555  153.8329 N   0  0  0  0  0  0  0  0  0  0  0  0
  148.6400  141.7269  154.3895 C   0  0  0  0  0  0  0  0  0  0  0  0
  149.5503  140.9648  155.0805 N   0  0  0  0  0  0  0  0  0  0  0  0
  150.7231  141.4485  155.7897 C   0  0  0  0  0  0  0  0  0  0  0  0
  150.5289  141.4527  157.3212 C   0  0  1  0  0  0  0  0  0  0  0  0
  150.6513  140.1218  157.7858 O   0  0  0  0  0  0  0  0  0  0  0  0
  151.5771  142.3064  158.0633 C   0  0  1  0  0  0  0  0  0  0  0  0
  151.5461  143.7990  157.7304 C   0  0  0  0  0  0  0  0  0  0  0  0
  152.1882  144.4450  158.9458 C   0  0  0  0  0  0  0  0  0  0  0  0
  152.0364  143.3888  160.0427 C   0  0  0  0  0  0  0  0  0  0  0  0
  151.2816  142.3390  159.4520 O   0  0  0  0  0  0  0  0  0  0  0  0
  145.0688  137.4463  153.6722 C   0  0  0  0  0  0  0  0  0  0  0  0
  145.4052  135.9373  153.6616 C   0  0  0  0  0  0  0  0  0  0  0  0
  144.5922  132.5919  150.6768 H   0  0  0  0  0  0  0  0  0  0  0  0
  145.1222  131.1283  149.8434 H   0  0  0  0  0  0  0  0  0  0  0  0
  145.5056  132.7024  149.1675 H   0  0  0  0  0  0  0  0  0  0  0  0
  145.8532  131.6548  152.7747 H   0  0  0  0  0  0  0  0  0  0  0  0
  147.5531  131.2167  152.5643 H   0  0  0  0  0  0  0  0  0  0  0  0
  146.3009  130.2680  151.7741 H   0  0  0  0  0  0  0  0  0  0  0  0
  148.2241  133.5506  151.2277 H   0  0  0  0  0  0  0  0  0  0  0  0
  146.8128  134.2068  150.4275 H   0  0  0  0  0  0  0  0  0  0  0  0
  145.5986  133.5146  152.7086 H   0  0  0  0  0  0  0  0  0  0  0  0
  147.1887  133.7729  153.3959 H   0  0  0  0  0  0  0  0  0  0  0  0
  146.1417  135.2991  150.4329 H   0  0  0  0  0  0  0  0  0  0  0  0
  144.7936  136.1250  151.1535 H   0  0  0  0  0  0  0  0  0  0  0  0
  147.6777  137.1943  151.0367 H   0  0  0  0  0  0  0  0  0  0  0  0
  146.4740  137.5568  149.8361 H   0  0  0  0  0  0  0  0  0  0  0  0
  146.6441  139.4440  151.4446 H   0  0  0  0  0  0  0  0  0  0  0  0
  145.0728  138.7443  151.4225 H   0  0  0  0  0  0  0  0  0  0  0  0
  149.3755  136.5129  155.5052 H   0  0  0  0  0  0  0  0  0  0  0  0
  148.7186  142.8017  154.3113 H   0  0  0  0  0  0  0  0  0  0  0  0
  151.5812  140.8334  155.5158 H   0  0  0  0  0  0  0  0  0  0  0  0
  150.9352  142.4543  155.4272 H   0  0  0  0  0  0  0  0  0  0  0  0
  149.5275  141.8158  157.5558 H   0  0  0  0  0  0  0  0  0  0  0  0
  151.5457  139.8421  157.6660 H   0  0  0  0  0  0  0  0  0  0  0  0
  152.5852  141.9169  157.9063 H   0  0  0  0  0  0  0  0  0  0  0  0
  152.0670  144.0384  156.8029 H   0  0  0  0  0  0  0  0  0  0  0  0
  150.5145  144.1418  157.6378 H   0  0  0  0  0  0  0  0  0  0  0  0
  153.2433  144.6554  158.7668 H   0  0  0  0  0  0  0  0  0  0  0  0
  151.6966  145.3830  159.2053 H   0  0  0  0  0  0  0  0  0  0  0  0
  153.0117  143.0075  160.3482 H   0  0  0  0  0  0  0  0  0  0  0  0
  151.5298  143.7762  160.9265 H   0  0  0  0  0  0  0  0  0  0  0  0
  144.7678  137.7633  154.6717 H   0  0  0  0  0  0  0  0  0  0  0  0
  144.1825  137.6049  153.0568 H   0  0  0  0  0  0  0  0  0  0  0  0
  144.4787  135.3615  153.6531 H   0  0  0  0  0  0  0  0  0  0  0  0
  145.9018  135.7039  154.6027 H   0  0  0  0  0  0  0  0  0  0  0  0
  147.3777  131.7528  150.2767 H   0  0  0  0  0  0  0  0  0  0  0  0
  147.1904  135.9266  152.7173 H   0  0  0  0  0  0  0  0  0  0  0  0
  1  2  1  0  0  0  0
  1 30  1  0  0  0  0
  1 31  1  0  0  0  0
  1 32  1  0  0  0  0
  2  3  1  0  0  0  0
  2  4  1  0  0  0  0
  2 63  1  0  0  0  0
  3 33  1  0  0  0  0
  3 34  1  0  0  0  0
  3 35  1  0  0  0  0
  4  5  1  0  0  0  0
  4 36  1  0  0  0  0
  4 37  1  0  0  0  0
  5  6  1  0  0  0  0
  5 38  1  0  0  0  0
  5 39  1  0  0  0  0
  6 29  1  0  0  0  0
  6  7  1  0  0  0  0
  6 64  1  0  0  0  0
  7  8  1  0  0  0  0
  7 40  1  0  0  0  0
  7 41  1  0  0  0  0
  8  9  1  0  0  0  0
  8 42  1  0  0  0  0
  8 43  1  0  0  0  0
  9 10  1  0  0  0  0
  9 44  1  0  0  0  0
  9 45  1  0  0  0  0
 10 11  1  0  0  0  0
 10 28  1  0  0  0  0
 11 16  1  0  0  0  0
 11 12  2  0  0  0  0
 12 13  1  0  0  0  0
 13 14  2  0  0  0  0
 13 46  1  0  0  0  0
 14 15  1  0  0  0  0
 15 19  1  0  0  0  0
 15 16  2  0  0  0  0
 16 17  1  0  0  0  0
 17 18  2  0  0  0  0
 18 19  1  0  0  0  0
 18 47  1  0  0  0  0
 19 20  1  0  0  0  0
 20 21  1  0  0  0  0
 20 48  1  0  0  0  0
 20 49  1  0  0  0  0
 21 22  1  0  0  0  0
 21 23  1  0  0  0  0
 21 50  1  0  0  0  0
 22 51  1  0  0  0  0
 23 27  1  0  0  0  0
 23 24  1  0  0  0  0
 23 52  1  0  0  0  0
 24 25  1  0  0  0  0
 24 53  1  0  0  0  0
 24 54  1  0  0  0  0
 25 26  1  0  0  0  0
 25 55  1  0  0  0  0
 25 56  1  0  0  0  0
 26 27  1  0  0  0  0
 26 57  1  0  0  0  0
 26 58  1  0  0  0  0
 28 29  1  0  0  0  0
 28 59  1  0  0  0  0
 28 60  1  0  0  0  0
 29 61  1  0  0  0  0
 29 62  1  0  0  0  0
M  CHG  1   2   1
M  CHG  1   6   1
M  END
> <s_m_source_file>
AV-unprocessed.smi

> <i_m_source_file_index>
155

> <i_lp_mmshare_version>
43012

> <i_f3d_flags>
0

> <s_epik_input>
W0NIM11OKFtDSDNdKVtDSDJdW0NIMl1OMVtDSDJdW0NIMl1bQ0gyXU4oW0NIMl1bQ0gyXTEpYyhuW2NIXW4yKWMoYzIzKW5bY0hdbjNbQ0gyXVtDQEhdKFtPSF0pW0NAQEhdNFtDSDJdW0NIMl1bQ0gyXU80

> <s_epik_cmdline>
J2VwaWtfcHl0aG9uJywgJy1waCcsICc3LjAnLCAnLXRuJywgJzgnLCAnLW1hJywgJzIwMCcsICctbWV0YWxfYmluZGluZycsICctaW1hZScsICc8aW5maWxlLm1hZT4nLCAnLW9tYWUnLCAnPG91dGZpbGUubWFlPic=

> <r_lp_tautomer_probability>
1

> <r_epik_Ionization_Penalty>
3.0333

> <r_epik_Ionization_Penalty_Charging>
3.03317

> <r_epik_Ionization_Penalty_Neutral>
0.000131872

> <r_epik_State_Penalty>
1.99939

> <r_epik_Charging_Adjusted_Penalty>
5.03256

> <i_epik_Tot_Q>
2

> <i_epik_Tot_abs_Q>
2

> <r_epik_Metal_State_Penalty>
2.00021

> <b_epik_Metal_Only>
0

> <s_lp_Force_Field>
OPLS_2005

> <r_lp_Energy>
62.6942

> <b_lp_Chiralities_Consistent>
1

> <s_lp_Variant>
AV-unprocessed.smi:155-20

> <Gold.Version>
5.8.1

> <Gold.Id.Protein>
6NUR|6NUR_protein|mol2

> <Gold.PLP.Fitness>
50.8316

> <Gold.PLP.PLP>
-43.9566

> <Gold.PLP.part.hbond>
-2.2789

> <Gold.PLP.part.metal>
0.0000

> <Gold.PLP.part.buried>
3.7470

> <Gold.PLP.part.nonpolar>
-44.1967

> <Gold.PLP.part.repulsive>
0.8234

> <Gold.PLP.ligand.clash>
0.0000

> <Gold.PLP.ligand.torsion>
2.1139

> <Gold.PLP.Chemscore.Hbond>
2.5288

> <Gold.PLP.Chemscore.CHOScore>
1.0000

> <Gold.PLP.Chemscore.Metal>
0.0000

> <Gold.Chemscore.Hbonds>
donor molecule, donor type, donor heavy atom, donor atom, acceptor molecule, acceptor atom, score
      L1  H     2    63       P1 10747  0.90
      L1  H     6    64       P1  7948  1.63
      L1  C    18    47       P1  8028  1.00

> <Gold.PLP.Chemscore.Internal.Correction>
0.5164

> <Gold.Rescore>
     Score         DG    S(hbond)    S(metal)    S(lipo)     H(rot)  DE(clash)    DE(int)     intcor
     11.78     -18.25       1.66        0.00     121.80       2.75       2.70       3.76       ----

> <Gold.Chemscore.Fitness>
11.7823

> <Gold.Chemscore.DG>
-18.2483

> <Gold.Chemscore.ZeroCoef>
-5.4800

> <Gold.Chemscore.Hbond>
1.6634

> <Gold.Chemscore.Metal>
0.0000

> <Gold.Chemscore.Lipo>
121.8018

> <Gold.Chemscore.Internal_Hbond>
0.0000

> <Gold.Chemscore.DEClash>
2.7035

> <Gold.Chemscore.DEInternal>
3.7625

> <Gold.Chemscore.Rot>
2.7493

> <Gold.Chemscore.Internal.Correction>
   9.000000E+99

> <Gold.Chemscore.Hbonds>
donor molecule, donor type, donor heavy atom, donor atom, acceptor molecule, acceptor atom, score
      L1  H     2    63       P1 10747  0.88
      L1  H     6    64       P1  7948  0.80

> <Gold.Chemscore.Hbond.Weighted>
-5.5558

> <Gold.Chemscore.Metal.Weighted>
-0.0000

> <Gold.Chemscore.Lipo.Weighted>
-14.2508

> <Gold.Chemscore.Internal_Hbond.Weighted>
0.0000

> <Gold.Chemscore.DEClash.Weighted>
2.7035

> <Gold.Chemscore.DEInternal.Weighted>
3.7625

> <Gold.Chemscore.Rot.Weighted>
7.0383

> <Gold.Chemscore.Internal.Correction.Weighted>
   9.000000E+99

> <Gold.Protein.RotatedTorsions>
[ 6907 6896 6895 6894 ] final -159.50 input  -60.11 | X-H torsion
[ 7974 7965 7964 7962 ] final   26.90 input  175.53 | X-H torsion
[ 8008 7997 7996 7995 ] final    0.47 input   59.86 | X-H torsion
[ 10167 10162 10161 10158 ] final  105.47 input  -65.29 | X-H torsion
[ 10718 10713 10712 10709 ] final   49.08 input   66.30 | X-H torsion
[ 10763 10752 10751 10750 ] final  -92.70 input  -60.55 | X-H torsion
[ 11005 11000 10999 10996 ] final  -10.05 input  -57.11 | X-H torsion

> <Gold.Protein.ActiveResidues>
 VAL166  LYS551  ARG553  GLY616  TRP617  ASP618  TYR619  PRO620  LYS621  CYS622 
 ASP623  PHE694  ASN695  SER759  ASP760  ASP761  ALA762  ILE779  LEU786  VAL792 
 PHE793  MET794  SER795  GLU796  ALA797  LYS798  CYS799  TRP800  GLU811  SER814 

> <Gold.Protein.RotatedAtoms>
  151.3345  133.3987  159.2665 H   0  0  0  0  0  0  0  0  0  0  0  0  # atno 6907 bound_to 6896
  150.9928  134.9260  159.7920 H   0  0  0  0  0  0  0  0  0  0  0  0  # atno 6908 bound_to 6896
  152.5252  134.3310  159.9235 H   0  0  0  0  0  0  0  0  0  0  0  0  # atno 6909 bound_to 6896
  146.1813  139.7265  142.8898 H   0  0  0  0  0  0  0  0  0  0  0  0  # atno 7974 bound_to 7965
  154.6684  140.2606  155.7033 H   0  0  0  0  0  0  0  0  0  0  0  0  # atno 8008 bound_to 7997
  156.2648  140.2834  156.1106 H   0  0  0  0  0  0  0  0  0  0  0  0  # atno 8009 bound_to 7997
  155.1204  140.0377  157.2738 H   0  0  0  0  0  0  0  0  0  0  0  0  # atno 8010 bound_to 7997
  139.7090  144.7081  151.1058 H   0  0  0  0  0  0  0  0  0  0  0  0  # atno 10167 bound_to 10162
  157.4751  130.8279  149.8030 H   0  0  0  0  0  0  0  0  0  0  0  0  # atno 10718 bound_to 10713
  154.6886  135.5221  153.8361 H   0  0  0  0  0  0  0  0  0  0  0  0  # atno 10763 bound_to 10752
  153.0616  135.6570  154.0460 H   0  0  0  0  0  0  0  0  0  0  0  0  # atno 10764 bound_to 10752
  154.0337  135.2983  155.3344 H   0  0  0  0  0  0  0  0  0  0  0  0  # atno 10765 bound_to 10752
  140.7407  133.8673  155.8965 H   0  0  0  0  0  0  0  0  0  0  0  0  # atno 11005 bound_to 11000
  145.4067  141.0392  143.3040 LP  0  0  0  0  0  0  0  0  0  0  0  0  # atno 17320 bound_to 7965
  144.8320  139.5612  143.6939 LP  0  0  0  0  0  0  0  0  0  0  0  0  # atno 17321 bound_to 7965
  140.7729  143.5319  150.9414 LP  0  0  0  0  0  0  0  0  0  0  0  0  # atno 17342 bound_to 10162
  139.9003  143.6844  152.3132 LP  0  0  0  0  0  0  0  0  0  0  0  0  # atno 17343 bound_to 10162
  156.0092  130.3841  150.2322 LP  0  0  0  0  0  0  0  0  0  0  0  0  # atno 17370 bound_to 10713
  157.0506  131.0061  151.3255 LP  0  0  0  0  0  0  0  0  0  0  0  0  # atno 17371 bound_to 10713
  140.9839  134.1368  157.4469 LP  0  0  0  0  0  0  0  0  0  0  0  0  # atno 17394 bound_to 11000
  139.8807  135.0019  156.6097 LP  0  0  0  0  0  0  0  0  0  0  0  0  # atno 17395 bound_to 11000

$$$$
