AV-unprocessed.smi:2925|AV-procd|sdf|11225|dock3
  -GOLD-   2272016113D 1   1.00000     0.00000
 Structure written by MMmdl.
 44 45  0  0  0  0  0  0  0  0  1 V2000
  149.3590  136.0026  157.7425 C   0  0  0  0  0  0  0  0  0  0  0  0
  148.6707  135.7707  156.3891 C   0  0  0  0  0  0  0  0  0  0  0  0
  149.6030  135.1810  155.3099 C   0  0  1  0  0  0  0  0  0  0  0  0
  148.8348  134.9252  154.0918 N   0  0  0  0  0  0  0  0  0  0  0  0
  147.9409  133.9402  153.9248 C   0  0  0  0  0  0  0  0  0  0  0  0
  147.6426  133.1257  154.7995 O   0  0  0  0  0  0  0  0  0  0  0  0
  147.4414  133.9411  152.6763 N   0  0  0  0  0  0  0  0  0  0  0  0
  146.5326  133.0091  152.1524 C   0  0  0  0  0  0  0  0  0  0  0  0
  145.4906  133.4545  151.4023 C   0  0  0  0  0  0  0  0  0  0  0  0
  145.3071  134.9297  151.0830 C   0  0  0  0  0  0  0  0  0  0  0  0
  144.5448  132.4947  150.8716 C   0  0  0  0  0  0  0  0  0  0  0  0
  144.7106  131.1916  151.1347 C   0  0  0  0  0  0  0  0  0  0  0  0
  145.7711  130.7290  151.9272 N   0  0  0  0  0  0  0  0  0  0  0  0
  145.8554  129.2866  152.1724 C   0  0  0  0  0  0  0  0  0  0  0  0
  146.6835  131.5731  152.4894 C   0  0  0  0  0  0  0  0  0  0  0  0
  147.5601  131.1444  153.2433 O   0  0  0  0  0  0  0  0  0  0  0  0
  150.7879  136.1156  154.9822 C   0  0  1  0  0  0  0  0  0  0  0  0
  150.4026  137.5784  154.7455 C   0  0  0  0  0  0  0  0  0  0  0  0
  151.6767  138.3022  155.1140 C   0  0  0  0  0  0  0  0  0  0  0  0
  152.1495  137.4896  156.3130 C   0  0  0  0  0  0  0  0  0  0  0  0
  151.7159  136.1557  156.0674 O   0  0  0  0  0  0  0  0  0  0  0  0
  148.6721  136.4673  158.4501 H   0  0  0  0  0  0  0  0  0  0  0  0
  150.2212  136.6611  157.6360 H   0  0  0  0  0  0  0  0  0  0  0  0
  149.7032  135.0679  158.1856 H   0  0  0  0  0  0  0  0  0  0  0  0
  147.8089  135.1173  156.5302 H   0  0  0  0  0  0  0  0  0  0  0  0
  148.2725  136.7257  156.0457 H   0  0  0  0  0  0  0  0  0  0  0  0
  150.0035  134.2416  155.6961 H   0  0  0  0  0  0  0  0  0  0  0  0
  149.0133  135.5380  153.3100 H   0  0  0  0  0  0  0  0  0  0  0  0
  147.8501  134.5816  152.0121 H   0  0  0  0  0  0  0  0  0  0  0  0
  144.4350  135.0914  150.4488 H   0  0  0  0  0  0  0  0  0  0  0  0
  146.1801  135.3186  150.5577 H   0  0  0  0  0  0  0  0  0  0  0  0
  145.1682  135.5052  151.9987 H   0  0  0  0  0  0  0  0  0  0  0  0
  143.7148  132.8196  150.2612 H   0  0  0  0  0  0  0  0  0  0  0  0
  144.0405  130.4296  150.7642 H   0  0  0  0  0  0  0  0  0  0  0  0
  146.8468  128.9078  151.9196 H   0  0  0  0  0  0  0  0  0  0  0  0
  145.1356  128.7172  151.5835 H   0  0  0  0  0  0  0  0  0  0  0  0
  145.6664  129.0685  153.2244 H   0  0  0  0  0  0  0  0  0  0  0  0
  151.3271  135.7459  154.1084 H   0  0  0  0  0  0  0  0  0  0  0  0
  150.0846  137.7743  153.7210 H   0  0  0  0  0  0  0  0  0  0  0  0
  149.5975  137.8795  155.4175 H   0  0  0  0  0  0  0  0  0  0  0  0
  152.3989  138.2298  154.2999 H   0  0  0  0  0  0  0  0  0  0  0  0
  151.5230  139.3563  155.3460 H   0  0  0  0  0  0  0  0  0  0  0  0
  153.2296  137.5393  156.4527 H   0  0  0  0  0  0  0  0  0  0  0  0
  151.6720  137.8456  157.2268 H   0  0  0  0  0  0  0  0  0  0  0  0
  1  2  1  0  0  0  0
  1 22  1  0  0  0  0
  1 23  1  0  0  0  0
  1 24  1  0  0  0  0
  2  3  1  0  0  0  0
  2 25  1  0  0  0  0
  2 26  1  0  0  0  0
  3  4  1  0  0  0  0
  3 17  1  0  0  0  0
  3 27  1  0  0  0  0
  4  5  1  0  0  0  0
  4 28  1  0  0  0  0
  5  6  2  0  0  0  0
  5  7  1  0  0  0  0
  7  8  1  0  0  0  0
  7 29  1  0  0  0  0
  8 15  1  0  0  0  0
  8  9  2  0  0  0  0
  9 10  1  0  0  0  0
  9 11  1  0  0  0  0
 10 30  1  0  0  0  0
 10 31  1  0  0  0  0
 10 32  1  0  0  0  0
 11 12  2  0  0  0  0
 11 33  1  0  0  0  0
 12 13  1  0  0  0  0
 12 34  1  0  0  0  0
 13 14  1  0  0  0  0
 13 15  1  0  0  0  0
 14 35  1  0  0  0  0
 14 36  1  0  0  0  0
 14 37  1  0  0  0  0
 15 16  2  0  0  0  0
 17 21  1  0  0  0  0
 17 18  1  0  0  0  0
 17 38  1  0  0  0  0
 18 19  1  0  0  0  0
 18 39  1  0  0  0  0
 18 40  1  0  0  0  0
 19 20  1  0  0  0  0
 19 41  1  0  0  0  0
 19 42  1  0  0  0  0
 20 21  1  0  0  0  0
 20 43  1  0  0  0  0
 20 44  1  0  0  0  0
M  END
> <s_m_source_file>
AV-unprocessed.smi

> <i_m_source_file_index>
2925

> <i_lp_mmshare_version>
43012

> <i_f3d_flags>
0

> <s_epik_input>
TzFbQ0gyXVtDSDJdW0NIMl1bQ0BIXTFbQ0BIXShbQ0gyXVtDSDNdKVtOSF1DKD1PKVtOSF1jMmMoW0NIM10pW2NIXVtjSF1uKFtDSDNdKWMyPU8=

> <s_epik_cmdline>
J2VwaWtfcHl0aG9uJywgJy1waCcsICc3LjAnLCAnLXRuJywgJzgnLCAnLW1hJywgJzIwMCcsICctbWV0YWxfYmluZGluZycsICctaW1hZScsICc8aW5maWxlLm1hZT4nLCAnLW9tYWUnLCAnPG91dGZpbGUubWFlPic=

> <r_lp_tautomer_probability>
1

> <r_epik_Ionization_Penalty>
2.58789e-05

> <r_epik_Ionization_Penalty_Charging>
6.72534e-06

> <r_epik_Ionization_Penalty_Neutral>
1.91535e-05

> <r_epik_State_Penalty>
-0

> <r_epik_Charging_Adjusted_Penalty>
6.72534e-06

> <i_epik_Tot_Q>
0

> <i_epik_Tot_abs_Q>
0

> <r_epik_Metal_State_Penalty>
-0

> <b_epik_Metal_Only>
0

> <s_lp_Force_Field>
OPLS_2005

> <r_lp_Energy>
35.3317

> <b_lp_Chiralities_Consistent>
1

> <s_lp_Variant>
AV-unprocessed.smi:2925-4

> <Gold.Version>
5.8.1

> <Gold.Id.Protein>
6NUR|6NUR_protein|mol2

> <Gold.PLP.Fitness>
41.8974

> <Gold.PLP.PLP>
-33.9637

> <Gold.PLP.part.hbond>
-3.0000

> <Gold.PLP.part.metal>
0.0000

> <Gold.PLP.part.buried>
-4.3681

> <Gold.PLP.part.nonpolar>
-26.8481

> <Gold.PLP.part.repulsive>
0.1516

> <Gold.PLP.ligand.clash>
0.0000

> <Gold.PLP.ligand.torsion>
0.6702

> <Gold.PLP.Chemscore.Hbond>
2.8800

> <Gold.PLP.Chemscore.CHOScore>
0.0000

> <Gold.PLP.Chemscore.Metal>
0.0000

> <Gold.Chemscore.Hbonds>
donor molecule, donor type, donor heavy atom, donor atom, acceptor molecule, acceptor atom, score
      L1  H     4    28       P1  7948  1.00
      L1  H     7    29       P1  7948  0.90
      P1  H 10752 10765       L1    21  1.00

> <Gold.PLP.Chemscore.Internal.Correction>
0.6342

> <Gold.Rescore>
     Score         DG    S(hbond)    S(metal)    S(lipo)     H(rot)  DE(clash)    DE(int)     intcor
     13.49     -18.58       2.46        0.00      71.37       1.36       0.22       4.87       ----

> <Gold.Chemscore.Fitness>
13.4873

> <Gold.Chemscore.DG>
-18.5849

> <Gold.Chemscore.ZeroCoef>
-5.4800

> <Gold.Chemscore.Hbond>
2.4644

> <Gold.Chemscore.Metal>
0.0000

> <Gold.Chemscore.Lipo>
71.3692

> <Gold.Chemscore.Internal_Hbond>
0.0000

> <Gold.Chemscore.DEClash>
0.2247

> <Gold.Chemscore.DEInternal>
4.8728

> <Gold.Chemscore.Rot>
1.3579

> <Gold.Chemscore.Internal.Correction>
   9.000000E+99

> <Gold.Chemscore.Hbonds>
donor molecule, donor type, donor heavy atom, donor atom, acceptor molecule, acceptor atom, score
      L1  H     4    28       P1  7948  0.63
      L1  H     7    29       P1  7948  0.26
      P1  H 10752 10765       L1    21  0.06

> <Gold.Chemscore.Hbond.Weighted>
-8.2310

> <Gold.Chemscore.Metal.Weighted>
-0.0000

> <Gold.Chemscore.Lipo.Weighted>
-8.3502

> <Gold.Chemscore.Internal_Hbond.Weighted>
0.0000

> <Gold.Chemscore.DEClash.Weighted>
0.2247

> <Gold.Chemscore.DEInternal.Weighted>
4.8728

> <Gold.Chemscore.Rot.Weighted>
3.4763

> <Gold.Chemscore.Internal.Correction.Weighted>
   9.000000E+99

> <Gold.Protein.RotatedTorsions>
[ 6907 6896 6895 6894 ] final    2.44 input  -60.11 | X-H torsion
[ 7974 7965 7964 7962 ] final  -20.87 input  175.53 | X-H torsion
[ 8008 7997 7996 7995 ] final  -16.86 input   59.86 | X-H torsion
[ 10167 10162 10161 10158 ] final   44.91 input  -65.29 | X-H torsion
[ 10718 10713 10712 10709 ] final -142.13 input   66.30 | X-H torsion
[ 10763 10752 10751 10750 ] final -137.91 input  -60.55 | X-H torsion
[ 11005 11000 10999 10996 ] final  -35.77 input  -57.11 | X-H torsion

> <Gold.Protein.ActiveResidues>
 VAL166  LYS551  ARG553  GLY616  TRP617  ASP618  TYR619  PRO620  LYS621  CYS622 
 ASP623  PHE694  ASN695  SER759  ASP760  ASP761  ALA762  ILE779  LEU786  VAL792 
 PHE793  MET794  SER795  GLU796  ALA797  LYS798  CYS799  TRP800  GLU811  SER814 

> <Gold.Protein.RotatedAtoms>
  151.6088  135.1042  160.0076 H   0  0  0  0  0  0  0  0  0  0  0  0  # atno 6907 bound_to 6896
  152.4219  133.7126  159.6498 H   0  0  0  0  0  0  0  0  0  0  0  0  # atno 6908 bound_to 6896
  150.8107  133.8355  159.3206 H   0  0  0  0  0  0  0  0  0  0  0  0  # atno 6909 bound_to 6896
  146.1764  140.4263  142.8512 H   0  0  0  0  0  0  0  0  0  0  0  0  # atno 7974 bound_to 7965
  154.5021  140.2158  155.9325 H   0  0  0  0  0  0  0  0  0  0  0  0  # atno 8008 bound_to 7997
  156.1447  140.3173  155.8518 H   0  0  0  0  0  0  0  0  0  0  0  0  # atno 8009 bound_to 7997
  155.4053  140.0487  157.3025 H   0  0  0  0  0  0  0  0  0  0  0  0  # atno 8010 bound_to 7997
  140.3295  144.2607  150.6170 H   0  0  0  0  0  0  0  0  0  0  0  0  # atno 10167 bound_to 10162
  156.3423  130.7644  151.1782 H   0  0  0  0  0  0  0  0  0  0  0  0  # atno 10718 bound_to 10713
  154.8650  135.3628  154.5299 H   0  0  0  0  0  0  0  0  0  0  0  0  # atno 10763 bound_to 10752
  153.5925  135.7015  153.5422 H   0  0  0  0  0  0  0  0  0  0  0  0  # atno 10764 bound_to 10752
  153.3361  135.4111  155.1496 H   0  0  0  0  0  0  0  0  0  0  0  0  # atno 10765 bound_to 10752
  140.9822  133.7050  156.1704 H   0  0  0  0  0  0  0  0  0  0  0  0  # atno 11005 bound_to 11000
  144.8243  140.6603  143.6332 LP  0  0  0  0  0  0  0  0  0  0  0  0  # atno 17320 bound_to 7965
  145.4199  139.1565  143.4080 LP  0  0  0  0  0  0  0  0  0  0  0  0  # atno 17321 bound_to 7965
  140.5410  143.2223  151.8084 LP  0  0  0  0  0  0  0  0  0  0  0  0  # atno 17342 bound_to 10162
  139.4859  144.4600  151.9553 LP  0  0  0  0  0  0  0  0  0  0  0  0  # atno 17343 bound_to 10162
  157.7448  131.0451  150.4826 LP  0  0  0  0  0  0  0  0  0  0  0  0  # atno 17370 bound_to 10713
  156.5008  130.4117  149.6354 LP  0  0  0  0  0  0  0  0  0  0  0  0  # atno 17371 bound_to 10713
  140.7169  134.4401  157.5578 LP  0  0  0  0  0  0  0  0  0  0  0  0  # atno 17394 bound_to 11000
  139.8955  134.8681  156.2129 LP  0  0  0  0  0  0  0  0  0  0  0  0  # atno 17395 bound_to 11000

$$$$
