AV-unprocessed.smi:187|AV-procd|sdf|1469|dock10
  -GOLD-   2262019283D 1   1.00000     0.00000
 Structure written by MMmdl.
 53 56  0  0  0  0  0  0  0  0  1 V2000
  145.2849  139.0002  156.5475 C   0  0  0  0  0  0  0  0  0  0  0  0
  146.0679  139.6435  155.3836 C   0  0  1  0  0  0  0  0  0  0  0  0
  146.3741  141.1161  155.7302 C   0  0  0  0  0  0  0  0  0  0  0  0
  147.2356  141.7981  154.6542 C   0  0  0  0  0  0  0  0  0  0  0  0
  148.5160  140.9971  154.3393 C   0  0  1  0  0  0  0  0  0  0  0  0
  149.5801  141.1147  155.4478 C   0  0  0  0  0  0  0  0  0  0  0  0
  149.3597  142.0221  156.4026 N   0  0  0  0  0  0  0  0  0  0  0  0
  150.5907  140.4141  155.4443 O   0  0  0  0  0  0  0  0  0  0  0  0
  148.1457  139.5314  154.0293 C   0  0  0  0  0  0  0  0  0  0  0  0
  147.3136  138.9259  155.0711 N   0  0  0  0  0  0  0  0  0  0  0  0
  147.2302  137.5894  154.8771 C   0  0  0  0  0  0  0  0  0  0  0  0
  147.7965  136.7297  155.7654 N   0  0  0  0  0  0  0  0  0  0  0  0
  147.6939  135.4108  155.5743 C   0  0  0  0  0  0  0  0  0  0  0  0
  147.0744  134.7545  154.5901 N   0  0  0  0  0  0  0  0  0  0  0  0
  146.4940  135.6177  153.7071 C   0  0  0  0  0  0  0  0  0  0  0  0
  146.5251  137.0378  153.7759 C   0  0  0  0  0  0  0  0  0  0  0  0
  145.8367  137.5840  152.7008 N   0  0  0  0  0  0  0  0  0  0  0  0
  145.4290  136.5433  152.0266 C   0  0  0  0  0  0  0  0  0  0  0  0
  145.7589  135.3222  152.5729 N   0  0  0  0  0  0  0  0  0  0  0  0
  145.4713  134.0246  152.0362 C   0  0  0  0  0  0  0  0  0  0  0  0
  146.0600  133.5539  150.7039 C   0  0  0  0  0  0  0  0  0  0  0  0
  144.7774  132.7323  150.4382 C   0  0  0  0  0  0  0  0  0  0  0  0
  144.2484  132.7787  148.9949 C   0  0  0  0  0  0  0  0  0  0  0  0
  142.9397  132.2519  148.9111 O   0  0  0  0  0  0  0  0  0  0  0  0
  144.8212  131.2659  150.9136 C   0  0  0  0  0  0  0  0  0  0  0  0
  146.1504  130.8201  151.0909 O   0  0  0  0  0  0  0  0  0  0  0  0
  144.1055  133.7191  151.4188 C   0  0  0  0  0  0  0  0  0  0  0  0
  144.3946  139.5828  156.7847 H   0  0  0  0  0  0  0  0  0  0  0  0
  145.8942  138.9460  157.4505 H   0  0  0  0  0  0  0  0  0  0  0  0
  144.9479  137.9906  156.3134 H   0  0  0  0  0  0  0  0  0  0  0  0
  145.4392  139.6296  154.4920 H   0  0  0  0  0  0  0  0  0  0  0  0
  145.4423  141.6694  155.8514 H   0  0  0  0  0  0  0  0  0  0  0  0
  146.8810  141.1710  156.6940 H   0  0  0  0  0  0  0  0  0  0  0  0
  146.6478  141.9014  153.7412 H   0  0  0  0  0  0  0  0  0  0  0  0
  147.4858  142.8125  154.9673 H   0  0  0  0  0  0  0  0  0  0  0  0
  148.9542  141.4183  153.4329 H   0  0  0  0  0  0  0  0  0  0  0  0
  150.0247  142.1379  157.1532 H   0  0  0  0  0  0  0  0  0  0  0  0
  148.5246  142.5885  156.3700 H   0  0  0  0  0  0  0  0  0  0  0  0
  147.6073  139.4868  153.0812 H   0  0  0  0  0  0  0  0  0  0  0  0
  149.0577  138.9470  153.8926 H   0  0  0  0  0  0  0  0  0  0  0  0
  148.1748  134.7924  156.3179 H   0  0  0  0  0  0  0  0  0  0  0  0
  144.8681  136.6429  151.1088 H   0  0  0  0  0  0  0  0  0  0  0  0
  145.7029  133.3138  152.8314 H   0  0  0  0  0  0  0  0  0  0  0  0
  146.1942  134.3706  149.9922 H   0  0  0  0  0  0  0  0  0  0  0  0
  146.9754  132.9694  150.8006 H   0  0  0  0  0  0  0  0  0  0  0  0
  144.2171  133.8045  148.6265 H   0  0  0  0  0  0  0  0  0  0  0  0
  144.8959  132.2290  148.3113 H   0  0  0  0  0  0  0  0  0  0  0  0
  142.3236  132.9509  149.0698 H   0  0  0  0  0  0  0  0  0  0  0  0
  144.2999  131.1417  151.8629 H   0  0  0  0  0  0  0  0  0  0  0  0
  144.3207  130.6027  150.2076 H   0  0  0  0  0  0  0  0  0  0  0  0
  146.6803  131.1708  150.3915 H   0  0  0  0  0  0  0  0  0  0  0  0
  143.3895  133.2676  152.1063 H   0  0  0  0  0  0  0  0  0  0  0  0
  143.6715  134.5877  150.9193 H   0  0  0  0  0  0  0  0  0  0  0  0
  1  2  1  0  0  0  0
  1 28  1  0  0  0  0
  1 29  1  0  0  0  0
  1 30  1  0  0  0  0
  2 10  1  0  0  0  0
  2  3  1  0  0  0  0
  2 31  1  0  0  0  0
  3  4  1  0  0  0  0
  3 32  1  0  0  0  0
  3 33  1  0  0  0  0
  4  5  1  0  0  0  0
  4 34  1  0  0  0  0
  4 35  1  0  0  0  0
  5  6  1  0  0  0  0
  5  9  1  0  0  0  0
  5 36  1  0  0  0  0
  6  7  1  0  0  0  0
  6  8  2  0  0  0  0
  7 37  1  0  0  0  0
  7 38  1  0  0  0  0
  9 10  1  0  0  0  0
  9 39  1  0  0  0  0
  9 40  1  0  0  0  0
 10 11  1  0  0  0  0
 11 16  1  0  0  0  0
 11 12  2  0  0  0  0
 12 13  1  0  0  0  0
 13 14  2  0  0  0  0
 13 41  1  0  0  0  0
 14 15  1  0  0  0  0
 15 19  1  0  0  0  0
 15 16  2  0  0  0  0
 16 17  1  0  0  0  0
 17 18  2  0  0  0  0
 18 19  1  0  0  0  0
 18 42  1  0  0  0  0
 19 20  1  0  0  0  0
 20 27  1  0  0  0  0
 20 21  1  0  0  0  0
 20 43  1  0  0  0  0
 21 22  1  0  0  0  0
 21 44  1  0  0  0  0
 21 45  1  0  0  0  0
 22 23  1  0  0  0  0
 22 25  1  0  0  0  0
 22 27  1  0  0  0  0
 23 24  1  0  0  0  0
 23 46  1  0  0  0  0
 23 47  1  0  0  0  0
 24 48  1  0  0  0  0
 25 26  1  0  0  0  0
 25 49  1  0  0  0  0
 25 50  1  0  0  0  0
 26 51  1  0  0  0  0
 27 52  1  0  0  0  0
 27 53  1  0  0  0  0
M  END
> <s_m_source_file>
AV-unprocessed.smi

> <i_m_source_file_index>
187

> <i_lp_mmshare_version>
43012

> <i_f3d_flags>
0

> <s_epik_input>
W0NIM11bQ0BASF0xW0NIMl1bQ0gyXVtDQEBIXShDKD1PKVtOSDJdKVtDSDJdTjFjKG5bY0hdbjIpYyhjMjMpbltjSF1uM1tDSF0oW0NIMl00KVtDSDJdQzQoW0NIMl1bT0hdKVtDSDJdW09IXQ==

> <s_epik_cmdline>
J2VwaWtfcHl0aG9uJywgJy1waCcsICc3LjAnLCAnLXRuJywgJzgnLCAnLW1hJywgJzIwMCcsICctbWV0YWxfYmluZGluZycsICctaW1hZScsICc8aW5maWxlLm1hZT4nLCAnLW9tYWUnLCAnPG91dGZpbGUubWFlPic=

> <r_lp_tautomer_probability>
1

> <r_epik_Ionization_Penalty>
0.0017711

> <r_epik_Ionization_Penalty_Charging>
0

> <r_epik_Ionization_Penalty_Neutral>
0.0017711

> <r_epik_State_Penalty>
0.00107211

> <r_epik_Charging_Adjusted_Penalty>
0.00107211

> <i_epik_Tot_Q>
0

> <i_epik_Tot_abs_Q>
0

> <r_epik_Metal_State_Penalty>
-0

> <b_epik_Metal_Only>
0

> <s_lp_Force_Field>
OPLS_2005

> <r_lp_Energy>
37.2201

> <b_lp_Chiralities_Consistent>
1

> <s_lp_Variant>
AV-unprocessed.smi:187-2

> <Gold.Version>
5.8.1

> <Gold.Id.Protein>
6NUR|6NUR_protein|mol2

> <Gold.PLP.Fitness>
49.7178

> <Gold.PLP.PLP>
-40.1902

> <Gold.PLP.part.hbond>
-5.7565

> <Gold.PLP.part.metal>
0.0000

> <Gold.PLP.part.buried>
-4.0755

> <Gold.PLP.part.nonpolar>
-30.0837

> <Gold.PLP.part.repulsive>
0.6612

> <Gold.PLP.ligand.clash>
0.0000

> <Gold.PLP.ligand.torsion>
1.7556

> <Gold.PLP.Chemscore.Hbond>
3.1037

> <Gold.PLP.Chemscore.CHOScore>
1.0000

> <Gold.PLP.Chemscore.Metal>
0.0000

> <Gold.Chemscore.Hbonds>
donor molecule, donor type, donor heavy atom, donor atom, acceptor molecule, acceptor atom, score
      L1  H     7    38       P1  8028  0.12
      L1  H    24    48       P1 10186  1.00
      L1  H    26    51       P1 10747  0.14
      P1  H  7989  7998       L1     8  0.46
      P1  H 10785 10796       L1    24  0.75
      L1  C    18    42       P1 10171  0.98

> <Gold.PLP.Chemscore.Internal.Correction>
0.7278

> <Gold.Rescore>
     Score         DG    S(hbond)    S(metal)    S(lipo)     H(rot)  DE(clash)    DE(int)     intcor
      6.92      -9.75       1.67        0.00      76.29       3.99       0.14       2.69       ----

> <Gold.Chemscore.Fitness>
6.9150

> <Gold.Chemscore.DG>
-9.7543

> <Gold.Chemscore.ZeroCoef>
-5.4800

> <Gold.Chemscore.Hbond>
1.6658

> <Gold.Chemscore.Metal>
0.0000

> <Gold.Chemscore.Lipo>
76.2865

> <Gold.Chemscore.Internal_Hbond>
0.0000

> <Gold.Chemscore.DEClash>
0.1448

> <Gold.Chemscore.DEInternal>
2.6945

> <Gold.Chemscore.Rot>
3.9902

> <Gold.Chemscore.Internal.Correction>
   9.000000E+99

> <Gold.Chemscore.Hbonds>
donor molecule, donor type, donor heavy atom, donor atom, acceptor molecule, acceptor atom, score
      L1  H     7    38       P1  8028  0.12
      L1  H    24    48       P1 10186  0.94
      L1  H    26    51       P1 10747  0.14
      P1  H  7989  7998       L1     8  0.22
      P1  H 10785 10796       L1    24  0.36

> <Gold.Chemscore.Hbond.Weighted>
-5.5636

> <Gold.Chemscore.Metal.Weighted>
-0.0000

> <Gold.Chemscore.Lipo.Weighted>
-8.9255

> <Gold.Chemscore.Internal_Hbond.Weighted>
0.0000

> <Gold.Chemscore.DEClash.Weighted>
0.1448

> <Gold.Chemscore.DEInternal.Weighted>
2.6945

> <Gold.Chemscore.Rot.Weighted>
10.2148

> <Gold.Chemscore.Internal.Correction.Weighted>
   9.000000E+99

> <Gold.Protein.RotatedTorsions>
[ 6907 6896 6895 6894 ] final   23.91 input  -60.11 | X-H torsion
[ 7974 7965 7964 7962 ] final -147.01 input  175.53 | X-H torsion
[ 8008 7997 7996 7995 ] final  147.46 input   59.86 | X-H torsion
[ 10167 10162 10161 10158 ] final  145.59 input  -65.29 | X-H torsion
[ 10718 10713 10712 10709 ] final  -89.52 input   66.30 | X-H torsion
[ 10763 10752 10751 10750 ] final    2.56 input  -60.55 | X-H torsion
[ 11005 11000 10999 10996 ] final   78.57 input  -57.11 | X-H torsion

> <Gold.Protein.ActiveResidues>
 VAL166  LYS551  ARG553  GLY616  TRP617  ASP618  TYR619  PRO620  LYS621  CYS622 
 ASP623  PHE694  ASN695  SER759  ASP760  ASP761  ALA762  ILE779  LEU786  VAL792 
 PHE793  MET794  SER795  GLU796  ALA797  LYS798  CYS799  TRP800  GLU811  SER814 

> <Gold.Protein.RotatedAtoms>
  151.9495  135.0176  160.0540 H   0  0  0  0  0  0  0  0  0  0  0  0  # atno 6907 bound_to 6896
  152.1966  133.4806  159.5044 H   0  0  0  0  0  0  0  0  0  0  0  0  # atno 6908 bound_to 6896
  150.6946  134.1562  159.4202 H   0  0  0  0  0  0  0  0  0  0  0  0  # atno 6909 bound_to 6896
  144.8122  140.5383  143.5635 H   0  0  0  0  0  0  0  0  0  0  0  0  # atno 7974 bound_to 7965
  156.2824  140.2155  156.5542 H   0  0  0  0  0  0  0  0  0  0  0  0  # atno 8008 bound_to 7997
  154.7266  140.0499  157.0711 H   0  0  0  0  0  0  0  0  0  0  0  0  # atno 8009 bound_to 7997
  155.0408  140.3145  155.4728 H   0  0  0  0  0  0  0  0  0  0  0  0  # atno 8010 bound_to 7997
  139.4923  144.5890  151.6719 H   0  0  0  0  0  0  0  0  0  0  0  0  # atno 10167 bound_to 10162
  155.9984  130.4875  150.5183 H   0  0  0  0  0  0  0  0  0  0  0  0  # atno 10718 bound_to 10713
  153.2941  135.6951  153.7265 H   0  0  0  0  0  0  0  0  0  0  0  0  # atno 10763 bound_to 10752
  153.6205  135.3428  155.3010 H   0  0  0  0  0  0  0  0  0  0  0  0  # atno 10764 bound_to 10752
  154.8532  135.4385  154.2032 H   0  0  0  0  0  0  0  0  0  0  0  0  # atno 10765 bound_to 10752
  139.9207  134.7774  156.1666 H   0  0  0  0  0  0  0  0  0  0  0  0  # atno 11005 bound_to 11000
  145.5298  139.1475  143.3506 LP  0  0  0  0  0  0  0  0  0  0  0  0  # atno 17320 bound_to 7965
  146.2421  140.5439  142.8929 LP  0  0  0  0  0  0  0  0  0  0  0  0  # atno 17321 bound_to 7965
  140.5513  144.0420  150.6128 LP  0  0  0  0  0  0  0  0  0  0  0  0  # atno 17342 bound_to 10162
  140.3475  143.2982  152.0522 LP  0  0  0  0  0  0  0  0  0  0  0  0  # atno 17343 bound_to 10162
  157.3148  131.0670  151.1975 LP  0  0  0  0  0  0  0  0  0  0  0  0  # atno 17370 bound_to 10713
  157.2909  130.6795  149.6113 LP  0  0  0  0  0  0  0  0  0  0  0  0  # atno 17371 bound_to 10713
  141.0725  133.6790  156.2170 LP  0  0  0  0  0  0  0  0  0  0  0  0  # atno 17394 bound_to 11000
  140.6482  134.5094  157.5575 LP  0  0  0  0  0  0  0  0  0  0  0  0  # atno 17395 bound_to 11000

$$$$
