AV-unprocessed.smi:1645|AV-procd|sdf|6602|dock8
  -GOLD-   22720 7303D 1   1.00000     0.00000
 Structure written by MMmdl.
 55 58  0  0  0  0  0  0  0  0  2 V2000
  147.1777  136.3036  155.8351 O   0  0  0  0  0  0  0  0  0  0  0  0
  147.7429  136.3417  154.7427 C   0  0  0  0  0  0  0  0  0  0  0  0
  148.6901  137.2261  154.3878 N   0  0  0  0  0  0  0  0  0  0  0  0
  149.2974  138.2342  155.1837 C   0  0  0  0  0  0  0  0  0  0  0  0
  149.2644  138.2592  156.5971 C   0  0  0  0  0  0  0  0  0  0  0  0
  149.9312  139.2969  157.2764 C   0  0  0  0  0  0  0  0  0  0  0  0
  150.6220  140.2815  156.5316 C   0  0  0  0  0  0  0  0  0  0  0  0
  151.3040  141.3244  157.1960 N   0  0  0  0  0  0  0  0  0  0  0  0
  151.7671  141.0712  158.5631 C   0  0  0  0  0  0  0  0  0  0  0  0
  152.7956  142.1255  159.0071 C   0  0  0  0  0  0  0  0  0  0  0  0
  152.2433  143.5466  158.8256 C   0  0  0  0  0  0  0  0  0  0  0  0
  151.7820  143.7498  157.3750 C   0  0  0  0  0  0  0  0  0  0  0  0
  150.7711  142.6678  156.9586 C   0  0  0  0  0  0  0  0  0  0  0  0
  150.6538  140.2518  155.1766 N   0  0  0  0  0  0  0  0  0  0  0  0
  150.0162  139.2542  154.5296 C   0  0  0  0  0  0  0  0  0  0  0  0
  147.4609  135.5021  153.7366 N   0  0  0  0  0  0  0  0  0  0  0  0
  146.4713  134.4297  153.7910 C   0  0  2  0  0  0  0  0  0  0  0  0
  146.7369  133.4135  154.9069 C   0  0  0  0  0  0  0  0  0  0  0  0
  146.1711  132.1146  154.3362 C   0  0  0  0  0  0  0  0  0  0  0  0
  146.5364  132.1869  152.9143 N   0  3  1  0  0  0  0  0  0  0  0  0
  146.0152  131.1212  152.0195 C   0  0  0  0  0  0  0  0  0  0  0  0
  144.6688  131.4711  151.3756 C   0  0  0  0  0  0  0  0  0  0  0  0
  144.7632  132.8247  150.6707 C   0  0  0  0  0  0  0  0  0  0  0  0
  145.0977  133.8935  151.7113 C   0  0  0  0  0  0  0  0  0  0  0  0
  146.4138  133.6056  152.4775 C   0  0  1  0  0  0  0  0  0  0  0  0
  148.9883  137.1999  153.4238 H   0  0  0  0  0  0  0  0  0  0  0  0
  148.7569  137.5004  157.1722 H   0  0  0  0  0  0  0  0  0  0  0  0
  149.8994  139.3298  158.3553 H   0  0  0  0  0  0  0  0  0  0  0  0
  150.9103  141.0790  159.2384 H   0  0  0  0  0  0  0  0  0  0  0  0
  152.2213  140.0816  158.6291 H   0  0  0  0  0  0  0  0  0  0  0  0
  153.0717  141.9613  160.0488 H   0  0  0  0  0  0  0  0  0  0  0  0
  153.7092  142.0119  158.4222 H   0  0  0  0  0  0  0  0  0  0  0  0
  151.4048  143.7049  159.5050 H   0  0  0  0  0  0  0  0  0  0  0  0
  153.0032  144.2834  159.0874 H   0  0  0  0  0  0  0  0  0  0  0  0
  151.3386  144.7390  157.2592 H   0  0  0  0  0  0  0  0  0  0  0  0
  152.6452  143.7171  156.7088 H   0  0  0  0  0  0  0  0  0  0  0  0
  150.5067  142.8185  155.9128 H   0  0  0  0  0  0  0  0  0  0  0  0
  149.8501  142.7809  157.5321 H   0  0  0  0  0  0  0  0  0  0  0  0
  150.0810  139.2750  153.4515 H   0  0  0  0  0  0  0  0  0  0  0  0
  147.9731  135.6079  152.8732 H   0  0  0  0  0  0  0  0  0  0  0  0
  145.4965  134.8740  154.0017 H   0  0  0  0  0  0  0  0  0  0  0  0
  147.8095  133.3020  155.0752 H   0  0  0  0  0  0  0  0  0  0  0  0
  146.2765  133.6943  155.8546 H   0  0  0  0  0  0  0  0  0  0  0  0
  146.5867  131.2300  154.8196 H   0  0  0  0  0  0  0  0  0  0  0  0
  145.0849  132.0889  154.4377 H   0  0  0  0  0  0  0  0  0  0  0  0
  146.7524  130.9714  151.2296 H   0  0  0  0  0  0  0  0  0  0  0  0
  145.9521  130.1762  152.5604 H   0  0  0  0  0  0  0  0  0  0  0  0
  144.3883  130.6969  150.6606 H   0  0  0  0  0  0  0  0  0  0  0  0
  143.8841  131.4942  152.1328 H   0  0  0  0  0  0  0  0  0  0  0  0
  145.5257  132.7987  149.8912 H   0  0  0  0  0  0  0  0  0  0  0  0
  143.8176  133.0611  150.1817 H   0  0  0  0  0  0  0  0  0  0  0  0
  145.1561  134.8718  151.2335 H   0  0  0  0  0  0  0  0  0  0  0  0
  144.2607  133.9484  152.4088 H   0  0  0  0  0  0  0  0  0  0  0  0
  147.2650  133.8159  151.8279 H   0  0  0  0  0  0  0  0  0  0  0  0
  147.5330  132.0244  152.9357 H   0  0  0  0  0  0  0  0  0  0  0  0
  1  2  2  0  0  0  0
  2  3  1  0  0  0  0
  2 16  1  0  0  0  0
  3  4  1  0  0  0  0
  3 26  1  0  0  0  0
  4 15  1  0  0  0  0
  4  5  2  0  0  0  0
  5  6  1  0  0  0  0
  5 27  1  0  0  0  0
  6  7  2  0  0  0  0
  6 28  1  0  0  0  0
  7  8  1  0  0  0  0
  7 14  1  0  0  0  0
  8 13  1  0  0  0  0
  8  9  1  0  0  0  0
  9 10  1  0  0  0  0
  9 29  1  0  0  0  0
  9 30  1  0  0  0  0
 10 11  1  0  0  0  0
 10 31  1  0  0  0  0
 10 32  1  0  0  0  0
 11 12  1  0  0  0  0
 11 33  1  0  0  0  0
 11 34  1  0  0  0  0
 12 13  1  0  0  0  0
 12 35  1  0  0  0  0
 12 36  1  0  0  0  0
 13 37  1  0  0  0  0
 13 38  1  0  0  0  0
 14 15  2  0  0  0  0
 15 39  1  0  0  0  0
 16 17  1  0  0  0  0
 16 40  1  0  0  0  0
 17 25  1  0  0  0  0
 17 18  1  0  0  0  0
 17 41  1  0  0  0  0
 18 19  1  0  0  0  0
 18 42  1  0  0  0  0
 18 43  1  0  0  0  0
 19 20  1  0  0  0  0
 19 44  1  0  0  0  0
 19 45  1  0  0  0  0
 20 25  1  0  0  0  0
 20 21  1  0  0  0  0
 20 55  1  0  0  0  0
 21 22  1  0  0  0  0
 21 46  1  0  0  0  0
 21 47  1  0  0  0  0
 22 23  1  0  0  0  0
 22 48  1  0  0  0  0
 22 49  1  0  0  0  0
 23 24  1  0  0  0  0
 23 50  1  0  0  0  0
 23 51  1  0  0  0  0
 24 25  1  0  0  0  0
 24 52  1  0  0  0  0
 24 53  1  0  0  0  0
 25 54  1  0  0  0  0
M  CHG  1  20   1
M  END
> <s_m_source_file>
AV-unprocessed.smi

> <i_m_source_file_index>
1645

> <i_lp_mmshare_version>
43012

> <i_f3d_flags>
0

> <s_epik_input>
W0NIMl0xW0NIMl1bQ0gyXVtDSDJdW0NASF0oTjEyKVtDQEBIXShbQ0gyXVtDSDJdMilbTkhdQyg9TylbTkhdYzNbY0hdW2NIXWMobltjSF0zKU40W0NIMl1bQ0gyXVtDSDJdW0NIMl1bQ0gyXTQ=

> <s_epik_cmdline>
J2VwaWtfcHl0aG9uJywgJy1waCcsICc3LjAnLCAnLXRuJywgJzgnLCAnLW1hJywgJzIwMCcsICctbWV0YWxfYmluZGluZycsICctaW1hZScsICc8aW5maWxlLm1hZT4nLCAnLW9tYWUnLCAnPG91dGZpbGUubWFlPic=

> <r_lp_tautomer_probability>
1

> <r_epik_Ionization_Penalty>
0.0808019

> <r_epik_Ionization_Penalty_Charging>
0.000974069

> <r_epik_Ionization_Penalty_Neutral>
0.0798278

> <r_epik_State_Penalty>
0.0653665

> <r_epik_Charging_Adjusted_Penalty>
0.0663406

> <i_epik_Tot_Q>
1

> <i_epik_Tot_abs_Q>
1

> <r_epik_Metal_State_Penalty>
0.0585673

> <b_epik_Metal_Only>
0

> <s_lp_Force_Field>
OPLS_2005

> <r_lp_Energy>
57.6774

> <b_lp_Chiralities_Consistent>
1

> <s_lp_Variant>
AV-unprocessed.smi:1645-3

> <Gold.Version>
5.8.1

> <Gold.Id.Protein>
6NUR|6NUR_protein|mol2

> <Gold.PLP.Fitness>
45.5941

> <Gold.PLP.PLP>
-35.2724

> <Gold.PLP.part.hbond>
-2.8848

> <Gold.PLP.part.metal>
0.0000

> <Gold.PLP.part.buried>
-5.2039

> <Gold.PLP.part.nonpolar>
-27.8893

> <Gold.PLP.part.repulsive>
0.1039

> <Gold.PLP.ligand.clash>
0.0000

> <Gold.PLP.ligand.torsion>
0.4453

> <Gold.PLP.Chemscore.Hbond>
2.6018

> <Gold.PLP.Chemscore.CHOScore>
1.0000

> <Gold.PLP.Chemscore.Metal>
0.0000

> <Gold.Chemscore.Hbonds>
donor molecule, donor type, donor heavy atom, donor atom, acceptor molecule, acceptor atom, score
      L1  H     3    26       P1  7948  0.93
      L1  H    16    40       P1  7948  0.99
      P1  H  7989  7998       L1    14  0.69
      L1  C    15    39       P1  7957  1.00

> <Gold.PLP.Chemscore.Internal.Correction>
0.4070

> <Gold.Rescore>
     Score         DG    S(hbond)    S(metal)    S(lipo)     H(rot)  DE(clash)    DE(int)     intcor
     19.67     -21.16       1.95        0.00     104.16       1.17       0.06       1.44       ----

> <Gold.Chemscore.Fitness>
19.6691

> <Gold.Chemscore.DG>
-21.1630

> <Gold.Chemscore.ZeroCoef>
-5.4800

> <Gold.Chemscore.Hbond>
1.9460

> <Gold.Chemscore.Metal>
0.0000

> <Gold.Chemscore.Lipo>
104.1589

> <Gold.Chemscore.Internal_Hbond>
0.0000

> <Gold.Chemscore.DEClash>
0.0572

> <Gold.Chemscore.DEInternal>
1.4367

> <Gold.Chemscore.Rot>
1.1731

> <Gold.Chemscore.Internal.Correction>
   9.000000E+99

> <Gold.Chemscore.Hbonds>
donor molecule, donor type, donor heavy atom, donor atom, acceptor molecule, acceptor atom, score
      L1  H     3    26       P1  7948  0.90
      L1  H    16    40       P1  7948  0.92
      P1  H  7989  7998       L1    14  0.07

> <Gold.Chemscore.Hbond.Weighted>
-6.4996

> <Gold.Chemscore.Metal.Weighted>
-0.0000

> <Gold.Chemscore.Lipo.Weighted>
-12.1866

> <Gold.Chemscore.Internal_Hbond.Weighted>
0.0000

> <Gold.Chemscore.DEClash.Weighted>
0.0572

> <Gold.Chemscore.DEInternal.Weighted>
1.4367

> <Gold.Chemscore.Rot.Weighted>
3.0032

> <Gold.Chemscore.Internal.Correction.Weighted>
   9.000000E+99

> <Gold.Protein.RotatedTorsions>
[ 6907 6896 6895 6894 ] final   29.46 input  -60.11 | X-H torsion
[ 7974 7965 7964 7962 ] final  -80.15 input  175.53 | X-H torsion
[ 8008 7997 7996 7995 ] final  -37.19 input   59.86 | X-H torsion
[ 10167 10162 10161 10158 ] final  124.71 input  -65.29 | X-H torsion
[ 10718 10713 10712 10709 ] final -128.43 input   66.30 | X-H torsion
[ 10763 10752 10751 10750 ] final  -98.48 input  -60.55 | X-H torsion
[ 11005 11000 10999 10996 ] final   -7.73 input  -57.11 | X-H torsion

> <Gold.Protein.ActiveResidues>
 VAL166  LYS551  ARG553  GLY616  TRP617  ASP618  TYR619  PRO620  LYS621  CYS622 
 ASP623  PHE694  ASN695  SER759  ASP760  ASP761  ALA762  ILE779  LEU786  VAL792 
 PHE793  MET794  SER795  GLU796  ALA797  LYS798  CYS799  TRP800  GLU811  SER814 

> <Gold.Protein.RotatedAtoms>
  152.0318  134.9763  160.0572 H   0  0  0  0  0  0  0  0  0  0  0  0  # atno 6907 bound_to 6896
  152.1236  133.4363  159.4695 H   0  0  0  0  0  0  0  0  0  0  0  0  # atno 6908 bound_to 6896
  150.6851  134.2423  159.4521 H   0  0  0  0  0  0  0  0  0  0  0  0  # atno 6909 bound_to 6896
  145.5637  140.9478  143.1433 H   0  0  0  0  0  0  0  0  0  0  0  0  # atno 7974 bound_to 7965
  154.4058  140.1611  156.2496 H   0  0  0  0  0  0  0  0  0  0  0  0  # atno 8008 bound_to 7997
  155.9130  140.3426  155.6091 H   0  0  0  0  0  0  0  0  0  0  0  0  # atno 8009 bound_to 7997
  155.7313  140.0780  157.2278 H   0  0  0  0  0  0  0  0  0  0  0  0  # atno 8010 bound_to 7997
  139.5726  144.6947  151.3737 H   0  0  0  0  0  0  0  0  0  0  0  0  # atno 10167 bound_to 10162
  156.1951  130.6820  151.0471 H   0  0  0  0  0  0  0  0  0  0  0  0  # atno 10718 bound_to 10713
  154.7418  135.5008  153.9135 H   0  0  0  0  0  0  0  0  0  0  0  0  # atno 10763 bound_to 10752
  153.1050  135.6695  153.9610 H   0  0  0  0  0  0  0  0  0  0  0  0  # atno 10764 bound_to 10752
  153.9386  135.3070  155.3422 H   0  0  0  0  0  0  0  0  0  0  0  0  # atno 10765 bound_to 10752
  140.7160  133.8869  155.8785 H   0  0  0  0  0  0  0  0  0  0  0  0  # atno 11005 bound_to 11000
  144.7470  139.7293  143.7288 LP  0  0  0  0  0  0  0  0  0  0  0  0  # atno 17320 bound_to 7965
  146.1833  139.5036  142.9852 LP  0  0  0  0  0  0  0  0  0  0  0  0  # atno 17321 bound_to 7965
  140.7010  143.7631  150.7404 LP  0  0  0  0  0  0  0  0  0  0  0  0  # atno 17342 bound_to 10162
  140.1141  143.4672  152.2352 LP  0  0  0  0  0  0  0  0  0  0  0  0  # atno 17343 bound_to 10162
  157.6952  131.0796  150.6989 LP  0  0  0  0  0  0  0  0  0  0  0  0  # atno 17370 bound_to 10713
  156.7046  130.4633  149.5563 LP  0  0  0  0  0  0  0  0  0  0  0  0  # atno 17371 bound_to 10713
  141.0044  134.1106  157.4285 LP  0  0  0  0  0  0  0  0  0  0  0  0  # atno 17394 bound_to 11000
  139.8860  135.0077  156.6469 LP  0  0  0  0  0  0  0  0  0  0  0  0  # atno 17395 bound_to 11000

$$$$
