AV-unprocessed.smi:54|AV-procd|sdf|551|dock1
  -GOLD-   2262016453D 1   1.00000     0.00000
 Structure written by MMmdl.
 43 45  0  0  0  0  0  0  0  0  2 V2000
  145.9829  135.3370  162.2371 C   0  0  0  0  0  0  0  0  0  0  0  0
  146.7315  135.0245  160.9308 C   0  0  0  0  0  0  0  0  0  0  0  0
  147.4770  133.6826  161.0223 C   0  0  0  0  0  0  0  0  0  0  0  0
  147.6994  136.1617  160.5735 C   0  0  0  0  0  0  0  0  0  0  0  0
  147.7290  137.1684  161.2847 O   0  0  0  0  0  0  0  0  0  0  0  0
  148.4665  135.9450  159.4817 N   0  0  0  0  0  0  0  0  0  0  0  0
  149.4429  136.7679  158.9072 C   0  0  0  0  0  0  0  0  0  0  0  0
  148.9366  137.7403  158.1878 N   0  0  0  0  0  0  0  0  0  0  0  0
  149.9071  138.5543  157.6343 C   0  0  0  0  0  0  0  0  0  0  0  0
  151.2641  138.4449  157.7655 C   0  0  0  0  0  0  0  0  0  0  0  0
  151.9247  139.4342  157.0491 N   0  0  0  0  0  0  0  0  0  0  0  0
  150.9115  140.1083  156.5092 C   0  0  0  0  0  0  0  0  0  0  0  0
  149.6756  139.6598  156.8219 N   0  0  0  0  0  0  0  0  0  0  0  0
  148.3347  140.1656  156.3635 C   0  0  2  0  0  0  0  0  0  0  0  0
  147.7279  139.1629  155.6144 O   0  0  0  0  0  0  0  0  0  0  0  0
  148.1548  139.2652  154.2628 C   0  0  1  0  0  0  0  0  0  0  0  0
  147.1421  138.5672  153.3423 C   0  0  0  0  0  0  0  0  0  0  0  0
  147.6614  138.4683  152.0334 O   0  0  0  0  0  0  0  0  0  0  0  0
  148.2391  140.7851  154.0374 C   0  0  2  0  0  0  0  0  0  0  0  0
  149.3333  141.0842  153.1939 O   0  0  0  0  0  0  0  0  0  0  0  0
  148.4551  141.3824  155.4331 C   0  0  1  0  0  0  0  0  0  0  0  0
  147.4588  142.3403  155.7269 O   0  0  0  0  0  0  0  0  0  0  0  0
  151.7697  137.3330  158.6039 C   0  0  0  0  0  0  0  0  0  0  0  0
  152.9827  137.2001  158.7546 O   0  0  0  0  0  0  0  0  0  0  0  0
  150.8102  136.5304  159.1536 N   0  5  0  0  0  0  0  0  0  0  0  0
  147.7914  140.3688  157.2870 H   0  0  0  0  0  0  0  0  0  0  0  0
  149.1426  138.8107  154.1636 H   0  0  0  0  0  0  0  0  0  0  0  0
  147.3182  141.1620  153.5893 H   0  0  0  0  0  0  0  0  0  0  0  0
  149.4240  141.8685  155.5539 H   0  0  0  0  0  0  0  0  0  0  0  0
  145.4620  136.2934  162.1760 H   0  0  0  0  0  0  0  0  0  0  0  0
  146.6622  135.3814  163.0891 H   0  0  0  0  0  0  0  0  0  0  0  0
  145.2362  134.5716  162.4502 H   0  0  0  0  0  0  0  0  0  0  0  0
  145.9904  134.9397  160.1341 H   0  0  0  0  0  0  0  0  0  0  0  0
  148.0168  133.4657  160.0997 H   0  0  0  0  0  0  0  0  0  0  0  0
  146.7804  132.8616  161.1940 H   0  0  0  0  0  0  0  0  0  0  0  0
  148.1991  133.6789  161.8397 H   0  0  0  0  0  0  0  0  0  0  0  0
  148.3511  135.0359  159.0593 H   0  0  0  0  0  0  0  0  0  0  0  0
  151.0829  140.9546  155.8618 H   0  0  0  0  0  0  0  0  0  0  0  0
  146.8745  137.5808  153.7220 H   0  0  0  0  0  0  0  0  0  0  0  0
  146.2240  139.1525  153.2847 H   0  0  0  0  0  0  0  0  0  0  0  0
  148.3834  139.0722  151.9497 H   0  0  0  0  0  0  0  0  0  0  0  0
  149.4481  140.3698  152.5860 H   0  0  0  0  0  0  0  0  0  0  0  0
  147.7698  143.1890  155.4510 H   0  0  0  0  0  0  0  0  0  0  0  0
  1  2  1  0  0  0  0
  1 30  1  0  0  0  0
  1 31  1  0  0  0  0
  1 32  1  0  0  0  0
  2  3  1  0  0  0  0
  2  4  1  0  0  0  0
  2 33  1  0  0  0  0
  3 34  1  0  0  0  0
  3 35  1  0  0  0  0
  3 36  1  0  0  0  0
  4  5  2  0  0  0  0
  4  6  1  0  0  0  0
  6 37  1  0  0  0  0
  6  7  1  0  0  0  0
  7 25  1  0  0  0  0
  7  8  2  0  0  0  0
  8  9  1  0  0  0  0
  9 13  1  0  0  0  0
  9 10  2  0  0  0  0
 10 11  1  0  0  0  0
 10 23  1  0  0  0  0
 11 12  2  0  0  0  0
 12 13  1  0  0  0  0
 12 38  1  0  0  0  0
 13 14  1  0  0  0  0
 14 26  1  0  0  0  0
 14 21  1  0  0  0  0
 14 15  1  0  0  0  0
 15 16  1  0  0  0  0
 16 27  1  0  0  0  0
 16 17  1  0  0  0  0
 16 19  1  0  0  0  0
 17 18  1  0  0  0  0
 17 39  1  0  0  0  0
 17 40  1  0  0  0  0
 18 41  1  0  0  0  0
 19 28  1  0  0  0  0
 19 20  1  0  0  0  0
 19 21  1  0  0  0  0
 20 42  1  0  0  0  0
 21 29  1  0  0  0  0
 21 22  1  0  0  0  0
 22 43  1  0  0  0  0
 23 24  2  0  0  0  0
 23 25  1  0  0  0  0
M  CHG  1  25  -1
M  END
> <s_m_source_file>
AV-unprocessed.smi

> <i_m_source_file_index>
54

> <i_lp_mmshare_version>
43012

> <i_f3d_flags>
0

> <s_epik_input>
W0NIM11bQ0hdKFtDSDNdKUMoPU8pW05IXWMobjEpW25IXWMoPU8pYyhjMTIpbltjSF1uMltDQEBIXTNPW0NASF0oW0NIMl1bT0hdKVtDQEBIXShbT0hdKVtDQEhdM1tPSF0=

> <s_epik_cmdline>
J2VwaWtfcHl0aG9uJywgJy1waCcsICc3LjAnLCAnLXRuJywgJzgnLCAnLW1hJywgJzIwMCcsICctbWV0YWxfYmluZGluZycsICctaW1hZScsICc8aW5maWxlLm1hZT4nLCAnLW9tYWUnLCAnPG91dGZpbGUubWFlPic=

> <r_lp_tautomer_probability>
0.85571

> <r_epik_Ionization_Penalty>
1.75936

> <r_epik_Ionization_Penalty_Charging>
4.55893e-11

> <r_epik_Ionization_Penalty_Neutral>
1.75936

> <r_epik_State_Penalty>
1.72072

> <r_epik_Charging_Adjusted_Penalty>
1.72072

> <i_epik_Tot_Q>
-1

> <i_epik_Tot_abs_Q>
1

> <r_epik_Metal_State_Penalty>
0.400338

> <b_epik_Metal_Only>
1

> <s_epik_Chemistry_Notes>
This compound contains an acetal/aminal-like group ( X-CH(R)-Y where X, Y are N, S, or O) that may be acid/base labile, releasing an aldehyde.

> <s_lp_Force_Field>
OPLS_2005

> <r_lp_Energy>
55.0849

> <b_lp_Chiralities_Consistent>
1

> <s_lp_Variant>
AV-unprocessed.smi:54-23

> <Gold.Version>
5.8.1

> <Gold.Id.Protein>
6NUR|6NUR_protein|mol2

> <Gold.PLP.Fitness>
55.2891

> <Gold.PLP.PLP>
-33.4780

> <Gold.PLP.part.hbond>
-8.9667

> <Gold.PLP.part.metal>
0.0000

> <Gold.PLP.part.buried>
-6.5142

> <Gold.PLP.part.nonpolar>
-19.1150

> <Gold.PLP.part.repulsive>
0.1518

> <Gold.PLP.ligand.clash>
0.0000

> <Gold.PLP.ligand.torsion>
0.8814

> <Gold.PLP.Chemscore.Hbond>
7.8297

> <Gold.PLP.Chemscore.CHOScore>
0.0000

> <Gold.PLP.Chemscore.Metal>
0.0000

> <Gold.Chemscore.Hbonds>
donor molecule, donor type, donor heavy atom, donor atom, acceptor molecule, acceptor atom, score
      L1  H    18    41       P1  7957  1.00
      L1  H    20    42       P1  7957  0.73
      L1  H    22    43       P1  8028  1.00
      P1  H  6896  6909       L1    25  2.00
      P1  H  6931  6943       L1     5  0.99
      P1  H  6934  6947       L1     5  0.82
      P1  H  7954  7966       L1    18  0.08
      P1  H  7989  7998       L1    20  0.01
      P1  H  8011  8017       L1    20  1.00

> <Gold.PLP.Chemscore.Internal.Correction>
0.0850

> <Gold.Rescore>
     Score         DG    S(hbond)    S(metal)    S(lipo)     H(rot)  DE(clash)    DE(int)     intcor
     18.85     -19.85       5.78        0.00      45.85       4.02       0.07       0.93       ----

> <Gold.Chemscore.Fitness>
18.8473

> <Gold.Chemscore.DG>
-19.8450

> <Gold.Chemscore.ZeroCoef>
-5.4800

> <Gold.Chemscore.Hbond>
5.7755

> <Gold.Chemscore.Metal>
0.0000

> <Gold.Chemscore.Lipo>
45.8462

> <Gold.Chemscore.Internal_Hbond>
0.0000

> <Gold.Chemscore.DEClash>
0.0698

> <Gold.Chemscore.DEInternal>
0.9279

> <Gold.Chemscore.Rot>
4.0192

> <Gold.Chemscore.Internal.Correction>
   9.000000E+99

> <Gold.Chemscore.Hbonds>
donor molecule, donor type, donor heavy atom, donor atom, acceptor molecule, acceptor atom, score
      L1  H    18    41       P1  7957  0.96
      L1  H    20    42       P1  7957  0.70
      L1  H    22    43       P1  8028  0.43
      P1  H  6896  6909       L1    25  0.72
      P1  H  6931  6943       L1     5  0.93
      P1  H  6934  6947       L1     5  0.80
      P1  H  8011  8017       L1    20  0.39

> <Gold.Chemscore.Hbond.Weighted>
-19.2903

> <Gold.Chemscore.Metal.Weighted>
-0.0000

> <Gold.Chemscore.Lipo.Weighted>
-5.3640

> <Gold.Chemscore.Internal_Hbond.Weighted>
0.0000

> <Gold.Chemscore.DEClash.Weighted>
0.0698

> <Gold.Chemscore.DEInternal.Weighted>
0.9279

> <Gold.Chemscore.Rot.Weighted>
10.2893

> <Gold.Chemscore.Internal.Correction.Weighted>
   9.000000E+99

> <Gold.Protein.RotatedTorsions>
[ 6907 6896 6895 6894 ] final   83.68 input  -60.11 | X-H torsion
[ 7974 7965 7964 7962 ] final   56.72 input  175.53 | X-H torsion
[ 8008 7997 7996 7995 ] final  -14.11 input   59.86 | X-H torsion
[ 10167 10162 10161 10158 ] final  134.28 input  -65.29 | X-H torsion
[ 10718 10713 10712 10709 ] final  -54.44 input   66.30 | X-H torsion
[ 10763 10752 10751 10750 ] final  -95.87 input  -60.55 | X-H torsion
[ 11005 11000 10999 10996 ] final   89.88 input  -57.11 | X-H torsion

> <Gold.Protein.ActiveResidues>
 VAL166  LYS551  ARG553  GLY616  TRP617  ASP618  TYR619  PRO620  LYS621  CYS622 
 ASP623  PHE694  ASN695  SER759  ASP760  ASP761  ALA762  ILE779  LEU786  VAL792 
 PHE793  MET794  SER795  GLU796  ALA797  LYS798  CYS799  TRP800  GLU811  SER814 

> <Gold.Protein.RotatedAtoms>
  152.5333  134.2859  159.9024 H   0  0  0  0  0  0  0  0  0  0  0  0  # atno 6907 bound_to 6896
  151.2812  133.4202  159.2634 H   0  0  0  0  0  0  0  0  0  0  0  0  # atno 6908 bound_to 6896
  151.0282  134.9535  159.8153 H   0  0  0  0  0  0  0  0  0  0  0  0  # atno 6909 bound_to 6896
  145.9368  139.3854  143.0388 H   0  0  0  0  0  0  0  0  0  0  0  0  # atno 7974 bound_to 7965
  154.5237  140.2232  155.8929 H   0  0  0  0  0  0  0  0  0  0  0  0  # atno 8008 bound_to 7997
  156.1690  140.3126  155.8904 H   0  0  0  0  0  0  0  0  0  0  0  0  # atno 8009 bound_to 7997
  155.3597  140.0460  157.3037 H   0  0  0  0  0  0  0  0  0  0  0  0  # atno 8010 bound_to 7997
  139.5262  144.6575  151.5117 H   0  0  0  0  0  0  0  0  0  0  0  0  # atno 10167 bound_to 10162
  156.1450  130.4153  150.0039 H   0  0  0  0  0  0  0  0  0  0  0  0  # atno 10718 bound_to 10713
  154.7188  135.5104  153.8780 H   0  0  0  0  0  0  0  0  0  0  0  0  # atno 10763 bound_to 10752
  153.0844  135.6641  153.9988 H   0  0  0  0  0  0  0  0  0  0  0  0  # atno 10764 bound_to 10752
  153.9815  135.3028  155.3399 H   0  0  0  0  0  0  0  0  0  0  0  0  # atno 10765 bound_to 10752
  139.8867  134.8579  156.3204 H   0  0  0  0  0  0  0  0  0  0  0  0  # atno 11005 bound_to 11000
  145.8353  140.9609  143.0827 LP  0  0  0  0  0  0  0  0  0  0  0  0  # atno 17320 bound_to 7965
  144.6773  140.0215  143.7483 LP  0  0  0  0  0  0  0  0  0  0  0  0  # atno 17321 bound_to 7965
  140.6407  143.8894  150.6689 LP  0  0  0  0  0  0  0  0  0  0  0  0  # atno 17342 bound_to 10162
  140.2228  143.3796  152.1629 LP  0  0  0  0  0  0  0  0  0  0  0  0  # atno 17343 bound_to 10162
  156.7913  130.9257  151.3646 LP  0  0  0  0  0  0  0  0  0  0  0  0  # atno 17370 bound_to 10713
  157.6609  130.8965  149.9827 LP  0  0  0  0  0  0  0  0  0  0  0  0  # atno 17371 bound_to 10713
  140.9790  133.7279  156.0644 LP  0  0  0  0  0  0  0  0  0  0  0  0  # atno 17394 bound_to 11000
  140.7774  134.3764  157.5495 LP  0  0  0  0  0  0  0  0  0  0  0  0  # atno 17395 bound_to 11000

$$$$
