AV-unprocessed.smi:670|AV-procd|sdf|3266|dock10
  -GOLD-   22720 0223D 1   1.00000     0.00000
 Structure written by MMmdl.
 44 45  0  0  0  0  0  0  0  0  2 V2000
  151.7885  144.3205  158.0845 C   0  0  0  0  0  0  0  0  0  0  0  0
  152.4445  143.9514  159.4242 C   0  0  1  0  0  0  0  0  0  0  0  0
  151.6248  144.4703  160.6244 C   0  0  0  0  0  0  0  0  0  0  0  0
  152.3022  144.1321  161.9618 C   0  0  0  0  0  0  0  0  0  0  0  0
  152.5799  142.6269  162.0812 C   0  0  0  0  0  0  0  0  0  0  0  0
  153.3997  142.1138  160.8875 C   0  0  0  0  0  0  0  0  0  0  0  0
  152.7056  142.4329  159.5452 C   0  0  1  0  0  0  0  0  0  0  0  0
  151.4512  141.7690  159.4492 O   0  0  0  0  0  0  0  0  0  0  0  0
  151.0742  141.3467  158.1479 C   0  0  0  0  0  0  0  0  0  0  0  0
  150.2338  140.0662  158.2670 C   0  0  0  0  0  0  0  0  0  0  0  0
  150.9258  138.9153  157.6961 N   0  0  0  0  0  0  0  0  0  0  0  0
  151.2166  137.7810  158.3523 C   0  0  0  0  0  0  0  0  0  0  0  0
  150.8791  137.5692  159.5175 O   0  0  0  0  0  0  0  0  0  0  0  0
  151.9783  136.7110  157.5593 C   0  0  0  0  0  0  0  0  0  0  0  0
  151.0776  135.8052  156.8335 N   0  0  0  0  0  0  0  0  0  0  0  0
  150.3080  134.9263  157.7109 N   0  5  0  0  0  0  0  0  0  0  0  0
  149.3972  134.0770  157.1660 C   0  0  0  0  0  0  0  0  0  0  0  0
  148.6933  133.3314  157.8429 O   0  0  0  0  0  0  0  0  0  0  0  0
  149.2598  134.0579  155.7194 C   0  0  0  0  0  0  0  0  0  0  0  0
  150.0075  134.8557  154.9316 C   0  0  0  0  0  0  0  0  0  0  0  0
  150.9878  135.7891  155.4724 C   0  0  0  0  0  0  0  0  0  0  0  0
  151.6784  136.5127  154.7553 O   0  0  0  0  0  0  0  0  0  0  0  0
  150.7951  143.8805  157.9916 H   0  0  0  0  0  0  0  0  0  0  0  0
  152.3881  143.9709  157.2437 H   0  0  0  0  0  0  0  0  0  0  0  0
  151.6815  145.4010  157.9863 H   0  0  0  0  0  0  0  0  0  0  0  0
  153.4136  144.4519  159.4497 H   0  0  0  0  0  0  0  0  0  0  0  0
  151.4924  145.5498  160.5474 H   0  0  0  0  0  0  0  0  0  0  0  0
  150.6235  144.0374  160.6062 H   0  0  0  0  0  0  0  0  0  0  0  0
  153.2388  144.6840  162.0473 H   0  0  0  0  0  0  0  0  0  0  0  0
  151.6731  144.4596  162.7896 H   0  0  0  0  0  0  0  0  0  0  0  0
  153.1046  142.4176  163.0134 H   0  0  0  0  0  0  0  0  0  0  0  0
  151.6352  142.0859  162.1303 H   0  0  0  0  0  0  0  0  0  0  0  0
  154.3839  142.5836  160.9019 H   0  0  0  0  0  0  0  0  0  0  0  0
  153.5820  141.0456  160.9953 H   0  0  0  0  0  0  0  0  0  0  0  0
  153.3457  142.1199  158.7186 H   0  0  0  0  0  0  0  0  0  0  0  0
  150.4864  142.1321  157.6712 H   0  0  0  0  0  0  0  0  0  0  0  0
  151.9423  141.1609  157.5161 H   0  0  0  0  0  0  0  0  0  0  0  0
  149.9587  139.8798  159.3064 H   0  0  0  0  0  0  0  0  0  0  0  0
  149.3004  140.1934  157.7186 H   0  0  0  0  0  0  0  0  0  0  0  0
  151.2427  138.9991  156.7411 H   0  0  0  0  0  0  0  0  0  0  0  0
  152.6538  137.2089  156.8618 H   0  0  0  0  0  0  0  0  0  0  0  0
  152.6267  136.1447  158.2312 H   0  0  0  0  0  0  0  0  0  0  0  0
  148.5448  133.3874  155.2664 H   0  0  0  0  0  0  0  0  0  0  0  0
  149.8739  134.8071  153.8613 H   0  0  0  0  0  0  0  0  0  0  0  0
  1  2  1  0  0  0  0
  1 23  1  0  0  0  0
  1 24  1  0  0  0  0
  1 25  1  0  0  0  0
  2  7  1  0  0  0  0
  2  3  1  0  0  0  0
  2 26  1  0  0  0  0
  3  4  1  0  0  0  0
  3 27  1  0  0  0  0
  3 28  1  0  0  0  0
  4  5  1  0  0  0  0
  4 29  1  0  0  0  0
  4 30  1  0  0  0  0
  5  6  1  0  0  0  0
  5 31  1  0  0  0  0
  5 32  1  0  0  0  0
  6  7  1  0  0  0  0
  6 33  1  0  0  0  0
  6 34  1  0  0  0  0
  7  8  1  0  0  0  0
  7 35  1  0  0  0  0
  8  9  1  0  0  0  0
  9 10  1  0  0  0  0
  9 36  1  0  0  0  0
  9 37  1  0  0  0  0
 10 11  1  0  0  0  0
 10 38  1  0  0  0  0
 10 39  1  0  0  0  0
 11 12  1  0  0  0  0
 11 40  1  0  0  0  0
 12 13  2  0  0  0  0
 12 14  1  0  0  0  0
 14 41  1  0  0  0  0
 14 42  1  0  0  0  0
 14 15  1  0  0  0  0
 15 16  1  0  0  0  0
 15 21  1  0  0  0  0
 16 17  1  0  0  0  0
 17 18  2  0  0  0  0
 17 19  1  0  0  0  0
 19 43  1  0  0  0  0
 19 20  2  0  0  0  0
 20 44  1  0  0  0  0
 20 21  1  0  0  0  0
 21 22  2  0  0  0  0
M  CHG  1  16  -1
M  END
> <s_m_source_file>
AV-unprocessed.smi

> <i_m_source_file_index>
670

> <i_lp_mmshare_version>
43012

> <i_f3d_flags>
0

> <s_epik_input>
W0NIM11bQ0BASF0xW0NIMl1bQ0gyXVtDSDJdW0NIMl1bQ0BIXTFPW0NIMl1bQ0gyXVtOSF1DKD1PKVtDSDJdbjJbbkhdYyg9TylbY0hdW2NIXWMyPU8=

> <s_epik_cmdline>
J2VwaWtfcHl0aG9uJywgJy1waCcsICc3LjAnLCAnLXRuJywgJzgnLCAnLW1hJywgJzIwMCcsICctbWV0YWxfYmluZGluZycsICctaW1hZScsICc8aW5maWxlLm1hZT4nLCAnLW9tYWUnLCAnPG91dGZpbGUubWFlPic=

> <r_lp_tautomer_probability>
1

> <r_epik_Ionization_Penalty>
0.0975638

> <r_epik_Ionization_Penalty_Charging>
0.0975637

> <r_epik_Ionization_Penalty_Neutral>
2.78599e-08

> <r_epik_State_Penalty>
0.0343507

> <r_epik_Charging_Adjusted_Penalty>
0.131914

> <i_epik_Tot_Q>
-1

> <i_epik_Tot_abs_Q>
1

> <r_epik_Metal_State_Penalty>
0.0343507

> <b_epik_Metal_Only>
0

> <s_lp_Force_Field>
OPLS_2005

> <r_lp_Energy>
24.4617

> <b_lp_Chiralities_Consistent>
1

> <s_lp_Variant>
AV-unprocessed.smi:670-2

> <Gold.Version>
5.8.1

> <Gold.Id.Protein>
6NUR|6NUR_protein|mol2

> <Gold.PLP.Fitness>
47.7176

> <Gold.PLP.PLP>
-43.8572

> <Gold.PLP.part.hbond>
-2.4183

> <Gold.PLP.part.metal>
0.0000

> <Gold.PLP.part.buried>
-6.7688

> <Gold.PLP.part.nonpolar>
-34.8198

> <Gold.PLP.part.repulsive>
0.1927

> <Gold.PLP.ligand.clash>
0.0000

> <Gold.PLP.ligand.torsion>
1.4585

> <Gold.PLP.Chemscore.Hbond>
2.2400

> <Gold.PLP.Chemscore.CHOScore>
0.0000

> <Gold.PLP.Chemscore.Metal>
0.0000

> <Gold.Chemscore.Hbonds>
donor molecule, donor type, donor heavy atom, donor atom, acceptor molecule, acceptor atom, score
      P1  H  6896  6909       L1    16  0.97
      P1  H 10752 10764       L1    22  0.91

> <Gold.PLP.Chemscore.Internal.Correction>
0.0574

> <Gold.Rescore>
     Score         DG    S(hbond)    S(metal)    S(lipo)     H(rot)  DE(clash)    DE(int)     intcor
     16.92     -19.16       2.42        0.00     101.41       2.45       0.15       2.09       ----

> <Gold.Chemscore.Fitness>
16.9197

> <Gold.Chemscore.DG>
-19.1625

> <Gold.Chemscore.ZeroCoef>
-5.4800

> <Gold.Chemscore.Hbond>
2.4212

> <Gold.Chemscore.Metal>
0.0000

> <Gold.Chemscore.Lipo>
101.4103

> <Gold.Chemscore.Internal_Hbond>
0.0000

> <Gold.Chemscore.DEClash>
0.1492

> <Gold.Chemscore.DEInternal>
2.0936

> <Gold.Chemscore.Rot>
2.4490

> <Gold.Chemscore.Internal.Correction>
   9.000000E+99

> <Gold.Chemscore.Hbonds>
donor molecule, donor type, donor heavy atom, donor atom, acceptor molecule, acceptor atom, score
      P1  H  6896  6909       L1    16  0.11
      P1  H 10752 10764       L1    22  0.70

> <Gold.Chemscore.Hbond.Weighted>
-8.0869

> <Gold.Chemscore.Metal.Weighted>
-0.0000

> <Gold.Chemscore.Lipo.Weighted>
-11.8650

> <Gold.Chemscore.Internal_Hbond.Weighted>
0.0000

> <Gold.Chemscore.DEClash.Weighted>
0.1492

> <Gold.Chemscore.DEInternal.Weighted>
2.0936

> <Gold.Chemscore.Rot.Weighted>
6.2694

> <Gold.Chemscore.Internal.Correction.Weighted>
   9.000000E+99

> <Gold.Protein.RotatedTorsions>
[ 6907 6896 6895 6894 ] final    5.82 input  -60.11 | X-H torsion
[ 7974 7965 7964 7962 ] final   92.15 input  175.53 | X-H torsion
[ 8008 7997 7996 7995 ] final  -58.34 input   59.86 | X-H torsion
[ 10167 10162 10161 10158 ] final  112.63 input  -65.29 | X-H torsion
[ 10718 10713 10712 10709 ] final -128.18 input   66.30 | X-H torsion
[ 10763 10752 10751 10750 ] final  -87.56 input  -60.55 | X-H torsion
[ 11005 11000 10999 10996 ] final -174.56 input  -57.11 | X-H torsion

> <Gold.Protein.ActiveResidues>
 VAL166  LYS551  ARG553  GLY616  TRP617  ASP618  TYR619  PRO620  LYS621  CYS622 
 ASP623  PHE694  ASN695  SER759  ASP760  ASP761  ALA762  ILE779  LEU786  VAL792 
 PHE793  MET794  SER795  GLU796  ALA797  LYS798  CYS799  TRP800  GLU811  SER814 

> <Gold.Protein.RotatedAtoms>
  151.6638  135.0986  160.0184 H   0  0  0  0  0  0  0  0  0  0  0  0  # atno 6907 bound_to 6896
  152.3931  133.6704  159.6263 H   0  0  0  0  0  0  0  0  0  0  0  0  # atno 6908 bound_to 6896
  150.7843  133.8836  159.3334 H   0  0  0  0  0  0  0  0  0  0  0  0  # atno 6909 bound_to 6896
  145.4962  139.2276  143.2803 H   0  0  0  0  0  0  0  0  0  0  0  0  # atno 7974 bound_to 7965
  154.4305  140.1086  156.5942 H   0  0  0  0  0  0  0  0  0  0  0  0  # atno 8008 bound_to 7997
  155.5980  140.3493  155.4566 H   0  0  0  0  0  0  0  0  0  0  0  0  # atno 8009 bound_to 7997
  156.0196  140.1236  157.0361 H   0  0  0  0  0  0  0  0  0  0  0  0  # atno 8010 bound_to 7997
  139.6521  144.7128  151.2027 H   0  0  0  0  0  0  0  0  0  0  0  0  # atno 10167 bound_to 10162
  156.1926  130.6805  151.0443 H   0  0  0  0  0  0  0  0  0  0  0  0  # atno 10718 bound_to 10713
  154.6350  135.5409  153.7723 H   0  0  0  0  0  0  0  0  0  0  0  0  # atno 10763 bound_to 10752
  153.0304  135.6445  154.1245 H   0  0  0  0  0  0  0  0  0  0  0  0  # atno 10764 bound_to 10752
  154.1173  135.2922  155.3197 H   0  0  0  0  0  0  0  0  0  0  0  0  # atno 10765 bound_to 10752
  140.4732  134.6146  157.4890 H   0  0  0  0  0  0  0  0  0  0  0  0  # atno 11005 bound_to 11000
  146.2254  140.5759  142.8998 LP  0  0  0  0  0  0  0  0  0  0  0  0  # atno 17320 bound_to 7965
  144.7806  140.5832  143.6608 LP  0  0  0  0  0  0  0  0  0  0  0  0  # atno 17321 bound_to 7965
  140.7542  143.6132  150.8585 LP  0  0  0  0  0  0  0  0  0  0  0  0  # atno 17342 bound_to 10162
  139.9781  143.5981  152.2952 LP  0  0  0  0  0  0  0  0  0  0  0  0  # atno 17343 bound_to 10162
  157.6938  131.0801  150.7028 LP  0  0  0  0  0  0  0  0  0  0  0  0  # atno 17370 bound_to 10713
  156.7085  130.4644  149.5553 LP  0  0  0  0  0  0  0  0  0  0  0  0  # atno 17371 bound_to 10713
  139.9872  134.7042  155.9752 LP  0  0  0  0  0  0  0  0  0  0  0  0  # atno 17394 bound_to 11000
  141.1567  133.6542  156.4184 LP  0  0  0  0  0  0  0  0  0  0  0  0  # atno 17395 bound_to 11000

$$$$
