AV-unprocessed.smi:806|AV-procd|sdf|3801|dock5
  -GOLD-   22720 1233D 1   1.00000     0.00000
 Structure written by MMmdl.
 44 45  0  0  0  0  0  0  0  0  1 V2000
  146.8348  140.8850  153.7057 C   0  0  0  0  0  0  0  0  0  0  0  0
  147.5623  139.7412  154.2852 N   0  0  0  0  0  0  0  0  0  0  0  0
  147.2354  138.4568  153.9625 C   0  0  0  0  0  0  0  0  0  0  0  0
  147.6977  137.4896  154.5702 O   0  0  0  0  0  0  0  0  0  0  0  0
  146.2500  138.1787  152.8054 C   0  0  0  0  0  0  0  0  0  0  0  0
  146.0802  136.7582  152.4526 N   0  0  0  0  0  0  0  0  0  0  0  0
  145.0494  136.5463  151.4424 C   0  0  0  0  0  0  0  0  0  0  0  0
  144.1217  135.4083  151.8928 C   0  0  0  0  0  0  0  0  0  0  0  0
  144.4866  134.1457  151.2799 N   0  0  0  0  0  0  0  0  0  0  0  0
  143.6895  133.2815  150.5591 C   0  0  0  0  0  0  0  0  0  0  0  0
  144.4712  132.2276  150.1810 C   0  0  0  0  0  0  0  0  0  0  0  0
  145.7478  132.5414  150.7258 C   0  0  0  0  0  0  0  0  0  0  0  0
  145.7538  133.6899  151.3830 N   0  0  0  0  0  0  0  0  0  0  0  0
  148.6399  140.0490  155.2782 C   0  0  0  0  0  0  0  0  0  0  0  0
  149.9595  139.6077  154.7698 C   0  0  0  0  0  0  0  0  0  0  0  0
  150.9922  139.2655  154.3731 N   0  0  0  0  0  0  0  0  0  0  0  0
  148.7894  141.5723  155.5831 C   0  0  0  0  0  0  0  0  0  0  0  0
  149.8628  141.8595  156.6488 C   0  0  0  0  0  0  0  0  0  0  0  0
  149.5462  141.1143  157.9531 C   0  0  0  0  0  0  0  0  0  0  0  0
  149.3717  139.6088  157.7082 C   0  0  0  0  0  0  0  0  0  0  0  0
  148.3186  139.3337  156.6188 C   0  0  0  0  0  0  0  0  0  0  0  0
  145.9125  140.6333  153.1859 H   0  0  0  0  0  0  0  0  0  0  0  0
  147.4670  141.4282  153.0030 H   0  0  0  0  0  0  0  0  0  0  0  0
  146.5118  141.5685  154.4898 H   0  0  0  0  0  0  0  0  0  0  0  0
  145.2759  138.5724  153.0967 H   0  0  0  0  0  0  0  0  0  0  0  0
  146.5568  138.7140  151.9060 H   0  0  0  0  0  0  0  0  0  0  0  0
  145.8574  136.2035  153.2665 H   0  0  0  0  0  0  0  0  0  0  0  0
  144.4736  137.4639  151.3133 H   0  0  0  0  0  0  0  0  0  0  0  0
  145.4895  136.3011  150.4754 H   0  0  0  0  0  0  0  0  0  0  0  0
  144.1546  135.2917  152.9774 H   0  0  0  0  0  0  0  0  0  0  0  0
  143.0868  135.6319  151.6293 H   0  0  0  0  0  0  0  0  0  0  0  0
  142.6450  133.4865  150.3763 H   0  0  0  0  0  0  0  0  0  0  0  0
  144.1762  131.3641  149.6034 H   0  0  0  0  0  0  0  0  0  0  0  0
  146.6638  131.9726  150.6633 H   0  0  0  0  0  0  0  0  0  0  0  0
  149.0377  142.1146  154.6700 H   0  0  0  0  0  0  0  0  0  0  0  0
  147.8624  142.0018  155.9598 H   0  0  0  0  0  0  0  0  0  0  0  0
  150.8495  141.5706  156.2860 H   0  0  0  0  0  0  0  0  0  0  0  0
  149.9133  142.9315  156.8418 H   0  0  0  0  0  0  0  0  0  0  0  0
  150.3396  141.2837  158.6816 H   0  0  0  0  0  0  0  0  0  0  0  0
  148.6332  141.5195  158.3911 H   0  0  0  0  0  0  0  0  0  0  0  0
  150.3278  139.1707  157.4197 H   0  0  0  0  0  0  0  0  0  0  0  0
  149.0793  139.1166  158.6362 H   0  0  0  0  0  0  0  0  0  0  0  0
  147.3401  139.6552  156.9782 H   0  0  0  0  0  0  0  0  0  0  0  0
  148.2458  138.2557  156.4763 H   0  0  0  0  0  0  0  0  0  0  0  0
  1  2  1  0  0  0  0
  1 22  1  0  0  0  0
  1 23  1  0  0  0  0
  1 24  1  0  0  0  0
  2  3  1  0  0  0  0
  2 14  1  0  0  0  0
  3  4  2  0  0  0  0
  3  5  1  0  0  0  0
  5  6  1  0  0  0  0
  5 25  1  0  0  0  0
  5 26  1  0  0  0  0
  6  7  1  0  0  0  0
  6 27  1  0  0  0  0
  7  8  1  0  0  0  0
  7 28  1  0  0  0  0
  7 29  1  0  0  0  0
  8  9  1  0  0  0  0
  8 30  1  0  0  0  0
  8 31  1  0  0  0  0
  9 13  1  0  0  0  0
  9 10  1  0  0  0  0
 10 11  2  0  0  0  0
 10 32  1  0  0  0  0
 11 12  1  0  0  0  0
 11 33  1  0  0  0  0
 12 13  2  0  0  0  0
 12 34  1  0  0  0  0
 14 21  1  0  0  0  0
 14 15  1  0  0  0  0
 14 17  1  0  0  0  0
 15 16  3  0  0  0  0
 17 18  1  0  0  0  0
 17 35  1  0  0  0  0
 17 36  1  0  0  0  0
 18 19  1  0  0  0  0
 18 37  1  0  0  0  0
 18 38  1  0  0  0  0
 19 20  1  0  0  0  0
 19 39  1  0  0  0  0
 19 40  1  0  0  0  0
 20 21  1  0  0  0  0
 20 41  1  0  0  0  0
 20 42  1  0  0  0  0
 21 43  1  0  0  0  0
 21 44  1  0  0  0  0
M  END
> <s_m_source_file>
AV-unprocessed.smi

> <i_m_source_file_index>
806

> <i_lp_mmshare_version>
43012

> <i_f3d_flags>
0

> <s_epik_input>
W0NIMl0xW0NIMl1bQ0gyXVtDSDJdW0NIMl1DMShDI04pTihbQ0gzXSlDKD1PKVtDSDJdW05IXVtDSDJdW0NIMl1uMltjSF1bY0hdW2NIXW4y

> <s_epik_cmdline>
J2VwaWtfcHl0aG9uJywgJy1waCcsICc3LjAnLCAnLXRuJywgJzgnLCAnLW1hJywgJzIwMCcsICctbWV0YWxfYmluZGluZycsICctaW1hZScsICc8aW5maWxlLm1hZT4nLCAnLW9tYWUnLCAnPG91dGZpbGUubWFlPic=

> <r_lp_tautomer_probability>
1

> <r_epik_Ionization_Penalty>
0.481166

> <r_epik_Ionization_Penalty_Charging>
0

> <r_epik_Ionization_Penalty_Neutral>
0.481166

> <r_epik_State_Penalty>
0.484368

> <r_epik_Charging_Adjusted_Penalty>
0.484368

> <i_epik_Tot_Q>
0

> <i_epik_Tot_abs_Q>
0

> <r_epik_Metal_State_Penalty>
0.483438

> <b_epik_Metal_Only>
0

> <s_lp_Force_Field>
OPLS_2005

> <r_lp_Energy>
29.6392

> <b_lp_Chiralities_Consistent>
1

> <s_lp_Variant>
AV-unprocessed.smi:806-2

> <Gold.Version>
5.8.1

> <Gold.Id.Protein>
6NUR|6NUR_protein|mol2

> <Gold.PLP.Fitness>
39.1224

> <Gold.PLP.PLP>
-31.4719

> <Gold.PLP.part.hbond>
-2.0000

> <Gold.PLP.part.metal>
0.0000

> <Gold.PLP.part.buried>
-1.5300

> <Gold.PLP.part.nonpolar>
-30.2204

> <Gold.PLP.part.repulsive>
1.3237

> <Gold.PLP.ligand.clash>
0.0000

> <Gold.PLP.ligand.torsion>
0.7659

> <Gold.PLP.Chemscore.Hbond>
1.0000

> <Gold.PLP.Chemscore.CHOScore>
2.0000

> <Gold.PLP.Chemscore.Metal>
0.0000

> <Gold.Chemscore.Hbonds>
donor molecule, donor type, donor heavy atom, donor atom, acceptor molecule, acceptor atom, score
      P1  H  7989  7998       L1    16  1.00
      L1  C    10    32       P1 10186  1.00
      L1  C    12    34       P1 10747  0.84

> <Gold.PLP.Chemscore.Internal.Correction>
0.1823

> <Gold.Rescore>
     Score         DG    S(hbond)    S(metal)    S(lipo)     H(rot)  DE(clash)    DE(int)     intcor
      8.34     -11.98       0.97        0.00      71.93       2.01       1.40       2.25       ----

> <Gold.Chemscore.Fitness>
8.3391

> <Gold.Chemscore.DG>
-11.9841

> <Gold.Chemscore.ZeroCoef>
-5.4800

> <Gold.Chemscore.Hbond>
0.9713

> <Gold.Chemscore.Metal>
0.0000

> <Gold.Chemscore.Lipo>
71.9335

> <Gold.Chemscore.Internal_Hbond>
0.0000

> <Gold.Chemscore.DEClash>
1.3958

> <Gold.Chemscore.DEInternal>
2.2492

> <Gold.Chemscore.Rot>
2.0142

> <Gold.Chemscore.Internal.Correction>
   9.000000E+99

> <Gold.Chemscore.Hbonds>
donor molecule, donor type, donor heavy atom, donor atom, acceptor molecule, acceptor atom, score
      P1  H  7989  7998       L1    16  0.35

> <Gold.Chemscore.Hbond.Weighted>
-3.2442

> <Gold.Chemscore.Metal.Weighted>
-0.0000

> <Gold.Chemscore.Lipo.Weighted>
-8.4162

> <Gold.Chemscore.Internal_Hbond.Weighted>
0.0000

> <Gold.Chemscore.DEClash.Weighted>
1.3958

> <Gold.Chemscore.DEInternal.Weighted>
2.2492

> <Gold.Chemscore.Rot.Weighted>
5.1563

> <Gold.Chemscore.Internal.Correction.Weighted>
   9.000000E+99

> <Gold.Protein.RotatedTorsions>
[ 6907 6896 6895 6894 ] final   59.35 input  -60.11 | X-H torsion
[ 7974 7965 7964 7962 ] final   24.77 input  175.53 | X-H torsion
[ 8008 7997 7996 7995 ] final -179.19 input   59.86 | X-H torsion
[ 10167 10162 10161 10158 ] final   -3.71 input  -65.29 | X-H torsion
[ 10718 10713 10712 10709 ] final  126.74 input   66.30 | X-H torsion
[ 10763 10752 10751 10750 ] final -136.14 input  -60.55 | X-H torsion
[ 11005 11000 10999 10996 ] final  164.67 input  -57.11 | X-H torsion

> <Gold.Protein.ActiveResidues>
 VAL166  LYS551  ARG553  GLY616  TRP617  ASP618  TYR619  PRO620  LYS621  CYS622 
 ASP623  PHE694  ASN695  SER759  ASP760  ASP761  ALA762  ILE779  LEU786  VAL792 
 PHE793  MET794  SER795  GLU796  ALA797  LYS798  CYS799  TRP800  GLU811  SER814 

> <Gold.Protein.RotatedAtoms>
  152.3907  134.6446  160.0108 H   0  0  0  0  0  0  0  0  0  0  0  0  # atno 6907 bound_to 6896
  151.6681  133.3309  159.3198 H   0  0  0  0  0  0  0  0  0  0  0  0  # atno 6908 bound_to 6896
  150.7824  134.6823  159.6495 H   0  0  0  0  0  0  0  0  0  0  0  0  # atno 6909 bound_to 6896
  146.1921  139.7558  142.8824 H   0  0  0  0  0  0  0  0  0  0  0  0  # atno 7974 bound_to 7965
  156.0276  140.1275  157.0292 H   0  0  0  0  0  0  0  0  0  0  0  0  # atno 8008 bound_to 7997
  154.4337  140.1056  156.6124 H   0  0  0  0  0  0  0  0  0  0  0  0  # atno 8009 bound_to 7997
  155.5853  140.3468  155.4554 H   0  0  0  0  0  0  0  0  0  0  0  0  # atno 8010 bound_to 7997
  140.6900  143.6507  150.8352 H   0  0  0  0  0  0  0  0  0  0  0  0  # atno 10167 bound_to 10162
  157.5393  131.1097  150.8884 H   0  0  0  0  0  0  0  0  0  0  0  0  # atno 10718 bound_to 10713
  154.8690  135.3682  154.5012 H   0  0  0  0  0  0  0  0  0  0  0  0  # atno 10763 bound_to 10752
  153.5652  135.7022  153.5534 H   0  0  0  0  0  0  0  0  0  0  0  0  # atno 10764 bound_to 10752
  153.3591  135.4051  155.1668 H   0  0  0  0  0  0  0  0  0  0  0  0  # atno 10765 bound_to 10752
  140.2482  134.7997  157.3477 H   0  0  0  0  0  0  0  0  0  0  0  0  # atno 11005 bound_to 11000
  145.3759  141.0350  143.3204 LP  0  0  0  0  0  0  0  0  0  0  0  0  # atno 17320 bound_to 7965
  144.8507  139.5326  143.6857 LP  0  0  0  0  0  0  0  0  0  0  0  0  # atno 17321 bound_to 7965
  140.0219  143.5533  152.2797 LP  0  0  0  0  0  0  0  0  0  0  0  0  # atno 17342 bound_to 10162
  139.6295  144.7642  151.2567 LP  0  0  0  0  0  0  0  0  0  0  0  0  # atno 17343 bound_to 10162
  156.9442  130.5395  149.5281 LP  0  0  0  0  0  0  0  0  0  0  0  0  # atno 17370 bound_to 10713
  156.0484  130.5557  150.8933 LP  0  0  0  0  0  0  0  0  0  0  0  0  # atno 17371 bound_to 10713
  140.1584  134.4760  155.7912 LP  0  0  0  0  0  0  0  0  0  0  0  0  # atno 17394 bound_to 11000
  141.2204  133.6891  156.7501 LP  0  0  0  0  0  0  0  0  0  0  0  0  # atno 17395 bound_to 11000

$$$$
