AV-unprocessed.smi:744|AV-procd|sdf|3570|dock3
  -GOLD-   22720 0563D 1   1.00000     0.00000
 Structure written by MMmdl.
 34 35  0  0  0  0  0  0  0  0  1 V2000
  144.4440  136.3916  152.2874 O   0  0  0  0  0  0  0  0  0  0  0  0
  145.6283  136.3609  151.9523 C   0  0  0  0  0  0  0  0  0  0  0  0
  146.4321  137.4342  151.9764 N   0  0  0  0  0  0  0  0  0  0  0  0
  146.0405  138.7789  152.3898 C   0  0  0  0  0  0  0  0  0  0  0  0
  147.2650  139.6664  152.6954 C   0  0  2  0  0  0  0  0  0  0  0  0
  148.2101  139.0889  153.7552 C   0  0  0  0  0  0  0  0  0  0  0  0
  149.0275  140.2807  154.2761 C   0  0  0  0  0  0  0  0  0  0  0  0
  148.3323  141.5492  153.7554 C   0  0  0  0  0  0  0  0  0  0  0  0
  146.9804  141.0919  153.1971 C   0  0  2  0  0  0  0  0  0  0  0  0
  146.0312  141.0926  154.2474 O   0  0  0  0  0  0  0  0  0  0  0  0
  146.2842  135.2714  151.5150 N   0  0  0  0  0  0  0  0  0  0  0  0
  145.7798  133.9546  151.3419 C   0  0  0  0  0  0  0  0  0  0  0  0
  144.3758  133.8637  151.2070 C   0  0  0  0  0  0  0  0  0  0  0  0
  143.7770  132.6012  151.0308 C   0  0  0  0  0  0  0  0  0  0  0  0
  144.5986  131.4604  150.9929 C   0  0  0  0  0  0  0  0  0  0  0  0
  145.9870  131.6383  151.1350 C   0  0  0  0  0  0  0  0  0  0  0  0
  146.5628  132.8472  151.3048 N   0  0  0  0  0  0  0  0  0  0  0  0
  147.3911  137.3138  151.6853 H   0  0  0  0  0  0  0  0  0  0  0  0
  145.3928  139.2485  151.6475 H   0  0  0  0  0  0  0  0  0  0  0  0
  145.4358  138.6795  153.2915 H   0  0  0  0  0  0  0  0  0  0  0  0
  147.8423  139.7610  151.7737 H   0  0  0  0  0  0  0  0  0  0  0  0
  147.6321  138.6611  154.5758 H   0  0  0  0  0  0  0  0  0  0  0  0
  148.8427  138.2963  153.3545 H   0  0  0  0  0  0  0  0  0  0  0  0
  149.0597  140.2705  155.3662 H   0  0  0  0  0  0  0  0  0  0  0  0
  150.0572  140.2379  153.9197 H   0  0  0  0  0  0  0  0  0  0  0  0
  148.2390  142.3221  154.5196 H   0  0  0  0  0  0  0  0  0  0  0  0
  148.9275  141.9717  152.9449 H   0  0  0  0  0  0  0  0  0  0  0  0
  146.6271  141.7477  152.4006 H   0  0  0  0  0  0  0  0  0  0  0  0
  145.1820  140.8864  153.8846 H   0  0  0  0  0  0  0  0  0  0  0  0
  147.2562  135.3986  151.2750 H   0  0  0  0  0  0  0  0  0  0  0  0
  143.7589  134.7504  151.2377 H   0  0  0  0  0  0  0  0  0  0  0  0
  142.7057  132.5108  150.9268 H   0  0  0  0  0  0  0  0  0  0  0  0
  144.1768  130.4755  150.8585 H   0  0  0  0  0  0  0  0  0  0  0  0
  146.6531  130.7886  151.1115 H   0  0  0  0  0  0  0  0  0  0  0  0
  1  2  2  0  0  0  0
  2  3  1  0  0  0  0
  2 11  1  0  0  0  0
  3  4  1  0  0  0  0
  3 18  1  0  0  0  0
  4  5  1  0  0  0  0
  4 19  1  0  0  0  0
  4 20  1  0  0  0  0
  5  9  1  0  0  0  0
  5  6  1  0  0  0  0
  5 21  1  0  0  0  0
  6  7  1  0  0  0  0
  6 22  1  0  0  0  0
  6 23  1  0  0  0  0
  7  8  1  0  0  0  0
  7 24  1  0  0  0  0
  7 25  1  0  0  0  0
  8  9  1  0  0  0  0
  8 26  1  0  0  0  0
  8 27  1  0  0  0  0
  9 10  1  0  0  0  0
  9 28  1  0  0  0  0
 10 29  1  0  0  0  0
 11 12  1  0  0  0  0
 11 30  1  0  0  0  0
 12 17  1  0  0  0  0
 12 13  2  0  0  0  0
 13 14  1  0  0  0  0
 13 31  1  0  0  0  0
 14 15  2  0  0  0  0
 14 32  1  0  0  0  0
 15 16  1  0  0  0  0
 15 33  1  0  0  0  0
 16 17  2  0  0  0  0
 16 34  1  0  0  0  0
M  END
> <s_m_source_file>
AV-unprocessed.smi

> <i_m_source_file_index>
744

> <i_lp_mmshare_version>
43012

> <i_f3d_flags>
0

> <s_epik_input>
bjFbY0hdW2NIXVtjSF1bY0hdYzFbTkhdQyg9TylbTkhdW0NIMl1bQ0BASF0yW0NIMl1bQ0gyXVtDSDJdW0NASF0yW09IXQ==

> <s_epik_cmdline>
J2VwaWtfcHl0aG9uJywgJy1waCcsICc3LjAnLCAnLXRuJywgJzgnLCAnLW1hJywgJzIwMCcsICctbWV0YWxfYmluZGluZycsICctaW1hZScsICc8aW5maWxlLm1hZT4nLCAnLW9tYWUnLCAnPG91dGZpbGUubWFlPic=

> <r_lp_tautomer_probability>
1

> <r_epik_Ionization_Penalty>
5.04769e-05

> <r_epik_Ionization_Penalty_Charging>
0

> <r_epik_Ionization_Penalty_Neutral>
5.04769e-05

> <r_epik_State_Penalty>
-0

> <r_epik_Charging_Adjusted_Penalty>
0

> <i_epik_Tot_Q>
0

> <i_epik_Tot_abs_Q>
0

> <r_epik_Metal_State_Penalty>
-0

> <b_epik_Metal_Only>
0

> <s_lp_Force_Field>
OPLS_2005

> <r_lp_Energy>
26.8719

> <b_lp_Chiralities_Consistent>
1

> <s_lp_Variant>
AV-unprocessed.smi:744-3

> <Gold.Version>
5.8.1

> <Gold.Id.Protein>
6NUR|6NUR_protein|mol2

> <Gold.PLP.Fitness>
42.0566

> <Gold.PLP.PLP>
-31.0543

> <Gold.PLP.part.hbond>
-3.0000

> <Gold.PLP.part.metal>
0.0000

> <Gold.PLP.part.buried>
0.5242

> <Gold.PLP.part.nonpolar>
-28.8148

> <Gold.PLP.part.repulsive>
0.7344

> <Gold.PLP.ligand.clash>
0.0041

> <Gold.PLP.ligand.torsion>
0.2156

> <Gold.PLP.Chemscore.Hbond>
2.9600

> <Gold.PLP.Chemscore.CHOScore>
0.8515

> <Gold.PLP.Chemscore.Metal>
0.0000

> <Gold.Chemscore.Hbonds>
donor molecule, donor type, donor heavy atom, donor atom, acceptor molecule, acceptor atom, score
      L1  H     3    18       P1  7948  0.93
      L1  H    10    29       P1 10175  0.86
      L1  H    11    30       P1  7948  0.91
      L1  C    16    34       P1 10747  0.90

> <Gold.PLP.Chemscore.Internal.Correction>
0.0033

> <Gold.Rescore>
     Score         DG    S(hbond)    S(metal)    S(lipo)     H(rot)  DE(clash)    DE(int)     intcor
     16.41     -18.30       2.71        0.00      71.87       1.81       0.18       1.72       ----

> <Gold.Chemscore.Fitness>
16.4079

> <Gold.Chemscore.DG>
-18.3023

> <Gold.Chemscore.ZeroCoef>
-5.4800

> <Gold.Chemscore.Hbond>
2.7051

> <Gold.Chemscore.Metal>
0.0000

> <Gold.Chemscore.Lipo>
71.8673

> <Gold.Chemscore.Internal_Hbond>
0.0000

> <Gold.Chemscore.DEClash>
0.1769

> <Gold.Chemscore.DEInternal>
1.7175

> <Gold.Chemscore.Rot>
1.8052

> <Gold.Chemscore.Internal.Correction>
   9.000000E+99

> <Gold.Chemscore.Hbonds>
donor molecule, donor type, donor heavy atom, donor atom, acceptor molecule, acceptor atom, score
      L1  H     3    18       P1  7948  0.89
      L1  H    10    29       P1 10175  0.76
      L1  H    11    30       P1  7948  0.76

> <Gold.Chemscore.Hbond.Weighted>
-9.0351

> <Gold.Chemscore.Metal.Weighted>
-0.0000

> <Gold.Chemscore.Lipo.Weighted>
-8.4085

> <Gold.Chemscore.Internal_Hbond.Weighted>
0.0000

> <Gold.Chemscore.DEClash.Weighted>
0.1769

> <Gold.Chemscore.DEInternal.Weighted>
1.7175

> <Gold.Chemscore.Rot.Weighted>
4.6212

> <Gold.Chemscore.Internal.Correction.Weighted>
   9.000000E+99

> <Gold.Protein.RotatedTorsions>
[ 6907 6896 6895 6894 ] final   59.42 input  -60.11 | X-H torsion
[ 7974 7965 7964 7962 ] final    1.36 input  175.53 | X-H torsion
[ 8008 7997 7996 7995 ] final -162.17 input   59.86 | X-H torsion
[ 10167 10162 10161 10158 ] final  150.74 input  -65.29 | X-H torsion
[ 10718 10713 10712 10709 ] final -143.01 input   66.30 | X-H torsion
[ 10763 10752 10751 10750 ] final  -42.06 input  -60.55 | X-H torsion
[ 11005 11000 10999 10996 ] final  -19.35 input  -57.11 | X-H torsion

> <Gold.Protein.ActiveResidues>
 VAL166  LYS551  ARG553  GLY616  TRP617  ASP618  TYR619  PRO620  LYS621  CYS622 
 ASP623  PHE694  ASN695  SER759  ASP760  ASP761  ALA762  ILE779  LEU786  VAL792 
 PHE793  MET794  SER795  GLU796  ALA797  LYS798  CYS799  TRP800  GLU811  SER814 

> <Gold.Protein.RotatedAtoms>
  152.3913  134.6437  160.0106 H   0  0  0  0  0  0  0  0  0  0  0  0  # atno 6907 bound_to 6896
  151.6670  133.3309  159.3195 H   0  0  0  0  0  0  0  0  0  0  0  0  # atno 6908 bound_to 6896
  150.7829  134.6832  159.6500 H   0  0  0  0  0  0  0  0  0  0  0  0  # atno 6909 bound_to 6896
  146.2440  140.0998  142.8348 H   0  0  0  0  0  0  0  0  0  0  0  0  # atno 7974 bound_to 7965
  155.8030  140.0894  157.1947 H   0  0  0  0  0  0  0  0  0  0  0  0  # atno 8008 bound_to 7997
  154.3981  140.1469  156.3355 H   0  0  0  0  0  0  0  0  0  0  0  0  # atno 8009 bound_to 7997
  155.8443  140.3437  155.5655 H   0  0  0  0  0  0  0  0  0  0  0  0  # atno 8010 bound_to 7997
  139.4847  144.5498  151.7421 H   0  0  0  0  0  0  0  0  0  0  0  0  # atno 10167 bound_to 10162
  156.3528  130.7697  151.1852 H   0  0  0  0  0  0  0  0  0  0  0  0  # atno 10718 bound_to 10713
  153.9729  135.6726  153.4747 H   0  0  0  0  0  0  0  0  0  0  0  0  # atno 10763 bound_to 10752
  153.0784  135.4936  154.8450 H   0  0  0  0  0  0  0  0  0  0  0  0  # atno 10764 bound_to 10752
  154.7209  135.3117  154.9010 H   0  0  0  0  0  0  0  0  0  0  0  0  # atno 10765 bound_to 10752
  140.8358  133.7962  155.9808 H   0  0  0  0  0  0  0  0  0  0  0  0  # atno 11005 bound_to 11000
  145.0578  140.9065  143.4957 LP  0  0  0  0  0  0  0  0  0  0  0  0  # atno 17320 bound_to 7965
  145.1108  139.2758  143.5638 LP  0  0  0  0  0  0  0  0  0  0  0  0  # atno 17321 bound_to 7965
  140.5050  144.1112  150.5980 LP  0  0  0  0  0  0  0  0  0  0  0  0  # atno 17342 bound_to 10162
  140.4018  143.2700  151.9939 LP  0  0  0  0  0  0  0  0  0  0  0  0  # atno 17343 bound_to 10162
  157.7463  131.0422  150.4686 LP  0  0  0  0  0  0  0  0  0  0  0  0  # atno 17370 bound_to 10713
  156.4884  130.4089  149.6421 LP  0  0  0  0  0  0  0  0  0  0  0  0  # atno 17371 bound_to 10713
  140.8948  134.2450  157.5074 LP  0  0  0  0  0  0  0  0  0  0  0  0  # atno 17394 bound_to 11000
  139.8704  134.9679  156.4612 LP  0  0  0  0  0  0  0  0  0  0  0  0  # atno 17395 bound_to 11000

$$$$
