AV-unprocessed.smi:609|AV-procd|sdf|3052|dock4
  -GOLD-   2262023573D 1   1.00000     0.00000
 Structure written by MMmdl.
 43 45  0  0  0  0  0  0  0  0  2 V2000
  153.4379  143.2534  163.6530 C   0  0  0  0  0  0  0  0  0  0  0  0
  153.0283  143.1141  162.1966 C   0  0  0  0  0  0  0  0  0  0  0  0
  152.2187  144.1208  161.6240 C   0  0  0  0  0  0  0  0  0  0  0  0
  151.8615  143.9654  160.2899 C   0  0  0  0  0  0  0  0  0  0  0  0
  151.0888  144.7711  159.4508 N   0  3  0  0  0  0  0  0  0  0  0  0
  151.0184  144.2038  158.2148 C   0  0  0  0  0  0  0  0  0  0  0  0
  151.7335  143.0471  158.2524 N   0  0  0  0  0  0  0  0  0  0  0  0
  151.9775  142.0628  157.1885 C   0  0  0  0  0  0  0  0  0  0  0  0
  150.7062  141.7249  156.3865 C   0  0  1  0  0  0  0  0  0  0  0  0
  150.9903  140.7276  155.4244 O   0  0  0  0  0  0  0  0  0  0  0  0
  149.5666  141.2327  157.2984 C   0  0  0  0  0  0  0  0  0  0  0  0
  147.9682  142.0207  156.9213 S   0  0  0  0  0  0  0  0  0  0  0  0
  147.6784  141.3856  155.2967 C   0  0  0  0  0  0  0  0  0  0  0  0
  148.4660  140.5196  154.6634 N   0  0  0  0  0  0  0  0  0  0  0  0
  147.8569  140.3105  153.4314 C   0  0  0  0  0  0  0  0  0  0  0  0
  146.7124  141.0658  153.3576 C   0  0  0  0  0  0  0  0  0  0  0  0
  146.6127  141.7520  154.5606 N   0  0  0  0  0  0  0  0  0  0  0  0
  145.5576  142.6743  154.9320 C   0  0  0  0  0  0  0  0  0  0  0  0
  152.2786  142.8566  159.5279 C   0  0  0  0  0  0  0  0  0  0  0  0
  153.0764  141.8557  160.0773 C   0  0  0  0  0  0  0  0  0  0  0  0
  153.4514  141.9956  161.4326 C   0  0  0  0  0  0  0  0  0  0  0  0
  154.3232  140.9195  162.0571 C   0  0  0  0  0  0  0  0  0  0  0  0
  153.0806  144.1910  164.0801 H   0  0  0  0  0  0  0  0  0  0  0  0
  154.5236  143.2373  163.7507 H   0  0  0  0  0  0  0  0  0  0  0  0
  153.0241  142.4368  164.2452 H   0  0  0  0  0  0  0  0  0  0  0  0
  151.8929  144.9751  162.1993 H   0  0  0  0  0  0  0  0  0  0  0  0
  150.4917  144.6004  157.3587 H   0  0  0  0  0  0  0  0  0  0  0  0
  152.7775  142.4199  156.5395 H   0  0  0  0  0  0  0  0  0  0  0  0
  152.3567  141.1619  157.6725 H   0  0  0  0  0  0  0  0  0  0  0  0
  150.3894  142.6195  155.8503 H   0  0  0  0  0  0  0  0  0  0  0  0
  151.6708  140.1676  155.7666 H   0  0  0  0  0  0  0  0  0  0  0  0
  149.4481  140.1536  157.1941 H   0  0  0  0  0  0  0  0  0  0  0  0
  149.8087  141.4096  158.3465 H   0  0  0  0  0  0  0  0  0  0  0  0
  148.2854  139.6399  152.7011 H   0  0  0  0  0  0  0  0  0  0  0  0
  145.9811  141.1698  152.5694 H   0  0  0  0  0  0  0  0  0  0  0  0
  144.8289  142.7580  154.1251 H   0  0  0  0  0  0  0  0  0  0  0  0
  145.9810  143.6596  155.1289 H   0  0  0  0  0  0  0  0  0  0  0  0
  145.0518  142.3145  155.8284 H   0  0  0  0  0  0  0  0  0  0  0  0
  153.4048  141.0079  159.4945 H   0  0  0  0  0  0  0  0  0  0  0  0
  154.5271  140.1124  161.3528 H   0  0  0  0  0  0  0  0  0  0  0  0
  153.8315  140.4848  162.9277 H   0  0  0  0  0  0  0  0  0  0  0  0
  155.2800  141.3374  162.3709 H   0  0  0  0  0  0  0  0  0  0  0  0
  150.6427  145.6445  159.7001 H   0  0  0  0  0  0  0  0  0  0  0  0
  1  2  1  0  0  0  0
  1 23  1  0  0  0  0
  1 24  1  0  0  0  0
  1 25  1  0  0  0  0
  2 21  1  0  0  0  0
  2  3  2  0  0  0  0
  3  4  1  0  0  0  0
  3 26  1  0  0  0  0
  4 19  2  0  0  0  0
  4  5  1  0  0  0  0
  5  6  2  0  0  0  0
  5 43  1  0  0  0  0
  6  7  1  0  0  0  0
  6 27  1  0  0  0  0
  7  8  1  0  0  0  0
  7 19  1  0  0  0  0
  8  9  1  0  0  0  0
  8 28  1  0  0  0  0
  8 29  1  0  0  0  0
  9 10  1  0  0  0  0
  9 11  1  0  0  0  0
  9 30  1  0  0  0  0
 10 31  1  0  0  0  0
 11 12  1  0  0  0  0
 11 32  1  0  0  0  0
 11 33  1  0  0  0  0
 12 13  1  0  0  0  0
 13 17  1  0  0  0  0
 13 14  2  0  0  0  0
 14 15  1  0  0  0  0
 15 16  2  0  0  0  0
 15 34  1  0  0  0  0
 16 17  1  0  0  0  0
 16 35  1  0  0  0  0
 17 18  1  0  0  0  0
 18 36  1  0  0  0  0
 18 37  1  0  0  0  0
 18 38  1  0  0  0  0
 19 20  1  0  0  0  0
 20 21  2  0  0  0  0
 20 39  1  0  0  0  0
 21 22  1  0  0  0  0
 22 40  1  0  0  0  0
 22 41  1  0  0  0  0
 22 42  1  0  0  0  0
M  CHG  1   5   1
M  END
> <s_m_source_file>
AV-unprocessed.smi

> <i_m_source_file_index>
609

> <i_lp_mmshare_version>
43012

> <i_f3d_flags>
0

> <s_epik_input>
W0NIM11jKFtjSF0xKWMoW0NIM10pW2NIXWMoYzEyKW4oW2NIXW4yKVtDSDJdW0NASF0oW09IXSlbQ0gyXVNjM25bY0hdW2NIXW4zW0NIM10=

> <s_epik_cmdline>
J2VwaWtfcHl0aG9uJywgJy1waCcsICc3LjAnLCAnLXRuJywgJzgnLCAnLW1hJywgJzIwMCcsICctbWV0YWxfYmluZGluZycsICctaW1hZScsICc8aW5maWxlLm1hZT4nLCAnLW9tYWUnLCAnPG91dGZpbGUubWFlPic=

> <r_epik_Ionization_Penalty>
2.09683

> <r_epik_Ionization_Penalty_Charging>
2.09682

> <r_epik_Ionization_Penalty_Neutral>
2.49751e-06

> <r_epik_State_Penalty>
2.21514

> <r_epik_Charging_Adjusted_Penalty>
4.31197

> <i_epik_Tot_Q>
1

> <i_epik_Tot_abs_Q>
1

> <r_epik_Metal_State_Penalty>
1.52634

> <b_epik_Metal_Only>
0

> <s_lp_Force_Field>
OPLS_2005

> <r_lp_Energy>
12.6573

> <b_lp_Chiralities_Consistent>
1

> <s_lp_Variant>
AV-unprocessed.smi:609-8

> <Gold.Version>
5.8.1

> <Gold.Id.Protein>
6NUR|6NUR_protein|mol2

> <Gold.PLP.Fitness>
56.7299

> <Gold.PLP.PLP>
-48.0016

> <Gold.PLP.part.hbond>
-1.0000

> <Gold.PLP.part.metal>
0.0000

> <Gold.PLP.part.buried>
-3.6267

> <Gold.PLP.part.nonpolar>
-44.3287

> <Gold.PLP.part.repulsive>
0.2491

> <Gold.PLP.ligand.clash>
0.0000

> <Gold.PLP.ligand.torsion>
0.8663

> <Gold.PLP.Chemscore.Hbond>
0.8480

> <Gold.PLP.Chemscore.CHOScore>
2.6141

> <Gold.PLP.Chemscore.Metal>
0.0000

> <Gold.Chemscore.Hbonds>
donor molecule, donor type, donor heavy atom, donor atom, acceptor molecule, acceptor atom, score
      P1  H  7989  7998       L1    10  0.79
      L1  C     6    27       P1  8028  1.00
      L1  C    15    34       P1  7957  1.00
      L1  C    16    35       P1 10175  0.64

> <Gold.PLP.Chemscore.Internal.Correction>
0.0744

> <Gold.Rescore>
     Score         DG    S(hbond)    S(metal)    S(lipo)     H(rot)  DE(clash)    DE(int)     intcor
     11.40     -15.29       0.22        0.00     131.67       2.48       1.61       2.28       ----

> <Gold.Chemscore.Fitness>
11.4006

> <Gold.Chemscore.DG>
-15.2884

> <Gold.Chemscore.ZeroCoef>
-5.4800

> <Gold.Chemscore.Hbond>
0.2243

> <Gold.Chemscore.Metal>
0.0000

> <Gold.Chemscore.Lipo>
131.6672

> <Gold.Chemscore.Internal_Hbond>
0.0000

> <Gold.Chemscore.DEClash>
1.6099

> <Gold.Chemscore.DEInternal>
2.2779

> <Gold.Chemscore.Rot>
2.4789

> <Gold.Chemscore.Internal.Correction>
   9.000000E+99

> <Gold.Chemscore.Hbonds>
donor molecule, donor type, donor heavy atom, donor atom, acceptor molecule, acceptor atom, score
      P1  H  7989  7998       L1    10  0.17

> <Gold.Chemscore.Hbond.Weighted>
-0.7492

> <Gold.Chemscore.Metal.Weighted>
-0.0000

> <Gold.Chemscore.Lipo.Weighted>
-15.4051

> <Gold.Chemscore.Internal_Hbond.Weighted>
0.0000

> <Gold.Chemscore.DEClash.Weighted>
1.6099

> <Gold.Chemscore.DEInternal.Weighted>
2.2779

> <Gold.Chemscore.Rot.Weighted>
6.3459

> <Gold.Chemscore.Internal.Correction.Weighted>
   9.000000E+99

> <Gold.Protein.RotatedTorsions>
[ 6907 6896 6895 6894 ] final   72.17 input  -60.11 | X-H torsion
[ 7974 7965 7964 7962 ] final  -86.77 input  175.53 | X-H torsion
[ 8008 7997 7996 7995 ] final  142.71 input   59.86 | X-H torsion
[ 10167 10162 10161 10158 ] final -166.71 input  -65.29 | X-H torsion
[ 10718 10713 10712 10709 ] final   80.52 input   66.30 | X-H torsion
[ 10763 10752 10751 10750 ] final -167.89 input  -60.55 | X-H torsion
[ 11005 11000 10999 10996 ] final  -40.73 input  -57.11 | X-H torsion

> <Gold.Protein.ActiveResidues>
 VAL166  LYS551  ARG553  GLY616  TRP617  ASP618  TYR619  PRO620  LYS621  CYS622 
 ASP623  PHE694  ASN695  SER759  ASP760  ASP761  ALA762  ILE779  LEU786  VAL792 
 PHE793  MET794  SER795  GLU796  ALA797  LYS798  CYS799  TRP800  GLU811  SER814 

> <Gold.Protein.RotatedAtoms>
  152.4853  134.4611  159.9605 H   0  0  0  0  0  0  0  0  0  0  0  0  # atno 6907 bound_to 6896
  151.4608  133.3587  159.2817 H   0  0  0  0  0  0  0  0  0  0  0  0  # atno 6908 bound_to 6896
  150.8957  134.8390  159.7386 H   0  0  0  0  0  0  0  0  0  0  0  0  # atno 6909 bound_to 6896
  145.4755  140.9558  143.1893 H   0  0  0  0  0  0  0  0  0  0  0  0  # atno 7974 bound_to 7965
  156.2944  140.2281  156.4772 H   0  0  0  0  0  0  0  0  0  0  0  0  # atno 8008 bound_to 7997
  154.7884  140.0456  157.1203 H   0  0  0  0  0  0  0  0  0  0  0  0  # atno 8009 bound_to 7997
  154.9675  140.3062  155.5006 H   0  0  0  0  0  0  0  0  0  0  0  0  # atno 8010 bound_to 7997
  139.6097  144.0840  152.1829 H   0  0  0  0  0  0  0  0  0  0  0  0  # atno 10167 bound_to 10162
  157.6808  130.9963  150.2091 H   0  0  0  0  0  0  0  0  0  0  0  0  # atno 10718 bound_to 10713
  154.6685  135.2935  154.9773 H   0  0  0  0  0  0  0  0  0  0  0  0  # atno 10763 bound_to 10752
  154.0808  135.6604  153.4841 H   0  0  0  0  0  0  0  0  0  0  0  0  # atno 10764 bound_to 10752
  153.0472  135.5197  154.7670 H   0  0  0  0  0  0  0  0  0  0  0  0  # atno 10765 bound_to 10752
  141.0196  133.6869  156.2361 H   0  0  0  0  0  0  0  0  0  0  0  0  # atno 11005 bound_to 11000
  144.7920  139.6310  143.7109 LP  0  0  0  0  0  0  0  0  0  0  0  0  # atno 17320 bound_to 7965
  146.2372  139.5928  142.9516 LP  0  0  0  0  0  0  0  0  0  0  0  0  # atno 17321 bound_to 7965
  140.0456  144.5973  150.7377 LP  0  0  0  0  0  0  0  0  0  0  0  0  # atno 17342 bound_to 10162
  140.7310  143.2690  151.3951 LP  0  0  0  0  0  0  0  0  0  0  0  0  # atno 17343 bound_to 10162
  156.2765  130.3728  149.7978 LP  0  0  0  0  0  0  0  0  0  0  0  0  # atno 17370 bound_to 10713
  156.5679  130.8412  151.3348 LP  0  0  0  0  0  0  0  0  0  0  0  0  # atno 17371 bound_to 10713
  140.6596  134.4981  157.5582 LP  0  0  0  0  0  0  0  0  0  0  0  0  # atno 17394 bound_to 11000
  139.9138  134.8290  156.1437 LP  0  0  0  0  0  0  0  0  0  0  0  0  # atno 17395 bound_to 11000

$$$$
