AV-unprocessed.smi:1552|AV-procd|sdf|6234|dock9
  -GOLD-   22720 6413D 1   1.00000     0.00000
 Structure written by MMmdl.
 50 51  0  0  0  0  0  0  0  0  2 V2000
  143.0474  135.1258  153.4188 C   0  0  0  0  0  0  0  0  0  0  0  0
  144.0168  134.2898  154.1664 N   0  3  0  0  0  0  0  0  0  0  0  0
  144.2904  134.8321  155.5178 C   0  0  0  0  0  0  0  0  0  0  0  0
  145.2488  133.8900  153.4169 C   0  0  2  0  0  0  0  0  0  0  0  0
  146.1984  135.0868  153.1289 C   0  0  0  0  0  0  0  0  0  0  0  0
  147.0283  135.4475  154.2757 N   0  0  0  0  0  0  0  0  0  0  0  0
  147.3035  136.6869  154.7106 C   0  0  0  0  0  0  0  0  0  0  0  0
  146.8285  137.6683  154.1412 O   0  0  0  0  0  0  0  0  0  0  0  0
  148.2061  136.8625  155.9474 C   0  0  0  0  0  0  0  0  0  0  0  0
  149.4311  137.6264  155.6670 N   0  0  0  0  0  0  0  0  0  0  0  0
  150.3026  137.2115  154.6697 C   0  0  0  0  0  0  0  0  0  0  0  0
  151.4515  137.8607  154.3657 C   0  0  0  0  0  0  0  0  0  0  0  0
  151.8364  139.0631  155.0969 C   0  0  0  0  0  0  0  0  0  0  0  0
  152.8548  139.7206  154.8948 O   0  0  0  0  0  0  0  0  0  0  0  0
  150.9356  139.4469  156.0941 N   0  0  0  0  0  0  0  0  0  0  0  0
  149.7512  138.7815  156.4139 C   0  0  0  0  0  0  0  0  0  0  0  0
  149.0292  139.2025  157.3171 O   0  0  0  0  0  0  0  0  0  0  0  0
  144.9094  133.0109  152.1750 C   0  0  0  0  0  0  0  0  0  0  0  0
  146.1346  132.1943  151.6937 C   0  0  0  0  0  0  0  0  0  0  0  0
  145.8076  131.3259  150.4685 C   0  0  0  0  0  0  0  0  0  0  0  0
  145.2630  132.1761  149.3136 C   0  0  0  0  0  0  0  0  0  0  0  0
  144.0420  132.9881  149.7648 C   0  0  0  0  0  0  0  0  0  0  0  0
  144.3685  133.8529  150.9931 C   0  0  0  0  0  0  0  0  0  0  0  0
  151.1619  140.2729  156.6289 H   0  0  0  0  0  0  0  0  0  0  0  0
  143.4243  136.1379  153.2695 H   0  0  0  0  0  0  0  0  0  0  0  0
  142.1115  135.2010  153.9731 H   0  0  0  0  0  0  0  0  0  0  0  0
  142.8131  134.6955  152.4456 H   0  0  0  0  0  0  0  0  0  0  0  0
  144.7838  135.8029  155.4697 H   0  0  0  0  0  0  0  0  0  0  0  0
  144.9210  134.1533  156.0926 H   0  0  0  0  0  0  0  0  0  0  0  0
  143.3593  134.9573  156.0711 H   0  0  0  0  0  0  0  0  0  0  0  0
  145.7986  133.2319  154.0917 H   0  0  0  0  0  0  0  0  0  0  0  0
  146.8220  134.8812  152.2590 H   0  0  0  0  0  0  0  0  0  0  0  0
  145.6021  135.9608  152.8644 H   0  0  0  0  0  0  0  0  0  0  0  0
  147.4288  134.6816  154.7980 H   0  0  0  0  0  0  0  0  0  0  0  0
  147.6279  137.3615  156.7265 H   0  0  0  0  0  0  0  0  0  0  0  0
  148.4703  135.8875  156.3608 H   0  0  0  0  0  0  0  0  0  0  0  0
  150.0609  136.3228  154.1044 H   0  0  0  0  0  0  0  0  0  0  0  0
  152.0902  137.4877  153.5778 H   0  0  0  0  0  0  0  0  0  0  0  0
  144.1305  132.2991  152.4495 H   0  0  0  0  0  0  0  0  0  0  0  0
  146.9555  132.8699  151.4493 H   0  0  0  0  0  0  0  0  0  0  0  0
  146.4997  131.5419  152.4868 H   0  0  0  0  0  0  0  0  0  0  0  0
  146.6998  130.7892  150.1444 H   0  0  0  0  0  0  0  0  0  0  0  0
  145.0736  130.5672  150.7430 H   0  0  0  0  0  0  0  0  0  0  0  0
  146.0412  132.8515  148.9556 H   0  0  0  0  0  0  0  0  0  0  0  0
  144.9963  131.5361  148.4720 H   0  0  0  0  0  0  0  0  0  0  0  0
  143.6956  133.6210  148.9470 H   0  0  0  0  0  0  0  0  0  0  0  0
  143.2189  132.3123  150.0015 H   0  0  0  0  0  0  0  0  0  0  0  0
  143.4644  134.3887  151.2807 H   0  0  0  0  0  0  0  0  0  0  0  0
  145.1002  134.6132  150.7165 H   0  0  0  0  0  0  0  0  0  0  0  0
  143.5358  133.4181  154.3370 H   0  0  0  0  0  0  0  0  0  0  0  0
  1  2  1  0  0  0  0
  1 25  1  0  0  0  0
  1 26  1  0  0  0  0
  1 27  1  0  0  0  0
  2  3  1  0  0  0  0
  2  4  1  0  0  0  0
  2 50  1  0  0  0  0
  3 28  1  0  0  0  0
  3 29  1  0  0  0  0
  3 30  1  0  0  0  0
  4  5  1  0  0  0  0
  4 18  1  0  0  0  0
  4 31  1  0  0  0  0
  5  6  1  0  0  0  0
  5 32  1  0  0  0  0
  5 33  1  0  0  0  0
  6  7  1  0  0  0  0
  6 34  1  0  0  0  0
  7  8  2  0  0  0  0
  7  9  1  0  0  0  0
  9 10  1  0  0  0  0
  9 35  1  0  0  0  0
  9 36  1  0  0  0  0
 10 16  1  0  0  0  0
 10 11  1  0  0  0  0
 11 12  2  0  0  0  0
 11 37  1  0  0  0  0
 12 13  1  0  0  0  0
 12 38  1  0  0  0  0
 13 14  2  0  0  0  0
 13 15  1  0  0  0  0
 15 24  1  0  0  0  0
 15 16  1  0  0  0  0
 16 17  2  0  0  0  0
 18 23  1  0  0  0  0
 18 19  1  0  0  0  0
 18 39  1  0  0  0  0
 19 20  1  0  0  0  0
 19 40  1  0  0  0  0
 19 41  1  0  0  0  0
 20 21  1  0  0  0  0
 20 42  1  0  0  0  0
 20 43  1  0  0  0  0
 21 22  1  0  0  0  0
 21 44  1  0  0  0  0
 21 45  1  0  0  0  0
 22 23  1  0  0  0  0
 22 46  1  0  0  0  0
 22 47  1  0  0  0  0
 23 48  1  0  0  0  0
 23 49  1  0  0  0  0
M  CHG  1   2   1
M  END
> <s_m_source_file>
AV-unprocessed.smi

> <i_m_source_file_index>
1552

> <i_lp_mmshare_version>
43012

> <i_f3d_flags>
0

> <s_epik_input>
W0NIMl0xW0NIMl1bQ0gyXVtDSDJdW0NIMl1bQ0hdMVtDQEhdKE4oW0NIM10pW0NIM10pW0NIMl1bTkhdQyg9TylbQ0gyXW4yW2NIXVtjSF1jKD1PKVtuSF1jMj1P

> <s_epik_cmdline>
J2VwaWtfcHl0aG9uJywgJy1waCcsICc3LjAnLCAnLXRuJywgJzgnLCAnLW1hJywgJzIwMCcsICctbWV0YWxfYmluZGluZycsICctaW1hZScsICc8aW5maWxlLm1hZT4nLCAnLW9tYWUnLCAnPG91dGZpbGUubWFlPic=

> <r_lp_tautomer_probability>
1

> <r_epik_Ionization_Penalty>
0.00705217

> <r_epik_Ionization_Penalty_Charging>
0.00705209

> <r_epik_Ionization_Penalty_Neutral>
7.66101e-08

> <r_epik_State_Penalty>
-0

> <r_epik_Charging_Adjusted_Penalty>
0.00705209

> <i_epik_Tot_Q>
1

> <i_epik_Tot_abs_Q>
1

> <r_epik_Metal_State_Penalty>
0.375122

> <b_epik_Metal_Only>
0

> <s_lp_Force_Field>
OPLS_2005

> <r_lp_Energy>
35.9588

> <b_lp_Chiralities_Consistent>
1

> <s_lp_Variant>
AV-unprocessed.smi:1552-1

> <Gold.Version>
5.8.1

> <Gold.Id.Protein>
6NUR|6NUR_protein|mol2

> <Gold.PLP.Fitness>
43.1278

> <Gold.PLP.PLP>
-31.7057

> <Gold.PLP.part.hbond>
-3.4569

> <Gold.PLP.part.metal>
0.0000

> <Gold.PLP.part.buried>
-2.5075

> <Gold.PLP.part.nonpolar>
-25.3097

> <Gold.PLP.part.repulsive>
0.2187

> <Gold.PLP.ligand.clash>
0.0000

> <Gold.PLP.ligand.torsion>
0.6889

> <Gold.PLP.Chemscore.Hbond>
3.1920

> <Gold.PLP.Chemscore.CHOScore>
0.9712

> <Gold.PLP.Chemscore.Metal>
0.0000

> <Gold.Chemscore.Hbonds>
donor molecule, donor type, donor heavy atom, donor atom, acceptor molecule, acceptor atom, score
      L1  H     2    50       P1 10957  2.00
      P1  H  7989  7998       L1    14  0.12
      P1  H  7997  8009       L1    14  1.00
      L1  C    11    37       P1  7948  0.90
      L1  C    11    37       P1  7949  0.01

> <Gold.PLP.Chemscore.Internal.Correction>
0.3103

> <Gold.Rescore>
     Score         DG    S(hbond)    S(metal)    S(lipo)     H(rot)  DE(clash)    DE(int)     intcor
     13.96     -14.77       1.99        0.00      77.26       2.50       0.03       0.77       ----

> <Gold.Chemscore.Fitness>
13.9631

> <Gold.Chemscore.DG>
-14.7669

> <Gold.Chemscore.ZeroCoef>
-5.4800

> <Gold.Chemscore.Hbond>
1.9878

> <Gold.Chemscore.Metal>
0.0000

> <Gold.Chemscore.Lipo>
77.2579

> <Gold.Chemscore.Internal_Hbond>
0.0000

> <Gold.Chemscore.DEClash>
0.0294

> <Gold.Chemscore.DEInternal>
0.7745

> <Gold.Chemscore.Rot>
2.4968

> <Gold.Chemscore.Internal.Correction>
   9.000000E+99

> <Gold.Chemscore.Hbonds>
donor molecule, donor type, donor heavy atom, donor atom, acceptor molecule, acceptor atom, score
      L1  H     2    50       P1 10957  1.00
      P1  H  7997  8009       L1    14  0.99

> <Gold.Chemscore.Hbond.Weighted>
-6.6394

> <Gold.Chemscore.Metal.Weighted>
-0.0000

> <Gold.Chemscore.Lipo.Weighted>
-9.0392

> <Gold.Chemscore.Internal_Hbond.Weighted>
0.0000

> <Gold.Chemscore.DEClash.Weighted>
0.0294

> <Gold.Chemscore.DEInternal.Weighted>
0.7745

> <Gold.Chemscore.Rot.Weighted>
6.3917

> <Gold.Chemscore.Internal.Correction.Weighted>
   9.000000E+99

> <Gold.Protein.RotatedTorsions>
[ 6907 6896 6895 6894 ] final   55.97 input  -60.11 | X-H torsion
[ 7974 7965 7964 7962 ] final -127.30 input  175.53 | X-H torsion
[ 8008 7997 7996 7995 ] final -124.12 input   59.86 | X-H torsion
[ 10167 10162 10161 10158 ] final   25.06 input  -65.29 | X-H torsion
[ 10718 10713 10712 10709 ] final  -14.07 input   66.30 | X-H torsion
[ 10763 10752 10751 10750 ] final   -9.96 input  -60.55 | X-H torsion
[ 11005 11000 10999 10996 ] final   35.42 input  -57.11 | X-H torsion

> <Gold.Protein.ActiveResidues>
 VAL166  LYS551  ARG553  GLY616  TRP617  ASP618  TYR619  PRO620  LYS621  CYS622 
 ASP623  PHE694  ASN695  SER759  ASP760  ASP761  ALA762  ILE779  LEU786  VAL792 
 PHE793  MET794  SER795  GLU796  ALA797  LYS798  CYS799  TRP800  GLU811  SER814 

> <Gold.Protein.RotatedAtoms>
  152.3591  134.6898  160.0212 H   0  0  0  0  0  0  0  0  0  0  0  0  # atno 6907 bound_to 6896
  151.7227  133.3309  159.3327 H   0  0  0  0  0  0  0  0  0  0  0  0  # atno 6908 bound_to 6896
  150.7592  134.6368  159.6260 H   0  0  0  0  0  0  0  0  0  0  0  0  # atno 6909 bound_to 6896
  144.9785  140.7616  143.4627 H   0  0  0  0  0  0  0  0  0  0  0  0  # atno 7974 bound_to 7965
  155.1917  140.0413  157.2901 H   0  0  0  0  0  0  0  0  0  0  0  0  # atno 8008 bound_to 7997
  154.6134  140.2482  155.7612 H   0  0  0  0  0  0  0  0  0  0  0  0  # atno 8009 bound_to 7997
  156.2392  140.2910  156.0407 H   0  0  0  0  0  0  0  0  0  0  0  0  # atno 8010 bound_to 7997
  140.5137  144.0117  150.6384 H   0  0  0  0  0  0  0  0  0  0  0  0  # atno 10167 bound_to 10162
  156.6213  130.4876  149.6163 H   0  0  0  0  0  0  0  0  0  0  0  0  # atno 10718 bound_to 10713
  153.4623  135.7016  153.6043 H   0  0  0  0  0  0  0  0  0  0  0  0  # atno 10763 bound_to 10752
  153.4332  135.3798  155.2183 H   0  0  0  0  0  0  0  0  0  0  0  0  # atno 10764 bound_to 10752
  154.8727  135.3956  154.4050 H   0  0  0  0  0  0  0  0  0  0  0  0  # atno 10765 bound_to 10752
  140.2429  134.3394  155.7919 H   0  0  0  0  0  0  0  0  0  0  0  0  # atno 11005 bound_to 11000
  145.2455  139.2054  143.4970 LP  0  0  0  0  0  0  0  0  0  0  0  0  # atno 17320 bound_to 7965
  146.3402  140.2359  142.8594 LP  0  0  0  0  0  0  0  0  0  0  0  0  # atno 17321 bound_to 7965
  140.3447  143.2998  152.0551 LP  0  0  0  0  0  0  0  0  0  0  0  0  # atno 17342 bound_to 10162
  139.4903  144.6417  151.6863 LP  0  0  0  0  0  0  0  0  0  0  0  0  # atno 17343 bound_to 10162
  156.2309  130.6794  151.1463 LP  0  0  0  0  0  0  0  0  0  0  0  0  # atno 17370 bound_to 10713
  157.7227  131.0671  150.6068 LP  0  0  0  0  0  0  0  0  0  0  0  0  # atno 17371 bound_to 10713
  141.2209  133.7309  156.8914 LP  0  0  0  0  0  0  0  0  0  0  0  0  # atno 17394 bound_to 11000
  140.1635  134.9149  157.2745 LP  0  0  0  0  0  0  0  0  0  0  0  0  # atno 17395 bound_to 11000

$$$$
