AV-unprocessed.smi:1246|AV-procd|sdf|5242|dock8
  -GOLD-   22720 4353D 1   1.00000     0.00000
 Structure written by MMmdl.
 35 36  0  0  0  0  0  0  0  0  1 V2000
  150.4239  142.2495  156.0130 C   0  0  0  0  0  0  0  0  0  0  0  0
  150.1131  140.9681  155.2973 C   0  0  0  0  0  0  0  0  0  0  0  0
  148.8659  140.5471  154.7503 C   0  0  0  0  0  0  0  0  0  0  0  0
  149.1658  139.3190  154.2269 C   0  0  0  0  0  0  0  0  0  0  0  0
  148.3529  138.4421  153.5801 N   0  0  0  0  0  0  0  0  0  0  0  0
  147.0097  138.4062  153.5479 C   0  0  0  0  0  0  0  0  0  0  0  0
  146.2590  139.2036  154.1108 O   0  0  0  0  0  0  0  0  0  0  0  0
  146.5725  137.3743  152.8124 N   0  0  0  0  0  0  0  0  0  0  0  0
  145.1710  137.0387  152.5881 C   0  0  0  0  0  0  0  0  0  0  0  0
  145.0198  135.8566  151.6166 C   0  0  1  0  0  0  0  0  0  0  0  0
  145.9682  134.6973  151.9053 C   0  0  0  0  0  0  0  0  0  0  0  0
  145.2695  133.5555  151.2011 C   0  0  0  0  0  0  0  0  0  0  0  0
  143.7931  133.8789  151.4300 C   0  0  0  0  0  0  0  0  0  0  0  0
  143.7266  135.2720  151.7285 O   0  0  0  0  0  0  0  0  0  0  0  0
  150.4965  139.0503  154.4576 N   0  0  0  0  0  0  0  0  0  0  0  0
  151.2748  137.8810  154.0990 C   0  0  0  0  0  0  0  0  0  0  0  0
  151.0785  140.0732  155.1200 N   0  0  0  0  0  0  0  0  0  0  0  0
  149.5271  142.8552  156.1445 H   0  0  0  0  0  0  0  0  0  0  0  0
  151.1471  142.8446  155.4551 H   0  0  0  0  0  0  0  0  0  0  0  0
  150.8409  142.0571  157.0020 H   0  0  0  0  0  0  0  0  0  0  0  0
  147.9227  141.0723  154.7542 H   0  0  0  0  0  0  0  0  0  0  0  0
  148.8281  137.7217  153.0567 H   0  0  0  0  0  0  0  0  0  0  0  0
  147.2574  136.7660  152.3882 H   0  0  0  0  0  0  0  0  0  0  0  0
  144.6900  136.8093  153.5405 H   0  0  0  0  0  0  0  0  0  0  0  0
  144.6654  137.9190  152.1901 H   0  0  0  0  0  0  0  0  0  0  0  0
  145.1620  136.1835  150.5848 H   0  0  0  0  0  0  0  0  0  0  0  0
  146.9795  134.8724  151.5371 H   0  0  0  0  0  0  0  0  0  0  0  0
  146.0210  134.5002  152.9770 H   0  0  0  0  0  0  0  0  0  0  0  0
  145.4969  133.5838  150.1347 H   0  0  0  0  0  0  0  0  0  0  0  0
  145.5562  132.5758  151.5842 H   0  0  0  0  0  0  0  0  0  0  0  0
  143.1866  133.6365  150.5573 H   0  0  0  0  0  0  0  0  0  0  0  0
  143.3995  133.3211  152.2801 H   0  0  0  0  0  0  0  0  0  0  0  0
  151.1415  137.6621  153.0393 H   0  0  0  0  0  0  0  0  0  0  0  0
  150.9398  137.0253  154.6858 H   0  0  0  0  0  0  0  0  0  0  0  0
  152.3350  138.0512  154.2919 H   0  0  0  0  0  0  0  0  0  0  0  0
  1  2  1  0  0  0  0
  1 18  1  0  0  0  0
  1 19  1  0  0  0  0
  1 20  1  0  0  0  0
  2 17  2  0  0  0  0
  2  3  1  0  0  0  0
  3  4  2  0  0  0  0
  3 21  1  0  0  0  0
  4  5  1  0  0  0  0
  4 15  1  0  0  0  0
  5  6  1  0  0  0  0
  5 22  1  0  0  0  0
  6  7  2  0  0  0  0
  6  8  1  0  0  0  0
  8  9  1  0  0  0  0
  8 23  1  0  0  0  0
  9 10  1  0  0  0  0
  9 24  1  0  0  0  0
  9 25  1  0  0  0  0
 10 14  1  0  0  0  0
 10 11  1  0  0  0  0
 10 26  1  0  0  0  0
 11 12  1  0  0  0  0
 11 27  1  0  0  0  0
 11 28  1  0  0  0  0
 12 13  1  0  0  0  0
 12 29  1  0  0  0  0
 12 30  1  0  0  0  0
 13 14  1  0  0  0  0
 13 31  1  0  0  0  0
 13 32  1  0  0  0  0
 15 16  1  0  0  0  0
 15 17  1  0  0  0  0
 16 33  1  0  0  0  0
 16 34  1  0  0  0  0
 16 35  1  0  0  0  0
M  END
> <s_m_source_file>
AV-unprocessed.smi

> <i_m_source_file_index>
1246

> <i_lp_mmshare_version>
43012

> <i_f3d_flags>
0

> <s_epik_input>
W0NIM11jMVtjSF1jKG4objEpW0NIM10pW05IXUMoPU8pW05IXVtDSDJdW0NAQEhdMltDSDJdW0NIMl1bQ0gyXU8y

> <s_epik_cmdline>
J2VwaWtfcHl0aG9uJywgJy1waCcsICc3LjAnLCAnLXRuJywgJzgnLCAnLW1hJywgJzIwMCcsICctbWV0YWxfYmluZGluZycsICctaW1hZScsICc8aW5maWxlLm1hZT4nLCAnLW9tYWUnLCAnPG91dGZpbGUubWFlPic=

> <r_lp_tautomer_probability>
1

> <r_epik_Ionization_Penalty>
9.6187e-05

> <r_epik_Ionization_Penalty_Charging>
0

> <r_epik_Ionization_Penalty_Neutral>
9.6187e-05

> <r_epik_State_Penalty>
-0

> <r_epik_Charging_Adjusted_Penalty>
0

> <i_epik_Tot_Q>
0

> <i_epik_Tot_abs_Q>
0

> <r_epik_Metal_State_Penalty>
-0

> <b_epik_Metal_Only>
0

> <s_lp_Force_Field>
OPLS_2005

> <r_lp_Energy>
18.0702

> <b_lp_Chiralities_Consistent>
1

> <s_lp_Variant>
AV-unprocessed.smi:1246-2

> <Gold.Version>
5.8.1

> <Gold.Id.Protein>
6NUR|6NUR_protein|mol2

> <Gold.PLP.Fitness>
35.7251

> <Gold.PLP.PLP>
-28.9634

> <Gold.PLP.part.hbond>
-3.6145

> <Gold.PLP.part.metal>
0.0000

> <Gold.PLP.part.buried>
-2.1729

> <Gold.PLP.part.nonpolar>
-24.0909

> <Gold.PLP.part.repulsive>
0.4080

> <Gold.PLP.ligand.clash>
0.0000

> <Gold.PLP.ligand.torsion>
0.2063

> <Gold.PLP.Chemscore.Hbond>
2.3900

> <Gold.PLP.Chemscore.CHOScore>
0.0000

> <Gold.PLP.Chemscore.Metal>
0.0000

> <Gold.Chemscore.Hbonds>
donor molecule, donor type, donor heavy atom, donor atom, acceptor molecule, acceptor atom, score
      L1  H     5    22       P1  7948  1.00
      L1  H     8    23       P1  7948  1.00
      P1  H  7989  7998       L1    17  0.39

> <Gold.PLP.Chemscore.Internal.Correction>
0.0043

> <Gold.Rescore>
     Score         DG    S(hbond)    S(metal)    S(lipo)     H(rot)  DE(clash)    DE(int)     intcor
     14.33     -15.59       1.97        0.00      57.33       1.25       0.04       1.22       ----

> <Gold.Chemscore.Fitness>
14.3280

> <Gold.Chemscore.DG>
-15.5862

> <Gold.Chemscore.ZeroCoef>
-5.4800

> <Gold.Chemscore.Hbond>
1.9740

> <Gold.Chemscore.Metal>
0.0000

> <Gold.Chemscore.Lipo>
57.3282

> <Gold.Chemscore.Internal_Hbond>
0.0000

> <Gold.Chemscore.DEClash>
0.0369

> <Gold.Chemscore.DEInternal>
1.2213

> <Gold.Chemscore.Rot>
1.2478

> <Gold.Chemscore.Internal.Correction>
   9.000000E+99

> <Gold.Chemscore.Hbonds>
donor molecule, donor type, donor heavy atom, donor atom, acceptor molecule, acceptor atom, score
      L1  H     5    22       P1  7948  0.99
      L1  H     8    23       P1  7948  0.99

> <Gold.Chemscore.Hbond.Weighted>
-6.5933

> <Gold.Chemscore.Metal.Weighted>
-0.0000

> <Gold.Chemscore.Lipo.Weighted>
-6.7074

> <Gold.Chemscore.Internal_Hbond.Weighted>
0.0000

> <Gold.Chemscore.DEClash.Weighted>
0.0369

> <Gold.Chemscore.DEInternal.Weighted>
1.2213

> <Gold.Chemscore.Rot.Weighted>
3.1944

> <Gold.Chemscore.Internal.Correction.Weighted>
   9.000000E+99

> <Gold.Protein.RotatedTorsions>
[ 6907 6896 6895 6894 ] final   59.87 input  -60.11 | X-H torsion
[ 7974 7965 7964 7962 ] final   67.31 input  175.53 | X-H torsion
[ 8008 7997 7996 7995 ] final  -78.38 input   59.86 | X-H torsion
[ 10167 10162 10161 10158 ] final  -32.39 input  -65.29 | X-H torsion
[ 10718 10713 10712 10709 ] final  -81.02 input   66.30 | X-H torsion
[ 10763 10752 10751 10750 ] final   79.50 input  -60.55 | X-H torsion
[ 11005 11000 10999 10996 ] final  -84.05 input  -57.11 | X-H torsion

> <Gold.Protein.ActiveResidues>
 VAL166  LYS551  ARG553  GLY616  TRP617  ASP618  TYR619  PRO620  LYS621  CYS622 
 ASP623  PHE694  ASN695  SER759  ASP760  ASP761  ALA762  ILE779  LEU786  VAL792 
 PHE793  MET794  SER795  GLU796  ALA797  LYS798  CYS799  TRP800  GLU811  SER814 

> <Gold.Protein.RotatedAtoms>
  152.3953  134.6375  160.0091 H   0  0  0  0  0  0  0  0  0  0  0  0  # atno 6907 bound_to 6896
  151.6597  133.3312  159.3179 H   0  0  0  0  0  0  0  0  0  0  0  0  # atno 6908 bound_to 6896
  150.7862  134.6892  159.6532 H   0  0  0  0  0  0  0  0  0  0  0  0  # atno 6909 bound_to 6896
  145.8162  139.3059  143.1070 H   0  0  0  0  0  0  0  0  0  0  0  0  # atno 7974 bound_to 7965
  154.5684  140.0695  156.8927 H   0  0  0  0  0  0  0  0  0  0  0  0  # atno 8008 bound_to 7997
  155.2679  140.3363  155.4249 H   0  0  0  0  0  0  0  0  0  0  0  0  # atno 8009 bound_to 7997
  156.2099  140.1755  156.7703 H   0  0  0  0  0  0  0  0  0  0  0  0  # atno 8010 bound_to 7997
  140.7222  143.3698  151.1799 H   0  0  0  0  0  0  0  0  0  0  0  0  # atno 10167 bound_to 10162
  156.0058  130.4591  150.3889 H   0  0  0  0  0  0  0  0  0  0  0  0  # atno 10718 bound_to 10713
  153.0957  135.4837  154.8775 H   0  0  0  0  0  0  0  0  0  0  0  0  # atno 10763 bound_to 10752
  154.7322  135.3063  154.8874 H   0  0  0  0  0  0  0  0  0  0  0  0  # atno 10764 bound_to 10752
  153.9507  135.6823  153.4797 H   0  0  0  0  0  0  0  0  0  0  0  0  # atno 10765 bound_to 10752
  141.1653  133.7326  156.8811 H   0  0  0  0  0  0  0  0  0  0  0  0  # atno 11005 bound_to 11000
  145.9724  140.8749  143.0155 LP  0  0  0  0  0  0  0  0  0  0  0  0  # atno 17320 bound_to 7965
  144.6752  140.1965  143.7391 LP  0  0  0  0  0  0  0  0  0  0  0  0  # atno 17321 bound_to 7965
  139.7268  143.9136  152.3005 LP  0  0  0  0  0  0  0  0  0  0  0  0  # atno 17342 bound_to 10162
  139.8912  144.6964  150.8769 LP  0  0  0  0  0  0  0  0  0  0  0  0  # atno 17343 bound_to 10162
  157.1964  131.0427  151.2673 LP  0  0  0  0  0  0  0  0  0  0  0  0  # atno 17370 bound_to 10713
  157.4015  130.7336  149.6770 LP  0  0  0  0  0  0  0  0  0  0  0  0  # atno 17371 bound_to 10713
  140.1714  134.9097  157.2838 LP  0  0  0  0  0  0  0  0  0  0  0  0  # atno 17394 bound_to 11000
  140.2498  134.3697  155.7447 LP  0  0  0  0  0  0  0  0  0  0  0  0  # atno 17395 bound_to 11000

$$$$
