AV-unprocessed.smi:1212|AV-procd|sdf|5083|dock10
  -GOLD-   22720 4133D 1   1.00000     0.00000
 Structure written by MMmdl.
 38 39  0  0  0  0  0  0  0  0  2 V2000
  142.6822  135.5624  162.6088 C   0  0  0  0  0  0  0  0  0  0  0  0
  144.0432  135.8184  162.0587 C   0  0  0  0  0  0  0  0  0  0  0  0
  144.8892  134.8350  161.7425 N   0  0  0  0  0  0  0  0  0  0  0  0
  146.0922  135.3189  161.2492 N   0  0  0  0  0  0  0  0  0  0  0  0
  146.1364  136.6575  161.1911 C   0  0  0  0  0  0  0  0  0  0  0  0
  147.2141  137.3241  160.7450 N   0  5  0  0  0  0  0  0  0  0  0  0
  147.8624  136.8962  159.6376 C   0  0  0  0  0  0  0  0  0  0  0  0
  147.4884  136.0052  158.8710 O   0  0  0  0  0  0  0  0  0  0  0  0
  149.0134  137.5422  159.4007 N   0  0  0  0  0  0  0  0  0  0  0  0
  149.9162  137.2925  158.2827 C   0  0  0  0  0  0  0  0  0  0  0  0
  151.1357  138.2318  158.3204 C   0  0  0  0  0  0  0  0  0  0  0  0
  151.0520  139.2584  157.2756 N   0  0  0  0  0  0  0  0  0  0  0  0
  152.2136  139.3573  156.3779 C   0  0  0  0  0  0  0  0  0  0  0  0
  151.9315  138.8624  154.9409 C   0  0  0  0  0  0  0  0  0  0  0  0
  150.4898  139.0504  154.4278 C   0  0  0  0  0  0  0  0  0  0  0  0
  149.9215  140.4771  154.5812 C   0  0  0  0  0  0  0  0  0  0  0  0
  149.9570  141.0890  156.0028 C   0  0  0  0  0  0  0  0  0  0  0  0
  149.9651  140.0573  157.1433 C   0  0  0  0  0  0  0  0  0  0  0  0
  148.9896  139.9944  157.8921 O   0  0  0  0  0  0  0  0  0  0  0  0
  144.6655  137.4355  161.7756 S   0  0  0  0  0  0  0  0  0  0  0  0
  142.1003  134.9670  161.9049 H   0  0  0  0  0  0  0  0  0  0  0  0
  142.1603  136.5031  162.7851 H   0  0  0  0  0  0  0  0  0  0  0  0
  142.7554  135.0210  163.5522 H   0  0  0  0  0  0  0  0  0  0  0  0
  149.2826  138.2647  160.0526 H   0  0  0  0  0  0  0  0  0  0  0  0
  150.2394  136.2527  158.3355 H   0  0  0  0  0  0  0  0  0  0  0  0
  149.3774  137.4009  157.3396 H   0  0  0  0  0  0  0  0  0  0  0  0
  151.2165  138.7066  159.2992 H   0  0  0  0  0  0  0  0  0  0  0  0
  152.0549  137.6540  158.2097 H   0  0  0  0  0  0  0  0  0  0  0  0
  152.5575  140.3913  156.3510 H   0  0  0  0  0  0  0  0  0  0  0  0
  153.0661  138.8105  156.7837 H   0  0  0  0  0  0  0  0  0  0  0  0
  152.6298  139.3481  154.2585 H   0  0  0  0  0  0  0  0  0  0  0  0
  152.1648  137.7983  154.8901 H   0  0  0  0  0  0  0  0  0  0  0  0
  150.4526  138.7674  153.3754 H   0  0  0  0  0  0  0  0  0  0  0  0
  149.8314  138.3420  154.9327 H   0  0  0  0  0  0  0  0  0  0  0  0
  150.4550  141.1445  153.9036 H   0  0  0  0  0  0  0  0  0  0  0  0
  148.8892  140.4705  154.2300 H   0  0  0  0  0  0  0  0  0  0  0  0
  150.8261  141.7379  156.1096 H   0  0  0  0  0  0  0  0  0  0  0  0
  149.0991  141.7511  156.1276 H   0  0  0  0  0  0  0  0  0  0  0  0
  1  2  1  0  0  0  0
  1 21  1  0  0  0  0
  1 22  1  0  0  0  0
  1 23  1  0  0  0  0
  2 20  1  0  0  0  0
  2  3  2  0  0  0  0
  3  4  1  0  0  0  0
  4  5  2  0  0  0  0
  5  6  1  0  0  0  0
  5 20  1  0  0  0  0
  6  7  1  0  0  0  0
  7  8  2  0  0  0  0
  7  9  1  0  0  0  0
  9 10  1  0  0  0  0
  9 24  1  0  0  0  0
 10 11  1  0  0  0  0
 10 25  1  0  0  0  0
 10 26  1  0  0  0  0
 11 12  1  0  0  0  0
 11 27  1  0  0  0  0
 11 28  1  0  0  0  0
 12 18  1  0  0  0  0
 12 13  1  0  0  0  0
 13 14  1  0  0  0  0
 13 29  1  0  0  0  0
 13 30  1  0  0  0  0
 14 15  1  0  0  0  0
 14 31  1  0  0  0  0
 14 32  1  0  0  0  0
 15 16  1  0  0  0  0
 15 33  1  0  0  0  0
 15 34  1  0  0  0  0
 16 17  1  0  0  0  0
 16 35  1  0  0  0  0
 16 36  1  0  0  0  0
 17 18  1  0  0  0  0
 17 37  1  0  0  0  0
 17 38  1  0  0  0  0
 18 19  2  0  0  0  0
M  CHG  1   6  -1
M  END
> <s_m_source_file>
AV-unprocessed.smi

> <i_m_source_file_index>
1212

> <i_lp_mmshare_version>
43012

> <i_f3d_flags>
0

> <s_epik_input>
W0NIM11jMW5uYyhzMSlbTkhdQyg9TylbTkhdW0NIMl1bQ0gyXU4yW0NIMl1bQ0gyXVtDSDJdW0NIMl1bQ0gyXUMyPU8=

> <s_epik_cmdline>
J2VwaWtfcHl0aG9uJywgJy1waCcsICc3LjAnLCAnLXRuJywgJzgnLCAnLW1hJywgJzIwMCcsICctbWV0YWxfYmluZGluZycsICctaW1hZScsICc8aW5maWxlLm1hZT4nLCAnLW9tYWUnLCAnPG91dGZpbGUubWFlPic=

> <r_lp_tautomer_probability>
1

> <r_epik_Ionization_Penalty>
3.37178

> <r_epik_Ionization_Penalty_Charging>
3.23409

> <r_epik_Ionization_Penalty_Neutral>
0.137695

> <r_epik_State_Penalty>
3.23156

> <r_epik_Charging_Adjusted_Penalty>
6.46564

> <i_epik_Tot_Q>
-1

> <i_epik_Tot_abs_Q>
1

> <r_epik_Metal_State_Penalty>
0.474775

> <b_epik_Metal_Only>
1

> <s_lp_Force_Field>
OPLS_2005

> <r_lp_Energy>
19.6793

> <b_lp_Chiralities_Consistent>
1

> <s_lp_Variant>
AV-unprocessed.smi:1212-2

> <Gold.Version>
5.8.1

> <Gold.Id.Protein>
6NUR|6NUR_protein|mol2

> <Gold.PLP.Fitness>
40.9493

> <Gold.PLP.PLP>
-31.0452

> <Gold.PLP.part.hbond>
-2.0108

> <Gold.PLP.part.metal>
0.0000

> <Gold.PLP.part.buried>
-5.4623

> <Gold.PLP.part.nonpolar>
-24.7861

> <Gold.PLP.part.repulsive>
1.4716

> <Gold.PLP.ligand.clash>
0.0000

> <Gold.PLP.ligand.torsion>
0.7361

> <Gold.PLP.Chemscore.Hbond>
3.7760

> <Gold.PLP.Chemscore.CHOScore>
0.0000

> <Gold.PLP.Chemscore.Metal>
0.0000

> <Gold.Chemscore.Hbonds>
donor molecule, donor type, donor heavy atom, donor atom, acceptor molecule, acceptor atom, score
      P1  H  6931  6943       L1     6  0.30
      P1  H  6934  6947       L1     6  2.00

> <Gold.PLP.Chemscore.Internal.Correction>
0.0481

> <Gold.Rescore>
     Score         DG    S(hbond)    S(metal)    S(lipo)     H(rot)  DE(clash)    DE(int)     intcor
     10.73     -12.98       1.30        0.00      62.53       1.63       0.10       2.15       ----

> <Gold.Chemscore.Fitness>
10.7294

> <Gold.Chemscore.DG>
-12.9795

> <Gold.Chemscore.ZeroCoef>
-5.4800

> <Gold.Chemscore.Hbond>
1.3008

> <Gold.Chemscore.Metal>
0.0000

> <Gold.Chemscore.Lipo>
62.5312

> <Gold.Chemscore.Internal_Hbond>
0.0000

> <Gold.Chemscore.DEClash>
0.1019

> <Gold.Chemscore.DEInternal>
2.1482

> <Gold.Chemscore.Rot>
1.6255

> <Gold.Chemscore.Internal.Correction>
   9.000000E+99

> <Gold.Chemscore.Hbonds>
donor molecule, donor type, donor heavy atom, donor atom, acceptor molecule, acceptor atom, score
      P1  H  6931  6943       L1     6  0.03
      P1  H  6934  6947       L1     6  0.81

> <Gold.Chemscore.Hbond.Weighted>
-4.3446

> <Gold.Chemscore.Metal.Weighted>
-0.0000

> <Gold.Chemscore.Lipo.Weighted>
-7.3162

> <Gold.Chemscore.Internal_Hbond.Weighted>
0.0000

> <Gold.Chemscore.DEClash.Weighted>
0.1019

> <Gold.Chemscore.DEInternal.Weighted>
2.1482

> <Gold.Chemscore.Rot.Weighted>
4.1613

> <Gold.Chemscore.Internal.Correction.Weighted>
   9.000000E+99

> <Gold.Protein.RotatedTorsions>
[ 6907 6896 6895 6894 ] final  -21.11 input  -60.11 | X-H torsion
[ 7974 7965 7964 7962 ] final  -72.84 input  175.53 | X-H torsion
[ 8008 7997 7996 7995 ] final -123.68 input   59.86 | X-H torsion
[ 10167 10162 10161 10158 ] final  122.35 input  -65.29 | X-H torsion
[ 10718 10713 10712 10709 ] final   25.19 input   66.30 | X-H torsion
[ 10763 10752 10751 10750 ] final -101.58 input  -60.55 | X-H torsion
[ 11005 11000 10999 10996 ] final  124.09 input  -57.11 | X-H torsion

> <Gold.Protein.ActiveResidues>
 VAL166  LYS551  ARG553  GLY616  TRP617  ASP618  TYR619  PRO620  LYS621  CYS622 
 ASP623  PHE694  ASN695  SER759  ASP760  ASP761  ALA762  ILE779  LEU786  VAL792 
 PHE793  MET794  SER795  GLU796  ALA797  LYS798  CYS799  TRP800  GLU811  SER814 

> <Gold.Protein.RotatedAtoms>
  151.2381  135.0579  159.9013 H   0  0  0  0  0  0  0  0  0  0  0  0  # atno 6907 bound_to 6896
  152.5396  134.0464  159.8100 H   0  0  0  0  0  0  0  0  0  0  0  0  # atno 6908 bound_to 6896
  151.0653  133.5461  159.2662 H   0  0  0  0  0  0  0  0  0  0  0  0  # atno 6909 bound_to 6896
  145.6599  140.9256  143.0939 H   0  0  0  0  0  0  0  0  0  0  0  0  # atno 7974 bound_to 7965
  155.1844  140.0411  157.2888 H   0  0  0  0  0  0  0  0  0  0  0  0  # atno 8008 bound_to 7997
  154.6181  140.2494  155.7556 H   0  0  0  0  0  0  0  0  0  0  0  0  # atno 8009 bound_to 7997
  156.2418  140.2900  156.0476 H   0  0  0  0  0  0  0  0  0  0  0  0  # atno 8010 bound_to 7997
  139.5864  144.7008  151.3398 H   0  0  0  0  0  0  0  0  0  0  0  0  # atno 10167 bound_to 10162
  157.1900  130.6841  149.6146 H   0  0  0  0  0  0  0  0  0  0  0  0  # atno 10718 bound_to 10713
  154.7668  135.4892  153.9571 H   0  0  0  0  0  0  0  0  0  0  0  0  # atno 10763 bound_to 10752
  153.1318  135.6754  153.9173 H   0  0  0  0  0  0  0  0  0  0  0  0  # atno 10764 bound_to 10752
  153.8874  135.3125  155.3425 H   0  0  0  0  0  0  0  0  0  0  0  0  # atno 10765 bound_to 10752
  139.9342  134.9640  156.8357 H   0  0  0  0  0  0  0  0  0  0  0  0  # atno 11005 bound_to 11000
  144.7093  139.8435  143.7420 LP  0  0  0  0  0  0  0  0  0  0  0  0  # atno 17320 bound_to 7965
  146.1134  139.4142  143.0273 LP  0  0  0  0  0  0  0  0  0  0  0  0  # atno 17321 bound_to 7965
  140.7135  143.7328  150.7611 LP  0  0  0  0  0  0  0  0  0  0  0  0  # atno 17342 bound_to 10162
  140.0873  143.4911  152.2498 LP  0  0  0  0  0  0  0  0  0  0  0  0  # atno 17343 bound_to 10162
  155.9713  130.4618  150.6122 LP  0  0  0  0  0  0  0  0  0  0  0  0  # atno 17370 bound_to 10713
  157.3870  131.0790  151.1427 LP  0  0  0  0  0  0  0  0  0  0  0  0  # atno 17371 bound_to 10713
  140.6119  134.0074  155.7580 LP  0  0  0  0  0  0  0  0  0  0  0  0  # atno 17394 bound_to 11000
  141.0948  133.9861  157.3179 LP  0  0  0  0  0  0  0  0  0  0  0  0  # atno 17395 bound_to 11000

$$$$
