AV-unprocessed.smi:509|AV-procd|sdf|2761|dock5
  -GOLD-   2262023223D 1   1.00000     0.00000
 Structure written by MMmdl.
 45 47  0  0  0  0  0  0  0  0  1 V2000
  150.5856  136.0216  155.2133 C   0  0  0  0  0  0  0  0  0  0  0  0
  151.7818  136.6875  155.5742 O   0  0  0  0  0  0  0  0  0  0  0  0
  151.5487  137.8350  156.3745 C   0  0  0  0  0  0  0  0  0  0  0  0
  151.3776  139.0633  155.4703 C   0  0  0  0  0  0  0  0  0  0  0  0
  150.8268  140.2045  156.2001 N   0  0  0  0  0  0  0  0  0  0  0  0
  149.7366  140.9658  155.9041 C   0  0  0  0  0  0  0  0  0  0  0  0
  148.9171  140.7107  154.8040 N   0  0  0  0  0  0  0  0  0  0  0  0
  148.4283  141.6784  153.8242 C   0  0  0  0  0  0  0  0  0  0  0  0
  146.9159  141.5025  153.5842 C   0  0  0  0  0  0  0  0  0  0  0  0
  146.6622  140.1677  153.0531 N   0  0  0  0  0  0  0  0  0  0  0  0
  147.1364  139.1831  154.0201 C   0  0  0  0  0  0  0  0  0  0  0  0
  148.6453  139.3790  154.2710 C   0  0  0  0  0  0  0  0  0  0  0  0
  149.5444  142.0001  156.7263 N   0  0  0  0  0  0  0  0  0  0  0  0
  150.5791  141.8733  157.6390 C   0  0  0  0  0  0  0  0  0  0  0  0
  151.3611  140.8096  157.3415 C   0  0  0  0  0  0  0  0  0  0  0  0
  152.5535  140.4592  158.1253 C   0  0  0  0  0  0  0  0  0  0  0  0
  153.2671  139.5049  157.8144 O   0  0  0  0  0  0  0  0  0  0  0  0
  152.7768  141.2809  159.1988 N   0  0  0  0  0  0  0  0  0  0  0  0
  153.9393  141.0036  160.0632 C   0  0  0  0  0  0  0  0  0  0  0  0
  151.9954  142.3688  159.5463 C   0  0  0  0  0  0  0  0  0  0  0  0
  152.2596  143.0541  160.5386 O   0  0  0  0  0  0  0  0  0  0  0  0
  150.9132  142.6743  158.7607 N   0  0  0  0  0  0  0  0  0  0  0  0
  150.0692  143.8270  159.0887 C   0  0  0  0  0  0  0  0  0  0  0  0
  150.8225  135.1523  154.6000 H   0  0  0  0  0  0  0  0  0  0  0  0
  149.9303  136.6742  154.6349 H   0  0  0  0  0  0  0  0  0  0  0  0
  150.0463  135.6747  156.0956 H   0  0  0  0  0  0  0  0  0  0  0  0
  150.6507  137.6929  156.9772 H   0  0  0  0  0  0  0  0  0  0  0  0
  152.3823  137.9865  157.0618 H   0  0  0  0  0  0  0  0  0  0  0  0
  152.3355  139.3179  155.0295 H   0  0  0  0  0  0  0  0  0  0  0  0
  150.7323  138.8317  154.6244 H   0  0  0  0  0  0  0  0  0  0  0  0
  148.6537  142.6941  154.1465 H   0  0  0  0  0  0  0  0  0  0  0  0
  148.9722  141.5423  152.8883 H   0  0  0  0  0  0  0  0  0  0  0  0
  146.3526  141.6508  154.5065 H   0  0  0  0  0  0  0  0  0  0  0  0
  146.5601  142.2416  152.8663 H   0  0  0  0  0  0  0  0  0  0  0  0
  145.6712  140.0445  152.9022 H   0  0  0  0  0  0  0  0  0  0  0  0
  146.5742  139.2749  154.9502 H   0  0  0  0  0  0  0  0  0  0  0  0
  146.9475  138.1837  153.6282 H   0  0  0  0  0  0  0  0  0  0  0  0
  149.2124  139.2277  153.3514 H   0  0  0  0  0  0  0  0  0  0  0  0
  148.9942  138.6275  154.9801 H   0  0  0  0  0  0  0  0  0  0  0  0
  153.6163  140.8280  161.0906 H   0  0  0  0  0  0  0  0  0  0  0  0
  154.6214  141.8552  160.0672 H   0  0  0  0  0  0  0  0  0  0  0  0
  154.5303  140.1339  159.7745 H   0  0  0  0  0  0  0  0  0  0  0  0
  149.5069  143.6345  160.0029 H   0  0  0  0  0  0  0  0  0  0  0  0
  149.3512  144.0587  158.3024 H   0  0  0  0  0  0  0  0  0  0  0  0
  150.6720  144.7233  159.2412 H   0  0  0  0  0  0  0  0  0  0  0  0
  1  2  1  0  0  0  0
  1 24  1  0  0  0  0
  1 25  1  0  0  0  0
  1 26  1  0  0  0  0
  2  3  1  0  0  0  0
  3  4  1  0  0  0  0
  3 27  1  0  0  0  0
  3 28  1  0  0  0  0
  4  5  1  0  0  0  0
  4 29  1  0  0  0  0
  4 30  1  0  0  0  0
  5 15  1  0  0  0  0
  5  6  1  0  0  0  0
  6  7  1  0  0  0  0
  6 13  2  0  0  0  0
  7 12  1  0  0  0  0
  7  8  1  0  0  0  0
  8  9  1  0  0  0  0
  8 31  1  0  0  0  0
  8 32  1  0  0  0  0
  9 10  1  0  0  0  0
  9 33  1  0  0  0  0
  9 34  1  0  0  0  0
 10 11  1  0  0  0  0
 10 35  1  0  0  0  0
 11 12  1  0  0  0  0
 11 36  1  0  0  0  0
 11 37  1  0  0  0  0
 12 38  1  0  0  0  0
 12 39  1  0  0  0  0
 13 14  1  0  0  0  0
 14 22  1  0  0  0  0
 14 15  2  0  0  0  0
 15 16  1  0  0  0  0
 16 17  2  0  0  0  0
 16 18  1  0  0  0  0
 18 19  1  0  0  0  0
 18 20  1  0  0  0  0
 19 40  1  0  0  0  0
 19 41  1  0  0  0  0
 19 42  1  0  0  0  0
 20 21  2  0  0  0  0
 20 22  1  0  0  0  0
 22 23  1  0  0  0  0
 23 43  1  0  0  0  0
 23 44  1  0  0  0  0
 23 45  1  0  0  0  0
M  END
> <s_m_source_file>
AV-unprocessed.smi

> <i_m_source_file_index>
509

> <i_lp_mmshare_version>
43012

> <i_f3d_flags>
0

> <s_epik_input>
W0NIM11uMWMoPU8pbihbQ0gzXSljKD1PKWMoYzEyKW4oW0NIMl1bQ0gyXU9bQ0gzXSljKG4yKU4zW0NIMl1bQ0gyXVtOSF1bQ0gyXVtDSDJdMw==

> <s_epik_cmdline>
J2VwaWtfcHl0aG9uJywgJy1waCcsICc3LjAnLCAnLXRuJywgJzgnLCAnLW1hJywgJzIwMCcsICctbWV0YWxfYmluZGluZycsICctaW1hZScsICc8aW5maWxlLm1hZT4nLCAnLW9tYWUnLCAnPG91dGZpbGUubWFlPic=

> <r_epik_Ionization_Penalty>
2.51424

> <r_epik_Ionization_Penalty_Charging>
1.27827e-08

> <r_epik_Ionization_Penalty_Neutral>
2.51424

> <r_epik_State_Penalty>
2.67993

> <r_epik_Charging_Adjusted_Penalty>
2.67993

> <i_epik_Tot_Q>
0

> <i_epik_Tot_abs_Q>
0

> <r_epik_Metal_State_Penalty>
2.67967

> <b_epik_Metal_Only>
0

> <s_lp_Force_Field>
OPLS_2005

> <r_lp_Energy>
54.3442

> <b_lp_Chiralities_Consistent>
1

> <s_lp_Variant>
AV-unprocessed.smi:509-2

> <Gold.Version>
5.8.1

> <Gold.Id.Protein>
6NUR|6NUR_protein|mol2

> <Gold.PLP.Fitness>
45.9025

> <Gold.PLP.PLP>
-38.2683

> <Gold.PLP.part.hbond>
-2.9979

> <Gold.PLP.part.metal>
0.0000

> <Gold.PLP.part.buried>
-3.9374

> <Gold.PLP.part.nonpolar>
-31.5215

> <Gold.PLP.part.repulsive>
1.1677

> <Gold.PLP.ligand.clash>
0.0000

> <Gold.PLP.ligand.torsion>
0.8489

> <Gold.PLP.Chemscore.Hbond>
3.0000

> <Gold.PLP.Chemscore.CHOScore>
0.0000

> <Gold.PLP.Chemscore.Metal>
0.0000

> <Gold.Chemscore.Hbonds>
donor molecule, donor type, donor heavy atom, donor atom, acceptor molecule, acceptor atom, score
      L1  H    10    35       P1 10175  0.88
      P1  H  7997  8010       L1    17  1.00
      P1  H 10752 10763       L1     2  1.00

> <Gold.PLP.Chemscore.Internal.Correction>
0.3319

> <Gold.Rescore>
     Score         DG    S(hbond)    S(metal)    S(lipo)     H(rot)  DE(clash)    DE(int)     intcor
     15.83     -17.93       2.72        0.00      61.52       1.49       0.74       1.37       ----

> <Gold.Chemscore.Fitness>
15.8262

> <Gold.Chemscore.DG>
-17.9334

> <Gold.Chemscore.ZeroCoef>
-5.4800

> <Gold.Chemscore.Hbond>
2.7168

> <Gold.Chemscore.Metal>
0.0000

> <Gold.Chemscore.Lipo>
61.5190

> <Gold.Chemscore.Internal_Hbond>
0.0000

> <Gold.Chemscore.DEClash>
0.7361

> <Gold.Chemscore.DEInternal>
1.3711

> <Gold.Chemscore.Rot>
1.4915

> <Gold.Chemscore.Internal.Correction>
   9.000000E+99

> <Gold.Chemscore.Hbonds>
donor molecule, donor type, donor heavy atom, donor atom, acceptor molecule, acceptor atom, score
      L1  H    10    35       P1 10175  0.84
      P1  H  7997  8010       L1    17  0.65
      P1  H 10752 10763       L1     2  0.30

> <Gold.Chemscore.Hbond.Weighted>
-9.0740

> <Gold.Chemscore.Metal.Weighted>
-0.0000

> <Gold.Chemscore.Lipo.Weighted>
-7.1977

> <Gold.Chemscore.Internal_Hbond.Weighted>
0.0000

> <Gold.Chemscore.DEClash.Weighted>
0.7361

> <Gold.Chemscore.DEInternal.Weighted>
1.3711

> <Gold.Chemscore.Rot.Weighted>
3.8183

> <Gold.Chemscore.Internal.Correction.Weighted>
   9.000000E+99

> <Gold.Protein.RotatedTorsions>
[ 6907 6896 6895 6894 ] final    4.13 input  -60.11 | X-H torsion
[ 7974 7965 7964 7962 ] final   51.26 input  175.53 | X-H torsion
[ 8008 7997 7996 7995 ] final   52.08 input   59.86 | X-H torsion
[ 10167 10162 10161 10158 ] final  -19.16 input  -65.29 | X-H torsion
[ 10718 10713 10712 10709 ] final   36.74 input   66.30 | X-H torsion
[ 10763 10752 10751 10750 ] final   80.61 input  -60.55 | X-H torsion
[ 11005 11000 10999 10996 ] final  -54.57 input  -57.11 | X-H torsion

> <Gold.Protein.ActiveResidues>
 VAL166  LYS551  ARG553  GLY616  TRP617  ASP618  TYR619  PRO620  LYS621  CYS622 
 ASP623  PHE694  ASN695  SER759  ASP760  ASP761  ALA762  ILE779  LEU786  VAL792 
 PHE793  MET794  SER795  GLU796  ALA797  LYS798  CYS799  TRP800  GLU811  SER814 

> <Gold.Protein.RotatedAtoms>
  151.6363  135.1017  160.0131 H   0  0  0  0  0  0  0  0  0  0  0  0  # atno 6907 bound_to 6896
  152.4079  133.6913  159.6380 H   0  0  0  0  0  0  0  0  0  0  0  0  # atno 6908 bound_to 6896
  150.7971  133.8594  159.3268 H   0  0  0  0  0  0  0  0  0  0  0  0  # atno 6909 bound_to 6896
  145.9930  139.4359  143.0061 H   0  0  0  0  0  0  0  0  0  0  0  0  # atno 7974 bound_to 7965
  155.4459  140.3456  155.4295 H   0  0  0  0  0  0  0  0  0  0  0  0  # atno 8008 bound_to 7997
  156.1250  140.1498  156.9179 H   0  0  0  0  0  0  0  0  0  0  0  0  # atno 8009 bound_to 7997
  154.4851  140.0858  156.7448 H   0  0  0  0  0  0  0  0  0  0  0  0  # atno 8010 bound_to 7997
  140.7266  143.4846  151.0072 H   0  0  0  0  0  0  0  0  0  0  0  0  # atno 10167 bound_to 10162
  157.3386  130.7536  149.6896 H   0  0  0  0  0  0  0  0  0  0  0  0  # atno 10718 bound_to 10713
  153.1048  135.4796  154.8931 H   0  0  0  0  0  0  0  0  0  0  0  0  # atno 10763 bound_to 10752
  154.7418  135.3084  154.8718 H   0  0  0  0  0  0  0  0  0  0  0  0  # atno 10764 bound_to 10752
  153.9324  135.6843  153.4799 H   0  0  0  0  0  0  0  0  0  0  0  0  # atno 10765 bound_to 10752
  141.1032  133.6616  156.4341 H   0  0  0  0  0  0  0  0  0  0  0  0  # atno 11005 bound_to 11000
  145.7601  140.9938  143.1204 LP  0  0  0  0  0  0  0  0  0  0  0  0  # atno 17320 bound_to 7965
  144.6895  139.9320  143.7472 LP  0  0  0  0  0  0  0  0  0  0  0  0  # atno 17321 bound_to 7965
  139.8546  143.7393  152.3176 LP  0  0  0  0  0  0  0  0  0  0  0  0  # atno 17342 bound_to 10162
  139.7587  144.7513  151.0396 LP  0  0  0  0  0  0  0  0  0  0  0  0  # atno 17343 bound_to 10162
  155.9704  130.4174  150.4279 LP  0  0  0  0  0  0  0  0  0  0  0  0  # atno 17370 bound_to 10713
  157.2322  131.0507  151.2485 LP  0  0  0  0  0  0  0  0  0  0  0  0  # atno 17371 bound_to 10713
  140.4968  134.6523  157.5233 LP  0  0  0  0  0  0  0  0  0  0  0  0  # atno 17394 bound_to 11000
  139.9892  134.7013  155.9720 LP  0  0  0  0  0  0  0  0  0  0  0  0  # atno 17395 bound_to 11000

$$$$
