AV-unprocessed.smi:265|AV-procd|sdf|2020|dock4
  -GOLD-   2262021223D 1   1.00000     0.00000
 Structure written by MMmdl.
 52 56  0  0  0  0  0  0  0  0  1 V2000
  145.2547  139.5863  155.5311 C   0  0  0  0  0  0  0  0  0  0  0  0
  146.4066  138.7275  154.9815 C   0  0  1  0  0  0  0  0  0  0  0  0
  145.9660  137.3691  155.0254 O   0  0  0  0  0  0  0  0  0  0  0  0
  146.2079  136.7300  153.7811 C   0  0  0  0  0  0  0  0  0  0  0  0
  146.1177  137.8654  152.7742 C   0  0  0  0  0  0  0  0  0  0  0  0
  146.8149  139.0045  153.5109 C   0  0  1  0  0  0  0  0  0  0  0  0
  146.3135  140.2370  153.0241 O   0  0  0  0  0  0  0  0  0  0  0  0
  148.3598  139.0082  153.3545 C   0  0  0  0  0  0  0  0  0  0  0  0
  149.0540  139.9123  154.2596 N   0  0  0  0  0  0  0  0  0  0  0  0
  148.7087  141.2146  154.5431 C   0  0  0  0  0  0  0  0  0  0  0  0
  149.4902  141.8265  155.3901 N   0  0  0  0  0  0  0  0  0  0  0  0
  150.4616  140.8818  155.7000 C   0  0  0  0  0  0  0  0  0  0  0  0
  151.6060  140.8781  156.5469 C   0  0  0  0  0  0  0  0  0  0  0  0
  151.9855  141.9622  157.2700 N   0  0  0  0  0  0  0  0  0  0  0  0
  151.1876  143.1810  157.1367 C   0  0  0  0  0  0  0  0  0  0  0  0
  151.9534  144.3950  157.6842 C   0  0  0  0  0  0  0  0  0  0  0  0
  152.4406  144.1621  159.1237 C   0  0  1  0  0  0  0  0  0  0  0  0
  151.3348  144.1098  160.0159 O   0  0  0  0  0  0  0  0  0  0  0  0
  151.7089  144.0784  161.3944 C   0  0  0  0  0  0  0  0  0  0  0  0
  152.7853  143.0159  161.6850 C   0  0  0  0  0  0  0  0  0  0  0  0
  153.0000  142.6615  162.8420 O   0  0  0  0  0  0  0  0  0  0  0  0
  153.4949  142.5354  160.6512 N   0  0  0  0  0  0  0  0  0  0  0  0
  153.2069  142.8274  159.2509 C   0  0  1  0  0  0  0  0  0  0  0  0
  152.4137  141.6577  158.6339 C   0  0  0  0  0  0  0  0  0  0  0  0
  152.3326  139.7299  156.6100 N   0  0  0  0  0  0  0  0  0  0  0  0
  151.9750  138.6635  155.8888 C   0  0  0  0  0  0  0  0  0  0  0  0
  150.9417  138.5285  155.0558 N   0  0  0  0  0  0  0  0  0  0  0  0
  150.2012  139.6718  154.9960 C   0  0  0  0  0  0  0  0  0  0  0  0
  153.0841  144.9961  159.4110 H   0  0  0  0  0  0  0  0  0  0  0  0
  154.1581  142.9178  158.7249 H   0  0  0  0  0  0  0  0  0  0  0  0
  145.5296  140.6406  155.5715 H   0  0  0  0  0  0  0  0  0  0  0  0
  144.9920  139.2790  156.5436 H   0  0  0  0  0  0  0  0  0  0  0  0
  144.3597  139.4930  154.9147 H   0  0  0  0  0  0  0  0  0  0  0  0
  147.2663  138.8362  155.6440 H   0  0  0  0  0  0  0  0  0  0  0  0
  147.2049  136.2878  153.7847 H   0  0  0  0  0  0  0  0  0  0  0  0
  145.4829  135.9387  153.5907 H   0  0  0  0  0  0  0  0  0  0  0  0
  146.5467  137.6155  151.8048 H   0  0  0  0  0  0  0  0  0  0  0  0
  145.0658  138.1067  152.6105 H   0  0  0  0  0  0  0  0  0  0  0  0
  145.3702  140.2210  153.0801 H   0  0  0  0  0  0  0  0  0  0  0  0
  148.7543  138.0028  153.5086 H   0  0  0  0  0  0  0  0  0  0  0  0
  148.6354  139.2827  152.3356 H   0  0  0  0  0  0  0  0  0  0  0  0
  147.8464  141.6966  154.1058 H   0  0  0  0  0  0  0  0  0  0  0  0
  150.9379  143.3552  156.0890 H   0  0  0  0  0  0  0  0  0  0  0  0
  150.2472  143.0585  157.6764 H   0  0  0  0  0  0  0  0  0  0  0  0
  152.8145  144.5900  157.0437 H   0  0  0  0  0  0  0  0  0  0  0  0
  151.3272  145.2863  157.6383 H   0  0  0  0  0  0  0  0  0  0  0  0
  152.0906  145.0568  161.6884 H   0  0  0  0  0  0  0  0  0  0  0  0
  150.8229  143.8817  161.9985 H   0  0  0  0  0  0  0  0  0  0  0  0
  154.2278  141.8680  160.8432 H   0  0  0  0  0  0  0  0  0  0  0  0
  151.5241  141.4528  159.2314 H   0  0  0  0  0  0  0  0  0  0  0  0
  153.0214  140.7539  158.6683 H   0  0  0  0  0  0  0  0  0  0  0  0
  152.6075  137.7944  155.9940 H   0  0  0  0  0  0  0  0  0  0  0  0
  1  2  1  0  0  0  0
  1 31  1  0  0  0  0
  1 32  1  0  0  0  0
  1 33  1  0  0  0  0
  2  6  1  0  0  0  0
  2  3  1  0  0  0  0
  2 34  1  0  0  0  0
  3  4  1  0  0  0  0
  4  5  1  0  0  0  0
  4 35  1  0  0  0  0
  4 36  1  0  0  0  0
  5  6  1  0  0  0  0
  5 37  1  0  0  0  0
  5 38  1  0  0  0  0
  6  7  1  0  0  0  0
  6  8  1  0  0  0  0
  7 39  1  0  0  0  0
  8  9  1  0  0  0  0
  8 40  1  0  0  0  0
  8 41  1  0  0  0  0
  9 28  1  0  0  0  0
  9 10  1  0  0  0  0
 10 11  2  0  0  0  0
 10 42  1  0  0  0  0
 11 12  1  0  0  0  0
 12 28  2  0  0  0  0
 12 13  1  0  0  0  0
 13 14  1  0  0  0  0
 13 25  2  0  0  0  0
 14 24  1  0  0  0  0
 14 15  1  0  0  0  0
 15 16  1  0  0  0  0
 15 43  1  0  0  0  0
 15 44  1  0  0  0  0
 16 17  1  0  0  0  0
 16 45  1  0  0  0  0
 16 46  1  0  0  0  0
 17 29  1  0  0  0  0
 17 23  1  0  0  0  0
 17 18  1  0  0  0  0
 18 19  1  0  0  0  0
 19 20  1  0  0  0  0
 19 47  1  0  0  0  0
 19 48  1  0  0  0  0
 20 21  2  0  0  0  0
 20 22  1  0  0  0  0
 22 23  1  0  0  0  0
 22 49  1  0  0  0  0
 23 30  1  0  0  0  0
 23 24  1  0  0  0  0
 24 50  1  0  0  0  0
 24 51  1  0  0  0  0
 25 26  1  0  0  0  0
 26 27  2  0  0  0  0
 26 52  1  0  0  0  0
 27 28  1  0  0  0  0
M  END
> <s_m_source_file>
AV-unprocessed.smi

> <i_m_source_file_index>
265

> <i_lp_mmshare_version>
43012

> <i_f3d_flags>
0

> <s_epik_input>
W0NIMl0xW0NIMl1PW0NAQEhdKFtDSDNdKVtDQEBdMShbT0hdKVtDSDJdbihbY0hdbjIpYyhjMjMpbltjSF1uYzNOKFtDSDJdW0NIMl00KVtDSDJdW0NAQEhdKFtDQEhdNDUpW05IXUMoPU8pW0NIMl1PNQ==

> <s_epik_cmdline>
J2VwaWtfcHl0aG9uJywgJy1waCcsICc3LjAnLCAnLXRuJywgJzgnLCAnLW1hJywgJzIwMCcsICctbWV0YWxfYmluZGluZycsICctaW1hZScsICc8aW5maWxlLm1hZT4nLCAnLW9tYWUnLCAnPG91dGZpbGUubWFlPic=

> <r_lp_tautomer_probability>
1

> <r_epik_Ionization_Penalty>
0.00221504

> <r_epik_Ionization_Penalty_Charging>
0

> <r_epik_Ionization_Penalty_Neutral>
0.00221504

> <r_epik_State_Penalty>
-0

> <r_epik_Charging_Adjusted_Penalty>
0

> <i_epik_Tot_Q>
0

> <i_epik_Tot_abs_Q>
0

> <r_epik_Metal_State_Penalty>
-0

> <b_epik_Metal_Only>
0

> <s_lp_Force_Field>
OPLS_2005

> <r_lp_Energy>
44.9484

> <b_lp_Chiralities_Consistent>
1

> <s_lp_Variant>
AV-unprocessed.smi:265-6

> <Gold.Version>
5.8.1

> <Gold.Id.Protein>
6NUR|6NUR_protein|mol2

> <Gold.PLP.Fitness>
47.4874

> <Gold.PLP.PLP>
-42.1718

> <Gold.PLP.part.hbond>
-2.0000

> <Gold.PLP.part.metal>
0.0000

> <Gold.PLP.part.buried>
0.6894

> <Gold.PLP.part.nonpolar>
-42.2483

> <Gold.PLP.part.repulsive>
1.5579

> <Gold.PLP.ligand.clash>
0.0019

> <Gold.PLP.ligand.torsion>
0.5097

> <Gold.PLP.Chemscore.Hbond>
1.9913

> <Gold.PLP.Chemscore.CHOScore>
0.0000

> <Gold.PLP.Chemscore.Metal>
0.0000

> <Gold.Chemscore.Hbonds>
donor molecule, donor type, donor heavy atom, donor atom, acceptor molecule, acceptor atom, score
      L1  H     7    39       P1 10175  1.00
      P1  H  7997  8009       L1    25  0.96

> <Gold.PLP.Chemscore.Internal.Correction>
0.3632

> <Gold.Rescore>
     Score         DG    S(hbond)    S(metal)    S(lipo)     H(rot)  DE(clash)    DE(int)     intcor
     10.96     -15.98       1.46        0.00      97.19       2.25       3.00       2.03       ----

> <Gold.Chemscore.Fitness>
10.9574

> <Gold.Chemscore.DG>
-15.9814

> <Gold.Chemscore.ZeroCoef>
-5.4800

> <Gold.Chemscore.Hbond>
1.4606

> <Gold.Chemscore.Metal>
0.0000

> <Gold.Chemscore.Lipo>
97.1860

> <Gold.Chemscore.Internal_Hbond>
0.0000

> <Gold.Chemscore.DEClash>
2.9962

> <Gold.Chemscore.DEInternal>
2.0278

> <Gold.Chemscore.Rot>
2.2453

> <Gold.Chemscore.Internal.Correction>
   9.000000E+99

> <Gold.Chemscore.Hbonds>
donor molecule, donor type, donor heavy atom, donor atom, acceptor molecule, acceptor atom, score
      L1  H     7    39       P1 10175  0.97
      P1  H  7997  8009       L1    25  0.59

> <Gold.Chemscore.Hbond.Weighted>
-4.8786

> <Gold.Chemscore.Metal.Weighted>
-0.0000

> <Gold.Chemscore.Lipo.Weighted>
-11.3708

> <Gold.Chemscore.Internal_Hbond.Weighted>
0.0000

> <Gold.Chemscore.DEClash.Weighted>
2.9962

> <Gold.Chemscore.DEInternal.Weighted>
2.0278

> <Gold.Chemscore.Rot.Weighted>
5.7479

> <Gold.Chemscore.Internal.Correction.Weighted>
   9.000000E+99

> <Gold.Protein.RotatedTorsions>
[ 6907 6896 6895 6894 ] final -116.10 input  -60.11 | X-H torsion
[ 7974 7965 7964 7962 ] final  103.94 input  175.53 | X-H torsion
[ 8008 7997 7996 7995 ] final -171.99 input   59.86 | X-H torsion
[ 10167 10162 10161 10158 ] final   76.75 input  -65.29 | X-H torsion
[ 10718 10713 10712 10709 ] final   -2.77 input   66.30 | X-H torsion
[ 10763 10752 10751 10750 ] final   17.69 input  -60.55 | X-H torsion
[ 11005 11000 10999 10996 ] final   14.93 input  -57.11 | X-H torsion

> <Gold.Protein.ActiveResidues>
 VAL166  LYS551  ARG553  GLY616  TRP617  ASP618  TYR619  PRO620  LYS621  CYS622 
 ASP623  PHE694  ASN695  SER759  ASP760  ASP761  ALA762  ILE779  LEU786  VAL792 
 PHE793  MET794  SER795  GLU796  ALA797  LYS798  CYS799  TRP800  GLU811  SER814 

> <Gold.Protein.RotatedAtoms>
  150.8029  133.8564  159.3219 H   0  0  0  0  0  0  0  0  0  0  0  0  # atno 6907 bound_to 6896
  151.6371  135.1015  160.0143 H   0  0  0  0  0  0  0  0  0  0  0  0  # atno 6908 bound_to 6896
  152.4118  133.6936  159.6439 H   0  0  0  0  0  0  0  0  0  0  0  0  # atno 6909 bound_to 6896
  145.3393  139.2466  143.3618 H   0  0  0  0  0  0  0  0  0  0  0  0  # atno 7974 bound_to 7965
  155.9388  140.1105  157.1073 H   0  0  0  0  0  0  0  0  0  0  0  0  # atno 8008 bound_to 7997
  154.4085  140.1223  156.4965 H   0  0  0  0  0  0  0  0  0  0  0  0  # atno 8009 bound_to 7997
  155.6988  140.3472  155.4926 H   0  0  0  0  0  0  0  0  0  0  0  0  # atno 8010 bound_to 7997
  139.9889  144.5771  150.7835 H   0  0  0  0  0  0  0  0  0  0  0  0  # atno 10167 bound_to 10162
  156.7860  130.5346  149.5743 H   0  0  0  0  0  0  0  0  0  0  0  0  # atno 10718 bound_to 10713
  153.1316  135.6741  153.9170 H   0  0  0  0  0  0  0  0  0  0  0  0  # atno 10763 bound_to 10752
  153.8654  135.3076  155.3441 H   0  0  0  0  0  0  0  0  0  0  0  0  # atno 10764 bound_to 10752
  154.7712  135.4938  153.9734 H   0  0  0  0  0  0  0  0  0  0  0  0  # atno 10765 bound_to 10752
  140.4640  134.1098  155.7721 H   0  0  0  0  0  0  0  0  0  0  0  0  # atno 11005 bound_to 11000
  146.3014  140.3987  142.8703 LP  0  0  0  0  0  0  0  0  0  0  0  0  # atno 17320 bound_to 7965
  144.8803  140.7391  143.5991 LP  0  0  0  0  0  0  0  0  0  0  0  0  # atno 17321 bound_to 7965
  140.7462  143.2887  151.3391 LP  0  0  0  0  0  0  0  0  0  0  0  0  # atno 17342 bound_to 10162
  139.6354  144.0640  152.2511 LP  0  0  0  0  0  0  0  0  0  0  0  0  # atno 17343 bound_to 10162
  156.1188  130.6095  151.0162 LP  0  0  0  0  0  0  0  0  0  0  0  0  # atno 17370 bound_to 10713
  157.6624  131.0878  150.7808 LP  0  0  0  0  0  0  0  0  0  0  0  0  # atno 17371 bound_to 10713
  141.1608  133.8796  157.1853 LP  0  0  0  0  0  0  0  0  0  0  0  0  # atno 17394 bound_to 11000
  139.9927  135.0058  157.0012 LP  0  0  0  0  0  0  0  0  0  0  0  0  # atno 17395 bound_to 11000

$$$$
