AV-unprocessed.smi:101|AV-procd|sdf|928|dock3
  -GOLD-   2262017443D 1   1.00000     0.00000
 Structure written by MMmdl.
 44 46  0  0  0  0  0  0  0  0  1 V2000
  145.3936  142.5393  158.5262 C   0  0  0  0  0  0  0  0  0  0  0  0
  145.5437  142.8783  157.0521 C   0  0  0  0  0  0  0  0  0  0  0  0
  146.3551  142.1733  156.2219 C   0  0  0  0  0  0  0  0  0  0  0  0
  146.5130  142.4588  154.8693 N   0  0  0  0  0  0  0  0  0  0  0  0
  147.4408  141.6716  153.9587 C   0  0  1  0  0  0  0  0  0  0  0  0
  148.7387  141.7001  154.4785 O   0  0  0  0  0  0  0  0  0  0  0  0
  148.9966  140.4829  155.1661 C   0  0  2  0  0  0  0  0  0  0  0  0
  150.4914  140.2914  155.4800 C   0  0  0  0  0  0  0  0  0  0  0  0
  150.9555  141.2652  156.4018 O   0  0  0  0  0  0  0  0  0  0  0  0
  151.8553  140.9319  157.3459 C   0  0  0  0  0  0  0  0  0  0  0  0
  152.4699  139.8634  157.3562 O   0  0  0  0  0  0  0  0  0  0  0  0
  152.0285  141.9933  158.3793 C   0  0  0  0  0  0  0  0  0  0  0  0
  152.5438  141.6464  159.6500 C   0  0  0  0  0  0  0  0  0  0  0  0
  152.7165  142.6270  160.6461 C   0  0  0  0  0  0  0  0  0  0  0  0
  152.3775  143.9669  160.3830 C   0  0  0  0  0  0  0  0  0  0  0  0
  151.8653  144.3251  159.1223 C   0  0  0  0  0  0  0  0  0  0  0  0
  151.6909  143.3458  158.1252 C   0  0  0  0  0  0  0  0  0  0  0  0
  148.2802  139.4292  154.3154 C   0  0  2  0  0  0  0  0  0  0  0  0
  149.0685  139.0223  153.2088 O   0  0  0  0  0  0  0  0  0  0  0  0
  147.0162  140.1828  153.8939 C   0  0  2  0  0  0  0  0  0  0  0  0
  146.5411  139.7872  152.6202 O   0  0  0  0  0  0  0  0  0  0  0  0
  145.8247  143.5603  154.3183 C   0  0  0  0  0  0  0  0  0  0  0  0
  145.9372  143.8933  153.1392 O   0  0  0  0  0  0  0  0  0  0  0  0
  144.9900  144.2816  155.1689 N   0  0  0  0  0  0  0  0  0  0  0  0
  144.7871  144.0168  156.5245 C   0  0  0  0  0  0  0  0  0  0  0  0
  144.0199  144.7260  157.1737 O   0  0  0  0  0  0  0  0  0  0  0  0
  144.4920  145.0656  154.7729 H   0  0  0  0  0  0  0  0  0  0  0  0
  145.9831  141.6652  158.8042 H   0  0  0  0  0  0  0  0  0  0  0  0
  144.3507  142.3277  158.7650 H   0  0  0  0  0  0  0  0  0  0  0  0
  145.7240  143.3752  159.1438 H   0  0  0  0  0  0  0  0  0  0  0  0
  146.9017  141.3522  156.6591 H   0  0  0  0  0  0  0  0  0  0  0  0
  147.4241  142.1950  153.0006 H   0  0  0  0  0  0  0  0  0  0  0  0
  148.4735  140.5314  156.1224 H   0  0  0  0  0  0  0  0  0  0  0  0
  150.6460  139.2988  155.9053 H   0  0  0  0  0  0  0  0  0  0  0  0
  151.0753  140.3434  154.5601 H   0  0  0  0  0  0  0  0  0  0  0  0
  152.8107  140.6237  159.8754 H   0  0  0  0  0  0  0  0  0  0  0  0
  153.1096  142.3501  161.6132 H   0  0  0  0  0  0  0  0  0  0  0  0
  152.5104  144.7185  161.1472 H   0  0  0  0  0  0  0  0  0  0  0  0
  151.6050  145.3533  158.9185 H   0  0  0  0  0  0  0  0  0  0  0  0
  151.2956  143.6555  157.1686 H   0  0  0  0  0  0  0  0  0  0  0  0
  148.0390  138.5405  154.8994 H   0  0  0  0  0  0  0  0  0  0  0  0
  149.1796  139.7599  152.6288 H   0  0  0  0  0  0  0  0  0  0  0  0
  146.2353  140.0000  154.6339 H   0  0  0  0  0  0  0  0  0  0  0  0
  145.6359  140.0491  152.5455 H   0  0  0  0  0  0  0  0  0  0  0  0
  1  2  1  0  0  0  0
  1 28  1  0  0  0  0
  1 29  1  0  0  0  0
  1 30  1  0  0  0  0
  2 25  1  0  0  0  0
  2  3  2  0  0  0  0
  3  4  1  0  0  0  0
  3 31  1  0  0  0  0
  4  5  1  0  0  0  0
  4 22  1  0  0  0  0
  5 20  1  0  0  0  0
  5  6  1  0  0  0  0
  5 32  1  0  0  0  0
  6  7  1  0  0  0  0
  7  8  1  0  0  0  0
  7 18  1  0  0  0  0
  7 33  1  0  0  0  0
  8  9  1  0  0  0  0
  8 34  1  0  0  0  0
  8 35  1  0  0  0  0
  9 10  1  0  0  0  0
 10 11  2  0  0  0  0
 10 12  1  0  0  0  0
 12 17  1  0  0  0  0
 12 13  2  0  0  0  0
 13 14  1  0  0  0  0
 13 36  1  0  0  0  0
 14 15  2  0  0  0  0
 14 37  1  0  0  0  0
 15 16  1  0  0  0  0
 15 38  1  0  0  0  0
 16 17  2  0  0  0  0
 16 39  1  0  0  0  0
 17 40  1  0  0  0  0
 18 19  1  0  0  0  0
 18 20  1  0  0  0  0
 18 41  1  0  0  0  0
 19 42  1  0  0  0  0
 20 21  1  0  0  0  0
 20 43  1  0  0  0  0
 21 44  1  0  0  0  0
 22 23  2  0  0  0  0
 22 24  1  0  0  0  0
 24 27  1  0  0  0  0
 24 25  1  0  0  0  0
 25 26  2  0  0  0  0
M  END
> <s_m_source_file>
AV-unprocessed.smi

> <i_m_source_file_index>
101

> <i_lp_mmshare_version>
43012

> <i_f3d_flags>
0

> <s_epik_input>
Tz1jMVtuSF1jKD1PKW4oW2NIXWMxW0NIM10pW0NAQEhdMk9bQ0BIXShbQ0BASF0oW09IXSlbQ0BIXTJbT0hdKVtDSDJdT0MoPU8pYzNbY0hdW2NIXVtjSF1bY0hdW2NIXTM=

> <s_epik_cmdline>
J2VwaWtfcHl0aG9uJywgJy1waCcsICc3LjAnLCAnLXRuJywgJzgnLCAnLW1hJywgJzIwMCcsICctbWV0YWxfYmluZGluZycsICctaW1hZScsICc8aW5maWxlLm1hZT4nLCAnLW9tYWUnLCAnPG91dGZpbGUubWFlPic=

> <r_lp_tautomer_probability>
0.999537

> <r_epik_Ionization_Penalty>
0.00263537

> <r_epik_Ionization_Penalty_Charging>
0.00263428

> <r_epik_Ionization_Penalty_Neutral>
1.09111e-06

> <r_epik_State_Penalty>
0.00183335

> <r_epik_Charging_Adjusted_Penalty>
0.00446763

> <i_epik_Tot_Q>
0

> <i_epik_Tot_abs_Q>
0

> <r_epik_Metal_State_Penalty>
1.00528

> <b_epik_Metal_Only>
0

> <s_epik_Chemistry_Notes>
This compound has an ester and may undergo hydrolysis at high or low pH. This compound contains an acetal/aminal-like group ( X-CH(R)-Y where X, Y are N, S, or O) that may be acid/base labile, releasing an aldehyde.

> <s_lp_Force_Field>
OPLS_2005

> <r_lp_Energy>
40.8637

> <b_lp_Chiralities_Consistent>
1

> <s_lp_Variant>
AV-unprocessed.smi:101-16

> <Gold.Version>
5.8.1

> <Gold.Id.Protein>
6NUR|6NUR_protein|mol2

> <Gold.PLP.Fitness>
55.3786

> <Gold.PLP.PLP>
-47.6646

> <Gold.PLP.part.hbond>
-4.8964

> <Gold.PLP.part.metal>
0.0000

> <Gold.PLP.part.buried>
-5.6107

> <Gold.PLP.part.nonpolar>
-36.9108

> <Gold.PLP.part.repulsive>
0.5438

> <Gold.PLP.ligand.clash>
0.0000

> <Gold.PLP.ligand.torsion>
0.6104

> <Gold.PLP.Chemscore.Hbond>
2.9565

> <Gold.PLP.Chemscore.CHOScore>
0.0000

> <Gold.PLP.Chemscore.Metal>
0.0000

> <Gold.Chemscore.Hbonds>
donor molecule, donor type, donor heavy atom, donor atom, acceptor molecule, acceptor atom, score
      L1  H    19    42       P1  7957  0.77
      L1  H    21    44       P1 10175  1.00
      P1  H  7997  8010       L1    11  0.98

> <Gold.PLP.Chemscore.Internal.Correction>
0.0653

> <Gold.Rescore>
     Score         DG    S(hbond)    S(metal)    S(lipo)     H(rot)  DE(clash)    DE(int)     intcor
     16.62     -17.08       2.74        0.00      93.46       3.32       0.08       0.38       ----

> <Gold.Chemscore.Fitness>
16.6185

> <Gold.Chemscore.DG>
-17.0796

> <Gold.Chemscore.ZeroCoef>
-5.4800

> <Gold.Chemscore.Hbond>
2.7414

> <Gold.Chemscore.Metal>
0.0000

> <Gold.Chemscore.Lipo>
93.4639

> <Gold.Chemscore.Internal_Hbond>
0.0000

> <Gold.Chemscore.DEClash>
0.0773

> <Gold.Chemscore.DEInternal>
0.3837

> <Gold.Chemscore.Rot>
3.3172

> <Gold.Chemscore.Internal.Correction>
   9.000000E+99

> <Gold.Chemscore.Hbonds>
donor molecule, donor type, donor heavy atom, donor atom, acceptor molecule, acceptor atom, score
      L1  H    19    42       P1  7957  0.72
      L1  H    21    44       P1 10175  0.90
      P1  H  7997  8010       L1    11  0.75

> <Gold.Chemscore.Hbond.Weighted>
-9.1563

> <Gold.Chemscore.Metal.Weighted>
-0.0000

> <Gold.Chemscore.Lipo.Weighted>
-10.9353

> <Gold.Chemscore.Internal_Hbond.Weighted>
0.0000

> <Gold.Chemscore.DEClash.Weighted>
0.0773

> <Gold.Chemscore.DEInternal.Weighted>
0.3837

> <Gold.Chemscore.Rot.Weighted>
8.4920

> <Gold.Chemscore.Internal.Correction.Weighted>
   9.000000E+99

> <Gold.Protein.RotatedTorsions>
[ 6907 6896 6895 6894 ] final  161.64 input  -60.11 | X-H torsion
[ 7974 7965 7964 7962 ] final  -31.43 input  175.53 | X-H torsion
[ 8008 7997 7996 7995 ] final   57.23 input   59.86 | X-H torsion
[ 10167 10162 10161 10158 ] final   48.95 input  -65.29 | X-H torsion
[ 10718 10713 10712 10709 ] final   91.65 input   66.30 | X-H torsion
[ 10763 10752 10751 10750 ] final  133.50 input  -60.55 | X-H torsion
[ 11005 11000 10999 10996 ] final  163.47 input  -57.11 | X-H torsion

> <Gold.Protein.ActiveResidues>
 VAL166  LYS551  ARG553  GLY616  TRP617  ASP618  TYR619  PRO620  LYS621  CYS622 
 ASP623  PHE694  ASN695  SER759  ASP760  ASP761  ALA762  ILE779  LEU786  VAL792 
 PHE793  MET794  SER795  GLU796  ALA797  LYS798  CYS799  TRP800  GLU811  SER814 

> <Gold.Protein.RotatedAtoms>
  151.9525  133.3670  159.4004 H   0  0  0  0  0  0  0  0  0  0  0  0  # atno 6907 bound_to 6896
  150.6978  134.4325  159.5264 H   0  0  0  0  0  0  0  0  0  0  0  0  # atno 6908 bound_to 6896
  152.2001  134.8596  160.0559 H   0  0  0  0  0  0  0  0  0  0  0  0  # atno 6909 bound_to 6896
  146.1068  140.5666  142.8796 H   0  0  0  0  0  0  0  0  0  0  0  0  # atno 7974 bound_to 7965
  155.5304  140.3482  155.4425 H   0  0  0  0  0  0  0  0  0  0  0  0  # atno 8008 bound_to 7997
  156.0722  140.1366  156.9841 H   0  0  0  0  0  0  0  0  0  0  0  0  # atno 8009 bound_to 7997
  154.4534  140.0963  156.6661 H   0  0  0  0  0  0  0  0  0  0  0  0  # atno 8010 bound_to 7997
  140.2880  144.3079  150.6247 H   0  0  0  0  0  0  0  0  0  0  0  0  # atno 10167 bound_to 10162
  157.6960  131.0415  150.3762 H   0  0  0  0  0  0  0  0  0  0  0  0  # atno 10718 bound_to 10713
  153.8081  135.3132  155.3398 H   0  0  0  0  0  0  0  0  0  0  0  0  # atno 10763 bound_to 10752
  154.8062  135.4696  154.0402 H   0  0  0  0  0  0  0  0  0  0  0  0  # atno 10764 bound_to 10752
  153.1771  135.6887  153.8616 H   0  0  0  0  0  0  0  0  0  0  0  0  # atno 10765 bound_to 10752
  140.2361  134.8086  157.3365 H   0  0  0  0  0  0  0  0  0  0  0  0  # atno 11005 bound_to 11000
  144.7477  140.5111  143.6824 LP  0  0  0  0  0  0  0  0  0  0  0  0  # atno 17320 bound_to 7965
  145.5745  139.1485  143.3270 LP  0  0  0  0  0  0  0  0  0  0  0  0  # atno 17321 bound_to 7965
  140.5756  143.2177  151.7521 LP  0  0  0  0  0  0  0  0  0  0  0  0  # atno 17342 bound_to 10162
  139.4945  144.4154  152.0036 LP  0  0  0  0  0  0  0  0  0  0  0  0  # atno 17343 bound_to 10162
  156.4181  130.3947  149.6844 LP  0  0  0  0  0  0  0  0  0  0  0  0  # atno 17370 bound_to 10713
  156.4105  130.7719  151.2732 LP  0  0  0  0  0  0  0  0  0  0  0  0  # atno 17371 bound_to 10713
  140.1700  134.4620  155.7838 LP  0  0  0  0  0  0  0  0  0  0  0  0  # atno 17394 bound_to 11000
  141.2214  133.6937  156.7691 LP  0  0  0  0  0  0  0  0  0  0  0  0  # atno 17395 bound_to 11000

$$$$
