AV-unprocessed.smi:862|AV-procd|sdf|3981|dock2
  -GOLD-   22720 1453D 1   1.00000     0.00000
 Structure written by MMmdl.
 45 47  0  0  0  0  0  0  0  0  3 V2000
  150.0345  139.0111  154.7826 N   0  0  0  0  0  0  0  0  0  0  0  0
  149.2398  139.9851  154.3286 C   0  0  0  0  0  0  0  0  0  0  0  0
  149.6957  141.0876  154.0310 O   0  0  0  0  0  0  0  0  0  0  0  0
  147.9341  139.6458  154.1828 N   0  0  0  0  0  0  0  0  0  0  0  0
  147.0072  140.1814  153.1725 C   0  0  0  0  0  0  0  0  0  0  0  0
  146.8020  139.1176  152.0786 C   0  0  0  0  0  0  0  0  0  0  0  0
  146.2805  137.7926  152.6746 C   0  0  0  0  0  0  0  0  0  0  0  0
  146.2182  136.7587  151.6161 N   0  3  0  0  0  0  0  0  0  0  0  0
  145.0302  135.8708  151.6332 C   0  0  1  0  0  0  0  0  0  0  0  0
  144.7682  135.1597  150.3009 C   0  0  0  0  0  0  0  0  0  0  0  0
  143.9142  133.9370  150.6632 C   0  0  0  0  0  0  0  0  0  0  0  0
  144.0636  133.7257  152.1803 C   0  0  0  0  0  0  0  0  0  0  0  0
  145.1217  134.7310  152.6661 C   0  0  1  0  0  0  0  0  0  0  0  0
  146.4635  134.1176  152.7683 N   0  0  0  0  0  0  0  0  0  0  0  0
  147.3391  134.1381  153.8281 C   0  0  0  0  0  0  0  0  0  0  0  0
  148.4400  133.4162  153.4460 C   0  0  0  0  0  0  0  0  0  0  0  0
  148.1934  132.9794  152.1732 N   0  3  0  0  0  0  0  0  0  0  0  0
  146.9932  133.4029  151.7646 C   0  0  0  0  0  0  0  0  0  0  0  0
  147.1597  137.3434  153.8653 C   0  0  0  0  0  0  0  0  0  0  0  0
  147.3539  138.4891  154.8751 C   0  0  0  0  0  0  0  0  0  0  0  0
  151.0211  139.1888  154.9041 H   0  0  0  0  0  0  0  0  0  0  0  0
  149.6518  138.1006  154.9908 H   0  0  0  0  0  0  0  0  0  0  0  0
  146.0542  140.4160  153.6490 H   0  0  0  0  0  0  0  0  0  0  0  0
  147.3408  141.1148  152.7192 H   0  0  0  0  0  0  0  0  0  0  0  0
  146.1037  139.4900  151.3282 H   0  0  0  0  0  0  0  0  0  0  0  0
  147.7486  138.9474  151.5629 H   0  0  0  0  0  0  0  0  0  0  0  0
  145.2706  137.9804  153.0410 H   0  0  0  0  0  0  0  0  0  0  0  0
  146.2347  137.2285  150.7223 H   0  0  0  0  0  0  0  0  0  0  0  0
  144.1491  136.4611  151.8864 H   0  0  0  0  0  0  0  0  0  0  0  0
  144.2683  135.8035  149.5762 H   0  0  0  0  0  0  0  0  0  0  0  0
  145.7076  134.8342  149.8524 H   0  0  0  0  0  0  0  0  0  0  0  0
  142.8670  134.1120  150.4131 H   0  0  0  0  0  0  0  0  0  0  0  0
  144.2361  133.0587  150.1024 H   0  0  0  0  0  0  0  0  0  0  0  0
  143.1106  133.9446  152.6640 H   0  0  0  0  0  0  0  0  0  0  0  0
  144.3118  132.6936  152.4321 H   0  0  0  0  0  0  0  0  0  0  0  0
  144.8577  135.0976  153.6599 H   0  0  0  0  0  0  0  0  0  0  0  0
  147.1299  134.6561  154.7527 H   0  0  0  0  0  0  0  0  0  0  0  0
  149.3569  133.1879  153.9703 H   0  0  0  0  0  0  0  0  0  0  0  0
  146.5441  133.2078  150.8067 H   0  0  0  0  0  0  0  0  0  0  0  0
  146.7123  136.4915  154.3768 H   0  0  0  0  0  0  0  0  0  0  0  0
  148.1345  137.0120  153.5040 H   0  0  0  0  0  0  0  0  0  0  0  0
  147.9679  138.1508  155.7112 H   0  0  0  0  0  0  0  0  0  0  0  0
  146.3950  138.7727  155.3111 H   0  0  0  0  0  0  0  0  0  0  0  0
  147.0492  136.1901  151.6936 H   0  0  0  0  0  0  0  0  0  0  0  0
  148.8303  132.4225  151.6165 H   0  0  0  0  0  0  0  0  0  0  0  0
  1  2  1  0  0  0  0
  1 21  1  0  0  0  0
  1 22  1  0  0  0  0
  2  3  2  0  0  0  0
  2  4  1  0  0  0  0
  4 20  1  0  0  0  0
  4  5  1  0  0  0  0
  5  6  1  0  0  0  0
  5 23  1  0  0  0  0
  5 24  1  0  0  0  0
  6  7  1  0  0  0  0
  6 25  1  0  0  0  0
  6 26  1  0  0  0  0
  7  8  1  0  0  0  0
  7 19  1  0  0  0  0
  7 27  1  0  0  0  0
  8  9  1  0  0  0  0
  8 28  1  0  0  0  0
  8 44  1  0  0  0  0
  9 13  1  0  0  0  0
  9 10  1  0  0  0  0
  9 29  1  0  0  0  0
 10 11  1  0  0  0  0
 10 30  1  0  0  0  0
 10 31  1  0  0  0  0
 11 12  1  0  0  0  0
 11 32  1  0  0  0  0
 11 33  1  0  0  0  0
 12 13  1  0  0  0  0
 12 34  1  0  0  0  0
 12 35  1  0  0  0  0
 13 14  1  0  0  0  0
 13 36  1  0  0  0  0
 14 18  1  0  0  0  0
 14 15  1  0  0  0  0
 15 16  2  0  0  0  0
 15 37  1  0  0  0  0
 16 17  1  0  0  0  0
 16 38  1  0  0  0  0
 17 18  2  0  0  0  0
 17 45  1  0  0  0  0
 18 39  1  0  0  0  0
 19 20  1  0  0  0  0
 19 40  1  0  0  0  0
 19 41  1  0  0  0  0
 20 42  1  0  0  0  0
 20 43  1  0  0  0  0
M  CHG  1   8   1
M  CHG  1  17   1
M  END
> <s_m_source_file>
AV-unprocessed.smi

> <i_m_source_file_index>
862

> <i_lp_mmshare_version>
43012

> <i_f3d_flags>
0

> <s_epik_input>
W05IMl1DKD1PKU4xW0NIMl1bQ0gyXVtDSF0oW0NIMl1bQ0gyXTEpW05IXVtDQEBIXTJbQ0gyXVtDSDJdW0NIMl1bQ0BIXTJuM1tjSF1bY0hdbltjSF0z

> <s_epik_cmdline>
J2VwaWtfcHl0aG9uJywgJy1waCcsICc3LjAnLCAnLXRuJywgJzgnLCAnLW1hJywgJzIwMCcsICctbWV0YWxfYmluZGluZycsICctaW1hZScsICc8aW5maWxlLm1hZT4nLCAnLW9tYWUnLCAnPG91dGZpbGUubWFlPic=

> <r_lp_tautomer_probability>
1

> <r_epik_Ionization_Penalty>
1.30217

> <r_epik_Ionization_Penalty_Charging>
0.00439521

> <r_epik_Ionization_Penalty_Neutral>
1.29777

> <r_epik_State_Penalty>
0.977606

> <r_epik_Charging_Adjusted_Penalty>
0.982001

> <i_epik_Tot_Q>
2

> <i_epik_Tot_abs_Q>
2

> <r_epik_Metal_State_Penalty>
1.03289

> <b_epik_Metal_Only>
0

> <s_lp_Force_Field>
OPLS_2005

> <r_lp_Energy>
67.0187

> <b_lp_Chiralities_Consistent>
1

> <s_lp_Variant>
AV-unprocessed.smi:862-6

> <Gold.Version>
5.8.1

> <Gold.Id.Protein>
6NUR|6NUR_protein|mol2

> <Gold.PLP.Fitness>
38.3001

> <Gold.PLP.PLP>
-30.1031

> <Gold.PLP.part.hbond>
-4.1923

> <Gold.PLP.part.metal>
0.0000

> <Gold.PLP.part.buried>
3.9030

> <Gold.PLP.part.nonpolar>
-29.1386

> <Gold.PLP.part.repulsive>
0.6067

> <Gold.PLP.ligand.clash>
0.6320

> <Gold.PLP.ligand.torsion>
1.1367

> <Gold.PLP.Chemscore.Hbond>
3.6639

> <Gold.PLP.Chemscore.CHOScore>
0.0000

> <Gold.PLP.Chemscore.Metal>
0.0000

> <Gold.Chemscore.Hbonds>
donor molecule, donor type, donor heavy atom, donor atom, acceptor molecule, acceptor atom, score
      L1  H     8    44       P1  7948  1.79
      L1  H    17    45       P1 10747  0.89
      P1  H  7989  7998       L1     3  0.42
      P1  H  8011  8017       L1     3  0.56

> <Gold.PLP.Chemscore.Internal.Correction>
0.1106

> <Gold.Rescore>
     Score         DG    S(hbond)    S(metal)    S(lipo)     H(rot)  DE(clash)    DE(int)     intcor
     15.24     -16.72       2.66        0.00      56.91       1.68       0.34       1.14       ----

> <Gold.Chemscore.Fitness>
15.2409

> <Gold.Chemscore.DG>
-16.7213

> <Gold.Chemscore.ZeroCoef>
-5.4800

> <Gold.Chemscore.Hbond>
2.6608

> <Gold.Chemscore.Metal>
0.0000

> <Gold.Chemscore.Lipo>
56.9107

> <Gold.Chemscore.Internal_Hbond>
0.0000

> <Gold.Chemscore.DEClash>
0.3389

> <Gold.Chemscore.DEInternal>
1.1415

> <Gold.Chemscore.Rot>
1.6814

> <Gold.Chemscore.Internal.Correction>
   9.000000E+99

> <Gold.Chemscore.Hbonds>
donor molecule, donor type, donor heavy atom, donor atom, acceptor molecule, acceptor atom, score
      L1  H     8    44       P1  7948  0.88
      L1  H    17    45       P1 10747  0.80
      P1  H  7989  7998       L1     3  0.30
      P1  H  8011  8017       L1     3  0.56

> <Gold.Chemscore.Hbond.Weighted>
-8.8871

> <Gold.Chemscore.Metal.Weighted>
-0.0000

> <Gold.Chemscore.Lipo.Weighted>
-6.6585

> <Gold.Chemscore.Internal_Hbond.Weighted>
0.0000

> <Gold.Chemscore.DEClash.Weighted>
0.3389

> <Gold.Chemscore.DEInternal.Weighted>
1.1415

> <Gold.Chemscore.Rot.Weighted>
4.3043

> <Gold.Chemscore.Internal.Correction.Weighted>
   9.000000E+99

> <Gold.Protein.RotatedTorsions>
[ 6907 6896 6895 6894 ] final   69.41 input  -60.11 | X-H torsion
[ 7974 7965 7964 7962 ] final  -15.80 input  175.53 | X-H torsion
[ 8008 7997 7996 7995 ] final   71.18 input   59.86 | X-H torsion
[ 10167 10162 10161 10158 ] final   61.81 input  -65.29 | X-H torsion
[ 10718 10713 10712 10709 ] final   -1.47 input   66.30 | X-H torsion
[ 10763 10752 10751 10750 ] final  154.34 input  -60.55 | X-H torsion
[ 11005 11000 10999 10996 ] final -106.23 input  -57.11 | X-H torsion

> <Gold.Protein.ActiveResidues>
 VAL166  LYS551  ARG553  GLY616  TRP617  ASP618  TYR619  PRO620  LYS621  CYS622 
 ASP623  PHE694  ASN695  SER759  ASP760  ASP761  ALA762  ILE779  LEU786  VAL792 
 PHE793  MET794  SER795  GLU796  ALA797  LYS798  CYS799  TRP800  GLU811  SER814 

> <Gold.Protein.RotatedAtoms>
  152.4684  134.5019  159.9727 H   0  0  0  0  0  0  0  0  0  0  0  0  # atno 6907 bound_to 6896
  151.5052  133.3490  159.2883 H   0  0  0  0  0  0  0  0  0  0  0  0  # atno 6908 bound_to 6896
  150.8681  134.8077  159.7196 H   0  0  0  0  0  0  0  0  0  0  0  0  # atno 6909 bound_to 6896
  146.2016  140.3545  142.8421 H   0  0  0  0  0  0  0  0  0  0  0  0  # atno 7974 bound_to 7965
  155.7500  140.3489  155.5146 H   0  0  0  0  0  0  0  0  0  0  0  0  # atno 8008 bound_to 7997
  155.9013  140.1034  157.1368 H   0  0  0  0  0  0  0  0  0  0  0  0  # atno 8009 bound_to 7997
  154.4044  140.1285  156.4427 H   0  0  0  0  0  0  0  0  0  0  0  0  # atno 8010 bound_to 7997
  140.1508  144.4465  150.6760 H   0  0  0  0  0  0  0  0  0  0  0  0  # atno 10167 bound_to 10162
  156.8052  130.5406  149.5716 H   0  0  0  0  0  0  0  0  0  0  0  0  # atno 10718 bound_to 10713
  154.1508  135.2815  155.3136 H   0  0  0  0  0  0  0  0  0  0  0  0  # atno 10763 bound_to 10752
  154.6219  135.5464  153.7587 H   0  0  0  0  0  0  0  0  0  0  0  0  # atno 10764 bound_to 10752
  153.0221  135.6441  154.1652 H   0  0  0  0  0  0  0  0  0  0  0  0  # atno 10765 bound_to 10752
  141.1015  133.8875  157.1830 H   0  0  0  0  0  0  0  0  0  0  0  0  # atno 11005 bound_to 11000
  144.8696  140.7254  143.6055 LP  0  0  0  0  0  0  0  0  0  0  0  0  # atno 17320 bound_to 7965
  145.3464  139.1718  143.4458 LP  0  0  0  0  0  0  0  0  0  0  0  0  # atno 17321 bound_to 7965
  140.6704  143.2283  151.5640 LP  0  0  0  0  0  0  0  0  0  0  0  0  # atno 17342 bound_to 10162
  139.5427  144.2604  152.1382 LP  0  0  0  0  0  0  0  0  0  0  0  0  # atno 17343 bound_to 10162
  156.1077  130.6017  150.9998 LP  0  0  0  0  0  0  0  0  0  0  0  0  # atno 17370 bound_to 10713
  157.6534  131.0893  150.8001 LP  0  0  0  0  0  0  0  0  0  0  0  0  # atno 17371 bound_to 10713
  139.9868  135.0079  156.9882 LP  0  0  0  0  0  0  0  0  0  0  0  0  # atno 17394 bound_to 11000
  140.5010  134.1097  155.7250 LP  0  0  0  0  0  0  0  0  0  0  0  0  # atno 17395 bound_to 11000

$$$$
