AV-unprocessed.smi:165|AV-procd|sdf|1386|dock3
  -GOLD-   2262019123D 1   1.00000     0.00000
 Structure written by MMmdl.
 55 59  0  0  0  0  0  0  0  0  1 V2000
  145.7466  130.2436  151.9475 O   0  0  0  0  0  0  0  0  0  0  0  0
  145.5377  131.2286  150.9547 C   0  0  0  0  0  0  0  0  0  0  0  0
  144.5922  132.3528  151.4180 C   0  0  0  0  0  0  0  0  0  0  0  0
  143.2092  131.6826  151.5587 C   0  0  0  0  0  0  0  0  0  0  0  0
  142.5149  131.5633  150.3333 O   0  0  0  0  0  0  0  0  0  0  0  0
  145.0692  133.1945  152.6236 C   0  0  0  0  0  0  0  0  0  0  0  0
  144.6543  134.4819  151.9018 C   0  0  0  0  0  0  0  0  0  0  0  0
  145.4399  135.6765  152.0152 N   0  0  0  0  0  0  0  0  0  0  0  0
  145.3816  136.7823  151.1972 C   0  0  0  0  0  0  0  0  0  0  0  0
  146.1735  137.7645  151.5306 N   0  0  0  0  0  0  0  0  0  0  0  0
  146.7941  137.3211  152.6925 C   0  0  0  0  0  0  0  0  0  0  0  0
  147.7572  137.8824  153.5779 C   0  0  0  0  0  0  0  0  0  0  0  0
  148.2854  139.1191  153.3962 N   0  0  0  0  0  0  0  0  0  0  0  0
  149.5084  139.1592  152.6054 C   0  0  0  0  0  0  0  0  0  0  0  0
  150.1991  140.5183  152.7821 C   0  0  0  0  0  0  0  0  0  0  0  0
  149.2888  141.5728  152.4754 O   0  0  0  0  0  0  0  0  0  0  0  0
  148.0848  141.5888  153.2515 C   0  0  2  0  0  0  0  0  0  0  0  0
  147.2394  142.7243  152.6412 C   0  0  0  0  0  0  0  0  0  0  0  0
  146.0221  143.0520  153.5135 C   0  0  0  0  0  0  0  0  0  0  0  0
  146.4651  143.3243  154.9569 C   0  0  0  0  0  0  0  0  0  0  0  0
  147.1849  142.2037  155.4546 O   0  0  0  0  0  0  0  0  0  0  0  0
  148.3849  141.9364  154.7340 C   0  0  0  0  0  0  0  0  0  0  0  0
  147.3746  140.2213  153.0983 C   0  0  0  0  0  0  0  0  0  0  0  0
  148.1448  137.1267  154.6403 N   0  0  0  0  0  0  0  0  0  0  0  0
  147.6207  135.9127  154.8322 C   0  0  0  0  0  0  0  0  0  0  0  0
  146.7166  135.2678  154.0932 N   0  0  0  0  0  0  0  0  0  0  0  0
  146.3337  136.0134  153.0174 C   0  0  0  0  0  0  0  0  0  0  0  0
  144.6357  133.6661  150.6031 C   0  0  0  0  0  0  0  0  0  0  0  0
  145.0076  130.2476  152.5365 H   0  0  0  0  0  0  0  0  0  0  0  0
  146.5125  131.6310  150.6766 H   0  0  0  0  0  0  0  0  0  0  0  0
  145.1405  130.7288  150.0706 H   0  0  0  0  0  0  0  0  0  0  0  0
  143.3069  130.6817  151.9805 H   0  0  0  0  0  0  0  0  0  0  0  0
  142.5746  132.2482  152.2418 H   0  0  0  0  0  0  0  0  0  0  0  0
  141.7949  132.1753  150.3344 H   0  0  0  0  0  0  0  0  0  0  0  0
  144.5282  133.0107  153.5524 H   0  0  0  0  0  0  0  0  0  0  0  0
  146.1458  133.1467  152.7927 H   0  0  0  0  0  0  0  0  0  0  0  0
  143.6415  134.7684  152.1864 H   0  0  0  0  0  0  0  0  0  0  0  0
  144.7360  136.8368  150.3328 H   0  0  0  0  0  0  0  0  0  0  0  0
  150.1965  138.3619  152.8840 H   0  0  0  0  0  0  0  0  0  0  0  0
  149.2541  139.0052  151.5559 H   0  0  0  0  0  0  0  0  0  0  0  0
  150.5918  140.6271  153.7930 H   0  0  0  0  0  0  0  0  0  0  0  0
  151.0544  140.5903  152.1102 H   0  0  0  0  0  0  0  0  0  0  0  0
  147.8534  143.6217  152.5505 H   0  0  0  0  0  0  0  0  0  0  0  0
  146.9230  142.4702  151.6290 H   0  0  0  0  0  0  0  0  0  0  0  0
  145.4960  143.9183  153.1121 H   0  0  0  0  0  0  0  0  0  0  0  0
  145.3141  142.2231  153.4958 H   0  0  0  0  0  0  0  0  0  0  0  0
  147.0826  144.2220  155.0138 H   0  0  0  0  0  0  0  0  0  0  0  0
  145.5948  143.4947  155.5908 H   0  0  0  0  0  0  0  0  0  0  0  0
  148.8997  141.1185  155.2374 H   0  0  0  0  0  0  0  0  0  0  0  0
  149.0428  142.8046  154.7973 H   0  0  0  0  0  0  0  0  0  0  0  0
  147.0090  140.1046  152.0770 H   0  0  0  0  0  0  0  0  0  0  0  0
  146.5063  140.1745  153.7571 H   0  0  0  0  0  0  0  0  0  0  0  0
  147.9786  135.3809  155.7014 H   0  0  0  0  0  0  0  0  0  0  0  0
  145.5517  133.7881  150.0239 H   0  0  0  0  0  0  0  0  0  0  0  0
  143.7607  133.8448  149.9778 H   0  0  0  0  0  0  0  0  0  0  0  0
  1  2  1  0  0  0  0
  1 29  1  0  0  0  0
  2  3  1  0  0  0  0
  2 30  1  0  0  0  0
  2 31  1  0  0  0  0
  3 28  1  0  0  0  0
  3  4  1  0  0  0  0
  3  6  1  0  0  0  0
  4  5  1  0  0  0  0
  4 32  1  0  0  0  0
  4 33  1  0  0  0  0
  5 34  1  0  0  0  0
  6  7  1  0  0  0  0
  6 35  1  0  0  0  0
  6 36  1  0  0  0  0
  7  8  1  0  0  0  0
  7 28  1  0  0  0  0
  7 37  1  0  0  0  0
  8 27  1  0  0  0  0
  8  9  1  0  0  0  0
  9 10  2  0  0  0  0
  9 38  1  0  0  0  0
 10 11  1  0  0  0  0
 11 27  2  0  0  0  0
 11 12  1  0  0  0  0
 12 13  1  0  0  0  0
 12 24  2  0  0  0  0
 13 23  1  0  0  0  0
 13 14  1  0  0  0  0
 14 15  1  0  0  0  0
 14 39  1  0  0  0  0
 14 40  1  0  0  0  0
 15 16  1  0  0  0  0
 15 41  1  0  0  0  0
 15 42  1  0  0  0  0
 16 17  1  0  0  0  0
 17 22  1  0  0  0  0
 17 18  1  0  0  0  0
 17 23  1  0  0  0  0
 18 19  1  0  0  0  0
 18 43  1  0  0  0  0
 18 44  1  0  0  0  0
 19 20  1  0  0  0  0
 19 45  1  0  0  0  0
 19 46  1  0  0  0  0
 20 21  1  0  0  0  0
 20 47  1  0  0  0  0
 20 48  1  0  0  0  0
 21 22  1  0  0  0  0
 22 49  1  0  0  0  0
 22 50  1  0  0  0  0
 23 51  1  0  0  0  0
 23 52  1  0  0  0  0
 24 25  1  0  0  0  0
 25 26  2  0  0  0  0
 25 53  1  0  0  0  0
 26 27  1  0  0  0  0
 28 54  1  0  0  0  0
 28 55  1  0  0  0  0
M  END
> <s_m_source_file>
AV-unprocessed.smi

> <i_m_source_file_index>
165

> <i_lp_mmshare_version>
43012

> <i_f3d_flags>
0

> <s_epik_input>
W09IXVtDSDJdQzEoW0NIMl1bT0hdKVtDSDJdW0NIXShbQ0gyXTEpbihbY0hdbjIpYyhjMjMpbltjSF1uYzNOKFtDSDJdNClbQ0gyXVtDSDJdT1tDQEBdNDVbQ0gyXVtDSDJdW0NIMl1PW0NIMl01

> <s_epik_cmdline>
J2VwaWtfcHl0aG9uJywgJy1waCcsICc3LjAnLCAnLXRuJywgJzgnLCAnLW1hJywgJzIwMCcsICctbWV0YWxfYmluZGluZycsICctaW1hZScsICc8aW5maWxlLm1hZT4nLCAnLW9tYWUnLCAnPG91dGZpbGUubWFlPic=

> <r_lp_tautomer_probability>
1

> <r_epik_Ionization_Penalty>
0.00466923

> <r_epik_Ionization_Penalty_Charging>
0

> <r_epik_Ionization_Penalty_Neutral>
0.00466923

> <r_epik_State_Penalty>
0.0032353

> <r_epik_Charging_Adjusted_Penalty>
0.0032353

> <i_epik_Tot_Q>
0

> <i_epik_Tot_abs_Q>
0

> <r_epik_Metal_State_Penalty>
-0

> <b_epik_Metal_Only>
0

> <s_lp_Force_Field>
OPLS_2005

> <r_lp_Energy>
54.9184

> <b_lp_Chiralities_Consistent>
1

> <s_lp_Variant>
AV-unprocessed.smi:165-1

> <Gold.Version>
5.8.1

> <Gold.Id.Protein>
6NUR|6NUR_protein|mol2

> <Gold.PLP.Fitness>
44.4336

> <Gold.PLP.PLP>
-36.9326

> <Gold.PLP.part.hbond>
-4.6279

> <Gold.PLP.part.metal>
0.0000

> <Gold.PLP.part.buried>
1.2740

> <Gold.PLP.part.nonpolar>
-34.3675

> <Gold.PLP.part.repulsive>
0.8821

> <Gold.PLP.ligand.clash>
0.0000

> <Gold.PLP.ligand.torsion>
1.2928

> <Gold.PLP.Chemscore.Hbond>
2.2384

> <Gold.PLP.Chemscore.CHOScore>
0.8889

> <Gold.PLP.Chemscore.Metal>
0.0000

> <Gold.Chemscore.Hbonds>
donor molecule, donor type, donor heavy atom, donor atom, acceptor molecule, acceptor atom, score
      P1  H 10785 10796       L1     5  0.50
      L1  C     9    38       P1 10171  0.79

> <Gold.PLP.Chemscore.Internal.Correction>
0.7048

> <Gold.Rescore>
     Score         DG    S(hbond)    S(metal)    S(lipo)     H(rot)  DE(clash)    DE(int)     intcor
     10.11     -13.97       1.82        0.00      89.27       3.14       1.27       2.59       ----

> <Gold.Chemscore.Fitness>
10.1076

> <Gold.Chemscore.DG>
-13.9723

> <Gold.Chemscore.ZeroCoef>
-5.4800

> <Gold.Chemscore.Hbond>
1.8186

> <Gold.Chemscore.Metal>
0.0000

> <Gold.Chemscore.Lipo>
89.2666

> <Gold.Chemscore.Internal_Hbond>
0.0000

> <Gold.Chemscore.DEClash>
1.2709

> <Gold.Chemscore.DEInternal>
2.5939

> <Gold.Chemscore.Rot>
3.1351

> <Gold.Chemscore.Internal.Correction>
   9.000000E+99

> <Gold.Chemscore.Hbonds>
donor molecule, donor type, donor heavy atom, donor atom, acceptor molecule, acceptor atom, score
      L1  H     5    34       P1 10186  0.02
      P1  H 10785 10796       L1     5  0.49

> <Gold.Chemscore.Hbond.Weighted>
-6.0741

> <Gold.Chemscore.Metal.Weighted>
-0.0000

> <Gold.Chemscore.Lipo.Weighted>
-10.4442

> <Gold.Chemscore.Internal_Hbond.Weighted>
0.0000

> <Gold.Chemscore.DEClash.Weighted>
1.2709

> <Gold.Chemscore.DEInternal.Weighted>
2.5939

> <Gold.Chemscore.Rot.Weighted>
8.0260

> <Gold.Chemscore.Internal.Correction.Weighted>
   9.000000E+99

> <Gold.Protein.RotatedTorsions>
[ 6907 6896 6895 6894 ] final    0.81 input  -60.11 | X-H torsion
[ 7974 7965 7964 7962 ] final  -22.86 input  175.53 | X-H torsion
[ 8008 7997 7996 7995 ] final -170.55 input   59.86 | X-H torsion
[ 10167 10162 10161 10158 ] final -117.02 input  -65.29 | X-H torsion
[ 10718 10713 10712 10709 ] final   56.45 input   66.30 | X-H torsion
[ 10763 10752 10751 10750 ] final -161.23 input  -60.55 | X-H torsion
[ 11005 11000 10999 10996 ] final  106.93 input  -57.11 | X-H torsion

> <Gold.Protein.ActiveResidues>
 VAL166  LYS551  ARG553  GLY616  TRP617  ASP618  TYR619  PRO620  LYS621  CYS622 
 ASP623  PHE694  ASN695  SER759  ASP760  ASP761  ALA762  ILE779  LEU786  VAL792 
 PHE793  MET794  SER795  GLU796  ALA797  LYS798  CYS799  TRP800  GLU811  SER814 

> <Gold.Protein.RotatedAtoms>
  151.5825  135.1058  160.0020 H   0  0  0  0  0  0  0  0  0  0  0  0  # atno 6907 bound_to 6896
  152.4347  133.7335  159.6611 H   0  0  0  0  0  0  0  0  0  0  0  0  # atno 6908 bound_to 6896
  150.8243  133.8128  159.3148 H   0  0  0  0  0  0  0  0  0  0  0  0  # atno 6909 bound_to 6896
  146.1651  140.4536  142.8555 H   0  0  0  0  0  0  0  0  0  0  0  0  # atno 7974 bound_to 7965
  155.9199  140.1072  157.1215 H   0  0  0  0  0  0  0  0  0  0  0  0  # atno 8008 bound_to 7997
  154.4052  140.1258  156.4730 H   0  0  0  0  0  0  0  0  0  0  0  0  # atno 8009 bound_to 7997
  155.7209  140.3470  155.5018 H   0  0  0  0  0  0  0  0  0  0  0  0  # atno 8010 bound_to 7997
  140.0729  143.4860  152.1969 H   0  0  0  0  0  0  0  0  0  0  0  0  # atno 10167 bound_to 10162
  157.5432  130.8712  149.8852 H   0  0  0  0  0  0  0  0  0  0  0  0  # atno 10718 bound_to 10713
  154.7322  135.3049  154.8872 H   0  0  0  0  0  0  0  0  0  0  0  0  # atno 10763 bound_to 10752
  153.9712  135.6741  153.4751 H   0  0  0  0  0  0  0  0  0  0  0  0  # atno 10764 bound_to 10752
  153.0929  135.4950  154.8645 H   0  0  0  0  0  0  0  0  0  0  0  0  # atno 10765 bound_to 10752
  139.8821  134.9385  156.5742 H   0  0  0  0  0  0  0  0  0  0  0  0  # atno 11005 bound_to 11000
  144.8081  140.6336  143.6433 LP  0  0  0  0  0  0  0  0  0  0  0  0  # atno 17320 bound_to 7965
  145.4488  139.1526  143.3929 LP  0  0  0  0  0  0  0  0  0  0  0  0  # atno 17321 bound_to 7965
  139.5825  144.7517  151.3603 LP  0  0  0  0  0  0  0  0  0  0  0  0  # atno 17342 bound_to 10162
  140.7116  143.7374  150.7578 LP  0  0  0  0  0  0  0  0  0  0  0  0  # atno 17343 bound_to 10162
  156.0514  130.3717  150.1193 LP  0  0  0  0  0  0  0  0  0  0  0  0  # atno 17370 bound_to 10713
  156.9371  130.9732  151.3523 LP  0  0  0  0  0  0  0  0  0  0  0  0  # atno 17371 bound_to 10713
  140.8076  133.8455  155.8781 LP  0  0  0  0  0  0  0  0  0  0  0  0  # atno 17394 bound_to 11000
  140.9536  134.1747  157.4709 LP  0  0  0  0  0  0  0  0  0  0  0  0  # atno 17395 bound_to 11000

$$$$
