AV-unprocessed.smi:1662|AV-procd|sdf|6660|dock3
  -GOLD-   22720 7373D 1   1.00000     0.00000
 Structure written by MMmdl.
 47 48  0  0  0  0  0  0  0  0  1 V2000
  148.7873  141.0813  156.5695 C   0  0  0  0  0  0  0  0  0  0  0  0
  148.9017  139.7513  157.2640 C   0  0  0  0  0  0  0  0  0  0  0  0
  150.0474  139.4685  157.7909 N   0  0  0  0  0  0  0  0  0  0  0  0
  150.2570  138.2793  158.4625 N   0  0  0  0  0  0  0  0  0  0  0  0
  151.5931  138.1643  159.0730 C   0  0  0  0  0  0  0  0  0  0  0  0
  152.5417  139.3307  158.7424 C   0  0  0  0  0  0  0  0  0  0  0  0
  153.1049  139.3624  157.6493 O   0  0  0  0  0  0  0  0  0  0  0  0
  152.7098  140.2770  159.6800 N   0  0  0  0  0  0  0  0  0  0  0  0
  153.5581  141.4616  159.5914 C   0  0  1  0  0  0  0  0  0  0  0  0
  152.8524  142.5739  158.7914 C   0  0  0  0  0  0  0  0  0  0  0  0
  151.6342  143.1296  159.5440 C   0  0  0  0  0  0  0  0  0  0  0  0
  152.0314  143.6229  160.9418 C   0  0  0  0  0  0  0  0  0  0  0  0
  152.7244  142.5239  161.7741 C   0  0  2  0  0  0  0  0  0  0  0  0
  153.0866  143.0745  163.1648 C   0  0  0  0  0  0  0  0  0  0  0  0
  153.9514  141.9483  161.0106 C   0  0  1  0  0  0  0  0  0  0  0  0
  154.6811  140.8391  161.7964 C   0  0  0  0  0  0  0  0  0  0  0  0
  149.3169  137.3035  158.6251 C   0  0  0  0  0  0  0  0  0  0  0  0
  149.5428  136.2631  159.2443 O   0  0  0  0  0  0  0  0  0  0  0  0
  148.0237  137.6278  158.0197 C   0  0  0  0  0  0  0  0  0  0  0  0
  147.0089  136.6363  158.1747 C   0  0  0  0  0  0  0  0  0  0  0  0
  146.1719  135.8471  158.3040 N   0  0  0  0  0  0  0  0  0  0  0  0
  147.8030  138.7965  157.3673 C   0  0  0  0  0  0  0  0  0  0  0  0
  146.4764  139.1849  156.7295 C   0  0  0  0  0  0  0  0  0  0  0  0
  148.4869  140.9521  155.5298 H   0  0  0  0  0  0  0  0  0  0  0  0
  149.7334  141.6247  156.5727 H   0  0  0  0  0  0  0  0  0  0  0  0
  148.0456  141.7107  157.0608 H   0  0  0  0  0  0  0  0  0  0  0  0
  151.5125  138.0735  160.1575 H   0  0  0  0  0  0  0  0  0  0  0  0
  152.0701  137.2399  158.7420 H   0  0  0  0  0  0  0  0  0  0  0  0
  152.2005  140.1617  160.5441 H   0  0  0  0  0  0  0  0  0  0  0  0
  154.4730  141.1894  159.0619 H   0  0  0  0  0  0  0  0  0  0  0  0
  153.5582  143.3840  158.6037 H   0  0  0  0  0  0  0  0  0  0  0  0
  152.5488  142.2048  157.8109 H   0  0  0  0  0  0  0  0  0  0  0  0
  151.1891  143.9461  158.9750 H   0  0  0  0  0  0  0  0  0  0  0  0
  150.8653  142.3606  159.6292 H   0  0  0  0  0  0  0  0  0  0  0  0
  152.6958  144.4828  160.8448 H   0  0  0  0  0  0  0  0  0  0  0  0
  151.1425  143.9802  161.4627 H   0  0  0  0  0  0  0  0  0  0  0  0
  152.0036  141.7186  161.9247 H   0  0  0  0  0  0  0  0  0  0  0  0
  153.8604  143.8399  163.1000 H   0  0  0  0  0  0  0  0  0  0  0  0
  153.4448  142.2895  163.8301 H   0  0  0  0  0  0  0  0  0  0  0  0
  152.2172  143.5232  163.6460 H   0  0  0  0  0  0  0  0  0  0  0  0
  154.6665  142.7619  160.8789 H   0  0  0  0  0  0  0  0  0  0  0  0
  154.0017  140.0395  162.0935 H   0  0  0  0  0  0  0  0  0  0  0  0
  155.1497  141.2285  162.6995 H   0  0  0  0  0  0  0  0  0  0  0  0
  155.4746  140.3931  161.1964 H   0  0  0  0  0  0  0  0  0  0  0  0
  145.7102  138.4235  156.8735 H   0  0  0  0  0  0  0  0  0  0  0  0
  146.5968  139.3295  155.6554 H   0  0  0  0  0  0  0  0  0  0  0  0
  146.1003  140.1126  157.1622 H   0  0  0  0  0  0  0  0  0  0  0  0
  1  2  1  0  0  0  0
  1 24  1  0  0  0  0
  1 25  1  0  0  0  0
  1 26  1  0  0  0  0
  2 22  1  0  0  0  0
  2  3  2  0  0  0  0
  3  4  1  0  0  0  0
  4  5  1  0  0  0  0
  4 17  1  0  0  0  0
  5  6  1  0  0  0  0
  5 27  1  0  0  0  0
  5 28  1  0  0  0  0
  6  7  2  0  0  0  0
  6  8  1  0  0  0  0
  8  9  1  0  0  0  0
  8 29  1  0  0  0  0
  9 15  1  0  0  0  0
  9 10  1  0  0  0  0
  9 30  1  0  0  0  0
 10 11  1  0  0  0  0
 10 31  1  0  0  0  0
 10 32  1  0  0  0  0
 11 12  1  0  0  0  0
 11 33  1  0  0  0  0
 11 34  1  0  0  0  0
 12 13  1  0  0  0  0
 12 35  1  0  0  0  0
 12 36  1  0  0  0  0
 13 14  1  0  0  0  0
 13 15  1  0  0  0  0
 13 37  1  0  0  0  0
 14 38  1  0  0  0  0
 14 39  1  0  0  0  0
 14 40  1  0  0  0  0
 15 16  1  0  0  0  0
 15 41  1  0  0  0  0
 16 42  1  0  0  0  0
 16 43  1  0  0  0  0
 16 44  1  0  0  0  0
 17 18  2  0  0  0  0
 17 19  1  0  0  0  0
 19 20  1  0  0  0  0
 19 22  2  0  0  0  0
 20 21  3  0  0  0  0
 22 23  1  0  0  0  0
 23 45  1  0  0  0  0
 23 46  1  0  0  0  0
 23 47  1  0  0  0  0
M  END
> <s_m_source_file>
AV-unprocessed.smi

> <i_m_source_file_index>
1662

> <i_lp_mmshare_version>
43012

> <i_f3d_flags>
0

> <s_epik_input>
TiNDYyhjMVtDSDNdKWMoPU8pbihuYzFbQ0gzXSlbQ0gyXUMoPU8pW05IXVtDQEBIXTJbQ0gyXVtDSDJdW0NIMl1bQ0BASF0oW0NIM10pW0NASF0yW0NIM10=

> <s_epik_cmdline>
J2VwaWtfcHl0aG9uJywgJy1waCcsICc3LjAnLCAnLXRuJywgJzgnLCAnLW1hJywgJzIwMCcsICctbWV0YWxfYmluZGluZycsICctaW1hZScsICc8aW5maWxlLm1hZT4nLCAnLW9tYWUnLCAnPG91dGZpbGUubWFlPic=

> <r_lp_tautomer_probability>
1

> <r_epik_Ionization_Penalty>
1.90709e-08

> <r_epik_Ionization_Penalty_Charging>
2.37982e-11

> <r_epik_Ionization_Penalty_Neutral>
1.90471e-08

> <r_epik_State_Penalty>
-0

> <r_epik_Charging_Adjusted_Penalty>
2.37982e-11

> <i_epik_Tot_Q>
0

> <i_epik_Tot_abs_Q>
0

> <r_epik_Metal_State_Penalty>
-0

> <b_epik_Metal_Only>
0

> <s_lp_Force_Field>
OPLS_2005

> <r_lp_Energy>
25.169

> <b_lp_Chiralities_Consistent>
1

> <s_lp_Variant>
AV-unprocessed.smi:1662-4

> <Gold.Version>
5.8.1

> <Gold.Id.Protein>
6NUR|6NUR_protein|mol2

> <Gold.PLP.Fitness>
43.0220

> <Gold.PLP.PLP>
-38.1814

> <Gold.PLP.part.hbond>
-2.0000

> <Gold.PLP.part.metal>
0.0000

> <Gold.PLP.part.buried>
-3.6708

> <Gold.PLP.part.nonpolar>
-31.1397

> <Gold.PLP.part.repulsive>
0.1271

> <Gold.PLP.ligand.clash>
0.0000

> <Gold.PLP.ligand.torsion>
0.5859

> <Gold.PLP.Chemscore.Hbond>
2.0000

> <Gold.PLP.Chemscore.CHOScore>
0.0000

> <Gold.PLP.Chemscore.Metal>
0.0000

> <Gold.Chemscore.Hbonds>
donor molecule, donor type, donor heavy atom, donor atom, acceptor molecule, acceptor atom, score
      P1  H  6896  6909       L1    18  1.00
      P1  H  7997  8008       L1     7  1.00

> <Gold.PLP.Chemscore.Internal.Correction>
0.0125

> <Gold.Rescore>
     Score         DG    S(hbond)    S(metal)    S(lipo)     H(rot)  DE(clash)    DE(int)     intcor
     18.89     -19.48       1.99        0.00      94.68       1.45       0.01       0.58       ----

> <Gold.Chemscore.Fitness>
18.8892

> <Gold.Chemscore.DG>
-19.4805

> <Gold.Chemscore.ZeroCoef>
-5.4800

> <Gold.Chemscore.Hbond>
1.9869

> <Gold.Chemscore.Metal>
0.0000

> <Gold.Chemscore.Lipo>
94.6764

> <Gold.Chemscore.Internal_Hbond>
0.0000

> <Gold.Chemscore.DEClash>
0.0106

> <Gold.Chemscore.DEInternal>
0.5807

> <Gold.Chemscore.Rot>
1.4504

> <Gold.Chemscore.Internal.Correction>
   9.000000E+99

> <Gold.Chemscore.Hbonds>
donor molecule, donor type, donor heavy atom, donor atom, acceptor molecule, acceptor atom, score
      P1  H  6896  6909       L1    18  0.98
      P1  H  7997  8008       L1     7  1.00

> <Gold.Chemscore.Hbond.Weighted>
-6.6363

> <Gold.Chemscore.Metal.Weighted>
-0.0000

> <Gold.Chemscore.Lipo.Weighted>
-11.0771

> <Gold.Chemscore.Internal_Hbond.Weighted>
0.0000

> <Gold.Chemscore.DEClash.Weighted>
0.0106

> <Gold.Chemscore.DEInternal.Weighted>
0.5807

> <Gold.Chemscore.Rot.Weighted>
3.7129

> <Gold.Chemscore.Internal.Correction.Weighted>
   9.000000E+99

> <Gold.Protein.RotatedTorsions>
[ 6907 6896 6895 6894 ] final   63.56 input  -60.11 | X-H torsion
[ 7974 7965 7964 7962 ] final   71.74 input  175.53 | X-H torsion
[ 8008 7997 7996 7995 ] final  -73.46 input   59.86 | X-H torsion
[ 10167 10162 10161 10158 ] final -148.34 input  -65.29 | X-H torsion
[ 10718 10713 10712 10709 ] final    2.82 input   66.30 | X-H torsion
[ 10763 10752 10751 10750 ] final -139.06 input  -60.55 | X-H torsion
[ 11005 11000 10999 10996 ] final -140.86 input  -57.11 | X-H torsion

> <Gold.Protein.ActiveResidues>
 VAL166  LYS551  ARG553  GLY616  TRP617  ASP618  TYR619  PRO620  LYS621  CYS622 
 ASP623  PHE694  ASN695  SER759  ASP760  ASP761  ALA762  ILE779  LEU786  VAL792 
 PHE793  MET794  SER795  GLU796  ALA797  LYS798  CYS799  TRP800  GLU811  SER814 

> <Gold.Protein.RotatedAtoms>
  152.4262  134.5863  159.9961 H   0  0  0  0  0  0  0  0  0  0  0  0  # atno 6907 bound_to 6896
  151.5999  133.3352  159.3053 H   0  0  0  0  0  0  0  0  0  0  0  0  # atno 6908 bound_to 6896
  150.8152  134.7367  159.6789 H   0  0  0  0  0  0  0  0  0  0  0  0  # atno 6909 bound_to 6896
  145.7621  139.2805  143.1370 H   0  0  0  0  0  0  0  0  0  0  0  0  # atno 7974 bound_to 7965
  154.5249  140.0779  156.8240 H   0  0  0  0  0  0  0  0  0  0  0  0  # atno 8008 bound_to 7997
  155.3497  140.3412  155.4221 H   0  0  0  0  0  0  0  0  0  0  0  0  # atno 8009 bound_to 7997
  156.1721  140.1623  156.8416 H   0  0  0  0  0  0  0  0  0  0  0  0  # atno 8010 bound_to 7997
  139.7541  143.8475  152.2593 H   0  0  0  0  0  0  0  0  0  0  0  0  # atno 10167 bound_to 10162
  156.8686  130.5612  149.5658 H   0  0  0  0  0  0  0  0  0  0  0  0  # atno 10718 bound_to 10713
  154.8620  135.3593  154.5485 H   0  0  0  0  0  0  0  0  0  0  0  0  # atno 10763 bound_to 10752
  153.6104  135.7009  153.5354 H   0  0  0  0  0  0  0  0  0  0  0  0  # atno 10764 bound_to 10752
  153.3214  135.4150  155.1380 H   0  0  0  0  0  0  0  0  0  0  0  0  # atno 10765 bound_to 10752
  140.8381  134.2435  157.4824 H   0  0  0  0  0  0  0  0  0  0  0  0  # atno 11005 bound_to 11000
  146.0254  140.8309  142.9902 LP  0  0  0  0  0  0  0  0  0  0  0  0  # atno 17320 bound_to 7965
  144.6828  140.2690  143.7308 LP  0  0  0  0  0  0  0  0  0  0  0  0  # atno 17321 bound_to 7965
  139.8461  144.7187  150.9271 LP  0  0  0  0  0  0  0  0  0  0  0  0  # atno 17342 bound_to 10162
  140.7801  143.3940  151.1262 LP  0  0  0  0  0  0  0  0  0  0  0  0  # atno 17343 bound_to 10162
  156.0738  130.5765  150.9435 LP  0  0  0  0  0  0  0  0  0  0  0  0  # atno 17370 bound_to 10713
  157.6209  131.0930  150.8624 LP  0  0  0  0  0  0  0  0  0  0  0  0  # atno 17371 bound_to 10713
  139.8703  134.9621  156.4419 LP  0  0  0  0  0  0  0  0  0  0  0  0  # atno 17394 bound_to 11000
  140.8925  133.7838  155.9587 LP  0  0  0  0  0  0  0  0  0  0  0  0  # atno 17395 bound_to 11000

$$$$
