AV-unprocessed.smi:286|AV-procd|sdf|2176|dock8
  -GOLD-   2262021543D 1   1.00000     0.00000
 Structure written by MMmdl.
 46 48  0  0  0  0  0  0  0  0  1 V2000
  152.4858  139.5979  155.7833 O   0  0  0  0  0  0  0  0  0  0  0  0
  151.3246  139.5862  155.3715 C   0  0  0  0  0  0  0  0  0  0  0  0
  150.7216  138.4325  154.7123 C   0  0  0  0  0  0  0  0  0  0  0  0
  151.4554  137.3254  154.5080 F   0  0  0  0  0  0  0  0  0  0  0  0
  149.4365  138.4579  154.2980 C   0  0  0  0  0  0  0  0  0  0  0  0
  148.6087  139.5546  154.4704 N   0  0  0  0  0  0  0  0  0  0  0  0
  147.1750  139.5364  153.9909 C   0  0  1  0  0  0  0  0  0  0  0  0
  146.9661  140.5967  152.9031 C   0  0  0  0  0  0  0  0  0  0  0  0
  147.1151  139.7818  151.6363 C   0  0  0  0  0  0  0  0  0  0  0  0
  146.5198  138.4449  152.0613 C   0  0  0  0  0  0  0  0  0  0  0  0
  146.8997  138.2868  153.4251 O   0  0  0  0  0  0  0  0  0  0  0  0
  149.1130  140.7234  155.0810 C   0  0  0  0  0  0  0  0  0  0  0  0
  148.3981  141.7168  155.2353 O   0  0  0  0  0  0  0  0  0  0  0  0
  150.4626  140.7025  155.5067 N   0  0  0  0  0  0  0  0  0  0  0  0
  150.9823  141.8922  156.1610 C   0  0  0  0  0  0  0  0  0  0  0  0
  150.1298  142.3505  157.3673 C   0  0  1  0  0  0  0  0  0  0  0  0
  149.8485  141.2298  158.1837 O   0  0  0  0  0  0  0  0  0  0  0  0
  150.8341  143.4381  158.2153 C   0  0  0  0  0  0  0  0  0  0  0  0
  152.0846  142.9292  158.9710 C   0  0  0  0  0  0  0  0  0  0  0  0
  152.7726  144.0614  159.7512 C   0  0  0  0  0  0  0  0  0  0  0  0
  151.7951  144.7514  160.7150 C   0  0  0  0  0  0  0  0  0  0  0  0
  150.5536  145.2659  159.9704 C   0  0  0  0  0  0  0  0  0  0  0  0
  149.8614  144.1346  159.1924 C   0  0  0  0  0  0  0  0  0  0  0  0
  149.0497  137.5757  153.8099 H   0  0  0  0  0  0  0  0  0  0  0  0
  146.5509  139.6805  154.8741 H   0  0  0  0  0  0  0  0  0  0  0  0
  145.9514  140.9872  152.9888 H   0  0  0  0  0  0  0  0  0  0  0  0
  147.6717  141.4244  152.9858 H   0  0  0  0  0  0  0  0  0  0  0  0
  146.6049  140.2236  150.7801 H   0  0  0  0  0  0  0  0  0  0  0  0
  148.1696  139.6641  151.3832 H   0  0  0  0  0  0  0  0  0  0  0  0
  145.4311  138.4782  152.0021 H   0  0  0  0  0  0  0  0  0  0  0  0
  146.8696  137.6137  151.4486 H   0  0  0  0  0  0  0  0  0  0  0  0
  152.0278  141.7247  156.4252 H   0  0  0  0  0  0  0  0  0  0  0  0
  151.0248  142.6653  155.3917 H   0  0  0  0  0  0  0  0  0  0  0  0
  149.1816  142.7569  157.0128 H   0  0  0  0  0  0  0  0  0  0  0  0
  150.3954  141.2742  158.9531 H   0  0  0  0  0  0  0  0  0  0  0  0
  151.1714  144.2055  157.5164 H   0  0  0  0  0  0  0  0  0  0  0  0
  151.8069  142.1348  159.6648 H   0  0  0  0  0  0  0  0  0  0  0  0
  152.7999  142.4923  158.2740 H   0  0  0  0  0  0  0  0  0  0  0  0
  153.6235  143.6652  160.3060 H   0  0  0  0  0  0  0  0  0  0  0  0
  153.1750  144.7950  159.0514 H   0  0  0  0  0  0  0  0  0  0  0  0
  151.4906  144.0491  161.4921 H   0  0  0  0  0  0  0  0  0  0  0  0
  152.2942  145.5778  161.2223 H   0  0  0  0  0  0  0  0  0  0  0  0
  149.8544  145.7117  160.6783 H   0  0  0  0  0  0  0  0  0  0  0  0
  150.8434  146.0601  159.2809 H   0  0  0  0  0  0  0  0  0  0  0  0
  149.0089  144.5400  158.6463 H   0  0  0  0  0  0  0  0  0  0  0  0
  149.4572  143.4091  159.8993 H   0  0  0  0  0  0  0  0  0  0  0  0
  1  2  2  0  0  0  0
  2 14  1  0  0  0  0
  2  3  1  0  0  0  0
  3  4  1  0  0  0  0
  3  5  2  0  0  0  0
  5  6  1  0  0  0  0
  5 24  1  0  0  0  0
  6  7  1  0  0  0  0
  6 12  1  0  0  0  0
  7 11  1  0  0  0  0
  7  8  1  0  0  0  0
  7 25  1  0  0  0  0
  8  9  1  0  0  0  0
  8 26  1  0  0  0  0
  8 27  1  0  0  0  0
  9 10  1  0  0  0  0
  9 28  1  0  0  0  0
  9 29  1  0  0  0  0
 10 11  1  0  0  0  0
 10 30  1  0  0  0  0
 10 31  1  0  0  0  0
 12 13  2  0  0  0  0
 12 14  1  0  0  0  0
 14 15  1  0  0  0  0
 15 16  1  0  0  0  0
 15 32  1  0  0  0  0
 15 33  1  0  0  0  0
 16 17  1  0  0  0  0
 16 18  1  0  0  0  0
 16 34  1  0  0  0  0
 17 35  1  0  0  0  0
 18 23  1  0  0  0  0
 18 19  1  0  0  0  0
 18 36  1  0  0  0  0
 19 20  1  0  0  0  0
 19 37  1  0  0  0  0
 19 38  1  0  0  0  0
 20 21  1  0  0  0  0
 20 39  1  0  0  0  0
 20 40  1  0  0  0  0
 21 22  1  0  0  0  0
 21 41  1  0  0  0  0
 21 42  1  0  0  0  0
 22 23  1  0  0  0  0
 22 43  1  0  0  0  0
 22 44  1  0  0  0  0
 23 45  1  0  0  0  0
 23 46  1  0  0  0  0
M  END
> <s_m_source_file>
AV-unprocessed.smi

> <i_m_source_file_index>
286

> <i_lp_mmshare_version>
43012

> <i_f3d_flags>
0

> <s_epik_input>
TzFbQ0gyXVtDSDJdW0NIMl1bQ0BIXTFuKFtjSF1jKEYpYzI9TyljKD1PKW4yW0NIMl1bQ0BIXShbT0hdKVtDSF0zW0NIMl1bQ0gyXVtDSDJdW0NIMl1bQ0gyXTM=

> <s_epik_cmdline>
J2VwaWtfcHl0aG9uJywgJy1waCcsICc3LjAnLCAnLXRuJywgJzgnLCAnLW1hJywgJzIwMCcsICctbWV0YWxfYmluZGluZycsICctaW1hZScsICc8aW5maWxlLm1hZT4nLCAnLW9tYWUnLCAnPG91dGZpbGUubWFlPic=

> <r_lp_tautomer_probability>
1

> <r_epik_Ionization_Penalty>
3.15564e-07

> <r_epik_Ionization_Penalty_Charging>
2.06416e-08

> <r_epik_Ionization_Penalty_Neutral>
2.94923e-07

> <r_epik_State_Penalty>
-0

> <r_epik_Charging_Adjusted_Penalty>
2.06416e-08

> <i_epik_Tot_Q>
0

> <i_epik_Tot_abs_Q>
0

> <r_epik_Metal_State_Penalty>
-0

> <b_epik_Metal_Only>
0

> <s_epik_Chemistry_Notes>
This compound contains an acetal/aminal-like group ( X-CH(R)-Y where X, Y are N, S, or O) that may be acid/base labile, releasing an aldehyde.

> <s_lp_Force_Field>
OPLS_2005

> <r_lp_Energy>
42.0749

> <b_lp_Chiralities_Consistent>
1

> <s_lp_Variant>
AV-unprocessed.smi:286-4

> <Gold.Version>
5.8.1

> <Gold.Id.Protein>
6NUR|6NUR_protein|mol2

> <Gold.PLP.Fitness>
51.2449

> <Gold.PLP.PLP>
-45.6607

> <Gold.PLP.part.hbond>
-1.0000

> <Gold.PLP.part.metal>
0.0000

> <Gold.PLP.part.buried>
0.0062

> <Gold.PLP.part.nonpolar>
-45.4063

> <Gold.PLP.part.repulsive>
0.7542

> <Gold.PLP.ligand.clash>
0.0000

> <Gold.PLP.ligand.torsion>
0.2254

> <Gold.PLP.Chemscore.Hbond>
1.0000

> <Gold.PLP.Chemscore.CHOScore>
1.0000

> <Gold.PLP.Chemscore.Metal>
0.0000

> <Gold.Chemscore.Hbonds>
donor molecule, donor type, donor heavy atom, donor atom, acceptor molecule, acceptor atom, score
      P1  H  7997  8010       L1     1  1.00
      L1  C     5    24       P1  7948  1.00

> <Gold.PLP.Chemscore.Internal.Correction>
0.0350

> <Gold.Rescore>
     Score         DG    S(hbond)    S(metal)    S(lipo)     H(rot)  DE(clash)    DE(int)     intcor
     13.81     -16.16       0.98        0.00     113.16       2.28       0.35       2.00       ----

> <Gold.Chemscore.Fitness>
13.8080

> <Gold.Chemscore.DG>
-16.1627

> <Gold.Chemscore.ZeroCoef>
-5.4800

> <Gold.Chemscore.Hbond>
0.9784

> <Gold.Chemscore.Metal>
0.0000

> <Gold.Chemscore.Lipo>
113.1639

> <Gold.Chemscore.Internal_Hbond>
0.0000

> <Gold.Chemscore.DEClash>
0.3511

> <Gold.Chemscore.DEInternal>
2.0036

> <Gold.Chemscore.Rot>
2.2756

> <Gold.Chemscore.Internal.Correction>
   9.000000E+99

> <Gold.Chemscore.Hbonds>
donor molecule, donor type, donor heavy atom, donor atom, acceptor molecule, acceptor atom, score
      P1  H  7997  8010       L1     1  0.97

> <Gold.Chemscore.Hbond.Weighted>
-3.2680

> <Gold.Chemscore.Metal.Weighted>
-0.0000

> <Gold.Chemscore.Lipo.Weighted>
-13.2402

> <Gold.Chemscore.Internal_Hbond.Weighted>
0.0000

> <Gold.Chemscore.DEClash.Weighted>
0.3511

> <Gold.Chemscore.DEInternal.Weighted>
2.0036

> <Gold.Chemscore.Rot.Weighted>
5.8254

> <Gold.Chemscore.Internal.Correction.Weighted>
   9.000000E+99

> <Gold.Protein.RotatedTorsions>
[ 6907 6896 6895 6894 ] final -177.40 input  -60.11 | X-H torsion
[ 7974 7965 7964 7962 ] final    3.87 input  175.53 | X-H torsion
[ 8008 7997 7996 7995 ] final   89.22 input   59.86 | X-H torsion
[ 10167 10162 10161 10158 ] final  -32.62 input  -65.29 | X-H torsion
[ 10718 10713 10712 10709 ] final  -62.46 input   66.30 | X-H torsion
[ 10763 10752 10751 10750 ] final   35.95 input  -60.55 | X-H torsion
[ 11005 11000 10999 10996 ] final -129.58 input  -57.11 | X-H torsion

> <Gold.Protein.ActiveResidues>
 VAL166  LYS551  ARG553  GLY616  TRP617  ASP618  TYR619  PRO620  LYS621  CYS622 
 ASP623  PHE694  ASN695  SER759  ASP760  ASP761  ALA762  ILE779  LEU786  VAL792 
 PHE793  MET794  SER795  GLU796  ALA797  LYS798  CYS799  TRP800  GLU811  SER814 

> <Gold.Protein.RotatedAtoms>
  151.6204  133.3339  159.3086 H   0  0  0  0  0  0  0  0  0  0  0  0  # atno 6907 bound_to 6896
  150.8109  134.7266  159.6698 H   0  0  0  0  0  0  0  0  0  0  0  0  # atno 6908 bound_to 6896
  152.4205  134.5968  160.0041 H   0  0  0  0  0  0  0  0  0  0  0  0  # atno 6909 bound_to 6896
  146.2445  140.0620  142.8368 H   0  0  0  0  0  0  0  0  0  0  0  0  # atno 7974 bound_to 7965
  155.9974  140.3363  155.6812 H   0  0  0  0  0  0  0  0  0  0  0  0  # atno 8008 bound_to 7997
  155.6338  140.0688  157.2658 H   0  0  0  0  0  0  0  0  0  0  0  0  # atno 8009 bound_to 7997
  154.4238  140.1755  156.1487 H   0  0  0  0  0  0  0  0  0  0  0  0  # atno 8010 bound_to 7997
  140.7218  143.3681  151.1832 H   0  0  0  0  0  0  0  0  0  0  0  0  # atno 10167 bound_to 10162
  156.0854  130.4209  150.1138 H   0  0  0  0  0  0  0  0  0  0  0  0  # atno 10718 bound_to 10713
  153.0097  135.6319  154.1908 H   0  0  0  0  0  0  0  0  0  0  0  0  # atno 10763 bound_to 10752
  154.1650  135.2821  155.3099 H   0  0  0  0  0  0  0  0  0  0  0  0  # atno 10764 bound_to 10752
  154.5952  135.5605  153.7379 H   0  0  0  0  0  0  0  0  0  0  0  0  # atno 10765 bound_to 10752
  140.9420  134.1181  157.4142 H   0  0  0  0  0  0  0  0  0  0  0  0  # atno 11005 bound_to 11000
  145.0892  140.9273  143.4779 LP  0  0  0  0  0  0  0  0  0  0  0  0  # atno 17320 bound_to 7965
  145.0789  139.2975  143.5794 LP  0  0  0  0  0  0  0  0  0  0  0  0  # atno 17321 bound_to 7965
  139.7246  143.9168  152.2998 LP  0  0  0  0  0  0  0  0  0  0  0  0  # atno 17342 bound_to 10162
  139.8937  144.6951  150.8742 LP  0  0  0  0  0  0  0  0  0  0  0  0  # atno 17343 bound_to 10162
  156.9161  130.9667  151.3556 LP  0  0  0  0  0  0  0  0  0  0  0  0  # atno 17370 bound_to 10713
  157.5986  130.8496  149.8767 LP  0  0  0  0  0  0  0  0  0  0  0  0  # atno 17371 bound_to 10713
  139.8823  135.0039  156.6218 LP  0  0  0  0  0  0  0  0  0  0  0  0  # atno 17394 bound_to 11000
  140.7721  133.8729  155.8500 LP  0  0  0  0  0  0  0  0  0  0  0  0  # atno 17395 bound_to 11000

$$$$
