AV-unprocessed.smi:490|AV-procd|sdf|2705|dock2
  -GOLD-   2262023143D 1   1.00000     0.00000
 Structure written by MMmdl.
 50 52  0  0  0  0  0  0  0  0  2 V2000
  151.0850  144.4547  158.7156 C   0  0  0  0  0  0  0  0  0  0  0  0
  151.8611  143.7535  159.8174 C   0  0  0  0  0  0  0  0  0  0  0  0
  152.0961  144.4374  161.0277 C   0  0  0  0  0  0  0  0  0  0  0  0
  152.8132  143.8195  162.0670 C   0  0  0  0  0  0  0  0  0  0  0  0
  153.2942  142.5054  161.9115 C   0  0  0  0  0  0  0  0  0  0  0  0
  154.0685  141.8517  163.0409 C   0  0  0  0  0  0  0  0  0  0  0  0
  153.0483  141.8040  160.7089 C   0  0  0  0  0  0  0  0  0  0  0  0
  153.5086  140.5184  160.5793 O   0  0  0  0  0  0  0  0  0  0  0  0
  154.5190  140.3764  159.5910 C   0  0  0  0  0  0  0  0  0  0  0  0
  155.1248  138.9680  159.6865 C   0  0  2  0  0  0  0  0  0  0  0  0
  155.9764  138.7666  158.5758 O   0  0  0  0  0  0  0  0  0  0  0  0
  154.0350  137.8773  159.6972 C   0  0  0  0  0  0  0  0  0  0  0  0
  154.4781  136.6274  160.3366 N   0  0  0  0  0  0  0  0  0  0  0  0
  154.9782  135.4885  159.7756 C   0  0  0  0  0  0  0  0  0  0  0  0
  155.2017  135.2275  158.3224 C   0  0  0  0  0  0  0  0  0  0  0  0
  153.9940  135.1529  157.5981 O   0  0  0  0  0  0  0  0  0  0  0  0
  155.2516  134.6233  160.7920 N   0  3  0  0  0  0  0  0  0  0  0  0
  154.9203  135.2096  162.0138 C   0  0  0  0  0  0  0  0  0  0  0  0
  155.0181  134.7212  163.3130 C   0  0  0  0  0  0  0  0  0  0  0  0
  154.5887  135.5799  164.3458 C   0  0  0  0  0  0  0  0  0  0  0  0
  154.0866  136.8677  164.0683 C   0  0  0  0  0  0  0  0  0  0  0  0
  153.9942  137.3528  162.7469 C   0  0  0  0  0  0  0  0  0  0  0  0
  154.4212  136.4980  161.7302 C   0  0  0  0  0  0  0  0  0  0  0  0
  152.3483  142.4331  159.6480 C   0  0  0  0  0  0  0  0  0  0  0  0
  152.1212  141.6954  158.3352 C   0  0  0  0  0  0  0  0  0  0  0  0
  150.6717  145.4023  159.0625 H   0  0  0  0  0  0  0  0  0  0  0  0
  150.2549  143.8358  158.3746 H   0  0  0  0  0  0  0  0  0  0  0  0
  151.7351  144.6640  157.8659 H   0  0  0  0  0  0  0  0  0  0  0  0
  151.7304  145.4447  161.1641 H   0  0  0  0  0  0  0  0  0  0  0  0
  152.9903  144.3591  162.9858 H   0  0  0  0  0  0  0  0  0  0  0  0
  154.9559  141.3468  162.6579 H   0  0  0  0  0  0  0  0  0  0  0  0
  153.4460  141.1161  163.5503 H   0  0  0  0  0  0  0  0  0  0  0  0
  154.3947  142.5888  163.7752 H   0  0  0  0  0  0  0  0  0  0  0  0
  154.0581  140.5083  158.6106 H   0  0  0  0  0  0  0  0  0  0  0  0
  155.2885  141.1446  159.6831 H   0  0  0  0  0  0  0  0  0  0  0  0
  155.7151  138.8877  160.6000 H   0  0  0  0  0  0  0  0  0  0  0  0
  156.8644  138.6888  158.8888 H   0  0  0  0  0  0  0  0  0  0  0  0
  153.1666  138.2285  160.2557 H   0  0  0  0  0  0  0  0  0  0  0  0
  153.6764  137.6640  158.6901 H   0  0  0  0  0  0  0  0  0  0  0  0
  155.8185  136.0217  157.9009 H   0  0  0  0  0  0  0  0  0  0  0  0
  155.7517  134.2946  158.1993 H   0  0  0  0  0  0  0  0  0  0  0  0
  153.5705  134.3329  157.8024 H   0  0  0  0  0  0  0  0  0  0  0  0
  155.4023  133.7348  163.5276 H   0  0  0  0  0  0  0  0  0  0  0  0
  154.6453  135.2435  165.3712 H   0  0  0  0  0  0  0  0  0  0  0  0
  153.7653  137.4971  164.8857 H   0  0  0  0  0  0  0  0  0  0  0  0
  153.6050  138.3399  162.5484 H   0  0  0  0  0  0  0  0  0  0  0  0
  152.7684  140.8243  158.2355 H   0  0  0  0  0  0  0  0  0  0  0  0
  152.3279  142.3425  157.4829 H   0  0  0  0  0  0  0  0  0  0  0  0
  151.0869  141.3580  158.2684 H   0  0  0  0  0  0  0  0  0  0  0  0
  155.6402  133.6989  160.6561 H   0  0  0  0  0  0  0  0  0  0  0  0
  1  2  1  0  0  0  0
  1 26  1  0  0  0  0
  1 27  1  0  0  0  0
  1 28  1  0  0  0  0
  2 24  1  0  0  0  0
  2  3  2  0  0  0  0
  3  4  1  0  0  0  0
  3 29  1  0  0  0  0
  4  5  2  0  0  0  0
  4 30  1  0  0  0  0
  5  6  1  0  0  0  0
  5  7  1  0  0  0  0
  6 31  1  0  0  0  0
  6 32  1  0  0  0  0
  6 33  1  0  0  0  0
  7  8  1  0  0  0  0
  7 24  2  0  0  0  0
  8  9  1  0  0  0  0
  9 10  1  0  0  0  0
  9 34  1  0  0  0  0
  9 35  1  0  0  0  0
 10 11  1  0  0  0  0
 10 12  1  0  0  0  0
 10 36  1  0  0  0  0
 11 37  1  0  0  0  0
 12 13  1  0  0  0  0
 12 38  1  0  0  0  0
 12 39  1  0  0  0  0
 13 23  1  0  0  0  0
 13 14  1  0  0  0  0
 14 15  1  0  0  0  0
 14 17  2  0  0  0  0
 15 16  1  0  0  0  0
 15 40  1  0  0  0  0
 15 41  1  0  0  0  0
 16 42  1  0  0  0  0
 17 18  1  0  0  0  0
 17 50  1  0  0  0  0
 18 23  2  0  0  0  0
 18 19  1  0  0  0  0
 19 20  2  0  0  0  0
 19 43  1  0  0  0  0
 20 21  1  0  0  0  0
 20 44  1  0  0  0  0
 21 22  2  0  0  0  0
 21 45  1  0  0  0  0
 22 23  1  0  0  0  0
 22 46  1  0  0  0  0
 24 25  1  0  0  0  0
 25 47  1  0  0  0  0
 25 48  1  0  0  0  0
 25 49  1  0  0  0  0
M  CHG  1  17   1
M  END
> <s_m_source_file>
AV-unprocessed.smi

> <i_m_source_file_index>
490

> <i_lp_mmshare_version>
43012

> <i_f3d_flags>
0

> <s_epik_input>
W0NIM11jMVtjSF1bY0hdYyhbQ0gzXSljKGMxW0NIM10pT1tDSDJdW0NASF0oW09IXSlbQ0gyXW4oYyhuMilbQ0gyXVtPSF0pYyhjMjMpW2NIXVtjSF1bY0hdW2NIXTM=

> <s_epik_cmdline>
J2VwaWtfcHl0aG9uJywgJy1waCcsICc3LjAnLCAnLXRuJywgJzgnLCAnLW1hJywgJzIwMCcsICctbWV0YWxfYmluZGluZycsICctaW1hZScsICc8aW5maWxlLm1hZT4nLCAnLW9tYWUnLCAnPG91dGZpbGUubWFlPic=

> <r_lp_tautomer_probability>
1

> <r_epik_Ionization_Penalty>
1.43125

> <r_epik_Ionization_Penalty_Charging>
1.43039

> <r_epik_Ionization_Penalty_Neutral>
0.000858184

> <r_epik_State_Penalty>
1.51493

> <r_epik_Charging_Adjusted_Penalty>
2.94531

> <i_epik_Tot_Q>
1

> <i_epik_Tot_abs_Q>
1

> <r_epik_Metal_State_Penalty>
5.5599

> <b_epik_Metal_Only>
0

> <s_lp_Force_Field>
OPLS_2005

> <r_lp_Energy>
24.6054

> <b_lp_Chiralities_Consistent>
1

> <s_lp_Variant>
AV-unprocessed.smi:490-3

> <Gold.Version>
5.8.1

> <Gold.Id.Protein>
6NUR|6NUR_protein|mol2

> <Gold.PLP.Fitness>
57.1378

> <Gold.PLP.PLP>
-52.4877

> <Gold.PLP.part.hbond>
-2.0000

> <Gold.PLP.part.metal>
0.0000

> <Gold.PLP.part.buried>
-5.7334

> <Gold.PLP.part.nonpolar>
-43.8010

> <Gold.PLP.part.repulsive>
0.0736

> <Gold.PLP.ligand.clash>
0.0000

> <Gold.PLP.ligand.torsion>
0.7394

> <Gold.PLP.Chemscore.Hbond>
2.0000

> <Gold.PLP.Chemscore.CHOScore>
0.0000

> <Gold.PLP.Chemscore.Metal>
0.0000

> <Gold.Chemscore.Hbonds>
donor molecule, donor type, donor heavy atom, donor atom, acceptor molecule, acceptor atom, score
      P1  H  7997  8009       L1    11  1.00
      P1  H 10752 10765       L1    16  0.60

> <Gold.PLP.Chemscore.Internal.Correction>
0.1290

> <Gold.Rescore>
     Score         DG    S(hbond)    S(metal)    S(lipo)     H(rot)  DE(clash)    DE(int)     intcor
     19.02     -19.95       0.97        0.00     161.89       3.02       0.07       0.86       ----

> <Gold.Chemscore.Fitness>
19.0243

> <Gold.Chemscore.DG>
-19.9485

> <Gold.Chemscore.ZeroCoef>
-5.4800

> <Gold.Chemscore.Hbond>
0.9742

> <Gold.Chemscore.Metal>
0.0000

> <Gold.Chemscore.Lipo>
161.8864

> <Gold.Chemscore.Internal_Hbond>
0.0000

> <Gold.Chemscore.DEClash>
0.0686

> <Gold.Chemscore.DEInternal>
0.8555

> <Gold.Chemscore.Rot>
3.0180

> <Gold.Chemscore.Internal.Correction>
   9.000000E+99

> <Gold.Chemscore.Hbonds>
donor molecule, donor type, donor heavy atom, donor atom, acceptor molecule, acceptor atom, score
      P1  H  7997  8009       L1    11  0.75
      P1  H 10752 10765       L1    16  0.32

> <Gold.Chemscore.Hbond.Weighted>
-3.2538

> <Gold.Chemscore.Metal.Weighted>
-0.0000

> <Gold.Chemscore.Lipo.Weighted>
-18.9407

> <Gold.Chemscore.Internal_Hbond.Weighted>
0.0000

> <Gold.Chemscore.DEClash.Weighted>
0.0686

> <Gold.Chemscore.DEInternal.Weighted>
0.8555

> <Gold.Chemscore.Rot.Weighted>
7.7260

> <Gold.Chemscore.Internal.Correction.Weighted>
   9.000000E+99

> <Gold.Protein.RotatedTorsions>
[ 6907 6896 6895 6894 ] final  103.70 input  -60.11 | X-H torsion
[ 7974 7965 7964 7962 ] final  -27.64 input  175.53 | X-H torsion
[ 8008 7997 7996 7995 ] final   82.18 input   59.86 | X-H torsion
[ 10167 10162 10161 10158 ] final -134.95 input  -65.29 | X-H torsion
[ 10718 10713 10712 10709 ] final   56.54 input   66.30 | X-H torsion
[ 10763 10752 10751 10750 ] final  -96.54 input  -60.55 | X-H torsion
[ 11005 11000 10999 10996 ] final  108.66 input  -57.11 | X-H torsion

> <Gold.Protein.ActiveResidues>
 VAL166  LYS551  ARG553  GLY616  TRP617  ASP618  TYR619  PRO620  LYS621  CYS622 
 ASP623  PHE694  ASN695  SER759  ASP760  ASP761  ALA762  ILE779  LEU786  VAL792 
 PHE793  MET794  SER795  GLU796  ALA797  LYS798  CYS799  TRP800  GLU811  SER814 

> <Gold.Protein.RotatedAtoms>
  152.5287  133.9787  159.7796 H   0  0  0  0  0  0  0  0  0  0  0  0  # atno 6907 bound_to 6896
  151.0045  133.6016  159.2698 H   0  0  0  0  0  0  0  0  0  0  0  0  # atno 6908 bound_to 6896
  151.3113  135.0801  159.9326 H   0  0  0  0  0  0  0  0  0  0  0  0  # atno 6909 bound_to 6896
  146.1344  140.5178  142.8679 H   0  0  0  0  0  0  0  0  0  0  0  0  # atno 7974 bound_to 7965
  155.9072  140.3429  155.6071 H   0  0  0  0  0  0  0  0  0  0  0  0  # atno 8008 bound_to 7997
  155.7430  140.0810  157.2255 H   0  0  0  0  0  0  0  0  0  0  0  0  # atno 8009 bound_to 7997
  154.4051  140.1567  156.2625 H   0  0  0  0  0  0  0  0  0  0  0  0  # atno 8010 bound_to 7997
  139.8828  143.6818  152.2624 H   0  0  0  0  0  0  0  0  0  0  0  0  # atno 10167 bound_to 10162
  157.5439  130.8717  149.8863 H   0  0  0  0  0  0  0  0  0  0  0  0  # atno 10718 bound_to 10713
  154.7248  135.5080  153.8869 H   0  0  0  0  0  0  0  0  0  0  0  0  # atno 10763 bound_to 10752
  153.0895  135.6655  153.9891 H   0  0  0  0  0  0  0  0  0  0  0  0  # atno 10764 bound_to 10752
  153.9705  135.3039  155.3407 H   0  0  0  0  0  0  0  0  0  0  0  0  # atno 10765 bound_to 10752
  139.8848  134.9437  156.6007 H   0  0  0  0  0  0  0  0  0  0  0  0  # atno 11005 bound_to 11000
  144.7724  140.5666  143.6661 LP  0  0  0  0  0  0  0  0  0  0  0  0  # atno 17320 bound_to 7965
  145.5189  139.1477  143.3563 LP  0  0  0  0  0  0  0  0  0  0  0  0  # atno 17321 bound_to 7965
  139.7180  144.7608  151.1002 LP  0  0  0  0  0  0  0  0  0  0  0  0  # atno 17342 bound_to 10162
  140.7741  143.5244  150.9498 LP  0  0  0  0  0  0  0  0  0  0  0  0  # atno 17343 bound_to 10162
  156.0519  130.3716  150.1180 LP  0  0  0  0  0  0  0  0  0  0  0  0  # atno 17370 bound_to 10713
  156.9358  130.9728  151.3525 LP  0  0  0  0  0  0  0  0  0  0  0  0  # atno 17371 bound_to 10713
  140.7886  133.8601  155.8627 LP  0  0  0  0  0  0  0  0  0  0  0  0  # atno 17394 bound_to 11000
  140.9697  134.1547  157.4586 LP  0  0  0  0  0  0  0  0  0  0  0  0  # atno 17395 bound_to 11000

$$$$
