AV-unprocessed.smi:164|AV-procd|sdf|1383|dock5
  -GOLD-   2262019113D 1   1.00000     0.00000
 Structure written by MMmdl.
 53 55  0  0  0  0  0  0  0  0  1 V2000
  150.7734  145.1231  160.3268 C   0  0  0  0  0  0  0  0  0  0  0  0
  151.6786  143.9248  160.5557 C   0  0  0  0  0  0  0  0  0  0  0  0
  152.1456  143.6616  161.8598 C   0  0  0  0  0  0  0  0  0  0  0  0
  152.9891  142.5642  162.1066 C   0  0  0  0  0  0  0  0  0  0  0  0
  153.3677  141.7113  161.0520 C   0  0  0  0  0  0  0  0  0  0  0  0
  154.2826  140.5328  161.3304 C   0  0  0  0  0  0  0  0  0  0  0  0
  152.8921  141.9575  159.7434 C   0  0  0  0  0  0  0  0  0  0  0  0
  153.2640  141.1152  158.7272 O   0  0  0  0  0  0  0  0  0  0  0  0
  152.7421  139.8006  158.8579 C   0  0  0  0  0  0  0  0  0  0  0  0
  151.8115  139.5153  157.6683 C   0  0  1  0  0  0  0  0  0  0  0  0
  152.5282  139.8416  156.4939 O   0  0  0  0  0  0  0  0  0  0  0  0
  151.4167  138.0227  157.5955 C   0  0  0  0  0  0  0  0  0  0  0  0
  149.9975  137.7910  157.8130 N   0  0  0  0  0  0  0  0  0  0  0  0
  149.0932  138.3272  156.8633 C   0  0  0  0  0  0  0  0  0  0  0  0
  149.4759  138.9878  155.8956 O   0  0  0  0  0  0  0  0  0  0  0  0
  147.6911  138.0171  157.1192 C   0  0  0  0  0  0  0  0  0  0  0  0
  146.7464  138.4641  156.2745 F   0  0  0  0  0  0  0  0  0  0  0  0
  147.3248  137.2798  158.1896 C   0  0  0  0  0  0  0  0  0  0  0  0
  148.2280  136.7820  159.1112 N   0  0  0  0  0  0  0  0  0  0  0  0
  147.7238  135.9202  160.2456 C   0  0  2  0  0  0  0  0  0  0  0  0
  146.2068  135.6572  160.1948 C   0  0  0  0  0  0  0  0  0  0  0  0
  145.7216  136.2059  161.5265 C   0  0  0  0  0  0  0  0  0  0  0  0
  146.9882  136.2067  162.3756 C   0  0  0  0  0  0  0  0  0  0  0  0
  148.0028  136.5640  161.4504 O   0  0  0  0  0  0  0  0  0  0  0  0
  149.6127  137.0028  158.9241 C   0  0  0  0  0  0  0  0  0  0  0  0
  150.4439  136.5182  159.6944 O   0  0  0  0  0  0  0  0  0  0  0  0
  152.0600  143.0762  159.4862 C   0  0  0  0  0  0  0  0  0  0  0  0
  151.5783  143.3642  158.0705 C   0  0  0  0  0  0  0  0  0  0  0  0
  150.4668  145.5754  161.2704 H   0  0  0  0  0  0  0  0  0  0  0  0
  149.8706  144.8287  159.7911 H   0  0  0  0  0  0  0  0  0  0  0  0
  151.2920  145.8841  159.7433 H   0  0  0  0  0  0  0  0  0  0  0  0
  151.8620  144.3055  162.6796 H   0  0  0  0  0  0  0  0  0  0  0  0
  153.3440  142.3807  163.1100 H   0  0  0  0  0  0  0  0  0  0  0  0
  155.0796  140.4809  160.5882 H   0  0  0  0  0  0  0  0  0  0  0  0
  153.7193  139.6002  161.2955 H   0  0  0  0  0  0  0  0  0  0  0  0
  154.7459  140.6140  162.3139 H   0  0  0  0  0  0  0  0  0  0  0  0
  153.5315  139.0498  158.9314 H   0  0  0  0  0  0  0  0  0  0  0  0
  152.1768  139.7561  159.7896 H   0  0  0  0  0  0  0  0  0  0  0  0
  150.9221  140.1419  157.7463 H   0  0  0  0  0  0  0  0  0  0  0  0
  152.0256  139.5572  155.7460 H   0  0  0  0  0  0  0  0  0  0  0  0
  151.7160  137.5548  156.6561 H   0  0  0  0  0  0  0  0  0  0  0  0
  151.9353  137.4394  158.3585 H   0  0  0  0  0  0  0  0  0  0  0  0
  146.2730  137.0748  158.3256 H   0  0  0  0  0  0  0  0  0  0  0  0
  148.2947  134.9918  160.1957 H   0  0  0  0  0  0  0  0  0  0  0  0
  145.7268  136.1311  159.3379 H   0  0  0  0  0  0  0  0  0  0  0  0
  146.0432  134.5810  160.1305 H   0  0  0  0  0  0  0  0  0  0  0  0
  145.3570  137.2258  161.4026 H   0  0  0  0  0  0  0  0  0  0  0  0
  144.9186  135.6125  161.9643 H   0  0  0  0  0  0  0  0  0  0  0  0
  146.9376  136.9085  163.2081 H   0  0  0  0  0  0  0  0  0  0  0  0
  147.1912  135.2112  162.7735 H   0  0  0  0  0  0  0  0  0  0  0  0
  152.1451  142.8117  157.3212 H   0  0  0  0  0  0  0  0  0  0  0  0
  151.6838  144.4221  157.8310 H   0  0  0  0  0  0  0  0  0  0  0  0
  150.5278  143.0908  157.9691 H   0  0  0  0  0  0  0  0  0  0  0  0
  1  2  1  0  0  0  0
  1 29  1  0  0  0  0
  1 30  1  0  0  0  0
  1 31  1  0  0  0  0
  2 27  1  0  0  0  0
  2  3  2  0  0  0  0
  3  4  1  0  0  0  0
  3 32  1  0  0  0  0
  4  5  2  0  0  0  0
  4 33  1  0  0  0  0
  5  6  1  0  0  0  0
  5  7  1  0  0  0  0
  6 34  1  0  0  0  0
  6 35  1  0  0  0  0
  6 36  1  0  0  0  0
  7  8  1  0  0  0  0
  7 27  2  0  0  0  0
  8  9  1  0  0  0  0
  9 10  1  0  0  0  0
  9 37  1  0  0  0  0
  9 38  1  0  0  0  0
 10 11  1  0  0  0  0
 10 12  1  0  0  0  0
 10 39  1  0  0  0  0
 11 40  1  0  0  0  0
 12 13  1  0  0  0  0
 12 41  1  0  0  0  0
 12 42  1  0  0  0  0
 13 25  1  0  0  0  0
 13 14  1  0  0  0  0
 14 15  2  0  0  0  0
 14 16  1  0  0  0  0
 16 17  1  0  0  0  0
 16 18  2  0  0  0  0
 18 19  1  0  0  0  0
 18 43  1  0  0  0  0
 19 20  1  0  0  0  0
 19 25  1  0  0  0  0
 20 24  1  0  0  0  0
 20 21  1  0  0  0  0
 20 44  1  0  0  0  0
 21 22  1  0  0  0  0
 21 45  1  0  0  0  0
 21 46  1  0  0  0  0
 22 23  1  0  0  0  0
 22 47  1  0  0  0  0
 22 48  1  0  0  0  0
 23 24  1  0  0  0  0
 23 49  1  0  0  0  0
 23 50  1  0  0  0  0
 25 26  2  0  0  0  0
 27 28  1  0  0  0  0
 28 51  1  0  0  0  0
 28 52  1  0  0  0  0
 28 53  1  0  0  0  0
M  END
> <s_m_source_file>
AV-unprocessed.smi

> <i_m_source_file_index>
164

> <i_lp_mmshare_version>
43012

> <i_f3d_flags>
0

> <s_epik_input>
W0NIM11jMVtjSF1bY0hdYyhbQ0gzXSljKGMxW0NIM10pT1tDSDJdW0NASF0oW09IXSlbQ0gyXW4yYyg9TyljKEYpW2NIXW4oYzI9TylbQ0BASF0zW0NIMl1bQ0gyXVtDSDJdTzM=

> <s_epik_cmdline>
J2VwaWtfcHl0aG9uJywgJy1waCcsICc3LjAnLCAnLXRuJywgJzgnLCAnLW1hJywgJzIwMCcsICctbWV0YWxfYmluZGluZycsICctaW1hZScsICc8aW5maWxlLm1hZT4nLCAnLW9tYWUnLCAnPG91dGZpbGUubWFlPic=

> <r_lp_tautomer_probability>
1

> <r_epik_Ionization_Penalty>
1.45842e-07

> <r_epik_Ionization_Penalty_Charging>
2.86622e-08

> <r_epik_Ionization_Penalty_Neutral>
1.1718e-07

> <r_epik_State_Penalty>
-0

> <r_epik_Charging_Adjusted_Penalty>
2.86622e-08

> <i_epik_Tot_Q>
0

> <i_epik_Tot_abs_Q>
0

> <r_epik_Metal_State_Penalty>
-0

> <b_epik_Metal_Only>
0

> <s_epik_Chemistry_Notes>
This compound contains an acetal/aminal-like group ( X-CH(R)-Y where X, Y are N, S, or O) that may be acid/base labile, releasing an aldehyde.

> <s_lp_Force_Field>
OPLS_2005

> <r_lp_Energy>
41.2459

> <b_lp_Chiralities_Consistent>
1

> <s_lp_Variant>
AV-unprocessed.smi:164-2

> <Gold.Version>
5.8.1

> <Gold.Id.Protein>
6NUR|6NUR_protein|mol2

> <Gold.PLP.Fitness>
61.4415

> <Gold.PLP.PLP>
-52.4134

> <Gold.PLP.part.hbond>
-5.2073

> <Gold.PLP.part.metal>
0.0000

> <Gold.PLP.part.buried>
-5.5437

> <Gold.PLP.part.nonpolar>
-42.0500

> <Gold.PLP.part.repulsive>
0.0038

> <Gold.PLP.ligand.clash>
0.0000

> <Gold.PLP.ligand.torsion>
1.2492

> <Gold.PLP.Chemscore.Hbond>
3.7600

> <Gold.PLP.Chemscore.CHOScore>
0.0000

> <Gold.PLP.Chemscore.Metal>
0.0000

> <Gold.Chemscore.Hbonds>
donor molecule, donor type, donor heavy atom, donor atom, acceptor molecule, acceptor atom, score
      P1  H  6896  6909       L1    26  1.00
      P1  H  6931  6943       L1    24  1.00
      P1  H  7997  8010       L1    11  1.00

> <Gold.PLP.Chemscore.Internal.Correction>
0.2465

> <Gold.Rescore>
     Score         DG    S(hbond)    S(metal)    S(lipo)     H(rot)  DE(clash)    DE(int)     intcor
     20.55     -24.13       2.99        0.00     133.87       2.73       0.30       3.28       ----

> <Gold.Chemscore.Fitness>
20.5450

> <Gold.Chemscore.DG>
-24.1256

> <Gold.Chemscore.ZeroCoef>
-5.4800

> <Gold.Chemscore.Hbond>
2.9865

> <Gold.Chemscore.Metal>
0.0000

> <Gold.Chemscore.Lipo>
133.8733

> <Gold.Chemscore.Internal_Hbond>
0.0000

> <Gold.Chemscore.DEClash>
0.2994

> <Gold.Chemscore.DEInternal>
3.2811

> <Gold.Chemscore.Rot>
2.7315

> <Gold.Chemscore.Internal.Correction>
   9.000000E+99

> <Gold.Chemscore.Hbonds>
donor molecule, donor type, donor heavy atom, donor atom, acceptor molecule, acceptor atom, score
      P1  H  6896  6909       L1    26  0.98
      P1  H  6931  6943       L1    24  0.85
      P1  H  7997  8010       L1    11  0.99

> <Gold.Chemscore.Hbond.Weighted>
-9.9749

> <Gold.Chemscore.Metal.Weighted>
-0.0000

> <Gold.Chemscore.Lipo.Weighted>
-15.6632

> <Gold.Chemscore.Internal_Hbond.Weighted>
0.0000

> <Gold.Chemscore.DEClash.Weighted>
0.2994

> <Gold.Chemscore.DEInternal.Weighted>
3.2811

> <Gold.Chemscore.Rot.Weighted>
6.9925

> <Gold.Chemscore.Internal.Correction.Weighted>
   9.000000E+99

> <Gold.Protein.RotatedTorsions>
[ 6907 6896 6895 6894 ] final   92.23 input  -60.11 | X-H torsion
[ 7974 7965 7964 7962 ] final -156.63 input  175.53 | X-H torsion
[ 8008 7997 7996 7995 ] final   72.56 input   59.86 | X-H torsion
[ 10167 10162 10161 10158 ] final  118.54 input  -65.29 | X-H torsion
[ 10718 10713 10712 10709 ] final -142.89 input   66.30 | X-H torsion
[ 10763 10752 10751 10750 ] final  -28.04 input  -60.55 | X-H torsion
[ 11005 11000 10999 10996 ] final   50.59 input  -57.11 | X-H torsion

> <Gold.Protein.ActiveResidues>
 VAL166  LYS551  ARG553  GLY616  TRP617  ASP618  TYR619  PRO620  LYS621  CYS622 
 ASP623  PHE694  ASN695  SER759  ASP760  ASP761  ALA762  ILE779  LEU786  VAL792 
 PHE793  MET794  SER795  GLU796  ALA797  LYS798  CYS799  TRP800  GLU811  SER814 

> <Gold.Protein.RotatedAtoms>
  152.5452  134.1535  159.8527 H   0  0  0  0  0  0  0  0  0  0  0  0  # atno 6907 bound_to 6896
  151.1560  133.4869  159.2602 H   0  0  0  0  0  0  0  0  0  0  0  0  # atno 6908 bound_to 6896
  151.1423  135.0196  159.8686 H   0  0  0  0  0  0  0  0  0  0  0  0  # atno 6909 bound_to 6896
  144.7584  140.4083  143.5994 H   0  0  0  0  0  0  0  0  0  0  0  0  # atno 7974 bound_to 7965
  155.7707  140.3484  155.5245 H   0  0  0  0  0  0  0  0  0  0  0  0  # atno 8008 bound_to 7997
  155.8824  140.1004  157.1496 H   0  0  0  0  0  0  0  0  0  0  0  0  # atno 8009 bound_to 7997
  154.4026  140.1320  156.4201 H   0  0  0  0  0  0  0  0  0  0  0  0  # atno 8010 bound_to 7997
  139.6105  144.7080  151.2855 H   0  0  0  0  0  0  0  0  0  0  0  0  # atno 10167 bound_to 10162
  156.3514  130.7690  151.1843 H   0  0  0  0  0  0  0  0  0  0  0  0  # atno 10718 bound_to 10713
  153.7419  135.6932  153.4965 H   0  0  0  0  0  0  0  0  0  0  0  0  # atno 10763 bound_to 10752
  153.2063  135.4418  155.0325 H   0  0  0  0  0  0  0  0  0  0  0  0  # atno 10764 bound_to 10752
  154.8217  135.3425  154.6944 H   0  0  0  0  0  0  0  0  0  0  0  0  # atno 10765 bound_to 10752
  140.1004  134.5089  155.8768 H   0  0  0  0  0  0  0  0  0  0  0  0  # atno 11005 bound_to 11000
  145.6700  139.1597  143.2760 LP  0  0  0  0  0  0  0  0  0  0  0  0  # atno 17320 bound_to 7965
  146.1621  140.6772  142.9272 LP  0  0  0  0  0  0  0  0  0  0  0  0  # atno 17321 bound_to 7965
  140.7316  143.6848  150.7971 LP  0  0  0  0  0  0  0  0  0  0  0  0  # atno 17342 bound_to 10162
  140.0442  143.5315  152.2704 LP  0  0  0  0  0  0  0  0  0  0  0  0  # atno 17343 bound_to 10162
  157.7461  131.0426  150.4704 LP  0  0  0  0  0  0  0  0  0  0  0  0  # atno 17370 bound_to 10713
  156.4900  130.4093  149.6412 LP  0  0  0  0  0  0  0  0  0  0  0  0  # atno 17371 bound_to 10713
  141.2104  133.6694  156.6506 LP  0  0  0  0  0  0  0  0  0  0  0  0  # atno 17394 bound_to 11000
  140.3228  134.7993  157.4266 LP  0  0  0  0  0  0  0  0  0  0  0  0  # atno 17395 bound_to 11000

$$$$
