AV-unprocessed.smi:837|AV-procd|sdf|3901|dock9
  -GOLD-   22720 1363D 1   1.00000     0.00000
 Structure written by MMmdl.
 48 50  0  0  0  0  0  0  0  0  2 V2000
  152.2752  144.0020  156.9382 C   0  0  0  0  0  0  0  0  0  0  0  0
  152.5256  144.0335  158.4620 C   0  0  1  0  0  0  0  0  0  0  0  0
  151.7118  145.1792  159.1053 C   0  0  0  0  0  0  0  0  0  0  0  0
  151.9851  145.3027  160.6113 C   0  0  0  0  0  0  0  0  0  0  0  0
  151.7029  143.9819  161.3381 C   0  0  0  0  0  0  0  0  0  0  0  0
  152.5135  142.8291  160.7208 C   0  0  0  0  0  0  0  0  0  0  0  0
  152.2947  142.6676  159.1920 C   0  0  2  0  0  0  0  0  0  0  0  0
  153.2245  141.6660  158.6989 N   0  5  0  0  0  0  0  0  0  0  0  0
  152.5272  140.6124  158.2141 C   0  0  0  0  0  0  0  0  0  0  0  0
  152.9936  139.5794  157.7350 O   0  0  0  0  0  0  0  0  0  0  0  0
  151.2015  140.8227  158.3159 N   0  0  0  0  0  0  0  0  0  0  0  0
  150.1619  139.8702  157.9014 C   0  0  0  0  0  0  0  0  0  0  0  0
  150.1235  138.5934  158.7541 C   0  0  0  0  0  0  0  0  0  0  0  0
  151.0350  138.3189  159.5366 O   0  0  0  0  0  0  0  0  0  0  0  0
  149.0406  137.8178  158.5926 N   0  0  0  0  0  0  0  0  0  0  0  0
  148.7944  136.5686  159.3028 C   0  0  0  0  0  0  0  0  0  0  0  0
  148.5691  136.8063  160.8050 C   0  0  0  0  0  0  0  0  0  0  0  0
  147.9751  135.5911  161.4899 C   0  0  0  0  0  0  0  0  0  0  0  0
  147.7735  134.3895  160.7802 C   0  0  0  0  0  0  0  0  0  0  0  0
  147.2243  133.2849  161.4594 C   0  0  0  0  0  0  0  0  0  0  0  0
  146.9001  133.4297  162.8232 C   0  0  0  0  0  0  0  0  0  0  0  0
  147.0898  134.5753  163.5132 N   0  0  0  0  0  0  0  0  0  0  0  0
  147.6162  135.6302  162.8543 C   0  0  0  0  0  0  0  0  0  0  0  0
  150.9519  142.0084  158.8826 C   0  0  0  0  0  0  0  0  0  0  0  0
  149.8475  142.4991  159.1219 O   0  0  0  0  0  0  0  0  0  0  0  0
  151.2299  143.8009  156.7023 H   0  0  0  0  0  0  0  0  0  0  0  0
  152.8810  143.2412  156.4460 H   0  0  0  0  0  0  0  0  0  0  0  0
  152.5324  144.9590  156.4835 H   0  0  0  0  0  0  0  0  0  0  0  0
  153.5786  144.2897  158.5927 H   0  0  0  0  0  0  0  0  0  0  0  0
  151.9597  146.1239  158.6204 H   0  0  0  0  0  0  0  0  0  0  0  0
  150.6453  145.0270  158.9382 H   0  0  0  0  0  0  0  0  0  0  0  0
  153.0246  145.5924  160.7710 H   0  0  0  0  0  0  0  0  0  0  0  0
  151.3729  146.0987  161.0361 H   0  0  0  0  0  0  0  0  0  0  0  0
  151.9536  144.0817  162.3944 H   0  0  0  0  0  0  0  0  0  0  0  0
  150.6366  143.7596  161.3007 H   0  0  0  0  0  0  0  0  0  0  0  0
  153.5720  143.0073  160.9184 H   0  0  0  0  0  0  0  0  0  0  0  0
  152.2685  141.9014  161.2413 H   0  0  0  0  0  0  0  0  0  0  0  0
  149.1813  140.3466  157.9465 H   0  0  0  0  0  0  0  0  0  0  0  0
  150.3066  139.5940  156.8556 H   0  0  0  0  0  0  0  0  0  0  0  0
  148.3378  138.1160  157.9318 H   0  0  0  0  0  0  0  0  0  0  0  0
  147.9384  136.0530  158.8638 H   0  0  0  0  0  0  0  0  0  0  0  0
  149.6572  135.9186  159.1544 H   0  0  0  0  0  0  0  0  0  0  0  0
  149.5125  137.0621  161.2896 H   0  0  0  0  0  0  0  0  0  0  0  0
  147.9040  137.6574  160.9596 H   0  0  0  0  0  0  0  0  0  0  0  0
  148.0362  134.3141  159.7350 H   0  0  0  0  0  0  0  0  0  0  0  0
  147.0559  132.3490  160.9474 H   0  0  0  0  0  0  0  0  0  0  0  0
  146.4776  132.6029  163.3748 H   0  0  0  0  0  0  0  0  0  0  0  0
  147.7571  136.5305  163.4339 H   0  0  0  0  0  0  0  0  0  0  0  0
  1  2  1  0  0  0  0
  1 26  1  0  0  0  0
  1 27  1  0  0  0  0
  1 28  1  0  0  0  0
  2  7  1  0  0  0  0
  2  3  1  0  0  0  0
  2 29  1  0  0  0  0
  3  4  1  0  0  0  0
  3 30  1  0  0  0  0
  3 31  1  0  0  0  0
  4  5  1  0  0  0  0
  4 32  1  0  0  0  0
  4 33  1  0  0  0  0
  5  6  1  0  0  0  0
  5 34  1  0  0  0  0
  5 35  1  0  0  0  0
  6  7  1  0  0  0  0
  6 36  1  0  0  0  0
  6 37  1  0  0  0  0
  7 24  1  0  0  0  0
  7  8  1  0  0  0  0
  8  9  1  0  0  0  0
  9 10  2  0  0  0  0
  9 11  1  0  0  0  0
 11 12  1  0  0  0  0
 11 24  1  0  0  0  0
 12 13  1  0  0  0  0
 12 38  1  0  0  0  0
 12 39  1  0  0  0  0
 13 14  2  0  0  0  0
 13 15  1  0  0  0  0
 15 16  1  0  0  0  0
 15 40  1  0  0  0  0
 16 17  1  0  0  0  0
 16 41  1  0  0  0  0
 16 42  1  0  0  0  0
 17 18  1  0  0  0  0
 17 43  1  0  0  0  0
 17 44  1  0  0  0  0
 18 23  1  0  0  0  0
 18 19  2  0  0  0  0
 19 20  1  0  0  0  0
 19 45  1  0  0  0  0
 20 21  2  0  0  0  0
 20 46  1  0  0  0  0
 21 22  1  0  0  0  0
 21 47  1  0  0  0  0
 22 23  2  0  0  0  0
 23 48  1  0  0  0  0
 24 25  2  0  0  0  0
M  CHG  1   8  -1
M  END
> <s_m_source_file>
AV-unprocessed.smi

> <i_m_source_file_index>
837

> <i_lp_mmshare_version>
43012

> <i_f3d_flags>
0

> <s_epik_input>
W0NIMl0xW0NIMl1bQ0gyXVtDSDJdW0NAQEhdKFtDSDNdKVtDQEBdMTJbTkhdQyg9TylOKEMyPU8pW0NIMl1DKD1PKVtOSF1bQ0gyXVtDSDJdYzNbY0hdW2NIXVtjSF1uW2NIXTM=

> <s_epik_cmdline>
J2VwaWtfcHl0aG9uJywgJy1waCcsICc3LjAnLCAnLXRuJywgJzgnLCAnLW1hJywgJzIwMCcsICctbWV0YWxfYmluZGluZycsICctaW1hZScsICc8aW5maWxlLm1hZT4nLCAnLW9tYWUnLCAnPG91dGZpbGUubWFlPic=

> <r_lp_tautomer_probability>
1

> <r_epik_Ionization_Penalty>
6.03002

> <r_epik_Ionization_Penalty_Charging>
6.01728

> <r_epik_Ionization_Penalty_Neutral>
0.0127382

> <r_epik_State_Penalty>
6.02713

> <r_epik_Charging_Adjusted_Penalty>
12.0444

> <i_epik_Tot_Q>
-1

> <i_epik_Tot_abs_Q>
1

> <r_epik_Metal_State_Penalty>
1.99078

> <b_epik_Metal_Only>
1

> <s_lp_Force_Field>
OPLS_2005

> <r_lp_Energy>
14.5441

> <b_lp_Chiralities_Consistent>
1

> <s_lp_Variant>
AV-unprocessed.smi:837-10

> <Gold.Version>
5.8.1

> <Gold.Id.Protein>
6NUR|6NUR_protein|mol2

> <Gold.PLP.Fitness>
49.5829

> <Gold.PLP.PLP>
-47.1320

> <Gold.PLP.part.hbond>
-3.8334

> <Gold.PLP.part.metal>
0.0000

> <Gold.PLP.part.buried>
-0.8482

> <Gold.PLP.part.nonpolar>
-42.7327

> <Gold.PLP.part.repulsive>
0.2146

> <Gold.PLP.ligand.clash>
0.0000

> <Gold.PLP.ligand.torsion>
0.2894

> <Gold.PLP.Chemscore.Hbond>
1.0000

> <Gold.PLP.Chemscore.CHOScore>
0.0000

> <Gold.PLP.Chemscore.Metal>
0.0000

> <Gold.Chemscore.Hbonds>
donor molecule, donor type, donor heavy atom, donor atom, acceptor molecule, acceptor atom, score
      P1  H  7997  8010       L1    10  1.00

> <Gold.PLP.Chemscore.Internal.Correction>
0.0296

> <Gold.Rescore>
     Score         DG    S(hbond)    S(metal)    S(lipo)     H(rot)  DE(clash)    DE(int)     intcor
     17.59     -19.62       0.95        0.00     133.23       1.81       1.76       0.26       ----

> <Gold.Chemscore.Fitness>
17.5935

> <Gold.Chemscore.DG>
-19.6166

> <Gold.Chemscore.ZeroCoef>
-5.4800

> <Gold.Chemscore.Hbond>
0.9520

> <Gold.Chemscore.Metal>
0.0000

> <Gold.Chemscore.Lipo>
133.2300

> <Gold.Chemscore.Internal_Hbond>
0.0000

> <Gold.Chemscore.DEClash>
1.7587

> <Gold.Chemscore.DEInternal>
0.2645

> <Gold.Chemscore.Rot>
1.8090

> <Gold.Chemscore.Internal.Correction>
   9.000000E+99

> <Gold.Chemscore.Hbonds>
donor molecule, donor type, donor heavy atom, donor atom, acceptor molecule, acceptor atom, score
      P1  H  7997  8010       L1    10  0.55

> <Gold.Chemscore.Hbond.Weighted>
-3.1797

> <Gold.Chemscore.Metal.Weighted>
-0.0000

> <Gold.Chemscore.Lipo.Weighted>
-15.5879

> <Gold.Chemscore.Internal_Hbond.Weighted>
0.0000

> <Gold.Chemscore.DEClash.Weighted>
1.7587

> <Gold.Chemscore.DEInternal.Weighted>
0.2645

> <Gold.Chemscore.Rot.Weighted>
4.6310

> <Gold.Chemscore.Internal.Correction.Weighted>
   9.000000E+99

> <Gold.Protein.RotatedTorsions>
[ 6907 6896 6895 6894 ] final   65.00 input  -60.11 | X-H torsion
[ 7974 7965 7964 7962 ] final  138.97 input  175.53 | X-H torsion
[ 8008 7997 7996 7995 ] final   49.04 input   59.86 | X-H torsion
[ 10167 10162 10161 10158 ] final  -61.30 input  -65.29 | X-H torsion
[ 10718 10713 10712 10709 ] final   56.49 input   66.30 | X-H torsion
[ 10763 10752 10751 10750 ] final  -89.03 input  -60.55 | X-H torsion
[ 11005 11000 10999 10996 ] final   57.55 input  -57.11 | X-H torsion

> <Gold.Protein.ActiveResidues>
 VAL166  LYS551  ARG553  GLY616  TRP617  ASP618  TYR619  PRO620  LYS621  CYS622 
 ASP623  PHE694  ASN695  SER759  ASP760  ASP761  ALA762  ILE779  LEU786  VAL792 
 PHE793  MET794  SER795  GLU796  ALA797  LYS798  CYS799  TRP800  GLU811  SER814 

> <Gold.Protein.RotatedAtoms>
  152.4375  134.5658  159.9906 H   0  0  0  0  0  0  0  0  0  0  0  0  # atno 6907 bound_to 6896
  151.5764  133.3377  159.3007 H   0  0  0  0  0  0  0  0  0  0  0  0  # atno 6908 bound_to 6896
  150.8275  134.7548  159.6890 H   0  0  0  0  0  0  0  0  0  0  0  0  # atno 6909 bound_to 6896
  144.9322  139.5033  143.5612 H   0  0  0  0  0  0  0  0  0  0  0  0  # atno 7974 bound_to 7965
  155.3956  140.3435  155.4254 H   0  0  0  0  0  0  0  0  0  0  0  0  # atno 8008 bound_to 7997
  156.1533  140.1577  156.8767 H   0  0  0  0  0  0  0  0  0  0  0  0  # atno 8009 bound_to 7997
  154.5072  140.0799  156.7898 H   0  0  0  0  0  0  0  0  0  0  0  0  # atno 8010 bound_to 7997
  140.6015  143.2362  151.5918 H   0  0  0  0  0  0  0  0  0  0  0  0  # atno 10167 bound_to 10162
  157.5435  130.8714  149.8857 H   0  0  0  0  0  0  0  0  0  0  0  0  # atno 10718 bound_to 10713
  154.6509  135.5355  153.7901 H   0  0  0  0  0  0  0  0  0  0  0  0  # atno 10763 bound_to 10752
  153.0386  135.6482  154.1018 H   0  0  0  0  0  0  0  0  0  0  0  0  # atno 10764 bound_to 10752
  154.0935  135.2938  155.3246 H   0  0  0  0  0  0  0  0  0  0  0  0  # atno 10765 bound_to 10752
  140.0444  134.5827  155.9341 H   0  0  0  0  0  0  0  0  0  0  0  0  # atno 11005 bound_to 11000
  146.3252  139.8281  142.8913 LP  0  0  0  0  0  0  0  0  0  0  0  0  # atno 17320 bound_to 7965
  145.3123  141.0223  143.3547 LP  0  0  0  0  0  0  0  0  0  0  0  0  # atno 17321 bound_to 7965
  139.5294  144.2960  152.1112 LP  0  0  0  0  0  0  0  0  0  0  0  0  # atno 17342 bound_to 10162
  140.2142  144.4532  150.6371 LP  0  0  0  0  0  0  0  0  0  0  0  0  # atno 17343 bound_to 10162
  156.0517  130.3716  150.1187 LP  0  0  0  0  0  0  0  0  0  0  0  0  # atno 17370 bound_to 10713
  156.9365  130.9730  151.3524 LP  0  0  0  0  0  0  0  0  0  0  0  0  # atno 17371 bound_to 10713
  141.1899  133.6567  156.5389 LP  0  0  0  0  0  0  0  0  0  0  0  0  # atno 17394 bound_to 11000
  140.4017  134.7350  157.4784 LP  0  0  0  0  0  0  0  0  0  0  0  0  # atno 17395 bound_to 11000

$$$$
