AV-unprocessed.smi:2779|AV-procd|sdf|10712|dock4
  -GOLD-   2272015153D 1   1.00000     0.00000
 Structure written by MMmdl.
 38 39  0  0  0  0  0  0  0  0  1 V2000
  147.9134  137.2263  161.7914 O   0  0  0  0  0  0  0  0  0  0  0  0
  147.7230  136.0210  161.6310 C   0  0  0  0  0  0  0  0  0  0  0  0
  147.1038  135.1675  162.6421 C   0  0  0  0  0  0  0  0  0  0  0  0
  146.9040  133.8486  162.4330 C   0  0  0  0  0  0  0  0  0  0  0  0
  147.3149  133.2533  161.1724 C   0  0  0  0  0  0  0  0  0  0  0  0
  147.1340  131.7922  160.8424 C   0  0  0  0  0  0  0  0  0  0  0  0
  145.8517  131.4364  160.9255 F   0  0  0  0  0  0  0  0  0  0  0  0
  147.5623  131.5454  159.6041 F   0  0  0  0  0  0  0  0  0  0  0  0
  147.8374  131.0410  161.6903 F   0  0  0  0  0  0  0  0  0  0  0  0
  147.8662  134.0037  160.2737 N   0  0  0  0  0  0  0  0  0  0  0  0
  148.0683  135.3565  160.4902 N   0  0  0  0  0  0  0  0  0  0  0  0
  148.6772  136.0588  159.3547 C   0  0  0  0  0  0  0  0  0  0  0  0
  148.6261  135.2110  158.0642 C   0  0  1  0  0  0  0  0  0  0  0  0
  149.3847  134.0332  158.2529 O   0  0  0  0  0  0  0  0  0  0  0  0
  147.1975  134.7708  157.7091 C   0  0  0  0  0  0  0  0  0  0  0  0
  147.2058  134.1463  156.4356 O   0  0  0  0  0  0  0  0  0  0  0  0
  146.1023  134.5227  155.6302 C   0  0  0  0  0  0  0  0  0  0  0  0
  146.3019  134.0949  154.1908 C   0  0  0  0  0  0  0  0  0  0  0  0
  145.3561  134.4607  153.2106 C   0  0  0  0  0  0  0  0  0  0  0  0
  145.5368  134.0655  151.8708 C   0  0  0  0  0  0  0  0  0  0  0  0
  146.6654  133.3058  151.5065 C   0  0  0  0  0  0  0  0  0  0  0  0
  147.6134  132.9418  152.4823 C   0  0  0  0  0  0  0  0  0  0  0  0
  147.4324  133.3356  153.8228 C   0  0  0  0  0  0  0  0  0  0  0  0
  149.0443  135.7627  157.2211 H   0  0  0  0  0  0  0  0  0  0  0  0
  146.7971  135.6057  163.5805 H   0  0  0  0  0  0  0  0  0  0  0  0
  146.4431  133.2379  163.1949 H   0  0  0  0  0  0  0  0  0  0  0  0
  148.2387  137.0460  159.1965 H   0  0  0  0  0  0  0  0  0  0  0  0
  149.7180  136.2605  159.6143 H   0  0  0  0  0  0  0  0  0  0  0  0
  149.0032  133.3429  157.7324 H   0  0  0  0  0  0  0  0  0  0  0  0
  146.8308  134.0606  158.4525 H   0  0  0  0  0  0  0  0  0  0  0  0
  146.5204  135.6269  157.7102 H   0  0  0  0  0  0  0  0  0  0  0  0
  145.1861  134.0768  156.0211 H   0  0  0  0  0  0  0  0  0  0  0  0
  145.9689  135.6055  155.6590 H   0  0  0  0  0  0  0  0  0  0  0  0
  144.4900  135.0452  153.4847 H   0  0  0  0  0  0  0  0  0  0  0  0
  144.8098  134.3452  151.1224 H   0  0  0  0  0  0  0  0  0  0  0  0
  146.8040  133.0029  150.4790 H   0  0  0  0  0  0  0  0  0  0  0  0
  148.4798  132.3607  152.2027 H   0  0  0  0  0  0  0  0  0  0  0  0
  148.1642  133.0539  154.5658 H   0  0  0  0  0  0  0  0  0  0  0  0
  1  2  2  0  0  0  0
  2 11  1  0  0  0  0
  2  3  1  0  0  0  0
  3  4  2  0  0  0  0
  3 25  1  0  0  0  0
  4  5  1  0  0  0  0
  4 26  1  0  0  0  0
  5  6  1  0  0  0  0
  5 10  2  0  0  0  0
  6  7  1  0  0  0  0
  6  8  1  0  0  0  0
  6  9  1  0  0  0  0
 10 11  1  0  0  0  0
 11 12  1  0  0  0  0
 12 13  1  0  0  0  0
 12 27  1  0  0  0  0
 12 28  1  0  0  0  0
 13 24  1  0  0  0  0
 13 14  1  0  0  0  0
 13 15  1  0  0  0  0
 14 29  1  0  0  0  0
 15 16  1  0  0  0  0
 15 30  1  0  0  0  0
 15 31  1  0  0  0  0
 16 17  1  0  0  0  0
 17 18  1  0  0  0  0
 17 32  1  0  0  0  0
 17 33  1  0  0  0  0
 18 23  1  0  0  0  0
 18 19  2  0  0  0  0
 19 20  1  0  0  0  0
 19 34  1  0  0  0  0
 20 21  2  0  0  0  0
 20 35  1  0  0  0  0
 21 22  1  0  0  0  0
 21 36  1  0  0  0  0
 22 23  2  0  0  0  0
 22 37  1  0  0  0  0
 23 38  1  0  0  0  0
M  END
> <s_m_source_file>
AV-unprocessed.smi

> <i_m_source_file_index>
2779

> <i_lp_mmshare_version>
43012

> <i_f3d_flags>
0

> <s_epik_input>
Tz1jMVtjSF1bY0hdYyhDKEYpKEYpRilubjFbQ0gyXVtDQEhdKFtPSF0pW0NIMl1PW0NIMl1jMltjSF1bY0hdW2NIXVtjSF1bY0hdMg==

> <s_epik_cmdline>
J2VwaWtfcHl0aG9uJywgJy1waCcsICc3LjAnLCAnLXRuJywgJzgnLCAnLW1hJywgJzIwMCcsICctbWV0YWxfYmluZGluZycsICctaW1hZScsICc8aW5maWxlLm1hZT4nLCAnLW9tYWUnLCAnPG91dGZpbGUubWFlPic=

> <r_lp_tautomer_probability>
1

> <r_epik_Ionization_Penalty>
6.7226e-08

> <r_epik_Ionization_Penalty_Charging>
6.11342e-09

> <r_epik_Ionization_Penalty_Neutral>
6.11126e-08

> <r_epik_State_Penalty>
-0

> <r_epik_Charging_Adjusted_Penalty>
6.11342e-09

> <i_epik_Tot_Q>
0

> <i_epik_Tot_abs_Q>
0

> <r_epik_Metal_State_Penalty>
-0

> <b_epik_Metal_Only>
0

> <s_lp_Force_Field>
OPLS_2005

> <r_lp_Energy>
32.3095

> <b_lp_Chiralities_Consistent>
1

> <s_lp_Variant>
AV-unprocessed.smi:2779-2

> <Gold.Version>
5.8.1

> <Gold.Id.Protein>
6NUR|6NUR_protein|mol2

> <Gold.PLP.Fitness>
43.7781

> <Gold.PLP.PLP>
-36.9103

> <Gold.PLP.part.hbond>
-3.0000

> <Gold.PLP.part.metal>
0.0000

> <Gold.PLP.part.buried>
-3.6961

> <Gold.PLP.part.nonpolar>
-30.7600

> <Gold.PLP.part.repulsive>
0.0000

> <Gold.PLP.ligand.clash>
0.0000

> <Gold.PLP.ligand.torsion>
0.5907

> <Gold.PLP.Chemscore.Hbond>
2.6320

> <Gold.PLP.Chemscore.CHOScore>
0.0000

> <Gold.PLP.Chemscore.Metal>
0.0000

> <Gold.Chemscore.Hbonds>
donor molecule, donor type, donor heavy atom, donor atom, acceptor molecule, acceptor atom, score
      P1  H  6896  6907       L1    14  1.00
      P1  H  6931  6943       L1     1  0.98
      P1  H  6934  6947       L1     1  0.47

> <Gold.PLP.Chemscore.Internal.Correction>
0.1532

> <Gold.Rescore>
     Score         DG    S(hbond)    S(metal)    S(lipo)     H(rot)  DE(clash)    DE(int)     intcor
     12.96     -14.91       2.75        0.00      63.32       2.80       0.01       1.93       ----

> <Gold.Chemscore.Fitness>
12.9622

> <Gold.Chemscore.DG>
-14.9057

> <Gold.Chemscore.ZeroCoef>
-5.4800

> <Gold.Chemscore.Hbond>
2.7518

> <Gold.Chemscore.Metal>
0.0000

> <Gold.Chemscore.Lipo>
63.3196

> <Gold.Chemscore.Internal_Hbond>
0.0000

> <Gold.Chemscore.DEClash>
0.0106

> <Gold.Chemscore.DEInternal>
1.9330

> <Gold.Chemscore.Rot>
2.8022

> <Gold.Chemscore.Internal.Correction>
   9.000000E+99

> <Gold.Chemscore.Hbonds>
donor molecule, donor type, donor heavy atom, donor atom, acceptor molecule, acceptor atom, score
      P1  H  6896  6907       L1    14  0.96
      P1  H  6931  6943       L1     1  0.89
      P1  H  6934  6947       L1     1  0.47

> <Gold.Chemscore.Hbond.Weighted>
-9.1910

> <Gold.Chemscore.Metal.Weighted>
-0.0000

> <Gold.Chemscore.Lipo.Weighted>
-7.4084

> <Gold.Chemscore.Internal_Hbond.Weighted>
0.0000

> <Gold.Chemscore.DEClash.Weighted>
0.0106

> <Gold.Chemscore.DEInternal.Weighted>
1.9330

> <Gold.Chemscore.Rot.Weighted>
7.1736

> <Gold.Chemscore.Internal.Correction.Weighted>
   9.000000E+99

> <Gold.Protein.RotatedTorsions>
[ 6907 6896 6895 6894 ] final -100.02 input  -60.11 | X-H torsion
[ 7974 7965 7964 7962 ] final  166.77 input  175.53 | X-H torsion
[ 8008 7997 7996 7995 ] final   91.99 input   59.86 | X-H torsion
[ 10167 10162 10161 10158 ] final -151.51 input  -65.29 | X-H torsion
[ 10718 10713 10712 10709 ] final -132.61 input   66.30 | X-H torsion
[ 10763 10752 10751 10750 ] final  -39.86 input  -60.55 | X-H torsion
[ 11005 11000 10999 10996 ] final  149.01 input  -57.11 | X-H torsion

> <Gold.Protein.ActiveResidues>
 VAL166  LYS551  ARG553  GLY616  TRP617  ASP618  TYR619  PRO620  LYS621  CYS622 
 ASP623  PHE694  ASN695  SER759  ASP760  ASP761  ALA762  ILE779  LEU786  VAL792 
 PHE793  MET794  SER795  GLU796  ALA797  LYS798  CYS799  TRP800  GLU811  SER814 

> <Gold.Protein.RotatedAtoms>
  150.7101  134.0951  159.3945 H   0  0  0  0  0  0  0  0  0  0  0  0  # atno 6907 bound_to 6896
  151.8936  135.0404  160.0509 H   0  0  0  0  0  0  0  0  0  0  0  0  # atno 6908 bound_to 6896
  152.2471  133.5148  159.5340 H   0  0  0  0  0  0  0  0  0  0  0  0  # atno 6909 bound_to 6896
  144.7449  139.8664  143.6385 H   0  0  0  0  0  0  0  0  0  0  0  0  # atno 7974 bound_to 7965
  156.0302  140.3331  155.7131 H   0  0  0  0  0  0  0  0  0  0  0  0  # atno 8008 bound_to 7997
  155.5896  140.0645  157.2780 H   0  0  0  0  0  0  0  0  0  0  0  0  # atno 8009 bound_to 7997
  154.4350  140.1829  156.1049 H   0  0  0  0  0  0  0  0  0  0  0  0  # atno 8010 bound_to 7997
  139.7261  143.8881  152.2519 H   0  0  0  0  0  0  0  0  0  0  0  0  # atno 10167 bound_to 10162
  156.2364  130.7069  151.0912 H   0  0  0  0  0  0  0  0  0  0  0  0  # atno 10718 bound_to 10713
  153.9364  135.6766  153.4745 H   0  0  0  0  0  0  0  0  0  0  0  0  # atno 10763 bound_to 10752
  153.0953  135.4854  154.8764 H   0  0  0  0  0  0  0  0  0  0  0  0  # atno 10764 bound_to 10752
  154.7400  135.3158  154.8702 H   0  0  0  0  0  0  0  0  0  0  0  0  # atno 10765 bound_to 10752
  140.1008  134.8984  157.1793 H   0  0  0  0  0  0  0  0  0  0  0  0  # atno 11005 bound_to 11000
  146.1311  139.4347  143.0168 LP  0  0  0  0  0  0  0  0  0  0  0  0  # atno 17320 bound_to 7965
  145.7161  141.0090  143.1427 LP  0  0  0  0  0  0  0  0  0  0  0  0  # atno 17321 bound_to 7965
  139.8791  144.7027  150.8899 LP  0  0  0  0  0  0  0  0  0  0  0  0  # atno 17342 bound_to 10162
  140.7763  143.3676  151.1710 LP  0  0  0  0  0  0  0  0  0  0  0  0  # atno 17343 bound_to 10162
  157.7156  131.0711  150.6339 LP  0  0  0  0  0  0  0  0  0  0  0  0  # atno 17370 bound_to 10713
  156.6409  130.4458  149.5753 LP  0  0  0  0  0  0  0  0  0  0  0  0  # atno 17371 bound_to 10713
  140.3222  134.2903  155.7244 LP  0  0  0  0  0  0  0  0  0  0  0  0  # atno 17394 bound_to 11000
  141.2105  133.7717  156.9927 LP  0  0  0  0  0  0  0  0  0  0  0  0  # atno 17395 bound_to 11000

$$$$
