AV-unprocessed.smi:1261|AV-procd|sdf|5307|dock5
  -GOLD-   22720 4433D 1   1.00000     0.00000
 Structure written by MMmdl.
 50 51  0  0  0  0  0  0  0  0  2 V2000
  145.4498  131.8586  150.3613 C   0  0  0  0  0  0  0  0  0  0  0  0
  145.5250  132.8575  151.5247 C   0  0  2  0  0  0  0  0  0  0  0  0
  144.3467  133.8467  151.4901 C   0  0  0  0  0  0  0  0  0  0  0  0
  144.4546  134.8749  152.6299 C   0  0  2  0  0  0  0  0  0  0  0  0
  143.2980  135.8832  152.5839 C   0  0  0  0  0  0  0  0  0  0  0  0
  145.8229  135.5864  152.5731 C   0  0  0  0  0  0  0  0  0  0  0  0
  146.9570  134.6264  152.6163 N   0  3  1  0  0  0  0  0  0  0  0  0
  147.2041  134.0599  153.9698 C   0  0  0  0  0  0  0  0  0  0  0  0
  147.8141  135.0895  154.9355 C   0  0  0  0  0  0  0  0  0  0  0  0
  149.3512  135.0777  154.9065 C   0  0  0  0  0  0  0  0  0  0  0  0
  149.8886  136.3756  154.5178 N   0  0  0  0  0  0  0  0  0  0  0  0
  151.1050  136.8428  154.8480 C   0  0  0  0  0  0  0  0  0  0  0  0
  151.9010  136.1967  155.5285 O   0  0  0  0  0  0  0  0  0  0  0  0
  151.5144  138.2387  154.3450 C   0  0  0  0  0  0  0  0  0  0  0  0
  151.0224  139.3637  155.1567 N   0  0  0  0  0  0  0  0  0  0  0  0
  150.1845  140.2306  154.4715 N   0  0  0  0  0  0  0  0  0  0  0  0
  149.6884  141.2586  155.0729 C   0  0  0  0  0  0  0  0  0  0  0  0
  148.8619  142.0899  154.3578 O   0  0  0  0  0  0  0  0  0  0  0  0
  149.9905  141.5312  156.4608 C   0  0  0  0  0  0  0  0  0  0  0  0
  150.8058  140.6798  157.1208 C   0  0  0  0  0  0  0  0  0  0  0  0
  151.3822  139.5020  156.4700 C   0  0  0  0  0  0  0  0  0  0  0  0
  152.1160  138.7027  157.0505 O   0  0  0  0  0  0  0  0  0  0  0  0
  146.8675  133.6214  151.5213 C   0  0  0  0  0  0  0  0  0  0  0  0
  148.8337  142.8981  154.8461 H   0  0  0  0  0  0  0  0  0  0  0  0
  145.5133  132.3650  149.3976 H   0  0  0  0  0  0  0  0  0  0  0  0
  144.5135  131.3003  150.3826 H   0  0  0  0  0  0  0  0  0  0  0  0
  146.2642  131.1354  150.4114 H   0  0  0  0  0  0  0  0  0  0  0  0
  145.4536  132.2782  152.4452 H   0  0  0  0  0  0  0  0  0  0  0  0
  144.3281  134.3635  150.5293 H   0  0  0  0  0  0  0  0  0  0  0  0
  143.4038  133.3037  151.5677 H   0  0  0  0  0  0  0  0  0  0  0  0
  144.3806  134.3413  153.5784 H   0  0  0  0  0  0  0  0  0  0  0  0
  143.3065  136.4564  151.6561 H   0  0  0  0  0  0  0  0  0  0  0  0
  143.3597  136.5898  153.4122 H   0  0  0  0  0  0  0  0  0  0  0  0
  142.3340  135.3784  152.6543 H   0  0  0  0  0  0  0  0  0  0  0  0
  145.8979  136.1602  151.6482 H   0  0  0  0  0  0  0  0  0  0  0  0
  145.9152  136.3107  153.3836 H   0  0  0  0  0  0  0  0  0  0  0  0
  146.2537  133.7305  154.3918 H   0  0  0  0  0  0  0  0  0  0  0  0
  147.8321  133.1713  153.9112 H   0  0  0  0  0  0  0  0  0  0  0  0
  147.4640  136.0908  154.6869 H   0  0  0  0  0  0  0  0  0  0  0  0
  147.4700  134.8847  155.9502 H   0  0  0  0  0  0  0  0  0  0  0  0
  149.7414  134.8349  155.8951 H   0  0  0  0  0  0  0  0  0  0  0  0
  149.7170  134.3039  154.2293 H   0  0  0  0  0  0  0  0  0  0  0  0
  149.2925  136.9688  153.9582 H   0  0  0  0  0  0  0  0  0  0  0  0
  152.6022  138.2749  154.2676 H   0  0  0  0  0  0  0  0  0  0  0  0
  151.1534  138.3418  153.3201 H   0  0  0  0  0  0  0  0  0  0  0  0
  149.5700  142.3974  156.9506 H   0  0  0  0  0  0  0  0  0  0  0  0
  151.0401  140.8712  158.1577 H   0  0  0  0  0  0  0  0  0  0  0  0
  147.7030  132.9244  151.5678 H   0  0  0  0  0  0  0  0  0  0  0  0
  146.9778  134.1508  150.5738 H   0  0  0  0  0  0  0  0  0  0  0  0
  147.7781  135.1802  152.4181 H   0  0  0  0  0  0  0  0  0  0  0  0
  1  2  1  0  0  0  0
  1 25  1  0  0  0  0
  1 26  1  0  0  0  0
  1 27  1  0  0  0  0
  2 23  1  0  0  0  0
  2  3  1  0  0  0  0
  2 28  1  0  0  0  0
  3  4  1  0  0  0  0
  3 29  1  0  0  0  0
  3 30  1  0  0  0  0
  4  5  1  0  0  0  0
  4  6  1  0  0  0  0
  4 31  1  0  0  0  0
  5 32  1  0  0  0  0
  5 33  1  0  0  0  0
  5 34  1  0  0  0  0
  6  7  1  0  0  0  0
  6 35  1  0  0  0  0
  6 36  1  0  0  0  0
  7  8  1  0  0  0  0
  7 23  1  0  0  0  0
  7 50  1  0  0  0  0
  8  9  1  0  0  0  0
  8 37  1  0  0  0  0
  8 38  1  0  0  0  0
  9 10  1  0  0  0  0
  9 39  1  0  0  0  0
  9 40  1  0  0  0  0
 10 11  1  0  0  0  0
 10 41  1  0  0  0  0
 10 42  1  0  0  0  0
 11 12  1  0  0  0  0
 11 43  1  0  0  0  0
 12 13  2  0  0  0  0
 12 14  1  0  0  0  0
 14 44  1  0  0  0  0
 14 45  1  0  0  0  0
 14 15  1  0  0  0  0
 15 16  1  0  0  0  0
 15 21  1  0  0  0  0
 16 17  2  0  0  0  0
 17 18  1  0  0  0  0
 17 19  1  0  0  0  0
 18 24  1  0  0  0  0
 19 46  1  0  0  0  0
 19 20  2  0  0  0  0
 20 47  1  0  0  0  0
 20 21  1  0  0  0  0
 21 22  2  0  0  0  0
 23 48  1  0  0  0  0
 23 49  1  0  0  0  0
M  CHG  1   7   1
M  END
> <s_m_source_file>
AV-unprocessed.smi

> <i_m_source_file_index>
1261

> <i_lp_mmshare_version>
43012

> <i_f3d_flags>
0

> <s_epik_input>
W0NIM11bQ0BASF0xW0NIMl1bQ0BASF0oW0NIM10pW0NIMl1OKFtDSDJdMSlbQ0gyXVtDSDJdW0NIMl1bTkhdQyg9TylbQ0gyXW4yW25IXWMoPU8pW2NIXVtjSF1jMj1P

> <s_epik_cmdline>
J2VwaWtfcHl0aG9uJywgJy1waCcsICc3LjAnLCAnLXRuJywgJzgnLCAnLW1hJywgJzIwMCcsICctbWV0YWxfYmluZGluZycsICctaW1hZScsICc8aW5maWxlLm1hZT4nLCAnLW9tYWUnLCAnPG91dGZpbGUubWFlPic=

> <r_lp_tautomer_probability>
0.9996

> <r_epik_Ionization_Penalty>
2.1425

> <r_epik_Ionization_Penalty_Charging>
0.000312112

> <r_epik_Ionization_Penalty_Neutral>
2.14218

> <r_epik_State_Penalty>
1.71978

> <r_epik_Charging_Adjusted_Penalty>
1.72009

> <i_epik_Tot_Q>
1

> <i_epik_Tot_abs_Q>
1

> <r_epik_Metal_State_Penalty>
1.71978

> <b_epik_Metal_Only>
0

> <s_lp_Force_Field>
OPLS_2005

> <r_lp_Energy>
29.2022

> <b_lp_Chiralities_Consistent>
1

> <s_lp_Variant>
AV-unprocessed.smi:1261-7

> <Gold.Version>
5.8.1

> <Gold.Id.Protein>
6NUR|6NUR_protein|mol2

> <Gold.PLP.Fitness>
53.1882

> <Gold.PLP.PLP>
-39.7060

> <Gold.PLP.part.hbond>
-6.0000

> <Gold.PLP.part.metal>
0.0000

> <Gold.PLP.part.buried>
-6.3289

> <Gold.PLP.part.nonpolar>
-28.3395

> <Gold.PLP.part.repulsive>
0.1976

> <Gold.PLP.ligand.clash>
0.0000

> <Gold.PLP.ligand.torsion>
1.2093

> <Gold.PLP.Chemscore.Hbond>
5.2376

> <Gold.PLP.Chemscore.CHOScore>
0.0000

> <Gold.PLP.Chemscore.Metal>
0.0000

> <Gold.Chemscore.Hbonds>
donor molecule, donor type, donor heavy atom, donor atom, acceptor molecule, acceptor atom, score
      L1  H     7    50       P1  7948  2.00
      L1  H    11    43       P1  7948  0.14
      L1  H    18    24       P1  8028  1.00
      P1  H  7989  7998       L1    16  0.55
      P1  H  8011  8017       L1    18  0.16
      P1  H 10752 10764       L1    13  0.89

> <Gold.PLP.Chemscore.Internal.Correction>
0.1880

> <Gold.Rescore>
     Score         DG    S(hbond)    S(metal)    S(lipo)     H(rot)  DE(clash)    DE(int)     intcor
     14.17     -15.60       2.99        0.00      69.75       3.14       0.00       1.42       ----

> <Gold.Chemscore.Fitness>
14.1736

> <Gold.Chemscore.DG>
-15.6005

> <Gold.Chemscore.ZeroCoef>
-5.4800

> <Gold.Chemscore.Hbond>
2.9897

> <Gold.Chemscore.Metal>
0.0000

> <Gold.Chemscore.Lipo>
69.7518

> <Gold.Chemscore.Internal_Hbond>
0.0000

> <Gold.Chemscore.DEClash>
0.0044

> <Gold.Chemscore.DEInternal>
1.4225

> <Gold.Chemscore.Rot>
3.1352

> <Gold.Chemscore.Internal.Correction>
   9.000000E+99

> <Gold.Chemscore.Hbonds>
donor molecule, donor type, donor heavy atom, donor atom, acceptor molecule, acceptor atom, score
      L1  H     7    50       P1  7948  0.98
      L1  H    11    43       P1  7948  0.14
      L1  H    18    24       P1  8028  0.98
      P1  H  7989  7998       L1    16  0.02
      P1  H  8011  8017       L1    18  0.08
      P1  H 10752 10764       L1    13  0.70

> <Gold.Chemscore.Hbond.Weighted>
-9.9855

> <Gold.Chemscore.Metal.Weighted>
-0.0000

> <Gold.Chemscore.Lipo.Weighted>
-8.1610

> <Gold.Chemscore.Internal_Hbond.Weighted>
0.0000

> <Gold.Chemscore.DEClash.Weighted>
0.0044

> <Gold.Chemscore.DEInternal.Weighted>
1.4225

> <Gold.Chemscore.Rot.Weighted>
8.0260

> <Gold.Chemscore.Internal.Correction.Weighted>
   9.000000E+99

> <Gold.Protein.RotatedTorsions>
[ 6907 6896 6895 6894 ] final   76.83 input  -60.11 | X-H torsion
[ 7974 7965 7964 7962 ] final -159.27 input  175.53 | X-H torsion
[ 8008 7997 7996 7995 ] final -152.50 input   59.86 | X-H torsion
[ 10167 10162 10161 10158 ] final  -99.36 input  -65.29 | X-H torsion
[ 10718 10713 10712 10709 ] final -131.04 input   66.30 | X-H torsion
[ 10763 10752 10751 10750 ] final  -54.82 input  -60.55 | X-H torsion
[ 11005 11000 10999 10996 ] final  -50.88 input  -57.11 | X-H torsion

> <Gold.Protein.ActiveResidues>
 VAL166  LYS551  ARG553  GLY616  TRP617  ASP618  TYR619  PRO620  LYS621  CYS622 
 ASP623  PHE694  ASN695  SER759  ASP760  ASP761  ALA762  ILE779  LEU786  VAL792 
 PHE793  MET794  SER795  GLU796  ALA797  LYS798  CYS799  TRP800  GLU811  SER814 

> <Gold.Protein.RotatedAtoms>
  152.5091  134.3909  159.9383 H   0  0  0  0  0  0  0  0  0  0  0  0  # atno 6907 bound_to 6896
  151.3869  133.3796  159.2724 H   0  0  0  0  0  0  0  0  0  0  0  0  # atno 6908 bound_to 6896
  150.9462  134.8887  159.7702 H   0  0  0  0  0  0  0  0  0  0  0  0  # atno 6909 bound_to 6896
  144.7472  140.3709  143.6076 H   0  0  0  0  0  0  0  0  0  0  0  0  # atno 7974 bound_to 7965
  155.6561  140.0717  157.2570 H   0  0  0  0  0  0  0  0  0  0  0  0  # atno 8008 bound_to 7997
  154.4152  140.1724  156.1776 H   0  0  0  0  0  0  0  0  0  0  0  0  # atno 8009 bound_to 7997
  155.9737  140.3360  155.6602 H   0  0  0  0  0  0  0  0  0  0  0  0  # atno 8010 bound_to 7997
  140.2632  143.3393  152.0605 H   0  0  0  0  0  0  0  0  0  0  0  0  # atno 10167 bound_to 10162
  156.2204  130.6975  151.0750 H   0  0  0  0  0  0  0  0  0  0  0  0  # atno 10718 bound_to 10713
  154.1810  135.6443  153.5034 H   0  0  0  0  0  0  0  0  0  0  0  0  # atno 10763 bound_to 10752
  153.0059  135.5406  154.6514 H   0  0  0  0  0  0  0  0  0  0  0  0  # atno 10764 bound_to 10752
  154.5878  135.2931  155.0639 H   0  0  0  0  0  0  0  0  0  0  0  0  # atno 10765 bound_to 10752
  141.0840  133.6646  156.3796 H   0  0  0  0  0  0  0  0  0  0  0  0  # atno 11005 bound_to 11000
  145.7078  139.1677  143.2556 LP  0  0  0  0  0  0  0  0  0  0  0  0  # atno 17320 bound_to 7965
  146.1369  140.7111  142.9385 LP  0  0  0  0  0  0  0  0  0  0  0  0  # atno 17321 bound_to 7965
  139.5010  144.6705  151.6255 LP  0  0  0  0  0  0  0  0  0  0  0  0  # atno 17342 bound_to 10162
  140.5949  143.9714  150.6348 LP  0  0  0  0  0  0  0  0  0  0  0  0  # atno 17343 bound_to 10162
  157.7085  131.0745  150.6585 LP  0  0  0  0  0  0  0  0  0  0  0  0  # atno 17370 bound_to 10713
  156.6648  130.4522  149.5676 LP  0  0  0  0  0  0  0  0  0  0  0  0  # atno 17371 bound_to 10713
  140.5404  134.6126  157.5378 LP  0  0  0  0  0  0  0  0  0  0  0  0  # atno 17394 bound_to 11000
  139.9657  134.7377  156.0144 LP  0  0  0  0  0  0  0  0  0  0  0  0  # atno 17395 bound_to 11000

$$$$
