AV-unprocessed.smi:69|AV-procd|sdf|651|dock6
  -GOLD-   2262016553D 1   1.00000     0.00000
 Structure written by MMmdl.
 32 34  0  0  0  0  0  0  0  0  1 V2000
  142.6338  138.6055  154.2201 N   0  0  0  0  0  0  0  0  0  0  0  0
  142.9261  137.3490  153.8576 C   0  0  0  0  0  0  0  0  0  0  0  0
  142.1139  136.3519  154.2813 N   0  0  0  0  0  0  0  0  0  0  0  0
  142.3817  135.0891  153.9308 C   0  0  0  0  0  0  0  0  0  0  0  0
  143.3866  134.6238  153.1832 N   0  0  0  0  0  0  0  0  0  0  0  0
  144.2030  135.6330  152.7607 C   0  0  0  0  0  0  0  0  0  0  0  0
  144.0429  137.0153  153.0509 C   0  0  0  0  0  0  0  0  0  0  0  0
  145.0598  137.7453  152.4485 N   0  0  0  0  0  0  0  0  0  0  0  0
  145.7768  136.8400  151.8366 C   0  0  0  0  0  0  0  0  0  0  0  0
  145.3292  135.5429  151.9741 N   0  0  0  0  0  0  0  0  0  0  0  0
  145.8977  134.2840  151.4033 C   0  0  2  0  0  0  0  0  0  0  0  0
  144.8482  133.5095  150.9282 O   0  0  0  0  0  0  0  0  0  0  0  0
  145.2962  132.1648  150.8774 C   0  0  2  0  0  0  0  0  0  0  0  0
  144.0936  131.2140  150.7822 C   0  0  0  0  0  0  0  0  0  0  0  0
  143.2640  131.5895  149.7038 O   0  0  0  0  0  0  0  0  0  0  0  0
  146.0893  132.0221  152.1849 C   0  0  1  0  0  0  0  0  0  0  0  0
  147.1448  131.0976  152.0134 O   0  0  0  0  0  0  0  0  0  0  0  0
  146.6402  133.4249  152.4478 C   0  0  2  0  0  0  0  0  0  0  0  0
  146.4049  133.8137  153.7902 O   0  0  0  0  0  0  0  0  0  0  0  0
  146.5334  134.5992  150.5738 H   0  0  0  0  0  0  0  0  0  0  0  0
  145.9625  132.0462  150.0196 H   0  0  0  0  0  0  0  0  0  0  0  0
  145.4337  131.7001  152.9958 H   0  0  0  0  0  0  0  0  0  0  0  0
  147.7097  133.4962  152.2435 H   0  0  0  0  0  0  0  0  0  0  0  0
  143.2236  139.3666  153.9154 H   0  0  0  0  0  0  0  0  0  0  0  0
  141.8243  138.7887  154.7952 H   0  0  0  0  0  0  0  0  0  0  0  0
  141.6921  134.3454  154.3019 H   0  0  0  0  0  0  0  0  0  0  0  0
  146.6546  137.0973  151.2616 H   0  0  0  0  0  0  0  0  0  0  0  0
  144.4356  130.1963  150.5919 H   0  0  0  0  0  0  0  0  0  0  0  0
  143.5253  131.1974  151.7126 H   0  0  0  0  0  0  0  0  0  0  0  0
  142.3703  131.6230  150.0092 H   0  0  0  0  0  0  0  0  0  0  0  0
  147.7544  131.4530  151.3844 H   0  0  0  0  0  0  0  0  0  0  0  0
  145.6722  134.4102  153.8042 H   0  0  0  0  0  0  0  0  0  0  0  0
  1  2  1  0  0  0  0
  1 24  1  0  0  0  0
  1 25  1  0  0  0  0
  2  7  1  0  0  0  0
  2  3  2  0  0  0  0
  3  4  1  0  0  0  0
  4  5  2  0  0  0  0
  4 26  1  0  0  0  0
  5  6  1  0  0  0  0
  6 10  1  0  0  0  0
  6  7  2  0  0  0  0
  7  8  1  0  0  0  0
  8  9  2  0  0  0  0
  9 10  1  0  0  0  0
  9 27  1  0  0  0  0
 10 11  1  0  0  0  0
 11 20  1  0  0  0  0
 11 18  1  0  0  0  0
 11 12  1  0  0  0  0
 12 13  1  0  0  0  0
 13 21  1  0  0  0  0
 13 14  1  0  0  0  0
 13 16  1  0  0  0  0
 14 15  1  0  0  0  0
 14 28  1  0  0  0  0
 14 29  1  0  0  0  0
 15 30  1  0  0  0  0
 16 22  1  0  0  0  0
 16 17  1  0  0  0  0
 16 18  1  0  0  0  0
 17 31  1  0  0  0  0
 18 23  1  0  0  0  0
 18 19  1  0  0  0  0
 19 32  1  0  0  0  0
M  END
> <s_m_source_file>
AV-unprocessed.smi

> <i_m_source_file_index>
69

> <i_lp_mmshare_version>
43012

> <i_f3d_flags>
0

> <s_epik_input>
bjFbY0hdbmMoW05IMl0pYyhjMTIpbltjSF1uMltDQEBIXTNPW0NASF0oW0NIMl1bT0hdKVtDQEBIXShbT0hdKVtDQEhdM1tPSF0=

> <s_epik_cmdline>
J2VwaWtfcHl0aG9uJywgJy1waCcsICc3LjAnLCAnLXRuJywgJzgnLCAnLW1hJywgJzIwMCcsICctbWV0YWxfYmluZGluZycsICctaW1hZScsICc8aW5maWxlLm1hZT4nLCAnLW9tYWUnLCAnPG91dGZpbGUubWFlPic=

> <r_lp_tautomer_probability>
1

> <r_epik_Ionization_Penalty>
0.000428445

> <r_epik_Ionization_Penalty_Charging>
0

> <r_epik_Ionization_Penalty_Neutral>
0.000428445

> <r_epik_State_Penalty>
-0

> <r_epik_Charging_Adjusted_Penalty>
0

> <i_epik_Tot_Q>
0

> <i_epik_Tot_abs_Q>
0

> <r_epik_Metal_State_Penalty>
-0

> <b_epik_Metal_Only>
0

> <s_epik_Chemistry_Notes>
This compound contains an acetal/aminal-like group ( X-CH(R)-Y where X, Y are N, S, or O) that may be acid/base labile, releasing an aldehyde.

> <s_lp_Force_Field>
OPLS_2005

> <r_lp_Energy>
36.244

> <b_lp_Chiralities_Consistent>
1

> <s_lp_Variant>
AV-unprocessed.smi:69-9

> <Gold.Version>
5.8.1

> <Gold.Id.Protein>
6NUR|6NUR_protein|mol2

> <Gold.PLP.Fitness>
38.1043

> <Gold.PLP.PLP>
-24.3418

> <Gold.PLP.part.hbond>
-4.0000

> <Gold.PLP.part.metal>
0.0000

> <Gold.PLP.part.buried>
-5.9259

> <Gold.PLP.part.nonpolar>
-19.0946

> <Gold.PLP.part.repulsive>
2.3470

> <Gold.PLP.ligand.clash>
0.0000

> <Gold.PLP.ligand.torsion>
0.4685

> <Gold.PLP.Chemscore.Hbond>
3.2827

> <Gold.PLP.Chemscore.CHOScore>
1.6128

> <Gold.PLP.Chemscore.Metal>
0.0000

> <Gold.Chemscore.Hbonds>
donor molecule, donor type, donor heavy atom, donor atom, acceptor molecule, acceptor atom, score
      L1  H     1    24       P1 10175  0.88
      L1  H    15    30       P1 10952  0.54
      L1  H    17    31       P1 10747  0.75
      P1  H 10785 10796       L1    15  1.00
      L1  C     4    26       P1 10957  0.30
      L1  C     4    26       P1 11000  0.54
      L1  C     9    27       P1  7948  0.86

> <Gold.PLP.Chemscore.Internal.Correction>
0.0132

> <Gold.Rescore>
     Score         DG    S(hbond)    S(metal)    S(lipo)     H(rot)  DE(clash)    DE(int)     intcor
      5.69      -7.95       2.65        0.00      33.56       4.03       0.31       1.94       ----

> <Gold.Chemscore.Fitness>
5.6911

> <Gold.Chemscore.DG>
-7.9487

> <Gold.Chemscore.ZeroCoef>
-5.4800

> <Gold.Chemscore.Hbond>
2.6505

> <Gold.Chemscore.Metal>
0.0000

> <Gold.Chemscore.Lipo>
33.5636

> <Gold.Chemscore.Internal_Hbond>
0.0000

> <Gold.Chemscore.DEClash>
0.3136

> <Gold.Chemscore.DEInternal>
1.9440

> <Gold.Chemscore.Rot>
4.0277

> <Gold.Chemscore.Internal.Correction>
   9.000000E+99

> <Gold.Chemscore.Hbonds>
donor molecule, donor type, donor heavy atom, donor atom, acceptor molecule, acceptor atom, score
      L1  H     1    24       P1 10175  0.87
      L1  H    15    30       P1 10952  0.48
      L1  H    17    31       P1 10747  0.76
      P1  H 10785 10796       L1    15  0.10

> <Gold.Chemscore.Hbond.Weighted>
-8.8527

> <Gold.Chemscore.Metal.Weighted>
-0.0000

> <Gold.Chemscore.Lipo.Weighted>
-3.9269

> <Gold.Chemscore.Internal_Hbond.Weighted>
0.0000

> <Gold.Chemscore.DEClash.Weighted>
0.3136

> <Gold.Chemscore.DEInternal.Weighted>
1.9440

> <Gold.Chemscore.Rot.Weighted>
10.3110

> <Gold.Chemscore.Internal.Correction.Weighted>
   9.000000E+99

> <Gold.Protein.RotatedTorsions>
[ 6907 6896 6895 6894 ] final  -17.86 input  -60.11 | X-H torsion
[ 7974 7965 7964 7962 ] final   -5.11 input  175.53 | X-H torsion
[ 8008 7997 7996 7995 ] final   28.85 input   59.86 | X-H torsion
[ 10167 10162 10161 10158 ] final -172.77 input  -65.29 | X-H torsion
[ 10718 10713 10712 10709 ] final  134.30 input   66.30 | X-H torsion
[ 10763 10752 10751 10750 ] final  131.73 input  -60.55 | X-H torsion
[ 11005 11000 10999 10996 ] final -140.70 input  -57.11 | X-H torsion

> <Gold.Protein.ActiveResidues>
 VAL166  LYS551  ARG553  GLY616  TRP617  ASP618  TYR619  PRO620  LYS621  CYS622 
 ASP623  PHE694  ASN695  SER759  ASP760  ASP761  ALA762  ILE779  LEU786  VAL792 
 PHE793  MET794  SER795  GLU796  ALA797  LYS798  CYS799  TRP800  GLU811  SER814 

> <Gold.Protein.RotatedAtoms>
  151.2869  135.0730  159.9189 H   0  0  0  0  0  0  0  0  0  0  0  0  # atno 6907 bound_to 6896
  152.5324  133.9972  159.7888 H   0  0  0  0  0  0  0  0  0  0  0  0  # atno 6908 bound_to 6896
  151.0236  133.5803  159.2699 H   0  0  0  0  0  0  0  0  0  0  0  0  # atno 6909 bound_to 6896
  146.2359  140.1973  142.8333 H   0  0  0  0  0  0  0  0  0  0  0  0  # atno 7974 bound_to 7965
  155.0652  140.3194  155.4648 H   0  0  0  0  0  0  0  0  0  0  0  0  # atno 8008 bound_to 7997
  156.2803  140.2121  156.5724 H   0  0  0  0  0  0  0  0  0  0  0  0  # atno 8009 bound_to 7997
  154.7099  140.0499  157.0528 H   0  0  0  0  0  0  0  0  0  0  0  0  # atno 8010 bound_to 7997
  139.5726  144.1607  152.1405 H   0  0  0  0  0  0  0  0  0  0  0  0  # atno 10167 bound_to 10162
  157.4686  131.1078  150.9831 H   0  0  0  0  0  0  0  0  0  0  0  0  # atno 10718 bound_to 10713
  153.7792  135.3171  155.3363 H   0  0  0  0  0  0  0  0  0  0  0  0  # atno 10763 bound_to 10752
  154.8168  135.4631  154.0668 H   0  0  0  0  0  0  0  0  0  0  0  0  # atno 10764 bound_to 10752
  153.1951  135.6914  153.8387 H   0  0  0  0  0  0  0  0  0  0  0  0  # atno 10765 bound_to 10752
  140.8397  134.2417  157.4816 H   0  0  0  0  0  0  0  0  0  0  0  0  # atno 11005 bound_to 11000
  144.9810  140.8459  143.5397 LP  0  0  0  0  0  0  0  0  0  0  0  0  # atno 17320 bound_to 7965
  145.1966  139.2273  143.5215 LP  0  0  0  0  0  0  0  0  0  0  0  0  # atno 17321 bound_to 7965
  140.1143  144.5429  150.6904 LP  0  0  0  0  0  0  0  0  0  0  0  0  # atno 17342 bound_to 10162
  140.7009  143.2434  151.4865 LP  0  0  0  0  0  0  0  0  0  0  0  0  # atno 17343 bound_to 10162
  157.0603  130.5823  149.5385 LP  0  0  0  0  0  0  0  0  0  0  0  0  # atno 17370 bound_to 10713
  156.0062  130.5149  150.7839 LP  0  0  0  0  0  0  0  0  0  0  0  0  # atno 17371 bound_to 10713
  139.8703  134.9629  156.4444 LP  0  0  0  0  0  0  0  0  0  0  0  0  # atno 17394 bound_to 11000
  140.8909  133.7849  155.9570 LP  0  0  0  0  0  0  0  0  0  0  0  0  # atno 17395 bound_to 11000

$$$$
