AV-unprocessed.smi:1043|AV-procd|sdf|4541|dock5
  -GOLD-   22720 2563D 1   1.00000     0.00000
 Structure written by MMmdl.
 34 35  0  0  0  0  0  0  0  0  2 V2000
  151.7155  137.3213  156.2325 C   0  0  0  0  0  0  0  0  0  0  0  0
  151.2872  138.6869  156.8189 C   0  0  0  0  0  0  0  0  0  0  0  0
  150.0806  138.5053  157.6404 N   0  0  0  0  0  0  0  0  0  0  0  0
  149.8543  137.6300  158.6345 C   0  0  0  0  0  0  0  0  0  0  0  0
  150.7235  136.8206  158.9650 O   0  0  0  0  0  0  0  0  0  0  0  0
  148.6304  137.7589  159.1954 N   0  5  0  0  0  0  0  0  0  0  0  0
  148.2139  136.8676  160.1095 C   0  0  0  0  0  0  0  0  0  0  0  0
  147.6959  137.2379  161.2915 N   0  0  0  0  0  0  0  0  0  0  0  0
  147.3338  136.1611  162.0898 N   0  0  0  0  0  0  0  0  0  0  0  0
  147.5987  135.0008  161.4899 C   0  0  0  0  0  0  0  0  0  0  0  0
  148.3139  135.1175  159.8963 S   0  0  0  0  0  0  0  0  0  0  0  0
  152.4791  139.2907  157.6176 C   0  0  0  0  0  0  0  0  0  0  0  0
  152.1909  140.3954  158.6591 C   0  0  0  0  0  0  0  0  0  0  0  0
  151.1659  141.4798  158.2848 C   0  0  0  0  0  0  0  0  0  0  0  0
  151.1595  141.8987  156.8086 C   0  0  0  0  0  0  0  0  0  0  0  0
  150.3036  140.9692  155.9335 C   0  0  0  0  0  0  0  0  0  0  0  0
  150.9404  139.6041  155.6161 C   0  0  0  0  0  0  0  0  0  0  0  0
  152.5588  137.4325  155.5501 H   0  0  0  0  0  0  0  0  0  0  0  0
  150.9027  136.8542  155.6749 H   0  0  0  0  0  0  0  0  0  0  0  0
  152.0239  136.6169  157.0050 H   0  0  0  0  0  0  0  0  0  0  0  0
  149.3199  139.1356  157.4337 H   0  0  0  0  0  0  0  0  0  0  0  0
  147.3736  134.0704  161.9893 H   0  0  0  0  0  0  0  0  0  0  0  0
  152.9992  138.4909  158.1466 H   0  0  0  0  0  0  0  0  0  0  0  0
  153.2180  139.6667  156.9090 H   0  0  0  0  0  0  0  0  0  0  0  0
  151.8704  139.9355  159.5945 H   0  0  0  0  0  0  0  0  0  0  0  0
  153.1390  140.8803  158.8940 H   0  0  0  0  0  0  0  0  0  0  0  0
  150.1655  141.1551  158.5735 H   0  0  0  0  0  0  0  0  0  0  0  0
  151.3665  142.3568  158.9012 H   0  0  0  0  0  0  0  0  0  0  0  0
  150.7288  142.8987  156.7469 H   0  0  0  0  0  0  0  0  0  0  0  0
  152.1744  141.9858  156.4197 H   0  0  0  0  0  0  0  0  0  0  0  0
  149.3204  140.8320  156.3851 H   0  0  0  0  0  0  0  0  0  0  0  0
  150.1158  141.4747  154.9861 H   0  0  0  0  0  0  0  0  0  0  0  0
  151.8353  139.7680  155.0141 H   0  0  0  0  0  0  0  0  0  0  0  0
  150.2494  139.0738  154.9590 H   0  0  0  0  0  0  0  0  0  0  0  0
  1  2  1  0  0  0  0
  1 18  1  0  0  0  0
  1 19  1  0  0  0  0
  1 20  1  0  0  0  0
  2 17  1  0  0  0  0
  2  3  1  0  0  0  0
  2 12  1  0  0  0  0
  3  4  1  0  0  0  0
  3 21  1  0  0  0  0
  4  5  2  0  0  0  0
  4  6  1  0  0  0  0
  6  7  1  0  0  0  0
  7 11  1  0  0  0  0
  7  8  2  0  0  0  0
  8  9  1  0  0  0  0
  9 10  2  0  0  0  0
 10 11  1  0  0  0  0
 10 22  1  0  0  0  0
 12 13  1  0  0  0  0
 12 23  1  0  0  0  0
 12 24  1  0  0  0  0
 13 14  1  0  0  0  0
 13 25  1  0  0  0  0
 13 26  1  0  0  0  0
 14 15  1  0  0  0  0
 14 27  1  0  0  0  0
 14 28  1  0  0  0  0
 15 16  1  0  0  0  0
 15 29  1  0  0  0  0
 15 30  1  0  0  0  0
 16 17  1  0  0  0  0
 16 31  1  0  0  0  0
 16 32  1  0  0  0  0
 17 33  1  0  0  0  0
 17 34  1  0  0  0  0
M  CHG  1   6  -1
M  END
> <s_m_source_file>
AV-unprocessed.smi

> <i_m_source_file_index>
1043

> <i_lp_mmshare_version>
43012

> <i_f3d_flags>
0

> <s_epik_input>
W0NIMl0xW0NIMl1bQ0gyXVtDSDJdW0NIMl1bQ0gyXUMxKFtDSDNdKVtOSF1DKD1PKVtOSF1jMm5uW2NIXXMy

> <s_epik_cmdline>
J2VwaWtfcHl0aG9uJywgJy1waCcsICc3LjAnLCAnLXRuJywgJzgnLCAnLW1hJywgJzIwMCcsICctbWV0YWxfYmluZGluZycsICctaW1hZScsICc8aW5maWxlLm1hZT4nLCAnLW9tYWUnLCAnPG91dGZpbGUubWFlPic=

> <r_lp_tautomer_probability>
1

> <r_epik_Ionization_Penalty>
4.55555

> <r_epik_Ionization_Penalty_Charging>
4.50588

> <r_epik_Ionization_Penalty_Neutral>
0.0496753

> <r_epik_State_Penalty>
4.50558

> <r_epik_Charging_Adjusted_Penalty>
9.01146

> <i_epik_Tot_Q>
-1

> <i_epik_Tot_abs_Q>
1

> <r_epik_Metal_State_Penalty>
0.822218

> <b_epik_Metal_Only>
1

> <s_lp_Force_Field>
OPLS_2005

> <r_lp_Energy>
17.5754

> <b_lp_Chiralities_Consistent>
1

> <s_lp_Variant>
AV-unprocessed.smi:1043-2

> <Gold.Version>
5.8.1

> <Gold.Id.Protein>
6NUR|6NUR_protein|mol2

> <Gold.PLP.Fitness>
32.9436

> <Gold.PLP.PLP>
-25.6444

> <Gold.PLP.part.hbond>
-3.8809

> <Gold.PLP.part.metal>
0.0000

> <Gold.PLP.part.buried>
-3.9030

> <Gold.PLP.part.nonpolar>
-17.5220

> <Gold.PLP.part.repulsive>
0.0525

> <Gold.PLP.ligand.clash>
0.0000

> <Gold.PLP.ligand.torsion>
0.5922

> <Gold.PLP.Chemscore.Hbond>
2.8240

> <Gold.PLP.Chemscore.CHOScore>
0.0000

> <Gold.PLP.Chemscore.Metal>
0.0000

> <Gold.Chemscore.Hbonds>
donor molecule, donor type, donor heavy atom, donor atom, acceptor molecule, acceptor atom, score
      P1  H  6896  6907       L1     5  1.00
      P1  H  6931  6943       L1     8  0.94
      P1  H  6934  6947       L1     8  0.82

> <Gold.PLP.Chemscore.Internal.Correction>
0.0116

> <Gold.Rescore>
     Score         DG    S(hbond)    S(metal)    S(lipo)     H(rot)  DE(clash)    DE(int)     intcor
     15.18     -17.03       2.25        0.00      56.31       1.00       0.00       1.85       ----

> <Gold.Chemscore.Fitness>
15.1764

> <Gold.Chemscore.DG>
-17.0328

> <Gold.Chemscore.ZeroCoef>
-5.4800

> <Gold.Chemscore.Hbond>
2.2530

> <Gold.Chemscore.Metal>
0.0000

> <Gold.Chemscore.Lipo>
56.3066

> <Gold.Chemscore.Internal_Hbond>
0.0000

> <Gold.Chemscore.DEClash>
0.0029

> <Gold.Chemscore.DEInternal>
1.8535

> <Gold.Chemscore.Rot>
1.0000

> <Gold.Chemscore.Internal.Correction>
   9.000000E+99

> <Gold.Chemscore.Hbonds>
donor molecule, donor type, donor heavy atom, donor atom, acceptor molecule, acceptor atom, score
      P1  H  6896  6907       L1     5  0.91
      P1  H  6931  6943       L1     8  0.22
      P1  H  6934  6947       L1     8  0.28

> <Gold.Chemscore.Hbond.Weighted>
-7.5249

> <Gold.Chemscore.Metal.Weighted>
-0.0000

> <Gold.Chemscore.Lipo.Weighted>
-6.5879

> <Gold.Chemscore.Internal_Hbond.Weighted>
0.0000

> <Gold.Chemscore.DEClash.Weighted>
0.0029

> <Gold.Chemscore.DEInternal.Weighted>
1.8535

> <Gold.Chemscore.Rot.Weighted>
2.5600

> <Gold.Chemscore.Internal.Correction.Weighted>
   9.000000E+99

> <Gold.Protein.RotatedTorsions>
[ 6907 6896 6895 6894 ] final  -39.18 input  -60.11 | X-H torsion
[ 7974 7965 7964 7962 ] final   53.49 input  175.53 | X-H torsion
[ 8008 7997 7996 7995 ] final   21.54 input   59.86 | X-H torsion
[ 10167 10162 10161 10158 ] final   13.68 input  -65.29 | X-H torsion
[ 10718 10713 10712 10709 ] final -115.05 input   66.30 | X-H torsion
[ 10763 10752 10751 10750 ] final   76.42 input  -60.55 | X-H torsion
[ 11005 11000 10999 10996 ] final   33.62 input  -57.11 | X-H torsion

> <Gold.Protein.ActiveResidues>
 VAL166  LYS551  ARG553  GLY616  TRP617  ASP618  TYR619  PRO620  LYS621  CYS622 
 ASP623  PHE694  ASN695  SER759  ASP760  ASP761  ALA762  ILE779  LEU786  VAL792 
 PHE793  MET794  SER795  GLU796  ALA797  LYS798  CYS799  TRP800  GLU811  SER814 

> <Gold.Protein.RotatedAtoms>
  150.9935  134.9264  159.7912 H   0  0  0  0  0  0  0  0  0  0  0  0  # atno 6907 bound_to 6896
  152.5258  134.3250  159.9172 H   0  0  0  0  0  0  0  0  0  0  0  0  # atno 6908 bound_to 6896
  151.3256  133.3980  159.2692 H   0  0  0  0  0  0  0  0  0  0  0  0  # atno 6909 bound_to 6896
  145.9706  139.4145  143.0192 H   0  0  0  0  0  0  0  0  0  0  0  0  # atno 7974 bound_to 7965
  154.9522  140.3067  155.5070 H   0  0  0  0  0  0  0  0  0  0  0  0  # atno 8008 bound_to 7997
  156.2986  140.2317  156.4538 H   0  0  0  0  0  0  0  0  0  0  0  0  # atno 8009 bound_to 7997
  154.8044  140.0432  157.1285 H   0  0  0  0  0  0  0  0  0  0  0  0  # atno 8010 bound_to 7997
  140.5986  143.8650  150.6943 H   0  0  0  0  0  0  0  0  0  0  0  0  # atno 10167 bound_to 10162
  156.0870  130.6060  150.8855 H   0  0  0  0  0  0  0  0  0  0  0  0  # atno 10718 bound_to 10713
  153.0724  135.4952  154.8333 H   0  0  0  0  0  0  0  0  0  0  0  0  # atno 10763 bound_to 10752
  154.7041  135.3007  154.9299 H   0  0  0  0  0  0  0  0  0  0  0  0  # atno 10764 bound_to 10752
  154.0014  135.6766  153.4812 H   0  0  0  0  0  0  0  0  0  0  0  0  # atno 10765 bound_to 10752
  140.2612  134.3190  155.7857 H   0  0  0  0  0  0  0  0  0  0  0  0  # atno 11005 bound_to 11000
  145.7911  140.9814  143.1048 LP  0  0  0  0  0  0  0  0  0  0  0  0  # atno 17320 bound_to 7965
  144.6836  139.9684  143.7481 LP  0  0  0  0  0  0  0  0  0  0  0  0  # atno 17321 bound_to 7965
  140.2190  143.3823  152.1658 LP  0  0  0  0  0  0  0  0  0  0  0  0  # atno 17342 bound_to 10162
  139.5275  144.7120  151.5174 LP  0  0  0  0  0  0  0  0  0  0  0  0  # atno 17343 bound_to 10162
  157.6007  131.0941  150.8964 LP  0  0  0  0  0  0  0  0  0  0  0  0  # atno 17370 bound_to 10713
  156.9122  130.5285  149.5280 LP  0  0  0  0  0  0  0  0  0  0  0  0  # atno 17371 bound_to 10713
  141.2190  133.7411  156.9190 LP  0  0  0  0  0  0  0  0  0  0  0  0  # atno 17394 bound_to 11000
  140.1463  134.9260  157.2533 LP  0  0  0  0  0  0  0  0  0  0  0  0  # atno 17395 bound_to 11000

$$$$
