AV-unprocessed.smi:2223|AV-procd|sdf|8990|dock1
  -GOLD-   2272012203D 1   1.00000     0.00000
 Structure written by MMmdl.
 46 47  0  0  0  0  0  0  0  0  1 V2000
  150.0071  129.3997  154.8441 C   0  0  0  0  0  0  0  0  0  0  0  0
  149.0129  130.3563  154.2198 C   0  0  0  0  0  0  0  0  0  0  0  0
  147.8400  129.8748  153.6080 C   0  0  0  0  0  0  0  0  0  0  0  0
  146.9495  130.8116  153.0479 C   0  0  0  0  0  0  0  0  0  0  0  0
  145.6689  130.3634  152.3755 C   0  0  0  0  0  0  0  0  0  0  0  0
  147.1682  132.1436  153.0758 N   0  0  0  0  0  0  0  0  0  0  0  0
  148.2934  132.6194  153.6648 C   0  0  0  0  0  0  0  0  0  0  0  0
  148.6157  134.0005  153.7466 N   0  0  0  0  0  0  0  0  0  0  0  0
  149.2433  134.6490  154.7438 C   0  0  0  0  0  0  0  0  0  0  0  0
  149.6588  134.1312  155.7809 O   0  0  0  0  0  0  0  0  0  0  0  0
  149.3741  135.9550  154.4691 N   0  0  0  0  0  0  0  0  0  0  0  0
  150.0260  136.9274  155.3424 C   0  0  1  0  0  0  0  0  0  0  0  0
  151.2732  137.5469  154.7050 C   0  0  0  0  0  0  0  0  0  0  0  0
  151.1157  139.0324  154.9776 C   0  0  0  0  0  0  0  0  0  0  0  0
  152.0109  139.8336  154.7120 O   0  0  0  0  0  0  0  0  0  0  0  0
  149.9160  139.3205  155.5181 N   0  0  0  0  0  0  0  0  0  0  0  0
  149.4027  140.6681  155.8818 C   0  0  0  0  0  0  0  0  0  0  0  0
  150.3814  141.3622  156.8555 C   0  0  0  0  0  0  0  0  0  0  0  0
  148.0225  140.5931  156.5777 C   0  0  0  0  0  0  0  0  0  0  0  0
  149.2383  141.5258  154.6072 C   0  0  0  0  0  0  0  0  0  0  0  0
  149.0979  138.1139  155.6445 C   0  0  0  0  0  0  0  0  0  0  0  0
  149.2405  131.7472  154.2469 C   0  0  0  0  0  0  0  0  0  0  0  0
  149.9622  128.4223  154.3624 H   0  0  0  0  0  0  0  0  0  0  0  0
  149.7897  129.2713  155.9045 H   0  0  0  0  0  0  0  0  0  0  0  0
  151.0244  129.7792  154.7445 H   0  0  0  0  0  0  0  0  0  0  0  0
  147.6283  128.8159  153.5706 H   0  0  0  0  0  0  0  0  0  0  0  0
  145.6645  129.2852  152.2147 H   0  0  0  0  0  0  0  0  0  0  0  0
  145.5542  130.8510  151.4069 H   0  0  0  0  0  0  0  0  0  0  0  0
  144.8091  130.6210  152.9943 H   0  0  0  0  0  0  0  0  0  0  0  0
  148.3432  134.5571  152.9502 H   0  0  0  0  0  0  0  0  0  0  0  0
  149.0050  136.3000  153.5953 H   0  0  0  0  0  0  0  0  0  0  0  0
  150.3045  136.4497  156.2842 H   0  0  0  0  0  0  0  0  0  0  0  0
  152.1924  137.1582  155.1447 H   0  0  0  0  0  0  0  0  0  0  0  0
  151.3109  137.3869  153.6264 H   0  0  0  0  0  0  0  0  0  0  0  0
  149.9895  142.3239  157.1884 H   0  0  0  0  0  0  0  0  0  0  0  0
  151.3520  141.5603  156.4015 H   0  0  0  0  0  0  0  0  0  0  0  0
  150.5512  140.7541  157.7449 H   0  0  0  0  0  0  0  0  0  0  0  0
  148.0695  140.0412  157.5170 H   0  0  0  0  0  0  0  0  0  0  0  0
  147.2695  140.1232  155.9440 H   0  0  0  0  0  0  0  0  0  0  0  0
  147.6519  141.5898  156.8198 H   0  0  0  0  0  0  0  0  0  0  0  0
  148.8074  142.5000  154.8403 H   0  0  0  0  0  0  0  0  0  0  0  0
  148.5776  141.0406  153.8877 H   0  0  0  0  0  0  0  0  0  0  0  0
  150.1879  141.7141  154.1071 H   0  0  0  0  0  0  0  0  0  0  0  0
  148.2746  138.1701  154.9301 H   0  0  0  0  0  0  0  0  0  0  0  0
  148.6745  138.0088  156.6436 H   0  0  0  0  0  0  0  0  0  0  0  0
  150.1329  132.1392  154.7136 H   0  0  0  0  0  0  0  0  0  0  0  0
  1  2  1  0  0  0  0
  1 23  1  0  0  0  0
  1 24  1  0  0  0  0
  1 25  1  0  0  0  0
  2 22  1  0  0  0  0
  2  3  2  0  0  0  0
  3  4  1  0  0  0  0
  3 26  1  0  0  0  0
  4  5  1  0  0  0  0
  4  6  2  0  0  0  0
  5 27  1  0  0  0  0
  5 28  1  0  0  0  0
  5 29  1  0  0  0  0
  6  7  1  0  0  0  0
  7  8  1  0  0  0  0
  7 22  2  0  0  0  0
  8  9  1  0  0  0  0
  8 30  1  0  0  0  0
  9 10  2  0  0  0  0
  9 11  1  0  0  0  0
 11 12  1  0  0  0  0
 11 31  1  0  0  0  0
 12 21  1  0  0  0  0
 12 13  1  0  0  0  0
 12 32  1  0  0  0  0
 13 14  1  0  0  0  0
 13 33  1  0  0  0  0
 13 34  1  0  0  0  0
 14 15  2  0  0  0  0
 14 16  1  0  0  0  0
 16 17  1  0  0  0  0
 16 21  1  0  0  0  0
 17 18  1  0  0  0  0
 17 19  1  0  0  0  0
 17 20  1  0  0  0  0
 18 35  1  0  0  0  0
 18 36  1  0  0  0  0
 18 37  1  0  0  0  0
 19 38  1  0  0  0  0
 19 39  1  0  0  0  0
 19 40  1  0  0  0  0
 20 41  1  0  0  0  0
 20 42  1  0  0  0  0
 20 43  1  0  0  0  0
 21 44  1  0  0  0  0
 21 45  1  0  0  0  0
 22 46  1  0  0  0  0
M  END
> <s_m_source_file>
AV-unprocessed.smi

> <i_m_source_file_index>
2223

> <i_lp_mmshare_version>
43012

> <i_f3d_flags>
0

> <s_epik_input>
W0NIM11jMVtjSF1jKFtDSDNdKW5jKFtjSF0xKVtOSF1DKD1PKVtOSF1bQ0BASF0yW0NIMl1DKD1PKU4oW0NIMl0yKUMoW0NIM10pKFtDSDNdKVtDSDNd

> <s_epik_cmdline>
J2VwaWtfcHl0aG9uJywgJy1waCcsICc3LjAnLCAnLXRuJywgJzgnLCAnLW1hJywgJzIwMCcsICctbWV0YWxfYmluZGluZycsICctaW1hZScsICc8aW5maWxlLm1hZT4nLCAnLW9tYWUnLCAnPG91dGZpbGUubWFlPic=

> <r_lp_tautomer_probability>
1

> <r_epik_Ionization_Penalty>
0.000228403

> <r_epik_Ionization_Penalty_Charging>
0

> <r_epik_Ionization_Penalty_Neutral>
0.000228403

> <r_epik_State_Penalty>
-0

> <r_epik_Charging_Adjusted_Penalty>
0

> <i_epik_Tot_Q>
0

> <i_epik_Tot_abs_Q>
0

> <r_epik_Metal_State_Penalty>
-0

> <b_epik_Metal_Only>
0

> <s_lp_Force_Field>
OPLS_2005

> <r_lp_Energy>
29.0753

> <b_lp_Chiralities_Consistent>
1

> <s_lp_Variant>
AV-unprocessed.smi:2223-2

> <Gold.Version>
5.8.1

> <Gold.Id.Protein>
6NUR|6NUR_protein|mol2

> <Gold.PLP.Fitness>
43.8590

> <Gold.PLP.PLP>
-36.4800

> <Gold.PLP.part.hbond>
-2.7801

> <Gold.PLP.part.metal>
0.0000

> <Gold.PLP.part.buried>
-3.5695

> <Gold.PLP.part.nonpolar>
-29.8333

> <Gold.PLP.part.repulsive>
0.2375

> <Gold.PLP.ligand.clash>
0.0000

> <Gold.PLP.ligand.torsion>
0.3936

> <Gold.PLP.Chemscore.Hbond>
2.7120

> <Gold.PLP.Chemscore.CHOScore>
0.0000

> <Gold.PLP.Chemscore.Metal>
0.0000

> <Gold.Chemscore.Hbonds>
donor molecule, donor type, donor heavy atom, donor atom, acceptor molecule, acceptor atom, score
      L1  H     8    30       P1  7948  0.78
      L1  H    11    31       P1  7948  0.96
      P1  H  7989  7998       L1    15  0.88

> <Gold.PLP.Chemscore.Internal.Correction>
0.0303

> <Gold.Rescore>
     Score         DG    S(hbond)    S(metal)    S(lipo)     H(rot)  DE(clash)    DE(int)     intcor
     15.68     -17.30       2.13        0.00      66.58       1.21       0.05       1.56       ----

> <Gold.Chemscore.Fitness>
15.6835

> <Gold.Chemscore.DG>
-17.2984

> <Gold.Chemscore.ZeroCoef>
-5.4800

> <Gold.Chemscore.Hbond>
2.1300

> <Gold.Chemscore.Metal>
0.0000

> <Gold.Chemscore.Lipo>
66.5830

> <Gold.Chemscore.Internal_Hbond>
0.0000

> <Gold.Chemscore.DEClash>
0.0502

> <Gold.Chemscore.DEInternal>
1.5646

> <Gold.Chemscore.Rot>
1.2055

> <Gold.Chemscore.Internal.Correction>
   9.000000E+99

> <Gold.Chemscore.Hbonds>
donor molecule, donor type, donor heavy atom, donor atom, acceptor molecule, acceptor atom, score
      L1  H     8    30       P1  7948  0.29
      L1  H    11    31       P1  7948  0.91
      P1  H  7989  7998       L1    15  0.78

> <Gold.Chemscore.Hbond.Weighted>
-7.1142

> <Gold.Chemscore.Metal.Weighted>
-0.0000

> <Gold.Chemscore.Lipo.Weighted>
-7.7902

> <Gold.Chemscore.Internal_Hbond.Weighted>
0.0000

> <Gold.Chemscore.DEClash.Weighted>
0.0502

> <Gold.Chemscore.DEInternal.Weighted>
1.5646

> <Gold.Chemscore.Rot.Weighted>
3.0861

> <Gold.Chemscore.Internal.Correction.Weighted>
   9.000000E+99

> <Gold.Protein.RotatedTorsions>
[ 6907 6896 6895 6894 ] final   71.37 input  -60.11 | X-H torsion
[ 7974 7965 7964 7962 ] final   28.19 input  175.53 | X-H torsion
[ 8008 7997 7996 7995 ] final  -54.12 input   59.86 | X-H torsion
[ 10167 10162 10161 10158 ] final  -64.88 input  -65.29 | X-H torsion
[ 10718 10713 10712 10709 ] final -169.51 input   66.30 | X-H torsion
[ 10763 10752 10751 10750 ] final  114.28 input  -60.55 | X-H torsion
[ 11005 11000 10999 10996 ] final -140.80 input  -57.11 | X-H torsion

> <Gold.Protein.ActiveResidues>
 VAL166  LYS551  ARG553  GLY616  TRP617  ASP618  TYR619  PRO620  LYS621  CYS622 
 ASP623  PHE694  ASN695  SER759  ASP760  ASP761  ALA762  ILE779  LEU786  VAL792 
 PHE793  MET794  SER795  GLU796  ALA797  LYS798  CYS799  TRP800  GLU811  SER814 

> <Gold.Protein.RotatedAtoms>
  152.4806  134.4730  159.9641 H   0  0  0  0  0  0  0  0  0  0  0  0  # atno 6907 bound_to 6896
  151.4736  133.3557  159.2835 H   0  0  0  0  0  0  0  0  0  0  0  0  # atno 6908 bound_to 6896
  150.8876  134.8301  159.7331 H   0  0  0  0  0  0  0  0  0  0  0  0  # atno 6909 bound_to 6896
  146.1743  139.7090  142.8945 H   0  0  0  0  0  0  0  0  0  0  0  0  # atno 7974 bound_to 7965
  154.4153  140.1184  156.5263 H   0  0  0  0  0  0  0  0  0  0  0  0  # atno 8008 bound_to 7997
  155.6651  140.3496  155.4778 H   0  0  0  0  0  0  0  0  0  0  0  0  # atno 8009 bound_to 7997
  155.9680  140.1136  157.0827 H   0  0  0  0  0  0  0  0  0  0  0  0  # atno 8010 bound_to 7997
  140.5770  143.2323  151.6422 H   0  0  0  0  0  0  0  0  0  0  0  0  # atno 10167 bound_to 10162
  156.7126  130.9239  151.3090 H   0  0  0  0  0  0  0  0  0  0  0  0  # atno 10718 bound_to 10713
  153.5050  135.3630  155.2559 H   0  0  0  0  0  0  0  0  0  0  0  0  # atno 10763 bound_to 10752
  154.8745  135.4009  154.3434 H   0  0  0  0  0  0  0  0  0  0  0  0  # atno 10764 bound_to 10752
  153.4077  135.7077  153.6447 H   0  0  0  0  0  0  0  0  0  0  0  0  # atno 10765 bound_to 10752
  140.8387  134.2429  157.4821 H   0  0  0  0  0  0  0  0  0  0  0  0  # atno 11005 bound_to 11000
  145.4255  141.0410  143.2940 LP  0  0  0  0  0  0  0  0  0  0  0  0  # atno 17320 bound_to 7965
  144.8211  139.5790  143.6986 LP  0  0  0  0  0  0  0  0  0  0  0  0  # atno 17321 bound_to 7965
  139.5148  144.3399  152.0750 LP  0  0  0  0  0  0  0  0  0  0  0  0  # atno 17342 bound_to 10162
  140.2544  144.4135  150.6209 LP  0  0  0  0  0  0  0  0  0  0  0  0  # atno 17343 bound_to 10162
  157.6930  130.9253  150.0566 LP  0  0  0  0  0  0  0  0  0  0  0  0  # atno 17370 bound_to 10713
  156.1650  130.3645  149.9245 LP  0  0  0  0  0  0  0  0  0  0  0  0  # atno 17371 bound_to 10713
  139.8703  134.9624  156.4427 LP  0  0  0  0  0  0  0  0  0  0  0  0  # atno 17394 bound_to 11000
  140.8919  133.7842  155.9582 LP  0  0  0  0  0  0  0  0  0  0  0  0  # atno 17395 bound_to 11000

$$$$
