AV-unprocessed.smi:270|AV-procd|sdf|2047|dock9
  -GOLD-   2262021273D 1   1.00000     0.00000
 Structure written by MMmdl.
 54 57  0  0  0  0  0  0  0  0  1 V2000
  150.0760  144.4423  159.1970 C   0  0  0  0  0  0  0  0  0  0  0  0
  150.8293  143.1042  159.2733 C   0  0  2  0  0  0  0  0  0  0  0  0
  151.4744  142.9593  160.5383 O   0  0  0  0  0  0  0  0  0  0  0  0
  152.8686  142.7571  160.3556 C   0  0  0  0  0  0  0  0  0  0  0  0
  152.9789  142.1180  158.9775 C   0  0  0  0  0  0  0  0  0  0  0  0
  151.9028  142.8511  158.1887 C   0  0  2  0  0  0  0  0  0  0  0  0
  152.4489  144.0747  157.7213 O   0  0  0  0  0  0  0  0  0  0  0  0
  151.3611  142.0581  156.9759 C   0  0  0  0  0  0  0  0  0  0  0  0
  151.1206  140.6533  157.2660 N   0  0  0  0  0  0  0  0  0  0  0  0
  150.4965  140.1357  158.3778 C   0  0  0  0  0  0  0  0  0  0  0  0
  150.4069  138.8343  158.4089 N   0  0  0  0  0  0  0  0  0  0  0  0
  151.0091  138.4194  157.2261 C   0  0  0  0  0  0  0  0  0  0  0  0
  151.2517  137.1436  156.6374 C   0  0  0  0  0  0  0  0  0  0  0  0
  150.8627  135.9041  157.2235 N   0  0  0  0  0  0  0  0  0  0  0  0
  150.8055  134.7604  156.3248 C   0  0  0  0  0  0  0  0  0  0  0  0
  149.4769  134.3944  156.9936 C   0  0  0  0  0  0  0  0  0  0  0  0
  149.5788  133.3436  157.9418 O   0  0  0  0  0  0  0  0  0  0  0  0
  149.7399  132.0701  157.3371 C   0  0  0  0  0  0  0  0  0  0  0  0
  151.2376  131.7779  157.1856 C   0  0  0  0  0  0  0  0  0  0  0  0
  152.0348  132.4865  157.8019 O   0  0  0  0  0  0  0  0  0  0  0  0
  151.6373  130.7573  156.3912 N   0  0  0  0  0  0  0  0  0  0  0  0
  153.0460  130.4071  156.1837 C   0  0  0  0  0  0  0  0  0  0  0  0
  150.6478  129.9419  155.6815 C   0  0  0  0  0  0  0  0  0  0  0  0
  149.4773  135.7708  157.6597 C   0  0  0  0  0  0  0  0  0  0  0  0
  151.8552  137.1505  155.4180 N   0  0  0  0  0  0  0  0  0  0  0  0
  152.2230  138.2942  154.8336 C   0  0  0  0  0  0  0  0  0  0  0  0
  152.0760  139.5416  155.2796 N   0  0  0  0  0  0  0  0  0  0  0  0
  151.4528  139.5559  156.4909 C   0  0  0  0  0  0  0  0  0  0  0  0
  149.5951  144.5667  158.2265 H   0  0  0  0  0  0  0  0  0  0  0  0
  150.7439  145.2896  159.3547 H   0  0  0  0  0  0  0  0  0  0  0  0
  149.2996  144.4926  159.9606 H   0  0  0  0  0  0  0  0  0  0  0  0
  150.0927  142.3007  159.2323 H   0  0  0  0  0  0  0  0  0  0  0  0
  153.3754  143.7231  160.3745 H   0  0  0  0  0  0  0  0  0  0  0  0
  153.2899  142.1351  161.1454 H   0  0  0  0  0  0  0  0  0  0  0  0
  153.9772  142.2007  158.5451 H   0  0  0  0  0  0  0  0  0  0  0  0
  152.7340  141.0576  159.0543 H   0  0  0  0  0  0  0  0  0  0  0  0
  152.5741  144.6500  158.4605 H   0  0  0  0  0  0  0  0  0  0  0  0
  150.4227  142.4933  156.6294 H   0  0  0  0  0  0  0  0  0  0  0  0
  152.0560  142.1265  156.1378 H   0  0  0  0  0  0  0  0  0  0  0  0
  150.1121  140.7576  159.1731 H   0  0  0  0  0  0  0  0  0  0  0  0
  150.6898  135.0343  155.2750 H   0  0  0  0  0  0  0  0  0  0  0  0
  151.6131  134.0462  156.4863 H   0  0  0  0  0  0  0  0  0  0  0  0
  148.6499  134.2708  156.2922 H   0  0  0  0  0  0  0  0  0  0  0  0
  149.2820  131.3048  157.9661 H   0  0  0  0  0  0  0  0  0  0  0  0
  149.2452  132.0205  156.3667 H   0  0  0  0  0  0  0  0  0  0  0  0
  153.5961  131.2469  155.7585 H   0  0  0  0  0  0  0  0  0  0  0  0
  153.1753  129.5671  155.5012 H   0  0  0  0  0  0  0  0  0  0  0  0
  153.5192  130.1263  157.1252 H   0  0  0  0  0  0  0  0  0  0  0  0
  149.9603  129.4744  156.3879 H   0  0  0  0  0  0  0  0  0  0  0  0
  151.0959  129.1427  155.0912 H   0  0  0  0  0  0  0  0  0  0  0  0
  150.0631  130.5604  154.9990 H   0  0  0  0  0  0  0  0  0  0  0  0
  149.3642  135.7479  158.7439 H   0  0  0  0  0  0  0  0  0  0  0  0
  148.7846  136.4648  157.1814 H   0  0  0  0  0  0  0  0  0  0  0  0
  152.7040  138.1948  153.8716 H   0  0  0  0  0  0  0  0  0  0  0  0
  1  2  1  0  0  0  0
  1 29  1  0  0  0  0
  1 30  1  0  0  0  0
  1 31  1  0  0  0  0
  2  6  1  0  0  0  0
  2  3  1  0  0  0  0
  2 32  1  0  0  0  0
  3  4  1  0  0  0  0
  4  5  1  0  0  0  0
  4 33  1  0  0  0  0
  4 34  1  0  0  0  0
  5  6  1  0  0  0  0
  5 35  1  0  0  0  0
  5 36  1  0  0  0  0
  6  7  1  0  0  0  0
  6  8  1  0  0  0  0
  7 37  1  0  0  0  0
  8  9  1  0  0  0  0
  8 38  1  0  0  0  0
  8 39  1  0  0  0  0
  9 28  1  0  0  0  0
  9 10  1  0  0  0  0
 10 11  2  0  0  0  0
 10 40  1  0  0  0  0
 11 12  1  0  0  0  0
 12 28  2  0  0  0  0
 12 13  1  0  0  0  0
 13 14  1  0  0  0  0
 13 25  2  0  0  0  0
 14 24  1  0  0  0  0
 14 15  1  0  0  0  0
 15 16  1  0  0  0  0
 15 41  1  0  0  0  0
 15 42  1  0  0  0  0
 16 17  1  0  0  0  0
 16 24  1  0  0  0  0
 16 43  1  0  0  0  0
 17 18  1  0  0  0  0
 18 19  1  0  0  0  0
 18 44  1  0  0  0  0
 18 45  1  0  0  0  0
 19 20  2  0  0  0  0
 19 21  1  0  0  0  0
 21 22  1  0  0  0  0
 21 23  1  0  0  0  0
 22 46  1  0  0  0  0
 22 47  1  0  0  0  0
 22 48  1  0  0  0  0
 23 49  1  0  0  0  0
 23 50  1  0  0  0  0
 23 51  1  0  0  0  0
 24 52  1  0  0  0  0
 24 53  1  0  0  0  0
 25 26  1  0  0  0  0
 26 27  2  0  0  0  0
 26 54  1  0  0  0  0
 27 28  1  0  0  0  0
M  END
> <s_m_source_file>
AV-unprocessed.smi

> <i_m_source_file_index>
270

> <i_lp_mmshare_version>
43012

> <i_f3d_flags>
0

> <s_epik_input>
W0NIMl0xW0NIMl1PW0NAQEhdKFtDSDNdKVtDQEBdMShbT0hdKVtDSDJdbihbY0hdbjIpYyhjMjMpbltjSF1uYzNONFtDSDJdW0NIXShbQ0gyXTQpT1tDSDJdQyg9TylOKFtDSDNdKVtDSDNd

> <s_epik_cmdline>
J2VwaWtfcHl0aG9uJywgJy1waCcsICc3LjAnLCAnLXRuJywgJzgnLCAnLW1hJywgJzIwMCcsICctbWV0YWxfYmluZGluZycsICctaW1hZScsICc8aW5maWxlLm1hZT4nLCAnLW9tYWUnLCAnPG91dGZpbGUubWFlPic=

> <r_lp_tautomer_probability>
1

> <r_epik_Ionization_Penalty>
0.00375854

> <r_epik_Ionization_Penalty_Charging>
0

> <r_epik_Ionization_Penalty_Neutral>
0.00375854

> <r_epik_State_Penalty>
-0

> <r_epik_Charging_Adjusted_Penalty>
0

> <i_epik_Tot_Q>
0

> <i_epik_Tot_abs_Q>
0

> <r_epik_Metal_State_Penalty>
-0

> <b_epik_Metal_Only>
0

> <s_lp_Force_Field>
OPLS_2005

> <r_lp_Energy>
53.9225

> <b_lp_Chiralities_Consistent>
1

> <s_lp_Variant>
AV-unprocessed.smi:270-3

> <Gold.Version>
5.8.1

> <Gold.Id.Protein>
6NUR|6NUR_protein|mol2

> <Gold.PLP.Fitness>
46.6086

> <Gold.PLP.PLP>
-40.1536

> <Gold.PLP.part.hbond>
-4.7549

> <Gold.PLP.part.metal>
0.0000

> <Gold.PLP.part.buried>
-6.6576

> <Gold.PLP.part.nonpolar>
-29.6813

> <Gold.PLP.part.repulsive>
0.1620

> <Gold.PLP.ligand.clash>
0.0000

> <Gold.PLP.ligand.torsion>
1.0873

> <Gold.PLP.Chemscore.Hbond>
2.7825

> <Gold.PLP.Chemscore.CHOScore>
0.0000

> <Gold.PLP.Chemscore.Metal>
0.0000

> <Gold.Chemscore.Hbonds>
donor molecule, donor type, donor heavy atom, donor atom, acceptor molecule, acceptor atom, score
      P1  H  6896  6907       L1    17  0.96
      P1  H  7989  7998       L1    27  0.41
      P1  H 10752 10765       L1    25  0.84

> <Gold.PLP.Chemscore.Internal.Correction>
0.2822

> <Gold.Rescore>
     Score         DG    S(hbond)    S(metal)    S(lipo)     H(rot)  DE(clash)    DE(int)     intcor
     13.70     -14.89       2.35        0.00      81.71       3.12       0.19       1.00       ----

> <Gold.Chemscore.Fitness>
13.6972

> <Gold.Chemscore.DG>
-14.8915

> <Gold.Chemscore.ZeroCoef>
-5.4800

> <Gold.Chemscore.Hbond>
2.3494

> <Gold.Chemscore.Metal>
0.0000

> <Gold.Chemscore.Lipo>
81.7117

> <Gold.Chemscore.Internal_Hbond>
0.0000

> <Gold.Chemscore.DEClash>
0.1912

> <Gold.Chemscore.DEInternal>
1.0031

> <Gold.Chemscore.Rot>
3.1234

> <Gold.Chemscore.Internal.Correction>
   9.000000E+99

> <Gold.Chemscore.Hbonds>
donor molecule, donor type, donor heavy atom, donor atom, acceptor molecule, acceptor atom, score
      P1  H  6896  6907       L1    17  0.46
      P1  H  7989  7998       L1    27  0.26
      P1  H 10752 10765       L1    25  0.47

> <Gold.Chemscore.Hbond.Weighted>
-7.8471

> <Gold.Chemscore.Metal.Weighted>
-0.0000

> <Gold.Chemscore.Lipo.Weighted>
-9.5603

> <Gold.Chemscore.Internal_Hbond.Weighted>
0.0000

> <Gold.Chemscore.DEClash.Weighted>
0.1912

> <Gold.Chemscore.DEInternal.Weighted>
1.0031

> <Gold.Chemscore.Rot.Weighted>
7.9959

> <Gold.Chemscore.Internal.Correction.Weighted>
   9.000000E+99

> <Gold.Protein.RotatedTorsions>
[ 6907 6896 6895 6894 ] final -142.51 input  -60.11 | X-H torsion
[ 7974 7965 7964 7962 ] final   45.93 input  175.53 | X-H torsion
[ 8008 7997 7996 7995 ] final   45.37 input   59.86 | X-H torsion
[ 10167 10162 10161 10158 ] final  -39.66 input  -65.29 | X-H torsion
[ 10718 10713 10712 10709 ] final    3.96 input   66.30 | X-H torsion
[ 10763 10752 10751 10750 ] final  174.16 input  -60.55 | X-H torsion
[ 11005 11000 10999 10996 ] final  116.78 input  -57.11 | X-H torsion

> <Gold.Protein.ActiveResidues>
 VAL166  LYS551  ARG553  GLY616  TRP617  ASP618  TYR619  PRO620  LYS621  CYS622 
 ASP623  PHE694  ASN695  SER759  ASP760  ASP761  ALA762  ILE779  LEU786  VAL792 
 PHE793  MET794  SER795  GLU796  ALA797  LYS798  CYS799  TRP800  GLU811  SER814 

> <Gold.Protein.RotatedAtoms>
  151.0880  133.5338  159.2616 H   0  0  0  0  0  0  0  0  0  0  0  0  # atno 6907 bound_to 6896
  151.2216  135.0520  159.8962 H   0  0  0  0  0  0  0  0  0  0  0  0  # atno 6908 bound_to 6896
  152.5431  134.0682  159.8236 H   0  0  0  0  0  0  0  0  0  0  0  0  # atno 6909 bound_to 6896
  146.0436  139.4911  142.9763 H   0  0  0  0  0  0  0  0  0  0  0  0  # atno 7974 bound_to 7965
  155.3348  140.3404  155.4239 H   0  0  0  0  0  0  0  0  0  0  0  0  # atno 8008 bound_to 7997
  156.1843  140.1675  156.8251 H   0  0  0  0  0  0  0  0  0  0  0  0  # atno 8009 bound_to 7997
  154.5369  140.0733  156.8426 H   0  0  0  0  0  0  0  0  0  0  0  0  # atno 8010 bound_to 7997
  140.7058  143.3201  151.2813 H   0  0  0  0  0  0  0  0  0  0  0  0  # atno 10167 bound_to 10162
  156.8855  130.5669  149.5651 H   0  0  0  0  0  0  0  0  0  0  0  0  # atno 10718 bound_to 10713
  154.4501  135.2764  155.1787 H   0  0  0  0  0  0  0  0  0  0  0  0  # atno 10763 bound_to 10752
  154.3618  135.6128  153.5698 H   0  0  0  0  0  0  0  0  0  0  0  0  # atno 10764 bound_to 10752
  152.9846  135.5836  154.4844 H   0  0  0  0  0  0  0  0  0  0  0  0  # atno 10765 bound_to 10752
  139.9052  134.9602  156.7251 H   0  0  0  0  0  0  0  0  0  0  0  0  # atno 11005 bound_to 11000
  145.6843  141.0182  143.1589 LP  0  0  0  0  0  0  0  0  0  0  0  0  # atno 17320 bound_to 7965
  144.7086  139.8458  143.7422 LP  0  0  0  0  0  0  0  0  0  0  0  0  # atno 17321 bound_to 7965
  139.6652  144.0118  152.2718 LP  0  0  0  0  0  0  0  0  0  0  0  0  # atno 17342 bound_to 10162
  139.9698  144.6501  150.7999 LP  0  0  0  0  0  0  0  0  0  0  0  0  # atno 17343 bound_to 10162
  156.0655  130.5699  150.9280 LP  0  0  0  0  0  0  0  0  0  0  0  0  # atno 17370 bound_to 10713
  157.6115  131.0936  150.8787 LP  0  0  0  0  0  0  0  0  0  0  0  0  # atno 17371 bound_to 10713
  140.6970  133.9340  155.8000 LP  0  0  0  0  0  0  0  0  0  0  0  0  # atno 17394 bound_to 11000
  141.0400  134.0635  157.3913 LP  0  0  0  0  0  0  0  0  0  0  0  0  # atno 17395 bound_to 11000

$$$$
