AV-unprocessed.smi:203|AV-procd|sdf|1589|dock3
  -GOLD-   2262019483D 1   1.00000     0.00000
 Structure written by MMmdl.
 57 61  0  0  0  0  0  0  0  0  1 V2000
  154.3314  137.7140  162.3601 O   0  0  0  0  0  0  0  0  0  0  0  0
  154.1037  137.9937  161.1856 C   0  0  0  0  0  0  0  0  0  0  0  0
  154.5494  139.2896  160.5305 C   0  0  0  0  0  0  0  0  0  0  0  0
  153.8358  139.2703  159.1630 C   0  0  2  0  0  0  0  0  0  0  0  0
  152.7074  140.3391  159.0073 C   0  0  1  0  0  0  0  0  0  0  0  0
  153.0409  141.6733  159.7266 C   0  0  0  0  0  0  0  0  0  0  0  0
  151.9204  142.7073  159.5570 C   0  0  0  0  0  0  0  0  0  0  0  0
  151.6381  142.9279  158.0674 C   0  0  0  0  0  0  0  0  0  0  0  0
  151.3014  141.5955  157.3859 C   0  0  0  0  0  0  0  0  0  0  0  0
  152.3569  140.6055  157.6002 N   0  0  0  0  0  0  0  0  0  0  0  0
  152.1471  139.5202  156.8220 C   0  0  0  0  0  0  0  0  0  0  0  0
  152.9481  139.3705  155.7384 N   0  0  0  0  0  0  0  0  0  0  0  0
  152.7971  138.3096  154.9396 C   0  0  0  0  0  0  0  0  0  0  0  0
  151.9238  137.3047  155.0408 N   0  0  0  0  0  0  0  0  0  0  0  0
  151.1115  137.4599  156.1257 C   0  0  0  0  0  0  0  0  0  0  0  0
  151.1525  138.5305  157.0619 C   0  0  0  0  0  0  0  0  0  0  0  0
  150.1730  138.3517  158.0317 N   0  0  0  0  0  0  0  0  0  0  0  0
  149.5834  137.2398  157.6859 C   0  0  0  0  0  0  0  0  0  0  0  0
  150.0842  136.6379  156.5543 N   0  0  0  0  0  0  0  0  0  0  0  0
  149.6165  135.4029  155.9507 C   0  0  0  0  0  0  0  0  0  0  0  0
  150.7674  134.4108  155.6766 C   0  0  1  0  0  0  0  0  0  0  0  0
  151.4251  134.0655  156.8793 O   0  0  0  0  0  0  0  0  0  0  0  0
  150.3340  133.1129  154.9635 C   0  0  2  0  0  0  0  0  0  0  0  0
  149.5696  133.3354  153.6547 C   0  0  0  0  0  0  0  0  0  0  0  0
  148.6467  132.1287  153.5513 C   0  0  0  0  0  0  0  0  0  0  0  0
  148.8330  131.3958  154.8805 C   0  0  0  0  0  0  0  0  0  0  0  0
  149.4115  132.3640  155.7407 O   0  0  0  0  0  0  0  0  0  0  0  0
  153.3333  137.8199  158.9978 C   0  0  0  0  0  0  0  0  0  0  0  0
  153.4485  137.2274  160.3161 N   0  0  0  0  0  0  0  0  0  0  0  0
  154.2910  140.1544  161.1421 H   0  0  0  0  0  0  0  0  0  0  0  0
  155.6328  139.2757  160.4075 H   0  0  0  0  0  0  0  0  0  0  0  0
  154.5811  139.4268  158.3827 H   0  0  0  0  0  0  0  0  0  0  0  0
  151.8133  139.9374  159.4851 H   0  0  0  0  0  0  0  0  0  0  0  0
  153.2101  141.5102  160.7903 H   0  0  0  0  0  0  0  0  0  0  0  0
  153.9658  142.0950  159.3330 H   0  0  0  0  0  0  0  0  0  0  0  0
  151.0166  142.3599  160.0589 H   0  0  0  0  0  0  0  0  0  0  0  0
  152.2010  143.6483  160.0305 H   0  0  0  0  0  0  0  0  0  0  0  0
  150.8151  143.6317  157.9402 H   0  0  0  0  0  0  0  0  0  0  0  0
  152.5101  143.3753  157.5888 H   0  0  0  0  0  0  0  0  0  0  0  0
  150.3579  141.2122  157.7768 H   0  0  0  0  0  0  0  0  0  0  0  0
  151.1582  141.7614  156.3169 H   0  0  0  0  0  0  0  0  0  0  0  0
  153.4737  138.2580  154.0994 H   0  0  0  0  0  0  0  0  0  0  0  0
  148.7599  136.8255  158.2494 H   0  0  0  0  0  0  0  0  0  0  0  0
  148.8702  134.9579  156.6098 H   0  0  0  0  0  0  0  0  0  0  0  0
  149.0990  135.6550  155.0249 H   0  0  0  0  0  0  0  0  0  0  0  0
  151.5181  134.9032  155.0573 H   0  0  0  0  0  0  0  0  0  0  0  0
  150.7997  133.6459  157.4506 H   0  0  0  0  0  0  0  0  0  0  0  0
  151.2048  132.4887  154.7510 H   0  0  0  0  0  0  0  0  0  0  0  0
  148.9722  134.2463  153.6973 H   0  0  0  0  0  0  0  0  0  0  0  0
  150.2418  133.4228  152.8007 H   0  0  0  0  0  0  0  0  0  0  0  0
  147.6133  132.4541  153.4268 H   0  0  0  0  0  0  0  0  0  0  0  0
  148.9001  131.4865  152.7073 H   0  0  0  0  0  0  0  0  0  0  0  0
  147.8960  131.0120  155.2843 H   0  0  0  0  0  0  0  0  0  0  0  0
  149.5241  130.5591  154.7658 H   0  0  0  0  0  0  0  0  0  0  0  0
  152.3128  137.7562  158.6201 H   0  0  0  0  0  0  0  0  0  0  0  0
  153.9725  137.2651  158.3098 H   0  0  0  0  0  0  0  0  0  0  0  0
  153.0651  136.3202  160.5399 H   0  0  0  0  0  0  0  0  0  0  0  0
  1  2  2  0  0  0  0
  2 29  1  0  0  0  0
  2  3  1  0  0  0  0
  3  4  1  0  0  0  0
  3 30  1  0  0  0  0
  3 31  1  0  0  0  0
  4  5  1  0  0  0  0
  4 28  1  0  0  0  0
  4 32  1  0  0  0  0
  5 10  1  0  0  0  0
  5  6  1  0  0  0  0
  5 33  1  0  0  0  0
  6  7  1  0  0  0  0
  6 34  1  0  0  0  0
  6 35  1  0  0  0  0
  7  8  1  0  0  0  0
  7 36  1  0  0  0  0
  7 37  1  0  0  0  0
  8  9  1  0  0  0  0
  8 38  1  0  0  0  0
  8 39  1  0  0  0  0
  9 10  1  0  0  0  0
  9 40  1  0  0  0  0
  9 41  1  0  0  0  0
 10 11  1  0  0  0  0
 11 16  1  0  0  0  0
 11 12  2  0  0  0  0
 12 13  1  0  0  0  0
 13 14  2  0  0  0  0
 13 42  1  0  0  0  0
 14 15  1  0  0  0  0
 15 19  1  0  0  0  0
 15 16  2  0  0  0  0
 16 17  1  0  0  0  0
 17 18  2  0  0  0  0
 18 19  1  0  0  0  0
 18 43  1  0  0  0  0
 19 20  1  0  0  0  0
 20 21  1  0  0  0  0
 20 44  1  0  0  0  0
 20 45  1  0  0  0  0
 21 22  1  0  0  0  0
 21 23  1  0  0  0  0
 21 46  1  0  0  0  0
 22 47  1  0  0  0  0
 23 27  1  0  0  0  0
 23 24  1  0  0  0  0
 23 48  1  0  0  0  0
 24 25  1  0  0  0  0
 24 49  1  0  0  0  0
 24 50  1  0  0  0  0
 25 26  1  0  0  0  0
 25 51  1  0  0  0  0
 25 52  1  0  0  0  0
 26 27  1  0  0  0  0
 26 53  1  0  0  0  0
 26 54  1  0  0  0  0
 28 29  1  0  0  0  0
 28 55  1  0  0  0  0
 28 56  1  0  0  0  0
 29 57  1  0  0  0  0
M  END
> <s_m_source_file>
AV-unprocessed.smi

> <i_m_source_file_index>
203

> <i_lp_mmshare_version>
43012

> <i_f3d_flags>
0

> <s_epik_input>
Tz1DMVtDSDJdW0NASF0oW0NIMl1bTkhdMSlbQ0BASF0yW0NIMl1bQ0gyXVtDSDJdW0NIMl1OMmMobltjSF1uMyljKGMzNCluW2NIXW40W0NIMl1bQ0BIXShbT0hdKVtDQEBIXTVbQ0gyXVtDSDJdW0NIMl1PNQ==

> <s_epik_cmdline>
J2VwaWtfcHl0aG9uJywgJy1waCcsICc3LjAnLCAnLXRuJywgJzgnLCAnLW1hJywgJzIwMCcsICctbWV0YWxfYmluZGluZycsICctaW1hZScsICc8aW5maWxlLm1hZT4nLCAnLW9tYWUnLCAnPG91dGZpbGUubWFlPic=

> <r_lp_tautomer_probability>
1

> <r_epik_Ionization_Penalty>
0.00175146

> <r_epik_Ionization_Penalty_Charging>
0

> <r_epik_Ionization_Penalty_Neutral>
0.00175146

> <r_epik_State_Penalty>
0.00109045

> <r_epik_Charging_Adjusted_Penalty>
0.00109045

> <i_epik_Tot_Q>
0

> <i_epik_Tot_abs_Q>
0

> <r_epik_Metal_State_Penalty>
-0

> <b_epik_Metal_Only>
0

> <s_lp_Force_Field>
OPLS_2005

> <r_lp_Energy>
57.3309

> <b_lp_Chiralities_Consistent>
1

> <s_lp_Variant>
AV-unprocessed.smi:203-8

> <Gold.Version>
5.8.1

> <Gold.Id.Protein>
6NUR|6NUR_protein|mol2

> <Gold.PLP.Fitness>
46.1732

> <Gold.PLP.PLP>
-41.5522

> <Gold.PLP.part.hbond>
-3.5940

> <Gold.PLP.part.metal>
0.0000

> <Gold.PLP.part.buried>
-7.5388

> <Gold.PLP.part.nonpolar>
-30.8605

> <Gold.PLP.part.repulsive>
0.1794

> <Gold.PLP.ligand.clash>
0.0000

> <Gold.PLP.ligand.torsion>
0.6974

> <Gold.PLP.Chemscore.Hbond>
1.9204

> <Gold.PLP.Chemscore.CHOScore>
0.0000

> <Gold.PLP.Chemscore.Metal>
0.0000

> <Gold.Chemscore.Hbonds>
donor molecule, donor type, donor heavy atom, donor atom, acceptor molecule, acceptor atom, score
      P1  H  7997  8008       L1    12  1.00
      P1  H 10752 10764       L1    14  0.93

> <Gold.PLP.Chemscore.Internal.Correction>
0.2545

> <Gold.Rescore>
     Score         DG    S(hbond)    S(metal)    S(lipo)     H(rot)  DE(clash)    DE(int)     intcor
     13.18     -14.05       1.23        0.00      97.43       2.72       0.01       0.86       ----

> <Gold.Chemscore.Fitness>
13.1798

> <Gold.Chemscore.DG>
-14.0472

> <Gold.Chemscore.ZeroCoef>
-5.4800

> <Gold.Chemscore.Hbond>
1.2344

> <Gold.Chemscore.Metal>
0.0000

> <Gold.Chemscore.Lipo>
97.4350

> <Gold.Chemscore.Internal_Hbond>
0.0000

> <Gold.Chemscore.DEClash>
0.0081

> <Gold.Chemscore.DEInternal>
0.8593

> <Gold.Chemscore.Rot>
2.7171

> <Gold.Chemscore.Internal.Correction>
   9.000000E+99

> <Gold.Chemscore.Hbonds>
donor molecule, donor type, donor heavy atom, donor atom, acceptor molecule, acceptor atom, score
      P1  H  7997  8008       L1    12  0.60
      P1  H 10752 10764       L1    14  0.46

> <Gold.Chemscore.Hbond.Weighted>
-4.1230

> <Gold.Chemscore.Metal.Weighted>
-0.0000

> <Gold.Chemscore.Lipo.Weighted>
-11.3999

> <Gold.Chemscore.Internal_Hbond.Weighted>
0.0000

> <Gold.Chemscore.DEClash.Weighted>
0.0081

> <Gold.Chemscore.DEInternal.Weighted>
0.8593

> <Gold.Chemscore.Rot.Weighted>
6.9557

> <Gold.Chemscore.Internal.Correction.Weighted>
   9.000000E+99

> <Gold.Protein.RotatedTorsions>
[ 6907 6896 6895 6894 ] final   73.38 input  -60.11 | X-H torsion
[ 7974 7965 7964 7962 ] final -154.25 input  175.53 | X-H torsion
[ 8008 7997 7996 7995 ] final  -27.68 input   59.86 | X-H torsion
[ 10167 10162 10161 10158 ] final  123.40 input  -65.29 | X-H torsion
[ 10718 10713 10712 10709 ] final  145.34 input   66.30 | X-H torsion
[ 10763 10752 10751 10750 ] final  -61.77 input  -60.55 | X-H torsion
[ 11005 11000 10999 10996 ] final  136.39 input  -57.11 | X-H torsion

> <Gold.Protein.ActiveResidues>
 VAL166  LYS551  ARG553  GLY616  TRP617  ASP618  TYR619  PRO620  LYS621  CYS622 
 ASP623  PHE694  ASN695  SER759  ASP760  ASP761  ALA762  ILE779  LEU786  VAL792 
 PHE793  MET794  SER795  GLU796  ALA797  LYS798  CYS799  TRP800  GLU811  SER814 

> <Gold.Protein.RotatedAtoms>
  152.4920  134.4430  159.9549 H   0  0  0  0  0  0  0  0  0  0  0  0  # atno 6907 bound_to 6896
  151.4415  133.3636  159.2790 H   0  0  0  0  0  0  0  0  0  0  0  0  # atno 6908 bound_to 6896
  150.9084  134.8523  159.7468 H   0  0  0  0  0  0  0  0  0  0  0  0  # atno 6909 bound_to 6896
  144.7699  140.4414  143.5915 H   0  0  0  0  0  0  0  0  0  0  0  0  # atno 7974 bound_to 7965
  154.4366  140.1866  156.0970 H   0  0  0  0  0  0  0  0  0  0  0  0  # atno 8008 bound_to 7997
  156.0322  140.3329  155.7126 H   0  0  0  0  0  0  0  0  0  0  0  0  # atno 8009 bound_to 7997
  155.5823  140.0623  157.2771 H   0  0  0  0  0  0  0  0  0  0  0  0  # atno 8010 bound_to 7997
  139.5801  144.6982  151.3549 H   0  0  0  0  0  0  0  0  0  0  0  0  # atno 10167 bound_to 10162
  157.3464  131.0944  151.1038 H   0  0  0  0  0  0  0  0  0  0  0  0  # atno 10718 bound_to 10713
  154.2896  135.6256  153.5380 H   0  0  0  0  0  0  0  0  0  0  0  0  # atno 10763 bound_to 10752
  152.9854  135.5652  154.5404 H   0  0  0  0  0  0  0  0  0  0  0  0  # atno 10764 bound_to 10752
  154.5012  135.2872  155.1395 H   0  0  0  0  0  0  0  0  0  0  0  0  # atno 10765 bound_to 10752
  140.0043  134.9465  157.0141 H   0  0  0  0  0  0  0  0  0  0  0  0  # atno 11005 bound_to 11000
  145.6356  139.1542  143.2944 LP  0  0  0  0  0  0  0  0  0  0  0  0  # atno 17320 bound_to 7965
  146.1837  140.6456  142.9177 LP  0  0  0  0  0  0  0  0  0  0  0  0  # atno 17321 bound_to 7965
  140.7080  143.7463  150.7517 LP  0  0  0  0  0  0  0  0  0  0  0  0  # atno 17342 bound_to 10162
  140.0993  143.4803  152.2434 LP  0  0  0  0  0  0  0  0  0  0  0  0  # atno 17343 bound_to 10162
  157.2230  130.6490  149.5819 LP  0  0  0  0  0  0  0  0  0  0  0  0  # atno 17370 bound_to 10713
  155.9715  130.4623  150.6141 LP  0  0  0  0  0  0  0  0  0  0  0  0  # atno 17371 bound_to 10713
  140.4670  134.1426  155.7198 LP  0  0  0  0  0  0  0  0  0  0  0  0  # atno 17394 bound_to 11000
  141.1665  133.8692  157.1698 LP  0  0  0  0  0  0  0  0  0  0  0  0  # atno 17395 bound_to 11000

$$$$
