AV-unprocessed.smi:2488|AV-procd|sdf|9793|dock4
  -GOLD-   2272013433D 1   1.00000     0.00000
 Structure written by MMmdl.
 33 34  0  0  0  0  0  0  0  0  1 V2000
  152.9154  143.1201  161.8048 C   0  0  0  0  0  0  0  0  0  0  0  0
  153.3648  142.0845  160.7678 C   0  0  0  0  0  0  0  0  0  0  0  0
  152.8487  142.4022  159.3767 C   0  0  0  0  0  0  0  0  0  0  0  0
  152.9990  143.6756  158.9493 N   0  0  0  0  0  0  0  0  0  0  0  0
  152.5371  143.9586  157.7293 C   0  0  0  0  0  0  0  0  0  0  0  0
  151.9390  143.1142  156.8859 N   0  0  0  0  0  0  0  0  0  0  0  0
  151.7683  141.8345  157.3018 C   0  0  0  0  0  0  0  0  0  0  0  0
  151.1518  140.9066  156.4380 N   0  0  0  0  0  0  0  0  0  0  0  0
  152.0969  139.8746  156.0193 C   0  0  0  0  0  0  0  0  0  0  0  0
  151.3784  138.7661  155.2368 C   0  0  0  0  0  0  0  0  0  0  0  0
  150.6907  139.3442  154.1356 O   0  0  0  0  0  0  0  0  0  0  0  0
  149.6850  140.2531  154.5670 C   0  0  0  0  0  0  0  0  0  0  0  0
  150.3151  141.4312  155.3470 C   0  0  1  0  0  0  0  0  0  0  0  0
  149.1820  142.3710  155.7993 C   0  0  0  0  0  0  0  0  0  0  0  0
  148.4000  142.8811  154.8446 N   0  0  0  0  0  0  0  0  0  0  0  0
  149.0071  142.6229  156.9904 O   0  0  0  0  0  0  0  0  0  0  0  0
  152.2274  141.4213  158.5737 C   0  0  0  0  0  0  0  0  0  0  0  0
  152.0680  140.1466  159.0070 F   0  0  0  0  0  0  0  0  0  0  0  0
  153.2974  142.8699  162.7945 H   0  0  0  0  0  0  0  0  0  0  0  0
  151.8278  143.1643  161.8684 H   0  0  0  0  0  0  0  0  0  0  0  0
  153.2775  144.1165  161.5501 H   0  0  0  0  0  0  0  0  0  0  0  0
  154.4541  142.0391  160.7408 H   0  0  0  0  0  0  0  0  0  0  0  0
  153.0265  141.0919  161.0660 H   0  0  0  0  0  0  0  0  0  0  0  0
  152.6620  144.9753  157.3881 H   0  0  0  0  0  0  0  0  0  0  0  0
  152.8709  140.3257  155.3961 H   0  0  0  0  0  0  0  0  0  0  0  0
  152.5992  139.4365  156.8828 H   0  0  0  0  0  0  0  0  0  0  0  0
  152.1008  138.0404  154.8628 H   0  0  0  0  0  0  0  0  0  0  0  0
  150.6813  138.2224  155.8769 H   0  0  0  0  0  0  0  0  0  0  0  0
  149.1572  140.6188  153.6853 H   0  0  0  0  0  0  0  0  0  0  0  0
  148.9497  139.7222  155.1754 H   0  0  0  0  0  0  0  0  0  0  0  0
  150.9647  141.9769  154.6597 H   0  0  0  0  0  0  0  0  0  0  0  0
  147.6409  143.4994  155.0910 H   0  0  0  0  0  0  0  0  0  0  0  0
  148.5694  142.6424  153.8783 H   0  0  0  0  0  0  0  0  0  0  0  0
  1  2  1  0  0  0  0
  1 19  1  0  0  0  0
  1 20  1  0  0  0  0
  1 21  1  0  0  0  0
  2  3  1  0  0  0  0
  2 22  1  0  0  0  0
  2 23  1  0  0  0  0
  3 17  1  0  0  0  0
  3  4  2  0  0  0  0
  4  5  1  0  0  0  0
  5  6  2  0  0  0  0
  5 24  1  0  0  0  0
  6  7  1  0  0  0  0
  7  8  1  0  0  0  0
  7 17  2  0  0  0  0
  8 13  1  0  0  0  0
  8  9  1  0  0  0  0
  9 10  1  0  0  0  0
  9 25  1  0  0  0  0
  9 26  1  0  0  0  0
 10 11  1  0  0  0  0
 10 27  1  0  0  0  0
 10 28  1  0  0  0  0
 11 12  1  0  0  0  0
 12 13  1  0  0  0  0
 12 29  1  0  0  0  0
 12 30  1  0  0  0  0
 13 14  1  0  0  0  0
 13 31  1  0  0  0  0
 14 15  1  0  0  0  0
 14 16  2  0  0  0  0
 15 32  1  0  0  0  0
 15 33  1  0  0  0  0
 17 18  1  0  0  0  0
M  END
> <s_m_source_file>
AV-unprocessed.smi

> <i_m_source_file_index>
2488

> <i_lp_mmshare_version>
43012

> <i_f3d_flags>
0

> <s_epik_input>
W0NIM11bQ0gyXWMxbltjSF1uYyhjMUYpTjJbQ0gyXVtDSDJdT1tDSDJdW0NASF0yQyg9TylbTkgyXQ==

> <s_epik_cmdline>
J2VwaWtfcHl0aG9uJywgJy1waCcsICc3LjAnLCAnLXRuJywgJzgnLCAnLW1hJywgJzIwMCcsICctbWV0YWxfYmluZGluZycsICctaW1hZScsICc8aW5maWxlLm1hZT4nLCAnLW9tYWUnLCAnPG91dGZpbGUubWFlPic=

> <r_lp_tautomer_probability>
1

> <r_epik_Ionization_Penalty>
2.73136e-05

> <r_epik_Ionization_Penalty_Charging>
0

> <r_epik_Ionization_Penalty_Neutral>
2.73136e-05

> <r_epik_State_Penalty>
-0

> <r_epik_Charging_Adjusted_Penalty>
0

> <i_epik_Tot_Q>
0

> <i_epik_Tot_abs_Q>
0

> <r_epik_Metal_State_Penalty>
-0

> <b_epik_Metal_Only>
0

> <s_lp_Force_Field>
OPLS_2005

> <r_lp_Energy>
12.1778

> <b_lp_Chiralities_Consistent>
1

> <s_lp_Variant>
AV-unprocessed.smi:2488-1

> <Gold.Version>
5.8.1

> <Gold.Id.Protein>
6NUR|6NUR_protein|mol2

> <Gold.PLP.Fitness>
38.8280

> <Gold.PLP.PLP>
-36.5304

> <Gold.PLP.part.hbond>
-2.0000

> <Gold.PLP.part.metal>
0.0000

> <Gold.PLP.part.buried>
-3.3156

> <Gold.PLP.part.nonpolar>
-30.2294

> <Gold.PLP.part.repulsive>
0.5310

> <Gold.PLP.ligand.clash>
0.0000

> <Gold.PLP.ligand.torsion>
0.4547

> <Gold.PLP.Chemscore.Hbond>
1.0000

> <Gold.PLP.Chemscore.CHOScore>
0.0000

> <Gold.PLP.Chemscore.Metal>
0.0000

> <Gold.Chemscore.Hbonds>
donor molecule, donor type, donor heavy atom, donor atom, acceptor molecule, acceptor atom, score
      P1  H  7989  7998       L1    11  0.35

> <Gold.PLP.Chemscore.Internal.Correction>
0.2071

> <Gold.Rescore>
     Score         DG    S(hbond)    S(metal)    S(lipo)     H(rot)  DE(clash)    DE(int)     intcor
      8.78     -11.18       0.77        0.00      67.29       1.86       0.25       2.15       ----

> <Gold.Chemscore.Fitness>
8.7804

> <Gold.Chemscore.DG>
-11.1786

> <Gold.Chemscore.ZeroCoef>
-5.4800

> <Gold.Chemscore.Hbond>
0.7731

> <Gold.Chemscore.Metal>
0.0000

> <Gold.Chemscore.Lipo>
67.2947

> <Gold.Chemscore.Internal_Hbond>
0.0000

> <Gold.Chemscore.DEClash>
0.2504

> <Gold.Chemscore.DEInternal>
2.1479

> <Gold.Chemscore.Rot>
1.8582

> <Gold.Chemscore.Internal.Correction>
   9.000000E+99

> <Gold.Chemscore.Hbonds>
donor molecule, donor type, donor heavy atom, donor atom, acceptor molecule, acceptor atom, score
      P1  H  7989  7998       L1    11  0.01

> <Gold.Chemscore.Hbond.Weighted>
-2.5822

> <Gold.Chemscore.Metal.Weighted>
-0.0000

> <Gold.Chemscore.Lipo.Weighted>
-7.8735

> <Gold.Chemscore.Internal_Hbond.Weighted>
0.0000

> <Gold.Chemscore.DEClash.Weighted>
0.2504

> <Gold.Chemscore.DEInternal.Weighted>
2.1479

> <Gold.Chemscore.Rot.Weighted>
4.7570

> <Gold.Chemscore.Internal.Correction.Weighted>
   9.000000E+99

> <Gold.Protein.RotatedTorsions>
[ 6907 6896 6895 6894 ] final   93.48 input  -60.11 | X-H torsion
[ 7974 7965 7964 7962 ] final -172.98 input  175.53 | X-H torsion
[ 8008 7997 7996 7995 ] final  108.63 input   59.86 | X-H torsion
[ 10167 10162 10161 10158 ] final  -34.30 input  -65.29 | X-H torsion
[ 10718 10713 10712 10709 ] final   36.60 input   66.30 | X-H torsion
[ 10763 10752 10751 10750 ] final  -98.59 input  -60.55 | X-H torsion
[ 11005 11000 10999 10996 ] final -135.95 input  -57.11 | X-H torsion

> <Gold.Protein.ActiveResidues>
 VAL166  LYS551  ARG553  GLY616  TRP617  ASP618  TYR619  PRO620  LYS621  CYS622 
 ASP623  PHE694  ASN695  SER759  ASP760  ASP761  ALA762  ILE779  LEU786  VAL792 
 PHE793  MET794  SER795  GLU796  ALA797  LYS798  CYS799  TRP800  GLU811  SER814 

> <Gold.Protein.RotatedAtoms>
  152.5452  134.1341  159.8451 H   0  0  0  0  0  0  0  0  0  0  0  0  # atno 6907 bound_to 6896
  151.1384  133.4981  159.2605 H   0  0  0  0  0  0  0  0  0  0  0  0  # atno 6908 bound_to 6896
  151.1600  135.0279  159.8760 H   0  0  0  0  0  0  0  0  0  0  0  0  # atno 6909 bound_to 6896
  144.7141  140.1690  143.6369 H   0  0  0  0  0  0  0  0  0  0  0  0  # atno 7974 bound_to 7965
  156.1917  140.3073  155.9346 H   0  0  0  0  0  0  0  0  0  0  0  0  # atno 8008 bound_to 7997
  155.3157  140.0453  157.3054 H   0  0  0  0  0  0  0  0  0  0  0  0  # atno 8009 bound_to 7997
  154.5461  140.2277  155.8571 H   0  0  0  0  0  0  0  0  0  0  0  0  # atno 8010 bound_to 7997
  140.7188  143.3558  151.2063 H   0  0  0  0  0  0  0  0  0  0  0  0  # atno 10167 bound_to 10162
  157.3368  130.7527  149.6884 H   0  0  0  0  0  0  0  0  0  0  0  0  # atno 10718 bound_to 10713
  154.7427  135.5003  153.9151 H   0  0  0  0  0  0  0  0  0  0  0  0  # atno 10763 bound_to 10752
  153.1060  135.6697  153.9594 H   0  0  0  0  0  0  0  0  0  0  0  0  # atno 10764 bound_to 10752
  153.9367  135.3072  155.3423 H   0  0  0  0  0  0  0  0  0  0  0  0  # atno 10765 bound_to 10752
  140.8850  134.1884  157.4566 H   0  0  0  0  0  0  0  0  0  0  0  0  # atno 11005 bound_to 11000
  145.8961  139.2403  143.1521 LP  0  0  0  0  0  0  0  0  0  0  0  0  # atno 17320 bound_to 7965
  145.9856  140.8646  143.0092 LP  0  0  0  0  0  0  0  0  0  0  0  0  # atno 17321 bound_to 7965
  139.7099  143.9394  152.2943 LP  0  0  0  0  0  0  0  0  0  0  0  0  # atno 17342 bound_to 10162
  139.9115  144.6853  150.8557 LP  0  0  0  0  0  0  0  0  0  0  0  0  # atno 17343 bound_to 10162
  155.9702  130.4179  150.4302 LP  0  0  0  0  0  0  0  0  0  0  0  0  # atno 17370 bound_to 10713
  157.2343  131.0511  151.2474 LP  0  0  0  0  0  0  0  0  0  0  0  0  # atno 17371 bound_to 10713
  139.8723  134.9834  156.5195 LP  0  0  0  0  0  0  0  0  0  0  0  0  # atno 17394 bound_to 11000
  140.8416  133.8201  155.9080 LP  0  0  0  0  0  0  0  0  0  0  0  0  # atno 17395 bound_to 11000

$$$$
