AV-unprocessed.smi:1812|AV-procd|sdf|7339|dock7
  -GOLD-   22720 9 03D 1   1.00000     0.00000
 Structure written by MMmdl.
 33 35  0  0  0  0  0  0  0  0  2 V2000
  152.6342  140.1619  159.0988 O   0  0  0  0  0  0  0  0  0  0  0  0
  153.7326  140.2152  159.6567 C   0  0  0  0  0  0  0  0  0  0  0  0
  153.9339  141.0721  160.6673 N   0  0  0  0  0  0  0  0  0  0  0  0
  152.9617  142.0157  161.2082 C   0  0  0  0  0  0  0  0  0  0  0  0
  153.1420  143.3954  160.5608 C   0  0  1  0  0  0  0  0  0  0  0  0
  152.7531  143.4444  159.0844 C   0  0  0  0  0  0  0  0  0  0  0  0
  152.3850  144.9035  158.8590 C   0  0  0  0  0  0  0  0  0  0  0  0
  152.2509  145.4791  160.2721 C   0  0  0  0  0  0  0  0  0  0  0  0
  152.2616  144.3498  161.1331 O   0  0  0  0  0  0  0  0  0  0  0  0
  154.8213  139.4729  159.3517 N   0  5  0  0  0  0  0  0  0  0  0  0
  155.2625  138.5399  160.2113 C   0  0  0  0  0  0  0  0  0  0  0  0
  156.3151  137.7543  159.9436 N   0  0  0  0  0  0  0  0  0  0  0  0
  156.5951  136.8539  160.9613 N   0  0  0  0  0  0  0  0  0  0  0  0
  155.7430  136.9672  161.9828 C   0  0  0  0  0  0  0  0  0  0  0  0
  155.8323  136.1062  163.1979 C   0  0  0  0  0  0  0  0  0  0  0  0
  154.7686  136.1425  164.2737 C   0  0  0  0  0  0  0  0  0  0  0  0
  156.1391  136.7061  164.5507 C   0  0  0  0  0  0  0  0  0  0  0  0
  154.5122  138.2022  161.7708 S   0  0  0  0  0  0  0  0  0  0  0  0
  154.8487  141.0734  161.0942 H   0  0  0  0  0  0  0  0  0  0  0  0
  151.9417  141.6714  161.0304 H   0  0  0  0  0  0  0  0  0  0  0  0
  153.0926  142.0782  162.2892 H   0  0  0  0  0  0  0  0  0  0  0  0
  154.1708  143.7407  160.6822 H   0  0  0  0  0  0  0  0  0  0  0  0
  153.5543  143.1020  158.4290 H   0  0  0  0  0  0  0  0  0  0  0  0
  151.8794  142.8168  158.9036 H   0  0  0  0  0  0  0  0  0  0  0  0
  153.1580  145.4313  158.2995 H   0  0  0  0  0  0  0  0  0  0  0  0
  151.4516  144.9855  158.3013 H   0  0  0  0  0  0  0  0  0  0  0  0
  153.1037  146.1172  160.5085 H   0  0  0  0  0  0  0  0  0  0  0  0
  151.3408  146.0650  160.4026 H   0  0  0  0  0  0  0  0  0  0  0  0
  156.2749  135.1424  162.9537 H   0  0  0  0  0  0  0  0  0  0  0  0
  153.9517  136.8537  164.1678 H   0  0  0  0  0  0  0  0  0  0  0  0
  154.5066  135.2003  164.7506 H   0  0  0  0  0  0  0  0  0  0  0  0
  156.7920  136.1411  165.2129 H   0  0  0  0  0  0  0  0  0  0  0  0
  156.2330  137.7885  164.6139 H   0  0  0  0  0  0  0  0  0  0  0  0
  1  2  2  0  0  0  0
  2  3  1  0  0  0  0
  2 10  1  0  0  0  0
  3  4  1  0  0  0  0
  3 19  1  0  0  0  0
  4  5  1  0  0  0  0
  4 20  1  0  0  0  0
  4 21  1  0  0  0  0
  5  9  1  0  0  0  0
  5  6  1  0  0  0  0
  5 22  1  0  0  0  0
  6  7  1  0  0  0  0
  6 23  1  0  0  0  0
  6 24  1  0  0  0  0
  7  8  1  0  0  0  0
  7 25  1  0  0  0  0
  7 26  1  0  0  0  0
  8  9  1  0  0  0  0
  8 27  1  0  0  0  0
  8 28  1  0  0  0  0
 10 11  1  0  0  0  0
 11 18  1  0  0  0  0
 11 12  2  0  0  0  0
 12 13  1  0  0  0  0
 13 14  2  0  0  0  0
 14 15  1  0  0  0  0
 14 18  1  0  0  0  0
 15 17  1  0  0  0  0
 15 16  1  0  0  0  0
 15 29  1  0  0  0  0
 16 17  1  0  0  0  0
 16 30  1  0  0  0  0
 16 31  1  0  0  0  0
 17 32  1  0  0  0  0
 17 33  1  0  0  0  0
M  CHG  1  10  -1
M  END
> <s_m_source_file>
AV-unprocessed.smi

> <i_m_source_file_index>
1812

> <i_lp_mmshare_version>
43012

> <i_f3d_flags>
0

> <s_epik_input>
TzFbQ0gyXVtDSDJdW0NIMl1bQ0BIXTFbQ0gyXVtOSF1DKD1PKVtOSF1jMm5uYyhzMilbQ0hdM1tDSDJdW0NIMl0z

> <s_epik_cmdline>
J2VwaWtfcHl0aG9uJywgJy1waCcsICc3LjAnLCAnLXRuJywgJzgnLCAnLW1hJywgJzIwMCcsICctbWV0YWxfYmluZGluZycsICctaW1hZScsICc8aW5maWxlLm1hZT4nLCAnLW9tYWUnLCAnPG91dGZpbGUubWFlPic=

> <r_lp_tautomer_probability>
1

> <r_epik_Ionization_Penalty>
4.72991

> <r_epik_Ionization_Penalty_Charging>
4.58249

> <r_epik_Ionization_Penalty_Neutral>
0.147417

> <r_epik_State_Penalty>
4.58223

> <r_epik_Charging_Adjusted_Penalty>
9.16473

> <i_epik_Tot_Q>
-1

> <i_epik_Tot_abs_Q>
1

> <r_epik_Metal_State_Penalty>
0.861876

> <b_epik_Metal_Only>
1

> <s_lp_Force_Field>
OPLS_2005

> <r_lp_Energy>
14.1682

> <b_lp_Chiralities_Consistent>
1

> <s_lp_Variant>
AV-unprocessed.smi:1812-4

> <Gold.Version>
5.8.1

> <Gold.Id.Protein>
6NUR|6NUR_protein|mol2

> <Gold.PLP.Fitness>
40.5408

> <Gold.PLP.PLP>
-36.1883

> <Gold.PLP.part.hbond>
-1.0000

> <Gold.PLP.part.metal>
0.0000

> <Gold.PLP.part.buried>
-5.3006

> <Gold.PLP.part.nonpolar>
-30.6656

> <Gold.PLP.part.repulsive>
0.1686

> <Gold.PLP.ligand.clash>
0.0000

> <Gold.PLP.ligand.torsion>
0.9118

> <Gold.PLP.Chemscore.Hbond>
2.0000

> <Gold.PLP.Chemscore.CHOScore>
0.0000

> <Gold.PLP.Chemscore.Metal>
0.0000

> <Gold.Chemscore.Hbonds>
donor molecule, donor type, donor heavy atom, donor atom, acceptor molecule, acceptor atom, score
      P1  H  7997  8008       L1    10  1.66

> <Gold.PLP.Chemscore.Internal.Correction>
0.1760

> <Gold.Rescore>
     Score         DG    S(hbond)    S(metal)    S(lipo)     H(rot)  DE(clash)    DE(int)     intcor
     14.78     -15.84       0.93        0.00      93.71       1.45       0.04       1.02       ----

> <Gold.Chemscore.Fitness>
14.7844

> <Gold.Chemscore.DG>
-15.8439

> <Gold.Chemscore.ZeroCoef>
-5.4800

> <Gold.Chemscore.Hbond>
0.9279

> <Gold.Chemscore.Metal>
0.0000

> <Gold.Chemscore.Lipo>
93.7125

> <Gold.Chemscore.Internal_Hbond>
0.0000

> <Gold.Chemscore.DEClash>
0.0370

> <Gold.Chemscore.DEInternal>
1.0225

> <Gold.Chemscore.Rot>
1.4451

> <Gold.Chemscore.Internal.Correction>
   9.000000E+99

> <Gold.Chemscore.Hbonds>
donor molecule, donor type, donor heavy atom, donor atom, acceptor molecule, acceptor atom, score
      P1  H  7997  8008       L1    10  0.28

> <Gold.Chemscore.Hbond.Weighted>
-3.0990

> <Gold.Chemscore.Metal.Weighted>
-0.0000

> <Gold.Chemscore.Lipo.Weighted>
-10.9644

> <Gold.Chemscore.Internal_Hbond.Weighted>
0.0000

> <Gold.Chemscore.DEClash.Weighted>
0.0370

> <Gold.Chemscore.DEInternal.Weighted>
1.0225

> <Gold.Chemscore.Rot.Weighted>
3.6995

> <Gold.Chemscore.Internal.Correction.Weighted>
   9.000000E+99

> <Gold.Protein.RotatedTorsions>
[ 6907 6896 6895 6894 ] final   48.55 input  -60.11 | X-H torsion
[ 7974 7965 7964 7962 ] final  -69.88 input  175.53 | X-H torsion
[ 8008 7997 7996 7995 ] final -123.64 input   59.86 | X-H torsion
[ 10167 10162 10161 10158 ] final  -62.95 input  -65.29 | X-H torsion
[ 10718 10713 10712 10709 ] final  -92.86 input   66.30 | X-H torsion
[ 10763 10752 10751 10750 ] final  178.41 input  -60.55 | X-H torsion
[ 11005 11000 10999 10996 ] final  -20.32 input  -57.11 | X-H torsion

> <Gold.Protein.ActiveResidues>
 VAL166  LYS551  ARG553  GLY616  TRP617  ASP618  TYR619  PRO620  LYS621  CYS622 
 ASP623  PHE694  ASN695  SER759  ASP760  ASP761  ALA762  ILE779  LEU786  VAL792 
 PHE793  MET794  SER795  GLU796  ALA797  LYS798  CYS799  TRP800  GLU811  SER814 

> <Gold.Protein.RotatedAtoms>
  152.2808  134.7831  160.0396 H   0  0  0  0  0  0  0  0  0  0  0  0  # atno 6907 bound_to 6896
  151.8411  133.3418  159.3651 H   0  0  0  0  0  0  0  0  0  0  0  0  # atno 6908 bound_to 6896
  150.7189  134.5319  159.5749 H   0  0  0  0  0  0  0  0  0  0  0  0  # atno 6909 bound_to 6896
  145.6981  140.9127  143.0745 H   0  0  0  0  0  0  0  0  0  0  0  0  # atno 7974 bound_to 7965
  155.1839  140.0411  157.2887 H   0  0  0  0  0  0  0  0  0  0  0  0  # atno 8008 bound_to 7997
  154.6185  140.2495  155.7551 H   0  0  0  0  0  0  0  0  0  0  0  0  # atno 8009 bound_to 7997
  156.2420  140.2900  156.0481 H   0  0  0  0  0  0  0  0  0  0  0  0  # atno 8010 bound_to 7997
  140.5904  143.2341  151.6151 H   0  0  0  0  0  0  0  0  0  0  0  0  # atno 10167 bound_to 10162
  156.0007  130.5004  150.5689 H   0  0  0  0  0  0  0  0  0  0  0  0  # atno 10718 bound_to 10713
  154.5072  135.2786  155.1372 H   0  0  0  0  0  0  0  0  0  0  0  0  # atno 10763 bound_to 10752
  154.2982  135.6253  153.5417 H   0  0  0  0  0  0  0  0  0  0  0  0  # atno 10764 bound_to 10752
  152.9912  135.5690  154.5529 H   0  0  0  0  0  0  0  0  0  0  0  0  # atno 10765 bound_to 10752
  140.8453  133.7896  155.9906 H   0  0  0  0  0  0  0  0  0  0  0  0  # atno 11005 bound_to 11000
  144.6976  139.8911  143.7453 LP  0  0  0  0  0  0  0  0  0  0  0  0  # atno 17320 bound_to 7965
  146.0822  139.3810  143.0457 LP  0  0  0  0  0  0  0  0  0  0  0  0  # atno 17321 bound_to 7965
  139.5224  144.3164  152.0949 LP  0  0  0  0  0  0  0  0  0  0  0  0  # atno 17342 bound_to 10162
  140.2327  144.4351  150.6293 LP  0  0  0  0  0  0  0  0  0  0  0  0  # atno 17343 bound_to 10162
  157.3587  131.0746  151.1654 LP  0  0  0  0  0  0  0  0  0  0  0  0  # atno 17370 bound_to 10713
  157.2446  130.6585  149.5904 LP  0  0  0  0  0  0  0  0  0  0  0  0  # atno 17371 bound_to 10713
  140.8850  134.2565  157.5124 LP  0  0  0  0  0  0  0  0  0  0  0  0  # atno 17394 bound_to 11000
  139.8703  134.9633  156.4459 LP  0  0  0  0  0  0  0  0  0  0  0  0  # atno 17395 bound_to 11000

$$$$
