AV-unprocessed.smi:3009|AV-procd|sdf|11454|dock10
  -GOLD-   2272016383D 1   1.00000     0.00000
 Structure written by MMmdl.
 43 44  0  0  0  0  0  0  0  0  1 V2000
  151.7235  140.8038  159.5771 C   0  0  0  0  0  0  0  0  0  0  0  0
  151.9946  141.8621  158.4954 C   0  0  0  0  0  0  0  0  0  0  0  0
  152.1777  143.2475  159.1316 C   0  0  0  0  0  0  0  0  0  0  0  0
  150.8714  141.9009  157.4368 C   0  0  0  0  0  0  0  0  0  0  0  0
  150.6648  140.6654  156.6794 N   0  0  0  0  0  0  0  0  0  0  0  0
  151.8781  140.2021  156.0094 C   0  0  0  0  0  0  0  0  0  0  0  0
  151.6318  138.9156  155.2029 C   0  0  0  0  0  0  0  0  0  0  0  0
  150.5801  139.1256  154.2670 O   0  0  0  0  0  0  0  0  0  0  0  0
  149.3622  139.5409  154.8799 C   0  0  2  0  0  0  0  0  0  0  0  0
  148.2698  139.6808  153.8022 C   0  0  0  0  0  0  0  0  0  0  0  0
  147.8093  138.3922  153.2922 N   0  0  0  0  0  0  0  0  0  0  0  0
  146.5981  137.8626  153.5125 C   0  0  0  0  0  0  0  0  0  0  0  0
  145.7179  138.4208  154.1677 O   0  0  0  0  0  0  0  0  0  0  0  0
  146.4796  136.6585  152.9293 N   0  0  0  0  0  0  0  0  0  0  0  0
  145.3481  135.8041  152.9408 C   0  0  0  0  0  0  0  0  0  0  0  0
  144.1959  135.9758  152.1265 C   0  0  0  0  0  0  0  0  0  0  0  0
  143.2982  135.0271  152.3523 N   0  0  0  0  0  0  0  0  0  0  0  0
  143.8666  134.2514  153.3029 N   0  0  0  0  0  0  0  0  0  0  0  0
  145.1148  134.6857  153.6911 C   0  0  0  0  0  0  0  0  0  0  0  0
  149.6132  140.8354  155.6830 C   0  0  0  0  0  0  0  0  0  0  0  0
  143.3952  133.4384  153.6733 H   0  0  0  0  0  0  0  0  0  0  0  0
  150.7876  141.0016  160.1004 H   0  0  0  0  0  0  0  0  0  0  0  0
  152.5228  140.7869  160.3183 H   0  0  0  0  0  0  0  0  0  0  0  0
  151.6592  139.8041  159.1466 H   0  0  0  0  0  0  0  0  0  0  0  0
  152.9391  141.6157  158.0114 H   0  0  0  0  0  0  0  0  0  0  0  0
  151.2737  143.5696  159.6497 H   0  0  0  0  0  0  0  0  0  0  0  0
  152.4138  143.9979  158.3767 H   0  0  0  0  0  0  0  0  0  0  0  0
  152.9930  143.2437  159.8556 H   0  0  0  0  0  0  0  0  0  0  0  0
  149.9436  142.1606  157.9485 H   0  0  0  0  0  0  0  0  0  0  0  0
  151.0614  142.7192  156.7403 H   0  0  0  0  0  0  0  0  0  0  0  0
  152.2541  140.9798  155.3429 H   0  0  0  0  0  0  0  0  0  0  0  0
  152.6639  140.0057  156.7375 H   0  0  0  0  0  0  0  0  0  0  0  0
  152.5346  138.6267  154.6644 H   0  0  0  0  0  0  0  0  0  0  0  0
  151.3760  138.0883  155.8666 H   0  0  0  0  0  0  0  0  0  0  0  0
  149.0481  138.7549  155.5689 H   0  0  0  0  0  0  0  0  0  0  0  0
  147.4327  140.2653  154.1871 H   0  0  0  0  0  0  0  0  0  0  0  0
  148.6673  140.2443  152.9578 H   0  0  0  0  0  0  0  0  0  0  0  0
  148.4668  137.8613  152.7399 H   0  0  0  0  0  0  0  0  0  0  0  0
  147.2823  136.3185  152.4206 H   0  0  0  0  0  0  0  0  0  0  0  0
  143.9848  136.7421  151.3950 H   0  0  0  0  0  0  0  0  0  0  0  0
  145.6980  134.1732  154.4416 H   0  0  0  0  0  0  0  0  0  0  0  0
  148.6871  141.1377  156.1735 H   0  0  0  0  0  0  0  0  0  0  0  0
  149.8842  141.6455  155.0042 H   0  0  0  0  0  0  0  0  0  0  0  0
  1  2  1  0  0  0  0
  1 22  1  0  0  0  0
  1 23  1  0  0  0  0
  1 24  1  0  0  0  0
  2  3  1  0  0  0  0
  2  4  1  0  0  0  0
  2 25  1  0  0  0  0
  3 26  1  0  0  0  0
  3 27  1  0  0  0  0
  3 28  1  0  0  0  0
  4  5  1  0  0  0  0
  4 29  1  0  0  0  0
  4 30  1  0  0  0  0
  5 20  1  0  0  0  0
  5  6  1  0  0  0  0
  6  7  1  0  0  0  0
  6 31  1  0  0  0  0
  6 32  1  0  0  0  0
  7  8  1  0  0  0  0
  7 33  1  0  0  0  0
  7 34  1  0  0  0  0
  8  9  1  0  0  0  0
  9 10  1  0  0  0  0
  9 20  1  0  0  0  0
  9 35  1  0  0  0  0
 10 11  1  0  0  0  0
 10 36  1  0  0  0  0
 10 37  1  0  0  0  0
 11 12  1  0  0  0  0
 11 38  1  0  0  0  0
 12 13  2  0  0  0  0
 12 14  1  0  0  0  0
 14 15  1  0  0  0  0
 14 39  1  0  0  0  0
 15 19  2  0  0  0  0
 15 16  1  0  0  0  0
 16 17  2  0  0  0  0
 16 40  1  0  0  0  0
 17 18  1  0  0  0  0
 18 21  1  0  0  0  0
 18 19  1  0  0  0  0
 19 41  1  0  0  0  0
 20 42  1  0  0  0  0
 20 43  1  0  0  0  0
M  END
> <s_m_source_file>
AV-unprocessed.smi

> <i_m_source_file_index>
3009

> <i_lp_mmshare_version>
43012

> <i_f3d_flags>
0

> <s_epik_input>
W0NIM11bQ0hdKFtDSDNdKVtDSDJdTjFbQ0gyXVtDSDJdT1tDQEhdKFtDSDJdMSlbQ0gyXVtOSF1DKD1PKVtOSF1jMltjSF1uW25IXVtjSF0y

> <s_epik_cmdline>
J2VwaWtfcHl0aG9uJywgJy1waCcsICc3LjAnLCAnLXRuJywgJzgnLCAnLW1hJywgJzIwMCcsICctbWV0YWxfYmluZGluZycsICctaW1hZScsICc8aW5maWxlLm1hZT4nLCAnLW9tYWUnLCAnPG91dGZpbGUubWFlPic=

> <r_lp_tautomer_probability>
0.5

> <r_epik_Ionization_Penalty>
1.11801

> <r_epik_Ionization_Penalty_Charging>
0

> <r_epik_Ionization_Penalty_Neutral>
1.11801

> <r_epik_State_Penalty>
1.17654

> <r_epik_Charging_Adjusted_Penalty>
1.17654

> <i_epik_Tot_Q>
0

> <i_epik_Tot_abs_Q>
0

> <r_epik_Metal_State_Penalty>
1.17654

> <b_epik_Metal_Only>
0

> <s_lp_Force_Field>
OPLS_2005

> <r_lp_Energy>
28.7191

> <b_lp_Chiralities_Consistent>
1

> <s_lp_Variant>
AV-unprocessed.smi:3009-6

> <Gold.Version>
5.8.1

> <Gold.Id.Protein>
6NUR|6NUR_protein|mol2

> <Gold.PLP.Fitness>
39.4385

> <Gold.PLP.PLP>
-28.4105

> <Gold.PLP.part.hbond>
-4.0927

> <Gold.PLP.part.metal>
0.0000

> <Gold.PLP.part.buried>
-3.7217

> <Gold.PLP.part.nonpolar>
-22.0364

> <Gold.PLP.part.repulsive>
0.5372

> <Gold.PLP.ligand.clash>
0.0000

> <Gold.PLP.ligand.torsion>
0.8581

> <Gold.PLP.Chemscore.Hbond>
3.2431

> <Gold.PLP.Chemscore.CHOScore>
0.9992

> <Gold.PLP.Chemscore.Metal>
0.0000

> <Gold.Chemscore.Hbonds>
donor molecule, donor type, donor heavy atom, donor atom, acceptor molecule, acceptor atom, score
      L1  H    11    38       P1  7948  1.00
      L1  H    14    39       P1  7948  1.00
      L1  H    18    21       P1 10957  0.73
      P1  H  7989  7998       L1     8  0.32
      L1  C    16    40       P1 10171  1.00

> <Gold.PLP.Chemscore.Internal.Correction>
0.0172

> <Gold.Rescore>
     Score         DG    S(hbond)    S(metal)    S(lipo)     H(rot)  DE(clash)    DE(int)     intcor
     18.59     -20.01       2.96        0.00      77.98       1.76       0.55       0.87       ----

> <Gold.Chemscore.Fitness>
18.5891

> <Gold.Chemscore.DG>
-20.0058

> <Gold.Chemscore.ZeroCoef>
-5.4800

> <Gold.Chemscore.Hbond>
2.9638

> <Gold.Chemscore.Metal>
0.0000

> <Gold.Chemscore.Lipo>
77.9832

> <Gold.Chemscore.Internal_Hbond>
0.0000

> <Gold.Chemscore.DEClash>
0.5489

> <Gold.Chemscore.DEInternal>
0.8678

> <Gold.Chemscore.Rot>
1.7568

> <Gold.Chemscore.Internal.Correction>
   9.000000E+99

> <Gold.Chemscore.Hbonds>
donor molecule, donor type, donor heavy atom, donor atom, acceptor molecule, acceptor atom, score
      L1  H    11    38       P1  7948  0.95
      L1  H    14    39       P1  7948  0.99
      L1  H    18    21       P1 10957  0.73
      P1  H  7989  7998       L1     8  0.01

> <Gold.Chemscore.Hbond.Weighted>
-9.8992

> <Gold.Chemscore.Metal.Weighted>
-0.0000

> <Gold.Chemscore.Lipo.Weighted>
-9.1240

> <Gold.Chemscore.Internal_Hbond.Weighted>
0.0000

> <Gold.Chemscore.DEClash.Weighted>
0.5489

> <Gold.Chemscore.DEInternal.Weighted>
0.8678

> <Gold.Chemscore.Rot.Weighted>
4.4974

> <Gold.Chemscore.Internal.Correction.Weighted>
   9.000000E+99

> <Gold.Protein.RotatedTorsions>
[ 6907 6896 6895 6894 ] final  154.45 input  -60.11 | X-H torsion
[ 7974 7965 7964 7962 ] final  156.54 input  175.53 | X-H torsion
[ 8008 7997 7996 7995 ] final -130.80 input   59.86 | X-H torsion
[ 10167 10162 10161 10158 ] final -108.47 input  -65.29 | X-H torsion
[ 10718 10713 10712 10709 ] final  -71.13 input   66.30 | X-H torsion
[ 10763 10752 10751 10750 ] final   94.46 input  -60.55 | X-H torsion
[ 11005 11000 10999 10996 ] final -168.04 input  -57.11 | X-H torsion

> <Gold.Protein.ActiveResidues>
 VAL166  LYS551  ARG553  GLY616  TRP617  ASP618  TYR619  PRO620  LYS621  CYS622 
 ASP623  PHE694  ASN695  SER759  ASP760  ASP761  ALA762  ILE779  LEU786  VAL792 
 PHE793  MET794  SER795  GLU796  ALA797  LYS798  CYS799  TRP800  GLU811  SER814 

> <Gold.Protein.RotatedAtoms>
  152.0583  133.4050  159.4406 H   0  0  0  0  0  0  0  0  0  0  0  0  # atno 6907 bound_to 6896
  150.6867  134.3229  159.4803 H   0  0  0  0  0  0  0  0  0  0  0  0  # atno 6908 bound_to 6896
  152.1047  134.9316  160.0619 H   0  0  0  0  0  0  0  0  0  0  0  0  # atno 6909 bound_to 6896
  144.7957  139.7218  143.6203 H   0  0  0  0  0  0  0  0  0  0  0  0  # atno 7974 bound_to 7965
  155.3018  140.0453  157.3030 H   0  0  0  0  0  0  0  0  0  0  0  0  # atno 8008 bound_to 7997
  154.5482  140.2309  155.8495 H   0  0  0  0  0  0  0  0  0  0  0  0  # atno 8009 bound_to 7997
  156.1943  140.3042  155.9402 H   0  0  0  0  0  0  0  0  0  0  0  0  # atno 8010 bound_to 7997
  140.1658  143.4083  152.1391 H   0  0  0  0  0  0  0  0  0  0  0  0  # atno 10167 bound_to 10162
  156.0376  130.4345  150.2398 H   0  0  0  0  0  0  0  0  0  0  0  0  # atno 10718 bound_to 10713
  153.2419  135.4289  155.0707 H   0  0  0  0  0  0  0  0  0  0  0  0  # atno 10763 bound_to 10752
  154.8344  135.3405  154.6636 H   0  0  0  0  0  0  0  0  0  0  0  0  # atno 10764 bound_to 10752
  153.7060  135.7025  153.5107 H   0  0  0  0  0  0  0  0  0  0  0  0  # atno 10765 bound_to 10752
  140.5464  134.5471  157.5112 H   0  0  0  0  0  0  0  0  0  0  0  0  # atno 11005 bound_to 11000
  146.2224  139.5660  142.9610 LP  0  0  0  0  0  0  0  0  0  0  0  0  # atno 17320 bound_to 7965
  145.5680  141.0397  143.2189 LP  0  0  0  0  0  0  0  0  0  0  0  0  # atno 17321 bound_to 7965
  139.5360  144.7210  151.4892 LP  0  0  0  0  0  0  0  0  0  0  0  0  # atno 17342 bound_to 10162
  140.6614  143.8491  150.6892 LP  0  0  0  0  0  0  0  0  0  0  0  0  # atno 17343 bound_to 10162
  157.0496  131.0059  151.3258 LP  0  0  0  0  0  0  0  0  0  0  0  0  # atno 17370 bound_to 10713
  157.5150  130.7962  149.7746 LP  0  0  0  0  0  0  0  0  0  0  0  0  # atno 17371 bound_to 10713
  139.9477  134.7672  156.0522 LP  0  0  0  0  0  0  0  0  0  0  0  0  # atno 17394 bound_to 11000
  141.1197  133.6616  156.3183 LP  0  0  0  0  0  0  0  0  0  0  0  0  # atno 17395 bound_to 11000

$$$$
