AV-unprocessed.smi:690|AV-procd|sdf|3360|dock3
  -GOLD-   22720 0343D 1   1.00000     0.00000
 Structure written by MMmdl.
 46 48  0  0  0  0  0  0  0  0  1 V2000
  151.9613  142.0766  159.3320 C   0  0  0  0  0  0  0  0  0  0  0  0
  152.8937  140.8645  159.2878 C   0  0  0  0  0  0  0  0  0  0  0  0
  152.6446  140.1391  158.0957 O   0  0  0  0  0  0  0  0  0  0  0  0
  151.6030  139.1857  158.2367 C   0  0  2  0  0  0  0  0  0  0  0  0
  151.9663  137.9549  159.0735 C   0  0  0  0  0  0  0  0  0  0  0  0
  151.2095  137.1138  158.0389 C   0  0  1  0  0  0  0  0  0  0  0  0
  149.8048  136.9525  158.4166 N   0  0  0  0  0  0  0  0  0  0  0  0
  149.1105  135.8103  158.3128 C   0  0  0  0  0  0  0  0  0  0  0  0
  149.5915  134.7651  157.8740 O   0  0  0  0  0  0  0  0  0  0  0  0
  147.6388  135.8750  158.7421 C   0  0  0  0  0  0  0  0  0  0  0  0
  147.3571  135.0914  159.9560 N   0  0  0  0  0  0  0  0  0  0  0  0
  147.2973  133.6900  159.8188 C   0  0  0  0  0  0  0  0  0  0  0  0
  147.0400  132.8850  160.8618 C   0  0  0  0  0  0  0  0  0  0  0  0
  146.8189  133.4908  162.1535 C   0  0  0  0  0  0  0  0  0  0  0  0
  146.8782  134.8297  162.2966 C   0  0  0  0  0  0  0  0  0  0  0  0
  147.1641  135.7132  161.1602 C   0  0  0  0  0  0  0  0  0  0  0  0
  147.2238  136.9370  161.2827 O   0  0  0  0  0  0  0  0  0  0  0  0
  151.4439  138.2527  157.0114 C   0  0  0  0  0  0  0  0  0  0  0  0
  152.6593  138.1014  156.0932 C   0  0  0  0  0  0  0  0  0  0  0  0
  152.5002  139.1193  154.9592 C   0  0  0  0  0  0  0  0  0  0  0  0
  151.0107  139.4759  154.9262 C   0  0  0  0  0  0  0  0  0  0  0  0
  150.3542  138.6072  156.0014 C   0  0  0  0  0  0  0  0  0  0  0  0
  152.1283  142.6638  160.2352 H   0  0  0  0  0  0  0  0  0  0  0  0
  150.9162  141.7663  159.3219 H   0  0  0  0  0  0  0  0  0  0  0  0
  152.1264  142.7283  158.4737 H   0  0  0  0  0  0  0  0  0  0  0  0
  153.9328  141.1945  159.3214 H   0  0  0  0  0  0  0  0  0  0  0  0
  152.7197  140.2297  160.1577 H   0  0  0  0  0  0  0  0  0  0  0  0
  150.6539  139.6334  158.5396 H   0  0  0  0  0  0  0  0  0  0  0  0
  153.0379  137.7481  159.0823 H   0  0  0  0  0  0  0  0  0  0  0  0
  151.5489  137.9477  160.0811 H   0  0  0  0  0  0  0  0  0  0  0  0
  151.7212  136.1811  157.7951 H   0  0  0  0  0  0  0  0  0  0  0  0
  149.3320  137.7663  158.7819 H   0  0  0  0  0  0  0  0  0  0  0  0
  147.3423  136.9151  158.8919 H   0  0  0  0  0  0  0  0  0  0  0  0
  147.0304  135.5225  157.9082 H   0  0  0  0  0  0  0  0  0  0  0  0
  147.4800  133.3164  158.8217 H   0  0  0  0  0  0  0  0  0  0  0  0
  147.0021  131.8126  160.7392 H   0  0  0  0  0  0  0  0  0  0  0  0
  146.6056  132.8676  163.0094 H   0  0  0  0  0  0  0  0  0  0  0  0
  146.7102  135.2650  163.2709 H   0  0  0  0  0  0  0  0  0  0  0  0
  153.6071  138.2336  156.6163 H   0  0  0  0  0  0  0  0  0  0  0  0
  152.6777  137.0961  155.6700 H   0  0  0  0  0  0  0  0  0  0  0  0
  153.0909  140.0128  155.1654 H   0  0  0  0  0  0  0  0  0  0  0  0
  152.8439  138.7108  154.0085 H   0  0  0  0  0  0  0  0  0  0  0  0
  150.8806  140.5312  155.1687 H   0  0  0  0  0  0  0  0  0  0  0  0
  150.5670  139.3060  153.9448 H   0  0  0  0  0  0  0  0  0  0  0  0
  149.9646  137.6982  155.5411 H   0  0  0  0  0  0  0  0  0  0  0  0
  149.5069  139.1181  156.4599 H   0  0  0  0  0  0  0  0  0  0  0  0
  1  2  1  0  0  0  0
  1 23  1  0  0  0  0
  1 24  1  0  0  0  0
  1 25  1  0  0  0  0
  2  3  1  0  0  0  0
  2 26  1  0  0  0  0
  2 27  1  0  0  0  0
  3  4  1  0  0  0  0
  4 18  1  0  0  0  0
  4  5  1  0  0  0  0
  4 28  1  0  0  0  0
  5  6  1  0  0  0  0
  5 29  1  0  0  0  0
  5 30  1  0  0  0  0
  6  7  1  0  0  0  0
  6 18  1  0  0  0  0
  6 31  1  0  0  0  0
  7  8  1  0  0  0  0
  7 32  1  0  0  0  0
  8  9  2  0  0  0  0
  8 10  1  0  0  0  0
 10 11  1  0  0  0  0
 10 33  1  0  0  0  0
 10 34  1  0  0  0  0
 11 16  1  0  0  0  0
 11 12  1  0  0  0  0
 12 13  2  0  0  0  0
 12 35  1  0  0  0  0
 13 14  1  0  0  0  0
 13 36  1  0  0  0  0
 14 15  2  0  0  0  0
 14 37  1  0  0  0  0
 15 16  1  0  0  0  0
 15 38  1  0  0  0  0
 16 17  2  0  0  0  0
 18 22  1  0  0  0  0
 18 19  1  0  0  0  0
 19 20  1  0  0  0  0
 19 39  1  0  0  0  0
 19 40  1  0  0  0  0
 20 21  1  0  0  0  0
 20 41  1  0  0  0  0
 20 42  1  0  0  0  0
 21 22  1  0  0  0  0
 21 43  1  0  0  0  0
 21 44  1  0  0  0  0
 22 45  1  0  0  0  0
 22 46  1  0  0  0  0
M  END
> <s_m_source_file>
AV-unprocessed.smi

> <i_m_source_file_index>
690

> <i_lp_mmshare_version>
43012

> <i_f3d_flags>
0

> <s_epik_input>
W0NIMl0xW0NIMl1bQ0gyXVtDSDJdQzEyW0NASF0oT1tDSDJdW0NIM10pW0NIMl1bQ0BIXTJbTkhdQyg9TylbQ0gyXW4zW2NIXVtjSF1bY0hdW2NIXWMzPU8=

> <s_epik_cmdline>
J2VwaWtfcHl0aG9uJywgJy1waCcsICc3LjAnLCAnLXRuJywgJzgnLCAnLW1hJywgJzIwMCcsICctbWV0YWxfYmluZGluZycsICctaW1hZScsICc8aW5maWxlLm1hZT4nLCAnLW9tYWUnLCAnPG91dGZpbGUubWFlPic=

> <r_lp_tautomer_probability>
1

> <r_epik_Ionization_Penalty>
4.11691e-07

> <r_epik_Ionization_Penalty_Charging>
3.92797e-07

> <r_epik_Ionization_Penalty_Neutral>
1.88943e-08

> <r_epik_State_Penalty>
-0

> <r_epik_Charging_Adjusted_Penalty>
3.92797e-07

> <i_epik_Tot_Q>
0

> <i_epik_Tot_abs_Q>
0

> <r_epik_Metal_State_Penalty>
-0

> <b_epik_Metal_Only>
0

> <s_lp_Force_Field>
OPLS_2005

> <r_lp_Energy>
46.6505

> <b_lp_Chiralities_Consistent>
1

> <s_lp_Variant>
AV-unprocessed.smi:690-1

> <Gold.Version>
5.8.1

> <Gold.Id.Protein>
6NUR|6NUR_protein|mol2

> <Gold.PLP.Fitness>
49.2395

> <Gold.PLP.PLP>
-38.8295

> <Gold.PLP.part.hbond>
-4.0000

> <Gold.PLP.part.metal>
0.0000

> <Gold.PLP.part.buried>
-2.5240

> <Gold.PLP.part.nonpolar>
-32.0729

> <Gold.PLP.part.repulsive>
0.1479

> <Gold.PLP.ligand.clash>
0.0000

> <Gold.PLP.ligand.torsion>
0.6058

> <Gold.PLP.Chemscore.Hbond>
3.7520

> <Gold.PLP.Chemscore.CHOScore>
0.0000

> <Gold.PLP.Chemscore.Metal>
0.0000

> <Gold.Chemscore.Hbonds>
donor molecule, donor type, donor heavy atom, donor atom, acceptor molecule, acceptor atom, score
      P1  H  6896  6907       L1     9  0.95
      P1  H  6931  6943       L1    17  0.26
      P1  H  6934  6947       L1    17  0.80
      P1  H  7997  8010       L1     3  0.55

> <Gold.PLP.Chemscore.Internal.Correction>
0.3657

> <Gold.Rescore>
     Score         DG    S(hbond)    S(metal)    S(lipo)     H(rot)  DE(clash)    DE(int)     intcor
     22.36     -22.81       3.10        0.00      96.71       1.69       0.03       0.42       ----

> <Gold.Chemscore.Fitness>
22.3613

> <Gold.Chemscore.DG>
-22.8142

> <Gold.Chemscore.ZeroCoef>
-5.4800

> <Gold.Chemscore.Hbond>
3.0973

> <Gold.Chemscore.Metal>
0.0000

> <Gold.Chemscore.Lipo>
96.7139

> <Gold.Chemscore.Internal_Hbond>
0.0000

> <Gold.Chemscore.DEClash>
0.0309

> <Gold.Chemscore.DEInternal>
0.4220

> <Gold.Chemscore.Rot>
1.6900

> <Gold.Chemscore.Internal.Correction>
   9.000000E+99

> <Gold.Chemscore.Hbonds>
donor molecule, donor type, donor heavy atom, donor atom, acceptor molecule, acceptor atom, score
      P1  H  6896  6907       L1     9  0.21
      P1  H  6931  6943       L1    17  0.27
      P1  H  6934  6947       L1    17  0.77
      P1  H  7997  8010       L1     3  0.42

> <Gold.Chemscore.Hbond.Weighted>
-10.3451

> <Gold.Chemscore.Metal.Weighted>
-0.0000

> <Gold.Chemscore.Lipo.Weighted>
-11.3155

> <Gold.Chemscore.Internal_Hbond.Weighted>
0.0000

> <Gold.Chemscore.DEClash.Weighted>
0.0309

> <Gold.Chemscore.DEInternal.Weighted>
0.4220

> <Gold.Chemscore.Rot.Weighted>
4.3265

> <Gold.Chemscore.Internal.Correction.Weighted>
   9.000000E+99

> <Gold.Protein.RotatedTorsions>
[ 6907 6896 6895 6894 ] final  -91.12 input  -60.11 | X-H torsion
[ 7974 7965 7964 7962 ] final   36.84 input  175.53 | X-H torsion
[ 8008 7997 7996 7995 ] final   49.83 input   59.86 | X-H torsion
[ 10167 10162 10161 10158 ] final -174.84 input  -65.29 | X-H torsion
[ 10718 10713 10712 10709 ] final  154.30 input   66.30 | X-H torsion
[ 10763 10752 10751 10750 ] final   50.29 input  -60.55 | X-H torsion
[ 11005 11000 10999 10996 ] final  -27.47 input  -57.11 | X-H torsion

> <Gold.Protein.ActiveResidues>
 VAL166  LYS551  ARG553  GLY616  TRP617  ASP618  TYR619  PRO620  LYS621  CYS622 
 ASP623  PHE694  ASN695  SER759  ASP760  ASP761  ALA762  ILE779  LEU786  VAL792 
 PHE793  MET794  SER795  GLU796  ALA797  LYS798  CYS799  TRP800  GLU811  SER814 

> <Gold.Protein.RotatedAtoms>
  150.6889  134.2327  159.4440 H   0  0  0  0  0  0  0  0  0  0  0  0  # atno 6907 bound_to 6896
  152.0276  134.9784  160.0581 H   0  0  0  0  0  0  0  0  0  0  0  0  # atno 6908 bound_to 6896
  152.1336  133.4387  159.4769 H   0  0  0  0  0  0  0  0  0  0  0  0  # atno 6909 bound_to 6896
  146.1181  139.5967  142.9307 H   0  0  0  0  0  0  0  0  0  0  0  0  # atno 7974 bound_to 7965
  155.4086  140.3441  155.4262 H   0  0  0  0  0  0  0  0  0  0  0  0  # atno 8008 bound_to 7997
  156.1462  140.1557  156.8875 H   0  0  0  0  0  0  0  0  0  0  0  0  # atno 8009 bound_to 7997
  154.5012  140.0814  156.7783 H   0  0  0  0  0  0  0  0  0  0  0  0  # atno 8010 bound_to 7997
  139.5613  144.1864  152.1242 H   0  0  0  0  0  0  0  0  0  0  0  0  # atno 10167 bound_to 10162
  157.2334  131.0744  151.1838 H   0  0  0  0  0  0  0  0  0  0  0  0  # atno 10718 bound_to 10713
  152.9785  135.5884  154.4228 H   0  0  0  0  0  0  0  0  0  0  0  0  # atno 10763 bound_to 10752
  154.3850  135.2767  155.2190 H   0  0  0  0  0  0  0  0  0  0  0  0  # atno 10764 bound_to 10752
  154.4087  135.6086  153.5994 H   0  0  0  0  0  0  0  0  0  0  0  0  # atno 10765 bound_to 10752
  140.9122  133.7453  156.0686 H   0  0  0  0  0  0  0  0  0  0  0  0  # atno 11005 bound_to 11000
  145.5523  141.0412  143.2272 LP  0  0  0  0  0  0  0  0  0  0  0  0  # atno 17320 bound_to 7965
  144.7572  139.7045  143.7249 LP  0  0  0  0  0  0  0  0  0  0  0  0  # atno 17321 bound_to 7965
  140.1378  144.5230  150.6762 LP  0  0  0  0  0  0  0  0  0  0  0  0  # atno 17342 bound_to 10162
  140.6892  143.2367  151.5176 LP  0  0  0  0  0  0  0  0  0  0  0  0  # atno 17343 bound_to 10162
  157.3454  130.7055  149.6407 LP  0  0  0  0  0  0  0  0  0  0  0  0  # atno 17370 bound_to 10713
  155.9674  130.4268  150.4714 LP  0  0  0  0  0  0  0  0  0  0  0  0  # atno 17371 bound_to 10713
  140.8095  134.3416  157.5416 LP  0  0  0  0  0  0  0  0  0  0  0  0  # atno 17394 bound_to 11000
  139.8759  134.9246  156.3353 LP  0  0  0  0  0  0  0  0  0  0  0  0  # atno 17395 bound_to 11000

$$$$
