AV-unprocessed.smi:2875|AV-procd|sdf|11041|dock8
  -GOLD-   2272015503D 1   1.00000     0.00000
 Structure written by MMmdl.
 39 39  0  0  0  0  0  0  0  0  2 V2000
  151.7223  145.6303  160.1635 C   0  0  0  0  0  0  0  0  0  0  0  0
  150.8272  145.1748  159.0030 C   0  0  0  0  0  0  0  0  0  0  0  0
  151.5787  144.4555  157.8630 C   0  0  0  0  0  0  0  0  0  0  0  0
  151.7162  142.9984  158.0950 N   0  0  0  0  0  0  0  0  0  0  0  0
  150.9529  142.0852  157.3164 C   0  0  0  0  0  0  0  0  0  0  0  0
  150.0728  142.5776  156.3634 N   0  0  0  0  0  0  0  0  0  0  0  0
  151.0775  140.7460  157.5206 C   0  0  0  0  0  0  0  0  0  0  0  0
  150.3774  139.8025  156.7410 N   0  0  0  0  0  0  0  0  0  0  0  0
  149.1277  139.2606  157.3013 C   0  0  0  0  0  0  0  0  0  0  0  0
  149.3376  137.8867  157.9582 C   0  0  0  0  0  0  0  0  0  0  0  0
  148.5715  137.8155  159.1487 O   0  0  0  0  0  0  0  0  0  0  0  0
  148.7676  136.6019  159.8510 C   0  0  0  0  0  0  0  0  0  0  0  0
  150.8512  139.3571  155.5473 C   0  0  0  0  0  0  0  0  0  0  0  0
  149.9990  138.4002  154.7041 C   0  0  0  0  0  0  0  0  0  0  0  0
  151.9369  139.7166  155.0894 O   0  0  0  0  0  0  0  0  0  0  0  0
  152.0331  140.2695  158.5297 C   0  0  0  0  0  0  0  0  0  0  0  0
  152.1955  139.0621  158.7098 O   0  0  0  0  0  0  0  0  0  0  0  0
  152.7197  141.2016  159.2409 N   0  5  0  0  0  0  0  0  0  0  0  0
  152.5863  142.5446  159.0494 C   0  0  0  0  0  0  0  0  0  0  0  0
  153.2320  143.3579  159.7121 O   0  0  0  0  0  0  0  0  0  0  0  0
  151.1409  146.1709  160.9103 H   0  0  0  0  0  0  0  0  0  0  0  0
  152.5134  146.2939  159.8142 H   0  0  0  0  0  0  0  0  0  0  0  0
  152.1890  144.7813  160.6634 H   0  0  0  0  0  0  0  0  0  0  0  0
  150.0401  144.5286  159.3928 H   0  0  0  0  0  0  0  0  0  0  0  0
  150.3184  146.0460  158.5898 H   0  0  0  0  0  0  0  0  0  0  0  0
  151.0487  144.6302  156.9251 H   0  0  0  0  0  0  0  0  0  0  0  0
  152.5384  144.9427  157.6968 H   0  0  0  0  0  0  0  0  0  0  0  0
  149.9574  143.5681  156.2053 H   0  0  0  0  0  0  0  0  0  0  0  0
  149.4820  141.9639  155.8209 H   0  0  0  0  0  0  0  0  0  0  0  0
  148.7174  139.9591  158.0327 H   0  0  0  0  0  0  0  0  0  0  0  0
  148.3619  139.1705  156.5297 H   0  0  0  0  0  0  0  0  0  0  0  0
  149.0654  137.0829  157.2726 H   0  0  0  0  0  0  0  0  0  0  0  0
  150.3921  137.7574  158.2053 H   0  0  0  0  0  0  0  0  0  0  0  0
  148.1641  136.6032  160.7586 H   0  0  0  0  0  0  0  0  0  0  0  0
  149.8122  136.4772  160.1392 H   0  0  0  0  0  0  0  0  0  0  0  0
  148.4650  135.7455  159.2473 H   0  0  0  0  0  0  0  0  0  0  0  0
  148.9770  138.7669  154.6025 H   0  0  0  0  0  0  0  0  0  0  0  0
  149.9733  137.4069  155.1518 H   0  0  0  0  0  0  0  0  0  0  0  0
  150.4148  138.3010  153.7011 H   0  0  0  0  0  0  0  0  0  0  0  0
  1  2  1  0  0  0  0
  1 21  1  0  0  0  0
  1 22  1  0  0  0  0
  1 23  1  0  0  0  0
  2  3  1  0  0  0  0
  2 24  1  0  0  0  0
  2 25  1  0  0  0  0
  3  4  1  0  0  0  0
  3 26  1  0  0  0  0
  3 27  1  0  0  0  0
  4 19  1  0  0  0  0
  4  5  1  0  0  0  0
  5  6  1  0  0  0  0
  5  7  2  0  0  0  0
  6 28  1  0  0  0  0
  6 29  1  0  0  0  0
  7  8  1  0  0  0  0
  7 16  1  0  0  0  0
  8  9  1  0  0  0  0
  8 13  1  0  0  0  0
  9 10  1  0  0  0  0
  9 30  1  0  0  0  0
  9 31  1  0  0  0  0
 10 11  1  0  0  0  0
 10 32  1  0  0  0  0
 10 33  1  0  0  0  0
 11 12  1  0  0  0  0
 12 34  1  0  0  0  0
 12 35  1  0  0  0  0
 12 36  1  0  0  0  0
 13 14  1  0  0  0  0
 13 15  2  0  0  0  0
 14 37  1  0  0  0  0
 14 38  1  0  0  0  0
 14 39  1  0  0  0  0
 16 17  2  0  0  0  0
 16 18  1  0  0  0  0
 18 19  1  0  0  0  0
 19 20  2  0  0  0  0
M  CHG  1  18  -1
M  END
> <s_m_source_file>
AV-unprocessed.smi

> <i_m_source_file_index>
2875

> <i_lp_mmshare_version>
43012

> <i_f3d_flags>
0

> <s_epik_input>
W0NIM11bQ0gyXVtDSDJdbjFjKFtOSDJdKWMoYyg9TylbbkhdYzE9TylOKEMoPU8pW0NIM10pW0NIMl1bQ0gyXU9bQ0gzXQ==

> <s_epik_cmdline>
J2VwaWtfcHl0aG9uJywgJy1waCcsICc3LjAnLCAnLXRuJywgJzgnLCAnLW1hJywgJzIwMCcsICctbWV0YWxfYmluZGluZycsICctaW1hZScsICc8aW5maWxlLm1hZT4nLCAnLW9tYWUnLCAnPG91dGZpbGUubWFlPic=

> <r_lp_tautomer_probability>
1

> <r_epik_Ionization_Penalty>
7.11914

> <r_epik_Ionization_Penalty_Charging>
0.302695

> <r_epik_Ionization_Penalty_Neutral>
6.81644

> <r_epik_State_Penalty>
6.81644

> <r_epik_Charging_Adjusted_Penalty>
7.11913

> <i_epik_Tot_Q>
-1

> <i_epik_Tot_abs_Q>
1

> <r_epik_Metal_State_Penalty>
2.72963

> <b_epik_Metal_Only>
1

> <s_epik_Chemistry_Notes>
This compound has an imine and may undergo hydrolysis.

> <s_lp_Force_Field>
OPLS_2005

> <r_lp_Energy>
36.1064

> <b_lp_Chiralities_Consistent>
1

> <s_lp_Variant>
AV-unprocessed.smi:2875-2

> <Gold.Version>
5.8.1

> <Gold.Id.Protein>
6NUR|6NUR_protein|mol2

> <Gold.PLP.Fitness>
42.5311

> <Gold.PLP.PLP>
-39.5368

> <Gold.PLP.part.hbond>
-3.3006

> <Gold.PLP.part.metal>
0.0000

> <Gold.PLP.part.buried>
-8.0448

> <Gold.PLP.part.nonpolar>
-28.7768

> <Gold.PLP.part.repulsive>
0.1223

> <Gold.PLP.ligand.clash>
0.0000

> <Gold.PLP.ligand.torsion>
2.3547

> <Gold.PLP.Chemscore.Hbond>
1.8240

> <Gold.PLP.Chemscore.CHOScore>
0.0000

> <Gold.PLP.Chemscore.Metal>
0.0000

> <Gold.Chemscore.Hbonds>
donor molecule, donor type, donor heavy atom, donor atom, acceptor molecule, acceptor atom, score
      L1  H     6    28       P1  8028  0.88
      P1  H  7989  7998       L1    15  0.93

> <Gold.PLP.Chemscore.Internal.Correction>
2.2316

> <Gold.Rescore>
     Score         DG    S(hbond)    S(metal)    S(lipo)     H(rot)  DE(clash)    DE(int)     intcor
      9.34     -13.14       1.98        0.00      53.65       2.04       0.00       3.80       ----

> <Gold.Chemscore.Fitness>
9.3393

> <Gold.Chemscore.DG>
-13.1364

> <Gold.Chemscore.ZeroCoef>
-5.4800

> <Gold.Chemscore.Hbond>
1.9773

> <Gold.Chemscore.Metal>
0.0000

> <Gold.Chemscore.Lipo>
53.6482

> <Gold.Chemscore.Internal_Hbond>
0.0000

> <Gold.Chemscore.DEClash>
0.0004

> <Gold.Chemscore.DEInternal>
3.7966

> <Gold.Chemscore.Rot>
2.0409

> <Gold.Chemscore.Internal.Correction>
   9.000000E+99

> <Gold.Chemscore.Hbonds>
donor molecule, donor type, donor heavy atom, donor atom, acceptor molecule, acceptor atom, score
      L1  H     6    28       P1  8028  0.86
      P1  H  7989  7998       L1    15  0.70

> <Gold.Chemscore.Hbond.Weighted>
-6.6041

> <Gold.Chemscore.Metal.Weighted>
-0.0000

> <Gold.Chemscore.Lipo.Weighted>
-6.2768

> <Gold.Chemscore.Internal_Hbond.Weighted>
0.0000

> <Gold.Chemscore.DEClash.Weighted>
0.0004

> <Gold.Chemscore.DEInternal.Weighted>
3.7966

> <Gold.Chemscore.Rot.Weighted>
5.2246

> <Gold.Chemscore.Internal.Correction.Weighted>
   9.000000E+99

> <Gold.Protein.RotatedTorsions>
[ 6907 6896 6895 6894 ] final  -51.61 input  -60.11 | X-H torsion
[ 7974 7965 7964 7962 ] final    0.75 input  175.53 | X-H torsion
[ 8008 7997 7996 7995 ] final   27.50 input   59.86 | X-H torsion
[ 10167 10162 10161 10158 ] final -140.97 input  -65.29 | X-H torsion
[ 10718 10713 10712 10709 ] final -104.17 input   66.30 | X-H torsion
[ 10763 10752 10751 10750 ] final   11.86 input  -60.55 | X-H torsion
[ 11005 11000 10999 10996 ] final   39.89 input  -57.11 | X-H torsion

> <Gold.Protein.ActiveResidues>
 VAL166  LYS551  ARG553  GLY616  TRP617  ASP618  TYR619  PRO620  LYS621  CYS622 
 ASP623  PHE694  ASN695  SER759  ASP760  ASP761  ALA762  ILE779  LEU786  VAL792 
 PHE793  MET794  SER795  GLU796  ALA797  LYS798  CYS799  TRP800  GLU811  SER814 

> <Gold.Protein.RotatedAtoms>
  150.8595  134.7943  159.7071 H   0  0  0  0  0  0  0  0  0  0  0  0  # atno 6907 bound_to 6896
  152.4636  134.5123  159.9767 H   0  0  0  0  0  0  0  0  0  0  0  0  # atno 6908 bound_to 6896
  151.5230  133.3425  159.2940 H   0  0  0  0  0  0  0  0  0  0  0  0  # atno 6909 bound_to 6896
  146.2436  140.1091  142.8344 H   0  0  0  0  0  0  0  0  0  0  0  0  # atno 7974 bound_to 7965
  155.0439  140.3172  155.4715 H   0  0  0  0  0  0  0  0  0  0  0  0  # atno 8008 bound_to 7997
  156.2849  140.2158  156.5506 H   0  0  0  0  0  0  0  0  0  0  0  0  # atno 8009 bound_to 7997
  154.7267  140.0485  157.0677 H   0  0  0  0  0  0  0  0  0  0  0  0  # atno 8010 bound_to 7997
  139.8230  143.7549  152.2666 H   0  0  0  0  0  0  0  0  0  0  0  0  # atno 10167 bound_to 10162
  156.0294  130.5502  150.7357 H   0  0  0  0  0  0  0  0  0  0  0  0  # atno 10718 bound_to 10713
  153.1882  135.6838  153.8387 H   0  0  0  0  0  0  0  0  0  0  0  0  # atno 10763 bound_to 10752
  153.7696  135.3198  155.3351 H   0  0  0  0  0  0  0  0  0  0  0  0  # atno 10764 bound_to 10752
  154.8101  135.4723  154.0592 H   0  0  0  0  0  0  0  0  0  0  0  0  # atno 10765 bound_to 10752
  140.1984  134.3901  155.8109 H   0  0  0  0  0  0  0  0  0  0  0  0  # atno 11005 bound_to 11000
  145.0502  140.9012  143.5000 LP  0  0  0  0  0  0  0  0  0  0  0  0  # atno 17320 bound_to 7965
  145.1188  139.2708  143.5599 LP  0  0  0  0  0  0  0  0  0  0  0  0  # atno 17321 bound_to 7965
  139.7733  144.7469  151.0193 LP  0  0  0  0  0  0  0  0  0  0  0  0  # atno 17342 bound_to 10162
  140.7812  143.4621  151.0263 LP  0  0  0  0  0  0  0  0  0  0  0  0  # atno 17343 bound_to 10162
  157.4939  131.0913  151.0395 LP  0  0  0  0  0  0  0  0  0  0  0  0  # atno 17370 bound_to 10713
  157.0794  130.5897  149.5417 LP  0  0  0  0  0  0  0  0  0  0  0  0  # atno 17371 bound_to 10713
  141.2227  133.7081  156.8215 LP  0  0  0  0  0  0  0  0  0  0  0  0  # atno 17394 bound_to 11000
  140.2082  134.8847  157.3245 LP  0  0  0  0  0  0  0  0  0  0  0  0  # atno 17395 bound_to 11000

$$$$
