AV-unprocessed.smi:1513|AV-procd|sdf|6108|dock2
  -GOLD-   22720 6243D 1   1.00000     0.00000
 Structure written by MMmdl.
 34 35  0  0  0  0  0  0  0  0  1 V2000
  146.9014  134.4528  153.8033 N   0  0  0  0  0  0  0  0  0  0  0  0
  146.4027  135.8908  154.6006 S   0  0  0  0  0  0  0  0  0  0  0  0
  145.0082  136.1801  154.2343 O   0  0  0  0  0  0  0  0  0  0  0  0
  146.8329  135.8273  156.0054 O   0  0  0  0  0  0  0  0  0  0  0  0
  147.4172  137.0091  153.7750 N   0  0  0  0  0  0  0  0  0  0  0  0
  148.3649  137.8228  154.5345 C   0  0  0  0  0  0  0  0  0  0  0  0
  148.1371  139.3135  154.3374 C   0  0  0  0  0  0  0  0  0  0  0  0
  146.9873  139.7627  153.6543 C   0  0  0  0  0  0  0  0  0  0  0  0
  146.7954  141.1444  153.4713 C   0  0  0  0  0  0  0  0  0  0  0  0
  147.7666  142.0267  153.9802 C   0  0  0  0  0  0  0  0  0  0  0  0
  148.8716  141.6124  154.6349 N   0  0  0  0  0  0  0  0  0  0  0  0
  149.0586  140.2821  154.8127 C   0  0  0  0  0  0  0  0  0  0  0  0
  150.2085  139.8759  155.5088 N   0  0  0  0  0  0  0  0  0  0  0  0
  151.1139  139.0051  154.7702 C   0  0  0  0  0  0  0  0  0  0  0  0
  152.2189  138.4935  155.7092 C   0  0  0  0  0  0  0  0  0  0  0  0
  152.8949  139.6026  156.2958 O   0  0  0  0  0  0  0  0  0  0  0  0
  152.0194  140.4171  157.0716 C   0  0  0  0  0  0  0  0  0  0  0  0
  150.8955  140.9713  156.1786 C   0  0  0  0  0  0  0  0  0  0  0  0
  147.6889  134.6119  153.1751 H   0  0  0  0  0  0  0  0  0  0  0  0
  146.1220  133.9628  153.3646 H   0  0  0  0  0  0  0  0  0  0  0  0
  147.7735  136.6660  152.8835 H   0  0  0  0  0  0  0  0  0  0  0  0
  148.2896  137.5584  155.5896 H   0  0  0  0  0  0  0  0  0  0  0  0
  149.3821  137.5782  154.2267 H   0  0  0  0  0  0  0  0  0  0  0  0
  146.2616  139.0599  153.2722 H   0  0  0  0  0  0  0  0  0  0  0  0
  145.9253  141.5186  152.9523 H   0  0  0  0  0  0  0  0  0  0  0  0
  147.6532  143.0938  153.8588 H   0  0  0  0  0  0  0  0  0  0  0  0
  150.5585  138.1660  154.3495 H   0  0  0  0  0  0  0  0  0  0  0  0
  151.5598  139.5520  153.9383 H   0  0  0  0  0  0  0  0  0  0  0  0
  151.8023  137.8532  156.4886 H   0  0  0  0  0  0  0  0  0  0  0  0
  152.9376  137.8921  155.1526 H   0  0  0  0  0  0  0  0  0  0  0  0
  151.6079  139.8383  157.8995 H   0  0  0  0  0  0  0  0  0  0  0  0
  152.5899  141.2359  157.5096 H   0  0  0  0  0  0  0  0  0  0  0  0
  151.3111  141.6497  155.4321 H   0  0  0  0  0  0  0  0  0  0  0  0
  150.1881  141.5446  156.7788 H   0  0  0  0  0  0  0  0  0  0  0  0
  1  2  1  0  0  0  0
  1 19  1  0  0  0  0
  1 20  1  0  0  0  0
  2  3  2  0  0  0  0
  2  4  2  0  0  0  0
  2  5  1  0  0  0  0
  5  6  1  0  0  0  0
  5 21  1  0  0  0  0
  6  7  1  0  0  0  0
  6 22  1  0  0  0  0
  6 23  1  0  0  0  0
  7 12  1  0  0  0  0
  7  8  2  0  0  0  0
  8  9  1  0  0  0  0
  8 24  1  0  0  0  0
  9 10  2  0  0  0  0
  9 25  1  0  0  0  0
 10 11  1  0  0  0  0
 10 26  1  0  0  0  0
 11 12  2  0  0  0  0
 12 13  1  0  0  0  0
 13 18  1  0  0  0  0
 13 14  1  0  0  0  0
 14 15  1  0  0  0  0
 14 27  1  0  0  0  0
 14 28  1  0  0  0  0
 15 16  1  0  0  0  0
 15 29  1  0  0  0  0
 15 30  1  0  0  0  0
 16 17  1  0  0  0  0
 17 18  1  0  0  0  0
 17 31  1  0  0  0  0
 17 32  1  0  0  0  0
 18 33  1  0  0  0  0
 18 34  1  0  0  0  0
M  END
> <s_m_source_file>
AV-unprocessed.smi

> <i_m_source_file_index>
1513

> <i_lp_mmshare_version>
43012

> <i_f3d_flags>
0

> <s_epik_input>
W05IMl1TKD1PKSg9TylbTkhdW0NIMl1jMVtjSF1bY0hdW2NIXW5jMU4yW0NIMl1bQ0gyXU9bQ0gyXVtDSDJdMg==

> <s_epik_cmdline>
J2VwaWtfcHl0aG9uJywgJy1waCcsICc3LjAnLCAnLXRuJywgJzgnLCAnLW1hJywgJzIwMCcsICctbWV0YWxfYmluZGluZycsICctaW1hZScsICc8aW5maWxlLm1hZT4nLCAnLW9tYWUnLCAnPG91dGZpbGUubWFlPic=

> <r_lp_tautomer_probability>
1

> <r_epik_Ionization_Penalty>
0.193648

> <r_epik_Ionization_Penalty_Charging>
0

> <r_epik_Ionization_Penalty_Neutral>
0.193648

> <r_epik_State_Penalty>
0.187016

> <r_epik_Charging_Adjusted_Penalty>
0.187016

> <i_epik_Tot_Q>
0

> <i_epik_Tot_abs_Q>
0

> <r_epik_Metal_State_Penalty>
0.77957

> <b_epik_Metal_Only>
0

> <s_lp_Force_Field>
OPLS_2005

> <r_lp_Energy>
22.2983

> <b_lp_Chiralities_Consistent>
1

> <s_lp_Variant>
AV-unprocessed.smi:1513-1

> <Gold.Version>
5.8.1

> <Gold.Id.Protein>
6NUR|6NUR_protein|mol2

> <Gold.PLP.Fitness>
33.7568

> <Gold.PLP.PLP>
-23.6380

> <Gold.PLP.part.hbond>
-2.6639

> <Gold.PLP.part.metal>
0.0000

> <Gold.PLP.part.buried>
-1.4987

> <Gold.PLP.part.nonpolar>
-20.1231

> <Gold.PLP.part.repulsive>
0.3498

> <Gold.PLP.ligand.clash>
0.0000

> <Gold.PLP.ligand.torsion>
0.6412

> <Gold.PLP.Chemscore.Hbond>
2.8480

> <Gold.PLP.Chemscore.CHOScore>
0.8609

> <Gold.PLP.Chemscore.Metal>
0.0000

> <Gold.Chemscore.Hbonds>
donor molecule, donor type, donor heavy atom, donor atom, acceptor molecule, acceptor atom, score
      L1  H     1    19       P1  7948  0.05
      L1  H     5    21       P1  7948  1.00
      P1  H  7997  8008       L1    16  1.00
      L1  C    10    26       P1  8028  0.51

> <Gold.PLP.Chemscore.Internal.Correction>
0.2744

> <Gold.Rescore>
     Score         DG    S(hbond)    S(metal)    S(lipo)     H(rot)  DE(clash)    DE(int)     intcor
     12.38     -14.85       2.72        0.00      56.37       2.47       1.66       0.82       ----

> <Gold.Chemscore.Fitness>
12.3776

> <Gold.Chemscore.DG>
-14.8542

> <Gold.Chemscore.ZeroCoef>
-5.4800

> <Gold.Chemscore.Hbond>
2.7229

> <Gold.Chemscore.Metal>
0.0000

> <Gold.Chemscore.Lipo>
56.3714

> <Gold.Chemscore.Internal_Hbond>
0.0000

> <Gold.Chemscore.DEClash>
1.6593

> <Gold.Chemscore.DEInternal>
0.8174

> <Gold.Chemscore.Rot>
2.4671

> <Gold.Chemscore.Internal.Correction>
   9.000000E+99

> <Gold.Chemscore.Hbonds>
donor molecule, donor type, donor heavy atom, donor atom, acceptor molecule, acceptor atom, score
      L1  H     1    19       P1  7948  0.09
      L1  H     5    21       P1  7948  0.97
      P1  H  7997  8008       L1    16  0.87

> <Gold.Chemscore.Hbond.Weighted>
-9.0944

> <Gold.Chemscore.Metal.Weighted>
-0.0000

> <Gold.Chemscore.Lipo.Weighted>
-6.5955

> <Gold.Chemscore.Internal_Hbond.Weighted>
0.0000

> <Gold.Chemscore.DEClash.Weighted>
1.6593

> <Gold.Chemscore.DEInternal.Weighted>
0.8174

> <Gold.Chemscore.Rot.Weighted>
6.3157

> <Gold.Chemscore.Internal.Correction.Weighted>
   9.000000E+99

> <Gold.Protein.RotatedTorsions>
[ 6907 6896 6895 6894 ] final   44.48 input  -60.11 | X-H torsion
[ 7974 7965 7964 7962 ] final   21.58 input  175.53 | X-H torsion
[ 8008 7997 7996 7995 ] final  -31.06 input   59.86 | X-H torsion
[ 10167 10162 10161 10158 ] final   83.14 input  -65.29 | X-H torsion
[ 10718 10713 10712 10709 ] final -132.60 input   66.30 | X-H torsion
[ 10763 10752 10751 10750 ] final -149.96 input  -60.55 | X-H torsion
[ 11005 11000 10999 10996 ] final   41.52 input  -57.11 | X-H torsion

> <Gold.Protein.ActiveResidues>
 VAL166  LYS551  ARG553  GLY616  TRP617  ASP618  TYR619  PRO620  LYS621  CYS622 
 ASP623  PHE694  ASN695  SER759  ASP760  ASP761  ALA762  ILE779  LEU786  VAL792 
 PHE793  MET794  SER795  GLU796  ALA797  LYS798  CYS799  TRP800  GLU811  SER814 

> <Gold.Protein.RotatedAtoms>
  152.2330  134.8304  160.0470 H   0  0  0  0  0  0  0  0  0  0  0  0  # atno 6907 bound_to 6896
  151.9046  133.3541  159.3850 H   0  0  0  0  0  0  0  0  0  0  0  0  # atno 6908 bound_to 6896
  150.7031  134.4720  159.5474 H   0  0  0  0  0  0  0  0  0  0  0  0  # atno 6909 bound_to 6896
  146.2065  139.8007  142.8722 H   0  0  0  0  0  0  0  0  0  0  0  0  # atno 7974 bound_to 7965
  154.4227  140.1774  156.1507 H   0  0  0  0  0  0  0  0  0  0  0  0  # atno 8008 bound_to 7997
  155.9918  140.3368  155.6735 H   0  0  0  0  0  0  0  0  0  0  0  0  # atno 8009 bound_to 7997
  155.6363  140.0675  157.2624 H   0  0  0  0  0  0  0  0  0  0  0  0  # atno 8010 bound_to 7997
  139.9215  144.6210  150.8435 H   0  0  0  0  0  0  0  0  0  0  0  0  # atno 10167 bound_to 10162
  156.2362  130.7068  151.0910 H   0  0  0  0  0  0  0  0  0  0  0  0  # atno 10718 bound_to 10713
  154.8147  135.3296  154.7210 H   0  0  0  0  0  0  0  0  0  0  0  0  # atno 10763 bound_to 10752
  153.7853  135.6915  153.4885 H   0  0  0  0  0  0  0  0  0  0  0  0  # atno 10764 bound_to 10752
  153.1953  135.4536  155.0147 H   0  0  0  0  0  0  0  0  0  0  0  0  # atno 10765 bound_to 10752
  140.1827  134.4084  155.8191 H   0  0  0  0  0  0  0  0  0  0  0  0  # atno 11005 bound_to 11000
  145.3300  141.0264  143.3452 LP  0  0  0  0  0  0  0  0  0  0  0  0  # atno 17320 bound_to 7965
  144.8806  139.4910  143.6725 LP  0  0  0  0  0  0  0  0  0  0  0  0  # atno 17321 bound_to 7965
  140.7661  143.3294  151.2444 LP  0  0  0  0  0  0  0  0  0  0  0  0  # atno 17342 bound_to 10162
  139.6858  143.9777  152.2833 LP  0  0  0  0  0  0  0  0  0  0  0  0  # atno 17343 bound_to 10162
  157.7155  131.0712  150.6341 LP  0  0  0  0  0  0  0  0  0  0  0  0  # atno 17370 bound_to 10713
  156.6412  130.4459  149.5752 LP  0  0  0  0  0  0  0  0  0  0  0  0  # atno 17371 bound_to 10713
  141.2223  133.7008  156.7958 LP  0  0  0  0  0  0  0  0  0  0  0  0  # atno 17394 bound_to 11000
  140.2249  134.8729  157.3416 LP  0  0  0  0  0  0  0  0  0  0  0  0  # atno 17395 bound_to 11000

$$$$
