AV-unprocessed.smi:38|AV-procd|sdf|338|dock9
  -GOLD-   2262016173D 1   1.00000     0.00000
 Structure written by MMmdl.
 28 29  0  0  0  0  0  0  0  0  1 V2000
  153.2753  139.3528  157.2808 O   0  0  0  0  0  0  0  0  0  0  0  0
  152.2946  139.7053  156.6286 C   0  0  0  0  0  0  0  0  0  0  0  0
  151.3737  140.6047  157.1741 N   0  0  0  0  0  0  0  0  0  0  0  0
  150.2269  141.0801  156.5348 C   0  0  0  0  0  0  0  0  0  0  0  0
  149.4774  141.8592  157.1218 O   0  0  0  0  0  0  0  0  0  0  0  0
  149.9842  140.6199  155.2212 N   0  0  0  0  0  0  0  0  0  0  0  0
  148.7625  141.1026  154.4737 C   0  0  2  0  0  0  0  0  0  0  0  0
  147.5017  140.9495  155.3307 C   0  0  0  0  0  0  0  0  0  0  0  0
  146.4781  140.4838  154.3143 C   0  0  1  0  0  0  0  0  0  0  0  0
  145.8607  141.5913  153.6857 O   0  0  0  0  0  0  0  0  0  0  0  0
  147.3395  139.6649  153.3421 C   0  0  1  0  0  0  0  0  0  0  0  0
  146.7929  139.4755  151.9164 C   0  0  0  0  0  0  0  0  0  0  0  0
  147.4379  138.3903  151.2844 O   0  0  0  0  0  0  0  0  0  0  0  0
  148.6013  140.3281  153.3209 O   0  0  0  0  0  0  0  0  0  0  0  0
  150.8649  139.7144  154.6449 C   0  0  0  0  0  0  0  0  0  0  0  0
  151.9715  139.2576  155.2772 C   0  0  0  0  0  0  0  0  0  0  0  0
  152.7762  138.3793  154.6550 F   0  0  0  0  0  0  0  0  0  0  0  0
  151.5512  140.9351  158.1116 H   0  0  0  0  0  0  0  0  0  0  0  0
  148.9434  142.1295  154.1523 H   0  0  0  0  0  0  0  0  0  0  0  0
  145.6995  139.8744  154.7747 H   0  0  0  0  0  0  0  0  0  0  0  0
  147.5095  138.6826  153.7852 H   0  0  0  0  0  0  0  0  0  0  0  0
  147.6587  140.1728  156.0808 H   0  0  0  0  0  0  0  0  0  0  0  0
  147.2476  141.8809  155.8381 H   0  0  0  0  0  0  0  0  0  0  0  0
  144.9775  141.3483  153.4521 H   0  0  0  0  0  0  0  0  0  0  0  0
  145.7146  139.3154  151.9168 H   0  0  0  0  0  0  0  0  0  0  0  0
  146.9791  140.3733  151.3266 H   0  0  0  0  0  0  0  0  0  0  0  0
  147.8652  137.8684  151.9464 H   0  0  0  0  0  0  0  0  0  0  0  0
  150.6685  139.3457  153.6496 H   0  0  0  0  0  0  0  0  0  0  0  0
  1  2  2  0  0  0  0
  2 16  1  0  0  0  0
  2  3  1  0  0  0  0
  3 18  1  0  0  0  0
  3  4  1  0  0  0  0
  4  5  2  0  0  0  0
  4  6  1  0  0  0  0
  6  7  1  0  0  0  0
  6 15  1  0  0  0  0
  7 19  1  0  0  0  0
  7 14  1  0  0  0  0
  7  8  1  0  0  0  0
  8  9  1  0  0  0  0
  8 22  1  0  0  0  0
  8 23  1  0  0  0  0
  9 20  1  0  0  0  0
  9 10  1  0  0  0  0
  9 11  1  0  0  0  0
 10 24  1  0  0  0  0
 11 21  1  0  0  0  0
 11 12  1  0  0  0  0
 11 14  1  0  0  0  0
 12 13  1  0  0  0  0
 12 25  1  0  0  0  0
 12 26  1  0  0  0  0
 13 27  1  0  0  0  0
 15 16  2  0  0  0  0
 15 28  1  0  0  0  0
 16 17  1  0  0  0  0
M  END
> <s_m_source_file>
AV-unprocessed.smi

> <i_m_source_file_index>
38

> <i_lp_mmshare_version>
43012

> <i_f3d_flags>
0

> <s_epik_input>
Tz1jMVtuSF1jKD1PKW4oW2NIXWMxRilbQ0BIXTJbQ0gyXVtDQEhdKFtPSF0pW0NASF0oTzIpW0NIMl1bT0hd

> <s_epik_cmdline>
J2VwaWtfcHl0aG9uJywgJy1waCcsICc3LjAnLCAnLXRuJywgJzgnLCAnLW1hJywgJzIwMCcsICctbWV0YWxfYmluZGluZycsICctaW1hZScsICc8aW5maWxlLm1hZT4nLCAnLW9tYWUnLCAnPG91dGZpbGUubWFlPic=

> <r_lp_tautomer_probability>
0.999537

> <r_epik_Ionization_Penalty>
0.0357432

> <r_epik_Ionization_Penalty_Charging>
0.0357431

> <r_epik_Ionization_Penalty_Neutral>
1.19946e-07

> <r_epik_State_Penalty>
0.0298169

> <r_epik_Charging_Adjusted_Penalty>
0.06556

> <i_epik_Tot_Q>
0

> <i_epik_Tot_abs_Q>
0

> <r_epik_Metal_State_Penalty>
2.348

> <b_epik_Metal_Only>
0

> <s_epik_Chemistry_Notes>
This compound contains an acetal/aminal-like group ( X-CH(R)-Y where X, Y are N, S, or O) that may be acid/base labile, releasing an aldehyde.

> <s_lp_Force_Field>
OPLS_2005

> <r_lp_Energy>
29.3981

> <b_lp_Chiralities_Consistent>
1

> <s_lp_Variant>
AV-unprocessed.smi:38-4

> <Gold.Version>
5.8.1

> <Gold.Id.Protein>
6NUR|6NUR_protein|mol2

> <Gold.PLP.Fitness>
36.9316

> <Gold.PLP.PLP>
-26.0908

> <Gold.PLP.part.hbond>
-4.8347

> <Gold.PLP.part.metal>
0.0000

> <Gold.PLP.part.buried>
1.2701

> <Gold.PLP.part.nonpolar>
-25.8151

> <Gold.PLP.part.repulsive>
4.0011

> <Gold.PLP.ligand.clash>
0.0000

> <Gold.PLP.ligand.torsion>
0.3554

> <Gold.PLP.Chemscore.Hbond>
3.6080

> <Gold.PLP.Chemscore.CHOScore>
0.2418

> <Gold.PLP.Chemscore.Metal>
0.0000

> <Gold.Chemscore.Hbonds>
donor molecule, donor type, donor heavy atom, donor atom, acceptor molecule, acceptor atom, score
      L1  H    10    24       P1 10175  0.90
      L1  H    13    27       P1  7948  0.62
      P1  H  7954  7966       L1    13  1.00
      P1  H  7997  8008       L1     1  0.91
      L1  C    15    28       P1  7957  0.38

> <Gold.PLP.Chemscore.Internal.Correction>
0.0023

> <Gold.Rescore>
     Score         DG    S(hbond)    S(metal)    S(lipo)     H(rot)  DE(clash)    DE(int)     intcor
      7.91     -11.93       2.92        0.00      35.44       2.91       2.01       2.01       ----

> <Gold.Chemscore.Fitness>
7.9116

> <Gold.Chemscore.DG>
-11.9308

> <Gold.Chemscore.ZeroCoef>
-5.4800

> <Gold.Chemscore.Hbond>
2.9236

> <Gold.Chemscore.Metal>
0.0000

> <Gold.Chemscore.Lipo>
35.4377

> <Gold.Chemscore.Internal_Hbond>
0.0000

> <Gold.Chemscore.DEClash>
2.0100

> <Gold.Chemscore.DEInternal>
2.0092

> <Gold.Chemscore.Rot>
2.9141

> <Gold.Chemscore.Internal.Correction>
   9.000000E+99

> <Gold.Chemscore.Hbonds>
donor molecule, donor type, donor heavy atom, donor atom, acceptor molecule, acceptor atom, score
      L1  H    10    24       P1 10175  0.18
      L1  H    13    27       P1  7948  0.62
      P1  H  7954  7966       L1    13  0.34
      P1  H  7997  8008       L1     1  0.26

> <Gold.Chemscore.Hbond.Weighted>
-9.7647

> <Gold.Chemscore.Metal.Weighted>
-0.0000

> <Gold.Chemscore.Lipo.Weighted>
-4.1462

> <Gold.Chemscore.Internal_Hbond.Weighted>
0.0000

> <Gold.Chemscore.DEClash.Weighted>
2.0100

> <Gold.Chemscore.DEInternal.Weighted>
2.0092

> <Gold.Chemscore.Rot.Weighted>
7.4601

> <Gold.Chemscore.Internal.Correction.Weighted>
   9.000000E+99

> <Gold.Protein.RotatedTorsions>
[ 6907 6896 6895 6894 ] final  123.26 input  -60.11 | X-H torsion
[ 7974 7965 7964 7962 ] final -145.00 input  175.53 | X-H torsion
[ 8008 7997 7996 7995 ] final  -54.59 input   59.86 | X-H torsion
[ 10167 10162 10161 10158 ] final  -39.89 input  -65.29 | X-H torsion
[ 10718 10713 10712 10709 ] final   -8.52 input   66.30 | X-H torsion
[ 10763 10752 10751 10750 ] final -117.31 input  -60.55 | X-H torsion
[ 11005 11000 10999 10996 ] final -122.02 input  -57.11 | X-H torsion

> <Gold.Protein.ActiveResidues>
 VAL166  LYS551  ARG553  GLY616  TRP617  ASP618  TYR619  PRO620  LYS621  CYS622 
 ASP623  PHE694  ASN695  SER759  ASP760  ASP761  ALA762  ILE779  LEU786  VAL792 
 PHE793  MET794  SER795  GLU796  ALA797  LYS798  CYS799  TRP800  GLU811  SER814 

> <Gold.Protein.RotatedAtoms>
  152.4176  133.7064  159.6453 H   0  0  0  0  0  0  0  0  0  0  0  0  # atno 6907 bound_to 6896
  150.8053  133.8511  159.3214 H   0  0  0  0  0  0  0  0  0  0  0  0  # atno 6908 bound_to 6896
  151.6237  135.1031  160.0158 H   0  0  0  0  0  0  0  0  0  0  0  0  # atno 6909 bound_to 6896
  144.8258  140.5638  143.5548 H   0  0  0  0  0  0  0  0  0  0  0  0  # atno 7974 bound_to 7965
  154.4167  140.1173  156.5340 H   0  0  0  0  0  0  0  0  0  0  0  0  # atno 8008 bound_to 7997
  155.6576  140.3496  155.4751 H   0  0  0  0  0  0  0  0  0  0  0  0  # atno 8009 bound_to 7997
  155.9740  140.1147  157.0776 H   0  0  0  0  0  0  0  0  0  0  0  0  # atno 8010 bound_to 7997
  140.7051  143.3187  151.2846 H   0  0  0  0  0  0  0  0  0  0  0  0  # atno 10167 bound_to 10162
  156.7014  130.5094  149.5916 H   0  0  0  0  0  0  0  0  0  0  0  0  # atno 10718 bound_to 10713
  154.8550  135.4314  154.1959 H   0  0  0  0  0  0  0  0  0  0  0  0  # atno 10763 bound_to 10752
  153.3017  135.6969  153.7203 H   0  0  0  0  0  0  0  0  0  0  0  0  # atno 10764 bound_to 10752
  153.6330  135.3481  155.3022 H   0  0  0  0  0  0  0  0  0  0  0  0  # atno 10765 bound_to 10752
  141.0027  134.0380  157.3517 H   0  0  0  0  0  0  0  0  0  0  0  0  # atno 11005 bound_to 11000
  145.5004  139.1483  143.3660 LP  0  0  0  0  0  0  0  0  0  0  0  0  # atno 17320 bound_to 7965
  146.2563  140.5144  142.8872 LP  0  0  0  0  0  0  0  0  0  0  0  0  # atno 17321 bound_to 7965
  139.6633  144.0149  152.2707 LP  0  0  0  0  0  0  0  0  0  0  0  0  # atno 17342 bound_to 10162
  139.9724  144.6484  150.7977 LP  0  0  0  0  0  0  0  0  0  0  0  0  # atno 17343 bound_to 10162
  156.1726  130.6447  151.0855 LP  0  0  0  0  0  0  0  0  0  0  0  0  # atno 17370 bound_to 10713
  157.6971  131.0790  150.6934 LP  0  0  0  0  0  0  0  0  0  0  0  0  # atno 17371 bound_to 10713
  139.9047  135.0176  156.7431 LP  0  0  0  0  0  0  0  0  0  0  0  0  # atno 17394 bound_to 11000
  140.6863  133.9429  155.7940 LP  0  0  0  0  0  0  0  0  0  0  0  0  # atno 17395 bound_to 11000

$$$$
