AV-unprocessed.smi:2775|AV-procd|sdf|10703|dock1
  -GOLD-   2272015143D 1   1.00000     0.00000
 Structure written by MMmdl.
 43 46  0  0  0  0  0  0  0  0  2 V2000
  144.6225  132.5202  150.2928 C   0  0  0  0  0  0  0  0  0  0  0  0
  144.6521  133.8609  151.0010 C   0  0  0  0  0  0  0  0  0  0  0  0
  143.5244  134.6051  150.9848 N   0  3  0  0  0  0  0  0  0  0  0  0
  143.4288  135.8083  151.5874 C   0  0  0  0  0  0  0  0  0  0  0  0
  144.5396  136.3440  152.2671 C   0  0  0  0  0  0  0  0  0  0  0  0
  145.7543  135.6133  152.3014 C   0  0  0  0  0  0  0  0  0  0  0  0
  146.9203  136.0690  152.9770 N   0  0  0  0  0  0  0  0  0  0  0  0
  147.0281  136.9878  153.9563 C   0  0  0  0  0  0  0  0  0  0  0  0
  146.0824  137.5784  154.4731 O   0  0  0  0  0  0  0  0  0  0  0  0
  148.2945  137.2348  154.3322 N   0  0  0  0  0  0  0  0  0  0  0  0
  148.7483  138.1754  155.3659 C   0  0  1  0  0  0  0  0  0  0  0  0
  150.2739  138.2620  155.5128 C   0  0  1  0  0  0  0  0  0  0  0  0
  151.4208  137.3642  155.2185 C   0  0  0  0  0  0  0  0  0  0  0  0
  152.3851  138.4545  154.6852 C   0  0  0  0  0  0  0  0  0  0  0  0
  151.5904  139.6615  154.5669 O   0  0  0  0  0  0  0  0  0  0  0  0
  150.2760  139.1990  154.3156 C   0  0  2  0  0  0  0  0  0  0  0  0
  148.9025  139.6428  154.8503 C   0  0  0  0  0  0  0  0  0  0  0  0
  147.8698  140.3015  153.9274 C   0  0  0  0  0  0  0  0  0  0  0  0
  148.2173  141.6431  154.5811 C   0  0  0  0  0  0  0  0  0  0  0  0
  148.7774  140.8641  155.7754 C   0  0  0  0  0  0  0  0  0  0  0  0
  145.8015  134.3463  151.6681 C   0  0  0  0  0  0  0  0  0  0  0  0
  147.2507  133.3988  151.7027 Cl  0  0  0  0  0  0  0  0  0  0  0  0
  145.3770  132.4894  149.5064 H   0  0  0  0  0  0  0  0  0  0  0  0
  143.6499  132.3323  149.8364 H   0  0  0  0  0  0  0  0  0  0  0  0
  144.8267  131.7142  150.9982 H   0  0  0  0  0  0  0  0  0  0  0  0
  142.4703  136.3013  151.5137 H   0  0  0  0  0  0  0  0  0  0  0  0
  144.4325  137.2988  152.7586 H   0  0  0  0  0  0  0  0  0  0  0  0
  147.7939  135.7226  152.6073 H   0  0  0  0  0  0  0  0  0  0  0  0
  149.0199  136.7162  153.8575 H   0  0  0  0  0  0  0  0  0  0  0  0
  148.2083  138.1051  156.3115 H   0  0  0  0  0  0  0  0  0  0  0  0
  150.4784  138.7972  156.4473 H   0  0  0  0  0  0  0  0  0  0  0  0
  151.8057  136.8600  156.1048 H   0  0  0  0  0  0  0  0  0  0  0  0
  151.1819  136.6226  154.4553 H   0  0  0  0  0  0  0  0  0  0  0  0
  153.2202  138.6299  155.3640 H   0  0  0  0  0  0  0  0  0  0  0  0
  152.7914  138.1713  153.7133 H   0  0  0  0  0  0  0  0  0  0  0  0
  150.2093  138.6902  153.3491 H   0  0  0  0  0  0  0  0  0  0  0  0
  148.0999  140.2388  152.8636 H   0  0  0  0  0  0  0  0  0  0  0  0
  146.8493  139.9805  154.1412 H   0  0  0  0  0  0  0  0  0  0  0  0
  148.9894  142.1891  154.0364 H   0  0  0  0  0  0  0  0  0  0  0  0
  147.3593  142.2754  154.8109 H   0  0  0  0  0  0  0  0  0  0  0  0
  148.0405  140.7201  156.5670 H   0  0  0  0  0  0  0  0  0  0  0  0
  149.7209  141.2472  156.1651 H   0  0  0  0  0  0  0  0  0  0  0  0
  142.7054  134.2375  150.4998 H   0  0  0  0  0  0  0  0  0  0  0  0
  1  2  1  0  0  0  0
  1 23  1  0  0  0  0
  1 24  1  0  0  0  0
  1 25  1  0  0  0  0
  2 21  1  0  0  0  0
  2  3  2  0  0  0  0
  3  4  1  0  0  0  0
  3 43  1  0  0  0  0
  4  5  2  0  0  0  0
  4 26  1  0  0  0  0
  5  6  1  0  0  0  0
  5 27  1  0  0  0  0
  6  7  1  0  0  0  0
  6 21  2  0  0  0  0
  7  8  1  0  0  0  0
  7 28  1  0  0  0  0
  8  9  2  0  0  0  0
  8 10  1  0  0  0  0
 10 11  1  0  0  0  0
 10 29  1  0  0  0  0
 11 17  1  0  0  0  0
 11 12  1  0  0  0  0
 11 30  1  0  0  0  0
 12 16  1  0  0  0  0
 12 13  1  0  0  0  0
 12 31  1  0  0  0  0
 13 14  1  0  0  0  0
 13 32  1  0  0  0  0
 13 33  1  0  0  0  0
 14 15  1  0  0  0  0
 14 34  1  0  0  0  0
 14 35  1  0  0  0  0
 15 16  1  0  0  0  0
 16 17  1  0  0  0  0
 16 36  1  0  0  0  0
 17 20  1  0  0  0  0
 17 18  1  0  0  0  0
 18 19  1  0  0  0  0
 18 37  1  0  0  0  0
 18 38  1  0  0  0  0
 19 20  1  0  0  0  0
 19 39  1  0  0  0  0
 19 40  1  0  0  0  0
 20 41  1  0  0  0  0
 20 42  1  0  0  0  0
 21 22  1  0  0  0  0
M  CHG  1   3   1
M  END
> <s_m_source_file>
AV-unprocessed.smi

> <i_m_source_file_index>
2775

> <i_lp_mmshare_version>
43012

> <i_f3d_flags>
0

> <s_epik_input>
W0NIM11jMW5bY0hdW2NIXWMoYzFDbClbTkhdQyg9TylbTkhdW0NAQEhdMltDQEhdKFtDSDJdW0NIMl1PMylbQ0BASF0zQzI0W0NIMl1bQ0gyXVtDSDJdNA==

> <s_epik_cmdline>
J2VwaWtfcHl0aG9uJywgJy1waCcsICc3LjAnLCAnLXRuJywgJzgnLCAnLW1hJywgJzIwMCcsICctbWV0YWxfYmluZGluZycsICctaW1hZScsICc8aW5maWxlLm1hZT4nLCAnLW9tYWUnLCAnPG91dGZpbGUubWFlPic=

> <r_epik_Ionization_Penalty>
2.4104

> <r_epik_Ionization_Penalty_Charging>
2.41038

> <r_epik_Ionization_Penalty_Neutral>
1.9872e-05

> <r_epik_State_Penalty>
2.56896

> <r_epik_Charging_Adjusted_Penalty>
4.97934

> <i_epik_Tot_Q>
1

> <i_epik_Tot_abs_Q>
1

> <r_epik_Metal_State_Penalty>
2.57906

> <b_epik_Metal_Only>
0

> <s_lp_Force_Field>
OPLS_2005

> <r_lp_Energy>
86.6526

> <b_lp_Chiralities_Consistent>
1

> <s_lp_Variant>
AV-unprocessed.smi:2775-16

> <Gold.Version>
5.8.1

> <Gold.Id.Protein>
6NUR|6NUR_protein|mol2

> <Gold.PLP.Fitness>
44.8892

> <Gold.PLP.PLP>
-32.7176

> <Gold.PLP.part.hbond>
-3.4908

> <Gold.PLP.part.metal>
0.0000

> <Gold.PLP.part.buried>
-4.6177

> <Gold.PLP.part.nonpolar>
-26.0075

> <Gold.PLP.part.repulsive>
0.1712

> <Gold.PLP.ligand.clash>
0.0000

> <Gold.PLP.ligand.torsion>
0.2730

> <Gold.PLP.Chemscore.Hbond>
4.1338

> <Gold.PLP.Chemscore.CHOScore>
0.0000

> <Gold.PLP.Chemscore.Metal>
0.0000

> <Gold.Chemscore.Hbonds>
donor molecule, donor type, donor heavy atom, donor atom, acceptor molecule, acceptor atom, score
      L1  H     3    43       P1 10186  2.00
      L1  H     7    28       P1  7948  0.65
      L1  H    10    29       P1  7948  0.48
      P1  H  7989  7998       L1    15  0.95

> <Gold.PLP.Chemscore.Internal.Correction>
0.3162

> <Gold.Rescore>
     Score         DG    S(hbond)    S(metal)    S(lipo)     H(rot)  DE(clash)    DE(int)     intcor
     20.85     -22.41       2.70        0.00      89.44       1.00       0.13       1.43       ----

> <Gold.Chemscore.Fitness>
20.8490

> <Gold.Chemscore.DG>
-22.4134

> <Gold.Chemscore.ZeroCoef>
-5.4800

> <Gold.Chemscore.Hbond>
2.7031

> <Gold.Chemscore.Metal>
0.0000

> <Gold.Chemscore.Lipo>
89.4445

> <Gold.Chemscore.Internal_Hbond>
0.0000

> <Gold.Chemscore.DEClash>
0.1332

> <Gold.Chemscore.DEInternal>
1.4312

> <Gold.Chemscore.Rot>
1.0000

> <Gold.Chemscore.Internal.Correction>
   9.000000E+99

> <Gold.Chemscore.Hbonds>
donor molecule, donor type, donor heavy atom, donor atom, acceptor molecule, acceptor atom, score
      L1  H     3    43       P1 10186  0.67
      L1  H     7    28       P1  7948  0.64
      L1  H    10    29       P1  7948  0.46
      P1  H  7989  7998       L1    15  0.21

> <Gold.Chemscore.Hbond.Weighted>
-9.0284

> <Gold.Chemscore.Metal.Weighted>
-0.0000

> <Gold.Chemscore.Lipo.Weighted>
-10.4650

> <Gold.Chemscore.Internal_Hbond.Weighted>
0.0000

> <Gold.Chemscore.DEClash.Weighted>
0.1332

> <Gold.Chemscore.DEInternal.Weighted>
1.4312

> <Gold.Chemscore.Rot.Weighted>
2.5600

> <Gold.Chemscore.Internal.Correction.Weighted>
   9.000000E+99

> <Gold.Protein.RotatedTorsions>
[ 6907 6896 6895 6894 ] final  167.10 input  -60.11 | X-H torsion
[ 7974 7965 7964 7962 ] final  -92.37 input  175.53 | X-H torsion
[ 8008 7997 7996 7995 ] final   64.64 input   59.86 | X-H torsion
[ 10167 10162 10161 10158 ] final  160.93 input  -65.29 | X-H torsion
[ 10718 10713 10712 10709 ] final  126.11 input   66.30 | X-H torsion
[ 10763 10752 10751 10750 ] final  101.02 input  -60.55 | X-H torsion
[ 11005 11000 10999 10996 ] final -175.41 input  -57.11 | X-H torsion

> <Gold.Protein.ActiveResidues>
 VAL166  LYS551  ARG553  GLY616  TRP617  ASP618  TYR619  PRO620  LYS621  CYS622 
 ASP623  PHE694  ASN695  SER759  ASP760  ASP761  ALA762  ILE779  LEU786  VAL792 
 PHE793  MET794  SER795  GLU796  ALA797  LYS798  CYS799  TRP800  GLU811  SER814 

> <Gold.Protein.RotatedAtoms>
  151.8686  133.3471  159.3727 H   0  0  0  0  0  0  0  0  0  0  0  0  # atno 6907 bound_to 6896
  150.7159  134.5135  159.5628 H   0  0  0  0  0  0  0  0  0  0  0  0  # atno 6908 bound_to 6896
  152.2663  134.7981  160.0473 H   0  0  0  0  0  0  0  0  0  0  0  0  # atno 6909 bound_to 6896
  145.4008  140.9537  143.2288 H   0  0  0  0  0  0  0  0  0  0  0  0  # atno 7974 bound_to 7965
  155.6491  140.3497  155.4742 H   0  0  0  0  0  0  0  0  0  0  0  0  # atno 8008 bound_to 7997
  155.9862  140.1184  157.0704 H   0  0  0  0  0  0  0  0  0  0  0  0  # atno 8009 bound_to 7997
  154.4206  140.1128  156.5489 H   0  0  0  0  0  0  0  0  0  0  0  0  # atno 8010 bound_to 7997
  139.4844  144.4586  151.8734 H   0  0  0  0  0  0  0  0  0  0  0  0  # atno 10167 bound_to 10162
  157.5446  131.1096  150.8802 H   0  0  0  0  0  0  0  0  0  0  0  0  # atno 10718 bound_to 10713
  153.3213  135.4059  155.1419 H   0  0  0  0  0  0  0  0  0  0  0  0  # atno 10763 bound_to 10752
  154.8601  135.3588  154.5592 H   0  0  0  0  0  0  0  0  0  0  0  0  # atno 10764 bound_to 10752
  153.6026  135.7070  153.5437 H   0  0  0  0  0  0  0  0  0  0  0  0  # atno 10765 bound_to 10752
  140.4636  134.6231  157.4853 H   0  0  0  0  0  0  0  0  0  0  0  0  # atno 11005 bound_to 11000
  144.8376  139.5525  143.6915 LP  0  0  0  0  0  0  0  0  0  0  0  0  # atno 17320 bound_to 7965
  146.2753  139.6737  142.9267 LP  0  0  0  0  0  0  0  0  0  0  0  0  # atno 17321 bound_to 7965
  140.4047  144.2447  150.5891 LP  0  0  0  0  0  0  0  0  0  0  0  0  # atno 17342 bound_to 10162
  140.5023  143.2314  151.8660 LP  0  0  0  0  0  0  0  0  0  0  0  0  # atno 17343 bound_to 10162
  156.9345  130.5362  149.5279 LP  0  0  0  0  0  0  0  0  0  0  0  0  # atno 17370 bound_to 10713
  156.0525  130.5592  150.9020 LP  0  0  0  0  0  0  0  0  0  0  0  0  # atno 17371 bound_to 10713
  139.9929  134.6956  155.9658 LP  0  0  0  0  0  0  0  0  0  0  0  0  # atno 17394 bound_to 11000
  141.1609  133.6539  156.4317 LP  0  0  0  0  0  0  0  0  0  0  0  0  # atno 17395 bound_to 11000

$$$$
