AV-unprocessed.smi:1703|AV-procd|sdf|6866|dock1
  -GOLD-   22720 8 63D 1   1.00000     0.00000
 Structure written by MMmdl.
 49 51  0  0  0  0  0  0  0  0  2 V2000
  147.9597  133.7012  153.6189 C   0  0  0  0  0  0  0  0  0  0  0  0
  146.4238  133.6863  153.5180 C   0  0  1  0  0  0  0  0  0  0  0  0
  145.7974  135.0941  153.4936 C   0  0  0  0  0  0  0  0  0  0  0  0
  146.0322  135.7556  152.1867 N   0  3  2  0  0  0  0  0  0  0  0  0
  145.5206  137.1481  152.1211 C   0  0  0  0  0  0  0  0  0  0  0  0
  146.6502  138.1923  152.2138 C   0  0  1  0  0  0  0  0  0  0  0  0
  146.7708  138.8433  150.9629 O   0  0  0  0  0  0  0  0  0  0  0  0
  146.3772  139.2345  153.3166 C   0  0  0  0  0  0  0  0  0  0  0  0
  147.5909  139.8953  153.7784 N   0  0  0  0  0  0  0  0  0  0  0  0
  147.8337  141.2267  153.8799 C   0  0  0  0  0  0  0  0  0  0  0  0
  146.8190  142.2580  153.4908 C   0  0  0  0  0  0  0  0  0  0  0  0
  145.6226  142.1525  154.2324 O   0  0  0  0  0  0  0  0  0  0  0  0
  149.0371  141.5635  154.3445 N   0  0  0  0  0  0  0  0  0  0  0  0
  149.6345  140.3368  154.5596 C   0  0  0  0  0  0  0  0  0  0  0  0
  150.9204  140.0147  155.0495 C   0  0  0  0  0  0  0  0  0  0  0  0
  151.3161  138.6678  155.1854 C   0  0  0  0  0  0  0  0  0  0  0  0
  150.4339  137.6258  154.8336 C   0  0  0  0  0  0  0  0  0  0  0  0
  149.1482  137.9246  154.3434 C   0  0  0  0  0  0  0  0  0  0  0  0
  148.7572  139.2709  154.2112 C   0  0  0  0  0  0  0  0  0  0  0  0
  145.5244  134.9068  151.0849 C   0  0  0  0  0  0  0  0  0  0  0  0
  146.1873  133.5180  151.1296 C   0  0  2  0  0  0  0  0  0  0  0  0
  145.6212  132.5778  150.0599 C   0  0  0  0  0  0  0  0  0  0  0  0
  145.9593  132.9224  152.4046 O   0  0  0  0  0  0  0  0  0  0  0  0
  148.2807  134.1800  154.5443 H   0  0  0  0  0  0  0  0  0  0  0  0
  148.4251  134.2445  152.7970 H   0  0  0  0  0  0  0  0  0  0  0  0
  148.3589  132.6867  153.6186 H   0  0  0  0  0  0  0  0  0  0  0  0
  146.0556  133.1754  154.4082 H   0  0  0  0  0  0  0  0  0  0  0  0
  144.7222  135.0179  153.6654 H   0  0  0  0  0  0  0  0  0  0  0  0
  146.2027  135.6885  154.3116 H   0  0  0  0  0  0  0  0  0  0  0  0
  144.9840  137.3005  151.1831 H   0  0  0  0  0  0  0  0  0  0  0  0
  144.7899  137.3004  152.9170 H   0  0  0  0  0  0  0  0  0  0  0  0
  147.5989  137.7014  152.4258 H   0  0  0  0  0  0  0  0  0  0  0  0
  145.9342  138.8146  150.5239 H   0  0  0  0  0  0  0  0  0  0  0  0
  145.6835  139.9958  152.9570 H   0  0  0  0  0  0  0  0  0  0  0  0
  145.8865  138.7632  154.1683 H   0  0  0  0  0  0  0  0  0  0  0  0
  147.2365  143.2565  153.6168 H   0  0  0  0  0  0  0  0  0  0  0  0
  146.5823  142.1490  152.4318 H   0  0  0  0  0  0  0  0  0  0  0  0
  145.0338  141.5736  153.7730 H   0  0  0  0  0  0  0  0  0  0  0  0
  151.6040  140.8053  155.3213 H   0  0  0  0  0  0  0  0  0  0  0  0
  152.3011  138.4330  155.5613 H   0  0  0  0  0  0  0  0  0  0  0  0
  150.7449  136.5971  154.9408 H   0  0  0  0  0  0  0  0  0  0  0  0
  148.4713  137.1276  154.0746 H   0  0  0  0  0  0  0  0  0  0  0  0
  144.4398  134.8165  151.1648 H   0  0  0  0  0  0  0  0  0  0  0  0
  145.7376  135.3802  150.1256 H   0  0  0  0  0  0  0  0  0  0  0  0
  147.2590  133.6180  150.9573 H   0  0  0  0  0  0  0  0  0  0  0  0
  145.7796  132.9807  149.0593 H   0  0  0  0  0  0  0  0  0  0  0  0
  144.5498  132.4253  150.1934 H   0  0  0  0  0  0  0  0  0  0  0  0
  146.1045  131.6015  150.1042 H   0  0  0  0  0  0  0  0  0  0  0  0
  147.0328  135.8167  152.0595 H   0  0  0  0  0  0  0  0  0  0  0  0
  1  2  1  0  0  0  0
  1 24  1  0  0  0  0
  1 25  1  0  0  0  0
  1 26  1  0  0  0  0
  2 23  1  0  0  0  0
  2  3  1  0  0  0  0
  2 27  1  0  0  0  0
  3  4  1  0  0  0  0
  3 28  1  0  0  0  0
  3 29  1  0  0  0  0
  4  5  1  0  0  0  0
  4 20  1  0  0  0  0
  4 49  1  0  0  0  0
  5  6  1  0  0  0  0
  5 30  1  0  0  0  0
  5 31  1  0  0  0  0
  6  7  1  0  0  0  0
  6  8  1  0  0  0  0
  6 32  1  0  0  0  0
  7 33  1  0  0  0  0
  8  9  1  0  0  0  0
  8 34  1  0  0  0  0
  8 35  1  0  0  0  0
  9 19  1  0  0  0  0
  9 10  1  0  0  0  0
 10 11  1  0  0  0  0
 10 13  2  0  0  0  0
 11 12  1  0  0  0  0
 11 36  1  0  0  0  0
 11 37  1  0  0  0  0
 12 38  1  0  0  0  0
 13 14  1  0  0  0  0
 14 19  2  0  0  0  0
 14 15  1  0  0  0  0
 15 16  2  0  0  0  0
 15 39  1  0  0  0  0
 16 17  1  0  0  0  0
 16 40  1  0  0  0  0
 17 18  2  0  0  0  0
 17 41  1  0  0  0  0
 18 19  1  0  0  0  0
 18 42  1  0  0  0  0
 20 21  1  0  0  0  0
 20 43  1  0  0  0  0
 20 44  1  0  0  0  0
 21 22  1  0  0  0  0
 21 23  1  0  0  0  0
 21 45  1  0  0  0  0
 22 46  1  0  0  0  0
 22 47  1  0  0  0  0
 22 48  1  0  0  0  0
M  CHG  1   4   1
M  END
> <s_m_source_file>
AV-unprocessed.smi

> <i_m_source_file_index>
1703

> <i_lp_mmshare_version>
43012

> <i_f3d_flags>
0

> <s_epik_input>
W0NIM11bQ0BASF0xW0NIMl1OKFtDSDJdW0NASF0oTzEpW0NIM10pW0NIMl1bQ0BIXShbT0hdKVtDSDJdbihjKG4yKVtDSDJdW09IXSljKGMyMylbY0hdW2NIXVtjSF1bY0hdMw==

> <s_epik_cmdline>
J2VwaWtfcHl0aG9uJywgJy1waCcsICc3LjAnLCAnLXRuJywgJzgnLCAnLW1hJywgJzIwMCcsICctbWV0YWxfYmluZGluZycsICctaW1hZScsICc8aW5maWxlLm1hZT4nLCAnLW9tYWUnLCAnPG91dGZpbGUubWFlPic=

> <r_epik_Ionization_Penalty>
0.655661

> <r_epik_Ionization_Penalty_Charging>
0.608065

> <r_epik_Ionization_Penalty_Neutral>
0.0475963

> <r_epik_State_Penalty>
0.695267

> <r_epik_Charging_Adjusted_Penalty>
1.30333

> <i_epik_Tot_Q>
1

> <i_epik_Tot_abs_Q>
1

> <r_epik_Metal_State_Penalty>
0.653591

> <b_epik_Metal_Only>
0

> <s_lp_Force_Field>
OPLS_2005

> <r_lp_Energy>
24.2834

> <b_lp_Chiralities_Consistent>
1

> <s_lp_Variant>
AV-unprocessed.smi:1703-14

> <Gold.Version>
5.8.1

> <Gold.Id.Protein>
6NUR|6NUR_protein|mol2

> <Gold.PLP.Fitness>
50.8220

> <Gold.PLP.PLP>
-38.9977

> <Gold.PLP.part.hbond>
-5.7370

> <Gold.PLP.part.metal>
0.0000

> <Gold.PLP.part.buried>
5.5471

> <Gold.PLP.part.nonpolar>
-38.5219

> <Gold.PLP.part.repulsive>
0.3199

> <Gold.PLP.ligand.clash>
0.0000

> <Gold.PLP.ligand.torsion>
1.6697

> <Gold.PLP.Chemscore.Hbond>
5.0150

> <Gold.PLP.Chemscore.CHOScore>
0.0000

> <Gold.PLP.Chemscore.Metal>
0.0000

> <Gold.Chemscore.Hbonds>
donor molecule, donor type, donor heavy atom, donor atom, acceptor molecule, acceptor atom, score
      L1  H     4    49       P1  7948  2.00
      L1  H     7    33       P1 10171  0.65
      L1  H    12    38       P1 10175  0.61
      P1  H  7954  7966       L1     7  0.86
      P1  H  8011  8017       L1    13  0.13

> <Gold.PLP.Chemscore.Internal.Correction>
0.1188

> <Gold.Rescore>
     Score         DG    S(hbond)    S(metal)    S(lipo)     H(rot)  DE(clash)    DE(int)     intcor
     15.54     -19.96       3.56        0.00      86.77       2.96       2.58       1.83       ----

> <Gold.Chemscore.Fitness>
15.5432

> <Gold.Chemscore.DG>
-19.9552

> <Gold.Chemscore.ZeroCoef>
-5.4800

> <Gold.Chemscore.Hbond>
3.5638

> <Gold.Chemscore.Metal>
0.0000

> <Gold.Chemscore.Lipo>
86.7741

> <Gold.Chemscore.Internal_Hbond>
0.0000

> <Gold.Chemscore.DEClash>
2.5794

> <Gold.Chemscore.DEInternal>
1.8325

> <Gold.Chemscore.Rot>
2.9611

> <Gold.Chemscore.Internal.Correction>
   9.000000E+99

> <Gold.Chemscore.Hbonds>
donor molecule, donor type, donor heavy atom, donor atom, acceptor molecule, acceptor atom, score
      L1  H     4    49       P1  7948  0.99
      L1  H     7    33       P1 10171  0.65
      L1  H    12    38       P1 10175  0.10
      P1  H  7954  7966       L1     7  0.45
      P1  H  8011  8017       L1    13  0.01

> <Gold.Chemscore.Hbond.Weighted>
-11.9029

> <Gold.Chemscore.Metal.Weighted>
-0.0000

> <Gold.Chemscore.Lipo.Weighted>
-10.1526

> <Gold.Chemscore.Internal_Hbond.Weighted>
0.0000

> <Gold.Chemscore.DEClash.Weighted>
2.5794

> <Gold.Chemscore.DEInternal.Weighted>
1.8325

> <Gold.Chemscore.Rot.Weighted>
7.5803

> <Gold.Chemscore.Internal.Correction.Weighted>
   9.000000E+99

> <Gold.Protein.RotatedTorsions>
[ 6907 6896 6895 6894 ] final  -52.60 input  -60.11 | X-H torsion
[ 7974 7965 7964 7962 ] final   12.23 input  175.53 | X-H torsion
[ 8008 7997 7996 7995 ] final -109.51 input   59.86 | X-H torsion
[ 10167 10162 10161 10158 ] final  114.89 input  -65.29 | X-H torsion
[ 10718 10713 10712 10709 ] final   72.03 input   66.30 | X-H torsion
[ 10763 10752 10751 10750 ] final -138.19 input  -60.55 | X-H torsion
[ 11005 11000 10999 10996 ] final   52.36 input  -57.11 | X-H torsion

> <Gold.Protein.ActiveResidues>
 VAL166  LYS551  ARG553  GLY616  TRP617  ASP618  TYR619  PRO620  LYS621  CYS622 
 ASP623  PHE694  ASN695  SER759  ASP760  ASP761  ALA762  ILE779  LEU786  VAL792 
 PHE793  MET794  SER795  GLU796  ALA797  LYS798  CYS799  TRP800  GLU811  SER814 

> <Gold.Protein.RotatedAtoms>
  150.8503  134.7826  159.7003 H   0  0  0  0  0  0  0  0  0  0  0  0  # atno 6907 bound_to 6896
  152.4569  134.5267  159.9808 H   0  0  0  0  0  0  0  0  0  0  0  0  # atno 6908 bound_to 6896
  151.5390  133.3398  159.2967 H   0  0  0  0  0  0  0  0  0  0  0  0  # atno 6909 bound_to 6896
  146.2355  139.9368  142.8488 H   0  0  0  0  0  0  0  0  0  0  0  0  # atno 7974 bound_to 7965
  154.9605  140.0399  157.2187 H   0  0  0  0  0  0  0  0  0  0  0  0  # atno 8008 bound_to 7997
  154.7894  140.2833  155.5981 H   0  0  0  0  0  0  0  0  0  0  0  0  # atno 8009 bound_to 7997
  156.2947  140.2576  156.2737 H   0  0  0  0  0  0  0  0  0  0  0  0  # atno 8010 bound_to 7997
  139.6356  144.7119  151.2341 H   0  0  0  0  0  0  0  0  0  0  0  0  # atno 10167 bound_to 10162
  157.6481  130.9558  150.0871 H   0  0  0  0  0  0  0  0  0  0  0  0  # atno 10718 bound_to 10713
  154.8643  135.3619  154.5345 H   0  0  0  0  0  0  0  0  0  0  0  0  # atno 10763 bound_to 10752
  153.5969  135.7014  153.5405 H   0  0  0  0  0  0  0  0  0  0  0  0  # atno 10764 bound_to 10752
  153.3325  135.4120  155.1468 H   0  0  0  0  0  0  0  0  0  0  0  0  # atno 10765 bound_to 10752
  140.0855  134.5280  155.8903 H   0  0  0  0  0  0  0  0  0  0  0  0  # atno 11005 bound_to 11000
  145.1991  140.9846  143.4166 LP  0  0  0  0  0  0  0  0  0  0  0  0  # atno 17320 bound_to 7965
  144.9789  139.3803  143.6271 LP  0  0  0  0  0  0  0  0  0  0  0  0  # atno 17321 bound_to 7965
  140.7463  143.6402  150.8342 LP  0  0  0  0  0  0  0  0  0  0  0  0  # atno 17342 bound_to 10162
  140.0033  143.5721  152.2867 LP  0  0  0  0  0  0  0  0  0  0  0  0  # atno 17343 bound_to 10162
  156.1831  130.3651  149.9009 LP  0  0  0  0  0  0  0  0  0  0  0  0  # atno 17370 bound_to 10713
  156.6956  130.8913  151.3593 LP  0  0  0  0  0  0  0  0  0  0  0  0  # atno 17371 bound_to 10713
  141.2061  133.6652  156.6222 LP  0  0  0  0  0  0  0  0  0  0  0  0  # atno 17394 bound_to 11000
  140.3426  134.7836  157.4409 LP  0  0  0  0  0  0  0  0  0  0  0  0  # atno 17395 bound_to 11000

$$$$
