AV-unprocessed.smi:196|AV-procd|sdf|1535|dock6
  -GOLD-   2262019393D 1   1.00000     0.00000
 Structure written by MMmdl.
 47 50  0  0  0  0  0  0  0  0  1 V2000
  143.9719  135.0051  162.1364 C   0  0  0  0  0  0  0  0  0  0  0  0
  145.4054  134.6593  162.5652 C   0  0  1  0  0  0  0  0  0  0  0  0
  145.6771  133.2762  162.3528 O   0  0  0  0  0  0  0  0  0  0  0  0
  147.0439  133.0921  161.9942 C   0  0  0  0  0  0  0  0  0  0  0  0
  147.6982  134.4627  162.1427 C   0  0  0  0  0  0  0  0  0  0  0  0
  146.5441  135.4149  161.8537 C   0  0  2  0  0  0  0  0  0  0  0  0
  146.7959  136.6504  162.4972 O   0  0  0  0  0  0  0  0  0  0  0  0
  146.2914  135.6606  160.3412 C   0  0  0  0  0  0  0  0  0  0  0  0
  147.3369  136.4301  159.6854 N   0  0  0  0  0  0  0  0  0  0  0  0
  148.6892  136.1719  159.7048 C   0  0  0  0  0  0  0  0  0  0  0  0
  149.4267  137.0155  159.0355 N   0  0  0  0  0  0  0  0  0  0  0  0
  148.5147  137.9287  158.5219 C   0  0  0  0  0  0  0  0  0  0  0  0
  148.6266  139.0892  157.7105 C   0  0  0  0  0  0  0  0  0  0  0  0
  149.8161  139.5197  157.2239 N   0  0  0  0  0  0  0  0  0  0  0  0
  150.8873  139.6998  158.2018 C   0  0  0  0  0  0  0  0  0  0  0  0
  151.0910  141.2055  158.3088 C   0  0  1  0  0  0  0  0  0  0  0  0
  152.3074  141.5313  158.7452 F   0  0  0  0  0  0  0  0  0  0  0  0
  150.8395  141.6599  156.8787 C   0  0  0  0  0  0  0  0  0  0  0  0
  149.7101  140.7306  156.3919 C   0  0  1  0  0  0  0  0  0  0  0  0
  149.8138  140.4654  154.8792 C   0  0  0  0  0  0  0  0  0  0  0  0
  148.7854  140.8000  154.0936 N   0  0  0  0  0  0  0  0  0  0  0  0
  150.8347  139.9583  154.4205 O   0  0  0  0  0  0  0  0  0  0  0  0
  147.4826  139.7534  157.3946 N   0  0  0  0  0  0  0  0  0  0  0  0
  146.3056  139.3156  157.8517 C   0  0  0  0  0  0  0  0  0  0  0  0
  146.0512  138.2525  158.6173 N   0  0  0  0  0  0  0  0  0  0  0  0
  147.1966  137.5806  158.9291 C   0  0  0  0  0  0  0  0  0  0  0  0
  150.3600  141.6474  158.9871 H   0  0  0  0  0  0  0  0  0  0  0  0
  148.7546  141.2277  156.5752 H   0  0  0  0  0  0  0  0  0  0  0  0
  143.7699  136.0681  162.2689 H   0  0  0  0  0  0  0  0  0  0  0  0
  143.2480  134.4533  162.7361 H   0  0  0  0  0  0  0  0  0  0  0  0
  143.7888  134.7524  161.0920 H   0  0  0  0  0  0  0  0  0  0  0  0
  145.4928  134.8232  163.6412 H   0  0  0  0  0  0  0  0  0  0  0  0
  147.5207  132.3371  162.6195 H   0  0  0  0  0  0  0  0  0  0  0  0
  147.0913  132.7522  160.9590 H   0  0  0  0  0  0  0  0  0  0  0  0
  148.0335  134.5804  163.1749 H   0  0  0  0  0  0  0  0  0  0  0  0
  148.5721  134.5933  161.5057 H   0  0  0  0  0  0  0  0  0  0  0  0
  147.5865  136.5658  163.0077 H   0  0  0  0  0  0  0  0  0  0  0  0
  146.1901  134.7107  159.8150 H   0  0  0  0  0  0  0  0  0  0  0  0
  145.3482  136.1888  160.1946 H   0  0  0  0  0  0  0  0  0  0  0  0
  149.1135  135.3301  160.2329 H   0  0  0  0  0  0  0  0  0  0  0  0
  150.6891  139.2431  159.1729 H   0  0  0  0  0  0  0  0  0  0  0  0
  151.7840  139.2236  157.8031 H   0  0  0  0  0  0  0  0  0  0  0  0
  150.5697  142.7148  156.8191 H   0  0  0  0  0  0  0  0  0  0  0  0
  151.7462  141.5158  156.2875 H   0  0  0  0  0  0  0  0  0  0  0  0
  148.8350  140.6267  153.0998 H   0  0  0  0  0  0  0  0  0  0  0  0
  147.9603  141.2187  154.4975 H   0  0  0  0  0  0  0  0  0  0  0  0
  145.4445  139.8983  157.5591 H   0  0  0  0  0  0  0  0  0  0  0  0
  1  2  1  0  0  0  0
  1 29  1  0  0  0  0
  1 30  1  0  0  0  0
  1 31  1  0  0  0  0
  2  6  1  0  0  0  0
  2  3  1  0  0  0  0
  2 32  1  0  0  0  0
  3  4  1  0  0  0  0
  4  5  1  0  0  0  0
  4 33  1  0  0  0  0
  4 34  1  0  0  0  0
  5  6  1  0  0  0  0
  5 35  1  0  0  0  0
  5 36  1  0  0  0  0
  6  7  1  0  0  0  0
  6  8  1  0  0  0  0
  7 37  1  0  0  0  0
  8  9  1  0  0  0  0
  8 38  1  0  0  0  0
  8 39  1  0  0  0  0
  9 26  1  0  0  0  0
  9 10  1  0  0  0  0
 10 11  2  0  0  0  0
 10 40  1  0  0  0  0
 11 12  1  0  0  0  0
 12 26  2  0  0  0  0
 12 13  1  0  0  0  0
 13 14  1  0  0  0  0
 13 23  2  0  0  0  0
 14 19  1  0  0  0  0
 14 15  1  0  0  0  0
 15 16  1  0  0  0  0
 15 41  1  0  0  0  0
 15 42  1  0  0  0  0
 16 27  1  0  0  0  0
 16 17  1  0  0  0  0
 16 18  1  0  0  0  0
 18 19  1  0  0  0  0
 18 43  1  0  0  0  0
 18 44  1  0  0  0  0
 19 28  1  0  0  0  0
 19 20  1  0  0  0  0
 20 21  1  0  0  0  0
 20 22  2  0  0  0  0
 21 45  1  0  0  0  0
 21 46  1  0  0  0  0
 23 24  1  0  0  0  0
 24 25  2  0  0  0  0
 24 47  1  0  0  0  0
 25 26  1  0  0  0  0
M  END
> <s_m_source_file>
AV-unprocessed.smi

> <i_m_source_file_index>
196

> <i_lp_mmshare_version>
43012

> <i_f3d_flags>
0

> <s_epik_input>
W0NIMl0xW0NIMl1PW0NAQEhdKFtDSDNdKVtDQEBdMShbT0hdKVtDSDJdbihbY0hdbjIpYyhjMjMpbltjSF1uYzNONFtDSDJdW0NASF0oRilbQ0gyXVtDQEhdNEMoPU8pW05IMl0=

> <s_epik_cmdline>
J2VwaWtfcHl0aG9uJywgJy1waCcsICc3LjAnLCAnLXRuJywgJzgnLCAnLW1hJywgJzIwMCcsICctbWV0YWxfYmluZGluZycsICctaW1hZScsICc8aW5maWxlLm1hZT4nLCAnLW9tYWUnLCAnPG91dGZpbGUubWFlPic=

> <r_lp_tautomer_probability>
1

> <r_epik_Ionization_Penalty>
0.000857933

> <r_epik_Ionization_Penalty_Charging>
0

> <r_epik_Ionization_Penalty_Neutral>
0.000857933

> <r_epik_State_Penalty>
0.000462053

> <r_epik_Charging_Adjusted_Penalty>
0.000462053

> <i_epik_Tot_Q>
0

> <i_epik_Tot_abs_Q>
0

> <r_epik_Metal_State_Penalty>
-0

> <b_epik_Metal_Only>
0

> <s_lp_Force_Field>
OPLS_2005

> <r_lp_Energy>
46.5275

> <b_lp_Chiralities_Consistent>
1

> <s_lp_Variant>
AV-unprocessed.smi:196-8

> <Gold.Version>
5.8.1

> <Gold.Id.Protein>
6NUR|6NUR_protein|mol2

> <Gold.PLP.Fitness>
40.8380

> <Gold.PLP.PLP>
-35.0590

> <Gold.PLP.part.hbond>
-2.3468

> <Gold.PLP.part.metal>
0.0000

> <Gold.PLP.part.buried>
-6.9326

> <Gold.PLP.part.nonpolar>
-26.2280

> <Gold.PLP.part.repulsive>
0.3304

> <Gold.PLP.ligand.clash>
0.0000

> <Gold.PLP.ligand.torsion>
0.1552

> <Gold.PLP.Chemscore.Hbond>
2.0000

> <Gold.PLP.Chemscore.CHOScore>
0.0000

> <Gold.PLP.Chemscore.Metal>
0.0000

> <Gold.Chemscore.Hbonds>
donor molecule, donor type, donor heavy atom, donor atom, acceptor molecule, acceptor atom, score
      L1  H    21    45       P1  7957  0.67
      P1  H  7989  7998       L1    22  0.98

> <Gold.PLP.Chemscore.Internal.Correction>
0.0893

> <Gold.Rescore>
     Score         DG    S(hbond)    S(metal)    S(lipo)     H(rot)  DE(clash)    DE(int)     intcor
     10.64     -11.31       1.80        0.00      65.08       3.04       0.08       0.58       ----

> <Gold.Chemscore.Fitness>
10.6437

> <Gold.Chemscore.DG>
-11.3061

> <Gold.Chemscore.ZeroCoef>
-5.4800

> <Gold.Chemscore.Hbond>
1.7957

> <Gold.Chemscore.Metal>
0.0000

> <Gold.Chemscore.Lipo>
65.0788

> <Gold.Chemscore.Internal_Hbond>
0.0000

> <Gold.Chemscore.DEClash>
0.0785

> <Gold.Chemscore.DEInternal>
0.5838

> <Gold.Chemscore.Rot>
3.0413

> <Gold.Chemscore.Internal.Correction>
   9.000000E+99

> <Gold.Chemscore.Hbonds>
donor molecule, donor type, donor heavy atom, donor atom, acceptor molecule, acceptor atom, score
      L1  H    21    45       P1  7957  0.67
      P1  H  7989  7998       L1    22  0.83

> <Gold.Chemscore.Hbond.Weighted>
-5.9975

> <Gold.Chemscore.Metal.Weighted>
-0.0000

> <Gold.Chemscore.Lipo.Weighted>
-7.6142

> <Gold.Chemscore.Internal_Hbond.Weighted>
0.0000

> <Gold.Chemscore.DEClash.Weighted>
0.0785

> <Gold.Chemscore.DEInternal.Weighted>
0.5838

> <Gold.Chemscore.Rot.Weighted>
7.7856

> <Gold.Chemscore.Internal.Correction.Weighted>
   9.000000E+99

> <Gold.Protein.RotatedTorsions>
[ 6907 6896 6895 6894 ] final  163.24 input  -60.11 | X-H torsion
[ 7974 7965 7964 7962 ] final  -10.87 input  175.53 | X-H torsion
[ 8008 7997 7996 7995 ] final -144.17 input   59.86 | X-H torsion
[ 10167 10162 10161 10158 ] final  158.77 input  -65.29 | X-H torsion
[ 10718 10713 10712 10709 ] final   14.01 input   66.30 | X-H torsion
[ 10763 10752 10751 10750 ] final   93.82 input  -60.55 | X-H torsion
[ 11005 11000 10999 10996 ] final  169.46 input  -57.11 | X-H torsion

> <Gold.Protein.ActiveResidues>
 VAL166  LYS551  ARG553  GLY616  TRP617  ASP618  TYR619  PRO620  LYS621  CYS622 
 ASP623  PHE694  ASN695  SER759  ASP760  ASP761  ALA762  ILE779  LEU786  VAL792 
 PHE793  MET794  SER795  GLU796  ALA797  LYS798  CYS799  TRP800  GLU811  SER814 

> <Gold.Protein.RotatedAtoms>
  151.9282  133.3604  159.3921 H   0  0  0  0  0  0  0  0  0  0  0  0  # atno 6907 bound_to 6896
  150.7022  134.4565  159.5370 H   0  0  0  0  0  0  0  0  0  0  0  0  # atno 6908 bound_to 6896
  152.2200  134.8421  160.0538 H   0  0  0  0  0  0  0  0  0  0  0  0  # atno 6909 bound_to 6896
  146.2206  140.2828  142.8363 H   0  0  0  0  0  0  0  0  0  0  0  0  # atno 7974 bound_to 7965
  155.5225  140.0592  157.2904 H   0  0  0  0  0  0  0  0  0  0  0  0  # atno 8008 bound_to 7997
  154.4512  140.1950  156.0458 H   0  0  0  0  0  0  0  0  0  0  0  0  # atno 8009 bound_to 7997
  156.0709  140.3260  155.7578 H   0  0  0  0  0  0  0  0  0  0  0  0  # atno 8010 bound_to 7997
  139.4828  144.4793  151.8467 H   0  0  0  0  0  0  0  0  0  0  0  0  # atno 10167 bound_to 10162
  157.0330  130.6200  149.5738 H   0  0  0  0  0  0  0  0  0  0  0  0  # atno 10718 bound_to 10713
  153.2346  135.4312  155.0632 H   0  0  0  0  0  0  0  0  0  0  0  0  # atno 10763 bound_to 10752
  154.8313  135.3388  154.6738 H   0  0  0  0  0  0  0  0  0  0  0  0  # atno 10764 bound_to 10752
  153.7163  135.7019  153.5080 H   0  0  0  0  0  0  0  0  0  0  0  0  # atno 10765 bound_to 10752
  140.2980  134.7619  157.3893 H   0  0  0  0  0  0  0  0  0  0  0  0  # atno 11005 bound_to 11000
  144.9185  140.7840  143.5763 LP  0  0  0  0  0  0  0  0  0  0  0  0  # atno 17320 bound_to 7965
  145.2763  139.1935  143.4815 LP  0  0  0  0  0  0  0  0  0  0  0  0  # atno 17321 bound_to 7965
  140.4267  144.2170  150.5887 LP  0  0  0  0  0  0  0  0  0  0  0  0  # atno 17342 bound_to 10162
  140.4820  143.2376  151.8942 LP  0  0  0  0  0  0  0  0  0  0  0  0  # atno 17343 bound_to 10162
  156.0063  130.5150  150.7841 LP  0  0  0  0  0  0  0  0  0  0  0  0  # atno 17370 bound_to 10713
  157.5163  131.0929  151.0135 LP  0  0  0  0  0  0  0  0  0  0  0  0  # atno 17371 bound_to 10713
  140.1135  134.5314  155.8245 LP  0  0  0  0  0  0  0  0  0  0  0  0  # atno 17394 bound_to 11000
  141.2133  133.6732  156.6733 LP  0  0  0  0  0  0  0  0  0  0  0  0  # atno 17395 bound_to 11000

$$$$
