AV-unprocessed.smi:1982|AV-procd|sdf|8027|dock7
  -GOLD-   2272010223D 1   1.00000     0.00000
 Structure written by MMmdl.
 36 37  0  0  0  0  0  0  0  0  1 V2000
  152.7957  142.5728  162.7115 C   0  0  0  0  0  0  0  0  0  0  0  0
  152.3279  143.0396  161.3214 C   0  0  1  0  0  0  0  0  0  0  0  0
  152.1113  144.5672  161.3301 C   0  0  0  0  0  0  0  0  0  0  0  0
  151.6278  145.0915  159.9716 C   0  0  0  0  0  0  0  0  0  0  0  0
  152.6045  144.7003  158.8537 C   0  0  0  0  0  0  0  0  0  0  0  0
  152.8427  143.1788  158.8090 C   0  0  2  0  0  0  0  0  0  0  0  0
  151.6435  142.4809  158.3477 N   0  0  0  0  0  0  0  0  0  0  0  0
  151.6041  141.2617  157.7884 C   0  0  0  0  0  0  0  0  0  0  0  0
  152.6068  140.5947  157.5362 O   0  0  0  0  0  0  0  0  0  0  0  0
  150.2147  140.7075  157.4698 C   0  0  0  0  0  0  0  0  0  0  0  0
  149.9686  140.7085  156.0389 N   0  0  0  0  0  0  0  0  0  0  0  0
  149.2022  141.4959  155.2816 C   0  0  0  0  0  0  0  0  0  0  0  0
  149.2816  141.1697  154.0007 N   0  0  0  0  0  0  0  0  0  0  0  0
  150.1658  140.1036  154.0016 N   0  0  0  0  0  0  0  0  0  0  0  0
  150.5767  139.8250  155.2081 N   0  0  0  0  0  0  0  0  0  0  0  0
  153.3046  142.6287  160.1837 C   0  0  2  0  0  0  0  0  0  0  0  0
  153.5497  141.1065  160.1202 C   0  0  0  0  0  0  0  0  0  0  0  0
  153.7927  142.9491  162.9419 H   0  0  0  0  0  0  0  0  0  0  0  0
  152.8205  141.4860  162.7863 H   0  0  0  0  0  0  0  0  0  0  0  0
  152.1203  142.9269  163.4906 H   0  0  0  0  0  0  0  0  0  0  0  0
  151.3621  142.5692  161.1306 H   0  0  0  0  0  0  0  0  0  0  0  0
  151.3852  144.8365  162.0979 H   0  0  0  0  0  0  0  0  0  0  0  0
  153.0420  145.0687  161.5995 H   0  0  0  0  0  0  0  0  0  0  0  0
  150.6350  144.6950  159.7555 H   0  0  0  0  0  0  0  0  0  0  0  0
  151.5236  146.1762  160.0087 H   0  0  0  0  0  0  0  0  0  0  0  0
  152.2347  145.0567  157.8914 H   0  0  0  0  0  0  0  0  0  0  0  0
  153.5564  145.2065  159.0179 H   0  0  0  0  0  0  0  0  0  0  0  0
  153.6456  142.9888  158.0941 H   0  0  0  0  0  0  0  0  0  0  0  0
  150.7637  142.9506  158.5074 H   0  0  0  0  0  0  0  0  0  0  0  0
  150.1237  139.6912  157.8561 H   0  0  0  0  0  0  0  0  0  0  0  0
  149.4474  141.3105  157.9569 H   0  0  0  0  0  0  0  0  0  0  0  0
  148.5976  142.3047  155.6654 H   0  0  0  0  0  0  0  0  0  0  0  0
  154.2683  143.0928  160.3996 H   0  0  0  0  0  0  0  0  0  0  0  0
  152.6157  140.5490  160.0393 H   0  0  0  0  0  0  0  0  0  0  0  0
  154.0753  140.7469  161.0044 H   0  0  0  0  0  0  0  0  0  0  0  0
  154.1657  140.8458  159.2591 H   0  0  0  0  0  0  0  0  0  0  0  0
  1  2  1  0  0  0  0
  1 18  1  0  0  0  0
  1 19  1  0  0  0  0
  1 20  1  0  0  0  0
  2 16  1  0  0  0  0
  2  3  1  0  0  0  0
  2 21  1  0  0  0  0
  3  4  1  0  0  0  0
  3 22  1  0  0  0  0
  3 23  1  0  0  0  0
  4  5  1  0  0  0  0
  4 24  1  0  0  0  0
  4 25  1  0  0  0  0
  5  6  1  0  0  0  0
  5 26  1  0  0  0  0
  5 27  1  0  0  0  0
  6  7  1  0  0  0  0
  6 16  1  0  0  0  0
  6 28  1  0  0  0  0
  7  8  1  0  0  0  0
  7 29  1  0  0  0  0
  8  9  2  0  0  0  0
  8 10  1  0  0  0  0
 10 11  1  0  0  0  0
 10 30  1  0  0  0  0
 10 31  1  0  0  0  0
 11 15  1  0  0  0  0
 11 12  1  0  0  0  0
 12 13  2  0  0  0  0
 12 32  1  0  0  0  0
 13 14  1  0  0  0  0
 14 15  2  0  0  0  0
 16 17  1  0  0  0  0
 16 33  1  0  0  0  0
 17 34  1  0  0  0  0
 17 35  1  0  0  0  0
 17 36  1  0  0  0  0
M  END
> <s_m_source_file>
AV-unprocessed.smi

> <i_m_source_file_index>
1982

> <i_lp_mmshare_version>
43012

> <i_f3d_flags>
0

> <s_epik_input>
W0NIM11bQ0BASF0xW0NIMl1bQ0gyXVtDSDJdW0NASF0oW0NASF0xW0NIM10pW05IXUMoPU8pW0NIMl1uMltjSF1ubm4y

> <s_epik_cmdline>
J2VwaWtfcHl0aG9uJywgJy1waCcsICc3LjAnLCAnLXRuJywgJzgnLCAnLW1hJywgJzIwMCcsICctbWV0YWxfYmluZGluZycsICctaW1hZScsICc8aW5maWxlLm1hZT4nLCAnLW9tYWUnLCAnPG91dGZpbGUubWFlPic=

> <r_lp_tautomer_probability>
1

> <r_epik_Ionization_Penalty>
5.03816e-07

> <r_epik_Ionization_Penalty_Charging>
0

> <r_epik_Ionization_Penalty_Neutral>
5.03816e-07

> <r_epik_State_Penalty>
-0

> <r_epik_Charging_Adjusted_Penalty>
0

> <i_epik_Tot_Q>
0

> <i_epik_Tot_abs_Q>
0

> <r_epik_Metal_State_Penalty>
-0

> <b_epik_Metal_Only>
0

> <s_lp_Force_Field>
OPLS_2005

> <r_lp_Energy>
12.4214

> <b_lp_Chiralities_Consistent>
1

> <s_lp_Variant>
AV-unprocessed.smi:1982-8

> <Gold.Version>
5.8.1

> <Gold.Id.Protein>
6NUR|6NUR_protein|mol2

> <Gold.PLP.Fitness>
47.9633

> <Gold.PLP.PLP>
-39.3772

> <Gold.PLP.part.hbond>
-4.0224

> <Gold.PLP.part.metal>
0.0000

> <Gold.PLP.part.buried>
-3.1448

> <Gold.PLP.part.nonpolar>
-34.9108

> <Gold.PLP.part.repulsive>
1.9475

> <Gold.PLP.ligand.clash>
0.0000

> <Gold.PLP.ligand.torsion>
0.5859

> <Gold.PLP.Chemscore.Hbond>
2.2484

> <Gold.PLP.Chemscore.CHOScore>
1.0000

> <Gold.PLP.Chemscore.Metal>
0.0000

> <Gold.Chemscore.Hbonds>
donor molecule, donor type, donor heavy atom, donor atom, acceptor molecule, acceptor atom, score
      P1  H  7989  7998       L1    14  0.79
      P1  H  7997  8009       L1     9  0.80
      P1  H  8011  8017       L1    13  0.59
      L1  C    12    32       P1  8028  1.00

> <Gold.PLP.Chemscore.Internal.Correction>
0.0126

> <Gold.Rescore>
     Score         DG    S(hbond)    S(metal)    S(lipo)     H(rot)  DE(clash)    DE(int)     intcor
     12.41     -15.19       0.85        0.00     100.49       1.91       0.22       2.56       ----

> <Gold.Chemscore.Fitness>
12.4132

> <Gold.Chemscore.DG>
-15.1917

> <Gold.Chemscore.ZeroCoef>
-5.4800

> <Gold.Chemscore.Hbond>
0.8483

> <Gold.Chemscore.Metal>
0.0000

> <Gold.Chemscore.Lipo>
100.4886

> <Gold.Chemscore.Internal_Hbond>
0.0000

> <Gold.Chemscore.DEClash>
0.2208

> <Gold.Chemscore.DEInternal>
2.5577

> <Gold.Chemscore.Rot>
1.9058

> <Gold.Chemscore.Internal.Correction>
   9.000000E+99

> <Gold.Chemscore.Hbonds>
donor molecule, donor type, donor heavy atom, donor atom, acceptor molecule, acceptor atom, score
      P1  H  7989  7998       L1    14  0.04
      P1  H  7997  8009       L1     9  0.74
      P1  H  8011  8017       L1    13  0.36

> <Gold.Chemscore.Hbond.Weighted>
-2.8334

> <Gold.Chemscore.Metal.Weighted>
-0.0000

> <Gold.Chemscore.Lipo.Weighted>
-11.7572

> <Gold.Chemscore.Internal_Hbond.Weighted>
0.0000

> <Gold.Chemscore.DEClash.Weighted>
0.2208

> <Gold.Chemscore.DEInternal.Weighted>
2.5577

> <Gold.Chemscore.Rot.Weighted>
4.8788

> <Gold.Chemscore.Internal.Correction.Weighted>
   9.000000E+99

> <Gold.Protein.RotatedTorsions>
[ 6907 6896 6895 6894 ] final -147.93 input  -60.11 | X-H torsion
[ 7974 7965 7964 7962 ] final  116.12 input  175.53 | X-H torsion
[ 8008 7997 7996 7995 ] final  171.95 input   59.86 | X-H torsion
[ 10167 10162 10161 10158 ] final  133.70 input  -65.29 | X-H torsion
[ 10718 10713 10712 10709 ] final  105.59 input   66.30 | X-H torsion
[ 10763 10752 10751 10750 ] final  138.78 input  -60.55 | X-H torsion
[ 11005 11000 10999 10996 ] final -139.80 input  -57.11 | X-H torsion

> <Gold.Protein.ActiveResidues>
 VAL166  LYS551  ARG553  GLY616  TRP617  ASP618  TYR619  PRO620  LYS621  CYS622 
 ASP623  PHE694  ASN695  SER759  ASP760  ASP761  ALA762  ILE779  LEU786  VAL792 
 PHE793  MET794  SER795  GLU796  ALA797  LYS798  CYS799  TRP800  GLU811  SER814 

> <Gold.Protein.RotatedAtoms>
  151.1627  133.4835  159.2593 H   0  0  0  0  0  0  0  0  0  0  0  0  # atno 6907 bound_to 6896
  151.1438  135.0192  159.8647 H   0  0  0  0  0  0  0  0  0  0  0  0  # atno 6908 bound_to 6896
  152.5463  134.1518  159.8574 H   0  0  0  0  0  0  0  0  0  0  0  0  # atno 6909 bound_to 6896
  145.1835  139.3037  143.4405 H   0  0  0  0  0  0  0  0  0  0  0  0  # atno 7974 bound_to 7965
  156.1222  140.1498  156.9188 H   0  0  0  0  0  0  0  0  0  0  0  0  # atno 8008 bound_to 7997
  154.4844  140.0869  156.7494 H   0  0  0  0  0  0  0  0  0  0  0  0  # atno 8009 bound_to 7997
  155.4408  140.3431  155.4292 H   0  0  0  0  0  0  0  0  0  0  0  0  # atno 8010 bound_to 7997
  139.5286  144.6603  151.5034 H   0  0  0  0  0  0  0  0  0  0  0  0  # atno 10167 bound_to 10162
  157.6700  131.0831  150.5879 H   0  0  0  0  0  0  0  0  0  0  0  0  # atno 10718 bound_to 10713
  153.8952  135.3028  155.3448 H   0  0  0  0  0  0  0  0  0  0  0  0  # atno 10763 bound_to 10752
  154.7697  135.4892  153.9627 H   0  0  0  0  0  0  0  0  0  0  0  0  # atno 10764 bound_to 10752
  153.1275  135.6796  153.9332 H   0  0  0  0  0  0  0  0  0  0  0  0  # atno 10765 bound_to 10752
  140.8485  134.2315  157.4773 H   0  0  0  0  0  0  0  0  0  0  0  0  # atno 11005 bound_to 11000
  146.3449  140.2023  142.8589 LP  0  0  0  0  0  0  0  0  0  0  0  0  # atno 17320 bound_to 7965
  145.0112  140.8716  143.5223 LP  0  0  0  0  0  0  0  0  0  0  0  0  # atno 17321 bound_to 7965
  140.6448  143.8817  150.6726 LP  0  0  0  0  0  0  0  0  0  0  0  0  # atno 17342 bound_to 10162
  140.2163  143.3844  152.1678 LP  0  0  0  0  0  0  0  0  0  0  0  0  # atno 17343 bound_to 10162
  156.6179  130.4398  149.5833 LP  0  0  0  0  0  0  0  0  0  0  0  0  # atno 17370 bound_to 10713
  156.2378  130.6833  151.1527 LP  0  0  0  0  0  0  0  0  0  0  0  0  # atno 17371 bound_to 10713
  139.8704  134.9671  156.4585 LP  0  0  0  0  0  0  0  0  0  0  0  0  # atno 17394 bound_to 11000
  140.8817  133.7913  155.9474 LP  0  0  0  0  0  0  0  0  0  0  0  0  # atno 17395 bound_to 11000

$$$$
