AV-unprocessed.smi:2296|AV-procd|sdf|9221|dock1
  -GOLD-   2272012443D 1   1.00000     0.00000
 Structure written by MMmdl.
 24 24  0  0  0  0  0  0  0  0  2 V2000
  143.9389  134.7530  149.5815 N   0  3  0  0  0  0  0  0  0  0  0  0
  144.4522  133.6657  150.4373 C   0  0  1  0  0  0  0  0  0  0  0  0
  144.3284  132.3146  149.7125 C   0  0  0  0  0  0  0  0  0  0  0  0
  142.9942  132.1014  149.3017 O   0  0  0  0  0  0  0  0  0  0  0  0
  145.9085  133.9466  150.8562 C   0  0  0  0  0  0  0  0  0  0  0  0
  146.4275  132.9741  151.9011 C   0  0  0  0  0  0  0  0  0  0  0  0
  145.5994  131.9535  152.4129 C   0  0  0  0  0  0  0  0  0  0  0  0
  146.1336  131.0754  153.3778 C   0  0  0  0  0  0  0  0  0  0  0  0
  147.4010  131.1596  153.8354 N   0  0  0  0  0  0  0  0  0  0  0  0
  148.1878  132.1405  153.3431 C   0  0  0  0  0  0  0  0  0  0  0  0
  147.7515  133.0698  152.3773 C   0  0  0  0  0  0  0  0  0  0  0  0
  142.9487  134.6262  149.4296 H   0  0  0  0  0  0  0  0  0  0  0  0
  144.4218  134.7410  148.6944 H   0  0  0  0  0  0  0  0  0  0  0  0
  143.8361  133.6329  151.3374 H   0  0  0  0  0  0  0  0  0  0  0  0
  144.9910  132.2666  148.8475 H   0  0  0  0  0  0  0  0  0  0  0  0
  144.6093  131.4984  150.3791 H   0  0  0  0  0  0  0  0  0  0  0  0
  142.4858  132.8700  149.5142 H   0  0  0  0  0  0  0  0  0  0  0  0
  146.5621  133.8832  149.9850 H   0  0  0  0  0  0  0  0  0  0  0  0
  146.0025  134.9672  151.2302 H   0  0  0  0  0  0  0  0  0  0  0  0
  144.5778  131.8424  152.0798 H   0  0  0  0  0  0  0  0  0  0  0  0
  145.5270  130.2830  153.7902 H   0  0  0  0  0  0  0  0  0  0  0  0
  149.1956  132.1852  153.7287 H   0  0  0  0  0  0  0  0  0  0  0  0
  148.4204  133.8363  152.0137 H   0  0  0  0  0  0  0  0  0  0  0  0
  144.0980  135.6386  150.0407 H   0  0  0  0  0  0  0  0  0  0  0  0
  1  2  1  0  0  0  0
  1 12  1  0  0  0  0
  1 13  1  0  0  0  0
  1 24  1  0  0  0  0
  2  3  1  0  0  0  0
  2  5  1  0  0  0  0
  2 14  1  0  0  0  0
  3  4  1  0  0  0  0
  3 15  1  0  0  0  0
  3 16  1  0  0  0  0
  4 17  1  0  0  0  0
  5  6  1  0  0  0  0
  5 18  1  0  0  0  0
  5 19  1  0  0  0  0
  6 11  1  0  0  0  0
  6  7  2  0  0  0  0
  7  8  1  0  0  0  0
  7 20  1  0  0  0  0
  8  9  2  0  0  0  0
  8 21  1  0  0  0  0
  9 10  1  0  0  0  0
 10 11  2  0  0  0  0
 10 22  1  0  0  0  0
 11 23  1  0  0  0  0
M  CHG  1   1   1
M  END
> <s_m_source_file>
AV-unprocessed.smi

> <i_m_source_file_index>
2296

> <i_lp_mmshare_version>
43012

> <i_f3d_flags>
0

> <s_epik_input>
W09IXVtDSDJdW0NAQEhdKFtOSDJdKVtDSDJdYzFbY0hdW2NIXW5bY0hdW2NIXTE=

> <s_epik_cmdline>
J2VwaWtfcHl0aG9uJywgJy1waCcsICc3LjAnLCAnLXRuJywgJzgnLCAnLW1hJywgJzIwMCcsICctbWV0YWxfYmluZGluZycsICctaW1hZScsICc8aW5maWxlLm1hZT4nLCAnLW9tYWUnLCAnPG91dGZpbGUubWFlPic=

> <r_epik_Ionization_Penalty>
0.0199414

> <r_epik_Ionization_Penalty_Charging>
0.0188044

> <r_epik_Ionization_Penalty_Neutral>
0.00113699

> <r_epik_State_Penalty>
0.00788343

> <r_epik_Charging_Adjusted_Penalty>
0.0266878

> <i_epik_Tot_Q>
1

> <i_epik_Tot_abs_Q>
1

> <r_epik_Metal_State_Penalty>
-0

> <b_epik_Metal_Only>
0

> <s_lp_Force_Field>
OPLS_2005

> <r_lp_Energy>
8.03463

> <b_lp_Chiralities_Consistent>
1

> <s_lp_Variant>
AV-unprocessed.smi:2296-2

> <Gold.Version>
5.8.1

> <Gold.Id.Protein>
6NUR|6NUR_protein|mol2

> <Gold.PLP.Fitness>
40.8355

> <Gold.PLP.PLP>
-24.5366

> <Gold.PLP.part.hbond>
-4.8505

> <Gold.PLP.part.metal>
0.0000

> <Gold.PLP.part.buried>
-4.8907

> <Gold.PLP.part.nonpolar>
-16.8249

> <Gold.PLP.part.repulsive>
0.1912

> <Gold.PLP.ligand.clash>
0.0000

> <Gold.PLP.ligand.torsion>
0.0350

> <Gold.PLP.Chemscore.Hbond>
4.6404

> <Gold.PLP.Chemscore.CHOScore>
0.8105

> <Gold.PLP.Chemscore.Metal>
0.0000

> <Gold.Chemscore.Hbonds>
donor molecule, donor type, donor heavy atom, donor atom, acceptor molecule, acceptor atom, score
      L1  H     1    12       P1 10186  2.00
      L1  H     1    13       P1  7921  1.00
      L1  H     4    17       P1 10186  0.73
      P1  H 10785 10796       L1     4  0.86
      L1  C     8    21       P1 10956  0.80

> <Gold.PLP.Chemscore.Internal.Correction>
0.0160

> <Gold.Rescore>
     Score         DG    S(hbond)    S(metal)    S(lipo)     H(rot)  DE(clash)    DE(int)     intcor
     15.76     -15.84       2.91        0.00      52.43       2.14       0.00       0.08       ----

> <Gold.Chemscore.Fitness>
15.7635

> <Gold.Chemscore.DG>
-15.8450

> <Gold.Chemscore.ZeroCoef>
-5.4800

> <Gold.Chemscore.Hbond>
2.9074

> <Gold.Chemscore.Metal>
0.0000

> <Gold.Chemscore.Lipo>
52.4273

> <Gold.Chemscore.Internal_Hbond>
0.0000

> <Gold.Chemscore.DEClash>
0.0015

> <Gold.Chemscore.DEInternal>
0.0800

> <Gold.Chemscore.Rot>
2.1405

> <Gold.Chemscore.Internal.Correction>
   9.000000E+99

> <Gold.Chemscore.Hbonds>
donor molecule, donor type, donor heavy atom, donor atom, acceptor molecule, acceptor atom, score
      L1  H     1    12       P1 10186  0.96
      L1  H     1    13       P1  7921  0.91
      L1  H     4    17       P1 10186  0.73
      P1  H 10785 10796       L1     4  0.16

> <Gold.Chemscore.Hbond.Weighted>
-9.7107

> <Gold.Chemscore.Metal.Weighted>
-0.0000

> <Gold.Chemscore.Lipo.Weighted>
-6.1340

> <Gold.Chemscore.Internal_Hbond.Weighted>
0.0000

> <Gold.Chemscore.DEClash.Weighted>
0.0015

> <Gold.Chemscore.DEInternal.Weighted>
0.0800

> <Gold.Chemscore.Rot.Weighted>
5.4797

> <Gold.Chemscore.Internal.Correction.Weighted>
   9.000000E+99

> <Gold.Protein.RotatedTorsions>
[ 6907 6896 6895 6894 ] final  140.32 input  -60.11 | X-H torsion
[ 7974 7965 7964 7962 ] final  174.91 input  175.53 | X-H torsion
[ 8008 7997 7996 7995 ] final -174.37 input   59.86 | X-H torsion
[ 10167 10162 10161 10158 ] final -108.18 input  -65.29 | X-H torsion
[ 10718 10713 10712 10709 ] final   69.96 input   66.30 | X-H torsion
[ 10763 10752 10751 10750 ] final  164.87 input  -60.55 | X-H torsion
[ 11005 11000 10999 10996 ] final   34.60 input  -57.11 | X-H torsion

> <Gold.Protein.ActiveResidues>
 VAL166  LYS551  ARG553  GLY616  TRP617  ASP618  TYR619  PRO620  LYS621  CYS622 
 ASP623  PHE694  ASN695  SER759  ASP760  ASP761  ALA762  ILE779  LEU786  VAL792 
 PHE793  MET794  SER795  GLU796  ALA797  LYS798  CYS799  TRP800  GLU811  SER814 

> <Gold.Protein.RotatedAtoms>
  152.2444  133.5162  159.5288 H   0  0  0  0  0  0  0  0  0  0  0  0  # atno 6907 bound_to 6896
  150.7074  134.1045  159.3987 H   0  0  0  0  0  0  0  0  0  0  0  0  # atno 6908 bound_to 6896
  151.8966  135.0395  160.0553 H   0  0  0  0  0  0  0  0  0  0  0  0  # atno 6909 bound_to 6896
  144.7212  139.9868  143.6439 H   0  0  0  0  0  0  0  0  0  0  0  0  # atno 7974 bound_to 7965
  155.9692  140.1159  157.0827 H   0  0  0  0  0  0  0  0  0  0  0  0  # atno 8008 bound_to 7997
  154.4152  140.1166  156.5351 H   0  0  0  0  0  0  0  0  0  0  0  0  # atno 8009 bound_to 7997
  155.6619  140.3473  155.4788 H   0  0  0  0  0  0  0  0  0  0  0  0  # atno 8010 bound_to 7997
  140.1689  143.4059  152.1369 H   0  0  0  0  0  0  0  0  0  0  0  0  # atno 10167 bound_to 10162
  157.6374  130.9453  150.0585 H   0  0  0  0  0  0  0  0  0  0  0  0  # atno 10718 bound_to 10713
  154.3154  135.2756  155.2545 H   0  0  0  0  0  0  0  0  0  0  0  0  # atno 10763 bound_to 10752
  154.4922  135.5830  153.6471 H   0  0  0  0  0  0  0  0  0  0  0  0  # atno 10764 bound_to 10752
  152.9883  135.6137  154.3335 H   0  0  0  0  0  0  0  0  0  0  0  0  # atno 10765 bound_to 10752
  140.2512  134.3301  155.7890 H   0  0  0  0  0  0  0  0  0  0  0  0  # atno 11005 bound_to 11000
  146.0444  139.3451  143.0678 LP  0  0  0  0  0  0  0  0  0  0  0  0  # atno 17320 bound_to 7965
  145.8295  140.9638  143.0856 LP  0  0  0  0  0  0  0  0  0  0  0  0  # atno 17321 bound_to 7965
  139.5347  144.7197  151.4935 LP  0  0  0  0  0  0  0  0  0  0  0  0  # atno 17342 bound_to 10162
  140.6595  143.8529  150.6872 LP  0  0  0  0  0  0  0  0  0  0  0  0  # atno 17343 bound_to 10162
  156.1625  130.3644  149.9279 LP  0  0  0  0  0  0  0  0  0  0  0  0  # atno 17370 bound_to 10713
  156.7273  130.9030  151.3623 LP  0  0  0  0  0  0  0  0  0  0  0  0  # atno 17371 bound_to 10713
  141.2201  133.7354  156.9040 LP  0  0  0  0  0  0  0  0  0  0  0  0  # atno 17394 bound_to 11000
  140.1556  134.9200  157.2649 LP  0  0  0  0  0  0  0  0  0  0  0  0  # atno 17395 bound_to 11000

$$$$
