AV-unprocessed.smi:1108|AV-procd|sdf|4787|dock10
  -GOLD-   22720 3333D 1   1.00000     0.00000
 Structure written by MMmdl.
 31 32  0  0  0  0  0  0  0  0  1 V2000
  151.5670  140.2753  156.1195 C   0  0  0  0  0  0  0  0  0  0  0  0
  150.2101  140.9883  156.0429 C   0  0  2  0  0  0  0  0  0  0  0  0
  149.5980  140.8781  154.6299 C   0  0  0  0  0  0  0  0  0  0  0  0
  148.2773  141.4750  154.5400 N   0  0  0  0  0  0  0  0  0  0  0  0
  147.4825  141.6349  153.4244 C   0  0  0  0  0  0  0  0  0  0  0  0
  146.3371  142.2589  153.8280 C   0  0  0  0  0  0  0  0  0  0  0  0
  146.5251  142.4378  155.2270 C   0  0  0  0  0  0  0  0  0  0  0  0
  147.6854  141.9636  155.6511 N   0  0  0  0  0  0  0  0  0  0  0  0
  150.3895  142.3886  156.4254 N   0  0  0  0  0  0  0  0  0  0  0  0
  151.1658  142.8342  157.4244 C   0  0  0  0  0  0  0  0  0  0  0  0
  151.8383  142.1068  158.1553 O   0  0  0  0  0  0  0  0  0  0  0  0
  151.1104  144.1679  157.5353 N   0  0  0  0  0  0  0  0  0  0  0  0
  151.8086  144.9457  158.5067 C   0  0  0  0  0  0  0  0  0  0  0  0
  152.1560  144.2811  159.8213 C   0  0  0  0  0  0  0  0  0  0  0  0
  151.0677  145.3179  159.7728 C   0  0  0  0  0  0  0  0  0  0  0  0
  151.4683  139.2180  155.8723 H   0  0  0  0  0  0  0  0  0  0  0  0
  151.9882  140.3389  157.1235 H   0  0  0  0  0  0  0  0  0  0  0  0
  152.2867  140.7129  155.4268 H   0  0  0  0  0  0  0  0  0  0  0  0
  149.5471  140.4919  156.7541 H   0  0  0  0  0  0  0  0  0  0  0  0
  150.2476  141.3514  153.8923 H   0  0  0  0  0  0  0  0  0  0  0  0
  149.5122  139.8300  154.3392 H   0  0  0  0  0  0  0  0  0  0  0  0
  147.7980  141.3015  152.4468 H   0  0  0  0  0  0  0  0  0  0  0  0
  145.4942  142.5457  153.2171 H   0  0  0  0  0  0  0  0  0  0  0  0
  145.8572  142.8941  155.9424 H   0  0  0  0  0  0  0  0  0  0  0  0
  149.8777  143.0716  155.8863 H   0  0  0  0  0  0  0  0  0  0  0  0
  150.5255  144.6736  156.8860 H   0  0  0  0  0  0  0  0  0  0  0  0
  152.5231  145.6810  158.1389 H   0  0  0  0  0  0  0  0  0  0  0  0
  151.8560  143.2448  159.9636 H   0  0  0  0  0  0  0  0  0  0  0  0
  153.0967  144.5614  160.2908 H   0  0  0  0  0  0  0  0  0  0  0  0
  151.2810  146.2908  160.2108 H   0  0  0  0  0  0  0  0  0  0  0  0
  150.0410  144.9736  159.8822 H   0  0  0  0  0  0  0  0  0  0  0  0
  1  2  1  0  0  0  0
  1 16  1  0  0  0  0
  1 17  1  0  0  0  0
  1 18  1  0  0  0  0
  2  3  1  0  0  0  0
  2  9  1  0  0  0  0
  2 19  1  0  0  0  0
  3  4  1  0  0  0  0
  3 20  1  0  0  0  0
  3 21  1  0  0  0  0
  4  8  1  0  0  0  0
  4  5  1  0  0  0  0
  5  6  2  0  0  0  0
  5 22  1  0  0  0  0
  6  7  1  0  0  0  0
  6 23  1  0  0  0  0
  7  8  2  0  0  0  0
  7 24  1  0  0  0  0
  9 10  1  0  0  0  0
  9 25  1  0  0  0  0
 10 11  2  0  0  0  0
 10 12  1  0  0  0  0
 12 13  1  0  0  0  0
 12 26  1  0  0  0  0
 13 15  1  0  0  0  0
 13 14  1  0  0  0  0
 13 27  1  0  0  0  0
 14 15  1  0  0  0  0
 14 28  1  0  0  0  0
 14 29  1  0  0  0  0
 15 30  1  0  0  0  0
 15 31  1  0  0  0  0
M  END
> <s_m_source_file>
AV-unprocessed.smi

> <i_m_source_file_index>
1108

> <i_lp_mmshare_version>
43012

> <i_f3d_flags>
0

> <s_epik_input>
W0NIMl0xW0NIMl1bQ0hdMVtOSF1DKD1PKVtOSF1bQ0BIXShbQ0gzXSlbQ0gyXW4yW2NIXVtjSF1bY0hdbjI=

> <s_epik_cmdline>
J2VwaWtfcHl0aG9uJywgJy1waCcsICc3LjAnLCAnLXRuJywgJzgnLCAnLW1hJywgJzIwMCcsICctbWV0YWxfYmluZGluZycsICctaW1hZScsICc8aW5maWxlLm1hZT4nLCAnLW9tYWUnLCAnPG91dGZpbGUubWFlPic=

> <r_lp_tautomer_probability>
1

> <r_epik_Ionization_Penalty>
7.55353e-05

> <r_epik_Ionization_Penalty_Charging>
0

> <r_epik_Ionization_Penalty_Neutral>
7.55353e-05

> <r_epik_State_Penalty>
-0

> <r_epik_Charging_Adjusted_Penalty>
0

> <i_epik_Tot_Q>
0

> <i_epik_Tot_abs_Q>
0

> <r_epik_Metal_State_Penalty>
-0

> <b_epik_Metal_Only>
0

> <s_lp_Force_Field>
OPLS_2005

> <r_lp_Energy>
13.7116

> <b_lp_Chiralities_Consistent>
1

> <s_lp_Variant>
AV-unprocessed.smi:1108-1

> <Gold.Version>
5.8.1

> <Gold.Id.Protein>
6NUR|6NUR_protein|mol2

> <Gold.PLP.Fitness>
44.5211

> <Gold.PLP.PLP>
-36.7323

> <Gold.PLP.part.hbond>
-2.0000

> <Gold.PLP.part.metal>
0.0000

> <Gold.PLP.part.buried>
-5.4264

> <Gold.PLP.part.nonpolar>
-30.3483

> <Gold.PLP.part.repulsive>
1.2507

> <Gold.PLP.ligand.clash>
0.0000

> <Gold.PLP.ligand.torsion>
0.6258

> <Gold.PLP.Chemscore.Hbond>
2.0000

> <Gold.PLP.Chemscore.CHOScore>
0.9980

> <Gold.PLP.Chemscore.Metal>
0.0000

> <Gold.Chemscore.Hbonds>
donor molecule, donor type, donor heavy atom, donor atom, acceptor molecule, acceptor atom, score
      L1  H     9    25       P1  8028  1.00
      L1  H    12    26       P1  8028  1.00
      L1  C     5    22       P1  7957  1.00

> <Gold.PLP.Chemscore.Internal.Correction>
0.0464

> <Gold.Rescore>
     Score         DG    S(hbond)    S(metal)    S(lipo)     H(rot)  DE(clash)    DE(int)     intcor
     12.49     -15.99       1.79        0.00      76.07       1.71       0.04       3.45       ----

> <Gold.Chemscore.Fitness>
12.4896

> <Gold.Chemscore.DG>
-15.9850

> <Gold.Chemscore.ZeroCoef>
-5.4800

> <Gold.Chemscore.Hbond>
1.7892

> <Gold.Chemscore.Metal>
0.0000

> <Gold.Chemscore.Lipo>
76.0717

> <Gold.Chemscore.Internal_Hbond>
0.0000

> <Gold.Chemscore.DEClash>
0.0430

> <Gold.Chemscore.DEInternal>
3.4524

> <Gold.Chemscore.Rot>
1.7075

> <Gold.Chemscore.Internal.Correction>
   9.000000E+99

> <Gold.Chemscore.Hbonds>
donor molecule, donor type, donor heavy atom, donor atom, acceptor molecule, acceptor atom, score
      L1  H     9    25       P1  8028  0.97
      L1  H    12    26       P1  8028  0.71

> <Gold.Chemscore.Hbond.Weighted>
-5.9759

> <Gold.Chemscore.Metal.Weighted>
-0.0000

> <Gold.Chemscore.Lipo.Weighted>
-8.9004

> <Gold.Chemscore.Internal_Hbond.Weighted>
0.0000

> <Gold.Chemscore.DEClash.Weighted>
0.0430

> <Gold.Chemscore.DEInternal.Weighted>
3.4524

> <Gold.Chemscore.Rot.Weighted>
4.3713

> <Gold.Chemscore.Internal.Correction.Weighted>
   9.000000E+99

> <Gold.Protein.RotatedTorsions>
[ 6907 6896 6895 6894 ] final  -68.79 input  -60.11 | X-H torsion
[ 7974 7965 7964 7962 ] final  174.05 input  175.53 | X-H torsion
[ 8008 7997 7996 7995 ] final   78.96 input   59.86 | X-H torsion
[ 10167 10162 10161 10158 ] final   17.95 input  -65.29 | X-H torsion
[ 10718 10713 10712 10709 ] final -140.33 input   66.30 | X-H torsion
[ 10763 10752 10751 10750 ] final   29.98 input  -60.55 | X-H torsion
[ 11005 11000 10999 10996 ] final -126.70 input  -57.11 | X-H torsion

> <Gold.Protein.ActiveResidues>
 VAL166  LYS551  ARG553  GLY616  TRP617  ASP618  TYR619  PRO620  LYS621  CYS622 
 ASP623  PHE694  ASN695  SER759  ASP760  ASP761  ALA762  ILE779  LEU786  VAL792 
 PHE793  MET794  SER795  GLU796  ALA797  LYS798  CYS799  TRP800  GLU811  SER814 

> <Gold.Protein.RotatedAtoms>
  150.7338  134.5690  159.5880 H   0  0  0  0  0  0  0  0  0  0  0  0  # atno 6907 bound_to 6896
  152.3133  134.7467  160.0340 H   0  0  0  0  0  0  0  0  0  0  0  0  # atno 6908 bound_to 6896
  151.8008  133.3334  159.3563 H   0  0  0  0  0  0  0  0  0  0  0  0  # atno 6909 bound_to 6896
  144.7230  139.9740  143.6437 H   0  0  0  0  0  0  0  0  0  0  0  0  # atno 7974 bound_to 7965
  155.8630  140.3453  155.5769 H   0  0  0  0  0  0  0  0  0  0  0  0  # atno 8008 bound_to 7997
  155.7912  140.0872  157.2027 H   0  0  0  0  0  0  0  0  0  0  0  0  # atno 8009 bound_to 7997
  154.4013  140.1483  156.3152 H   0  0  0  0  0  0  0  0  0  0  0  0  # atno 8010 bound_to 7997
  140.5688  143.9200  150.6697 H   0  0  0  0  0  0  0  0  0  0  0  0  # atno 10167 bound_to 10162
  156.3211  130.7534  151.1632 H   0  0  0  0  0  0  0  0  0  0  0  0  # atno 10718 bound_to 10713
  153.0398  135.6475  154.0974 H   0  0  0  0  0  0  0  0  0  0  0  0  # atno 10763 bound_to 10752
  154.0682  135.2882  155.3314 H   0  0  0  0  0  0  0  0  0  0  0  0  # atno 10764 bound_to 10752
  154.6612  135.5391  153.8085 H   0  0  0  0  0  0  0  0  0  0  0  0  # atno 10765 bound_to 10752
  140.9660  134.0872  157.3920 H   0  0  0  0  0  0  0  0  0  0  0  0  # atno 11005 bound_to 11000
  146.0540  139.3539  143.0622 LP  0  0  0  0  0  0  0  0  0  0  0  0  # atno 17320 bound_to 7965
  145.8178  140.9694  143.0915 LP  0  0  0  0  0  0  0  0  0  0  0  0  # atno 17321 bound_to 7965
  140.2669  143.3483  152.1272 LP  0  0  0  0  0  0  0  0  0  0  0  0  # atno 17342 bound_to 10162
  139.5107  144.6888  151.5815 LP  0  0  0  0  0  0  0  0  0  0  0  0  # atno 17343 bound_to 10162
  157.7412  131.0507  150.5115 LP  0  0  0  0  0  0  0  0  0  0  0  0  # atno 17370 bound_to 10713
  156.5267  130.4175  149.6222 LP  0  0  0  0  0  0  0  0  0  0  0  0  # atno 17371 bound_to 10713
  139.8894  135.0105  156.6680 LP  0  0  0  0  0  0  0  0  0  0  0  0  # atno 17394 bound_to 11000
  140.7399  133.8986  155.8271 LP  0  0  0  0  0  0  0  0  0  0  0  0  # atno 17395 bound_to 11000

$$$$
