AV-unprocessed.smi:648|AV-procd|sdf|3177|dock6
  -GOLD-   22720 0103D 1   1.00000     0.00000
 Structure written by MMmdl.
 45 46  0  0  0  0  0  0  0  0  1 V2000
  142.0558  135.8597  153.7417 C   0  0  0  0  0  0  0  0  0  0  0  0
  143.4998  135.6979  153.2442 C   0  0  1  0  0  0  0  0  0  0  0  0
  143.5753  134.6981  152.0767 C   0  0  0  0  0  0  0  0  0  0  0  0
  145.0086  134.4898  151.5377 C   0  0  0  0  0  0  0  0  0  0  0  0
  145.8540  133.6535  152.5258 C   0  0  0  0  0  0  0  0  0  0  0  0
  144.9244  133.6818  150.2261 C   0  0  0  0  0  0  0  0  0  0  0  0
  145.6627  135.8660  151.2229 C   0  0  0  0  0  0  0  0  0  0  0  0
  145.5652  136.9649  152.3225 C   0  0  2  0  0  0  0  0  0  0  0  0
  146.0059  138.3077  151.6645 C   0  0  0  0  0  0  0  0  0  0  0  0
  147.3520  138.3184  151.2290 O   0  0  0  0  0  0  0  0  0  0  0  0
  146.5221  136.6164  153.3918 N   0  0  0  0  0  0  0  0  0  0  0  0
  146.7823  137.5967  154.4477 C   0  0  0  0  0  0  0  0  0  0  0  0
  148.0504  137.2202  155.2245 C   0  0  0  0  0  0  0  0  0  0  0  0
  149.0426  138.2749  155.1747 N   0  0  0  0  0  0  0  0  0  0  0  0
  149.5746  138.9166  154.1334 C   0  0  0  0  0  0  0  0  0  0  0  0
  150.4629  139.8411  154.4714 N   0  0  0  0  0  0  0  0  0  0  0  0
  150.4263  139.7060  155.8306 C   0  0  0  0  0  0  0  0  0  0  0  0
  149.5888  138.7831  156.3042 N   0  0  0  0  0  0  0  0  0  0  0  0
  144.0981  137.0539  152.8288 C   0  0  0  0  0  0  0  0  0  0  0  0
  141.4063  136.2498  152.9574 H   0  0  0  0  0  0  0  0  0  0  0  0
  142.0065  136.5469  154.5867 H   0  0  0  0  0  0  0  0  0  0  0  0
  141.6447  134.9050  154.0707 H   0  0  0  0  0  0  0  0  0  0  0  0
  144.0792  135.3092  154.0814 H   0  0  0  0  0  0  0  0  0  0  0  0
  143.1529  133.7400  152.3827 H   0  0  0  0  0  0  0  0  0  0  0  0
  142.9362  135.0612  151.2702 H   0  0  0  0  0  0  0  0  0  0  0  0
  146.8770  133.5357  152.1673 H   0  0  0  0  0  0  0  0  0  0  0  0
  145.4375  132.6536  152.6502 H   0  0  0  0  0  0  0  0  0  0  0  0
  145.9070  134.0920  153.5201 H   0  0  0  0  0  0  0  0  0  0  0  0
  145.9140  133.5114  149.8005 H   0  0  0  0  0  0  0  0  0  0  0  0
  144.3292  134.1981  149.4718 H   0  0  0  0  0  0  0  0  0  0  0  0
  144.4649  132.7060  150.3880 H   0  0  0  0  0  0  0  0  0  0  0  0
  146.7042  135.7223  150.9299 H   0  0  0  0  0  0  0  0  0  0  0  0
  145.1688  136.2481  150.3281 H   0  0  0  0  0  0  0  0  0  0  0  0
  145.3536  138.5698  150.8302 H   0  0  0  0  0  0  0  0  0  0  0  0
  145.9264  139.1275  152.3790 H   0  0  0  0  0  0  0  0  0  0  0  0
  147.8770  137.8545  151.8632 H   0  0  0  0  0  0  0  0  0  0  0  0
  147.4023  136.3316  152.9747 H   0  0  0  0  0  0  0  0  0  0  0  0
  146.9117  138.5926  154.0263 H   0  0  0  0  0  0  0  0  0  0  0  0
  145.9442  137.6462  155.1420 H   0  0  0  0  0  0  0  0  0  0  0  0
  147.8093  137.0224  156.2700 H   0  0  0  0  0  0  0  0  0  0  0  0
  148.4925  136.3080  154.8213 H   0  0  0  0  0  0  0  0  0  0  0  0
  149.3077  138.7039  153.1085 H   0  0  0  0  0  0  0  0  0  0  0  0
  151.0343  140.3069  156.4910 H   0  0  0  0  0  0  0  0  0  0  0  0
  143.4812  137.4652  152.0282 H   0  0  0  0  0  0  0  0  0  0  0  0
  144.0035  137.7627  153.6511 H   0  0  0  0  0  0  0  0  0  0  0  0
  1  2  1  0  0  0  0
  1 20  1  0  0  0  0
  1 21  1  0  0  0  0
  1 22  1  0  0  0  0
  2 19  1  0  0  0  0
  2  3  1  0  0  0  0
  2 23  1  0  0  0  0
  3  4  1  0  0  0  0
  3 24  1  0  0  0  0
  3 25  1  0  0  0  0
  4  5  1  0  0  0  0
  4  6  1  0  0  0  0
  4  7  1  0  0  0  0
  5 26  1  0  0  0  0
  5 27  1  0  0  0  0
  5 28  1  0  0  0  0
  6 29  1  0  0  0  0
  6 30  1  0  0  0  0
  6 31  1  0  0  0  0
  7  8  1  0  0  0  0
  7 32  1  0  0  0  0
  7 33  1  0  0  0  0
  8  9  1  0  0  0  0
  8 11  1  0  0  0  0
  8 19  1  0  0  0  0
  9 10  1  0  0  0  0
  9 34  1  0  0  0  0
  9 35  1  0  0  0  0
 10 36  1  0  0  0  0
 11 12  1  0  0  0  0
 11 37  1  0  0  0  0
 12 13  1  0  0  0  0
 12 38  1  0  0  0  0
 12 39  1  0  0  0  0
 13 14  1  0  0  0  0
 13 40  1  0  0  0  0
 13 41  1  0  0  0  0
 14 18  1  0  0  0  0
 14 15  1  0  0  0  0
 15 16  2  0  0  0  0
 15 42  1  0  0  0  0
 16 17  1  0  0  0  0
 17 18  2  0  0  0  0
 17 43  1  0  0  0  0
 19 44  1  0  0  0  0
 19 45  1  0  0  0  0
M  END
> <s_m_source_file>
AV-unprocessed.smi

> <i_m_source_file_index>
648

> <i_lp_mmshare_version>
43012

> <i_f3d_flags>
0

> <s_epik_input>
W0NIM11DMShbQ0gzXSlbQ0gyXVtDQEBIXShbQ0gzXSlbQ0gyXVtDQF0oW0NIMl0xKShbQ0gyXVtPSF0pW05IXVtDSDJdW0NIMl1uMltjSF1uW2NIXW4y

> <s_epik_cmdline>
J2VwaWtfcHl0aG9uJywgJy1waCcsICc3LjAnLCAnLXRuJywgJzgnLCAnLW1hJywgJzIwMCcsICctbWV0YWxfYmluZGluZycsICctaW1hZScsICc8aW5maWxlLm1hZT4nLCAnLW9tYWUnLCAnPG91dGZpbGUubWFlPic=

> <r_lp_tautomer_probability>
1

> <r_epik_Ionization_Penalty>
2.45849

> <r_epik_Ionization_Penalty_Charging>
0

> <r_epik_Ionization_Penalty_Neutral>
2.45849

> <r_epik_State_Penalty>
2.62037

> <r_epik_Charging_Adjusted_Penalty>
2.62037

> <i_epik_Tot_Q>
0

> <i_epik_Tot_abs_Q>
0

> <r_epik_Metal_State_Penalty>
2.62024

> <b_epik_Metal_Only>
0

> <s_lp_Force_Field>
OPLS_2005

> <r_lp_Energy>
32.8017

> <b_lp_Chiralities_Consistent>
1

> <s_lp_Variant>
AV-unprocessed.smi:648-8

> <Gold.Version>
5.8.1

> <Gold.Id.Protein>
6NUR|6NUR_protein|mol2

> <Gold.PLP.Fitness>
46.0351

> <Gold.PLP.PLP>
-30.1113

> <Gold.PLP.part.hbond>
-4.9294

> <Gold.PLP.part.metal>
0.0000

> <Gold.PLP.part.buried>
-1.5537

> <Gold.PLP.part.nonpolar>
-24.0228

> <Gold.PLP.part.repulsive>
0.1330

> <Gold.PLP.ligand.clash>
0.0000

> <Gold.PLP.ligand.torsion>
0.5440

> <Gold.PLP.Chemscore.Hbond>
3.7433

> <Gold.PLP.Chemscore.CHOScore>
1.9182

> <Gold.PLP.Chemscore.Metal>
0.0000

> <Gold.Chemscore.Hbonds>
donor molecule, donor type, donor heavy atom, donor atom, acceptor molecule, acceptor atom, score
      L1  H    10    36       P1  7948  0.69
      L1  H    11    37       P1  7948  1.00
      P1  H  7954  7966       L1    10  0.90
      P1  H  7989  7998       L1    16  1.00
      L1  C    15    42       P1  7948  0.44
      L1  C    15    42       P1  7957  1.00

> <Gold.PLP.Chemscore.Internal.Correction>
0.0277

> <Gold.Rescore>
     Score         DG    S(hbond)    S(metal)    S(lipo)     H(rot)  DE(clash)    DE(int)     intcor
     14.17     -14.80       3.32        0.00      53.20       3.12       0.07       0.57       ----

> <Gold.Chemscore.Fitness>
14.1677

> <Gold.Chemscore.DG>
-14.8034

> <Gold.Chemscore.ZeroCoef>
-5.4800

> <Gold.Chemscore.Hbond>
3.3180

> <Gold.Chemscore.Metal>
0.0000

> <Gold.Chemscore.Lipo>
53.1994

> <Gold.Chemscore.Internal_Hbond>
0.0000

> <Gold.Chemscore.DEClash>
0.0692

> <Gold.Chemscore.DEInternal>
0.5665

> <Gold.Chemscore.Rot>
3.1183

> <Gold.Chemscore.Internal.Correction>
   9.000000E+99

> <Gold.Chemscore.Hbonds>
donor molecule, donor type, donor heavy atom, donor atom, acceptor molecule, acceptor atom, score
      L1  H    10    36       P1  7948  0.68
      L1  H    11    37       P1  7948  1.00
      P1  H  7954  7966       L1    10  0.18
      P1  H  7989  7998       L1    16  1.00

> <Gold.Chemscore.Hbond.Weighted>
-11.0820

> <Gold.Chemscore.Metal.Weighted>
-0.0000

> <Gold.Chemscore.Lipo.Weighted>
-6.2243

> <Gold.Chemscore.Internal_Hbond.Weighted>
0.0000

> <Gold.Chemscore.DEClash.Weighted>
0.0692

> <Gold.Chemscore.DEInternal.Weighted>
0.5665

> <Gold.Chemscore.Rot.Weighted>
7.9829

> <Gold.Chemscore.Internal.Correction.Weighted>
   9.000000E+99

> <Gold.Protein.RotatedTorsions>
[ 6907 6896 6895 6894 ] final   55.36 input  -60.11 | X-H torsion
[ 7974 7965 7964 7962 ] final  149.25 input  175.53 | X-H torsion
[ 8008 7997 7996 7995 ] final   74.08 input   59.86 | X-H torsion
[ 10167 10162 10161 10158 ] final  128.63 input  -65.29 | X-H torsion
[ 10718 10713 10712 10709 ] final  179.74 input   66.30 | X-H torsion
[ 10763 10752 10751 10750 ] final -158.89 input  -60.55 | X-H torsion
[ 11005 11000 10999 10996 ] final   82.33 input  -57.11 | X-H torsion

> <Gold.Protein.ActiveResidues>
 VAL166  LYS551  ARG553  GLY616  TRP617  ASP618  TYR619  PRO620  LYS621  CYS622 
 ASP623  PHE694  ASN695  SER759  ASP760  ASP761  ALA762  ILE779  LEU786  VAL792 
 PHE793  MET794  SER795  GLU796  ALA797  LYS798  CYS799  TRP800  GLU811  SER814 

> <Gold.Protein.RotatedAtoms>
  152.3530  134.6978  160.0230 H   0  0  0  0  0  0  0  0  0  0  0  0  # atno 6907 bound_to 6896
  151.7326  133.3313  159.3352 H   0  0  0  0  0  0  0  0  0  0  0  0  # atno 6908 bound_to 6896
  150.7553  134.6283  159.6217 H   0  0  0  0  0  0  0  0  0  0  0  0  # atno 6909 bound_to 6896
  144.8452  139.6256  143.5998 H   0  0  0  0  0  0  0  0  0  0  0  0  # atno 7974 bound_to 7965
  155.7931  140.3478  155.5360 H   0  0  0  0  0  0  0  0  0  0  0  0  # atno 8008 bound_to 7997
  155.8614  140.0972  157.1631 H   0  0  0  0  0  0  0  0  0  0  0  0  # atno 8009 bound_to 7997
  154.4012  140.1358  156.3953 H   0  0  0  0  0  0  0  0  0  0  0  0  # atno 8010 bound_to 7997
  139.5517  144.6818  151.4303 H   0  0  0  0  0  0  0  0  0  0  0  0  # atno 10167 bound_to 10162
  156.8713  130.9784  151.3073 H   0  0  0  0  0  0  0  0  0  0  0  0  # atno 10718 bound_to 10713
  154.7519  135.3094  154.8541 H   0  0  0  0  0  0  0  0  0  0  0  0  # atno 10763 bound_to 10752
  153.9326  135.6783  153.4749 H   0  0  0  0  0  0  0  0  0  0  0  0  # atno 10764 bound_to 10752
  153.1116  135.4864  154.8972 H   0  0  0  0  0  0  0  0  0  0  0  0  # atno 10765 bound_to 10752
  139.9067  134.8063  156.2161 H   0  0  0  0  0  0  0  0  0  0  0  0  # atno 11005 bound_to 11000
  146.2738  139.6701  142.9277 LP  0  0  0  0  0  0  0  0  0  0  0  0  # atno 17320 bound_to 7965
  145.4611  141.0433  143.2751 LP  0  0  0  0  0  0  0  0  0  0  0  0  # atno 17321 bound_to 7965
  140.6781  143.8143  150.7085 LP  0  0  0  0  0  0  0  0  0  0  0  0  # atno 17342 bound_to 10162
  140.1588  143.4293  152.2081 LP  0  0  0  0  0  0  0  0  0  0  0  0  # atno 17343 bound_to 10162
  157.6194  130.8643  149.9083 LP  0  0  0  0  0  0  0  0  0  0  0  0  # atno 17370 bound_to 10713
  156.0725  130.3683  150.0746 LP  0  0  0  0  0  0  0  0  0  0  0  0  # atno 17371 bound_to 10713
  141.0435  133.6925  156.1641 LP  0  0  0  0  0  0  0  0  0  0  0  0  # atno 17394 bound_to 11000
  140.6919  134.4656  157.5588 LP  0  0  0  0  0  0  0  0  0  0  0  0  # atno 17395 bound_to 11000

$$$$
