AV-unprocessed.smi:565|AV-procd|sdf|2953|dock2
  -GOLD-   2262023453D 1   1.00000     0.00000
 Structure written by MMmdl.
 50 51  0  0  0  0  0  0  0  0  2 V2000
  150.2784  145.4307  159.8040 C   0  0  0  0  0  0  0  0  0  0  0  0
  151.2630  144.3648  160.1916 C   0  0  0  0  0  0  0  0  0  0  0  0
  151.5351  144.1650  161.4703 N   0  0  0  0  0  0  0  0  0  0  0  0
  152.4302  143.1567  161.4782 N   0  0  0  0  0  0  0  0  0  0  0  0
  152.9490  142.6747  162.7434 C   0  0  0  0  0  0  0  0  0  0  0  0
  152.7250  142.7197  160.2017 C   0  0  0  0  0  0  0  0  0  0  0  0
  153.6860  141.6037  159.9454 C   0  0  0  0  0  0  0  0  0  0  0  0
  151.9872  143.4831  159.3363 C   0  0  0  0  0  0  0  0  0  0  0  0
  151.9323  143.4179  157.8314 C   0  0  0  0  0  0  0  0  0  0  0  0
  151.1911  142.1517  157.3993 C   0  0  0  0  0  0  0  0  0  0  0  0
  151.4756  141.0661  157.9058 O   0  0  0  0  0  0  0  0  0  0  0  0
  150.2352  142.3023  156.4695 N   0  0  0  0  0  0  0  0  0  0  0  0
  149.3780  141.2342  155.9694 C   0  0  0  0  0  0  0  0  0  0  0  0
  148.6962  141.6154  154.6398 C   0  0  0  0  0  0  0  0  0  0  0  0
  147.4558  142.4058  154.8420 N   0  3  1  0  0  0  0  0  0  0  0  0
  146.8326  142.8076  153.5546 C   0  0  0  0  0  0  0  0  0  0  0  0
  145.6476  143.7587  153.7848 C   0  0  0  0  0  0  0  0  0  0  0  0
  144.6100  143.1292  154.7251 C   0  0  0  0  0  0  0  0  0  0  0  0
  145.2613  142.6505  156.0357 C   0  0  2  0  0  0  0  0  0  0  0  0
  145.6244  143.8106  156.9795 C   0  0  0  0  0  0  0  0  0  0  0  0
  146.4708  141.7399  155.7385 C   0  0  0  0  0  0  0  0  0  0  0  0
  149.4910  145.0214  159.1714 H   0  0  0  0  0  0  0  0  0  0  0  0
  150.7694  146.2295  159.2483 H   0  0  0  0  0  0  0  0  0  0  0  0
  149.8008  145.8786  160.6763 H   0  0  0  0  0  0  0  0  0  0  0  0
  154.0229  142.8558  162.7904 H   0  0  0  0  0  0  0  0  0  0  0  0
  152.7637  141.6041  162.8322 H   0  0  0  0  0  0  0  0  0  0  0  0
  152.4669  143.1850  163.5782 H   0  0  0  0  0  0  0  0  0  0  0  0
  153.7704  141.3890  158.8803 H   0  0  0  0  0  0  0  0  0  0  0  0
  153.3594  140.6899  160.4418 H   0  0  0  0  0  0  0  0  0  0  0  0
  154.6799  141.8554  160.3156 H   0  0  0  0  0  0  0  0  0  0  0  0
  151.4390  144.2983  157.4169 H   0  0  0  0  0  0  0  0  0  0  0  0
  152.9308  143.4025  157.3941 H   0  0  0  0  0  0  0  0  0  0  0  0
  150.0679  143.2311  156.1096 H   0  0  0  0  0  0  0  0  0  0  0  0
  149.9759  140.3281  155.8705 H   0  0  0  0  0  0  0  0  0  0  0  0
  148.6222  141.0263  156.7273 H   0  0  0  0  0  0  0  0  0  0  0  0
  149.4057  142.2036  154.0558 H   0  0  0  0  0  0  0  0  0  0  0  0
  148.4666  140.7315  154.0431 H   0  0  0  0  0  0  0  0  0  0  0  0
  147.5699  143.3060  152.9242 H   0  0  0  0  0  0  0  0  0  0  0  0
  146.5034  141.9180  153.0147 H   0  0  0  0  0  0  0  0  0  0  0  0
  146.0070  144.7001  154.2016 H   0  0  0  0  0  0  0  0  0  0  0  0
  145.1799  144.0070  152.8315 H   0  0  0  0  0  0  0  0  0  0  0  0
  143.8063  143.8370  154.9317 H   0  0  0  0  0  0  0  0  0  0  0  0
  144.1461  142.2788  154.2236 H   0  0  0  0  0  0  0  0  0  0  0  0
  144.5213  142.0476  156.5637 H   0  0  0  0  0  0  0  0  0  0  0  0
  146.3804  144.4667  156.5483 H   0  0  0  0  0  0  0  0  0  0  0  0
  146.0155  143.4369  157.9264 H   0  0  0  0  0  0  0  0  0  0  0  0
  144.7483  144.4188  157.2060 H   0  0  0  0  0  0  0  0  0  0  0  0
  146.1297  140.8167  155.2668 H   0  0  0  0  0  0  0  0  0  0  0  0
  146.9356  141.4495  156.6796 H   0  0  0  0  0  0  0  0  0  0  0  0
  147.7351  143.2624  155.2982 H   0  0  0  0  0  0  0  0  0  0  0  0
  1  2  1  0  0  0  0
  1 22  1  0  0  0  0
  1 23  1  0  0  0  0
  1 24  1  0  0  0  0
  2  8  1  0  0  0  0
  2  3  2  0  0  0  0
  3  4  1  0  0  0  0
  4  5  1  0  0  0  0
  4  6  1  0  0  0  0
  5 25  1  0  0  0  0
  5 26  1  0  0  0  0
  5 27  1  0  0  0  0
  6  7  1  0  0  0  0
  6  8  2  0  0  0  0
  7 28  1  0  0  0  0
  7 29  1  0  0  0  0
  7 30  1  0  0  0  0
  8  9  1  0  0  0  0
  9 10  1  0  0  0  0
  9 31  1  0  0  0  0
  9 32  1  0  0  0  0
 10 11  2  0  0  0  0
 10 12  1  0  0  0  0
 12 13  1  0  0  0  0
 12 33  1  0  0  0  0
 13 14  1  0  0  0  0
 13 34  1  0  0  0  0
 13 35  1  0  0  0  0
 14 15  1  0  0  0  0
 14 36  1  0  0  0  0
 14 37  1  0  0  0  0
 15 21  1  0  0  0  0
 15 16  1  0  0  0  0
 15 50  1  0  0  0  0
 16 17  1  0  0  0  0
 16 38  1  0  0  0  0
 16 39  1  0  0  0  0
 17 18  1  0  0  0  0
 17 40  1  0  0  0  0
 17 41  1  0  0  0  0
 18 19  1  0  0  0  0
 18 42  1  0  0  0  0
 18 43  1  0  0  0  0
 19 20  1  0  0  0  0
 19 21  1  0  0  0  0
 19 44  1  0  0  0  0
 20 45  1  0  0  0  0
 20 46  1  0  0  0  0
 20 47  1  0  0  0  0
 21 48  1  0  0  0  0
 21 49  1  0  0  0  0
M  CHG  1  15   1
M  END
> <s_m_source_file>
AV-unprocessed.smi

> <i_m_source_file_index>
565

> <i_lp_mmshare_version>
43012

> <i_f3d_flags>
0

> <s_epik_input>
W0NIM11jMW5uKFtDSDNdKWMoW0NIM10pYzFbQ0gyXUMoPU8pW05IXVtDSDJdW0NIMl1OMltDSDJdW0NIMl1bQ0gyXVtDQEBIXShbQ0gzXSlbQ0gyXTI=

> <s_epik_cmdline>
J2VwaWtfcHl0aG9uJywgJy1waCcsICc3LjAnLCAnLXRuJywgJzgnLCAnLW1hJywgJzIwMCcsICctbWV0YWxfYmluZGluZycsICctaW1hZScsICc8aW5maWxlLm1hZT4nLCAnLW9tYWUnLCAnPG91dGZpbGUubWFlPic=

> <r_lp_tautomer_probability>
1

> <r_epik_Ionization_Penalty>
0.00411138

> <r_epik_Ionization_Penalty_Charging>
0.0019503

> <r_epik_Ionization_Penalty_Neutral>
0.00216107

> <r_epik_State_Penalty>
-0

> <r_epik_Charging_Adjusted_Penalty>
0.0019503

> <i_epik_Tot_Q>
1

> <i_epik_Tot_abs_Q>
1

> <r_epik_Metal_State_Penalty>
-0

> <b_epik_Metal_Only>
0

> <s_lp_Force_Field>
OPLS_2005

> <r_lp_Energy>
13.161

> <b_lp_Chiralities_Consistent>
1

> <s_lp_Variant>
AV-unprocessed.smi:565-3

> <Gold.Version>
5.8.1

> <Gold.Id.Protein>
6NUR|6NUR_protein|mol2

> <Gold.PLP.Fitness>
57.1860

> <Gold.PLP.PLP>
-49.1774

> <Gold.PLP.part.hbond>
-2.0000

> <Gold.PLP.part.metal>
0.0000

> <Gold.PLP.part.buried>
-8.0538

> <Gold.PLP.part.nonpolar>
-39.3142

> <Gold.PLP.part.repulsive>
0.3472

> <Gold.PLP.ligand.clash>
0.0000

> <Gold.PLP.ligand.torsion>
0.5130

> <Gold.PLP.Chemscore.Hbond>
2.9840

> <Gold.PLP.Chemscore.CHOScore>
0.0000

> <Gold.PLP.Chemscore.Metal>
0.0000

> <Gold.Chemscore.Hbonds>
donor molecule, donor type, donor heavy atom, donor atom, acceptor molecule, acceptor atom, score
      L1  H    12    33       P1  8028  1.00
      L1  H    15    50       P1  8028  2.00

> <Gold.PLP.Chemscore.Internal.Correction>
0.0827

> <Gold.Rescore>
     Score         DG    S(hbond)    S(metal)    S(lipo)     H(rot)  DE(clash)    DE(int)     intcor
     18.87     -19.49       1.43        0.00     114.10       1.61       0.11       0.51       ----

> <Gold.Chemscore.Fitness>
18.8672

> <Gold.Chemscore.DG>
-19.4894

> <Gold.Chemscore.ZeroCoef>
-5.4800

> <Gold.Chemscore.Hbond>
1.4348

> <Gold.Chemscore.Metal>
0.0000

> <Gold.Chemscore.Lipo>
114.0999

> <Gold.Chemscore.Internal_Hbond>
0.0000

> <Gold.Chemscore.DEClash>
0.1104

> <Gold.Chemscore.DEInternal>
0.5118

> <Gold.Chemscore.Rot>
1.6142

> <Gold.Chemscore.Internal.Correction>
   9.000000E+99

> <Gold.Chemscore.Hbonds>
donor molecule, donor type, donor heavy atom, donor atom, acceptor molecule, acceptor atom, score
      L1  H    12    33       P1  8028  0.96
      L1  H    15    50       P1  8028  0.39

> <Gold.Chemscore.Hbond.Weighted>
-4.7922

> <Gold.Chemscore.Metal.Weighted>
-0.0000

> <Gold.Chemscore.Lipo.Weighted>
-13.3497

> <Gold.Chemscore.Internal_Hbond.Weighted>
0.0000

> <Gold.Chemscore.DEClash.Weighted>
0.1104

> <Gold.Chemscore.DEInternal.Weighted>
0.5118

> <Gold.Chemscore.Rot.Weighted>
4.1324

> <Gold.Chemscore.Internal.Correction.Weighted>
   9.000000E+99

> <Gold.Protein.RotatedTorsions>
[ 6907 6896 6895 6894 ] final   56.16 input  -60.11 | X-H torsion
[ 7974 7965 7964 7962 ] final   11.83 input  175.53 | X-H torsion
[ 8008 7997 7996 7995 ] final  -54.25 input   59.86 | X-H torsion
[ 10167 10162 10161 10158 ] final -120.15 input  -65.29 | X-H torsion
[ 10718 10713 10712 10709 ] final   27.79 input   66.30 | X-H torsion
[ 10763 10752 10751 10750 ] final -114.93 input  -60.55 | X-H torsion
[ 11005 11000 10999 10996 ] final    3.86 input  -57.11 | X-H torsion

> <Gold.Protein.ActiveResidues>
 VAL166  LYS551  ARG553  GLY616  TRP617  ASP618  TYR619  PRO620  LYS621  CYS622 
 ASP623  PHE694  ASN695  SER759  ASP760  ASP761  ALA762  ILE779  LEU786  VAL792 
 PHE793  MET794  SER795  GLU796  ALA797  LYS798  CYS799  TRP800  GLU811  SER814 

> <Gold.Protein.RotatedAtoms>
  152.3609  134.6873  160.0207 H   0  0  0  0  0  0  0  0  0  0  0  0  # atno 6907 bound_to 6896
  151.7197  133.3309  159.3320 H   0  0  0  0  0  0  0  0  0  0  0  0  # atno 6908 bound_to 6896
  150.7604  134.6393  159.6273 H   0  0  0  0  0  0  0  0  0  0  0  0  # atno 6909 bound_to 6896
  146.2363  139.9428  142.8481 H   0  0  0  0  0  0  0  0  0  0  0  0  # atno 7974 bound_to 7965
  154.4157  140.1181  156.5285 H   0  0  0  0  0  0  0  0  0  0  0  0  # atno 8008 bound_to 7997
  155.6630  140.3496  155.4770 H   0  0  0  0  0  0  0  0  0  0  0  0  # atno 8009 bound_to 7997
  155.9697  140.1139  157.0813 H   0  0  0  0  0  0  0  0  0  0  0  0  # atno 8010 bound_to 7997
  140.0389  143.5173  152.2140 H   0  0  0  0  0  0  0  0  0  0  0  0  # atno 10167 bound_to 10162
  157.2249  130.6996  149.6287 H   0  0  0  0  0  0  0  0  0  0  0  0  # atno 10718 bound_to 10713
  154.8461  135.4400  154.1584 H   0  0  0  0  0  0  0  0  0  0  0  0  # atno 10763 bound_to 10752
  153.2727  135.6946  153.7470 H   0  0  0  0  0  0  0  0  0  0  0  0  # atno 10764 bound_to 10752
  153.6705  135.3419  155.3127 H   0  0  0  0  0  0  0  0  0  0  0  0  # atno 10765 bound_to 10752
  140.5884  133.9947  155.8078 H   0  0  0  0  0  0  0  0  0  0  0  0  # atno 11005 bound_to 11000
  145.1936  140.9823  143.4196 LP  0  0  0  0  0  0  0  0  0  0  0  0  # atno 17320 bound_to 7965
  144.9835  139.3760  143.6250 LP  0  0  0  0  0  0  0  0  0  0  0  0  # atno 17321 bound_to 7965
  139.6026  144.7587  151.3135 LP  0  0  0  0  0  0  0  0  0  0  0  0  # atno 17342 bound_to 10162
  140.7269  143.6978  150.7869 LP  0  0  0  0  0  0  0  0  0  0  0  0  # atno 17343 bound_to 10162
  155.9679  130.4508  150.5710 LP  0  0  0  0  0  0  0  0  0  0  0  0  # atno 17370 bound_to 10713
  157.3538  131.0738  151.1692 LP  0  0  0  0  0  0  0  0  0  0  0  0  # atno 17371 bound_to 10713
  141.0951  133.9856  157.3173 LP  0  0  0  0  0  0  0  0  0  0  0  0  # atno 17394 bound_to 11000
  139.9285  135.0201  156.8319 LP  0  0  0  0  0  0  0  0  0  0  0  0  # atno 17395 bound_to 11000

$$$$
