AV-unprocessed.smi:765|AV-procd|sdf|3643|dock9
  -GOLD-   22720 1 43D 1   1.00000     0.00000
 Structure written by MMmdl.
 39 40  0  0  0  0  0  0  0  0  1 V2000
  145.4917  143.5352  153.4983 C   0  0  0  0  0  0  0  0  0  0  0  0
  146.3620  142.5877  154.3359 C   0  0  2  0  0  0  0  0  0  0  0  0
  146.1020  141.1155  153.9690 C   0  0  0  0  0  0  0  0  0  0  0  0
  146.9552  140.1625  154.8180 C   0  0  0  0  0  0  0  0  0  0  0  0
  146.7217  140.4026  156.3188 C   0  0  0  0  0  0  0  0  0  0  0  0
  146.9907  141.8702  156.7345 C   0  0  1  0  0  0  0  0  0  0  0  0
  146.5887  142.0712  158.1399 C   0  0  0  0  0  0  0  0  0  0  0  0
  146.2743  142.2279  159.2425 N   0  0  0  0  0  0  0  0  0  0  0  0
  148.4037  142.2183  156.5534 N   0  0  0  0  0  0  0  0  0  0  0  0
  149.4581  141.7105  157.2137 C   0  0  0  0  0  0  0  0  0  0  0  0
  149.3586  140.8476  158.0862 O   0  0  0  0  0  0  0  0  0  0  0  0
  150.8310  142.2746  156.8179 C   0  0  2  0  0  0  0  0  0  0  0  0
  151.8872  141.1786  156.5824 C   0  0  0  0  0  0  0  0  0  0  0  0
  151.2848  143.2371  157.8134 N   0  0  0  0  0  0  0  0  0  0  0  0
  151.2846  144.6172  157.7471 C   0  0  0  0  0  0  0  0  0  0  0  0
  151.8186  145.0826  158.9143 C   0  0  0  0  0  0  0  0  0  0  0  0
  152.1234  143.8986  159.6419 C   0  0  0  0  0  0  0  0  0  0  0  0
  151.8054  142.7974  158.9808 N   0  0  0  0  0  0  0  0  0  0  0  0
  146.1437  142.8122  155.8480 C   0  0  0  0  0  0  0  0  0  0  0  0
  144.4301  143.3645  153.6799 H   0  0  0  0  0  0  0  0  0  0  0  0
  145.6736  143.3958  152.4322 H   0  0  0  0  0  0  0  0  0  0  0  0
  145.7068  144.5777  153.7346 H   0  0  0  0  0  0  0  0  0  0  0  0
  147.4026  142.8140  154.1006 H   0  0  0  0  0  0  0  0  0  0  0  0
  145.0465  140.8800  154.1121 H   0  0  0  0  0  0  0  0  0  0  0  0
  146.3136  140.9510  152.9119 H   0  0  0  0  0  0  0  0  0  0  0  0
  146.7148  139.1289  154.5672 H   0  0  0  0  0  0  0  0  0  0  0  0
  148.0103  140.2986  154.5783 H   0  0  0  0  0  0  0  0  0  0  0  0
  145.6879  140.1482  156.5570 H   0  0  0  0  0  0  0  0  0  0  0  0
  147.3339  139.7139  156.9014 H   0  0  0  0  0  0  0  0  0  0  0  0
  148.5974  142.9268  155.8602 H   0  0  0  0  0  0  0  0  0  0  0  0
  150.6974  142.8030  155.8717 H   0  0  0  0  0  0  0  0  0  0  0  0
  151.5577  140.4695  155.8219 H   0  0  0  0  0  0  0  0  0  0  0  0
  152.0993  140.6154  157.4921 H   0  0  0  0  0  0  0  0  0  0  0  0
  152.8259  141.6132  156.2380 H   0  0  0  0  0  0  0  0  0  0  0  0
  150.9102  145.1462  156.8827 H   0  0  0  0  0  0  0  0  0  0  0  0
  151.9703  146.1120  159.2034 H   0  0  0  0  0  0  0  0  0  0  0  0
  152.5648  143.8073  160.6235 H   0  0  0  0  0  0  0  0  0  0  0  0
  146.3612  143.8509  156.1024 H   0  0  0  0  0  0  0  0  0  0  0  0
  145.0874  142.6640  156.0791 H   0  0  0  0  0  0  0  0  0  0  0  0
  1  2  1  0  0  0  0
  1 20  1  0  0  0  0
  1 21  1  0  0  0  0
  1 22  1  0  0  0  0
  2 19  1  0  0  0  0
  2  3  1  0  0  0  0
  2 23  1  0  0  0  0
  3  4  1  0  0  0  0
  3 24  1  0  0  0  0
  3 25  1  0  0  0  0
  4  5  1  0  0  0  0
  4 26  1  0  0  0  0
  4 27  1  0  0  0  0
  5  6  1  0  0  0  0
  5 28  1  0  0  0  0
  5 29  1  0  0  0  0
  6  7  1  0  0  0  0
  6  9  1  0  0  0  0
  6 19  1  0  0  0  0
  7  8  3  0  0  0  0
  9 10  1  0  0  0  0
  9 30  1  0  0  0  0
 10 11  2  0  0  0  0
 10 12  1  0  0  0  0
 12 13  1  0  0  0  0
 12 14  1  0  0  0  0
 12 31  1  0  0  0  0
 13 32  1  0  0  0  0
 13 33  1  0  0  0  0
 13 34  1  0  0  0  0
 14 18  1  0  0  0  0
 14 15  1  0  0  0  0
 15 16  2  0  0  0  0
 15 35  1  0  0  0  0
 16 17  1  0  0  0  0
 16 36  1  0  0  0  0
 17 18  2  0  0  0  0
 17 37  1  0  0  0  0
 19 38  1  0  0  0  0
 19 39  1  0  0  0  0
M  END
> <s_m_source_file>
AV-unprocessed.smi

> <i_m_source_file_index>
765

> <i_lp_mmshare_version>
43012

> <i_f3d_flags>
0

> <s_epik_input>
W0NIM11bQ0BASF0oW0NIMl0xKVtDSDJdW0NIMl1bQ0gyXVtDQEBdMShDI04pW05IXUMoPU8pW0NASF0oW0NIM10pbjJbY0hdW2NIXVtjSF1uMg==

> <s_epik_cmdline>
J2VwaWtfcHl0aG9uJywgJy1waCcsICc3LjAnLCAnLXRuJywgJzgnLCAnLW1hJywgJzIwMCcsICctbWV0YWxfYmluZGluZycsICctaW1hZScsICc8aW5maWxlLm1hZT4nLCAnLW9tYWUnLCAnPG91dGZpbGUubWFlPic=

> <r_lp_tautomer_probability>
1

> <r_epik_Ionization_Penalty>
2.71142e-05

> <r_epik_Ionization_Penalty_Charging>
0

> <r_epik_Ionization_Penalty_Neutral>
2.71142e-05

> <r_epik_State_Penalty>
-0

> <r_epik_Charging_Adjusted_Penalty>
0

> <i_epik_Tot_Q>
0

> <i_epik_Tot_abs_Q>
0

> <r_epik_Metal_State_Penalty>
-0

> <b_epik_Metal_Only>
0

> <s_lp_Force_Field>
OPLS_2005

> <r_lp_Energy>
11.1831

> <b_lp_Chiralities_Consistent>
1

> <s_lp_Variant>
AV-unprocessed.smi:765-1

> <Gold.Version>
5.8.1

> <Gold.Id.Protein>
6NUR|6NUR_protein|mol2

> <Gold.PLP.Fitness>
39.8879

> <Gold.PLP.PLP>
-32.6183

> <Gold.PLP.part.hbond>
-2.0000

> <Gold.PLP.part.metal>
0.0000

> <Gold.PLP.part.buried>
-3.6488

> <Gold.PLP.part.nonpolar>
-28.0298

> <Gold.PLP.part.repulsive>
0.0328

> <Gold.PLP.ligand.clash>
0.0000

> <Gold.PLP.ligand.torsion>
0.7756

> <Gold.PLP.Chemscore.Hbond>
1.9193

> <Gold.PLP.Chemscore.CHOScore>
0.9986

> <Gold.PLP.Chemscore.Metal>
0.0000

> <Gold.Chemscore.Hbonds>
donor molecule, donor type, donor heavy atom, donor atom, acceptor molecule, acceptor atom, score
      L1  H     9    30       P1  8028  0.85
      P1  H  6934  6946       L1     8  0.81
      L1  C    15    35       P1  8028  0.98

> <Gold.PLP.Chemscore.Internal.Correction>
0.0673

> <Gold.Rescore>
     Score         DG    S(hbond)    S(metal)    S(lipo)     H(rot)  DE(clash)    DE(int)     intcor
     16.15     -17.39       1.91        0.00      78.17       1.42       0.62       0.61       ----

> <Gold.Chemscore.Fitness>
16.1549

> <Gold.Chemscore.DG>
-17.3903

> <Gold.Chemscore.ZeroCoef>
-5.4800

> <Gold.Chemscore.Hbond>
1.9148

> <Gold.Chemscore.Metal>
0.0000

> <Gold.Chemscore.Lipo>
78.1680

> <Gold.Chemscore.Internal_Hbond>
0.0000

> <Gold.Chemscore.DEClash>
0.6224

> <Gold.Chemscore.DEInternal>
0.6131

> <Gold.Chemscore.Rot>
1.4183

> <Gold.Chemscore.Internal.Correction>
   9.000000E+99

> <Gold.Chemscore.Hbonds>
donor molecule, donor type, donor heavy atom, donor atom, acceptor molecule, acceptor atom, score
      L1  H     9    30       P1  8028  0.84
      P1  H  6934  6946       L1     8  0.76

> <Gold.Chemscore.Hbond.Weighted>
-6.3956

> <Gold.Chemscore.Metal.Weighted>
-0.0000

> <Gold.Chemscore.Lipo.Weighted>
-9.1457

> <Gold.Chemscore.Internal_Hbond.Weighted>
0.0000

> <Gold.Chemscore.DEClash.Weighted>
0.6224

> <Gold.Chemscore.DEInternal.Weighted>
0.6131

> <Gold.Chemscore.Rot.Weighted>
3.6309

> <Gold.Chemscore.Internal.Correction.Weighted>
   9.000000E+99

> <Gold.Protein.RotatedTorsions>
[ 6907 6896 6895 6894 ] final -143.73 input  -60.11 | X-H torsion
[ 7974 7965 7964 7962 ] final -149.82 input  175.53 | X-H torsion
[ 8008 7997 7996 7995 ] final  -81.95 input   59.86 | X-H torsion
[ 10167 10162 10161 10158 ] final   -6.78 input  -65.29 | X-H torsion
[ 10718 10713 10712 10709 ] final  114.66 input   66.30 | X-H torsion
[ 10763 10752 10751 10750 ] final   42.81 input  -60.55 | X-H torsion
[ 11005 11000 10999 10996 ] final    2.39 input  -57.11 | X-H torsion

> <Gold.Protein.ActiveResidues>
 VAL166  LYS551  ARG553  GLY616  TRP617  ASP618  TYR619  PRO620  LYS621  CYS622 
 ASP623  PHE694  ASN695  SER759  ASP760  ASP761  ALA762  ILE779  LEU786  VAL792 
 PHE793  MET794  SER795  GLU796  ALA797  LYS798  CYS799  TRP800  GLU811  SER814 

> <Gold.Protein.RotatedAtoms>
  151.1044  133.5219  159.2608 H   0  0  0  0  0  0  0  0  0  0  0  0  # atno 6907 bound_to 6896
  151.2037  135.0453  159.8893 H   0  0  0  0  0  0  0  0  0  0  0  0  # atno 6908 bound_to 6896
  152.5445  134.0869  159.8313 H   0  0  0  0  0  0  0  0  0  0  0  0  # atno 6909 bound_to 6896
  144.7944  140.5013  143.5750 H   0  0  0  0  0  0  0  0  0  0  0  0  # atno 7974 bound_to 7965
  154.6035  140.0640  156.9400 H   0  0  0  0  0  0  0  0  0  0  0  0  # atno 8008 bound_to 7997
  155.2092  140.3321  155.4313 H   0  0  0  0  0  0  0  0  0  0  0  0  # atno 8009 bound_to 7997
  156.2333  140.1851  156.7169 H   0  0  0  0  0  0  0  0  0  0  0  0  # atno 8010 bound_to 7997
  140.7008  143.6155  150.8662 H   0  0  0  0  0  0  0  0  0  0  0  0  # atno 10167 bound_to 10162
  157.6268  131.1001  150.7217 H   0  0  0  0  0  0  0  0  0  0  0  0  # atno 10718 bound_to 10713
  152.9874  135.6120  154.3010 H   0  0  0  0  0  0  0  0  0  0  0  0  # atno 10763 bound_to 10752
  154.2731  135.2779  155.2731 H   0  0  0  0  0  0  0  0  0  0  0  0  # atno 10764 bound_to 10752
  154.5105  135.5842  153.6658 H   0  0  0  0  0  0  0  0  0  0  0  0  # atno 10765 bound_to 10752
  140.6048  133.9802  155.8149 H   0  0  0  0  0  0  0  0  0  0  0  0  # atno 11005 bound_to 11000
  145.5711  139.1483  143.3288 LP  0  0  0  0  0  0  0  0  0  0  0  0  # atno 17320 bound_to 7965
  146.2207  140.5844  142.9018 LP  0  0  0  0  0  0  0  0  0  0  0  0  # atno 17321 bound_to 7965
  139.9877  143.5881  152.2921 LP  0  0  0  0  0  0  0  0  0  0  0  0  # atno 17342 bound_to 10162
  139.6525  144.7661  151.2120 LP  0  0  0  0  0  0  0  0  0  0  0  0  # atno 17343 bound_to 10162
  156.7564  130.4785  149.5446 LP  0  0  0  0  0  0  0  0  0  0  0  0  # atno 17370 bound_to 10713
  156.1446  130.6268  151.0513 LP  0  0  0  0  0  0  0  0  0  0  0  0  # atno 17371 bound_to 10713
  141.0848  134.0008  157.3331 LP  0  0  0  0  0  0  0  0  0  0  0  0  # atno 17394 bound_to 11000
  139.9217  135.0200  156.8087 LP  0  0  0  0  0  0  0  0  0  0  0  0  # atno 17395 bound_to 11000

$$$$
