AV-unprocessed.smi:925|AV-procd|sdf|4181|dock2
  -GOLD-   22720 2 83D 1   1.00000     0.00000
 Structure written by MMmdl.
 29 30  0  0  0  0  0  0  0  0  1 V2000
  153.2070  139.9723  158.3134 O   0  0  0  0  0  0  0  0  0  0  0  0
  152.2733  140.6827  157.9392 C   0  0  0  0  0  0  0  0  0  0  0  0
  151.4455  140.4047  156.9165 N   0  0  0  0  0  0  0  0  0  0  0  0
  151.4524  139.2708  156.0615 C   0  0  0  0  0  0  0  0  0  0  0  0
  152.1345  138.1446  156.3230 N   0  0  0  0  0  0  0  0  0  0  0  0
  151.9693  137.1931  155.3247 N   0  0  0  0  0  0  0  0  0  0  0  0
  151.1701  137.6384  154.3510 C   0  0  0  0  0  0  0  0  0  0  0  0
  150.5409  139.2637  154.5583 S   0  0  0  0  0  0  0  0  0  0  0  0
  151.9548  141.8505  158.5169 N   0  0  0  0  0  0  0  0  0  0  0  0
  152.6544  142.4485  159.6504 C   0  0  0  0  0  0  0  0  0  0  0  0
  153.0328  141.3711  160.6883 C   0  0  0  0  0  0  0  0  0  0  0  0
  153.7034  141.9923  161.9243 C   0  0  0  0  0  0  0  0  0  0  0  0
  152.8178  143.0789  162.5543 C   0  0  0  0  0  0  0  0  0  0  0  0
  152.4434  144.1557  161.5239 C   0  0  0  0  0  0  0  0  0  0  0  0
  151.7690  143.5350  160.2896 C   0  0  0  0  0  0  0  0  0  0  0  0
  150.7250  141.0853  156.7262 H   0  0  0  0  0  0  0  0  0  0  0  0
  150.9493  137.0050  153.5047 H   0  0  0  0  0  0  0  0  0  0  0  0
  151.1719  142.3675  158.1445 H   0  0  0  0  0  0  0  0  0  0  0  0
  153.5675  142.9270  159.2907 H   0  0  0  0  0  0  0  0  0  0  0  0
  152.1400  140.8257  160.9979 H   0  0  0  0  0  0  0  0  0  0  0  0
  153.7037  140.6359  160.2420 H   0  0  0  0  0  0  0  0  0  0  0  0
  153.9191  141.2162  162.6593 H   0  0  0  0  0  0  0  0  0  0  0  0
  154.6637  142.4238  161.6393 H   0  0  0  0  0  0  0  0  0  0  0  0
  151.9107  142.6245  162.9547 H   0  0  0  0  0  0  0  0  0  0  0  0
  153.3342  143.5359  163.3991 H   0  0  0  0  0  0  0  0  0  0  0  0
  151.7801  144.8913  161.9795 H   0  0  0  0  0  0  0  0  0  0  0  0
  153.3402  144.6957  161.2175 H   0  0  0  0  0  0  0  0  0  0  0  0
  151.5498  144.3163  159.5607 H   0  0  0  0  0  0  0  0  0  0  0  0
  150.8090  143.1062  160.5814 H   0  0  0  0  0  0  0  0  0  0  0  0
  1  2  2  0  0  0  0
  2  3  1  0  0  0  0
  2  9  1  0  0  0  0
  3  4  1  0  0  0  0
  3 16  1  0  0  0  0
  4  8  1  0  0  0  0
  4  5  2  0  0  0  0
  5  6  1  0  0  0  0
  6  7  2  0  0  0  0
  7  8  1  0  0  0  0
  7 17  1  0  0  0  0
  9 10  1  0  0  0  0
  9 18  1  0  0  0  0
 10 15  1  0  0  0  0
 10 11  1  0  0  0  0
 10 19  1  0  0  0  0
 11 12  1  0  0  0  0
 11 20  1  0  0  0  0
 11 21  1  0  0  0  0
 12 13  1  0  0  0  0
 12 22  1  0  0  0  0
 12 23  1  0  0  0  0
 13 14  1  0  0  0  0
 13 24  1  0  0  0  0
 13 25  1  0  0  0  0
 14 15  1  0  0  0  0
 14 26  1  0  0  0  0
 14 27  1  0  0  0  0
 15 28  1  0  0  0  0
 15 29  1  0  0  0  0
M  END
> <s_m_source_file>
AV-unprocessed.smi

> <i_m_source_file_index>
925

> <i_lp_mmshare_version>
43012

> <i_f3d_flags>
0

> <s_epik_input>
czFbY0hdbm5jMVtOSF1DKD1PKVtOSF1bQ0hdMltDSDJdW0NIMl1bQ0gyXVtDSDJdW0NIMl0y

> <s_epik_cmdline>
J2VwaWtfcHl0aG9uJywgJy1waCcsICc3LjAnLCAnLXRuJywgJzgnLCAnLW1hJywgJzIwMCcsICctbWV0YWxfYmluZGluZycsICctaW1hZScsICc8aW5maWxlLm1hZT4nLCAnLW9tYWUnLCAnPG91dGZpbGUubWFlPic=

> <r_lp_tautomer_probability>
1

> <r_epik_Ionization_Penalty>
0.000322846

> <r_epik_Ionization_Penalty_Charging>
0

> <r_epik_Ionization_Penalty_Neutral>
0.000322846

> <r_epik_State_Penalty>
-0

> <r_epik_Charging_Adjusted_Penalty>
0

> <i_epik_Tot_Q>
0

> <i_epik_Tot_abs_Q>
0

> <r_epik_Metal_State_Penalty>
0.17121

> <b_epik_Metal_Only>
0

> <s_lp_Force_Field>
OPLS_2005

> <r_lp_Energy>
7.89547

> <b_lp_Chiralities_Consistent>
1

> <s_lp_Variant>
AV-unprocessed.smi:925-1

> <Gold.Version>
5.8.1

> <Gold.Id.Protein>
6NUR|6NUR_protein|mol2

> <Gold.PLP.Fitness>
41.4264

> <Gold.PLP.PLP>
-32.9223

> <Gold.PLP.part.hbond>
-2.0000

> <Gold.PLP.part.metal>
0.0000

> <Gold.PLP.part.buried>
-3.0976

> <Gold.PLP.part.nonpolar>
-27.8860

> <Gold.PLP.part.repulsive>
0.2415

> <Gold.PLP.ligand.clash>
0.0000

> <Gold.PLP.ligand.torsion>
0.2982

> <Gold.PLP.Chemscore.Hbond>
1.9440

> <Gold.PLP.Chemscore.CHOScore>
1.0884

> <Gold.PLP.Chemscore.Metal>
0.0000

> <Gold.Chemscore.Hbonds>
donor molecule, donor type, donor heavy atom, donor atom, acceptor molecule, acceptor atom, score
      P1  H  7997  8010       L1     1  1.00
      P1  H 10752 10763       L1     6  0.94
      L1  C     7    17       P1  7948  0.10
      L1  C     7    17       P1  7949  0.99

> <Gold.PLP.Chemscore.Internal.Correction>
0.0032

> <Gold.Rescore>
     Score         DG    S(hbond)    S(metal)    S(lipo)     H(rot)  DE(clash)    DE(int)     intcor
     15.81     -18.78       1.85        0.00      82.64       1.00       0.03       2.93       ----

> <Gold.Chemscore.Fitness>
15.8139

> <Gold.Chemscore.DG>
-18.7799

> <Gold.Chemscore.ZeroCoef>
-5.4800

> <Gold.Chemscore.Hbond>
1.8538

> <Gold.Chemscore.Metal>
0.0000

> <Gold.Chemscore.Lipo>
82.6352

> <Gold.Chemscore.Internal_Hbond>
0.0000

> <Gold.Chemscore.DEClash>
0.0324

> <Gold.Chemscore.DEInternal>
2.9336

> <Gold.Chemscore.Rot>
1.0000

> <Gold.Chemscore.Internal.Correction>
   9.000000E+99

> <Gold.Chemscore.Hbonds>
donor molecule, donor type, donor heavy atom, donor atom, acceptor molecule, acceptor atom, score
      P1  H  7997  8010       L1     1  0.76
      P1  H 10752 10763       L1     6  0.62

> <Gold.Chemscore.Hbond.Weighted>
-6.1916

> <Gold.Chemscore.Metal.Weighted>
-0.0000

> <Gold.Chemscore.Lipo.Weighted>
-9.6683

> <Gold.Chemscore.Internal_Hbond.Weighted>
0.0000

> <Gold.Chemscore.DEClash.Weighted>
0.0324

> <Gold.Chemscore.DEInternal.Weighted>
2.9336

> <Gold.Chemscore.Rot.Weighted>
2.5600

> <Gold.Chemscore.Internal.Correction.Weighted>
   9.000000E+99

> <Gold.Protein.RotatedTorsions>
[ 6907 6896 6895 6894 ] final -129.48 input  -60.11 | X-H torsion
[ 7974 7965 7964 7962 ] final  -23.32 input  175.53 | X-H torsion
[ 8008 7997 7996 7995 ] final   29.34 input   59.86 | X-H torsion
[ 10167 10162 10161 10158 ] final   78.51 input  -65.29 | X-H torsion
[ 10718 10713 10712 10709 ] final   71.14 input   66.30 | X-H torsion
[ 10763 10752 10751 10750 ] final   64.27 input  -60.55 | X-H torsion
[ 11005 11000 10999 10996 ] final -116.18 input  -57.11 | X-H torsion

> <Gold.Protein.ActiveResidues>
 VAL166  LYS551  ARG553  GLY616  TRP617  ASP618  TYR619  PRO620  LYS621  CYS622 
 ASP623  PHE694  ASN695  SER759  ASP760  ASP761  ALA762  ILE779  LEU786  VAL792 
 PHE793  MET794  SER795  GLU796  ALA797  LYS798  CYS799  TRP800  GLU811  SER814 

> <Gold.Protein.RotatedAtoms>
  150.9291  133.6788  159.2814 H   0  0  0  0  0  0  0  0  0  0  0  0  # atno 6907 bound_to 6896
  151.4216  135.0997  159.9625 H   0  0  0  0  0  0  0  0  0  0  0  0  # atno 6908 bound_to 6896
  152.5017  133.8742  159.7368 H   0  0  0  0  0  0  0  0  0  0  0  0  # atno 6909 bound_to 6896
  146.1623  140.4600  142.8566 H   0  0  0  0  0  0  0  0  0  0  0  0  # atno 7974 bound_to 7965
  155.0730  140.3202  155.4624 H   0  0  0  0  0  0  0  0  0  0  0  0  # atno 8008 bound_to 7997
  156.2786  140.2108  156.5803 H   0  0  0  0  0  0  0  0  0  0  0  0  # atno 8009 bound_to 7997
  154.7039  140.0504  157.0472 H   0  0  0  0  0  0  0  0  0  0  0  0  # atno 8010 bound_to 7997
  139.9702  144.5900  150.7992 H   0  0  0  0  0  0  0  0  0  0  0  0  # atno 10167 bound_to 10162
  157.6437  130.9513  150.0749 H   0  0  0  0  0  0  0  0  0  0  0  0  # atno 10718 bound_to 10713
  153.0049  135.5399  154.6483 H   0  0  0  0  0  0  0  0  0  0  0  0  # atno 10763 bound_to 10752
  154.5722  135.2842  155.0818 H   0  0  0  0  0  0  0  0  0  0  0  0  # atno 10764 bound_to 10752
  154.1980  135.6489  153.5131 H   0  0  0  0  0  0  0  0  0  0  0  0  # atno 10765 bound_to 10752
  141.0439  133.9793  157.2950 H   0  0  0  0  0  0  0  0  0  0  0  0  # atno 11005 bound_to 11000
  144.8044  140.6272  143.6457 LP  0  0  0  0  0  0  0  0  0  0  0  0  # atno 17320 bound_to 7965
  145.4557  139.1518  143.3894 LP  0  0  0  0  0  0  0  0  0  0  0  0  # atno 17321 bound_to 7965
  140.7524  143.2990  151.3129 LP  0  0  0  0  0  0  0  0  0  0  0  0  # atno 17342 bound_to 10162
  139.6487  144.0403  152.2610 LP  0  0  0  0  0  0  0  0  0  0  0  0  # atno 17343 bound_to 10162
  156.1742  130.3647  149.9123 LP  0  0  0  0  0  0  0  0  0  0  0  0  # atno 17370 bound_to 10713
  156.7091  130.8963  151.3607 LP  0  0  0  0  0  0  0  0  0  0  0  0  # atno 17371 bound_to 10713
  139.9296  135.0200  156.8356 LP  0  0  0  0  0  0  0  0  0  0  0  0  # atno 17394 bound_to 11000
  140.6184  134.0017  155.7607 LP  0  0  0  0  0  0  0  0  0  0  0  0  # atno 17395 bound_to 11000

$$$$
