AV-unprocessed.smi:1582|AV-procd|sdf|6362|dock9
  -GOLD-   22720 6583D 1   1.00000     0.00000
 Structure written by MMmdl.
 41 42  0  0  0  0  0  0  0  0  2 V2000
  144.6679  137.5682  152.9240 O   0  0  0  0  0  0  0  0  0  0  0  0
  145.8110  137.3235  152.5396 C   0  0  0  0  0  0  0  0  0  0  0  0
  146.8501  138.1470  152.7371 N   0  0  0  0  0  0  0  0  0  0  0  0
  146.7954  139.4121  153.4637 C   0  0  0  0  0  0  0  0  0  0  0  0
  148.1243  139.7683  154.1630 C   0  0  1  0  0  0  0  0  0  0  0  0
  149.1665  139.1342  153.4490 O   0  0  0  0  0  0  0  0  0  0  0  0
  148.4065  141.2859  154.2053 C   0  0  0  0  0  0  0  0  0  0  0  0
  149.0411  141.7115  155.4795 N   0  3  0  0  0  0  0  0  0  0  0  0
  148.3008  141.2159  156.6692 C   0  0  0  0  0  0  0  0  0  0  0  0
  148.8894  141.7869  157.9703 C   0  0  0  0  0  0  0  0  0  0  0  0
  150.3849  141.4657  158.0862 C   0  0  0  0  0  0  0  0  0  0  0  0
  151.1235  141.9561  156.8343 C   0  0  0  0  0  0  0  0  0  0  0  0
  150.4894  141.3776  155.5578 C   0  0  0  0  0  0  0  0  0  0  0  0
  146.1843  136.2178  151.8755 N   0  0  0  0  0  0  0  0  0  0  0  0
  145.3662  135.1198  151.5095 C   0  0  0  0  0  0  0  0  0  0  0  0
  145.6785  133.7285  151.4889 C   0  0  0  0  0  0  0  0  0  0  0  0
  144.6408  133.0102  151.0835 N   0  0  0  0  0  0  0  0  0  0  0  0
  143.6736  133.9248  150.8460 N   0  0  0  0  0  0  0  0  0  0  0  0
  144.0725  135.2200  151.0928 C   0  0  0  0  0  0  0  0  0  0  0  0
  142.7573  133.6517  150.5195 H   0  0  0  0  0  0  0  0  0  0  0  0
  147.7537  137.8614  152.3888 H   0  0  0  0  0  0  0  0  0  0  0  0
  146.5046  140.2076  152.7751 H   0  0  0  0  0  0  0  0  0  0  0  0
  145.9948  139.3361  154.2004 H   0  0  0  0  0  0  0  0  0  0  0  0
  148.1146  139.3522  155.1695 H   0  0  0  0  0  0  0  0  0  0  0  0
  149.4025  139.6750  152.7104 H   0  0  0  0  0  0  0  0  0  0  0  0
  149.0548  141.5379  153.3646 H   0  0  0  0  0  0  0  0  0  0  0  0
  147.4903  141.8602  154.0615 H   0  0  0  0  0  0  0  0  0  0  0  0
  147.2517  141.5054  156.5976 H   0  0  0  0  0  0  0  0  0  0  0  0
  148.3290  140.1250  156.6880 H   0  0  0  0  0  0  0  0  0  0  0  0
  148.7437  142.8677  157.9944 H   0  0  0  0  0  0  0  0  0  0  0  0
  148.3542  141.3834  158.8304 H   0  0  0  0  0  0  0  0  0  0  0  0
  150.8034  141.9316  158.9787 H   0  0  0  0  0  0  0  0  0  0  0  0
  150.5243  140.3896  158.2000 H   0  0  0  0  0  0  0  0  0  0  0  0
  151.0962  143.0460  156.7953 H   0  0  0  0  0  0  0  0  0  0  0  0
  152.1758  141.6751  156.8887 H   0  0  0  0  0  0  0  0  0  0  0  0
  150.6165  140.2941  155.5358 H   0  0  0  0  0  0  0  0  0  0  0  0
  151.0203  141.7726  154.6925 H   0  0  0  0  0  0  0  0  0  0  0  0
  147.1585  136.1444  151.6214 H   0  0  0  0  0  0  0  0  0  0  0  0
  146.5953  133.2193  151.7461 H   0  0  0  0  0  0  0  0  0  0  0  0
  143.4206  136.0698  150.9529 H   0  0  0  0  0  0  0  0  0  0  0  0
  148.9696  142.7192  155.5049 H   0  0  0  0  0  0  0  0  0  0  0  0
  1  2  2  0  0  0  0
  2  3  1  0  0  0  0
  2 14  1  0  0  0  0
  3  4  1  0  0  0  0
  3 21  1  0  0  0  0
  4  5  1  0  0  0  0
  4 22  1  0  0  0  0
  4 23  1  0  0  0  0
  5  6  1  0  0  0  0
  5  7  1  0  0  0  0
  5 24  1  0  0  0  0
  6 25  1  0  0  0  0
  7  8  1  0  0  0  0
  7 26  1  0  0  0  0
  7 27  1  0  0  0  0
  8 13  1  0  0  0  0
  8  9  1  0  0  0  0
  8 41  1  0  0  0  0
  9 10  1  0  0  0  0
  9 28  1  0  0  0  0
  9 29  1  0  0  0  0
 10 11  1  0  0  0  0
 10 30  1  0  0  0  0
 10 31  1  0  0  0  0
 11 12  1  0  0  0  0
 11 32  1  0  0  0  0
 11 33  1  0  0  0  0
 12 13  1  0  0  0  0
 12 34  1  0  0  0  0
 12 35  1  0  0  0  0
 13 36  1  0  0  0  0
 13 37  1  0  0  0  0
 14 15  1  0  0  0  0
 14 38  1  0  0  0  0
 15 19  2  0  0  0  0
 15 16  1  0  0  0  0
 16 17  2  0  0  0  0
 16 39  1  0  0  0  0
 17 18  1  0  0  0  0
 18 20  1  0  0  0  0
 18 19  1  0  0  0  0
 19 40  1  0  0  0  0
M  CHG  1   8   1
M  END
> <s_m_source_file>
AV-unprocessed.smi

> <i_m_source_file_index>
1582

> <i_lp_mmshare_version>
43012

> <i_f3d_flags>
0

> <s_epik_input>
W2NIXTFbbkhdbltjSF1jMVtOSF1DKD1PKVtOSF1bQ0gyXVtDQEhdKFtPSF0pW0NIMl1OMltDSDJdW0NIMl1bQ0gyXVtDSDJdW0NIMl0y

> <s_epik_cmdline>
J2VwaWtfcHl0aG9uJywgJy1waCcsICc3LjAnLCAnLXRuJywgJzgnLCAnLW1hJywgJzIwMCcsICctbWV0YWxfYmluZGluZycsICctaW1hZScsICc8aW5maWxlLm1hZT4nLCAnLW9tYWUnLCAnPG91dGZpbGUubWFlPic=

> <r_lp_tautomer_probability>
0.5

> <r_epik_Ionization_Penalty>
0.00519658

> <r_epik_Ionization_Penalty_Charging>
0.00515354

> <r_epik_Ionization_Penalty_Neutral>
4.30332e-05

> <r_epik_State_Penalty>
0.00375424

> <r_epik_Charging_Adjusted_Penalty>
0.00890779

> <i_epik_Tot_Q>
1

> <i_epik_Tot_abs_Q>
1

> <r_epik_Metal_State_Penalty>
-0

> <b_epik_Metal_Only>
0

> <s_lp_Force_Field>
OPLS_2005

> <r_lp_Energy>
21.3928

> <b_lp_Chiralities_Consistent>
1

> <s_lp_Variant>
AV-unprocessed.smi:1582-2

> <Gold.Version>
5.8.1

> <Gold.Id.Protein>
6NUR|6NUR_protein|mol2

> <Gold.PLP.Fitness>
49.5028

> <Gold.PLP.PLP>
-31.8452

> <Gold.PLP.part.hbond>
-5.3294

> <Gold.PLP.part.metal>
0.0000

> <Gold.PLP.part.buried>
-7.1963

> <Gold.PLP.part.nonpolar>
-21.7779

> <Gold.PLP.part.repulsive>
2.2671

> <Gold.PLP.ligand.clash>
0.0000

> <Gold.PLP.ligand.torsion>
1.5315

> <Gold.PLP.Chemscore.Hbond>
5.8880

> <Gold.PLP.Chemscore.CHOScore>
1.0000

> <Gold.PLP.Chemscore.Metal>
0.0000

> <Gold.Chemscore.Hbonds>
donor molecule, donor type, donor heavy atom, donor atom, acceptor molecule, acceptor atom, score
      L1  H     3    21       P1  7948  0.83
      L1  H     6    25       P1  7957  1.00
      L1  H     8    41       P1  8028  2.00
      L1  H    14    38       P1  7948  1.00
      L1  H    18    20       P1 10186  0.62
      L1  C    19    40       P1 10171  0.38

> <Gold.PLP.Chemscore.Internal.Correction>
0.0566

> <Gold.Rescore>
     Score         DG    S(hbond)    S(metal)    S(lipo)     H(rot)  DE(clash)    DE(int)     intcor
     17.12     -22.23       4.82        0.00      62.22       2.59       2.44       2.68       ----

> <Gold.Chemscore.Fitness>
17.1157

> <Gold.Chemscore.DG>
-22.2341

> <Gold.Chemscore.ZeroCoef>
-5.4800

> <Gold.Chemscore.Hbond>
4.8200

> <Gold.Chemscore.Metal>
0.0000

> <Gold.Chemscore.Lipo>
62.2166

> <Gold.Chemscore.Internal_Hbond>
0.0000

> <Gold.Chemscore.DEClash>
2.4389

> <Gold.Chemscore.DEInternal>
2.6794

> <Gold.Chemscore.Rot>
2.5876

> <Gold.Chemscore.Internal.Correction>
   9.000000E+99

> <Gold.Chemscore.Hbonds>
donor molecule, donor type, donor heavy atom, donor atom, acceptor molecule, acceptor atom, score
      L1  H     3    21       P1  7948  0.78
      L1  H     6    25       P1  7957  0.97
      L1  H     8    41       P1  8028  0.96
      L1  H    14    38       P1  7948  0.99
      L1  H    18    20       P1 10186  0.59

> <Gold.Chemscore.Hbond.Weighted>
-16.0989

> <Gold.Chemscore.Metal.Weighted>
-0.0000

> <Gold.Chemscore.Lipo.Weighted>
-7.2793

> <Gold.Chemscore.Internal_Hbond.Weighted>
0.0000

> <Gold.Chemscore.DEClash.Weighted>
2.4389

> <Gold.Chemscore.DEInternal.Weighted>
2.6794

> <Gold.Chemscore.Rot.Weighted>
6.6242

> <Gold.Chemscore.Internal.Correction.Weighted>
   9.000000E+99

> <Gold.Protein.RotatedTorsions>
[ 6907 6896 6895 6894 ] final   47.52 input  -60.11 | X-H torsion
[ 7974 7965 7964 7962 ] final  138.01 input  175.53 | X-H torsion
[ 8008 7997 7996 7995 ] final  138.61 input   59.86 | X-H torsion
[ 10167 10162 10161 10158 ] final   57.53 input  -65.29 | X-H torsion
[ 10718 10713 10712 10709 ] final  155.10 input   66.30 | X-H torsion
[ 10763 10752 10751 10750 ] final  -11.37 input  -60.55 | X-H torsion
[ 11005 11000 10999 10996 ] final  -10.14 input  -57.11 | X-H torsion

> <Gold.Protein.ActiveResidues>
 VAL166  LYS551  ARG553  GLY616  TRP617  ASP618  TYR619  PRO620  LYS621  CYS622 
 ASP623  PHE694  ASN695  SER759  ASP760  ASP761  ALA762  ILE779  LEU786  VAL792 
 PHE793  MET794  SER795  GLU796  ALA797  LYS798  CYS799  TRP800  GLU811  SER814 

> <Gold.Protein.RotatedAtoms>
  152.2690  134.7953  160.0417 H   0  0  0  0  0  0  0  0  0  0  0  0  # atno 6907 bound_to 6896
  151.8573  133.3445  159.3700 H   0  0  0  0  0  0  0  0  0  0  0  0  # atno 6908 bound_to 6896
  150.7144  134.5168  159.5678 H   0  0  0  0  0  0  0  0  0  0  0  0  # atno 6909 bound_to 6896
  144.9413  139.4928  143.5570 H   0  0  0  0  0  0  0  0  0  0  0  0  # atno 7974 bound_to 7965
  156.2996  140.2389  156.4101 H   0  0  0  0  0  0  0  0  0  0  0  0  # atno 8008 bound_to 7997
  154.8448  140.0426  157.1585 H   0  0  0  0  0  0  0  0  0  0  0  0  # atno 8009 bound_to 7997
  154.9063  140.2984  155.5294 H   0  0  0  0  0  0  0  0  0  0  0  0  # atno 8010 bound_to 7997
  140.1970  144.4027  150.6546 H   0  0  0  0  0  0  0  0  0  0  0  0  # atno 10167 bound_to 10162
  157.2228  131.0722  151.1901 H   0  0  0  0  0  0  0  0  0  0  0  0  # atno 10718 bound_to 10713
  153.4828  135.7017  153.5928 H   0  0  0  0  0  0  0  0  0  0  0  0  # atno 10763 bound_to 10752
  153.4134  135.3843  155.2065 H   0  0  0  0  0  0  0  0  0  0  0  0  # atno 10764 bound_to 10752
  154.8721  135.3910  154.4279 H   0  0  0  0  0  0  0  0  0  0  0  0  # atno 10765 bound_to 10752
  140.7416  133.8666  155.8972 H   0  0  0  0  0  0  0  0  0  0  0  0  # atno 11005 bound_to 11000
  146.3286  139.8433  142.8886 LP  0  0  0  0  0  0  0  0  0  0  0  0  # atno 17320 bound_to 7965
  145.2987  141.0188  143.3621 LP  0  0  0  0  0  0  0  0  0  0  0  0  # atno 17321 bound_to 7965
  140.6417  143.2205  151.6276 LP  0  0  0  0  0  0  0  0  0  0  0  0  # atno 17342 bound_to 10162
  139.5232  144.3139  152.0969 LP  0  0  0  0  0  0  0  0  0  0  0  0  # atno 17343 bound_to 10162
  157.3558  130.7105  149.6470 LP  0  0  0  0  0  0  0  0  0  0  0  0  # atno 17370 bound_to 10713
  155.9681  130.4239  150.4586 LP  0  0  0  0  0  0  0  0  0  0  0  0  # atno 17371 bound_to 10713
  140.9832  134.1378  157.4476 LP  0  0  0  0  0  0  0  0  0  0  0  0  # atno 17394 bound_to 11000
  139.8805  135.0017  156.6083 LP  0  0  0  0  0  0  0  0  0  0  0  0  # atno 17395 bound_to 11000

$$$$
