AV-unprocessed.smi:1352|AV-procd|sdf|5530|dock10
  -GOLD-   22720 5123D 1   1.00000     0.00000
 Structure written by MMmdl.
 47 48  0  0  0  0  0  0  0  0  2 V2000
  155.1198  139.7704  160.0531 C   0  0  0  0  0  0  0  0  0  0  0  0
  154.1181  140.6006  159.2381 C   0  0  2  0  0  0  0  0  0  0  0  0
  154.1486  142.0814  159.6513 C   0  0  0  0  0  0  0  0  0  0  0  0
  153.1253  142.8918  158.8386 C   0  0  2  0  0  0  0  0  0  0  0  0
  153.1255  144.3705  159.2517 C   0  0  0  0  0  0  0  0  0  0  0  0
  151.7227  142.2683  158.9745 C   0  0  0  0  0  0  0  0  0  0  0  0
  151.7209  140.8400  158.5646 N   0  3  2  0  0  0  0  0  0  0  0  0
  150.3530  140.2622  158.5533 C   0  0  0  0  0  0  0  0  0  0  0  0
  150.3062  138.8760  157.8816 C   0  0  0  0  0  0  0  0  0  0  0  0
  149.1211  138.1262  158.2809 N   0  0  0  0  0  0  0  0  0  0  0  0
  149.1356  136.9743  158.9686 C   0  0  0  0  0  0  0  0  0  0  0  0
  150.1757  136.4137  159.3170 O   0  0  0  0  0  0  0  0  0  0  0  0
  147.7637  136.3620  159.2859 C   0  0  0  0  0  0  0  0  0  0  0  0
  147.7747  135.4839  160.4680 N   0  0  0  0  0  0  0  0  0  0  0  0
  147.5679  134.1076  160.2473 C   0  0  0  0  0  0  0  0  0  0  0  0
  147.5596  133.2203  161.2547 C   0  0  0  0  0  0  0  0  0  0  0  0
  147.7693  133.7094  162.5968 C   0  0  0  0  0  0  0  0  0  0  0  0
  147.9714  135.0235  162.8187 C   0  0  0  0  0  0  0  0  0  0  0  0
  147.9848  135.9965  161.7200 C   0  0  0  0  0  0  0  0  0  0  0  0
  148.1739  137.1981  161.9121 O   0  0  0  0  0  0  0  0  0  0  0  0
  152.6877  140.0418  159.3648 C   0  0  0  0  0  0  0  0  0  0  0  0
  154.8793  139.7903  161.1166 H   0  0  0  0  0  0  0  0  0  0  0  0
  156.1346  140.1517  159.9340 H   0  0  0  0  0  0  0  0  0  0  0  0
  155.1209  138.7285  159.7314 H   0  0  0  0  0  0  0  0  0  0  0  0
  154.4150  140.5355  158.1900 H   0  0  0  0  0  0  0  0  0  0  0  0
  153.9318  142.1730  160.7168 H   0  0  0  0  0  0  0  0  0  0  0  0
  155.1491  142.4890  159.5015 H   0  0  0  0  0  0  0  0  0  0  0  0
  153.4149  142.8452  157.7875 H   0  0  0  0  0  0  0  0  0  0  0  0
  152.8393  144.4908  160.2972 H   0  0  0  0  0  0  0  0  0  0  0  0
  152.4261  144.9483  158.6466 H   0  0  0  0  0  0  0  0  0  0  0  0
  154.1137  144.8138  159.1243 H   0  0  0  0  0  0  0  0  0  0  0  0
  151.3664  142.3515  160.0027 H   0  0  0  0  0  0  0  0  0  0  0  0
  151.0231  142.8265  158.3507 H   0  0  0  0  0  0  0  0  0  0  0  0
  149.9607  140.2156  159.5704 H   0  0  0  0  0  0  0  0  0  0  0  0
  149.6914  140.9314  158.0013 H   0  0  0  0  0  0  0  0  0  0  0  0
  150.3338  138.9768  156.7951 H   0  0  0  0  0  0  0  0  0  0  0  0
  151.1735  138.2782  158.1590 H   0  0  0  0  0  0  0  0  0  0  0  0
  148.2241  138.5178  158.0306 H   0  0  0  0  0  0  0  0  0  0  0  0
  147.0328  137.1618  159.4224 H   0  0  0  0  0  0  0  0  0  0  0  0
  147.4244  135.8142  158.4054 H   0  0  0  0  0  0  0  0  0  0  0  0
  147.4252  133.8223  159.2151 H   0  0  0  0  0  0  0  0  0  0  0  0
  147.4033  132.1682  161.0660 H   0  0  0  0  0  0  0  0  0  0  0  0
  147.7651  133.0179  163.4266 H   0  0  0  0  0  0  0  0  0  0  0  0
  148.1274  135.3712  163.8293 H   0  0  0  0  0  0  0  0  0  0  0  0
  152.6840  139.0049  159.0306 H   0  0  0  0  0  0  0  0  0  0  0  0
  152.3754  140.0358  160.4106 H   0  0  0  0  0  0  0  0  0  0  0  0
  152.0441  140.8243  157.6077 H   0  0  0  0  0  0  0  0  0  0  0  0
  1  2  1  0  0  0  0
  1 22  1  0  0  0  0
  1 23  1  0  0  0  0
  1 24  1  0  0  0  0
  2 21  1  0  0  0  0
  2  3  1  0  0  0  0
  2 25  1  0  0  0  0
  3  4  1  0  0  0  0
  3 26  1  0  0  0  0
  3 27  1  0  0  0  0
  4  5  1  0  0  0  0
  4  6  1  0  0  0  0
  4 28  1  0  0  0  0
  5 29  1  0  0  0  0
  5 30  1  0  0  0  0
  5 31  1  0  0  0  0
  6  7  1  0  0  0  0
  6 32  1  0  0  0  0
  6 33  1  0  0  0  0
  7  8  1  0  0  0  0
  7 21  1  0  0  0  0
  7 47  1  0  0  0  0
  8  9  1  0  0  0  0
  8 34  1  0  0  0  0
  8 35  1  0  0  0  0
  9 10  1  0  0  0  0
  9 36  1  0  0  0  0
  9 37  1  0  0  0  0
 10 11  1  0  0  0  0
 10 38  1  0  0  0  0
 11 12  2  0  0  0  0
 11 13  1  0  0  0  0
 13 14  1  0  0  0  0
 13 39  1  0  0  0  0
 13 40  1  0  0  0  0
 14 19  1  0  0  0  0
 14 15  1  0  0  0  0
 15 16  2  0  0  0  0
 15 41  1  0  0  0  0
 16 17  1  0  0  0  0
 16 42  1  0  0  0  0
 17 18  2  0  0  0  0
 17 43  1  0  0  0  0
 18 19  1  0  0  0  0
 18 44  1  0  0  0  0
 19 20  2  0  0  0  0
 21 45  1  0  0  0  0
 21 46  1  0  0  0  0
M  CHG  1   7   1
M  END
> <s_m_source_file>
AV-unprocessed.smi

> <i_m_source_file_index>
1352

> <i_lp_mmshare_version>
43012

> <i_f3d_flags>
0

> <s_epik_input>
W0NIM11bQ0BASF0xW0NIMl1bQ0BASF0oW0NIM10pW0NIMl1OKFtDSDJdMSlbQ0gyXVtDSDJdW05IXUMoPU8pW0NIMl1uMltjSF1bY0hdW2NIXVtjSF1jMj1P

> <s_epik_cmdline>
J2VwaWtfcHl0aG9uJywgJy1waCcsICc3LjAnLCAnLXRuJywgJzgnLCAnLW1hJywgJzIwMCcsICctbWV0YWxfYmluZGluZycsICctaW1hZScsICc8aW5maWxlLm1hZT4nLCAnLW9tYWUnLCAnPG91dGZpbGUubWFlPic=

> <r_lp_tautomer_probability>
1

> <r_epik_Ionization_Penalty>
0.00156146

> <r_epik_Ionization_Penalty_Charging>
0.00156138

> <r_epik_Ionization_Penalty_Neutral>
8.12891e-08

> <r_epik_State_Penalty>
0.00104868

> <r_epik_Charging_Adjusted_Penalty>
0.00261006

> <i_epik_Tot_Q>
1

> <i_epik_Tot_abs_Q>
1

> <r_epik_Metal_State_Penalty>
-0

> <b_epik_Metal_Only>
0

> <s_lp_Force_Field>
OPLS_2005

> <r_lp_Energy>
25.1883

> <b_lp_Chiralities_Consistent>
1

> <s_lp_Variant>
AV-unprocessed.smi:1352-3

> <Gold.Version>
5.8.1

> <Gold.Id.Protein>
6NUR|6NUR_protein|mol2

> <Gold.PLP.Fitness>
53.6517

> <Gold.PLP.PLP>
-46.5287

> <Gold.PLP.part.hbond>
-3.0000

> <Gold.PLP.part.metal>
0.0000

> <Gold.PLP.part.buried>
-5.4294

> <Gold.PLP.part.nonpolar>
-38.7920

> <Gold.PLP.part.repulsive>
0.2212

> <Gold.PLP.ligand.clash>
0.0000

> <Gold.PLP.ligand.torsion>
0.5443

> <Gold.PLP.Chemscore.Hbond>
2.7280

> <Gold.PLP.Chemscore.CHOScore>
0.0000

> <Gold.PLP.Chemscore.Metal>
0.0000

> <Gold.Chemscore.Hbonds>
donor molecule, donor type, donor heavy atom, donor atom, acceptor molecule, acceptor atom, score
      P1  H  6896  6907       L1    12  1.00
      P1  H  6931  6943       L1    20  0.55
      P1  H  6934  6947       L1    20  0.18

> <Gold.PLP.Chemscore.Internal.Correction>
0.0276

> <Gold.Rescore>
     Score         DG    S(hbond)    S(metal)    S(lipo)     H(rot)  DE(clash)    DE(int)     intcor
     21.97     -22.64       2.73        0.00     108.93       1.83       0.05       0.62       ----

> <Gold.Chemscore.Fitness>
21.9693

> <Gold.Chemscore.DG>
-22.6382

> <Gold.Chemscore.ZeroCoef>
-5.4800

> <Gold.Chemscore.Hbond>
2.7263

> <Gold.Chemscore.Metal>
0.0000

> <Gold.Chemscore.Lipo>
108.9295

> <Gold.Chemscore.Internal_Hbond>
0.0000

> <Gold.Chemscore.DEClash>
0.0505

> <Gold.Chemscore.DEInternal>
0.6184

> <Gold.Chemscore.Rot>
1.8329

> <Gold.Chemscore.Internal.Correction>
   9.000000E+99

> <Gold.Chemscore.Hbonds>
donor molecule, donor type, donor heavy atom, donor atom, acceptor molecule, acceptor atom, score
      P1  H  6896  6907       L1    12  1.00
      P1  H  6931  6943       L1    20  0.56
      P1  H  6934  6947       L1    20  0.18

> <Gold.Chemscore.Hbond.Weighted>
-9.1057

> <Gold.Chemscore.Metal.Weighted>
-0.0000

> <Gold.Chemscore.Lipo.Weighted>
-12.7448

> <Gold.Chemscore.Internal_Hbond.Weighted>
0.0000

> <Gold.Chemscore.DEClash.Weighted>
0.0505

> <Gold.Chemscore.DEInternal.Weighted>
0.6184

> <Gold.Chemscore.Rot.Weighted>
4.6922

> <Gold.Chemscore.Internal.Correction.Weighted>
   9.000000E+99

> <Gold.Protein.RotatedTorsions>
[ 6907 6896 6895 6894 ] final  -46.61 input  -60.11 | X-H torsion
[ 7974 7965 7964 7962 ] final   -2.15 input  175.53 | X-H torsion
[ 8008 7997 7996 7995 ] final -165.70 input   59.86 | X-H torsion
[ 10167 10162 10161 10158 ] final -170.25 input  -65.29 | X-H torsion
[ 10718 10713 10712 10709 ] final -151.81 input   66.30 | X-H torsion
[ 10763 10752 10751 10750 ] final  -87.43 input  -60.55 | X-H torsion
[ 11005 11000 10999 10996 ] final -128.65 input  -57.11 | X-H torsion

> <Gold.Protein.ActiveResidues>
 VAL166  LYS551  ARG553  GLY616  TRP617  ASP618  TYR619  PRO620  LYS621  CYS622 
 ASP623  PHE694  ASN695  SER759  ASP760  ASP761  ALA762  ILE779  LEU786  VAL792 
 PHE793  MET794  SER795  GLU796  ALA797  LYS798  CYS799  TRP800  GLU811  SER814 

> <Gold.Protein.RotatedAtoms>
  150.9094  134.8511  159.7414 H   0  0  0  0  0  0  0  0  0  0  0  0  # atno 6907 bound_to 6896
  152.4936  134.4382  159.9544 H   0  0  0  0  0  0  0  0  0  0  0  0  # atno 6908 bound_to 6896
  151.4425  133.3600  159.2819 H   0  0  0  0  0  0  0  0  0  0  0  0  # atno 6909 bound_to 6896
  146.2408  140.1528  142.8333 H   0  0  0  0  0  0  0  0  0  0  0  0  # atno 7974 bound_to 7965
  155.8535  140.0967  157.1659 H   0  0  0  0  0  0  0  0  0  0  0  0  # atno 8008 bound_to 7997
  154.3986  140.1378  156.3936 H   0  0  0  0  0  0  0  0  0  0  0  0  # atno 8009 bound_to 7997
  155.7935  140.3455  155.5365 H   0  0  0  0  0  0  0  0  0  0  0  0  # atno 8010 bound_to 7997
  139.5873  144.1290  152.1591 H   0  0  0  0  0  0  0  0  0  0  0  0  # atno 10167 bound_to 10162
  156.4642  130.8227  151.2458 H   0  0  0  0  0  0  0  0  0  0  0  0  # atno 10718 bound_to 10713
  154.6335  135.5413  153.7707 H   0  0  0  0  0  0  0  0  0  0  0  0  # atno 10763 bound_to 10752
  153.0296  135.6441  154.1266 H   0  0  0  0  0  0  0  0  0  0  0  0  # atno 10764 bound_to 10752
  154.1195  135.2921  155.3192 H   0  0  0  0  0  0  0  0  0  0  0  0  # atno 10765 bound_to 10752
  140.9498  134.1080  157.4072 H   0  0  0  0  0  0  0  0  0  0  0  0  # atno 11005 bound_to 11000
  145.0153  140.8749  143.5199 LP  0  0  0  0  0  0  0  0  0  0  0  0  # atno 17320 bound_to 7965
  145.1568  139.2482  143.5412 LP  0  0  0  0  0  0  0  0  0  0  0  0  # atno 17321 bound_to 7965
  140.0856  144.5663  150.7091 LP  0  0  0  0  0  0  0  0  0  0  0  0  # atno 17342 bound_to 10162
  140.7142  143.2531  151.4485 LP  0  0  0  0  0  0  0  0  0  0  0  0  # atno 17343 bound_to 10162
  157.7496  131.0097  150.3279 LP  0  0  0  0  0  0  0  0  0  0  0  0  # atno 17370 bound_to 10713
  156.3685  130.3859  149.7194 LP  0  0  0  0  0  0  0  0  0  0  0  0  # atno 17371 bound_to 10713
  139.8844  135.0062  156.6367 LP  0  0  0  0  0  0  0  0  0  0  0  0  # atno 17394 bound_to 11000
  140.7618  133.8811  155.8424 LP  0  0  0  0  0  0  0  0  0  0  0  0  # atno 17395 bound_to 11000

$$$$
