AV-unprocessed.smi:3017|AV-procd|sdf|11478|dock8
  -GOLD-   2272016413D 1   1.00000     0.00000
 Structure written by MMmdl.
 37 38  0  0  0  0  0  0  0  0  1 V2000
  150.9955  145.4712  159.2918 C   0  0  0  0  0  0  0  0  0  0  0  0
  151.6467  144.1261  158.9406 C   0  0  1  0  0  0  0  0  0  0  0  0
  152.8746  143.8442  159.8278 C   0  0  0  0  0  0  0  0  0  0  0  0
  153.5247  142.4964  159.4783 C   0  0  0  0  0  0  0  0  0  0  0  0
  152.5086  141.3456  159.5654 C   0  0  0  0  0  0  0  0  0  0  0  0
  151.2721  141.6066  158.6874 C   0  0  2  0  0  0  0  0  0  0  0  0
  151.6922  141.5725  157.3289 O   0  0  0  0  0  0  0  0  0  0  0  0
  152.1453  140.3024  156.8761 C   0  0  0  0  0  0  0  0  0  0  0  0
  151.1481  139.7240  155.8690 C   0  0  0  0  0  0  0  0  0  0  0  0
  151.2099  138.5268  155.5906 O   0  0  0  0  0  0  0  0  0  0  0  0
  150.2606  140.5849  155.3351 N   0  0  0  0  0  0  0  0  0  0  0  0
  149.2232  140.3144  154.4054 C   0  0  0  0  0  0  0  0  0  0  0  0
  148.3049  141.3684  154.1872 C   0  0  0  0  0  0  0  0  0  0  0  0
  147.2604  141.2612  153.3359 N   0  0  0  0  0  0  0  0  0  0  0  0
  147.1266  140.0832  152.6899 C   0  0  0  0  0  0  0  0  0  0  0  0
  148.0317  139.0227  152.8944 C   0  0  0  0  0  0  0  0  0  0  0  0
  149.0740  139.1369  153.7461 N   0  0  0  0  0  0  0  0  0  0  0  0
  150.6338  142.9676  159.0397 C   0  0  0  0  0  0  0  0  0  0  0  0
  150.6314  145.4801  160.3197 H   0  0  0  0  0  0  0  0  0  0  0  0
  150.1487  145.6790  158.6369 H   0  0  0  0  0  0  0  0  0  0  0  0
  151.7051  146.2917  159.1820 H   0  0  0  0  0  0  0  0  0  0  0  0
  151.9869  144.1901  157.9058 H   0  0  0  0  0  0  0  0  0  0  0  0
  153.6084  144.6433  159.7156 H   0  0  0  0  0  0  0  0  0  0  0  0
  152.5788  143.8425  160.8777 H   0  0  0  0  0  0  0  0  0  0  0  0
  153.9430  142.5426  158.4718 H   0  0  0  0  0  0  0  0  0  0  0  0
  154.3613  142.3029  160.1498 H   0  0  0  0  0  0  0  0  0  0  0  0
  152.9818  140.4072  159.2747 H   0  0  0  0  0  0  0  0  0  0  0  0
  152.1942  141.2217  160.6026 H   0  0  0  0  0  0  0  0  0  0  0  0
  150.5528  140.8052  158.8650 H   0  0  0  0  0  0  0  0  0  0  0  0
  153.1199  140.3973  156.3957 H   0  0  0  0  0  0  0  0  0  0  0  0
  152.2489  139.6043  157.7067 H   0  0  0  0  0  0  0  0  0  0  0  0
  150.3298  141.5429  155.6476 H   0  0  0  0  0  0  0  0  0  0  0  0
  148.4069  142.3118  154.7037 H   0  0  0  0  0  0  0  0  0  0  0  0
  146.2949  139.9858  152.0080 H   0  0  0  0  0  0  0  0  0  0  0  0
  147.9192  138.0826  152.3752 H   0  0  0  0  0  0  0  0  0  0  0  0
  150.2419  142.9201  160.0566 H   0  0  0  0  0  0  0  0  0  0  0  0
  149.7739  143.1665  158.4009 H   0  0  0  0  0  0  0  0  0  0  0  0
  1  2  1  0  0  0  0
  1 19  1  0  0  0  0
  1 20  1  0  0  0  0
  1 21  1  0  0  0  0
  2 18  1  0  0  0  0
  2  3  1  0  0  0  0
  2 22  1  0  0  0  0
  3  4  1  0  0  0  0
  3 23  1  0  0  0  0
  3 24  1  0  0  0  0
  4  5  1  0  0  0  0
  4 25  1  0  0  0  0
  4 26  1  0  0  0  0
  5  6  1  0  0  0  0
  5 27  1  0  0  0  0
  5 28  1  0  0  0  0
  6  7  1  0  0  0  0
  6 18  1  0  0  0  0
  6 29  1  0  0  0  0
  7  8  1  0  0  0  0
  8  9  1  0  0  0  0
  8 30  1  0  0  0  0
  8 31  1  0  0  0  0
  9 10  2  0  0  0  0
  9 11  1  0  0  0  0
 11 12  1  0  0  0  0
 11 32  1  0  0  0  0
 12 17  1  0  0  0  0
 12 13  2  0  0  0  0
 13 14  1  0  0  0  0
 13 33  1  0  0  0  0
 14 15  2  0  0  0  0
 15 16  1  0  0  0  0
 15 34  1  0  0  0  0
 16 17  2  0  0  0  0
 16 35  1  0  0  0  0
 18 36  1  0  0  0  0
 18 37  1  0  0  0  0
M  END
> <s_m_source_file>
AV-unprocessed.smi

> <i_m_source_file_index>
3017

> <i_lp_mmshare_version>
43012

> <i_f3d_flags>
0

> <s_epik_input>
W0NIM11bQ0BASF0xW0NIMl1bQ0gyXVtDSDJdW0NASF0oW0NIMl0xKU9bQ0gyXUMoPU8pW05IXWMyW2NIXW5bY0hdW2NIXW4y

> <s_epik_cmdline>
J2VwaWtfcHl0aG9uJywgJy1waCcsICc3LjAnLCAnLXRuJywgJzgnLCAnLW1hJywgJzIwMCcsICctbWV0YWxfYmluZGluZycsICctaW1hZScsICc8aW5maWxlLm1hZT4nLCAnLW9tYWUnLCAnPG91dGZpbGUubWFlPic=

> <r_lp_tautomer_probability>
1

> <r_epik_Ionization_Penalty>
2.89243e-06

> <r_epik_Ionization_Penalty_Charging>
0

> <r_epik_Ionization_Penalty_Neutral>
2.89243e-06

> <r_epik_State_Penalty>
-0

> <r_epik_Charging_Adjusted_Penalty>
0

> <i_epik_Tot_Q>
0

> <i_epik_Tot_abs_Q>
0

> <r_epik_Metal_State_Penalty>
-0

> <b_epik_Metal_Only>
0

> <s_lp_Force_Field>
OPLS_2005

> <r_lp_Energy>
20.5114

> <b_lp_Chiralities_Consistent>
1

> <s_lp_Variant>
AV-unprocessed.smi:3017-4

> <Gold.Version>
5.8.1

> <Gold.Id.Protein>
6NUR|6NUR_protein|mol2

> <Gold.PLP.Fitness>
39.3479

> <Gold.PLP.PLP>
-31.5499

> <Gold.PLP.part.hbond>
0.0000

> <Gold.PLP.part.metal>
0.0000

> <Gold.PLP.part.buried>
-1.5502

> <Gold.PLP.part.nonpolar>
-29.4237

> <Gold.PLP.part.repulsive>
0.4613

> <Gold.PLP.ligand.clash>
0.0000

> <Gold.PLP.ligand.torsion>
0.6046

> <Gold.PLP.Chemscore.Hbond>
0.0000

> <Gold.PLP.Chemscore.CHOScore>
2.9996

> <Gold.PLP.Chemscore.Metal>
0.0000

> <Gold.Chemscore.Hbonds>
donor molecule, donor type, donor heavy atom, donor atom, acceptor molecule, acceptor atom, score
      L1  C    13    33       P1  8028  0.79
      L1  C    15    34       P1 10175  0.60
      L1  C    16    35       P1  7948  1.00

> <Gold.PLP.Chemscore.Internal.Correction>
0.0083

> <Gold.Rescore>
     Score         DG    S(hbond)    S(metal)    S(lipo)     H(rot)  DE(clash)    DE(int)     intcor
     10.85     -13.18       0.00        0.00      98.89       1.51       0.22       2.11       ----

> <Gold.Chemscore.Fitness>
10.8488

> <Gold.Chemscore.DG>
-13.1796

> <Gold.Chemscore.ZeroCoef>
-5.4800

> <Gold.Chemscore.Hbond>
0.0000

> <Gold.Chemscore.Metal>
0.0000

> <Gold.Chemscore.Lipo>
98.8906

> <Gold.Chemscore.Internal_Hbond>
0.0000

> <Gold.Chemscore.DEClash>
0.2159

> <Gold.Chemscore.DEInternal>
2.1149

> <Gold.Chemscore.Rot>
1.5119

> <Gold.Chemscore.Internal.Correction>
   9.000000E+99

> <Gold.Chemscore.Hbond.Weighted>
-0.0000

> <Gold.Chemscore.Metal.Weighted>
-0.0000

> <Gold.Chemscore.Lipo.Weighted>
-11.5702

> <Gold.Chemscore.Internal_Hbond.Weighted>
0.0000

> <Gold.Chemscore.DEClash.Weighted>
0.2159

> <Gold.Chemscore.DEInternal.Weighted>
2.1149

> <Gold.Chemscore.Rot.Weighted>
3.8706

> <Gold.Chemscore.Internal.Correction.Weighted>
   9.000000E+99

> <Gold.Protein.RotatedTorsions>
[ 6907 6896 6895 6894 ] final   -8.59 input  -60.11 | X-H torsion
[ 7974 7965 7964 7962 ] final  168.77 input  175.53 | X-H torsion
[ 8008 7997 7996 7995 ] final  -23.37 input   59.86 | X-H torsion
[ 10167 10162 10161 10158 ] final   81.93 input  -65.29 | X-H torsion
[ 10718 10713 10712 10709 ] final   39.45 input   66.30 | X-H torsion
[ 10763 10752 10751 10750 ] final -138.97 input  -60.55 | X-H torsion
[ 11005 11000 10999 10996 ] final   47.48 input  -57.11 | X-H torsion

> <Gold.Protein.ActiveResidues>
 VAL166  LYS551  ARG553  GLY616  TRP617  ASP618  TYR619  PRO620  LYS621  CYS622 
 ASP623  PHE694  ASN695  SER759  ASP760  ASP761  ALA762  ILE779  LEU786  VAL792 
 PHE793  MET794  SER795  GLU796  ALA797  LYS798  CYS799  TRP800  GLU811  SER814 

> <Gold.Protein.RotatedAtoms>
  151.4312  135.1010  159.9642 H   0  0  0  0  0  0  0  0  0  0  0  0  # atno 6907 bound_to 6896
  152.4955  133.8615  159.7263 H   0  0  0  0  0  0  0  0  0  0  0  0  # atno 6908 bound_to 6896
  150.9154  133.6888  159.2872 H   0  0  0  0  0  0  0  0  0  0  0  0  # atno 6909 bound_to 6896
  144.7377  139.8956  143.6406 H   0  0  0  0  0  0  0  0  0  0  0  0  # atno 7974 bound_to 7965
  154.4589  140.1982  156.0300 H   0  0  0  0  0  0  0  0  0  0  0  0  # atno 8008 bound_to 7997
  156.0801  140.3272  155.7655 H   0  0  0  0  0  0  0  0  0  0  0  0  # atno 8009 bound_to 7997
  155.5124  140.0563  157.2912 H   0  0  0  0  0  0  0  0  0  0  0  0  # atno 8010 bound_to 7997
  139.9341  144.6132  150.8316 H   0  0  0  0  0  0  0  0  0  0  0  0  # atno 10167 bound_to 10162
  157.3707  130.7699  149.7116 H   0  0  0  0  0  0  0  0  0  0  0  0  # atno 10718 bound_to 10713
  154.8622  135.3596  154.5471 H   0  0  0  0  0  0  0  0  0  0  0  0  # atno 10763 bound_to 10752
  153.6091  135.7010  153.5359 H   0  0  0  0  0  0  0  0  0  0  0  0  # atno 10764 bound_to 10752
  153.3225  135.4147  155.1389 H   0  0  0  0  0  0  0  0  0  0  0  0  # atno 10765 bound_to 10752
  140.1275  134.4749  155.8547 H   0  0  0  0  0  0  0  0  0  0  0  0  # atno 11005 bound_to 11000
  146.1110  139.4115  143.0288 LP  0  0  0  0  0  0  0  0  0  0  0  0  # atno 17320 bound_to 7965
  145.7443  140.9996  143.1284 LP  0  0  0  0  0  0  0  0  0  0  0  0  # atno 17321 bound_to 7965
  140.7629  143.3210  151.2622 LP  0  0  0  0  0  0  0  0  0  0  0  0  # atno 17342 bound_to 10162
  139.6758  143.9941  152.2780 LP  0  0  0  0  0  0  0  0  0  0  0  0  # atno 17343 bound_to 10162
  155.9755  130.4088  150.3846 LP  0  0  0  0  0  0  0  0  0  0  0  0  # atno 17370 bound_to 10713
  157.1936  131.0421  151.2687 LP  0  0  0  0  0  0  0  0  0  0  0  0  # atno 17371 bound_to 10713
  141.2164  133.6783  156.7006 LP  0  0  0  0  0  0  0  0  0  0  0  0  # atno 17394 bound_to 11000
  140.2885  134.8260  157.3996 LP  0  0  0  0  0  0  0  0  0  0  0  0  # atno 17395 bound_to 11000

$$$$
