AV-unprocessed.smi:148|AV-procd|sdf|1232|dock2
  -GOLD-   2262018433D 1   1.00000     0.00000
 Structure written by MMmdl.
 63 67  0  0  0  0  0  0  0  0  1 V2000
  153.2204  138.6896  154.9032 O   0  0  0  0  0  0  0  0  0  0  0  0
  152.0812  138.2767  155.6276 C   0  0  0  0  0  0  0  0  0  0  0  0
  151.0668  139.4329  155.8220 C   0  0  2  0  0  0  0  0  0  0  0  0
  150.3586  139.7779  154.4872 C   0  0  0  0  0  0  0  0  0  0  0  0
  149.0054  139.2573  154.3989 N   0  0  0  0  0  0  0  0  0  0  0  0
  147.8734  139.9477  154.0261 C   0  0  0  0  0  0  0  0  0  0  0  0
  146.7685  139.2522  154.0362 N   0  0  0  0  0  0  0  0  0  0  0  0
  147.1704  137.9916  154.4587 C   0  0  0  0  0  0  0  0  0  0  0  0
  146.4907  136.7705  154.7043 C   0  0  0  0  0  0  0  0  0  0  0  0
  145.1548  136.6479  154.5277 N   0  0  0  0  0  0  0  0  0  0  0  0
  144.4577  137.5826  155.4116 C   0  0  0  0  0  0  0  0  0  0  0  0
  142.9445  137.3366  155.4095 C   0  0  0  0  0  0  0  0  0  0  0  0
  142.4035  137.4018  153.9789 C   0  0  0  0  0  0  0  0  0  0  0  0
  143.1428  136.3890  153.0948 C   0  0  0  0  0  0  0  0  0  0  0  0
  144.6806  136.5958  153.1312 C   0  0  2  0  0  0  0  0  0  0  0  0
  145.4592  135.5460  152.2751 C   0  0  1  0  0  0  0  0  0  0  0  0
  145.8582  134.2444  153.0009 C   0  0  0  0  0  0  0  0  0  0  0  0
  145.8304  133.1290  151.9434 C   0  0  0  0  0  0  0  0  0  0  0  0
  145.5590  133.8194  150.6044 C   0  0  0  0  0  0  0  0  0  0  0  0
  144.7715  135.0721  150.9849 C   0  0  2  0  0  0  0  0  0  0  0  0
  144.8240  136.0451  149.9620 O   0  0  0  0  0  0  0  0  0  0  0  0
  147.2250  135.7037  155.1188 N   0  0  0  0  0  0  0  0  0  0  0  0
  148.5433  135.8321  155.2983 C   0  0  0  0  0  0  0  0  0  0  0  0
  149.3094  136.9110  155.1198 N   0  0  0  0  0  0  0  0  0  0  0  0
  148.5729  137.9768  154.6928 C   0  0  0  0  0  0  0  0  0  0  0  0
  151.7274  140.7019  156.4290 C   0  0  1  0  0  0  0  0  0  0  0  0
  150.8254  141.9245  156.4903 C   0  0  0  0  0  0  0  0  0  0  0  0
  151.5408  142.8149  157.5000 C   0  0  0  0  0  0  0  0  0  0  0  0
  152.1899  141.9291  158.4037 O   0  0  0  0  0  0  0  0  0  0  0  0
  152.1292  140.5970  157.9050 C   0  0  0  0  0  0  0  0  0  0  0  0
  153.0959  138.4663  153.9933 H   0  0  0  0  0  0  0  0  0  0  0  0
  151.6123  137.4320  155.1221 H   0  0  0  0  0  0  0  0  0  0  0  0
  152.4508  137.9047  156.5819 H   0  0  0  0  0  0  0  0  0  0  0  0
  150.2973  139.0887  156.5148 H   0  0  0  0  0  0  0  0  0  0  0  0
  150.2891  140.8566  154.3498 H   0  0  0  0  0  0  0  0  0  0  0  0
  150.9366  139.3953  153.6448 H   0  0  0  0  0  0  0  0  0  0  0  0
  147.8936  140.9894  153.7403 H   0  0  0  0  0  0  0  0  0  0  0  0
  144.8372  137.4852  156.4301 H   0  0  0  0  0  0  0  0  0  0  0  0
  144.6648  138.6054  155.0924 H   0  0  0  0  0  0  0  0  0  0  0  0
  142.7284  136.3597  155.8439 H   0  0  0  0  0  0  0  0  0  0  0  0
  142.4443  138.0760  156.0352 H   0  0  0  0  0  0  0  0  0  0  0  0
  141.3327  137.1968  153.9707 H   0  0  0  0  0  0  0  0  0  0  0  0
  142.5338  138.4079  153.5784 H   0  0  0  0  0  0  0  0  0  0  0  0
  142.8826  135.3839  153.4250 H   0  0  0  0  0  0  0  0  0  0  0  0
  142.7635  136.4885  152.0792 H   0  0  0  0  0  0  0  0  0  0  0  0
  144.8749  137.5772  152.6960 H   0  0  0  0  0  0  0  0  0  0  0  0
  146.3948  136.0001  151.9448 H   0  0  0  0  0  0  0  0  0  0  0  0
  146.8507  134.3428  153.4415 H   0  0  0  0  0  0  0  0  0  0  0  0
  145.1777  133.9964  153.8140 H   0  0  0  0  0  0  0  0  0  0  0  0
  146.7571  132.5551  151.9235 H   0  0  0  0  0  0  0  0  0  0  0  0
  145.0208  132.4336  152.1696 H   0  0  0  0  0  0  0  0  0  0  0  0
  146.5083  134.0974  150.1431 H   0  0  0  0  0  0  0  0  0  0  0  0
  145.0228  133.1806  149.9018 H   0  0  0  0  0  0  0  0  0  0  0  0
  143.7355  134.7869  151.1612 H   0  0  0  0  0  0  0  0  0  0  0  0
  145.0836  135.6219  149.1578 H   0  0  0  0  0  0  0  0  0  0  0  0
  149.0575  134.9435  155.6337 H   0  0  0  0  0  0  0  0  0  0  0  0
  152.6141  140.9603  155.8476 H   0  0  0  0  0  0  0  0  0  0  0  0
  150.6982  142.4196  155.5274 H   0  0  0  0  0  0  0  0  0  0  0  0
  149.8386  141.6498  156.8666 H   0  0  0  0  0  0  0  0  0  0  0  0
  152.3005  143.4195  157.0027 H   0  0  0  0  0  0  0  0  0  0  0  0
  150.8582  143.4876  158.0196 H   0  0  0  0  0  0  0  0  0  0  0  0
  151.3720  140.0559  158.4743 H   0  0  0  0  0  0  0  0  0  0  0  0
  153.0846  140.0905  158.0438 H   0  0  0  0  0  0  0  0  0  0  0  0
  1  2  1  0  0  0  0
  1 31  1  0  0  0  0
  2  3  1  0  0  0  0
  2 32  1  0  0  0  0
  2 33  1  0  0  0  0
  3  4  1  0  0  0  0
  3 26  1  0  0  0  0
  3 34  1  0  0  0  0
  4  5  1  0  0  0  0
  4 35  1  0  0  0  0
  4 36  1  0  0  0  0
  5 25  1  0  0  0  0
  5  6  1  0  0  0  0
  6  7  2  0  0  0  0
  6 37  1  0  0  0  0
  7  8  1  0  0  0  0
  8 25  2  0  0  0  0
  8  9  1  0  0  0  0
  9 10  1  0  0  0  0
  9 22  2  0  0  0  0
 10 15  1  0  0  0  0
 10 11  1  0  0  0  0
 11 12  1  0  0  0  0
 11 38  1  0  0  0  0
 11 39  1  0  0  0  0
 12 13  1  0  0  0  0
 12 40  1  0  0  0  0
 12 41  1  0  0  0  0
 13 14  1  0  0  0  0
 13 42  1  0  0  0  0
 13 43  1  0  0  0  0
 14 15  1  0  0  0  0
 14 44  1  0  0  0  0
 14 45  1  0  0  0  0
 15 16  1  0  0  0  0
 15 46  1  0  0  0  0
 16 20  1  0  0  0  0
 16 17  1  0  0  0  0
 16 47  1  0  0  0  0
 17 18  1  0  0  0  0
 17 48  1  0  0  0  0
 17 49  1  0  0  0  0
 18 19  1  0  0  0  0
 18 50  1  0  0  0  0
 18 51  1  0  0  0  0
 19 20  1  0  0  0  0
 19 52  1  0  0  0  0
 19 53  1  0  0  0  0
 20 21  1  0  0  0  0
 20 54  1  0  0  0  0
 21 55  1  0  0  0  0
 22 23  1  0  0  0  0
 23 24  2  0  0  0  0
 23 56  1  0  0  0  0
 24 25  1  0  0  0  0
 26 30  1  0  0  0  0
 26 27  1  0  0  0  0
 26 57  1  0  0  0  0
 27 28  1  0  0  0  0
 27 58  1  0  0  0  0
 27 59  1  0  0  0  0
 28 29  1  0  0  0  0
 28 60  1  0  0  0  0
 28 61  1  0  0  0  0
 29 30  1  0  0  0  0
 30 62  1  0  0  0  0
 30 63  1  0  0  0  0
M  END
> <s_m_source_file>
AV-unprocessed.smi

> <i_m_source_file_index>
148

> <i_lp_mmshare_version>
43012

> <i_f3d_flags>
0

> <s_epik_input>
W0NIMl0xT1tDSDJdW0NIMl1bQ0BIXTFbQ0BIXShbQ0gyXVtPSF0pW0NIMl1uKFtjSF1uMiljKGMyMyluW2NIXW5jM040W0NIMl1bQ0gyXVtDSDJdW0NIMl1bQ0BIXTRbQ0BASF01W0NIMl1bQ0gyXVtDSDJdW0NASF01W09IXQ==

> <s_epik_cmdline>
J2VwaWtfcHl0aG9uJywgJy1waCcsICc3LjAnLCAnLXRuJywgJzgnLCAnLW1hJywgJzIwMCcsICctbWV0YWxfYmluZGluZycsICctaW1hZScsICc8aW5maWxlLm1hZT4nLCAnLW9tYWUnLCAnPG91dGZpbGUubWFlPic=

> <r_lp_tautomer_probability>
1

> <r_epik_Ionization_Penalty>
0.00556303

> <r_epik_Ionization_Penalty_Charging>
0

> <r_epik_Ionization_Penalty_Neutral>
0.00556303

> <r_epik_State_Penalty>
0.00401767

> <r_epik_Charging_Adjusted_Penalty>
0.00401767

> <i_epik_Tot_Q>
0

> <i_epik_Tot_abs_Q>
0

> <r_epik_Metal_State_Penalty>
-0

> <b_epik_Metal_Only>
0

> <s_lp_Force_Field>
OPLS_2005

> <r_lp_Energy>
68.3277

> <b_lp_Chiralities_Consistent>
1

> <s_lp_Variant>
AV-unprocessed.smi:148-31

> <Gold.Version>
5.8.1

> <Gold.Id.Protein>
6NUR|6NUR_protein|mol2

> <Gold.PLP.Fitness>
41.4248

> <Gold.PLP.PLP>
-38.3391

> <Gold.PLP.part.hbond>
-3.0000

> <Gold.PLP.part.metal>
0.0000

> <Gold.PLP.part.buried>
-5.3144

> <Gold.PLP.part.nonpolar>
-31.6656

> <Gold.PLP.part.repulsive>
0.4034

> <Gold.PLP.ligand.clash>
0.0000

> <Gold.PLP.ligand.torsion>
1.6552

> <Gold.PLP.Chemscore.Hbond>
2.0000

> <Gold.PLP.Chemscore.CHOScore>
0.0000

> <Gold.PLP.Chemscore.Metal>
0.0000

> <Gold.Chemscore.Hbonds>
donor molecule, donor type, donor heavy atom, donor atom, acceptor molecule, acceptor atom, score
      L1  H    21    55       P1  7921  1.00
      P1  H  7997  8008       L1     1  0.65

> <Gold.PLP.Chemscore.Internal.Correction>
0.3962

> <Gold.Rescore>
     Score         DG    S(hbond)    S(metal)    S(lipo)     H(rot)  DE(clash)    DE(int)     intcor
     11.52     -14.18       1.96        0.00      91.20       3.32       0.44       2.22       ----

> <Gold.Chemscore.Fitness>
11.5231

> <Gold.Chemscore.DG>
-14.1830

> <Gold.Chemscore.ZeroCoef>
-5.4800

> <Gold.Chemscore.Hbond>
1.9559

> <Gold.Chemscore.Metal>
0.0000

> <Gold.Chemscore.Lipo>
91.1979

> <Gold.Chemscore.Internal_Hbond>
0.0000

> <Gold.Chemscore.DEClash>
0.4380

> <Gold.Chemscore.DEInternal>
2.2219

> <Gold.Chemscore.Rot>
3.3203

> <Gold.Chemscore.Internal.Correction>
   9.000000E+99

> <Gold.Chemscore.Hbonds>
donor molecule, donor type, donor heavy atom, donor atom, acceptor molecule, acceptor atom, score
      L1  H    21    55       P1  7921  0.95
      P1  H  7997  8008       L1     1  0.58

> <Gold.Chemscore.Hbond.Weighted>
-6.5328

> <Gold.Chemscore.Metal.Weighted>
-0.0000

> <Gold.Chemscore.Lipo.Weighted>
-10.6702

> <Gold.Chemscore.Internal_Hbond.Weighted>
0.0000

> <Gold.Chemscore.DEClash.Weighted>
0.4380

> <Gold.Chemscore.DEInternal.Weighted>
2.2219

> <Gold.Chemscore.Rot.Weighted>
8.5000

> <Gold.Chemscore.Internal.Correction.Weighted>
   9.000000E+99

> <Gold.Protein.RotatedTorsions>
[ 6907 6896 6895 6894 ] final  145.01 input  -60.11 | X-H torsion
[ 7974 7965 7964 7962 ] final  103.45 input  175.53 | X-H torsion
[ 8008 7997 7996 7995 ] final  -15.40 input   59.86 | X-H torsion
[ 10167 10162 10161 10158 ] final  161.24 input  -65.29 | X-H torsion
[ 10718 10713 10712 10709 ] final  100.44 input   66.30 | X-H torsion
[ 10763 10752 10751 10750 ] final  -48.51 input  -60.55 | X-H torsion
[ 11005 11000 10999 10996 ] final   29.22 input  -57.11 | X-H torsion

> <Gold.Protein.ActiveResidues>
 VAL166  LYS551  ARG553  GLY616  TRP617  ASP618  TYR619  PRO620  LYS621  CYS622 
 ASP623  PHE694  ASN695  SER759  ASP760  ASP761  ALA762  ILE779  LEU786  VAL792 
 PHE793  MET794  SER795  GLU796  ALA797  LYS798  CYS799  TRP800  GLU811  SER814 

> <Gold.Protein.RotatedAtoms>
  152.1863  133.4742  159.4984 H   0  0  0  0  0  0  0  0  0  0  0  0  # atno 6907 bound_to 6896
  150.6943  134.1769  159.4243 H   0  0  0  0  0  0  0  0  0  0  0  0  # atno 6908 bound_to 6896
  151.9682  135.0089  160.0602 H   0  0  0  0  0  0  0  0  0  0  0  0  # atno 6909 bound_to 6896
  145.3457  139.2451  143.3585 H   0  0  0  0  0  0  0  0  0  0  0  0  # atno 7974 bound_to 7965
  154.5133  140.2197  155.9114 H   0  0  0  0  0  0  0  0  0  0  0  0  # atno 8008 bound_to 7997
  156.1578  140.3148  155.8721 H   0  0  0  0  0  0  0  0  0  0  0  0  # atno 8009 bound_to 7997
  155.3812  140.0472  157.3034 H   0  0  0  0  0  0  0  0  0  0  0  0  # atno 8010 bound_to 7997
  139.4847  144.4555  151.8773 H   0  0  0  0  0  0  0  0  0  0  0  0  # atno 10167 bound_to 10162
  157.6854  131.0698  150.5101 H   0  0  0  0  0  0  0  0  0  0  0  0  # atno 10718 bound_to 10713
  154.0790  135.6594  153.4835 H   0  0  0  0  0  0  0  0  0  0  0  0  # atno 10763 bound_to 10752
  153.0363  135.5175  154.7493 H   0  0  0  0  0  0  0  0  0  0  0  0  # atno 10764 bound_to 10752
  154.6582  135.3011  154.9869 H   0  0  0  0  0  0  0  0  0  0  0  0  # atno 10765 bound_to 10752
  140.3072  134.2690  155.7741 H   0  0  0  0  0  0  0  0  0  0  0  0  # atno 11005 bound_to 11000
  146.2989  140.4063  142.8711 LP  0  0  0  0  0  0  0  0  0  0  0  0  # atno 17320 bound_to 7965
  144.8756  140.7331  143.6019 LP  0  0  0  0  0  0  0  0  0  0  0  0  # atno 17321 bound_to 7965
  140.4015  144.2487  150.5893 LP  0  0  0  0  0  0  0  0  0  0  0  0  # atno 17342 bound_to 10162
  140.5053  143.2306  151.8618 LP  0  0  0  0  0  0  0  0  0  0  0  0  # atno 17343 bound_to 10162
  156.5419  130.4210  149.6150 LP  0  0  0  0  0  0  0  0  0  0  0  0  # atno 17370 bound_to 10713
  156.2978  130.7160  151.2024 LP  0  0  0  0  0  0  0  0  0  0  0  0  # atno 17371 bound_to 10713
  141.2116  133.7685  156.9854 LP  0  0  0  0  0  0  0  0  0  0  0  0  # atno 17394 bound_to 11000
  140.1056  134.9508  157.1989 LP  0  0  0  0  0  0  0  0  0  0  0  0  # atno 17395 bound_to 11000

$$$$
