AV-unprocessed.smi:1437|AV-procd|sdf|5866|dock5
  -GOLD-   22720 5543D 1   1.00000     0.00000
 Structure written by MMmdl.
 35 36  0  0  0  0  0  0  0  0  3 V2000
  153.9439  140.5098  160.2704 C   0  0  0  0  0  0  0  0  0  0  0  0
  153.0461  140.6447  159.0882 C   0  0  0  0  0  0  0  0  0  0  0  0
  152.0330  141.5102  158.7866 C   0  0  0  0  0  0  0  0  0  0  0  0
  151.6032  141.0724  157.5040 C   0  0  0  0  0  0  0  0  0  0  0  0
  150.6229  141.6214  156.7703 N   0  5  0  0  0  0  0  0  0  0  0  0
  150.1412  140.9745  155.6848 C   0  0  0  0  0  0  0  0  0  0  0  0
  150.7819  140.2557  154.9147 O   0  0  0  0  0  0  0  0  0  0  0  0
  148.8300  141.1689  155.4850 N   0  0  0  0  0  0  0  0  0  0  0  0
  148.0216  140.5907  154.4123 C   0  0  2  0  0  0  0  0  0  0  0  0
  147.4936  141.7025  153.4884 C   0  0  0  0  0  0  0  0  0  0  0  0
  146.4242  142.5660  154.1831 C   0  0  0  0  0  0  0  0  0  0  0  0
  145.3116  141.7299  154.6992 N   0  3  2  0  0  0  0  0  0  0  0  0
  144.2177  142.5430  155.2722 C   0  0  0  0  0  0  0  0  0  0  0  0
  145.7863  140.6827  155.6376 C   0  0  0  0  0  0  0  0  0  0  0  0
  146.8358  139.7774  154.9694 C   0  0  0  0  0  0  0  0  0  0  0  0
  152.3048  140.0434  157.0594 N   0  0  0  0  0  0  0  0  0  0  0  0
  153.2287  139.7591  158.0721 O   0  0  0  0  0  0  0  0  0  0  0  0
  154.6881  141.3060  160.2813 H   0  0  0  0  0  0  0  0  0  0  0  0
  154.4701  139.5551  160.2577 H   0  0  0  0  0  0  0  0  0  0  0  0
  153.3726  140.5673  161.1969 H   0  0  0  0  0  0  0  0  0  0  0  0
  151.6568  142.3244  159.3877 H   0  0  0  0  0  0  0  0  0  0  0  0
  148.3554  141.7748  156.1381 H   0  0  0  0  0  0  0  0  0  0  0  0
  148.6611  139.9316  153.8225 H   0  0  0  0  0  0  0  0  0  0  0  0
  148.3166  142.3300  153.1436 H   0  0  0  0  0  0  0  0  0  0  0  0
  147.0625  141.2511  152.5938 H   0  0  0  0  0  0  0  0  0  0  0  0
  146.8676  143.1317  155.0042 H   0  0  0  0  0  0  0  0  0  0  0  0
  146.0321  143.2961  153.4741 H   0  0  0  0  0  0  0  0  0  0  0  0
  144.5610  143.0997  156.1452 H   0  0  0  0  0  0  0  0  0  0  0  0
  143.3850  141.9082  155.5767 H   0  0  0  0  0  0  0  0  0  0  0  0
  143.8411  143.2554  154.5374 H   0  0  0  0  0  0  0  0  0  0  0  0
  146.2023  141.1503  156.5316 H   0  0  0  0  0  0  0  0  0  0  0  0
  144.9412  140.0759  155.9643 H   0  0  0  0  0  0  0  0  0  0  0  0
  146.3650  139.2279  154.1532 H   0  0  0  0  0  0  0  0  0  0  0  0
  147.1829  139.0236  155.6769 H   0  0  0  0  0  0  0  0  0  0  0  0
  144.9232  141.2459  153.9024 H   0  0  0  0  0  0  0  0  0  0  0  0
  1  2  1  0  0  0  0
  1 18  1  0  0  0  0
  1 19  1  0  0  0  0
  1 20  1  0  0  0  0
  2 17  1  0  0  0  0
  2  3  2  0  0  0  0
  3  4  1  0  0  0  0
  3 21  1  0  0  0  0
  4  5  1  0  0  0  0
  4 16  2  0  0  0  0
  5  6  1  0  0  0  0
  6  7  2  0  0  0  0
  6  8  1  0  0  0  0
  8  9  1  0  0  0  0
  8 22  1  0  0  0  0
  9 15  1  0  0  0  0
  9 10  1  0  0  0  0
  9 23  1  0  0  0  0
 10 11  1  0  0  0  0
 10 24  1  0  0  0  0
 10 25  1  0  0  0  0
 11 12  1  0  0  0  0
 11 26  1  0  0  0  0
 11 27  1  0  0  0  0
 12 13  1  0  0  0  0
 12 14  1  0  0  0  0
 12 35  1  0  0  0  0
 13 28  1  0  0  0  0
 13 29  1  0  0  0  0
 13 30  1  0  0  0  0
 14 15  1  0  0  0  0
 14 31  1  0  0  0  0
 14 32  1  0  0  0  0
 15 33  1  0  0  0  0
 15 34  1  0  0  0  0
 16 17  1  0  0  0  0
M  CHG  1   5  -1
M  CHG  1  12   1
M  END
> <s_m_source_file>
AV-unprocessed.smi

> <i_m_source_file_index>
1437

> <i_lp_mmshare_version>
43012

> <i_f3d_flags>
0

> <s_epik_input>
W0NIM11jMVtjSF1jKG5vMSlbTkhdQyg9TylbTkhdW0NIXTJbQ0gyXVtDSDJdTihbQ0gzXSlbQ0gyXVtDSDJdMg==

> <s_epik_cmdline>
J2VwaWtfcHl0aG9uJywgJy1waCcsICc3LjAnLCAnLXRuJywgJzgnLCAnLW1hJywgJzIwMCcsICctbWV0YWxfYmluZGluZycsICctaW1hZScsICc8aW5maWxlLm1hZT4nLCAnLW9tYWUnLCAnPG91dGZpbGUubWFlPic=

> <r_epik_Ionization_Penalty>
6.28535

> <r_epik_Ionization_Penalty_Charging>
6.28525

> <r_epik_Ionization_Penalty_Neutral>
9.66055e-05

> <r_epik_State_Penalty>
6.28414

> <r_epik_Charging_Adjusted_Penalty>
12.5694

> <i_epik_Tot_Q>
0

> <i_epik_Tot_abs_Q>
2

> <r_epik_Metal_State_Penalty>
2.21724

> <b_epik_Metal_Only>
1

> <s_lp_Force_Field>
OPLS_2005

> <r_lp_Energy>
2.0091

> <b_lp_Chiralities_Consistent>
1

> <s_lp_Variant>
AV-unprocessed.smi:1437-4

> <Gold.Version>
5.8.1

> <Gold.Id.Protein>
6NUR|6NUR_protein|mol2

> <Gold.PLP.Fitness>
37.2877

> <Gold.PLP.PLP>
-25.8521

> <Gold.PLP.part.hbond>
-3.9273

> <Gold.PLP.part.metal>
0.0000

> <Gold.PLP.part.buried>
-5.5553

> <Gold.PLP.part.nonpolar>
-17.1859

> <Gold.PLP.part.repulsive>
0.2130

> <Gold.PLP.ligand.clash>
0.0000

> <Gold.PLP.ligand.torsion>
0.2863

> <Gold.PLP.Chemscore.Hbond>
4.0000

> <Gold.PLP.Chemscore.CHOScore>
0.0000

> <Gold.PLP.Chemscore.Metal>
0.0000

> <Gold.Chemscore.Hbonds>
donor molecule, donor type, donor heavy atom, donor atom, acceptor molecule, acceptor atom, score
      L1  H    12    35       P1 10175  2.00
      P1  H  7989  7998       L1     7  1.00
      P1  H  7997  8008       L1    17  1.00

> <Gold.PLP.Chemscore.Internal.Correction>
0.0083

> <Gold.Rescore>
     Score         DG    S(hbond)    S(metal)    S(lipo)     H(rot)  DE(clash)    DE(int)     intcor
     14.97     -16.88       2.46        0.00      48.95       1.00       0.00       1.91       ----

> <Gold.Chemscore.Fitness>
14.9653

> <Gold.Chemscore.DG>
-16.8803

> <Gold.Chemscore.ZeroCoef>
-5.4800

> <Gold.Chemscore.Hbond>
2.4649

> <Gold.Chemscore.Metal>
0.0000

> <Gold.Chemscore.Lipo>
48.9528

> <Gold.Chemscore.Internal_Hbond>
0.0000

> <Gold.Chemscore.DEClash>
0.0009

> <Gold.Chemscore.DEInternal>
1.9141

> <Gold.Chemscore.Rot>
1.0000

> <Gold.Chemscore.Internal.Correction>
   9.000000E+99

> <Gold.Chemscore.Hbonds>
donor molecule, donor type, donor heavy atom, donor atom, acceptor molecule, acceptor atom, score
      L1  H    12    35       P1 10175  0.52
      P1  H  7989  7998       L1     7  0.99
      P1  H  7997  8008       L1    17  0.21

> <Gold.Chemscore.Hbond.Weighted>
-8.2329

> <Gold.Chemscore.Metal.Weighted>
-0.0000

> <Gold.Chemscore.Lipo.Weighted>
-5.7275

> <Gold.Chemscore.Internal_Hbond.Weighted>
0.0000

> <Gold.Chemscore.DEClash.Weighted>
0.0009

> <Gold.Chemscore.DEInternal.Weighted>
1.9141

> <Gold.Chemscore.Rot.Weighted>
2.5600

> <Gold.Chemscore.Internal.Correction.Weighted>
   9.000000E+99

> <Gold.Protein.RotatedTorsions>
[ 6907 6896 6895 6894 ] final  -54.95 input  -60.11 | X-H torsion
[ 7974 7965 7964 7962 ] final   20.05 input  175.53 | X-H torsion
[ 8008 7997 7996 7995 ] final  -99.15 input   59.86 | X-H torsion
[ 10167 10162 10161 10158 ] final  -88.45 input  -65.29 | X-H torsion
[ 10718 10713 10712 10709 ] final   57.56 input   66.30 | X-H torsion
[ 10763 10752 10751 10750 ] final  -16.04 input  -60.55 | X-H torsion
[ 11005 11000 10999 10996 ] final  140.76 input  -57.11 | X-H torsion

> <Gold.Protein.ActiveResidues>
 VAL166  LYS551  ARG553  GLY616  TRP617  ASP618  TYR619  PRO620  LYS621  CYS622 
 ASP623  PHE694  ASN695  SER759  ASP760  ASP761  ALA762  ILE779  LEU786  VAL792 
 PHE793  MET794  SER795  GLU796  ALA797  LYS798  CYS799  TRP800  GLU811  SER814 

> <Gold.Protein.RotatedAtoms>
  150.8294  134.7540  159.6840 H   0  0  0  0  0  0  0  0  0  0  0  0  # atno 6907 bound_to 6896
  152.4400  134.5606  159.9903 H   0  0  0  0  0  0  0  0  0  0  0  0  # atno 6908 bound_to 6896
  151.5771  133.3345  159.3037 H   0  0  0  0  0  0  0  0  0  0  0  0  # atno 6909 bound_to 6896
  146.2126  139.8225  142.8677 H   0  0  0  0  0  0  0  0  0  0  0  0  # atno 7974 bound_to 7965
  154.8108  140.0450  157.1341 H   0  0  0  0  0  0  0  0  0  0  0  0  # atno 8008 bound_to 7997
  154.9370  140.3047  155.5119 H   0  0  0  0  0  0  0  0  0  0  0  0  # atno 8009 bound_to 7997
  156.2971  140.2312  156.4436 H   0  0  0  0  0  0  0  0  0  0  0  0  # atno 8010 bound_to 7997
  140.3746  143.2778  151.9459 H   0  0  0  0  0  0  0  0  0  0  0  0  # atno 10167 bound_to 10162
  157.5524  130.8775  149.8984 H   0  0  0  0  0  0  0  0  0  0  0  0  # atno 10718 bound_to 10713
  153.5524  135.7011  153.5585 H   0  0  0  0  0  0  0  0  0  0  0  0  # atno 10763 bound_to 10752
  153.3503  135.3997  155.1640 H   0  0  0  0  0  0  0  0  0  0  0  0  # atno 10764 bound_to 10752
  154.8659  135.3764  154.5036 H   0  0  0  0  0  0  0  0  0  0  0  0  # atno 10765 bound_to 10752
  140.0351  134.9333  157.0736 H   0  0  0  0  0  0  0  0  0  0  0  0  # atno 11005 bound_to 11000
  145.3081  141.0212  143.3570 LP  0  0  0  0  0  0  0  0  0  0  0  0  # atno 17320 bound_to 7965
  144.8956  139.4717  143.6657 LP  0  0  0  0  0  0  0  0  0  0  0  0  # atno 17321 bound_to 7965
  139.4800  144.5876  151.7828 LP  0  0  0  0  0  0  0  0  0  0  0  0  # atno 17342 bound_to 10162
  140.4999  144.1184  150.5969 LP  0  0  0  0  0  0  0  0  0  0  0  0  # atno 17343 bound_to 10162
  156.0589  130.3703  150.1028 LP  0  0  0  0  0  0  0  0  0  0  0  0  # atno 17370 bound_to 10713
  156.9200  130.9679  151.3550 LP  0  0  0  0  0  0  0  0  0  0  0  0  # atno 17371 bound_to 10713
  140.4161  134.1929  155.7163 LP  0  0  0  0  0  0  0  0  0  0  0  0  # atno 17394 bound_to 11000
  141.1852  133.8327  157.1111 LP  0  0  0  0  0  0  0  0  0  0  0  0  # atno 17395 bound_to 11000

$$$$
