AV-unprocessed.smi:1508|AV-procd|sdf|6087|dock6
  -GOLD-   22720 6213D 1   1.00000     0.00000
 Structure written by MMmdl.
 38 39  0  0  0  0  0  0  0  0  2 V2000
  148.7285  132.9488  154.0840 C   0  0  0  0  0  0  0  0  0  0  0  0
  147.8933  133.1701  152.8139 C   0  0  0  0  0  0  0  0  0  0  0  0
  146.3833  133.4271  153.0710 C   0  0  1  0  0  0  0  0  0  0  0  0
  146.1363  134.7404  153.8667 C   0  0  0  0  0  0  0  0  0  0  0  0
  147.1377  135.7738  153.6044 N   0  0  0  0  0  0  0  0  0  0  0  0
  147.2148  136.9614  154.2217 C   0  0  0  0  0  0  0  0  0  0  0  0
  146.4372  137.3183  155.1054 O   0  0  0  0  0  0  0  0  0  0  0  0
  148.2421  137.6868  153.7513 N   0  0  0  0  0  0  0  0  0  0  0  0
  148.6569  138.9785  154.1621 C   0  0  0  0  0  0  0  0  0  0  0  0
  149.9671  139.1929  154.3278 N   0  0  0  0  0  0  0  0  0  0  0  0
  150.2342  140.4955  154.7307 N   0  0  0  0  0  0  0  0  0  0  0  0
  149.1134  141.2134  154.8528 C   0  0  0  0  0  0  0  0  0  0  0  0
  147.6186  140.3690  154.4903 S   0  0  0  0  0  0  0  0  0  0  0  0
  145.5982  133.4195  151.7985 N   0  3  0  0  0  0  0  0  0  0  0  0
  145.8446  132.2838  150.8827 C   0  0  0  0  0  0  0  0  0  0  0  0
  144.6310  132.2476  149.9615 C   0  0  0  0  0  0  0  0  0  0  0  0
  143.4829  132.6287  150.8880 C   0  0  0  0  0  0  0  0  0  0  0  0
  144.1247  133.5112  151.9673 C   0  0  0  0  0  0  0  0  0  0  0  0
  149.7486  132.6643  153.8254 H   0  0  0  0  0  0  0  0  0  0  0  0
  148.3100  132.1505  154.6975 H   0  0  0  0  0  0  0  0  0  0  0  0
  148.7948  133.8462  154.6971 H   0  0  0  0  0  0  0  0  0  0  0  0
  148.3233  133.9825  152.2278 H   0  0  0  0  0  0  0  0  0  0  0  0
  148.0222  132.2710  152.2127 H   0  0  0  0  0  0  0  0  0  0  0  0
  146.0170  132.5978  153.6786 H   0  0  0  0  0  0  0  0  0  0  0  0
  145.1721  135.1631  153.5855 H   0  0  0  0  0  0  0  0  0  0  0  0
  146.0438  134.5508  154.9359 H   0  0  0  0  0  0  0  0  0  0  0  0
  147.8124  135.5769  152.8796 H   0  0  0  0  0  0  0  0  0  0  0  0
  148.7959  137.2690  153.0182 H   0  0  0  0  0  0  0  0  0  0  0  0
  149.1675  142.2477  155.1588 H   0  0  0  0  0  0  0  0  0  0  0  0
  146.7714  132.4037  150.3208 H   0  0  0  0  0  0  0  0  0  0  0  0
  145.9042  131.3548  151.4528 H   0  0  0  0  0  0  0  0  0  0  0  0
  144.7393  132.9980  149.1774 H   0  0  0  0  0  0  0  0  0  0  0  0
  144.4884  131.2779  149.4836 H   0  0  0  0  0  0  0  0  0  0  0  0
  142.6734  133.1338  150.3598 H   0  0  0  0  0  0  0  0  0  0  0  0
  143.0671  131.7304  151.3470 H   0  0  0  0  0  0  0  0  0  0  0  0
  143.8092  133.1652  152.9527 H   0  0  0  0  0  0  0  0  0  0  0  0
  143.8141  134.5515  151.8662 H   0  0  0  0  0  0  0  0  0  0  0  0
  145.8701  134.2447  151.2835 H   0  0  0  0  0  0  0  0  0  0  0  0
  1  2  1  0  0  0  0
  1 19  1  0  0  0  0
  1 20  1  0  0  0  0
  1 21  1  0  0  0  0
  2  3  1  0  0  0  0
  2 22  1  0  0  0  0
  2 23  1  0  0  0  0
  3  4  1  0  0  0  0
  3 14  1  0  0  0  0
  3 24  1  0  0  0  0
  4  5  1  0  0  0  0
  4 25  1  0  0  0  0
  4 26  1  0  0  0  0
  5  6  1  0  0  0  0
  5 27  1  0  0  0  0
  6  7  2  0  0  0  0
  6  8  1  0  0  0  0
  8  9  1  0  0  0  0
  8 28  1  0  0  0  0
  9 13  1  0  0  0  0
  9 10  2  0  0  0  0
 10 11  1  0  0  0  0
 11 12  2  0  0  0  0
 12 13  1  0  0  0  0
 12 29  1  0  0  0  0
 14 18  1  0  0  0  0
 14 15  1  0  0  0  0
 14 38  1  0  0  0  0
 15 16  1  0  0  0  0
 15 30  1  0  0  0  0
 15 31  1  0  0  0  0
 16 17  1  0  0  0  0
 16 32  1  0  0  0  0
 16 33  1  0  0  0  0
 17 18  1  0  0  0  0
 17 34  1  0  0  0  0
 17 35  1  0  0  0  0
 18 36  1  0  0  0  0
 18 37  1  0  0  0  0
M  CHG  1  14   1
M  END
> <s_m_source_file>
AV-unprocessed.smi

> <i_m_source_file_index>
1508

> <i_lp_mmshare_version>
43012

> <i_f3d_flags>
0

> <s_epik_input>
W0NIMl0xW0NIMl1bQ0gyXVtDSDJdTjFbQ0BIXShbQ0gyXVtDSDNdKVtDSDJdW05IXUMoPU8pW05IXWMybm5bY0hdczI=

> <s_epik_cmdline>
J2VwaWtfcHl0aG9uJywgJy1waCcsICc3LjAnLCAnLXRuJywgJzgnLCAnLW1hJywgJzIwMCcsICctbWV0YWxfYmluZGluZycsICctaW1hZScsICc8aW5maWxlLm1hZT4nLCAnLW9tYWUnLCAnPG91dGZpbGUubWFlPic=

> <r_lp_tautomer_probability>
1

> <r_epik_Ionization_Penalty>
0.00193711

> <r_epik_Ionization_Penalty_Charging>
0.00115997

> <r_epik_Ionization_Penalty_Neutral>
0.000777142

> <r_epik_State_Penalty>
-0

> <r_epik_Charging_Adjusted_Penalty>
0.00115997

> <i_epik_Tot_Q>
1

> <i_epik_Tot_abs_Q>
1

> <r_epik_Metal_State_Penalty>
0.264283

> <b_epik_Metal_Only>
0

> <s_lp_Force_Field>
OPLS_2005

> <r_lp_Energy>
37.6611

> <b_lp_Chiralities_Consistent>
1

> <s_lp_Variant>
AV-unprocessed.smi:1508-2

> <Gold.Version>
5.8.1

> <Gold.Id.Protein>
6NUR|6NUR_protein|mol2

> <Gold.PLP.Fitness>
38.1619

> <Gold.PLP.PLP>
-28.5253

> <Gold.PLP.part.hbond>
-2.7699

> <Gold.PLP.part.metal>
0.0000

> <Gold.PLP.part.buried>
-4.3859

> <Gold.PLP.part.nonpolar>
-22.3870

> <Gold.PLP.part.repulsive>
0.3419

> <Gold.PLP.ligand.clash>
0.0000

> <Gold.PLP.ligand.torsion>
0.8574

> <Gold.PLP.Chemscore.Hbond>
2.7648

> <Gold.PLP.Chemscore.CHOScore>
1.0000

> <Gold.PLP.Chemscore.Metal>
0.0000

> <Gold.Chemscore.Hbonds>
donor molecule, donor type, donor heavy atom, donor atom, acceptor molecule, acceptor atom, score
      L1  H     5    27       P1  7948  0.93
      L1  H     8    28       P1  7948  1.00
      P1  H  7989  7998       L1    11  0.86
      L1  C    12    29       P1  8028  1.00

> <Gold.PLP.Chemscore.Internal.Correction>
0.0569

> <Gold.Rescore>
     Score         DG    S(hbond)    S(metal)    S(lipo)     H(rot)  DE(clash)    DE(int)     intcor
     14.75     -15.62       2.45        0.00      58.20       1.89       0.06       0.82       ----

> <Gold.Chemscore.Fitness>
14.7476

> <Gold.Chemscore.DG>
-15.6204

> <Gold.Chemscore.ZeroCoef>
-5.4800

> <Gold.Chemscore.Hbond>
2.4498

> <Gold.Chemscore.Metal>
0.0000

> <Gold.Chemscore.Lipo>
58.1983

> <Gold.Chemscore.Internal_Hbond>
0.0000

> <Gold.Chemscore.DEClash>
0.0556

> <Gold.Chemscore.DEInternal>
0.8171

> <Gold.Chemscore.Rot>
1.8950

> <Gold.Chemscore.Internal.Correction>
   9.000000E+99

> <Gold.Chemscore.Hbonds>
donor molecule, donor type, donor heavy atom, donor atom, acceptor molecule, acceptor atom, score
      L1  H     5    27       P1  7948  0.91
      L1  H     8    28       P1  7948  0.91
      P1  H  7989  7998       L1    11  0.16

> <Gold.Chemscore.Hbond.Weighted>
-8.1823

> <Gold.Chemscore.Metal.Weighted>
-0.0000

> <Gold.Chemscore.Lipo.Weighted>
-6.8092

> <Gold.Chemscore.Internal_Hbond.Weighted>
0.0000

> <Gold.Chemscore.DEClash.Weighted>
0.0556

> <Gold.Chemscore.DEInternal.Weighted>
0.8171

> <Gold.Chemscore.Rot.Weighted>
4.8511

> <Gold.Chemscore.Internal.Correction.Weighted>
   9.000000E+99

> <Gold.Protein.RotatedTorsions>
[ 6907 6896 6895 6894 ] final  123.33 input  -60.11 | X-H torsion
[ 7974 7965 7964 7962 ] final   57.14 input  175.53 | X-H torsion
[ 8008 7997 7996 7995 ] final  -34.87 input   59.86 | X-H torsion
[ 10167 10162 10161 10158 ] final   62.29 input  -65.29 | X-H torsion
[ 10718 10713 10712 10709 ] final  117.96 input   66.30 | X-H torsion
[ 10763 10752 10751 10750 ] final  103.09 input  -60.55 | X-H torsion
[ 11005 11000 10999 10996 ] final  169.25 input  -57.11 | X-H torsion

> <Gold.Protein.ActiveResidues>
 VAL166  LYS551  ARG553  GLY616  TRP617  ASP618  TYR619  PRO620  LYS621  CYS622 
 ASP623  PHE694  ASN695  SER759  ASP760  ASP761  ALA762  ILE779  LEU786  VAL792 
 PHE793  MET794  SER795  GLU796  ALA797  LYS798  CYS799  TRP800  GLU811  SER814 

> <Gold.Protein.RotatedAtoms>
  152.4170  133.7055  159.6448 H   0  0  0  0  0  0  0  0  0  0  0  0  # atno 6907 bound_to 6896
  150.8047  133.8521  159.3217 H   0  0  0  0  0  0  0  0  0  0  0  0  # atno 6908 bound_to 6896
  151.6248  135.1030  160.0161 H   0  0  0  0  0  0  0  0  0  0  0  0  # atno 6909 bound_to 6896
  145.9322  139.3817  143.0414 H   0  0  0  0  0  0  0  0  0  0  0  0  # atno 7974 bound_to 7965
  154.4109  140.1672  156.2119 H   0  0  0  0  0  0  0  0  0  0  0  0  # atno 8008 bound_to 7997
  155.9436  140.3406  155.6325 H   0  0  0  0  0  0  0  0  0  0  0  0  # atno 8009 bound_to 7997
  155.6958  140.0739  157.2421 H   0  0  0  0  0  0  0  0  0  0  0  0  # atno 8010 bound_to 7997
  140.1456  144.4512  150.6787 H   0  0  0  0  0  0  0  0  0  0  0  0  # atno 10167 bound_to 10162
  157.6062  131.1043  150.7689 H   0  0  0  0  0  0  0  0  0  0  0  0  # atno 10718 bound_to 10713
  153.3480  135.3988  155.1624 H   0  0  0  0  0  0  0  0  0  0  0  0  # atno 10763 bound_to 10752
  154.8657  135.3650  154.5258 H   0  0  0  0  0  0  0  0  0  0  0  0  # atno 10764 bound_to 10752
  153.5708  135.7079  153.5565 H   0  0  0  0  0  0  0  0  0  0  0  0  # atno 10765 bound_to 10752
  140.2958  134.7636  157.3876 H   0  0  0  0  0  0  0  0  0  0  0  0  # atno 11005 bound_to 11000
  145.8411  140.9580  143.0799 LP  0  0  0  0  0  0  0  0  0  0  0  0  # atno 17320 bound_to 7965
  144.6766  140.0285  143.7483 LP  0  0  0  0  0  0  0  0  0  0  0  0  # atno 17321 bound_to 7965
  140.6734  143.2295  151.5568 LP  0  0  0  0  0  0  0  0  0  0  0  0  # atno 17342 bound_to 10162
  139.5451  144.2543  152.1426 LP  0  0  0  0  0  0  0  0  0  0  0  0  # atno 17343 bound_to 10162
  156.8077  130.4942  149.5360 LP  0  0  0  0  0  0  0  0  0  0  0  0  # atno 17370 bound_to 10713
  156.1149  130.6067  151.0105 LP  0  0  0  0  0  0  0  0  0  0  0  0  # atno 17371 bound_to 10713
  140.1154  134.5291  155.8230 LP  0  0  0  0  0  0  0  0  0  0  0  0  # atno 17394 bound_to 11000
  141.2137  133.6738  156.6766 LP  0  0  0  0  0  0  0  0  0  0  0  0  # atno 17395 bound_to 11000

$$$$
