AV-unprocessed.smi:3034|AV-procd|sdf|11577|dock1
  -GOLD-   2272016543D 1   1.00000     0.00000
 Structure written by MMmdl.
 32 32  0  0  0  0  0  0  0  0  1 V2000
  147.1772  141.7884  154.0538 C   0  0  0  0  0  0  0  0  0  0  0  0
  148.4905  141.5895  154.8176 C   0  0  0  0  0  0  0  0  0  0  0  0
  149.1133  140.2096  154.5702 C   0  0  0  0  0  0  0  0  0  0  0  0
  150.5007  139.8977  155.7393 S   0  0  0  0  0  0  0  0  0  0  0  0
  150.1090  138.8311  156.6731 O   0  0  0  0  0  0  0  0  0  0  0  0
  151.7461  139.7743  154.9663 O   0  0  0  0  0  0  0  0  0  0  0  0
  150.5797  141.3675  156.6329 N   0  0  0  0  0  0  0  0  0  0  0  0
  150.8296  141.2738  158.0716 C   0  0  0  0  0  0  0  0  0  0  0  0
  152.3276  141.4394  158.3819 C   0  0  2  0  0  0  0  0  0  0  0  0
  152.9538  140.1738  158.2812 O   0  0  0  0  0  0  0  0  0  0  0  0
  152.5337  142.0603  159.7571 C   0  0  0  0  0  0  0  0  0  0  0  0
  153.3268  141.4034  160.7230 C   0  0  0  0  0  0  0  0  0  0  0  0
  153.5091  142.0183  161.9767 C   0  0  0  0  0  0  0  0  0  0  0  0
  152.8958  143.2623  162.2179 C   0  0  0  0  0  0  0  0  0  0  0  0
  152.1239  143.8386  161.1899 C   0  0  0  0  0  0  0  0  0  0  0  0
  151.9436  143.2576  159.9845 N   0  0  0  0  0  0  0  0  0  0  0  0
  146.7512  142.7696  154.2648 H   0  0  0  0  0  0  0  0  0  0  0  0
  146.4389  141.0373  154.3361 H   0  0  0  0  0  0  0  0  0  0  0  0
  147.3338  141.7184  152.9771 H   0  0  0  0  0  0  0  0  0  0  0  0
  149.1973  142.3665  154.5249 H   0  0  0  0  0  0  0  0  0  0  0  0
  148.3112  141.7214  155.8851 H   0  0  0  0  0  0  0  0  0  0  0  0
  148.3717  139.4219  154.7051 H   0  0  0  0  0  0  0  0  0  0  0  0
  149.5012  140.1324  153.5542 H   0  0  0  0  0  0  0  0  0  0  0  0
  149.7649  141.9502  156.4437 H   0  0  0  0  0  0  0  0  0  0  0  0
  150.2690  142.0729  158.5589 H   0  0  0  0  0  0  0  0  0  0  0  0
  150.4425  140.3303  158.4589 H   0  0  0  0  0  0  0  0  0  0  0  0
  152.7844  142.0946  157.6386 H   0  0  0  0  0  0  0  0  0  0  0  0
  152.7764  139.6894  159.0728 H   0  0  0  0  0  0  0  0  0  0  0  0
  153.7902  140.4514  160.5093 H   0  0  0  0  0  0  0  0  0  0  0  0
  154.1107  141.5453  162.7386 H   0  0  0  0  0  0  0  0  0  0  0  0
  153.0150  143.7634  163.1671 H   0  0  0  0  0  0  0  0  0  0  0  0
  151.6398  144.7924  161.3395 H   0  0  0  0  0  0  0  0  0  0  0  0
  1  2  1  0  0  0  0
  1 17  1  0  0  0  0
  1 18  1  0  0  0  0
  1 19  1  0  0  0  0
  2  3  1  0  0  0  0
  2 20  1  0  0  0  0
  2 21  1  0  0  0  0
  3  4  1  0  0  0  0
  3 22  1  0  0  0  0
  3 23  1  0  0  0  0
  4  5  2  0  0  0  0
  4  6  2  0  0  0  0
  4  7  1  0  0  0  0
  7  8  1  0  0  0  0
  7 24  1  0  0  0  0
  8  9  1  0  0  0  0
  8 25  1  0  0  0  0
  8 26  1  0  0  0  0
  9 10  1  0  0  0  0
  9 11  1  0  0  0  0
  9 27  1  0  0  0  0
 10 28  1  0  0  0  0
 11 16  1  0  0  0  0
 11 12  2  0  0  0  0
 12 13  1  0  0  0  0
 12 29  1  0  0  0  0
 13 14  2  0  0  0  0
 13 30  1  0  0  0  0
 14 15  1  0  0  0  0
 14 31  1  0  0  0  0
 15 16  2  0  0  0  0
 15 32  1  0  0  0  0
M  END
> <s_m_source_file>
AV-unprocessed.smi

> <i_m_source_file_index>
3034

> <i_lp_mmshare_version>
43012

> <i_f3d_flags>
0

> <s_epik_input>
W0NIM11bQ0gyXVtDSDJdUyg9TykoPU8pW05IXVtDSDJdW0NASF0oW09IXSljMVtjSF1bY0hdW2NIXVtjSF1uMQ==

> <s_epik_cmdline>
J2VwaWtfcHl0aG9uJywgJy1waCcsICc3LjAnLCAnLXRuJywgJzgnLCAnLW1hJywgJzIwMCcsICctbWV0YWxfYmluZGluZycsICctaW1hZScsICc8aW5maWxlLm1hZT4nLCAnLW9tYWUnLCAnPG91dGZpbGUubWFlPic=

> <r_epik_Ionization_Penalty>
0.00187371

> <r_epik_Ionization_Penalty_Charging>
0

> <r_epik_Ionization_Penalty_Neutral>
0.00187371

> <r_epik_State_Penalty>
0.0012608

> <r_epik_Charging_Adjusted_Penalty>
0.0012608

> <i_epik_Tot_Q>
0

> <i_epik_Tot_abs_Q>
0

> <r_epik_Metal_State_Penalty>
0.0168387

> <b_epik_Metal_Only>
0

> <s_lp_Force_Field>
OPLS_2005

> <r_lp_Energy>
4.86563

> <b_lp_Chiralities_Consistent>
1

> <s_lp_Variant>
AV-unprocessed.smi:3034-1

> <Gold.Version>
5.8.1

> <Gold.Id.Protein>
6NUR|6NUR_protein|mol2

> <Gold.PLP.Fitness>
41.9481

> <Gold.PLP.PLP>
-38.3578

> <Gold.PLP.part.hbond>
-2.0000

> <Gold.PLP.part.metal>
0.0000

> <Gold.PLP.part.buried>
-5.3793

> <Gold.PLP.part.nonpolar>
-29.4273

> <Gold.PLP.part.repulsive>
0.0516

> <Gold.PLP.ligand.clash>
0.0000

> <Gold.PLP.ligand.torsion>
1.0806

> <Gold.PLP.Chemscore.Hbond>
1.8560

> <Gold.PLP.Chemscore.CHOScore>
0.0000

> <Gold.PLP.Chemscore.Metal>
0.0000

> <Gold.Chemscore.Hbonds>
donor molecule, donor type, donor heavy atom, donor atom, acceptor molecule, acceptor atom, score
      P1  H  7989  7998       L1     6  1.00
      P1  H  7997  8008       L1    10  0.92

> <Gold.PLP.Chemscore.Internal.Correction>
0.1835

> <Gold.Rescore>
     Score         DG    S(hbond)    S(metal)    S(lipo)     H(rot)  DE(clash)    DE(int)     intcor
     14.33     -15.20       1.84        0.00      87.90       2.63       0.01       0.86       ----

> <Gold.Chemscore.Fitness>
14.3251

> <Gold.Chemscore.DG>
-15.1957

> <Gold.Chemscore.ZeroCoef>
-5.4800

> <Gold.Chemscore.Hbond>
1.8436

> <Gold.Chemscore.Metal>
0.0000

> <Gold.Chemscore.Lipo>
87.9011

> <Gold.Chemscore.Internal_Hbond>
0.0000

> <Gold.Chemscore.DEClash>
0.0098

> <Gold.Chemscore.DEInternal>
0.8608

> <Gold.Chemscore.Rot>
2.6275

> <Gold.Chemscore.Internal.Correction>
   9.000000E+99

> <Gold.Chemscore.Hbonds>
donor molecule, donor type, donor heavy atom, donor atom, acceptor molecule, acceptor atom, score
      P1  H  7989  7998       L1     6  0.72
      P1  H  7997  8008       L1    10  0.78

> <Gold.Chemscore.Hbond.Weighted>
-6.1578

> <Gold.Chemscore.Metal.Weighted>
-0.0000

> <Gold.Chemscore.Lipo.Weighted>
-10.2844

> <Gold.Chemscore.Internal_Hbond.Weighted>
0.0000

> <Gold.Chemscore.DEClash.Weighted>
0.0098

> <Gold.Chemscore.DEInternal.Weighted>
0.8608

> <Gold.Chemscore.Rot.Weighted>
6.7265

> <Gold.Chemscore.Internal.Correction.Weighted>
   9.000000E+99

> <Gold.Protein.RotatedTorsions>
[ 6907 6896 6895 6894 ] final  -77.29 input  -60.11 | X-H torsion
[ 7974 7965 7964 7962 ] final  -61.79 input  175.53 | X-H torsion
[ 8008 7997 7996 7995 ] final  -81.17 input   59.86 | X-H torsion
[ 10167 10162 10161 10158 ] final  133.01 input  -65.29 | X-H torsion
[ 10718 10713 10712 10709 ] final   41.40 input   66.30 | X-H torsion
[ 10763 10752 10751 10750 ] final  -26.87 input  -60.55 | X-H torsion
[ 11005 11000 10999 10996 ] final -136.54 input  -57.11 | X-H torsion

> <Gold.Protein.ActiveResidues>
 VAL166  LYS551  ARG553  GLY616  TRP617  ASP618  TYR619  PRO620  LYS621  CYS622 
 ASP623  PHE694  ASN695  SER759  ASP760  ASP761  ALA762  ILE779  LEU786  VAL792 
 PHE793  MET794  SER795  GLU796  ALA797  LYS798  CYS799  TRP800  GLU811  SER814 

> <Gold.Protein.RotatedAtoms>
  150.7003  134.4445  159.5307 H   0  0  0  0  0  0  0  0  0  0  0  0  # atno 6907 bound_to 6896
  152.2149  134.8464  160.0502 H   0  0  0  0  0  0  0  0  0  0  0  0  # atno 6908 bound_to 6896
  151.9336  133.3583  159.3976 H   0  0  0  0  0  0  0  0  0  0  0  0  # atno 6909 bound_to 6896
  145.7992  140.8665  143.0240 H   0  0  0  0  0  0  0  0  0  0  0  0  # atno 7974 bound_to 7965
  154.5956  140.0652  156.9299 H   0  0  0  0  0  0  0  0  0  0  0  0  # atno 8008 bound_to 7997
  155.2220  140.3331  155.4296 H   0  0  0  0  0  0  0  0  0  0  0  0  # atno 8009 bound_to 7997
  156.2285  140.1830  156.7287 H   0  0  0  0  0  0  0  0  0  0  0  0  # atno 8010 bound_to 7997
  139.5315  144.6636  151.4933 H   0  0  0  0  0  0  0  0  0  0  0  0  # atno 10167 bound_to 10162
  157.3931  130.7818  149.7286 H   0  0  0  0  0  0  0  0  0  0  0  0  # atno 10718 bound_to 10713
  153.7229  135.6943  153.5008 H   0  0  0  0  0  0  0  0  0  0  0  0  # atno 10763 bound_to 10752
  153.2191  135.4376  155.0467 H   0  0  0  0  0  0  0  0  0  0  0  0  # atno 10764 bound_to 10752
  154.8278  135.3456  154.6762 H   0  0  0  0  0  0  0  0  0  0  0  0  # atno 10765 bound_to 10752
  140.8796  134.1949  157.4600 H   0  0  0  0  0  0  0  0  0  0  0  0  # atno 11005 bound_to 11000
  144.6771  140.0234  143.7483 LP  0  0  0  0  0  0  0  0  0  0  0  0  # atno 17320 bound_to 7965
  145.9896  139.3004  143.0993 LP  0  0  0  0  0  0  0  0  0  0  0  0  # atno 17321 bound_to 7965
  140.6496  143.8723  150.6772 LP  0  0  0  0  0  0  0  0  0  0  0  0  # atno 17342 bound_to 10162
  140.2084  143.3903  152.1737 LP  0  0  0  0  0  0  0  0  0  0  0  0  # atno 17343 bound_to 10162
  155.9803  130.4030  150.3534 LP  0  0  0  0  0  0  0  0  0  0  0  0  # atno 17370 bound_to 10713
  157.1653  131.0355  151.2821 LP  0  0  0  0  0  0  0  0  0  0  0  0  # atno 17371 bound_to 10713
  139.8718  134.9811  156.5102 LP  0  0  0  0  0  0  0  0  0  0  0  0  # atno 17394 bound_to 11000
  140.8477  133.8156  155.9138 LP  0  0  0  0  0  0  0  0  0  0  0  0  # atno 17395 bound_to 11000

$$$$
