AV-unprocessed.smi:2822|AV-procd|sdf|10870|dock3
  -GOLD-   2272015313D 1   1.00000     0.00000
 Structure written by MMmdl.
 40 42  0  0  0  0  0  0  0  0  2 V2000
  147.8267  133.1509  152.2910 Cl  0  0  0  0  0  0  0  0  0  0  0  0
  146.3864  133.2856  151.3431 C   0  0  0  0  0  0  0  0  0  0  0  0
  145.9403  132.1806  150.5890 C   0  0  0  0  0  0  0  0  0  0  0  0
  144.8290  132.2019  149.8239 N   0  0  0  0  0  0  0  0  0  0  0  0
  144.1144  133.3457  149.7863 C   0  0  0  0  0  0  0  0  0  0  0  0
  144.4706  134.5074  150.5002 C   0  0  0  0  0  0  0  0  0  0  0  0
  145.6368  134.4839  151.3014 C   0  0  0  0  0  0  0  0  0  0  0  0
  146.0632  135.5942  152.0464 N   0  0  0  0  0  0  0  0  0  0  0  0
  145.1920  136.7449  152.2296 C   0  0  0  0  0  0  0  0  0  0  0  0
  145.9075  137.8861  152.9660 C   0  0  2  0  0  0  0  0  0  0  0  0
  146.7974  138.7056  152.0046 C   0  0  0  0  0  0  0  0  0  0  0  0
  147.5908  139.7268  152.7306 N   0  3  1  0  0  0  0  0  0  0  0  0
  146.7997  140.9264  153.1184 C   0  0  0  0  0  0  0  0  0  0  0  0
  147.6830  141.9798  153.8024 C   0  0  0  0  0  0  0  0  0  0  0  0
  148.3861  141.3828  155.0264 C   0  0  0  0  0  0  0  0  0  0  0  0
  149.1991  140.1497  154.6095 C   0  0  0  0  0  0  0  0  0  0  0  0
  148.3469  139.1078  153.8543 C   0  0  1  0  0  0  0  0  0  0  0  0
  147.4019  138.2937  154.7631 C   0  0  0  0  0  0  0  0  0  0  0  0
  146.7303  137.3142  153.9793 O   0  0  0  0  0  0  0  0  0  0  0  0
  146.4913  131.2517  150.6003 H   0  0  0  0  0  0  0  0  0  0  0  0
  143.2286  133.3358  149.1689 H   0  0  0  0  0  0  0  0  0  0  0  0
  143.8470  135.3849  150.4230 H   0  0  0  0  0  0  0  0  0  0  0  0
  147.0504  135.7037  152.2315 H   0  0  0  0  0  0  0  0  0  0  0  0
  144.8284  137.0920  151.2614 H   0  0  0  0  0  0  0  0  0  0  0  0
  144.3239  136.4301  152.8099 H   0  0  0  0  0  0  0  0  0  0  0  0
  145.1577  138.5335  153.4235 H   0  0  0  0  0  0  0  0  0  0  0  0
  147.4918  138.0378  151.4927 H   0  0  0  0  0  0  0  0  0  0  0  0
  146.1969  139.1797  151.2272 H   0  0  0  0  0  0  0  0  0  0  0  0
  146.3429  141.3595  152.2279 H   0  0  0  0  0  0  0  0  0  0  0  0
  145.9821  140.6493  153.7840 H   0  0  0  0  0  0  0  0  0  0  0  0
  148.4253  142.3538  153.0956 H   0  0  0  0  0  0  0  0  0  0  0  0
  147.0787  142.8371  154.1003 H   0  0  0  0  0  0  0  0  0  0  0  0
  149.0407  142.1260  155.4828 H   0  0  0  0  0  0  0  0  0  0  0  0
  147.6501  141.1101  155.7836 H   0  0  0  0  0  0  0  0  0  0  0  0
  150.0173  140.4723  153.9640 H   0  0  0  0  0  0  0  0  0  0  0  0
  149.6670  139.6945  155.4831 H   0  0  0  0  0  0  0  0  0  0  0  0
  149.0438  138.3959  153.4088 H   0  0  0  0  0  0  0  0  0  0  0  0
  147.9736  137.7824  155.5378 H   0  0  0  0  0  0  0  0  0  0  0  0
  146.6773  138.9283  155.2745 H   0  0  0  0  0  0  0  0  0  0  0  0
  148.2829  140.0656  152.0775 H   0  0  0  0  0  0  0  0  0  0  0  0
  1  2  1  0  0  0  0
  2  7  1  0  0  0  0
  2  3  2  0  0  0  0
  3  4  1  0  0  0  0
  3 20  1  0  0  0  0
  4  5  2  0  0  0  0
  5  6  1  0  0  0  0
  5 21  1  0  0  0  0
  6  7  2  0  0  0  0
  6 22  1  0  0  0  0
  7  8  1  0  0  0  0
  8  9  1  0  0  0  0
  8 23  1  0  0  0  0
  9 10  1  0  0  0  0
  9 24  1  0  0  0  0
  9 25  1  0  0  0  0
 10 19  1  0  0  0  0
 10 11  1  0  0  0  0
 10 26  1  0  0  0  0
 11 12  1  0  0  0  0
 11 27  1  0  0  0  0
 11 28  1  0  0  0  0
 12 17  1  0  0  0  0
 12 13  1  0  0  0  0
 12 40  1  0  0  0  0
 13 14  1  0  0  0  0
 13 29  1  0  0  0  0
 13 30  1  0  0  0  0
 14 15  1  0  0  0  0
 14 31  1  0  0  0  0
 14 32  1  0  0  0  0
 15 16  1  0  0  0  0
 15 33  1  0  0  0  0
 15 34  1  0  0  0  0
 16 17  1  0  0  0  0
 16 35  1  0  0  0  0
 16 36  1  0  0  0  0
 17 18  1  0  0  0  0
 17 37  1  0  0  0  0
 18 19  1  0  0  0  0
 18 38  1  0  0  0  0
 18 39  1  0  0  0  0
M  CHG  1  12   1
M  END
> <s_m_source_file>
AV-unprocessed.smi

> <i_m_source_file_index>
2822

> <i_lp_mmshare_version>
43012

> <i_f3d_flags>
0

> <s_epik_input>
Q2xjMVtjSF1uW2NIXVtjSF1jMVtOSF1bQ0gyXVtDQEhdKFtDSDJdMilPW0NIMl1bQ0BASF0oTjIzKVtDSDJdW0NIMl1bQ0gyXVtDSDJdMw==

> <s_epik_cmdline>
J2VwaWtfcHl0aG9uJywgJy1waCcsICc3LjAnLCAnLXRuJywgJzgnLCAnLW1hJywgJzIwMCcsICctbWV0YWxfYmluZGluZycsICctaW1hZScsICc8aW5maWxlLm1hZT4nLCAnLW9tYWUnLCAnPG91dGZpbGUubWFlPic=

> <r_lp_tautomer_probability>
0.999999

> <r_epik_Ionization_Penalty>
0.88937

> <r_epik_Ionization_Penalty_Charging>
0.0803403

> <r_epik_Ionization_Penalty_Neutral>
0.80903

> <r_epik_State_Penalty>
0.931884

> <r_epik_Charging_Adjusted_Penalty>
1.01222

> <i_epik_Tot_Q>
1

> <i_epik_Tot_abs_Q>
1

> <r_epik_Metal_State_Penalty>
0.0782275

> <b_epik_Metal_Only>
0

> <s_lp_Force_Field>
OPLS_2005

> <r_lp_Energy>
32.5478

> <b_lp_Chiralities_Consistent>
1

> <s_lp_Variant>
AV-unprocessed.smi:2822-11

> <Gold.Version>
5.8.1

> <Gold.Id.Protein>
6NUR|6NUR_protein|mol2

> <Gold.PLP.Fitness>
46.9852

> <Gold.PLP.PLP>
-35.5188

> <Gold.PLP.part.hbond>
-2.0000

> <Gold.PLP.part.metal>
0.0000

> <Gold.PLP.part.buried>
-2.5305

> <Gold.PLP.part.nonpolar>
-30.9196

> <Gold.PLP.part.repulsive>
0.3727

> <Gold.PLP.ligand.clash>
0.0000

> <Gold.PLP.ligand.torsion>
0.2509

> <Gold.PLP.Chemscore.Hbond>
2.0000

> <Gold.PLP.Chemscore.CHOScore>
1.9892

> <Gold.PLP.Chemscore.Metal>
0.0000

> <Gold.Chemscore.Hbonds>
donor molecule, donor type, donor heavy atom, donor atom, acceptor molecule, acceptor atom, score
      L1  H     8    23       P1  7948  1.00
      L1  H    12    40       P1  7957  1.00
      L1  C     3    20       P1 10747  0.99
      L1  C     5    21       P1 10186  1.00

> <Gold.PLP.Chemscore.Internal.Correction>
0.0007

> <Gold.Rescore>
     Score         DG    S(hbond)    S(metal)    S(lipo)     H(rot)  DE(clash)    DE(int)     intcor
     19.96     -20.30       1.97        0.00      96.01       1.17       0.15       0.19       ----

> <Gold.Chemscore.Fitness>
19.9564

> <Gold.Chemscore.DG>
-20.3028

> <Gold.Chemscore.ZeroCoef>
-5.4800

> <Gold.Chemscore.Hbond>
1.9709

> <Gold.Chemscore.Metal>
0.0000

> <Gold.Chemscore.Lipo>
96.0104

> <Gold.Chemscore.Internal_Hbond>
0.0000

> <Gold.Chemscore.DEClash>
0.1536

> <Gold.Chemscore.DEInternal>
0.1929

> <Gold.Chemscore.Rot>
1.1693

> <Gold.Chemscore.Internal.Correction>
   9.000000E+99

> <Gold.Chemscore.Hbonds>
donor molecule, donor type, donor heavy atom, donor atom, acceptor molecule, acceptor atom, score
      L1  H     8    23       P1  7948  0.96
      L1  H    12    40       P1  7957  0.97

> <Gold.Chemscore.Hbond.Weighted>
-6.5829

> <Gold.Chemscore.Metal.Weighted>
-0.0000

> <Gold.Chemscore.Lipo.Weighted>
-11.2332

> <Gold.Chemscore.Internal_Hbond.Weighted>
0.0000

> <Gold.Chemscore.DEClash.Weighted>
0.1536

> <Gold.Chemscore.DEInternal.Weighted>
0.1929

> <Gold.Chemscore.Rot.Weighted>
2.9934

> <Gold.Chemscore.Internal.Correction.Weighted>
   9.000000E+99

> <Gold.Protein.RotatedTorsions>
[ 6907 6896 6895 6894 ] final   84.67 input  -60.11 | X-H torsion
[ 7974 7965 7964 7962 ] final  -96.18 input  175.53 | X-H torsion
[ 8008 7997 7996 7995 ] final  -59.09 input   59.86 | X-H torsion
[ 10167 10162 10161 10158 ] final  153.53 input  -65.29 | X-H torsion
[ 10718 10713 10712 10709 ] final   85.67 input   66.30 | X-H torsion
[ 10763 10752 10751 10750 ] final   55.78 input  -60.55 | X-H torsion
[ 11005 11000 10999 10996 ] final   33.59 input  -57.11 | X-H torsion

> <Gold.Protein.ActiveResidues>
 VAL166  LYS551  ARG553  GLY616  TRP617  ASP618  TYR619  PRO620  LYS621  CYS622 
 ASP623  PHE694  ASN695  SER759  ASP760  ASP761  ALA762  ILE779  LEU786  VAL792 
 PHE793  MET794  SER795  GLU796  ALA797  LYS798  CYS799  TRP800  GLU811  SER814 

> <Gold.Protein.RotatedAtoms>
  152.5358  134.2704  159.8969 H   0  0  0  0  0  0  0  0  0  0  0  0  # atno 6907 bound_to 6896
  151.2661  133.4271  159.2626 H   0  0  0  0  0  0  0  0  0  0  0  0  # atno 6908 bound_to 6896
  151.0409  134.9621  159.8217 H   0  0  0  0  0  0  0  0  0  0  0  0  # atno 6909 bound_to 6896
  145.3503  140.9475  143.2558 H   0  0  0  0  0  0  0  0  0  0  0  0  # atno 7974 bound_to 7965
  154.4337  140.1069  156.6060 H   0  0  0  0  0  0  0  0  0  0  0  0  # atno 8008 bound_to 7997
  155.5860  140.3491  155.4534 H   0  0  0  0  0  0  0  0  0  0  0  0  # atno 8009 bound_to 7997
  156.0283  140.1255  157.0275 H   0  0  0  0  0  0  0  0  0  0  0  0  # atno 8010 bound_to 7997
  139.4827  144.5265  151.7792 H   0  0  0  0  0  0  0  0  0  0  0  0  # atno 10167 bound_to 10162
  157.6918  131.0184  150.2857 H   0  0  0  0  0  0  0  0  0  0  0  0  # atno 10718 bound_to 10713
  152.9822  135.5699  154.5122 H   0  0  0  0  0  0  0  0  0  0  0  0  # atno 10763 bound_to 10752
  154.4624  135.2782  155.1705 H   0  0  0  0  0  0  0  0  0  0  0  0  # atno 10764 bound_to 10752
  154.3287  135.6254  153.5594 H   0  0  0  0  0  0  0  0  0  0  0  0  # atno 10765 bound_to 10752
  140.2615  134.3187  155.7856 H   0  0  0  0  0  0  0  0  0  0  0  0  # atno 11005 bound_to 11000
  144.8723  139.5021  143.6762 LP  0  0  0  0  0  0  0  0  0  0  0  0  # atno 17320 bound_to 7965
  146.2971  139.7311  142.9119 LP  0  0  0  0  0  0  0  0  0  0  0  0  # atno 17321 bound_to 7965
  140.4785  144.1483  150.5929 LP  0  0  0  0  0  0  0  0  0  0  0  0  # atno 17342 bound_to 10162
  140.4303  143.2571  151.9603 LP  0  0  0  0  0  0  0  0  0  0  0  0  # atno 17343 bound_to 10162
  156.3396  130.3813  149.7420 LP  0  0  0  0  0  0  0  0  0  0  0  0  # atno 17370 bound_to 10713
  156.4934  130.8095  151.3103 LP  0  0  0  0  0  0  0  0  0  0  0  0  # atno 17371 bound_to 10713
  141.2189  133.7412  156.9194 LP  0  0  0  0  0  0  0  0  0  0  0  0  # atno 17394 bound_to 11000
  140.1460  134.9262  157.2530 LP  0  0  0  0  0  0  0  0  0  0  0  0  # atno 17395 bound_to 11000

$$$$
