AV-unprocessed.smi:865|AV-procd|sdf|3990|dock8
  -GOLD-   22720 1473D 1   1.00000     0.00000
 Structure written by MMmdl.
 36 36  0  0  0  0  0  0  0  0  1 V2000
  144.4820  142.4315  156.4323 C   0  0  0  0  0  0  0  0  0  0  0  0
  145.5111  141.5744  155.6800 C   0  0  0  0  0  0  0  0  0  0  0  0
  146.5474  142.3869  154.8606 C   0  0  0  0  0  0  0  0  0  0  0  0
  145.9152  142.9840  153.5771 C   0  0  0  0  0  0  0  0  0  0  0  0
  145.1463  144.2969  153.7902 C   0  0  0  0  0  0  0  0  0  0  0  0
  147.8359  141.5702  154.5593 C   0  0  2  0  0  0  0  0  0  0  0  0
  148.8453  142.4509  154.1032 O   0  0  0  0  0  0  0  0  0  0  0  0
  147.6291  140.4556  153.5085 C   0  0  0  0  0  0  0  0  0  0  0  0
  148.4949  139.3112  153.7680 N   0  0  0  0  0  0  0  0  0  0  0  0
  149.7494  139.3821  154.2385 C   0  0  0  0  0  0  0  0  0  0  0  0
  150.3412  140.4408  154.4465 O   0  0  0  0  0  0  0  0  0  0  0  0
  150.4392  138.0517  154.5370 C   0  0  0  0  0  0  0  0  0  0  0  0
  151.7331  138.2735  155.1543 N   0  0  0  0  0  0  0  0  0  0  0  0
  152.0765  138.9495  156.2528 C   0  0  0  0  0  0  0  0  0  0  0  0
  153.3804  138.8883  156.4764 N   0  0  0  0  0  0  0  0  0  0  0  0
  153.8441  138.1139  155.4259 N   0  0  0  0  0  0  0  0  0  0  0  0
  152.8712  137.7458  154.6384 N   0  0  0  0  0  0  0  0  0  0  0  0
  143.8523  141.8047  157.0641 H   0  0  0  0  0  0  0  0  0  0  0  0
  143.8207  142.9691  155.7539 H   0  0  0  0  0  0  0  0  0  0  0  0
  144.9719  143.1613  157.0772 H   0  0  0  0  0  0  0  0  0  0  0  0
  146.0226  140.9678  156.4259 H   0  0  0  0  0  0  0  0  0  0  0  0
  144.9906  140.8695  155.0308 H   0  0  0  0  0  0  0  0  0  0  0  0
  146.8517  143.2304  155.4822 H   0  0  0  0  0  0  0  0  0  0  0  0
  146.6788  143.1292  152.8125 H   0  0  0  0  0  0  0  0  0  0  0  0
  145.2089  142.2713  153.1544 H   0  0  0  0  0  0  0  0  0  0  0  0
  144.6232  144.5855  152.8783 H   0  0  0  0  0  0  0  0  0  0  0  0
  145.8084  145.1213  154.0528 H   0  0  0  0  0  0  0  0  0  0  0  0
  144.4009  144.1948  154.5792 H   0  0  0  0  0  0  0  0  0  0  0  0
  148.1835  141.1041  155.4808 H   0  0  0  0  0  0  0  0  0  0  0  0
  148.8026  143.2455  154.6128 H   0  0  0  0  0  0  0  0  0  0  0  0
  146.6083  140.0782  153.5729 H   0  0  0  0  0  0  0  0  0  0  0  0
  147.7517  140.8263  152.4892 H   0  0  0  0  0  0  0  0  0  0  0  0
  148.0935  138.3955  153.6250 H   0  0  0  0  0  0  0  0  0  0  0  0
  149.8179  137.4430  155.1959 H   0  0  0  0  0  0  0  0  0  0  0  0
  150.5830  137.4878  153.6144 H   0  0  0  0  0  0  0  0  0  0  0  0
  151.3769  139.4764  156.8847 H   0  0  0  0  0  0  0  0  0  0  0  0
  1  2  1  0  0  0  0
  1 18  1  0  0  0  0
  1 19  1  0  0  0  0
  1 20  1  0  0  0  0
  2  3  1  0  0  0  0
  2 21  1  0  0  0  0
  2 22  1  0  0  0  0
  3  4  1  0  0  0  0
  3  6  1  0  0  0  0
  3 23  1  0  0  0  0
  4  5  1  0  0  0  0
  4 24  1  0  0  0  0
  4 25  1  0  0  0  0
  5 26  1  0  0  0  0
  5 27  1  0  0  0  0
  5 28  1  0  0  0  0
  6  7  1  0  0  0  0
  6  8  1  0  0  0  0
  6 29  1  0  0  0  0
  7 30  1  0  0  0  0
  8  9  1  0  0  0  0
  8 31  1  0  0  0  0
  8 32  1  0  0  0  0
  9 10  1  0  0  0  0
  9 33  1  0  0  0  0
 10 11  2  0  0  0  0
 10 12  1  0  0  0  0
 12 13  1  0  0  0  0
 12 34  1  0  0  0  0
 12 35  1  0  0  0  0
 13 17  1  0  0  0  0
 13 14  1  0  0  0  0
 14 15  2  0  0  0  0
 14 36  1  0  0  0  0
 15 16  1  0  0  0  0
 16 17  2  0  0  0  0
M  END
> <s_m_source_file>
AV-unprocessed.smi

> <i_m_source_file_index>
865

> <i_lp_mmshare_version>
43012

> <i_f3d_flags>
0

> <s_epik_input>
W0NIM11bQ0gyXVtDSF0oW0NIMl1bQ0gzXSlbQ0BIXShbT0hdKVtDSDJdW05IXUMoPU8pW0NIMl1uMVtjSF1ubm4x

> <s_epik_cmdline>
J2VwaWtfcHl0aG9uJywgJy1waCcsICc3LjAnLCAnLXRuJywgJzgnLCAnLW1hJywgJzIwMCcsICctbWV0YWxfYmluZGluZycsICctaW1hZScsICc8aW5maWxlLm1hZT4nLCAnLW9tYWUnLCAnPG91dGZpbGUubWFlPic=

> <r_lp_tautomer_probability>
1

> <r_epik_Ionization_Penalty>
9.39891e-07

> <r_epik_Ionization_Penalty_Charging>
0

> <r_epik_Ionization_Penalty_Neutral>
9.39891e-07

> <r_epik_State_Penalty>
-0

> <r_epik_Charging_Adjusted_Penalty>
0

> <i_epik_Tot_Q>
0

> <i_epik_Tot_abs_Q>
0

> <r_epik_Metal_State_Penalty>
-0

> <b_epik_Metal_Only>
0

> <s_lp_Force_Field>
OPLS_2005

> <r_lp_Energy>
13.4574

> <b_lp_Chiralities_Consistent>
1

> <s_lp_Variant>
AV-unprocessed.smi:865-1

> <Gold.Version>
5.8.1

> <Gold.Id.Protein>
6NUR|6NUR_protein|mol2

> <Gold.PLP.Fitness>
42.2281

> <Gold.PLP.PLP>
-34.1576

> <Gold.PLP.part.hbond>
-7.6550

> <Gold.PLP.part.metal>
0.0000

> <Gold.PLP.part.buried>
-4.9445

> <Gold.PLP.part.nonpolar>
-22.0765

> <Gold.PLP.part.repulsive>
0.2171

> <Gold.PLP.ligand.clash>
0.0000

> <Gold.PLP.ligand.torsion>
1.1598

> <Gold.PLP.Chemscore.Hbond>
3.3923

> <Gold.PLP.Chemscore.CHOScore>
0.0000

> <Gold.PLP.Chemscore.Metal>
0.0000

> <Gold.Chemscore.Hbonds>
donor molecule, donor type, donor heavy atom, donor atom, acceptor molecule, acceptor atom, score
      L1  H     7    30       P1  8028  1.00
      P1  H  7989  7998       L1    11  0.98
      P1  H  7997  8009       L1    15  0.91
      P1  H  8011  8017       L1     7  0.16
      P1  H 10752 10764       L1    17  0.24

> <Gold.PLP.Chemscore.Internal.Correction>
0.2133

> <Gold.Rescore>
     Score         DG    S(hbond)    S(metal)    S(lipo)     H(rot)  DE(clash)    DE(int)     intcor
      6.07     -11.67       3.28        0.00      42.41       3.80       0.05       5.54       ----

> <Gold.Chemscore.Fitness>
6.0731

> <Gold.Chemscore.DG>
-11.6679

> <Gold.Chemscore.ZeroCoef>
-5.4800

> <Gold.Chemscore.Hbond>
3.2768

> <Gold.Chemscore.Metal>
0.0000

> <Gold.Chemscore.Lipo>
42.4113

> <Gold.Chemscore.Internal_Hbond>
0.0000

> <Gold.Chemscore.DEClash>
0.0500

> <Gold.Chemscore.DEInternal>
5.5448

> <Gold.Chemscore.Rot>
3.7964

> <Gold.Chemscore.Internal.Correction>
   9.000000E+99

> <Gold.Chemscore.Hbonds>
donor molecule, donor type, donor heavy atom, donor atom, acceptor molecule, acceptor atom, score
      L1  H     7    30       P1  8028  1.00
      P1  H  7989  7998       L1    11  0.91
      P1  H  7997  8009       L1    15  0.56
      P1  H  8011  8017       L1     7  0.16
      P1  H 10752 10764       L1    17  0.11

> <Gold.Chemscore.Hbond.Weighted>
-10.9446

> <Gold.Chemscore.Metal.Weighted>
-0.0000

> <Gold.Chemscore.Lipo.Weighted>
-4.9621

> <Gold.Chemscore.Internal_Hbond.Weighted>
0.0000

> <Gold.Chemscore.DEClash.Weighted>
0.0500

> <Gold.Chemscore.DEInternal.Weighted>
5.5448

> <Gold.Chemscore.Rot.Weighted>
9.7188

> <Gold.Chemscore.Internal.Correction.Weighted>
   9.000000E+99

> <Gold.Protein.RotatedTorsions>
[ 6907 6896 6895 6894 ] final  104.81 input  -60.11 | X-H torsion
[ 7974 7965 7964 7962 ] final   99.34 input  175.53 | X-H torsion
[ 8008 7997 7996 7995 ] final  172.11 input   59.86 | X-H torsion
[ 10167 10162 10161 10158 ] final  -49.05 input  -65.29 | X-H torsion
[ 10718 10713 10712 10709 ] final  -13.10 input   66.30 | X-H torsion
[ 10763 10752 10751 10750 ] final  -59.46 input  -60.55 | X-H torsion
[ 11005 11000 10999 10996 ] final  -95.80 input  -57.11 | X-H torsion

> <Gold.Protein.ActiveResidues>
 VAL166  LYS551  ARG553  GLY616  TRP617  ASP618  TYR619  PRO620  LYS621  CYS622 
 ASP623  PHE694  ASN695  SER759  ASP760  ASP761  ALA762  ILE779  LEU786  VAL792 
 PHE793  MET794  SER795  GLU796  ALA797  LYS798  CYS799  TRP800  GLU811  SER814 

> <Gold.Protein.RotatedAtoms>
  152.5252  133.9622  159.7721 H   0  0  0  0  0  0  0  0  0  0  0  0  # atno 6907 bound_to 6896
  150.9910  133.6141  159.2715 H   0  0  0  0  0  0  0  0  0  0  0  0  # atno 6908 bound_to 6896
  151.3285  135.0842  159.9383 H   0  0  0  0  0  0  0  0  0  0  0  0  # atno 6909 bound_to 6896
  145.4001  139.2349  143.3305 H   0  0  0  0  0  0  0  0  0  0  0  0  # atno 7974 bound_to 7965
  156.1206  140.1494  156.9210 H   0  0  0  0  0  0  0  0  0  0  0  0  # atno 8008 bound_to 7997
  154.4833  140.0873  156.7469 H   0  0  0  0  0  0  0  0  0  0  0  0  # atno 8009 bound_to 7997
  155.4435  140.3432  155.4295 H   0  0  0  0  0  0  0  0  0  0  0  0  # atno 8010 bound_to 7997
  140.6703  143.2714  151.4159 H   0  0  0  0  0  0  0  0  0  0  0  0  # atno 10167 bound_to 10162
  156.6351  130.4912  149.6115 H   0  0  0  0  0  0  0  0  0  0  0  0  # atno 10718 bound_to 10713
  154.2541  135.6320  153.5251 H   0  0  0  0  0  0  0  0  0  0  0  0  # atno 10763 bound_to 10752
  152.9907  135.5572  154.5776 H   0  0  0  0  0  0  0  0  0  0  0  0  # atno 10764 bound_to 10752
  154.5310  135.2888  155.1155 H   0  0  0  0  0  0  0  0  0  0  0  0  # atno 10765 bound_to 10752
  141.1431  133.8052  157.0484 H   0  0  0  0  0  0  0  0  0  0  0  0  # atno 11005 bound_to 11000
  146.2756  140.4697  142.8797 LP  0  0  0  0  0  0  0  0  0  0  0  0  # atno 17320 bound_to 7965
  144.8380  140.6812  143.6248 LP  0  0  0  0  0  0  0  0  0  0  0  0  # atno 17321 bound_to 7965
  139.5968  144.1380  152.2153 LP  0  0  0  0  0  0  0  0  0  0  0  0  # atno 17342 bound_to 10162
  140.0751  144.5747  150.7163 LP  0  0  0  0  0  0  0  0  0  0  0  0  # atno 17343 bound_to 10162
  156.2203  130.6733  151.1361 LP  0  0  0  0  0  0  0  0  0  0  0  0  # atno 17370 bound_to 10713
  157.7188  131.0694  150.6220 LP  0  0  0  0  0  0  0  0  0  0  0  0  # atno 17371 bound_to 10713
  140.0647  134.9735  157.1366 LP  0  0  0  0  0  0  0  0  0  0  0  0  # atno 17394 bound_to 11000
  140.3797  134.2301  155.7172 LP  0  0  0  0  0  0  0  0  0  0  0  0  # atno 17395 bound_to 11000

$$$$
