AV-unprocessed.smi:265|AV-procd|sdf|2016|dock5
  -GOLD-   2262021213D 1   1.00000     0.00000
 Structure written by MMmdl.
 52 56  0  0  0  0  0  0  0  0  1 V2000
  151.3138  145.0008  158.6940 C   0  0  0  0  0  0  0  0  0  0  0  0
  152.3171  143.8408  158.6017 C   0  0  1  0  0  0  0  0  0  0  0  0
  153.1723  143.8050  159.7435 O   0  0  0  0  0  0  0  0  0  0  0  0
  153.2853  142.4757  160.2387 C   0  0  0  0  0  0  0  0  0  0  0  0
  152.8127  141.5811  159.0977 C   0  0  0  0  0  0  0  0  0  0  0  0
  151.7215  142.4227  158.4502 C   0  0  1  0  0  0  0  0  0  0  0  0
  150.5387  142.3006  159.2229 O   0  0  0  0  0  0  0  0  0  0  0  0
  151.3323  142.0119  157.0068 C   0  0  0  0  0  0  0  0  0  0  0  0
  150.9902  140.6086  156.8362 N   0  0  0  0  0  0  0  0  0  0  0  0
  149.9836  139.9193  157.4762 C   0  0  0  0  0  0  0  0  0  0  0  0
  149.8829  138.6568  157.1601 N   0  0  0  0  0  0  0  0  0  0  0  0
  150.9103  138.4576  156.2474 C   0  0  0  0  0  0  0  0  0  0  0  0
  151.3794  137.3330  155.5210 C   0  0  0  0  0  0  0  0  0  0  0  0
  150.7978  136.1205  155.6292 N   0  0  0  0  0  0  0  0  0  0  0  0
  150.3624  135.8073  156.9902 C   0  0  0  0  0  0  0  0  0  0  0  0
  149.9156  134.3370  157.1040 C   0  0  0  0  0  0  0  0  0  0  0  0
  148.8546  134.0274  156.0380 C   0  0  2  0  0  0  0  0  0  0  0  0
  148.4971  132.6536  156.0272 O   0  0  0  0  0  0  0  0  0  0  0  0
  147.4024  132.3559  155.1534 C   0  0  0  0  0  0  0  0  0  0  0  0
  147.5501  133.0073  153.7612 C   0  0  0  0  0  0  0  0  0  0  0  0
  146.8192  132.6527  152.8393 O   0  0  0  0  0  0  0  0  0  0  0  0
  148.4588  133.9850  153.6110 N   0  0  0  0  0  0  0  0  0  0  0  0
  149.4206  134.3437  154.6442 C   0  0  1  0  0  0  0  0  0  0  0  0
  149.8318  135.8224  154.5721 C   0  0  0  0  0  0  0  0  0  0  0  0
  152.4452  137.5039  154.6954 N   0  0  0  0  0  0  0  0  0  0  0  0
  153.0195  138.7066  154.5918 C   0  0  0  0  0  0  0  0  0  0  0  0
  152.6932  139.8444  155.2103 N   0  0  0  0  0  0  0  0  0  0  0  0
  151.6203  139.6715  156.0356 C   0  0  0  0  0  0  0  0  0  0  0  0
  147.9674  134.6319  156.2401 H   0  0  0  0  0  0  0  0  0  0  0  0
  150.3066  133.7294  154.4730 H   0  0  0  0  0  0  0  0  0  0  0  0
  150.6596  145.0228  157.8223 H   0  0  0  0  0  0  0  0  0  0  0  0
  151.8342  145.9574  158.7417 H   0  0  0  0  0  0  0  0  0  0  0  0
  150.6887  144.9246  159.5841 H   0  0  0  0  0  0  0  0  0  0  0  0
  152.9861  144.0401  157.7662 H   0  0  0  0  0  0  0  0  0  0  0  0
  154.3048  142.2519  160.5526 H   0  0  0  0  0  0  0  0  0  0  0  0
  152.6326  142.3674  161.1060 H   0  0  0  0  0  0  0  0  0  0  0  0
  153.6472  141.4289  158.4137 H   0  0  0  0  0  0  0  0  0  0  0  0
  152.4715  140.6007  159.4321 H   0  0  0  0  0  0  0  0  0  0  0  0
  149.8107  142.1605  158.6370 H   0  0  0  0  0  0  0  0  0  0  0  0
  150.4803  142.6047  156.6703 H   0  0  0  0  0  0  0  0  0  0  0  0
  152.1489  142.2440  156.3217 H   0  0  0  0  0  0  0  0  0  0  0  0
  149.3182  140.3877  158.1870 H   0  0  0  0  0  0  0  0  0  0  0  0
  151.1737  136.0022  157.6930 H   0  0  0  0  0  0  0  0  0  0  0  0
  149.5377  136.4666  157.2651 H   0  0  0  0  0  0  0  0  0  0  0  0
  150.7767  133.6806  156.9716 H   0  0  0  0  0  0  0  0  0  0  0  0
  149.5210  134.1394  158.1008 H   0  0  0  0  0  0  0  0  0  0  0  0
  147.3188  131.2741  155.0470 H   0  0  0  0  0  0  0  0  0  0  0  0
  146.4750  132.7075  155.6073 H   0  0  0  0  0  0  0  0  0  0  0  0
  148.5402  134.4402  152.7134 H   0  0  0  0  0  0  0  0  0  0  0  0
  148.9551  136.4629  154.6814 H   0  0  0  0  0  0  0  0  0  0  0  0
  150.2739  136.0414  153.5990 H   0  0  0  0  0  0  0  0  0  0  0  0
  153.8616  138.7659  153.9178 H   0  0  0  0  0  0  0  0  0  0  0  0
  1  2  1  0  0  0  0
  1 31  1  0  0  0  0
  1 32  1  0  0  0  0
  1 33  1  0  0  0  0
  2  6  1  0  0  0  0
  2  3  1  0  0  0  0
  2 34  1  0  0  0  0
  3  4  1  0  0  0  0
  4  5  1  0  0  0  0
  4 35  1  0  0  0  0
  4 36  1  0  0  0  0
  5  6  1  0  0  0  0
  5 37  1  0  0  0  0
  5 38  1  0  0  0  0
  6  7  1  0  0  0  0
  6  8  1  0  0  0  0
  7 39  1  0  0  0  0
  8  9  1  0  0  0  0
  8 40  1  0  0  0  0
  8 41  1  0  0  0  0
  9 28  1  0  0  0  0
  9 10  1  0  0  0  0
 10 11  2  0  0  0  0
 10 42  1  0  0  0  0
 11 12  1  0  0  0  0
 12 28  2  0  0  0  0
 12 13  1  0  0  0  0
 13 14  1  0  0  0  0
 13 25  2  0  0  0  0
 14 24  1  0  0  0  0
 14 15  1  0  0  0  0
 15 16  1  0  0  0  0
 15 43  1  0  0  0  0
 15 44  1  0  0  0  0
 16 17  1  0  0  0  0
 16 45  1  0  0  0  0
 16 46  1  0  0  0  0
 17 29  1  0  0  0  0
 17 23  1  0  0  0  0
 17 18  1  0  0  0  0
 18 19  1  0  0  0  0
 19 20  1  0  0  0  0
 19 47  1  0  0  0  0
 19 48  1  0  0  0  0
 20 21  2  0  0  0  0
 20 22  1  0  0  0  0
 22 23  1  0  0  0  0
 22 49  1  0  0  0  0
 23 30  1  0  0  0  0
 23 24  1  0  0  0  0
 24 50  1  0  0  0  0
 24 51  1  0  0  0  0
 25 26  1  0  0  0  0
 26 27  2  0  0  0  0
 26 52  1  0  0  0  0
 27 28  1  0  0  0  0
M  END
> <s_m_source_file>
AV-unprocessed.smi

> <i_m_source_file_index>
265

> <i_lp_mmshare_version>
43012

> <i_f3d_flags>
0

> <s_epik_input>
W0NIMl0xW0NIMl1PW0NAQEhdKFtDSDNdKVtDQEBdMShbT0hdKVtDSDJdbihbY0hdbjIpYyhjMjMpbltjSF1uYzNOKFtDSDJdW0NIMl00KVtDSDJdW0NAQEhdKFtDQEhdNDUpW05IXUMoPU8pW0NIMl1PNQ==

> <s_epik_cmdline>
J2VwaWtfcHl0aG9uJywgJy1waCcsICc3LjAnLCAnLXRuJywgJzgnLCAnLW1hJywgJzIwMCcsICctbWV0YWxfYmluZGluZycsICctaW1hZScsICc8aW5maWxlLm1hZT4nLCAnLW9tYWUnLCAnPG91dGZpbGUubWFlPic=

> <r_lp_tautomer_probability>
1

> <r_epik_Ionization_Penalty>
0.00221504

> <r_epik_Ionization_Penalty_Charging>
0

> <r_epik_Ionization_Penalty_Neutral>
0.00221504

> <r_epik_State_Penalty>
-0

> <r_epik_Charging_Adjusted_Penalty>
0

> <i_epik_Tot_Q>
0

> <i_epik_Tot_abs_Q>
0

> <r_epik_Metal_State_Penalty>
-0

> <b_epik_Metal_Only>
0

> <s_lp_Force_Field>
OPLS_2005

> <r_lp_Energy>
49.8504

> <b_lp_Chiralities_Consistent>
1

> <s_lp_Variant>
AV-unprocessed.smi:265-2

> <Gold.Version>
5.8.1

> <Gold.Id.Protein>
6NUR|6NUR_protein|mol2

> <Gold.PLP.Fitness>
46.1649

> <Gold.PLP.PLP>
-38.9362

> <Gold.PLP.part.hbond>
-5.0000

> <Gold.PLP.part.metal>
0.0000

> <Gold.PLP.part.buried>
-3.5750

> <Gold.PLP.part.nonpolar>
-30.8195

> <Gold.PLP.part.repulsive>
0.2830

> <Gold.PLP.ligand.clash>
0.0000

> <Gold.PLP.ligand.torsion>
0.6924

> <Gold.PLP.Chemscore.Hbond>
2.7942

> <Gold.PLP.Chemscore.CHOScore>
0.0000

> <Gold.PLP.Chemscore.Metal>
0.0000

> <Gold.Chemscore.Hbonds>
donor molecule, donor type, donor heavy atom, donor atom, acceptor molecule, acceptor atom, score
      L1  H    22    49       P1  7948  0.65
      P1  H  7989  7998       L1    27  0.25
      P1  H  7997  8008       L1    27  0.99
      P1  H 10752 10764       L1    25  0.58

> <Gold.PLP.Chemscore.Internal.Correction>
0.2310

> <Gold.Rescore>
     Score         DG    S(hbond)    S(metal)    S(lipo)     H(rot)  DE(clash)    DE(int)     intcor
     12.71     -17.23       2.30        0.00      83.99       2.25       1.56       2.95       ----

> <Gold.Chemscore.Fitness>
12.7127

> <Gold.Chemscore.DG>
-17.2266

> <Gold.Chemscore.ZeroCoef>
-5.4800

> <Gold.Chemscore.Hbond>
2.2956

> <Gold.Chemscore.Metal>
0.0000

> <Gold.Chemscore.Lipo>
83.9936

> <Gold.Chemscore.Internal_Hbond>
0.0000

> <Gold.Chemscore.DEClash>
1.5606

> <Gold.Chemscore.DEInternal>
2.9533

> <Gold.Chemscore.Rot>
2.2453

> <Gold.Chemscore.Internal.Correction>
   9.000000E+99

> <Gold.Chemscore.Hbonds>
donor molecule, donor type, donor heavy atom, donor atom, acceptor molecule, acceptor atom, score
      L1  H    22    49       P1  7948  0.08
      P1  H  7989  7998       L1    27  0.01
      P1  H  7997  8008       L1    27  0.17
      P1  H 10752 10764       L1    25  0.13

> <Gold.Chemscore.Hbond.Weighted>
-7.6673

> <Gold.Chemscore.Metal.Weighted>
-0.0000

> <Gold.Chemscore.Lipo.Weighted>
-9.8273

> <Gold.Chemscore.Internal_Hbond.Weighted>
0.0000

> <Gold.Chemscore.DEClash.Weighted>
1.5606

> <Gold.Chemscore.DEInternal.Weighted>
2.9533

> <Gold.Chemscore.Rot.Weighted>
5.7479

> <Gold.Chemscore.Internal.Correction.Weighted>
   9.000000E+99

> <Gold.Protein.RotatedTorsions>
[ 6907 6896 6895 6894 ] final   49.22 input  -60.11 | X-H torsion
[ 7974 7965 7964 7962 ] final  -73.64 input  175.53 | X-H torsion
[ 8008 7997 7996 7995 ] final  -42.12 input   59.86 | X-H torsion
[ 10167 10162 10161 10158 ] final  -39.36 input  -65.29 | X-H torsion
[ 10718 10713 10712 10709 ] final  -50.59 input   66.30 | X-H torsion
[ 10763 10752 10751 10750 ] final  -66.87 input  -60.55 | X-H torsion
[ 11005 11000 10999 10996 ] final -153.94 input  -57.11 | X-H torsion

> <Gold.Protein.ActiveResidues>
 VAL166  LYS551  ARG553  GLY616  TRP617  ASP618  TYR619  PRO620  LYS621  CYS622 
 ASP623  PHE694  ASN695  SER759  ASP760  ASP761  ALA762  ILE779  LEU786  VAL792 
 PHE793  MET794  SER795  GLU796  ALA797  LYS798  CYS799  TRP800  GLU811  SER814 

> <Gold.Protein.RotatedAtoms>
  152.2883  134.7750  160.0382 H   0  0  0  0  0  0  0  0  0  0  0  0  # atno 6907 bound_to 6896
  151.8306  133.3403  159.3620 H   0  0  0  0  0  0  0  0  0  0  0  0  # atno 6908 bound_to 6896
  150.7219  134.5416  159.5794 H   0  0  0  0  0  0  0  0  0  0  0  0  # atno 6909 bound_to 6896
  145.6496  140.9287  143.0992 H   0  0  0  0  0  0  0  0  0  0  0  0  # atno 7974 bound_to 7965
  154.4000  140.1481  156.3304 H   0  0  0  0  0  0  0  0  0  0  0  0  # atno 8008 bound_to 7997
  155.8449  140.3460  155.5634 H   0  0  0  0  0  0  0  0  0  0  0  0  # atno 8009 bound_to 7997
  155.8047  140.0875  157.1928 H   0  0  0  0  0  0  0  0  0  0  0  0  # atno 8010 bound_to 7997
  140.7066  143.3219  151.2772 H   0  0  0  0  0  0  0  0  0  0  0  0  # atno 10167 bound_to 10162
  156.1787  130.4150  149.9539 H   0  0  0  0  0  0  0  0  0  0  0  0  # atno 10718 bound_to 10713
  154.3661  135.6105  153.5716 H   0  0  0  0  0  0  0  0  0  0  0  0  # atno 10763 bound_to 10752
  152.9792  135.5827  154.4576 H   0  0  0  0  0  0  0  0  0  0  0  0  # atno 10764 bound_to 10752
  154.4322  135.2848  155.1882 H   0  0  0  0  0  0  0  0  0  0  0  0  # atno 10765 bound_to 10752
  140.7027  134.3919  157.5207 H   0  0  0  0  0  0  0  0  0  0  0  0  # atno 11005 bound_to 11000
  144.7127  139.8309  143.7409 LP  0  0  0  0  0  0  0  0  0  0  0  0  # atno 17320 bound_to 7965
  146.1215  139.4234  143.0225 LP  0  0  0  0  0  0  0  0  0  0  0  0  # atno 17321 bound_to 7965
  139.6675  144.0078  152.2732 LP  0  0  0  0  0  0  0  0  0  0  0  0  # atno 17342 bound_to 10162
  139.9666  144.6522  150.8028 LP  0  0  0  0  0  0  0  0  0  0  0  0  # atno 17343 bound_to 10162
  156.7316  130.9045  151.3626 LP  0  0  0  0  0  0  0  0  0  0  0  0  # atno 17370 bound_to 10713
  157.6853  130.9180  150.0371 LP  0  0  0  0  0  0  0  0  0  0  0  0  # atno 17371 bound_to 10713
  139.8892  134.8835  156.2432 LP  0  0  0  0  0  0  0  0  0  0  0  0  # atno 17394 bound_to 11000
  141.0150  133.7073  156.1174 LP  0  0  0  0  0  0  0  0  0  0  0  0  # atno 17395 bound_to 11000

$$$$
