AV-unprocessed.smi:44|AV-procd|sdf|406|dock10
  -GOLD-   2262016263D 1   1.00000     0.00000
 Structure written by MMmdl.
 28 30  0  0  0  0  0  0  0  0  2 V2000
  152.3652  138.0002  155.0287 O   0  0  0  0  0  0  0  0  0  0  0  0
  151.6750  139.0157  155.0909 C   0  0  0  0  0  0  0  0  0  0  0  0
  150.7650  139.4137  154.1457 N   0  5  0  0  0  0  0  0  0  0  0  0
  150.0415  140.5892  154.3370 C   0  0  0  0  0  0  0  0  0  0  0  0
  150.1124  141.4045  155.3337 N   0  0  0  0  0  0  0  0  0  0  0  0
  151.0237  141.0279  156.2985 C   0  0  0  0  0  0  0  0  0  0  0  0
  151.8130  139.9100  156.2749 C   0  0  0  0  0  0  0  0  0  0  0  0
  152.6131  139.8357  157.4085 N   0  0  0  0  0  0  0  0  0  0  0  0
  152.2594  140.9362  158.0724 C   0  0  0  0  0  0  0  0  0  0  0  0
  151.3240  141.7047  157.4739 N   0  0  0  0  0  0  0  0  0  0  0  0
  150.7197  142.9892  157.9527 C   0  0  2  0  0  0  0  0  0  0  0  0
  151.5732  144.1659  157.4780 C   0  0  0  0  0  0  0  0  0  0  0  0
  152.5805  144.2707  158.6006 C   0  0  0  0  0  0  0  0  0  0  0  0
  151.7059  143.9710  159.8179 C   0  0  2  0  0  0  0  0  0  0  0  0
  152.4970  143.4350  161.0205 C   0  0  0  0  0  0  0  0  0  0  0  0
  151.6110  142.9480  162.0051 O   0  0  0  0  0  0  0  0  0  0  0  0
  150.7642  143.0015  159.3515 O   0  0  0  0  0  0  0  0  0  0  0  0
  149.7007  142.9788  157.5644 H   0  0  0  0  0  0  0  0  0  0  0  0
  151.1638  144.8798  160.0859 H   0  0  0  0  0  0  0  0  0  0  0  0
  149.3538  140.7816  153.5095 H   0  0  0  0  0  0  0  0  0  0  0  0
  152.6989  141.1866  159.0255 H   0  0  0  0  0  0  0  0  0  0  0  0
  152.0149  143.9915  156.4962 H   0  0  0  0  0  0  0  0  0  0  0  0
  150.9480  145.0586  157.4331 H   0  0  0  0  0  0  0  0  0  0  0  0
  153.3572  143.5133  158.4828 H   0  0  0  0  0  0  0  0  0  0  0  0
  153.0614  145.2477  158.6527 H   0  0  0  0  0  0  0  0  0  0  0  0
  153.2010  142.6577  160.7252 H   0  0  0  0  0  0  0  0  0  0  0  0
  153.0770  144.2394  161.4737 H   0  0  0  0  0  0  0  0  0  0  0  0
  151.9360  143.2025  162.8551 H   0  0  0  0  0  0  0  0  0  0  0  0
  1  2  2  0  0  0  0
  2  7  1  0  0  0  0
  2  3  1  0  0  0  0
  3  4  1  0  0  0  0
  4  5  2  0  0  0  0
  4 20  1  0  0  0  0
  5  6  1  0  0  0  0
  6 10  1  0  0  0  0
  6  7  2  0  0  0  0
  7  8  1  0  0  0  0
  8  9  2  0  0  0  0
  9 10  1  0  0  0  0
  9 21  1  0  0  0  0
 10 11  1  0  0  0  0
 11 18  1  0  0  0  0
 11 17  1  0  0  0  0
 11 12  1  0  0  0  0
 12 13  1  0  0  0  0
 12 22  1  0  0  0  0
 12 23  1  0  0  0  0
 13 14  1  0  0  0  0
 13 24  1  0  0  0  0
 13 25  1  0  0  0  0
 14 19  1  0  0  0  0
 14 15  1  0  0  0  0
 14 17  1  0  0  0  0
 15 16  1  0  0  0  0
 15 26  1  0  0  0  0
 15 27  1  0  0  0  0
 16 28  1  0  0  0  0
M  CHG  1   3  -1
M  END
> <s_m_source_file>
AV-unprocessed.smi

> <i_m_source_file_index>
44

> <i_lp_mmshare_version>
43012

> <i_f3d_flags>
0

> <s_epik_input>
bjFbY0hdW25IXWMoPU8pYyhjMTIpbltjSF1uMltDQEhdM1tDSDJdW0NIMl1bQ0BIXShPMylbQ0gyXVtPSF0=

> <s_epik_cmdline>
J2VwaWtfcHl0aG9uJywgJy1waCcsICc3LjAnLCAnLXRuJywgJzgnLCAnLW1hJywgJzIwMCcsICctbWV0YWxfYmluZGluZycsICctaW1hZScsICc8aW5maWxlLm1hZT4nLCAnLW9tYWUnLCAnPG91dGZpbGUubWFlPic=

> <r_lp_tautomer_probability>
0.85571

> <r_epik_Ionization_Penalty>
2.55863

> <r_epik_Ionization_Penalty_Charging>
1.36424e-10

> <r_epik_Ionization_Penalty_Neutral>
2.55863

> <r_epik_State_Penalty>
2.63326

> <r_epik_Charging_Adjusted_Penalty>
2.63326

> <i_epik_Tot_Q>
-1

> <i_epik_Tot_abs_Q>
1

> <r_epik_Metal_State_Penalty>
0.475154

> <b_epik_Metal_Only>
1

> <s_epik_Chemistry_Notes>
This compound contains an acetal/aminal-like group ( X-CH(R)-Y where X, Y are N, S, or O) that may be acid/base labile, releasing an aldehyde.

> <s_lp_Force_Field>
OPLS_2005

> <r_lp_Energy>
44.8592

> <b_lp_Chiralities_Consistent>
1

> <s_lp_Variant>
AV-unprocessed.smi:44-12

> <Gold.Version>
5.8.1

> <Gold.Id.Protein>
6NUR|6NUR_protein|mol2

> <Gold.PLP.Fitness>
44.7440

> <Gold.PLP.PLP>
-38.0209

> <Gold.PLP.part.hbond>
-5.3683

> <Gold.PLP.part.metal>
0.0000

> <Gold.PLP.part.buried>
-1.7752

> <Gold.PLP.part.nonpolar>
-31.1760

> <Gold.PLP.part.repulsive>
0.3461

> <Gold.PLP.ligand.clash>
0.0000

> <Gold.PLP.ligand.torsion>
0.7884

> <Gold.PLP.Chemscore.Hbond>
1.8000

> <Gold.PLP.Chemscore.CHOScore>
0.9601

> <Gold.PLP.Chemscore.Metal>
0.0000

> <Gold.Chemscore.Hbonds>
donor molecule, donor type, donor heavy atom, donor atom, acceptor molecule, acceptor atom, score
      P1  H  6933  6945       L1    16  0.78
      P1  H  7997  8009       L1     8  1.00
      L1  C     4    20       P1  7957  0.94

> <Gold.PLP.Chemscore.Internal.Correction>
0.0195

> <Gold.Rescore>
     Score         DG    S(hbond)    S(metal)    S(lipo)     H(rot)  DE(clash)    DE(int)     intcor
     10.93     -12.07       1.79        0.00      54.52       2.26       0.42       0.72       ----

> <Gold.Chemscore.Fitness>
10.9338

> <Gold.Chemscore.DG>
-12.0709

> <Gold.Chemscore.ZeroCoef>
-5.4800

> <Gold.Chemscore.Hbond>
1.7947

> <Gold.Chemscore.Metal>
0.0000

> <Gold.Chemscore.Lipo>
54.5234

> <Gold.Chemscore.Internal_Hbond>
0.0000

> <Gold.Chemscore.DEClash>
0.4150

> <Gold.Chemscore.DEInternal>
0.7221

> <Gold.Chemscore.Rot>
2.2588

> <Gold.Chemscore.Internal.Correction>
   9.000000E+99

> <Gold.Chemscore.Hbonds>
donor molecule, donor type, donor heavy atom, donor atom, acceptor molecule, acceptor atom, score
      P1  H  6933  6945       L1    16  0.53
      P1  H  7997  8009       L1     8  0.28

> <Gold.Chemscore.Hbond.Weighted>
-5.9942

> <Gold.Chemscore.Metal.Weighted>
-0.0000

> <Gold.Chemscore.Lipo.Weighted>
-6.3792

> <Gold.Chemscore.Internal_Hbond.Weighted>
0.0000

> <Gold.Chemscore.DEClash.Weighted>
0.4150

> <Gold.Chemscore.DEInternal.Weighted>
0.7221

> <Gold.Chemscore.Rot.Weighted>
5.7825

> <Gold.Chemscore.Internal.Correction.Weighted>
   9.000000E+99

> <Gold.Protein.RotatedTorsions>
[ 6907 6896 6895 6894 ] final  122.21 input  -60.11 | X-H torsion
[ 7974 7965 7964 7962 ] final  124.01 input  175.53 | X-H torsion
[ 8008 7997 7996 7995 ] final  177.62 input   59.86 | X-H torsion
[ 10167 10162 10161 10158 ] final  145.66 input  -65.29 | X-H torsion
[ 10718 10713 10712 10709 ] final  153.99 input   66.30 | X-H torsion
[ 10763 10752 10751 10750 ] final   37.03 input  -60.55 | X-H torsion
[ 11005 11000 10999 10996 ] final  -37.51 input  -57.11 | X-H torsion

> <Gold.Protein.ActiveResidues>
 VAL166  LYS551  ARG553  GLY616  TRP617  ASP618  TYR619  PRO620  LYS621  CYS622 
 ASP623  PHE694  ASN695  SER759  ASP760  ASP761  ALA762  ILE779  LEU786  VAL792 
 PHE793  MET794  SER795  GLU796  ALA797  LYS798  CYS799  TRP800  GLU811  SER814 

> <Gold.Protein.RotatedAtoms>
  152.4261  133.7197  159.6526 H   0  0  0  0  0  0  0  0  0  0  0  0  # atno 6907 bound_to 6896
  150.8138  133.8364  159.3176 H   0  0  0  0  0  0  0  0  0  0  0  0  # atno 6908 bound_to 6896
  151.6066  135.1045  160.0123 H   0  0  0  0  0  0  0  0  0  0  0  0  # atno 6909 bound_to 6896
  145.0893  139.3599  143.4869 H   0  0  0  0  0  0  0  0  0  0  0  0  # atno 7974 bound_to 7965
  156.0637  140.1354  156.9911 H   0  0  0  0  0  0  0  0  0  0  0  0  # atno 8008 bound_to 7997
  154.4495  140.0986  156.6626 H   0  0  0  0  0  0  0  0  0  0  0  0  # atno 8009 bound_to 7997
  155.5338  140.3459  155.4434 H   0  0  0  0  0  0  0  0  0  0  0  0  # atno 8010 bound_to 7997
  139.4922  144.5885  151.6729 H   0  0  0  0  0  0  0  0  0  0  0  0  # atno 10167 bound_to 10162
  157.2375  131.0752  151.1813 H   0  0  0  0  0  0  0  0  0  0  0  0  # atno 10718 bound_to 10713
  153.0053  135.6289  154.2079 H   0  0  0  0  0  0  0  0  0  0  0  0  # atno 10763 bound_to 10752
  154.1823  135.2813  155.3050 H   0  0  0  0  0  0  0  0  0  0  0  0  # atno 10764 bound_to 10752
  154.5825  135.5643  153.7259 H   0  0  0  0  0  0  0  0  0  0  0  0  # atno 10765 bound_to 10752
  140.9957  133.6981  156.1931 H   0  0  0  0  0  0  0  0  0  0  0  0  # atno 11005 bound_to 11000
  146.3531  140.0720  142.8622 LP  0  0  0  0  0  0  0  0  0  0  0  0  # atno 17320 bound_to 7965
  145.1085  140.9390  143.4670 LP  0  0  0  0  0  0  0  0  0  0  0  0  # atno 17321 bound_to 7965
  140.5507  144.0430  150.6126 LP  0  0  0  0  0  0  0  0  0  0  0  0  # atno 17342 bound_to 10162
  140.3483  143.2978  152.0514 LP  0  0  0  0  0  0  0  0  0  0  0  0  # atno 17343 bound_to 10162
  157.3413  130.7035  149.6383 LP  0  0  0  0  0  0  0  0  0  0  0  0  # atno 17370 bound_to 10713
  155.9672  130.4279  150.4764 LP  0  0  0  0  0  0  0  0  0  0  0  0  # atno 17371 bound_to 10713
  140.6969  134.4606  157.5587 LP  0  0  0  0  0  0  0  0  0  0  0  0  # atno 17394 bound_to 11000
  139.9014  134.8548  156.1882 LP  0  0  0  0  0  0  0  0  0  0  0  0  # atno 17395 bound_to 11000

$$$$
