AV-unprocessed.smi:1123|AV-procd|sdf|4832|dock5
  -GOLD-   22720 3393D 1   1.00000     0.00000
 Structure written by MMmdl.
 38 39  0  0  0  0  0  0  0  0  2 V2000
  151.6649  138.7962  154.6458 C   0  0  0  0  0  0  0  0  0  0  0  0
  150.5244  137.8540  154.2093 C   0  0  1  0  0  0  0  0  0  0  0  0
  150.6063  136.4723  154.8781 C   0  0  0  0  0  0  0  0  0  0  0  0
  151.4341  136.2478  155.7619 O   0  0  0  0  0  0  0  0  0  0  0  0
  149.7351  135.5470  154.4443 N   0  0  0  0  0  0  0  0  0  0  0  0
  149.6327  134.1897  154.9669 C   0  0  0  0  0  0  0  0  0  0  0  0
  148.7896  133.2890  154.0439 C   0  0  0  0  0  0  0  0  0  0  0  0
  147.7374  134.0475  153.3229 N   0  3  0  0  0  0  0  0  0  0  0  0
  147.0432  133.2229  152.3051 C   0  0  0  0  0  0  0  0  0  0  0  0
  145.9964  134.0620  151.5527 C   0  0  0  0  0  0  0  0  0  0  0  0
  145.0735  134.6172  152.4809 O   0  0  0  0  0  0  0  0  0  0  0  0
  145.7115  135.4828  153.4113 C   0  0  0  0  0  0  0  0  0  0  0  0
  146.7508  134.6928  154.2249 C   0  0  0  0  0  0  0  0  0  0  0  0
  149.2098  138.4443  154.4296 N   0  0  0  0  0  0  0  0  0  0  0  0
  148.6413  139.5093  153.8600 C   0  0  0  0  0  0  0  0  0  0  0  0
  147.4014  139.7411  154.2674 N   0  0  0  0  0  0  0  0  0  0  0  0
  147.2518  138.7039  155.1436 C   0  0  0  0  0  0  0  0  0  0  0  0
  148.3003  137.8910  155.2705 N   0  0  0  0  0  0  0  0  0  0  0  0
  152.6402  138.3604  154.4266 H   0  0  0  0  0  0  0  0  0  0  0  0
  151.6328  139.0127  155.7144 H   0  0  0  0  0  0  0  0  0  0  0  0
  151.6066  139.7473  154.1160 H   0  0  0  0  0  0  0  0  0  0  0  0
  150.6297  137.6999  153.1341 H   0  0  0  0  0  0  0  0  0  0  0  0
  149.0866  135.8085  153.7157 H   0  0  0  0  0  0  0  0  0  0  0  0
  150.6358  133.7874  155.1123 H   0  0  0  0  0  0  0  0  0  0  0  0
  149.1741  134.2415  155.9548 H   0  0  0  0  0  0  0  0  0  0  0  0
  149.4607  132.8282  153.3174 H   0  0  0  0  0  0  0  0  0  0  0  0
  148.3316  132.4700  154.6009 H   0  0  0  0  0  0  0  0  0  0  0  0
  147.7675  132.8216  151.5955 H   0  0  0  0  0  0  0  0  0  0  0  0
  146.5619  132.3716  152.7896 H   0  0  0  0  0  0  0  0  0  0  0  0
  146.4735  134.8559  150.9759 H   0  0  0  0  0  0  0  0  0  0  0  0
  145.4521  133.4372  150.8446 H   0  0  0  0  0  0  0  0  0  0  0  0
  146.1785  136.3188  152.8881 H   0  0  0  0  0  0  0  0  0  0  0  0
  144.9568  135.9048  154.0751 H   0  0  0  0  0  0  0  0  0  0  0  0
  146.2502  133.9310  154.8247 H   0  0  0  0  0  0  0  0  0  0  0  0
  147.2503  135.3669  154.9196 H   0  0  0  0  0  0  0  0  0  0  0  0
  149.1430  140.1259  153.1288 H   0  0  0  0  0  0  0  0  0  0  0  0
  146.3405  138.5390  155.6993 H   0  0  0  0  0  0  0  0  0  0  0  0
  148.2059  134.7856  152.8169 H   0  0  0  0  0  0  0  0  0  0  0  0
  1  2  1  0  0  0  0
  1 19  1  0  0  0  0
  1 20  1  0  0  0  0
  1 21  1  0  0  0  0
  2  3  1  0  0  0  0
  2 14  1  0  0  0  0
  2 22  1  0  0  0  0
  3  4  2  0  0  0  0
  3  5  1  0  0  0  0
  5  6  1  0  0  0  0
  5 23  1  0  0  0  0
  6  7  1  0  0  0  0
  6 24  1  0  0  0  0
  6 25  1  0  0  0  0
  7  8  1  0  0  0  0
  7 26  1  0  0  0  0
  7 27  1  0  0  0  0
  8 13  1  0  0  0  0
  8  9  1  0  0  0  0
  8 38  1  0  0  0  0
  9 10  1  0  0  0  0
  9 28  1  0  0  0  0
  9 29  1  0  0  0  0
 10 11  1  0  0  0  0
 10 30  1  0  0  0  0
 10 31  1  0  0  0  0
 11 12  1  0  0  0  0
 12 13  1  0  0  0  0
 12 32  1  0  0  0  0
 12 33  1  0  0  0  0
 13 34  1  0  0  0  0
 13 35  1  0  0  0  0
 14 18  1  0  0  0  0
 14 15  1  0  0  0  0
 15 16  2  0  0  0  0
 15 36  1  0  0  0  0
 16 17  1  0  0  0  0
 17 18  2  0  0  0  0
 17 37  1  0  0  0  0
M  CHG  1   8   1
M  END
> <s_m_source_file>
AV-unprocessed.smi

> <i_m_source_file_index>
1123

> <i_lp_mmshare_version>
43012

> <i_f3d_flags>
0

> <s_epik_input>
bjFbY0hdbltjSF1uMVtDQEhdKFtDSDNdKUMoPU8pW05IXVtDSDJdW0NIMl1OMltDSDJdW0NIMl1PW0NIMl1bQ0gyXTI=

> <s_epik_cmdline>
J2VwaWtfcHl0aG9uJywgJy1waCcsICc3LjAnLCAnLXRuJywgJzgnLCAnLW1hJywgJzIwMCcsICctbWV0YWxfYmluZGluZycsICctaW1hZScsICc8aW5maWxlLm1hZT4nLCAnLW9tYWUnLCAnPG91dGZpbGUubWFlPic=

> <r_lp_tautomer_probability>
1

> <r_epik_Ionization_Penalty>
0.71326

> <r_epik_Ionization_Penalty_Charging>
0.713252

> <r_epik_Ionization_Penalty_Neutral>
7.98515e-06

> <r_epik_State_Penalty>
0.737017

> <r_epik_Charging_Adjusted_Penalty>
1.45027

> <i_epik_Tot_Q>
1

> <i_epik_Tot_abs_Q>
1

> <r_epik_Metal_State_Penalty>
0.73702

> <b_epik_Metal_Only>
0

> <s_lp_Force_Field>
OPLS_2005

> <r_lp_Energy>
21.0283

> <b_lp_Chiralities_Consistent>
1

> <s_lp_Variant>
AV-unprocessed.smi:1123-4

> <Gold.Version>
5.8.1

> <Gold.Id.Protein>
6NUR|6NUR_protein|mol2

> <Gold.PLP.Fitness>
40.8129

> <Gold.PLP.PLP>
-26.6009

> <Gold.PLP.part.hbond>
-3.4697

> <Gold.PLP.part.metal>
0.0000

> <Gold.PLP.part.buried>
-1.4846

> <Gold.PLP.part.nonpolar>
-21.7791

> <Gold.PLP.part.repulsive>
0.3545

> <Gold.PLP.ligand.clash>
0.0000

> <Gold.PLP.ligand.torsion>
0.4411

> <Gold.PLP.Chemscore.Hbond>
3.9920

> <Gold.PLP.Chemscore.CHOScore>
0.9978

> <Gold.PLP.Chemscore.Metal>
0.0000

> <Gold.Chemscore.Hbonds>
donor molecule, donor type, donor heavy atom, donor atom, acceptor molecule, acceptor atom, score
      L1  H     5    23       P1  7948  0.85
      L1  H     8    38       P1  7948  2.00
      P1  H 10752 10764       L1     4  1.00
      L1  C    15    36       P1  7957  0.99

> <Gold.PLP.Chemscore.Internal.Correction>
0.1246

> <Gold.Rescore>
     Score         DG    S(hbond)    S(metal)    S(lipo)     H(rot)  DE(clash)    DE(int)     intcor
     10.24     -11.93       2.57        0.00      40.62       2.69       0.01       1.67       ----

> <Gold.Chemscore.Fitness>
10.2447

> <Gold.Chemscore.DG>
-11.9275

> <Gold.Chemscore.ZeroCoef>
-5.4800

> <Gold.Chemscore.Hbond>
2.5706

> <Gold.Chemscore.Metal>
0.0000

> <Gold.Chemscore.Lipo>
40.6177

> <Gold.Chemscore.Internal_Hbond>
0.0000

> <Gold.Chemscore.DEClash>
0.0082

> <Gold.Chemscore.DEInternal>
1.6746

> <Gold.Chemscore.Rot>
2.6916

> <Gold.Chemscore.Internal.Correction>
   9.000000E+99

> <Gold.Chemscore.Hbonds>
donor molecule, donor type, donor heavy atom, donor atom, acceptor molecule, acceptor atom, score
      L1  H     5    23       P1  7948  0.71
      L1  H     8    38       P1  7948  0.70
      P1  H 10752 10764       L1     4  0.79

> <Gold.Chemscore.Hbond.Weighted>
-8.5858

> <Gold.Chemscore.Metal.Weighted>
-0.0000

> <Gold.Chemscore.Lipo.Weighted>
-4.7523

> <Gold.Chemscore.Internal_Hbond.Weighted>
0.0000

> <Gold.Chemscore.DEClash.Weighted>
0.0082

> <Gold.Chemscore.DEInternal.Weighted>
1.6746

> <Gold.Chemscore.Rot.Weighted>
6.8906

> <Gold.Chemscore.Internal.Correction.Weighted>
   9.000000E+99

> <Gold.Protein.RotatedTorsions>
[ 6907 6896 6895 6894 ] final -106.56 input  -60.11 | X-H torsion
[ 7974 7965 7964 7962 ] final  152.14 input  175.53 | X-H torsion
[ 8008 7997 7996 7995 ] final  115.39 input   59.86 | X-H torsion
[ 10167 10162 10161 10158 ] final   44.62 input  -65.29 | X-H torsion
[ 10718 10713 10712 10709 ] final  116.12 input   66.30 | X-H torsion
[ 10763 10752 10751 10750 ] final  -31.45 input  -60.55 | X-H torsion
[ 11005 11000 10999 10996 ] final  170.73 input  -57.11 | X-H torsion

> <Gold.Protein.ActiveResidues>
 VAL166  LYS551  ARG553  GLY616  TRP617  ASP618  TYR619  PRO620  LYS621  CYS622 
 ASP623  PHE694  ASN695  SER759  ASP760  ASP761  ALA762  ILE779  LEU786  VAL792 
 PHE793  MET794  SER795  GLU796  ALA797  LYS798  CYS799  TRP800  GLU811  SER814 

> <Gold.Protein.RotatedAtoms>
  150.7396  133.9958  159.3621 H   0  0  0  0  0  0  0  0  0  0  0  0  # atno 6907 bound_to 6896
  151.7909  135.0734  160.0396 H   0  0  0  0  0  0  0  0  0  0  0  0  # atno 6908 bound_to 6896
  152.3208  133.5815  159.5780 H   0  0  0  0  0  0  0  0  0  0  0  0  # atno 6909 bound_to 6896
  144.8243  139.6629  143.6087 H   0  0  0  0  0  0  0  0  0  0  0  0  # atno 7974 bound_to 7965
  156.2378  140.2939  156.0361 H   0  0  0  0  0  0  0  0  0  0  0  0  # atno 8008 bound_to 7997
  155.2040  140.0410  157.2939 H   0  0  0  0  0  0  0  0  0  0  0  0  # atno 8009 bound_to 7997
  154.6112  140.2452  155.7674 H   0  0  0  0  0  0  0  0  0  0  0  0  # atno 8010 bound_to 7997
  140.3325  144.2571  150.6166 H   0  0  0  0  0  0  0  0  0  0  0  0  # atno 10167 bound_to 10162
  157.6180  131.1021  150.7428 H   0  0  0  0  0  0  0  0  0  0  0  0  # atno 10718 bound_to 10713
  153.7976  135.6893  153.4861 H   0  0  0  0  0  0  0  0  0  0  0  0  # atno 10763 bound_to 10752
  153.1709  135.4543  154.9899 H   0  0  0  0  0  0  0  0  0  0  0  0  # atno 10764 bound_to 10752
  154.8019  135.3341  154.7467 H   0  0  0  0  0  0  0  0  0  0  0  0  # atno 10765 bound_to 10752
  140.3115  134.7513  157.3994 H   0  0  0  0  0  0  0  0  0  0  0  0  # atno 11005 bound_to 11000
  146.2549  139.6279  142.9402 LP  0  0  0  0  0  0  0  0  0  0  0  0  # atno 17320 bound_to 7965
  145.5035  141.0437  143.2527 LP  0  0  0  0  0  0  0  0  0  0  0  0  # atno 17321 bound_to 7965
  140.5384  143.2228  151.8125 LP  0  0  0  0  0  0  0  0  0  0  0  0  # atno 17342 bound_to 10162
  139.4854  144.4632  151.9516 LP  0  0  0  0  0  0  0  0  0  0  0  0  # atno 17343 bound_to 10162
  156.7791  130.4853  149.5404 LP  0  0  0  0  0  0  0  0  0  0  0  0  # atno 17370 bound_to 10713
  156.1311  130.6178  151.0335 LP  0  0  0  0  0  0  0  0  0  0  0  0  # atno 17371 bound_to 10713
  140.1021  134.5459  155.8343 LP  0  0  0  0  0  0  0  0  0  0  0  0  # atno 17394 bound_to 11000
  141.2107  133.6698  156.6529 LP  0  0  0  0  0  0  0  0  0  0  0  0  # atno 17395 bound_to 11000

$$$$
