AV-unprocessed.smi:511|AV-procd|sdf|2765|dock5
  -GOLD-   2262023233D 1   1.00000     0.00000
 Structure written by MMmdl.
 45 47  0  0  0  0  0  0  0  0  1 V2000
  150.9217  137.5340  158.8031 C   0  0  0  0  0  0  0  0  0  0  0  0
  152.1110  136.9734  159.3282 O   0  0  0  0  0  0  0  0  0  0  0  0
  152.8842  137.9145  160.0550 C   0  0  0  0  0  0  0  0  0  0  0  0
  153.4079  138.9953  159.0992 C   0  0  0  0  0  0  0  0  0  0  0  0
  153.3431  140.3275  159.6977 N   0  0  0  0  0  0  0  0  0  0  0  0
  153.9204  140.7895  160.8428 C   0  0  0  0  0  0  0  0  0  0  0  0
  154.7553  140.0010  161.6356 N   0  0  0  0  0  0  0  0  0  0  0  0
  155.5230  138.8286  161.2217 C   0  0  0  0  0  0  0  0  0  0  0  0
  155.3125  137.6592  162.2034 C   0  0  0  0  0  0  0  0  0  0  0  0
  155.7872  138.0549  163.5290 N   0  0  0  0  0  0  0  0  0  0  0  0
  155.5865  136.9601  164.4669 C   0  0  0  0  0  0  0  0  0  0  0  0
  155.0279  139.2256  163.9684 C   0  0  0  0  0  0  0  0  0  0  0  0
  155.2269  140.3791  162.9647 C   0  0  0  0  0  0  0  0  0  0  0  0
  153.5842  142.0415  161.1682 N   0  0  0  0  0  0  0  0  0  0  0  0
  152.7489  142.4215  160.1306 C   0  0  0  0  0  0  0  0  0  0  0  0
  152.5894  141.4103  159.2412 C   0  0  0  0  0  0  0  0  0  0  0  0
  151.7251  141.5330  158.0603 C   0  0  0  0  0  0  0  0  0  0  0  0
  151.5506  140.6260  157.2494 O   0  0  0  0  0  0  0  0  0  0  0  0
  151.1351  142.7489  157.9580 N   0  0  0  0  0  0  0  0  0  0  0  0
  151.2567  143.8086  158.8153 C   0  0  0  0  0  0  0  0  0  0  0  0
  150.6476  144.8525  158.5837 O   0  0  0  0  0  0  0  0  0  0  0  0
  152.0655  143.6496  159.9133 N   0  0  0  0  0  0  0  0  0  0  0  0
  152.2538  144.7160  160.8989 C   0  0  0  0  0  0  0  0  0  0  0  0
  150.5329  142.8879  157.1597 H   0  0  0  0  0  0  0  0  0  0  0  0
  150.3694  136.7714  158.2541 H   0  0  0  0  0  0  0  0  0  0  0  0
  151.1409  138.3520  158.1155 H   0  0  0  0  0  0  0  0  0  0  0  0
  150.2777  137.9084  159.6002 H   0  0  0  0  0  0  0  0  0  0  0  0
  152.2752  138.3743  160.8347 H   0  0  0  0  0  0  0  0  0  0  0  0
  153.7188  137.4123  160.5465 H   0  0  0  0  0  0  0  0  0  0  0  0
  154.4247  138.7544  158.8084 H   0  0  0  0  0  0  0  0  0  0  0  0
  152.8395  138.9919  158.1701 H   0  0  0  0  0  0  0  0  0  0  0  0
  155.2564  138.5364  160.2069 H   0  0  0  0  0  0  0  0  0  0  0  0
  156.5809  139.0923  161.1785 H   0  0  0  0  0  0  0  0  0  0  0  0
  154.2598  137.3743  162.2430 H   0  0  0  0  0  0  0  0  0  0  0  0
  155.8714  136.7866  161.8631 H   0  0  0  0  0  0  0  0  0  0  0  0
  155.9370  137.2394  165.4610 H   0  0  0  0  0  0  0  0  0  0  0  0
  156.1479  136.0801  164.1512 H   0  0  0  0  0  0  0  0  0  0  0  0
  154.5331  136.6855  164.5401 H   0  0  0  0  0  0  0  0  0  0  0  0
  153.9682  138.9817  164.0605 H   0  0  0  0  0  0  0  0  0  0  0  0
  155.3747  139.5336  164.9556 H   0  0  0  0  0  0  0  0  0  0  0  0
  156.2772  140.6699  162.9143 H   0  0  0  0  0  0  0  0  0  0  0  0
  154.6766  141.2556  163.3083 H   0  0  0  0  0  0  0  0  0  0  0  0
  151.7299  145.6417  160.6585 H   0  0  0  0  0  0  0  0  0  0  0  0
  153.3134  144.9564  160.9901 H   0  0  0  0  0  0  0  0  0  0  0  0
  151.9003  144.3846  161.8758 H   0  0  0  0  0  0  0  0  0  0  0  0
  1  2  1  0  0  0  0
  1 25  1  0  0  0  0
  1 26  1  0  0  0  0
  1 27  1  0  0  0  0
  2  3  1  0  0  0  0
  3  4  1  0  0  0  0
  3 28  1  0  0  0  0
  3 29  1  0  0  0  0
  4  5  1  0  0  0  0
  4 30  1  0  0  0  0
  4 31  1  0  0  0  0
  5 16  1  0  0  0  0
  5  6  1  0  0  0  0
  6  7  1  0  0  0  0
  6 14  2  0  0  0  0
  7 13  1  0  0  0  0
  7  8  1  0  0  0  0
  8  9  1  0  0  0  0
  8 32  1  0  0  0  0
  8 33  1  0  0  0  0
  9 10  1  0  0  0  0
  9 34  1  0  0  0  0
  9 35  1  0  0  0  0
 10 11  1  0  0  0  0
 10 12  1  0  0  0  0
 11 36  1  0  0  0  0
 11 37  1  0  0  0  0
 11 38  1  0  0  0  0
 12 13  1  0  0  0  0
 12 39  1  0  0  0  0
 12 40  1  0  0  0  0
 13 41  1  0  0  0  0
 13 42  1  0  0  0  0
 14 15  1  0  0  0  0
 15 22  1  0  0  0  0
 15 16  2  0  0  0  0
 16 17  1  0  0  0  0
 17 18  2  0  0  0  0
 17 19  1  0  0  0  0
 19 24  1  0  0  0  0
 19 20  1  0  0  0  0
 20 21  2  0  0  0  0
 20 22  1  0  0  0  0
 22 23  1  0  0  0  0
 23 43  1  0  0  0  0
 23 44  1  0  0  0  0
 23 45  1  0  0  0  0
M  END
> <s_m_source_file>
AV-unprocessed.smi

> <i_m_source_file_index>
511

> <i_lp_mmshare_version>
43012

> <i_f3d_flags>
0

> <s_epik_input>
W0NIM11uMWMoPU8pW25IXWMoPU8pYyhjMTIpbihbQ0gyXVtDSDJdT1tDSDNdKWMobjIpTjNbQ0gyXVtDSDJdTihbQ0gzXSlbQ0gyXVtDSDJdMw==

> <s_epik_cmdline>
J2VwaWtfcHl0aG9uJywgJy1waCcsICc3LjAnLCAnLXRuJywgJzgnLCAnLW1hJywgJzIwMCcsICctbWV0YWxfYmluZGluZycsICctaW1hZScsICc8aW5maWxlLm1hZT4nLCAnLW9tYWUnLCAnPG91dGZpbGUubWFlPic=

> <r_epik_Ionization_Penalty>
1.34394

> <r_epik_Ionization_Penalty_Charging>
1.59275e-05

> <r_epik_Ionization_Penalty_Neutral>
1.34392

> <r_epik_State_Penalty>
1.4212

> <r_epik_Charging_Adjusted_Penalty>
1.42122

> <i_epik_Tot_Q>
0

> <i_epik_Tot_abs_Q>
0

> <r_epik_Metal_State_Penalty>
1.44789

> <b_epik_Metal_Only>
0

> <s_lp_Force_Field>
OPLS_2005

> <r_lp_Energy>
49.2822

> <b_lp_Chiralities_Consistent>
1

> <s_lp_Variant>
AV-unprocessed.smi:511-2

> <Gold.Version>
5.8.1

> <Gold.Id.Protein>
6NUR|6NUR_protein|mol2

> <Gold.PLP.Fitness>
39.4217

> <Gold.PLP.PLP>
-36.9788

> <Gold.PLP.part.hbond>
-1.0000

> <Gold.PLP.part.metal>
0.0000

> <Gold.PLP.part.buried>
-5.6128

> <Gold.PLP.part.nonpolar>
-30.6299

> <Gold.PLP.part.repulsive>
0.2141

> <Gold.PLP.ligand.clash>
0.0000

> <Gold.PLP.ligand.torsion>
0.4222

> <Gold.PLP.Chemscore.Hbond>
1.0000

> <Gold.PLP.Chemscore.CHOScore>
0.0000

> <Gold.PLP.Chemscore.Metal>
0.0000

> <Gold.Chemscore.Hbonds>
donor molecule, donor type, donor heavy atom, donor atom, acceptor molecule, acceptor atom, score
      P1  H  6896  6908       L1     2  1.00

> <Gold.PLP.Chemscore.Internal.Correction>
0.2872

> <Gold.Rescore>
     Score         DG    S(hbond)    S(metal)    S(lipo)     H(rot)  DE(clash)    DE(int)     intcor
     10.76     -12.09       0.91        0.00      63.19       1.49       0.13       1.20       ----

> <Gold.Chemscore.Fitness>
10.7571

> <Gold.Chemscore.DG>
-12.0857

> <Gold.Chemscore.ZeroCoef>
-5.4800

> <Gold.Chemscore.Hbond>
0.9074

> <Gold.Chemscore.Metal>
0.0000

> <Gold.Chemscore.Lipo>
63.1899

> <Gold.Chemscore.Internal_Hbond>
0.0000

> <Gold.Chemscore.DEClash>
0.1302

> <Gold.Chemscore.DEInternal>
1.1984

> <Gold.Chemscore.Rot>
1.4915

> <Gold.Chemscore.Internal.Correction>
   9.000000E+99

> <Gold.Chemscore.Hbonds>
donor molecule, donor type, donor heavy atom, donor atom, acceptor molecule, acceptor atom, score
      P1  H  6896  6908       L1     2  0.77

> <Gold.Chemscore.Hbond.Weighted>
-3.0308

> <Gold.Chemscore.Metal.Weighted>
-0.0000

> <Gold.Chemscore.Lipo.Weighted>
-7.3932

> <Gold.Chemscore.Internal_Hbond.Weighted>
0.0000

> <Gold.Chemscore.DEClash.Weighted>
0.1302

> <Gold.Chemscore.DEInternal.Weighted>
1.1984

> <Gold.Chemscore.Rot.Weighted>
3.8183

> <Gold.Chemscore.Internal.Correction.Weighted>
   9.000000E+99

> <Gold.Protein.RotatedTorsions>
[ 6907 6896 6895 6894 ] final -105.70 input  -60.11 | X-H torsion
[ 7974 7965 7964 7962 ] final -122.87 input  175.53 | X-H torsion
[ 8008 7997 7996 7995 ] final  179.71 input   59.86 | X-H torsion
[ 10167 10162 10161 10158 ] final  -75.93 input  -65.29 | X-H torsion
[ 10718 10713 10712 10709 ] final  -76.68 input   66.30 | X-H torsion
[ 10763 10752 10751 10750 ] final    1.22 input  -60.55 | X-H torsion
[ 11005 11000 10999 10996 ] final  138.37 input  -57.11 | X-H torsion

> <Gold.Protein.ActiveResidues>
 VAL166  LYS551  ARG553  GLY616  TRP617  ASP618  TYR619  PRO620  LYS621  CYS622 
 ASP623  PHE694  ASN695  SER759  ASP760  ASP761  ALA762  ILE779  LEU786  VAL792 
 PHE793  MET794  SER795  GLU796  ALA797  LYS798  CYS799  TRP800  GLU811  SER814 

> <Gold.Protein.RotatedAtoms>
  150.7350  134.0088  159.3662 H   0  0  0  0  0  0  0  0  0  0  0  0  # atno 6907 bound_to 6896
  151.8046  135.0697  160.0414 H   0  0  0  0  0  0  0  0  0  0  0  0  # atno 6908 bound_to 6896
  152.3116  133.5723  159.5721 H   0  0  0  0  0  0  0  0  0  0  0  0  # atno 6909 bound_to 6896
  145.0248  140.8019  143.4359 H   0  0  0  0  0  0  0  0  0  0  0  0  # atno 7974 bound_to 7965
  156.0403  140.1302  157.0163 H   0  0  0  0  0  0  0  0  0  0  0  0  # atno 8008 bound_to 7997
  154.4388  140.1031  156.6298 H   0  0  0  0  0  0  0  0  0  0  0  0  # atno 8009 bound_to 7997
  155.5676  140.3466  155.4509 H   0  0  0  0  0  0  0  0  0  0  0  0  # atno 8010 bound_to 7997
  140.4900  143.2382  151.7922 H   0  0  0  0  0  0  0  0  0  0  0  0  # atno 10167 bound_to 10162
  156.0168  130.4472  150.3230 H   0  0  0  0  0  0  0  0  0  0  0  0  # atno 10718 bound_to 10713
  153.3108  135.6962  153.7117 H   0  0  0  0  0  0  0  0  0  0  0  0  # atno 10763 bound_to 10752
  153.5995  135.3464  155.2941 H   0  0  0  0  0  0  0  0  0  0  0  0  # atno 10764 bound_to 10752
  154.8574  135.4337  154.2246 H   0  0  0  0  0  0  0  0  0  0  0  0  # atno 10765 bound_to 10752
  140.0179  134.9410  157.0414 H   0  0  0  0  0  0  0  0  0  0  0  0  # atno 11005 bound_to 11000
  145.1848  139.2332  143.5274 LP  0  0  0  0  0  0  0  0  0  0  0  0  # atno 17320 bound_to 7965
  146.3490  140.1630  142.8590 LP  0  0  0  0  0  0  0  0  0  0  0  0  # atno 17321 bound_to 7965
  139.4849  144.4661  151.9482 LP  0  0  0  0  0  0  0  0  0  0  0  0  # atno 17342 bound_to 10162
  140.3748  144.2810  150.5915 LP  0  0  0  0  0  0  0  0  0  0  0  0  # atno 17343 bound_to 10162
  157.1330  131.0276  151.2961 LP  0  0  0  0  0  0  0  0  0  0  0  0  # atno 17370 bound_to 10713
  157.4535  130.7612  149.7172 LP  0  0  0  0  0  0  0  0  0  0  0  0  # atno 17371 bound_to 10713
  140.4438  134.1653  155.7176 LP  0  0  0  0  0  0  0  0  0  0  0  0  # atno 17394 bound_to 11000
  141.1755  133.8523  157.1435 LP  0  0  0  0  0  0  0  0  0  0  0  0  # atno 17395 bound_to 11000

$$$$
