AV-unprocessed.smi:3265|AV-procd|sdf|12496|dock6
  -GOLD-   2272018393D 1   1.00000     0.00000
 Structure written by MMmdl.
 41 42  0  0  0  0  0  0  0  0  2 V2000
  144.8414  134.8199  150.5228 C   0  0  0  0  0  0  0  0  0  0  0  0
  146.0803  134.6508  151.4135 C   0  0  2  0  0  0  0  0  0  0  0  0
  146.4390  133.1674  151.6013 C   0  0  0  0  0  0  0  0  0  0  0  0
  147.6643  133.0296  152.5128 C   0  0  0  0  0  0  0  0  0  0  0  0
  147.4367  133.7482  153.8521 C   0  0  0  0  0  0  0  0  0  0  0  0
  147.0933  135.1788  153.6432 N   0  3  2  0  0  0  0  0  0  0  0  0
  146.9999  135.9228  154.9250 C   0  0  0  0  0  0  0  0  0  0  0  0
  148.1774  135.6184  155.8714 C   0  0  0  0  0  0  0  0  0  0  0  0
  148.0684  136.3627  157.1203 N   0  0  0  0  0  0  0  0  0  0  0  0
  148.6619  136.0177  158.2746 C   0  0  0  0  0  0  0  0  0  0  0  0
  149.3434  135.0010  158.4042 O   0  0  0  0  0  0  0  0  0  0  0  0
  148.4474  136.9517  159.4687 C   0  0  0  0  0  0  0  0  0  0  0  0
  147.9792  136.2294  160.6391 N   0  0  0  0  0  0  0  0  0  0  0  0
  147.8617  134.8661  160.8150 C   0  0  0  0  0  0  0  0  0  0  0  0
  147.3696  134.6591  162.0717 C   0  0  0  0  0  0  0  0  0  0  0  0
  147.2205  135.9729  162.5973 C   0  0  0  0  0  0  0  0  0  0  0  0
  147.5861  136.9104  161.7382 N   0  0  0  0  0  0  0  0  0  0  0  0
  145.8881  135.3319  152.7839 C   0  0  0  0  0  0  0  0  0  0  0  0
  143.9621  134.3588  150.9737 H   0  0  0  0  0  0  0  0  0  0  0  0
  144.9936  134.3597  149.5460 H   0  0  0  0  0  0  0  0  0  0  0  0
  144.6172  135.8741  150.3575 H   0  0  0  0  0  0  0  0  0  0  0  0
  146.9153  135.1395  150.9086 H   0  0  0  0  0  0  0  0  0  0  0  0
  145.5949  132.6314  152.0374 H   0  0  0  0  0  0  0  0  0  0  0  0
  146.6403  132.7006  150.6365 H   0  0  0  0  0  0  0  0  0  0  0  0
  147.8810  131.9753  152.6879 H   0  0  0  0  0  0  0  0  0  0  0  0
  148.5413  133.4469  152.0160 H   0  0  0  0  0  0  0  0  0  0  0  0
  146.6385  133.2587  154.4127 H   0  0  0  0  0  0  0  0  0  0  0  0
  148.3424  133.6693  154.4549 H   0  0  0  0  0  0  0  0  0  0  0  0
  146.9261  136.9935  154.7283 H   0  0  0  0  0  0  0  0  0  0  0  0
  146.0745  135.6397  155.4286 H   0  0  0  0  0  0  0  0  0  0  0  0
  148.2346  134.5485  156.0802 H   0  0  0  0  0  0  0  0  0  0  0  0
  149.1265  135.8960  155.4147 H   0  0  0  0  0  0  0  0  0  0  0  0
  147.5257  137.2144  157.1016 H   0  0  0  0  0  0  0  0  0  0  0  0
  149.3837  137.4551  159.7128 H   0  0  0  0  0  0  0  0  0  0  0  0
  147.7220  137.7270  159.2158 H   0  0  0  0  0  0  0  0  0  0  0  0
  148.1324  134.1648  160.0393 H   0  0  0  0  0  0  0  0  0  0  0  0
  147.1505  133.7132  162.5444 H   0  0  0  0  0  0  0  0  0  0  0  0
  146.8589  136.2714  163.5704 H   0  0  0  0  0  0  0  0  0  0  0  0
  145.6751  136.3880  152.6231 H   0  0  0  0  0  0  0  0  0  0  0  0
  145.0217  134.9108  153.2967 H   0  0  0  0  0  0  0  0  0  0  0  0
  147.8698  135.5809  153.1378 H   0  0  0  0  0  0  0  0  0  0  0  0
  1  2  1  0  0  0  0
  1 19  1  0  0  0  0
  1 20  1  0  0  0  0
  1 21  1  0  0  0  0
  2 18  1  0  0  0  0
  2  3  1  0  0  0  0
  2 22  1  0  0  0  0
  3  4  1  0  0  0  0
  3 23  1  0  0  0  0
  3 24  1  0  0  0  0
  4  5  1  0  0  0  0
  4 25  1  0  0  0  0
  4 26  1  0  0  0  0
  5  6  1  0  0  0  0
  5 27  1  0  0  0  0
  5 28  1  0  0  0  0
  6  7  1  0  0  0  0
  6 18  1  0  0  0  0
  6 41  1  0  0  0  0
  7  8  1  0  0  0  0
  7 29  1  0  0  0  0
  7 30  1  0  0  0  0
  8  9  1  0  0  0  0
  8 31  1  0  0  0  0
  8 32  1  0  0  0  0
  9 10  1  0  0  0  0
  9 33  1  0  0  0  0
 10 11  2  0  0  0  0
 10 12  1  0  0  0  0
 12 13  1  0  0  0  0
 12 34  1  0  0  0  0
 12 35  1  0  0  0  0
 13 17  1  0  0  0  0
 13 14  1  0  0  0  0
 14 15  2  0  0  0  0
 14 36  1  0  0  0  0
 15 16  1  0  0  0  0
 15 37  1  0  0  0  0
 16 17  2  0  0  0  0
 16 38  1  0  0  0  0
 18 39  1  0  0  0  0
 18 40  1  0  0  0  0
M  CHG  1   6   1
M  END
> <s_m_source_file>
AV-unprocessed.smi

> <i_m_source_file_index>
3265

> <i_lp_mmshare_version>
43012

> <i_f3d_flags>
0

> <s_epik_input>
W0NIM11bQ0BASF0xW0NIMl1bQ0gyXVtDSDJdTihbQ0gyXTEpW0NIMl1bQ0gyXVtOSF1DKD1PKVtDSDJdbjJbY0hdW2NIXVtjSF1uMg==

> <s_epik_cmdline>
J2VwaWtfcHl0aG9uJywgJy1waCcsICc3LjAnLCAnLXRuJywgJzgnLCAnLW1hJywgJzIwMCcsICctbWV0YWxfYmluZGluZycsICctaW1hZScsICc8aW5maWxlLm1hZT4nLCAnLW9tYWUnLCAnPG91dGZpbGUubWFlPic=

> <r_lp_tautomer_probability>
1

> <r_epik_Ionization_Penalty>
0.00231455

> <r_epik_Ionization_Penalty_Charging>
0.00230623

> <r_epik_Ionization_Penalty_Neutral>
8.31727e-06

> <r_epik_State_Penalty>
0.00159065

> <r_epik_Charging_Adjusted_Penalty>
0.00389688

> <i_epik_Tot_Q>
1

> <i_epik_Tot_abs_Q>
1

> <r_epik_Metal_State_Penalty>
-0

> <b_epik_Metal_Only>
0

> <s_lp_Force_Field>
OPLS_2005

> <r_lp_Energy>
16.3652

> <b_lp_Chiralities_Consistent>
1

> <s_lp_Variant>
AV-unprocessed.smi:3265-1

> <Gold.Version>
5.8.1

> <Gold.Id.Protein>
6NUR|6NUR_protein|mol2

> <Gold.PLP.Fitness>
44.9063

> <Gold.PLP.PLP>
-31.3165

> <Gold.PLP.part.hbond>
-4.0000

> <Gold.PLP.part.metal>
0.0000

> <Gold.PLP.part.buried>
-2.6777

> <Gold.PLP.part.nonpolar>
-24.0831

> <Gold.PLP.part.repulsive>
0.0000

> <Gold.PLP.ligand.clash>
0.0000

> <Gold.PLP.ligand.torsion>
0.3415

> <Gold.PLP.Chemscore.Hbond>
4.7440

> <Gold.PLP.Chemscore.CHOScore>
0.0000

> <Gold.PLP.Chemscore.Metal>
0.0000

> <Gold.Chemscore.Hbonds>
donor molecule, donor type, donor heavy atom, donor atom, acceptor molecule, acceptor atom, score
      L1  H     6    41       P1  7948  2.00
      P1  H  6896  6908       L1    11  1.00
      P1  H  6931  6943       L1    17  1.00
      P1  H  6934  6947       L1    17  0.29

> <Gold.PLP.Chemscore.Internal.Correction>
0.0408

> <Gold.Rescore>
     Score         DG    S(hbond)    S(metal)    S(lipo)     H(rot)  DE(clash)    DE(int)     intcor
     17.64     -19.45       3.45        0.00      61.13       1.84       0.08       1.73       ----

> <Gold.Chemscore.Fitness>
17.6362

> <Gold.Chemscore.DG>
-19.4509

> <Gold.Chemscore.ZeroCoef>
-5.4800

> <Gold.Chemscore.Hbond>
3.4506

> <Gold.Chemscore.Metal>
0.0000

> <Gold.Chemscore.Lipo>
61.1336

> <Gold.Chemscore.Internal_Hbond>
0.0000

> <Gold.Chemscore.DEClash>
0.0814

> <Gold.Chemscore.DEInternal>
1.7332

> <Gold.Chemscore.Rot>
1.8386

> <Gold.Chemscore.Internal.Correction>
   9.000000E+99

> <Gold.Chemscore.Hbonds>
donor molecule, donor type, donor heavy atom, donor atom, acceptor molecule, acceptor atom, score
      L1  H     6    41       P1  7948  1.00
      P1  H  6896  6908       L1    11  1.00
      P1  H  6931  6943       L1    17  0.33
      P1  H  6934  6947       L1    17  0.13

> <Gold.Chemscore.Hbond.Weighted>
-11.5252

> <Gold.Chemscore.Metal.Weighted>
-0.0000

> <Gold.Chemscore.Lipo.Weighted>
-7.1526

> <Gold.Chemscore.Internal_Hbond.Weighted>
0.0000

> <Gold.Chemscore.DEClash.Weighted>
0.0814

> <Gold.Chemscore.DEInternal.Weighted>
1.7332

> <Gold.Chemscore.Rot.Weighted>
4.7069

> <Gold.Chemscore.Internal.Correction.Weighted>
   9.000000E+99

> <Gold.Protein.RotatedTorsions>
[ 6907 6896 6895 6894 ] final  155.87 input  -60.11 | X-H torsion
[ 7974 7965 7964 7962 ] final -171.96 input  175.53 | X-H torsion
[ 8008 7997 7996 7995 ] final  119.12 input   59.86 | X-H torsion
[ 10167 10162 10161 10158 ] final  132.03 input  -65.29 | X-H torsion
[ 10718 10713 10712 10709 ] final   41.52 input   66.30 | X-H torsion
[ 10763 10752 10751 10750 ] final  -43.77 input  -60.55 | X-H torsion
[ 11005 11000 10999 10996 ] final  -94.31 input  -57.11 | X-H torsion

> <Gold.Protein.ActiveResidues>
 VAL166  LYS551  ARG553  GLY616  TRP617  ASP618  TYR619  PRO620  LYS621  CYS622 
 ASP623  PHE694  ASN695  SER759  ASP760  ASP761  ALA762  ILE779  LEU786  VAL792 
 PHE793  MET794  SER795  GLU796  ALA797  LYS798  CYS799  TRP800  GLU811  SER814 

> <Gold.Protein.RotatedAtoms>
  152.0379  133.3965  159.4324 H   0  0  0  0  0  0  0  0  0  0  0  0  # atno 6907 bound_to 6896
  150.6877  134.3447  159.4892 H   0  0  0  0  0  0  0  0  0  0  0  0  # atno 6908 bound_to 6896
  152.1242  134.9182  160.0612 H   0  0  0  0  0  0  0  0  0  0  0  0  # atno 6909 bound_to 6896
  144.7151  140.1844  143.6355 H   0  0  0  0  0  0  0  0  0  0  0  0  # atno 7974 bound_to 7965
  156.2580  140.2860  156.0942 H   0  0  0  0  0  0  0  0  0  0  0  0  # atno 8008 bound_to 7997
  155.1430  140.0396  157.2820 H   0  0  0  0  0  0  0  0  0  0  0  0  # atno 8009 bound_to 7997
  154.6516  140.2546  155.7214 H   0  0  0  0  0  0  0  0  0  0  0  0  # atno 8010 bound_to 7997
  139.5357  144.6680  151.4793 H   0  0  0  0  0  0  0  0  0  0  0  0  # atno 10167 bound_to 10162
  157.3944  130.7825  149.7296 H   0  0  0  0  0  0  0  0  0  0  0  0  # atno 10718 bound_to 10713
  154.0010  135.6693  153.4759 H   0  0  0  0  0  0  0  0  0  0  0  0  # atno 10763 bound_to 10752
  153.0662  135.4999  154.8202 H   0  0  0  0  0  0  0  0  0  0  0  0  # atno 10764 bound_to 10752
  154.7053  135.3086  154.9243 H   0  0  0  0  0  0  0  0  0  0  0  0  # atno 10765 bound_to 10752
  141.1474  133.7947  157.0280 H   0  0  0  0  0  0  0  0  0  0  0  0  # atno 11005 bound_to 11000
  145.8826  139.2331  143.1596 LP  0  0  0  0  0  0  0  0  0  0  0  0  # atno 17320 bound_to 7965
  145.9980  140.8545  143.0033 LP  0  0  0  0  0  0  0  0  0  0  0  0  # atno 17321 bound_to 7965
  140.6563  143.8593  150.6838 LP  0  0  0  0  0  0  0  0  0  0  0  0  # atno 17342 bound_to 10162
  140.1973  143.3987  152.1818 LP  0  0  0  0  0  0  0  0  0  0  0  0  # atno 17343 bound_to 10162
  155.9807  130.4027  150.3516 LP  0  0  0  0  0  0  0  0  0  0  0  0  # atno 17370 bound_to 10713
  157.1636  131.0351  151.2829 LP  0  0  0  0  0  0  0  0  0  0  0  0  # atno 17371 bound_to 10713
  140.0772  134.9669  157.1565 LP  0  0  0  0  0  0  0  0  0  0  0  0  # atno 17394 bound_to 11000
  140.3627  134.2477  155.7185 LP  0  0  0  0  0  0  0  0  0  0  0  0  # atno 17395 bound_to 11000

$$$$
