AV-unprocessed.smi:498|AV-procd|sdf|2728|dock10
  -GOLD-   2262023173D 1   1.00000     0.00000
 Structure written by MMmdl.
 42 44  0  0  0  0  0  0  0  0  1 V2000
  147.1458  141.1777  153.6150 C   0  0  0  0  0  0  0  0  0  0  0  0
  148.3332  140.2808  153.9705 C   0  0  0  0  0  0  0  0  0  0  0  0
  149.5010  141.0796  154.0425 O   0  0  0  0  0  0  0  0  0  0  0  0
  150.3659  140.6954  155.0989 C   0  0  0  0  0  0  0  0  0  0  0  0
  149.5761  140.6164  156.4126 C   0  0  0  0  0  0  0  0  0  0  0  0
  150.4429  140.4239  157.5675 N   0  0  0  0  0  0  0  0  0  0  0  0
  150.6743  139.2901  158.2796 C   0  0  0  0  0  0  0  0  0  0  0  0
  150.0152  137.9756  157.9642 C   0  0  0  0  0  0  0  0  0  0  0  0
  149.3278  137.5006  159.1617 N   0  0  0  0  0  0  0  0  0  0  0  0
  148.9434  136.2371  159.3998 C   0  0  0  0  0  0  0  0  0  0  0  0
  149.1941  135.2944  158.6499 O   0  0  0  0  0  0  0  0  0  0  0  0
  148.1877  136.0222  160.6480 C   0  0  0  0  0  0  0  0  0  0  0  0
  147.7694  134.8745  161.2694 C   0  0  0  0  0  0  0  0  0  0  0  0
  147.0947  135.2761  162.4552 C   0  0  0  0  0  0  0  0  0  0  0  0
  147.1502  136.6400  162.4754 C   0  0  0  0  0  0  0  0  0  0  0  0
  147.8142  137.1091  161.3842 O   0  0  0  0  0  0  0  0  0  0  0  0
  151.5446  139.4101  159.2856 N   0  0  0  0  0  0  0  0  0  0  0  0
  151.8899  140.7454  159.2371 C   0  0  0  0  0  0  0  0  0  0  0  0
  152.7695  141.4958  160.0497 C   0  0  0  0  0  0  0  0  0  0  0  0
  152.9648  142.8716  159.8089 C   0  0  0  0  0  0  0  0  0  0  0  0
  152.2843  143.5148  158.7549 C   0  0  0  0  0  0  0  0  0  0  0  0
  151.4053  142.7841  157.9325 C   0  0  0  0  0  0  0  0  0  0  0  0
  151.2151  141.4102  158.1755 C   0  0  0  0  0  0  0  0  0  0  0  0
  146.2254  140.5973  153.5490 H   0  0  0  0  0  0  0  0  0  0  0  0
  147.3014  141.6706  152.6549 H   0  0  0  0  0  0  0  0  0  0  0  0
  147.0007  141.9511  154.3699 H   0  0  0  0  0  0  0  0  0  0  0  0
  148.1529  139.7899  154.9282 H   0  0  0  0  0  0  0  0  0  0  0  0
  148.4547  139.5028  153.2153 H   0  0  0  0  0  0  0  0  0  0  0  0
  150.8133  139.7276  154.8791 H   0  0  0  0  0  0  0  0  0  0  0  0
  151.1821  141.4124  155.1948 H   0  0  0  0  0  0  0  0  0  0  0  0
  148.9678  141.5090  156.5572 H   0  0  0  0  0  0  0  0  0  0  0  0
  148.8750  139.7828  156.3656 H   0  0  0  0  0  0  0  0  0  0  0  0
  149.3347  138.0528  157.1172 H   0  0  0  0  0  0  0  0  0  0  0  0
  150.7844  137.2541  157.6886 H   0  0  0  0  0  0  0  0  0  0  0  0
  149.0738  138.2032  159.8408 H   0  0  0  0  0  0  0  0  0  0  0  0
  147.9304  133.8665  160.9165 H   0  0  0  0  0  0  0  0  0  0  0  0
  146.6295  134.6474  163.2000 H   0  0  0  0  0  0  0  0  0  0  0  0
  146.7898  137.3965  163.1568 H   0  0  0  0  0  0  0  0  0  0  0  0
  153.2939  141.0127  160.8608 H   0  0  0  0  0  0  0  0  0  0  0  0
  153.6387  143.4359  160.4367 H   0  0  0  0  0  0  0  0  0  0  0  0
  152.4371  144.5694  158.5775 H   0  0  0  0  0  0  0  0  0  0  0  0
  150.8809  143.2758  157.1269 H   0  0  0  0  0  0  0  0  0  0  0  0
  1  2  1  0  0  0  0
  1 24  1  0  0  0  0
  1 25  1  0  0  0  0
  1 26  1  0  0  0  0
  2  3  1  0  0  0  0
  2 27  1  0  0  0  0
  2 28  1  0  0  0  0
  3  4  1  0  0  0  0
  4  5  1  0  0  0  0
  4 29  1  0  0  0  0
  4 30  1  0  0  0  0
  5  6  1  0  0  0  0
  5 31  1  0  0  0  0
  5 32  1  0  0  0  0
  6 23  1  0  0  0  0
  6  7  1  0  0  0  0
  7  8  1  0  0  0  0
  7 17  2  0  0  0  0
  8  9  1  0  0  0  0
  8 33  1  0  0  0  0
  8 34  1  0  0  0  0
  9 10  1  0  0  0  0
  9 35  1  0  0  0  0
 10 11  2  0  0  0  0
 10 12  1  0  0  0  0
 12 16  1  0  0  0  0
 12 13  2  0  0  0  0
 13 14  1  0  0  0  0
 13 36  1  0  0  0  0
 14 15  2  0  0  0  0
 14 37  1  0  0  0  0
 15 16  1  0  0  0  0
 15 38  1  0  0  0  0
 17 18  1  0  0  0  0
 18 23  2  0  0  0  0
 18 19  1  0  0  0  0
 19 20  2  0  0  0  0
 19 39  1  0  0  0  0
 20 21  1  0  0  0  0
 20 40  1  0  0  0  0
 21 22  2  0  0  0  0
 21 41  1  0  0  0  0
 22 23  1  0  0  0  0
 22 42  1  0  0  0  0
M  END
> <s_m_source_file>
AV-unprocessed.smi

> <i_m_source_file_index>
498

> <i_lp_mmshare_version>
43012

> <i_f3d_flags>
0

> <s_epik_input>
W0NIM11bQ0gyXU9bQ0gyXVtDSDJdbihjKGMxMilbY0hdW2NIXVtjSF1bY0hdMiljKG4xKVtDSDJdW05IXUMoPU8pYzNbY0hdW2NIXVtjSF1vMw==

> <s_epik_cmdline>
J2VwaWtfcHl0aG9uJywgJy1waCcsICc3LjAnLCAnLXRuJywgJzgnLCAnLW1hJywgJzIwMCcsICctbWV0YWxfYmluZGluZycsICctaW1hZScsICc8aW5maWxlLm1hZT4nLCAnLW9tYWUnLCAnPG91dGZpbGUubWFlPic=

> <r_epik_Ionization_Penalty>
0.0701438

> <r_epik_Ionization_Penalty_Charging>
0

> <r_epik_Ionization_Penalty_Neutral>
0.0701438

> <r_epik_State_Penalty>
0.061475

> <r_epik_Charging_Adjusted_Penalty>
0.061475

> <i_epik_Tot_Q>
0

> <i_epik_Tot_abs_Q>
0

> <r_epik_Metal_State_Penalty>
0.0666689

> <b_epik_Metal_Only>
0

> <s_lp_Force_Field>
OPLS_2005

> <r_lp_Energy>
6.14226

> <b_lp_Chiralities_Consistent>
1

> <s_lp_Variant>
AV-unprocessed.smi:498-1

> <Gold.Version>
5.8.1

> <Gold.Id.Protein>
6NUR|6NUR_protein|mol2

> <Gold.PLP.Fitness>
56.6883

> <Gold.PLP.PLP>
-48.1779

> <Gold.PLP.part.hbond>
-5.0000

> <Gold.PLP.part.metal>
0.0000

> <Gold.PLP.part.buried>
-3.2303

> <Gold.PLP.part.nonpolar>
-39.5547

> <Gold.PLP.part.repulsive>
0.4181

> <Gold.PLP.ligand.clash>
0.0000

> <Gold.PLP.ligand.torsion>
0.7056

> <Gold.PLP.Chemscore.Hbond>
3.2902

> <Gold.PLP.Chemscore.CHOScore>
0.0000

> <Gold.PLP.Chemscore.Metal>
0.0000

> <Gold.Chemscore.Hbonds>
donor molecule, donor type, donor heavy atom, donor atom, acceptor molecule, acceptor atom, score
      P1  H  6896  6907       L1    11  1.00
      P1  H  6931  6943       L1    16  1.00
      P1  H  6934  6947       L1    16  0.71
      P1  H  8011  8017       L1     3  0.51

> <Gold.PLP.Chemscore.Internal.Correction>
0.0510

> <Gold.Rescore>
     Score         DG    S(hbond)    S(metal)    S(lipo)     H(rot)  DE(clash)    DE(int)     intcor
     21.63     -22.64       2.37        0.00     122.22       1.98       0.47       0.53       ----

> <Gold.Chemscore.Fitness>
21.6339

> <Gold.Chemscore.DG>
-22.6390

> <Gold.Chemscore.ZeroCoef>
-5.4800

> <Gold.Chemscore.Hbond>
2.3747

> <Gold.Chemscore.Metal>
0.0000

> <Gold.Chemscore.Lipo>
122.2183

> <Gold.Chemscore.Internal_Hbond>
0.0000

> <Gold.Chemscore.DEClash>
0.4719

> <Gold.Chemscore.DEInternal>
0.5332

> <Gold.Chemscore.Rot>
1.9813

> <Gold.Chemscore.Internal.Correction>
   9.000000E+99

> <Gold.Chemscore.Hbonds>
donor molecule, donor type, donor heavy atom, donor atom, acceptor molecule, acceptor atom, score
      P1  H  6896  6907       L1    11  0.45
      P1  H  6931  6943       L1    16  0.66
      P1  H  6934  6947       L1    16  0.50
      P1  H  8011  8017       L1     3  0.46

> <Gold.Chemscore.Hbond.Weighted>
-7.9315

> <Gold.Chemscore.Metal.Weighted>
-0.0000

> <Gold.Chemscore.Lipo.Weighted>
-14.2995

> <Gold.Chemscore.Internal_Hbond.Weighted>
0.0000

> <Gold.Chemscore.DEClash.Weighted>
0.4719

> <Gold.Chemscore.DEInternal.Weighted>
0.5332

> <Gold.Chemscore.Rot.Weighted>
5.0720

> <Gold.Chemscore.Internal.Correction.Weighted>
   9.000000E+99

> <Gold.Protein.RotatedTorsions>
[ 6907 6896 6895 6894 ] final  -80.18 input  -60.11 | X-H torsion
[ 7974 7965 7964 7962 ] final  156.54 input  175.53 | X-H torsion
[ 8008 7997 7996 7995 ] final -165.93 input   59.86 | X-H torsion
[ 10167 10162 10161 10158 ] final  102.51 input  -65.29 | X-H torsion
[ 10718 10713 10712 10709 ] final   15.83 input   66.30 | X-H torsion
[ 10763 10752 10751 10750 ] final  -60.11 input  -60.55 | X-H torsion
[ 11005 11000 10999 10996 ] final   22.54 input  -57.11 | X-H torsion

> <Gold.Protein.ActiveResidues>
 VAL166  LYS551  ARG553  GLY616  TRP617  ASP618  TYR619  PRO620  LYS621  CYS622 
 ASP623  PHE694  ASN695  SER759  ASP760  ASP761  ALA762  ILE779  LEU786  VAL792 
 PHE793  MET794  SER795  GLU796  ALA797  LYS798  CYS799  TRP800  GLU811  SER814 

> <Gold.Protein.RotatedAtoms>
  150.6934  134.4009  159.5118 H   0  0  0  0  0  0  0  0  0  0  0  0  # atno 6907 bound_to 6896
  152.1783  134.8773  160.0538 H   0  0  0  0  0  0  0  0  0  0  0  0  # atno 6908 bound_to 6896
  151.9773  133.3711  159.4131 H   0  0  0  0  0  0  0  0  0  0  0  0  # atno 6909 bound_to 6896
  144.7957  139.7218  143.6203 H   0  0  0  0  0  0  0  0  0  0  0  0  # atno 7974 bound_to 7965
  155.8567  140.0971  157.1640 H   0  0  0  0  0  0  0  0  0  0  0  0  # atno 8008 bound_to 7997
  154.3988  140.1373  156.3973 H   0  0  0  0  0  0  0  0  0  0  0  0  # atno 8009 bound_to 7997
  155.7902  140.3456  155.5347 H   0  0  0  0  0  0  0  0  0  0  0  0  # atno 8010 bound_to 7997
  139.7344  144.7028  151.0672 H   0  0  0  0  0  0  0  0  0  0  0  0  # atno 10167 bound_to 10162
  157.0591  130.6301  149.5782 H   0  0  0  0  0  0  0  0  0  0  0  0  # atno 10718 bound_to 10713
  154.2641  135.6303  153.5285 H   0  0  0  0  0  0  0  0  0  0  0  0  # atno 10763 bound_to 10752
  152.9891  135.5594  154.5672 H   0  0  0  0  0  0  0  0  0  0  0  0  # atno 10764 bound_to 10752
  154.5228  135.2883  155.1223 H   0  0  0  0  0  0  0  0  0  0  0  0  # atno 10765 bound_to 10752
  140.3795  134.1936  155.7664 H   0  0  0  0  0  0  0  0  0  0  0  0  # atno 11005 bound_to 11000
  146.2224  139.5660  142.9610 LP  0  0  0  0  0  0  0  0  0  0  0  0  # atno 17320 bound_to 7965
  145.5680  141.0397  143.2189 LP  0  0  0  0  0  0  0  0  0  0  0  0  # atno 17321 bound_to 7965
  140.7776  143.5003  150.9780 LP  0  0  0  0  0  0  0  0  0  0  0  0  # atno 17342 bound_to 10162
  139.8691  143.7215  152.3168 LP  0  0  0  0  0  0  0  0  0  0  0  0  # atno 17343 bound_to 10162
  155.9984  130.5057  150.7569 LP  0  0  0  0  0  0  0  0  0  0  0  0  # atno 17370 bound_to 10713
  157.4969  131.0915  151.0361 LP  0  0  0  0  0  0  0  0  0  0  0  0  # atno 17371 bound_to 10713
  141.1928  133.8165  157.0824 LP  0  0  0  0  0  0  0  0  0  0  0  0  # atno 17394 bound_to 11000
  140.0489  134.9815  157.1101 LP  0  0  0  0  0  0  0  0  0  0  0  0  # atno 17395 bound_to 11000

$$$$
