AV-unprocessed.smi:2394|AV-procd|sdf|9490|dock2
  -GOLD-   2272013123D 1   1.00000     0.00000
 Structure written by MMmdl.
 43 44  0  0  0  0  0  0  0  0  1 V2000
  147.1581  139.4277  153.2601 C   0  0  0  0  0  0  0  0  0  0  0  0
  147.3245  140.9564  153.3002 C   0  0  0  0  0  0  0  0  0  0  0  0
  148.1621  141.5127  154.4822 C   0  0  0  0  0  0  0  0  0  0  0  0
  148.5052  142.8527  154.1804 O   0  0  0  0  0  0  0  0  0  0  0  0
  147.3366  141.5414  155.7984 C   0  0  0  0  0  0  0  0  0  0  0  0
  147.0544  140.1758  156.4482 C   0  0  0  0  0  0  0  0  0  0  0  0
  149.4796  140.7047  154.6594 C   0  0  0  0  0  0  0  0  0  0  0  0
  150.2504  141.0502  155.8450 N   0  0  0  0  0  0  0  0  0  0  0  0
  150.6662  142.3086  156.2207 C   0  0  0  0  0  0  0  0  0  0  0  0
  151.3464  142.3628  157.3337 N   0  0  0  0  0  0  0  0  0  0  0  0
  151.3910  141.0427  157.7637 C   0  0  0  0  0  0  0  0  0  0  0  0
  151.9588  140.3943  158.8910 C   0  0  0  0  0  0  0  0  0  0  0  0
  152.6373  141.0941  159.8278 N   0  0  0  0  0  0  0  0  0  0  0  0
  152.2318  142.4431  160.2136 C   0  0  0  0  0  0  0  0  0  0  0  0
  152.9956  143.5077  159.4081 C   0  0  0  0  0  0  0  0  0  0  0  0
  152.4426  142.6408  161.7203 C   0  0  0  0  0  0  0  0  0  0  0  0
  151.7989  139.0485  158.9928 N   0  0  0  0  0  0  0  0  0  0  0  0
  151.1208  138.3812  158.0538 C   0  0  0  0  0  0  0  0  0  0  0  0
  150.5354  138.8548  156.9515 N   0  0  0  0  0  0  0  0  0  0  0  0
  150.7015  140.2044  156.8435 C   0  0  0  0  0  0  0  0  0  0  0  0
  146.6421  139.1241  152.3494 H   0  0  0  0  0  0  0  0  0  0  0  0
  146.5672  139.0612  154.0991 H   0  0  0  0  0  0  0  0  0  0  0  0
  148.1219  138.9185  153.2761 H   0  0  0  0  0  0  0  0  0  0  0  0
  147.7769  141.2565  152.3549 H   0  0  0  0  0  0  0  0  0  0  0  0
  146.3338  141.4120  153.3157 H   0  0  0  0  0  0  0  0  0  0  0  0
  148.5801  143.3337  154.9901 H   0  0  0  0  0  0  0  0  0  0  0  0
  147.8483  142.1699  156.5282 H   0  0  0  0  0  0  0  0  0  0  0  0
  146.3731  142.0189  155.6187 H   0  0  0  0  0  0  0  0  0  0  0  0
  146.3937  140.2930  157.3074 H   0  0  0  0  0  0  0  0  0  0  0  0
  147.9665  139.7019  156.8100 H   0  0  0  0  0  0  0  0  0  0  0  0
  146.5676  139.4917  155.7530 H   0  0  0  0  0  0  0  0  0  0  0  0
  149.2531  139.6387  154.7093 H   0  0  0  0  0  0  0  0  0  0  0  0
  150.1350  140.8350  153.7980 H   0  0  0  0  0  0  0  0  0  0  0  0
  150.4539  143.1902  155.6334 H   0  0  0  0  0  0  0  0  0  0  0  0
  153.4890  140.7551  160.2511 H   0  0  0  0  0  0  0  0  0  0  0  0
  151.1644  142.5593  160.0214 H   0  0  0  0  0  0  0  0  0  0  0  0
  152.6874  144.5124  159.6982 H   0  0  0  0  0  0  0  0  0  0  0  0
  152.8142  143.4089  158.3378 H   0  0  0  0  0  0  0  0  0  0  0  0
  154.0712  143.4305  159.5705 H   0  0  0  0  0  0  0  0  0  0  0  0
  152.1123  143.6307  162.0358 H   0  0  0  0  0  0  0  0  0  0  0  0
  153.4939  142.5383  161.9920 H   0  0  0  0  0  0  0  0  0  0  0  0
  151.8761  141.9070  162.2947 H   0  0  0  0  0  0  0  0  0  0  0  0
  151.0340  137.3159  158.2082 H   0  0  0  0  0  0  0  0  0  0  0  0
  1  2  1  0  0  0  0
  1 21  1  0  0  0  0
  1 22  1  0  0  0  0
  1 23  1  0  0  0  0
  2  3  1  0  0  0  0
  2 24  1  0  0  0  0
  2 25  1  0  0  0  0
  3  4  1  0  0  0  0
  3  5  1  0  0  0  0
  3  7  1  0  0  0  0
  4 26  1  0  0  0  0
  5  6  1  0  0  0  0
  5 27  1  0  0  0  0
  5 28  1  0  0  0  0
  6 29  1  0  0  0  0
  6 30  1  0  0  0  0
  6 31  1  0  0  0  0
  7  8  1  0  0  0  0
  7 32  1  0  0  0  0
  7 33  1  0  0  0  0
  8 20  1  0  0  0  0
  8  9  1  0  0  0  0
  9 10  2  0  0  0  0
  9 34  1  0  0  0  0
 10 11  1  0  0  0  0
 11 20  2  0  0  0  0
 11 12  1  0  0  0  0
 12 13  1  0  0  0  0
 12 17  2  0  0  0  0
 13 14  1  0  0  0  0
 13 35  1  0  0  0  0
 14 15  1  0  0  0  0
 14 16  1  0  0  0  0
 14 36  1  0  0  0  0
 15 37  1  0  0  0  0
 15 38  1  0  0  0  0
 15 39  1  0  0  0  0
 16 40  1  0  0  0  0
 16 41  1  0  0  0  0
 16 42  1  0  0  0  0
 17 18  1  0  0  0  0
 18 19  2  0  0  0  0
 18 43  1  0  0  0  0
 19 20  1  0  0  0  0
M  END
> <s_m_source_file>
AV-unprocessed.smi

> <i_m_source_file_index>
2394

> <i_lp_mmshare_version>
43012

> <i_f3d_flags>
0

> <s_epik_input>
W0NIM11bQ0gyXUMoW09IXSkoW0NIMl1bQ0gzXSlbQ0gyXW4oW2NIXW4xKWMoYzEyKW5bY0hdbmMyW05IXVtDSF0oW0NIM10pW0NIM10=

> <s_epik_cmdline>
J2VwaWtfcHl0aG9uJywgJy1waCcsICc3LjAnLCAnLXRuJywgJzgnLCAnLW1hJywgJzIwMCcsICctbWV0YWxfYmluZGluZycsICctaW1hZScsICc8aW5maWxlLm1hZT4nLCAnLW9tYWUnLCAnPG91dGZpbGUubWFlPic=

> <r_lp_tautomer_probability>
1

> <r_epik_Ionization_Penalty>
0.0022327

> <r_epik_Ionization_Penalty_Charging>
0

> <r_epik_Ionization_Penalty_Neutral>
0.0022327

> <r_epik_State_Penalty>
-0

> <r_epik_Charging_Adjusted_Penalty>
0

> <i_epik_Tot_Q>
0

> <i_epik_Tot_abs_Q>
0

> <r_epik_Metal_State_Penalty>
-0

> <b_epik_Metal_Only>
0

> <s_lp_Force_Field>
OPLS_2005

> <r_lp_Energy>
13.0667

> <b_lp_Chiralities_Consistent>
1

> <s_lp_Variant>
AV-unprocessed.smi:2394-1

> <Gold.Version>
5.8.1

> <Gold.Id.Protein>
6NUR|6NUR_protein|mol2

> <Gold.PLP.Fitness>
41.4719

> <Gold.PLP.PLP>
-37.2144

> <Gold.PLP.part.hbond>
-2.5966

> <Gold.PLP.part.metal>
0.0000

> <Gold.PLP.part.buried>
-1.4667

> <Gold.PLP.part.nonpolar>
-31.1793

> <Gold.PLP.part.repulsive>
0.1870

> <Gold.PLP.ligand.clash>
0.0000

> <Gold.PLP.ligand.torsion>
0.9606

> <Gold.PLP.Chemscore.Hbond>
1.0000

> <Gold.PLP.Chemscore.CHOScore>
1.0000

> <Gold.PLP.Chemscore.Metal>
0.0000

> <Gold.Chemscore.Hbonds>
donor molecule, donor type, donor heavy atom, donor atom, acceptor molecule, acceptor atom, score
      L1  H     4    26       P1  8028  0.90
      L1  C     9    34       P1  8028  1.00

> <Gold.PLP.Chemscore.Internal.Correction>
0.1787

> <Gold.Rescore>
     Score         DG    S(hbond)    S(metal)    S(lipo)     H(rot)  DE(clash)    DE(int)     intcor
      8.63     -11.02       1.03        0.00      73.36       2.54       0.52       1.86       ----

> <Gold.Chemscore.Fitness>
8.6283

> <Gold.Chemscore.DG>
-11.0161

> <Gold.Chemscore.ZeroCoef>
-5.4800

> <Gold.Chemscore.Hbond>
1.0345

> <Gold.Chemscore.Metal>
0.0000

> <Gold.Chemscore.Lipo>
73.3582

> <Gold.Chemscore.Internal_Hbond>
0.0000

> <Gold.Chemscore.DEClash>
0.5238

> <Gold.Chemscore.DEInternal>
1.8640

> <Gold.Chemscore.Rot>
2.5398

> <Gold.Chemscore.Internal.Correction>
   9.000000E+99

> <Gold.Chemscore.Hbonds>
donor molecule, donor type, donor heavy atom, donor atom, acceptor molecule, acceptor atom, score
      L1  H     4    26       P1  8028  0.83

> <Gold.Chemscore.Hbond.Weighted>
-3.4552

> <Gold.Chemscore.Metal.Weighted>
-0.0000

> <Gold.Chemscore.Lipo.Weighted>
-8.5829

> <Gold.Chemscore.Internal_Hbond.Weighted>
0.0000

> <Gold.Chemscore.DEClash.Weighted>
0.5238

> <Gold.Chemscore.DEInternal.Weighted>
1.8640

> <Gold.Chemscore.Rot.Weighted>
6.5020

> <Gold.Chemscore.Internal.Correction.Weighted>
   9.000000E+99

> <Gold.Protein.RotatedTorsions>
[ 6907 6896 6895 6894 ] final   63.57 input  -60.11 | X-H torsion
[ 7974 7965 7964 7962 ] final  -57.94 input  175.53 | X-H torsion
[ 8008 7997 7996 7995 ] final  -45.26 input   59.86 | X-H torsion
[ 10167 10162 10161 10158 ] final  113.35 input  -65.29 | X-H torsion
[ 10718 10713 10712 10709 ] final  -76.89 input   66.30 | X-H torsion
[ 10763 10752 10751 10750 ] final   28.33 input  -60.55 | X-H torsion
[ 11005 11000 10999 10996 ] final  -49.38 input  -57.11 | X-H torsion

> <Gold.Protein.ActiveResidues>
 VAL166  LYS551  ARG553  GLY616  TRP617  ASP618  TYR619  PRO620  LYS621  CYS622 
 ASP623  PHE694  ASN695  SER759  ASP760  ASP761  ALA762  ILE779  LEU786  VAL792 
 PHE793  MET794  SER795  GLU796  ALA797  LYS798  CYS799  TRP800  GLU811  SER814 

> <Gold.Protein.RotatedAtoms>
  152.4263  134.5861  159.9961 H   0  0  0  0  0  0  0  0  0  0  0  0  # atno 6907 bound_to 6896
  151.5997  133.3352  159.3053 H   0  0  0  0  0  0  0  0  0  0  0  0  # atno 6908 bound_to 6896
  150.8153  134.7368  159.6790 H   0  0  0  0  0  0  0  0  0  0  0  0  # atno 6909 bound_to 6896
  145.8452  140.8390  143.0014 H   0  0  0  0  0  0  0  0  0  0  0  0  # atno 7974 bound_to 7965
  154.4000  140.1401  156.3819 H   0  0  0  0  0  0  0  0  0  0  0  0  # atno 8008 bound_to 7997
  155.7996  140.3476  155.5374 H   0  0  0  0  0  0  0  0  0  0  0  0  # atno 8009 bound_to 7997
  155.8497  140.0939  157.1673 H   0  0  0  0  0  0  0  0  0  0  0  0  # atno 8010 bound_to 7997
  139.6468  144.7127  151.2127 H   0  0  0  0  0  0  0  0  0  0  0  0  # atno 10167 bound_to 10162
  156.0161  130.4477  150.3263 H   0  0  0  0  0  0  0  0  0  0  0  0  # atno 10718 bound_to 10713
  153.0498  135.6515  154.0722 H   0  0  0  0  0  0  0  0  0  0  0  0  # atno 10763 bound_to 10752
  154.0412  135.2903  155.3356 H   0  0  0  0  0  0  0  0  0  0  0  0  # atno 10764 bound_to 10752
  154.6780  135.5331  153.8291 H   0  0  0  0  0  0  0  0  0  0  0  0  # atno 10765 bound_to 10752
  141.0756  133.6667  156.3578 H   0  0  0  0  0  0  0  0  0  0  0  0  # atno 11005 bound_to 11000
  144.6731  140.0871  143.7467 LP  0  0  0  0  0  0  0  0  0  0  0  0  # atno 17320 bound_to 7965
  145.9420  139.2675  143.1263 LP  0  0  0  0  0  0  0  0  0  0  0  0  # atno 17321 bound_to 7965
  140.7518  143.6218  150.8506 LP  0  0  0  0  0  0  0  0  0  0  0  0  # atno 17342 bound_to 10162
  139.9861  143.5897  152.2926 LP  0  0  0  0  0  0  0  0  0  0  0  0  # atno 17343 bound_to 10162
  157.1362  131.0284  151.2948 LP  0  0  0  0  0  0  0  0  0  0  0  0  # atno 17370 bound_to 10713
  157.4510  130.7598  149.7151 LP  0  0  0  0  0  0  0  0  0  0  0  0  # atno 17371 bound_to 10713
  140.5580  134.5962  157.5426 LP  0  0  0  0  0  0  0  0  0  0  0  0  # atno 17394 bound_to 11000
  139.9568  134.7520  156.0323 LP  0  0  0  0  0  0  0  0  0  0  0  0  # atno 17395 bound_to 11000

$$$$
