AV-unprocessed.smi:2858|AV-procd|sdf|11000|dock4
  -GOLD-   2272015453D 1   1.00000     0.00000
 Structure written by MMmdl.
 40 41  0  0  0  0  0  0  0  0  2 V2000
  144.9203  135.4455  151.1690 O   0  0  0  0  0  0  0  0  0  0  0  0
  145.5001  136.0272  152.0823 C   0  0  0  0  0  0  0  0  0  0  0  0
  145.8401  137.5185  151.9374 C   0  0  0  0  0  0  0  0  0  0  0  0
  146.8491  138.0048  152.9139 N   0  3  1  0  0  0  0  0  0  0  0  0
  147.0673  139.4693  152.8111 C   0  0  0  0  0  0  0  0  0  0  0  0
  147.8436  140.0326  154.0132 C   0  0  0  0  0  0  0  0  0  0  0  0
  148.7662  141.1977  153.6175 C   0  0  0  0  0  0  0  0  0  0  0  0
  149.1369  142.0088  154.7718 N   0  0  0  0  0  0  0  0  0  0  0  0
  150.1145  141.7050  155.6385 C   0  0  0  0  0  0  0  0  0  0  0  0
  150.8159  140.6977  155.5386 O   0  0  0  0  0  0  0  0  0  0  0  0
  150.2200  142.6357  156.6036 N   0  0  0  0  0  0  0  0  0  0  0  0
  151.1352  142.6730  157.6895 C   0  0  0  0  0  0  0  0  0  0  0  0
  151.5962  143.9622  158.0405 C   0  0  0  0  0  0  0  0  0  0  0  0
  152.5084  144.1059  159.1042 C   0  0  0  0  0  0  0  0  0  0  0  0
  152.9348  142.9556  159.7914 C   0  0  0  0  0  0  0  0  0  0  0  0
  152.4271  141.7101  159.3785 C   0  0  0  0  0  0  0  0  0  0  0  0
  151.5542  141.5697  158.3585 N   0  0  0  0  0  0  0  0  0  0  0  0
  146.5486  137.5432  154.2908 C   0  0  0  0  0  0  0  0  0  0  0  0
  146.5427  136.0054  154.3460 C   0  0  0  0  0  0  0  0  0  0  0  0
  145.8453  135.3958  153.2162 N   0  0  0  0  0  0  0  0  0  0  0  0
  146.2002  137.7003  150.9238 H   0  0  0  0  0  0  0  0  0  0  0  0
  144.9166  138.0872  152.0563 H   0  0  0  0  0  0  0  0  0  0  0  0
  147.6438  139.6800  151.9091 H   0  0  0  0  0  0  0  0  0  0  0  0
  146.1101  139.9793  152.6918 H   0  0  0  0  0  0  0  0  0  0  0  0
  147.1483  140.3736  154.7795 H   0  0  0  0  0  0  0  0  0  0  0  0
  148.4378  139.2386  154.4679 H   0  0  0  0  0  0  0  0  0  0  0  0
  149.6809  140.8126  153.1659 H   0  0  0  0  0  0  0  0  0  0  0  0
  148.2880  141.8253  152.8635 H   0  0  0  0  0  0  0  0  0  0  0  0
  148.6070  142.8543  154.9261 H   0  0  0  0  0  0  0  0  0  0  0  0
  149.5727  143.4084  156.5560 H   0  0  0  0  0  0  0  0  0  0  0  0
  151.2577  144.8358  157.5026 H   0  0  0  0  0  0  0  0  0  0  0  0
  152.8731  145.0820  159.3876 H   0  0  0  0  0  0  0  0  0  0  0  0
  153.6322  143.0254  160.6130 H   0  0  0  0  0  0  0  0  0  0  0  0
  152.7287  140.8024  159.8799 H   0  0  0  0  0  0  0  0  0  0  0  0
  147.2769  137.9230  155.0064 H   0  0  0  0  0  0  0  0  0  0  0  0
  145.5758  137.9338  154.5944 H   0  0  0  0  0  0  0  0  0  0  0  0
  147.5685  135.6354  154.3373 H   0  0  0  0  0  0  0  0  0  0  0  0
  146.0934  135.6607  155.2775 H   0  0  0  0  0  0  0  0  0  0  0  0
  145.6117  134.4164  153.2991 H   0  0  0  0  0  0  0  0  0  0  0  0
  147.7201  137.5669  152.6499 H   0  0  0  0  0  0  0  0  0  0  0  0
  1  2  2  0  0  0  0
  2 20  1  0  0  0  0
  2  3  1  0  0  0  0
  3  4  1  0  0  0  0
  3 21  1  0  0  0  0
  3 22  1  0  0  0  0
  4  5  1  0  0  0  0
  4 18  1  0  0  0  0
  4 40  1  0  0  0  0
  5  6  1  0  0  0  0
  5 23  1  0  0  0  0
  5 24  1  0  0  0  0
  6  7  1  0  0  0  0
  6 25  1  0  0  0  0
  6 26  1  0  0  0  0
  7  8  1  0  0  0  0
  7 27  1  0  0  0  0
  7 28  1  0  0  0  0
  8  9  1  0  0  0  0
  8 29  1  0  0  0  0
  9 10  2  0  0  0  0
  9 11  1  0  0  0  0
 11 12  1  0  0  0  0
 11 30  1  0  0  0  0
 12 17  1  0  0  0  0
 12 13  2  0  0  0  0
 13 14  1  0  0  0  0
 13 31  1  0  0  0  0
 14 15  2  0  0  0  0
 14 32  1  0  0  0  0
 15 16  1  0  0  0  0
 15 33  1  0  0  0  0
 16 17  2  0  0  0  0
 16 34  1  0  0  0  0
 18 19  1  0  0  0  0
 18 35  1  0  0  0  0
 18 36  1  0  0  0  0
 19 20  1  0  0  0  0
 19 37  1  0  0  0  0
 19 38  1  0  0  0  0
 20 39  1  0  0  0  0
M  CHG  1   4   1
M  END
> <s_m_source_file>
AV-unprocessed.smi

> <i_m_source_file_index>
2858

> <i_lp_mmshare_version>
43012

> <i_f3d_flags>
0

> <s_epik_input>
Tz1DMVtDSDJdTihbQ0gyXVtDSDJdW05IXTEpW0NIMl1bQ0gyXVtDSDJdW05IXUMoPU8pW05IXWMyW2NIXVtjSF1bY0hdW2NIXW4y

> <s_epik_cmdline>
J2VwaWtfcHl0aG9uJywgJy1waCcsICc3LjAnLCAnLXRuJywgJzgnLCAnLW1hJywgJzIwMCcsICctbWV0YWxfYmluZGluZycsICctaW1hZScsICc8aW5maWxlLm1hZT4nLCAnLW9tYWUnLCAnPG91dGZpbGUubWFlPic=

> <r_epik_Ionization_Penalty>
0.11034

> <r_epik_Ionization_Penalty_Charging>
0.110189

> <r_epik_Ionization_Penalty_Neutral>
0.000150894

> <r_epik_State_Penalty>
0.0999426

> <r_epik_Charging_Adjusted_Penalty>
0.210132

> <i_epik_Tot_Q>
1

> <i_epik_Tot_abs_Q>
1

> <r_epik_Metal_State_Penalty>
0.172915

> <b_epik_Metal_Only>
0

> <s_lp_Force_Field>
OPLS_2005

> <r_lp_Energy>
20.0709

> <b_lp_Chiralities_Consistent>
1

> <s_lp_Variant>
AV-unprocessed.smi:2858-2

> <Gold.Version>
5.8.1

> <Gold.Id.Protein>
6NUR|6NUR_protein|mol2

> <Gold.PLP.Fitness>
47.0114

> <Gold.PLP.PLP>
-35.0888

> <Gold.PLP.part.hbond>
-4.0000

> <Gold.PLP.part.metal>
0.0000

> <Gold.PLP.part.buried>
-0.2980

> <Gold.PLP.part.nonpolar>
-30.0896

> <Gold.PLP.part.repulsive>
0.5580

> <Gold.PLP.ligand.clash>
0.0000

> <Gold.PLP.ligand.torsion>
0.8859

> <Gold.PLP.Chemscore.Hbond>
4.5527

> <Gold.PLP.Chemscore.CHOScore>
0.0000

> <Gold.PLP.Chemscore.Metal>
0.0000

> <Gold.Chemscore.Hbonds>
donor molecule, donor type, donor heavy atom, donor atom, acceptor molecule, acceptor atom, score
      L1  H     4    40       P1  7948  2.00
      L1  H     8    29       P1  8028  0.80
      L1  H    11    30       P1  8028  0.99
      P1  H  7989  7998       L1    10  0.50

> <Gold.PLP.Chemscore.Internal.Correction>
0.0363

> <Gold.Rescore>
     Score         DG    S(hbond)    S(metal)    S(lipo)     H(rot)  DE(clash)    DE(int)     intcor
     18.10     -20.40       3.23        0.00      80.73       2.08       0.66       1.64       ----

> <Gold.Chemscore.Fitness>
18.1018

> <Gold.Chemscore.DG>
-20.4036

> <Gold.Chemscore.ZeroCoef>
-5.4800

> <Gold.Chemscore.Hbond>
3.2327

> <Gold.Chemscore.Metal>
0.0000

> <Gold.Chemscore.Lipo>
80.7266

> <Gold.Chemscore.Internal_Hbond>
0.0000

> <Gold.Chemscore.DEClash>
0.6642

> <Gold.Chemscore.DEInternal>
1.6376

> <Gold.Chemscore.Rot>
2.0777

> <Gold.Chemscore.Internal.Correction>
   9.000000E+99

> <Gold.Chemscore.Hbonds>
donor molecule, donor type, donor heavy atom, donor atom, acceptor molecule, acceptor atom, score
      L1  H     4    40       P1  7948  0.98
      L1  H     8    29       P1  8028  0.76
      L1  H    11    30       P1  8028  0.94
      P1  H  7989  7998       L1    10  0.17

> <Gold.Chemscore.Hbond.Weighted>
-10.7973

> <Gold.Chemscore.Metal.Weighted>
-0.0000

> <Gold.Chemscore.Lipo.Weighted>
-9.4450

> <Gold.Chemscore.Internal_Hbond.Weighted>
0.0000

> <Gold.Chemscore.DEClash.Weighted>
0.6642

> <Gold.Chemscore.DEInternal.Weighted>
1.6376

> <Gold.Chemscore.Rot.Weighted>
5.3188

> <Gold.Chemscore.Internal.Correction.Weighted>
   9.000000E+99

> <Gold.Protein.RotatedTorsions>
[ 6907 6896 6895 6894 ] final -114.98 input  -60.11 | X-H torsion
[ 7974 7965 7964 7962 ] final   28.30 input  175.53 | X-H torsion
[ 8008 7997 7996 7995 ] final  -69.79 input   59.86 | X-H torsion
[ 10167 10162 10161 10158 ] final  176.38 input  -65.29 | X-H torsion
[ 10718 10713 10712 10709 ] final   20.77 input   66.30 | X-H torsion
[ 10763 10752 10751 10750 ] final  -50.42 input  -60.55 | X-H torsion
[ 11005 11000 10999 10996 ] final  -85.86 input  -57.11 | X-H torsion

> <Gold.Protein.ActiveResidues>
 VAL166  LYS551  ARG553  GLY616  TRP617  ASP618  TYR619  PRO620  LYS621  CYS622 
 ASP623  PHE694  ASN695  SER759  ASP760  ASP761  ALA762  ILE779  LEU786  VAL792 
 PHE793  MET794  SER795  GLU796  ALA797  LYS798  CYS799  TRP800  GLU811  SER814 

> <Gold.Protein.RotatedAtoms>
  150.7943  133.8724  159.3262 H   0  0  0  0  0  0  0  0  0  0  0  0  # atno 6907 bound_to 6896
  151.6553  135.0994  160.0178 H   0  0  0  0  0  0  0  0  0  0  0  0  # atno 6908 bound_to 6896
  152.4022  133.6796  159.6361 H   0  0  0  0  0  0  0  0  0  0  0  0  # atno 6909 bound_to 6896
  146.1736  139.7075  142.8950 H   0  0  0  0  0  0  0  0  0  0  0  0  # atno 7974 bound_to 7965
  154.4964  140.0846  156.7706 H   0  0  0  0  0  0  0  0  0  0  0  0  # atno 8008 bound_to 7997
  155.4106  140.3441  155.4245 H   0  0  0  0  0  0  0  0  0  0  0  0  # atno 8009 bound_to 7997
  156.1399  140.1526  156.8924 H   0  0  0  0  0  0  0  0  0  0  0  0  # atno 8010 bound_to 7997
  139.5212  144.2922  152.0453 H   0  0  0  0  0  0  0  0  0  0  0  0  # atno 10167 bound_to 10162
  157.1291  130.6583  149.5946 H   0  0  0  0  0  0  0  0  0  0  0  0  # atno 10718 bound_to 10713
  154.1100  135.6550  153.4883 H   0  0  0  0  0  0  0  0  0  0  0  0  # atno 10763 bound_to 10752
  153.0259  135.5245  154.7201 H   0  0  0  0  0  0  0  0  0  0  0  0  # atno 10764 bound_to 10752
  154.6378  135.2984  155.0109 H   0  0  0  0  0  0  0  0  0  0  0  0  # atno 10765 bound_to 10752
  141.1636  133.7422  156.9077 H   0  0  0  0  0  0  0  0  0  0  0  0  # atno 11005 bound_to 11000
  145.4272  141.0412  143.2931 LP  0  0  0  0  0  0  0  0  0  0  0  0  # atno 17320 bound_to 7965
  144.8202  139.5806  143.6990 LP  0  0  0  0  0  0  0  0  0  0  0  0  # atno 17321 bound_to 7965
  140.2373  144.4306  150.6274 LP  0  0  0  0  0  0  0  0  0  0  0  0  # atno 17342 bound_to 10162
  140.6314  143.2188  151.6486 LP  0  0  0  0  0  0  0  0  0  0  0  0  # atno 17343 bound_to 10162
  155.9812  130.4817  150.6813 LP  0  0  0  0  0  0  0  0  0  0  0  0  # atno 17370 bound_to 10713
  157.4408  131.0861  151.0945 LP  0  0  0  0  0  0  0  0  0  0  0  0  # atno 17371 bound_to 10713
  140.1538  134.9212  157.2627 LP  0  0  0  0  0  0  0  0  0  0  0  0  # atno 17394 bound_to 11000
  140.2691  134.3481  155.7380 LP  0  0  0  0  0  0  0  0  0  0  0  0  # atno 17395 bound_to 11000

$$$$
