AV-unprocessed.smi:99|AV-procd|sdf|894|dock9
  -GOLD-   2262017383D 1   1.00000     0.00000
 Structure written by MMmdl.
 52 55  0  0  0  0  0  0  0  0  2 V2000
  144.3315  134.8377  154.1337 O   0  0  0  0  0  0  0  0  0  0  0  0
  145.2829  134.2798  153.5835 C   0  0  0  0  0  0  0  0  0  0  0  0
  146.5091  134.1810  154.1302 O   0  0  0  0  0  0  0  0  0  0  0  0
  146.7595  134.6652  155.4397 C   0  0  0  0  0  0  0  0  0  0  0  0
  148.1402  134.1713  155.8891 C   0  0  1  0  0  0  0  0  0  0  0  0
  149.1445  134.6011  154.9733 O   0  0  0  0  0  0  0  0  0  0  0  0
  150.3544  134.8279  155.6446 C   0  0  1  0  0  0  0  0  0  0  0  0
  150.7814  136.2643  155.4313 N   0  0  0  0  0  0  0  0  0  0  0  0
  150.0100  137.1345  154.6784 C   0  0  0  0  0  0  0  0  0  0  0  0
  150.3770  138.4193  154.4950 C   0  0  0  0  0  0  0  0  0  0  0  0
  151.6112  138.9065  155.1048 C   0  0  0  0  0  0  0  0  0  0  0  0
  151.9430  140.0764  154.9242 O   0  0  0  0  0  0  0  0  0  0  0  0
  152.3447  138.0345  155.8550 N   0  5  0  0  0  0  0  0  0  0  0  0
  151.9725  136.7355  156.0480 C   0  0  0  0  0  0  0  0  0  0  0  0
  152.6162  135.9467  156.7403 O   0  0  0  0  0  0  0  0  0  0  0  0
  150.1198  134.5632  157.1399 C   0  0  2  0  0  0  0  0  0  0  0  0
  150.5410  133.2536  157.4748 O   0  0  0  0  0  0  0  0  0  0  0  0
  148.6126  134.7331  157.2290 C   0  0  2  0  0  0  0  0  0  0  0  0
  148.0695  134.0811  158.3733 O   0  0  0  0  0  0  0  0  0  0  0  0
  148.1817  134.6219  159.6064 C   0  0  0  0  0  0  0  0  0  0  0  0
  148.9640  135.5312  159.8901 O   0  0  0  0  0  0  0  0  0  0  0  0
  147.2258  134.0303  160.5854 C   0  0  0  0  0  0  0  0  0  0  0  0
  146.8800  134.7632  161.7447 C   0  0  0  0  0  0  0  0  0  0  0  0
  145.9591  134.2426  162.6743 C   0  0  0  0  0  0  0  0  0  0  0  0
  145.3745  132.9814  162.4567 C   0  0  0  0  0  0  0  0  0  0  0  0
  145.7129  132.2411  161.3091 C   0  0  0  0  0  0  0  0  0  0  0  0
  146.6329  132.7606  160.3776 C   0  0  0  0  0  0  0  0  0  0  0  0
  145.1947  133.6203  152.2484 C   0  0  0  0  0  0  0  0  0  0  0  0
  146.3798  133.3676  151.5192 C   0  0  0  0  0  0  0  0  0  0  0  0
  146.3242  132.7665  150.2465 C   0  0  0  0  0  0  0  0  0  0  0  0
  145.0830  132.4111  149.6871 C   0  0  0  0  0  0  0  0  0  0  0  0
  143.8971  132.6533  150.4040 C   0  0  0  0  0  0  0  0  0  0  0  0
  143.9511  133.2514  151.6778 C   0  0  0  0  0  0  0  0  0  0  0  0
  146.7340  135.7551  155.4219 H   0  0  0  0  0  0  0  0  0  0  0  0
  145.9950  134.3282  156.1414 H   0  0  0  0  0  0  0  0  0  0  0  0
  148.1633  133.0802  155.9098 H   0  0  0  0  0  0  0  0  0  0  0  0
  151.1369  134.2140  155.1952 H   0  0  0  0  0  0  0  0  0  0  0  0
  149.0907  136.7937  154.2270 H   0  0  0  0  0  0  0  0  0  0  0  0
  149.7625  139.0840  153.9058 H   0  0  0  0  0  0  0  0  0  0  0  0
  150.6560  135.2779  157.7657 H   0  0  0  0  0  0  0  0  0  0  0  0
  149.8830  132.6435  157.1795 H   0  0  0  0  0  0  0  0  0  0  0  0
  148.4080  135.8045  157.2498 H   0  0  0  0  0  0  0  0  0  0  0  0
  147.3098  135.7372  161.9294 H   0  0  0  0  0  0  0  0  0  0  0  0
  145.6989  134.8140  163.5530 H   0  0  0  0  0  0  0  0  0  0  0  0
  144.6671  132.5827  163.1688 H   0  0  0  0  0  0  0  0  0  0  0  0
  145.2648  131.2728  161.1408 H   0  0  0  0  0  0  0  0  0  0  0  0
  146.8677  132.1683  159.5050 H   0  0  0  0  0  0  0  0  0  0  0  0
  147.3439  133.6374  151.9255 H   0  0  0  0  0  0  0  0  0  0  0  0
  147.2357  132.5810  149.6976 H   0  0  0  0  0  0  0  0  0  0  0  0
  145.0406  131.9540  148.7095 H   0  0  0  0  0  0  0  0  0  0  0  0
  142.9428  132.3852  149.9752 H   0  0  0  0  0  0  0  0  0  0  0  0
  143.0208  133.4287  152.1972 H   0  0  0  0  0  0  0  0  0  0  0  0
  1  2  2  0  0  0  0
  2  3  1  0  0  0  0
  2 28  1  0  0  0  0
  3  4  1  0  0  0  0
  4  5  1  0  0  0  0
  4 34  1  0  0  0  0
  4 35  1  0  0  0  0
  5 18  1  0  0  0  0
  5  6  1  0  0  0  0
  5 36  1  0  0  0  0
  6  7  1  0  0  0  0
  7  8  1  0  0  0  0
  7 16  1  0  0  0  0
  7 37  1  0  0  0  0
  8 14  1  0  0  0  0
  8  9  1  0  0  0  0
  9 10  2  0  0  0  0
  9 38  1  0  0  0  0
 10 11  1  0  0  0  0
 10 39  1  0  0  0  0
 11 12  2  0  0  0  0
 11 13  1  0  0  0  0
 13 14  1  0  0  0  0
 14 15  2  0  0  0  0
 16 17  1  0  0  0  0
 16 18  1  0  0  0  0
 16 40  1  0  0  0  0
 17 41  1  0  0  0  0
 18 19  1  0  0  0  0
 18 42  1  0  0  0  0
 19 20  1  0  0  0  0
 20 21  2  0  0  0  0
 20 22  1  0  0  0  0
 22 27  1  0  0  0  0
 22 23  2  0  0  0  0
 23 24  1  0  0  0  0
 23 43  1  0  0  0  0
 24 25  2  0  0  0  0
 24 44  1  0  0  0  0
 25 26  1  0  0  0  0
 25 45  1  0  0  0  0
 26 27  2  0  0  0  0
 26 46  1  0  0  0  0
 27 47  1  0  0  0  0
 28 33  1  0  0  0  0
 28 29  2  0  0  0  0
 29 30  1  0  0  0  0
 29 48  1  0  0  0  0
 30 31  2  0  0  0  0
 30 49  1  0  0  0  0
 31 32  1  0  0  0  0
 31 50  1  0  0  0  0
 32 33  2  0  0  0  0
 32 51  1  0  0  0  0
 33 52  1  0  0  0  0
M  CHG  1  13  -1
M  END
> <s_m_source_file>
AV-unprocessed.smi

> <i_m_source_file_index>
99

> <i_lp_mmshare_version>
43012

> <i_f3d_flags>
0

> <s_epik_input>
W2NIXTFbY0hdW2NIXVtjSF1bY0hdYzFDKD1PKU9bQ0gyXVtDQEBIXTJPW0NAQEhdKG4zW2NIXVtjSF1jKD1PKVtuSF1jMz1PKVtDQEBIXShbT0hdKVtDQEhdMk9DKD1PKWM0W2NIXVtjSF1bY0hdW2NIXVtjSF00

> <s_epik_cmdline>
J2VwaWtfcHl0aG9uJywgJy1waCcsICc3LjAnLCAnLXRuJywgJzgnLCAnLW1hJywgJzIwMCcsICctbWV0YWxfYmluZGluZycsICctaW1hZScsICc8aW5maWxlLm1hZT4nLCAnLW9tYWUnLCAnPG91dGZpbGUubWFlPic=

> <r_lp_tautomer_probability>
1

> <r_epik_Ionization_Penalty>
2.89159

> <r_epik_Ionization_Penalty_Charging>
2.1077e-08

> <r_epik_Ionization_Penalty_Neutral>
2.89159

> <r_epik_State_Penalty>
2.88671

> <r_epik_Charging_Adjusted_Penalty>
2.88671

> <i_epik_Tot_Q>
-1

> <i_epik_Tot_abs_Q>
1

> <r_epik_Metal_State_Penalty>
0.0727308

> <b_epik_Metal_Only>
1

> <s_epik_Chemistry_Notes>
This compound has an ester and may undergo hydrolysis at high or low pH. This compound contains an acetal/aminal-like group ( X-CH(R)-Y where X, Y are N, S, or O) that may be acid/base labile, releasing an aldehyde.

> <s_lp_Force_Field>
OPLS_2005

> <r_lp_Energy>
45.2634

> <b_lp_Chiralities_Consistent>
1

> <s_lp_Variant>
AV-unprocessed.smi:99-30

> <Gold.Version>
5.8.1

> <Gold.Id.Protein>
6NUR|6NUR_protein|mol2

> <Gold.PLP.Fitness>
54.1173

> <Gold.PLP.PLP>
-42.9324

> <Gold.PLP.part.hbond>
-3.6695

> <Gold.PLP.part.metal>
0.0000

> <Gold.PLP.part.buried>
-3.5422

> <Gold.PLP.part.nonpolar>
-37.4104

> <Gold.PLP.part.repulsive>
0.3474

> <Gold.PLP.ligand.clash>
0.0000

> <Gold.PLP.ligand.torsion>
0.7339

> <Gold.PLP.Chemscore.Hbond>
3.4232

> <Gold.PLP.Chemscore.CHOScore>
0.7612

> <Gold.PLP.Chemscore.Metal>
0.0000

> <Gold.Chemscore.Hbonds>
donor molecule, donor type, donor heavy atom, donor atom, acceptor molecule, acceptor atom, score
      P1  H  6896  6908       L1    17  0.66
      P1  H  6896  6909       L1    21  0.93
      P1  H  7989  7998       L1    12  0.85
      P1  H 10752 10764       L1    15  0.75
      L1  C     9    38       P1  7948  0.82

> <Gold.PLP.Chemscore.Internal.Correction>
0.0996

> <Gold.Rescore>
     Score         DG    S(hbond)    S(metal)    S(lipo)     H(rot)  DE(clash)    DE(int)     intcor
     13.88     -16.48       1.95        0.00     106.79       3.13       0.44       2.16       ----

> <Gold.Chemscore.Fitness>
13.8753

> <Gold.Chemscore.DG>
-16.4777

> <Gold.Chemscore.ZeroCoef>
-5.4800

> <Gold.Chemscore.Hbond>
1.9544

> <Gold.Chemscore.Metal>
0.0000

> <Gold.Chemscore.Lipo>
106.7927

> <Gold.Chemscore.Internal_Hbond>
0.0000

> <Gold.Chemscore.DEClash>
0.4416

> <Gold.Chemscore.DEInternal>
2.1608

> <Gold.Chemscore.Rot>
3.1346

> <Gold.Chemscore.Internal.Correction>
   9.000000E+99

> <Gold.Chemscore.Hbonds>
donor molecule, donor type, donor heavy atom, donor atom, acceptor molecule, acceptor atom, score
      P1  H  6896  6908       L1    17  0.39
      P1  H  6896  6909       L1    21  0.61
      P1  H  7989  7998       L1    12  0.84
      P1  H 10752 10764       L1    15  0.09

> <Gold.Chemscore.Hbond.Weighted>
-6.5275

> <Gold.Chemscore.Metal.Weighted>
-0.0000

> <Gold.Chemscore.Lipo.Weighted>
-12.4947

> <Gold.Chemscore.Internal_Hbond.Weighted>
0.0000

> <Gold.Chemscore.DEClash.Weighted>
0.4416

> <Gold.Chemscore.DEInternal.Weighted>
2.1608

> <Gold.Chemscore.Rot.Weighted>
8.0246

> <Gold.Chemscore.Internal.Correction.Weighted>
   9.000000E+99

> <Gold.Protein.RotatedTorsions>
[ 6907 6896 6895 6894 ] final   72.24 input  -60.11 | X-H torsion
[ 7974 7965 7964 7962 ] final -118.99 input  175.53 | X-H torsion
[ 8008 7997 7996 7995 ] final   90.66 input   59.86 | X-H torsion
[ 10167 10162 10161 10158 ] final  106.65 input  -65.29 | X-H torsion
[ 10718 10713 10712 10709 ] final   -6.57 input   66.30 | X-H torsion
[ 10763 10752 10751 10750 ] final    7.36 input  -60.55 | X-H torsion
[ 11005 11000 10999 10996 ] final -124.97 input  -57.11 | X-H torsion

> <Gold.Protein.ActiveResidues>
 VAL166  LYS551  ARG553  GLY616  TRP617  ASP618  TYR619  PRO620  LYS621  CYS622 
 ASP623  PHE694  ASN695  SER759  ASP760  ASP761  ALA762  ILE779  LEU786  VAL792 
 PHE793  MET794  SER795  GLU796  ALA797  LYS798  CYS799  TRP800  GLU811  SER814 

> <Gold.Protein.RotatedAtoms>
  152.4856  134.4601  159.9602 H   0  0  0  0  0  0  0  0  0  0  0  0  # atno 6907 bound_to 6896
  151.4598  133.3589  159.2815 H   0  0  0  0  0  0  0  0  0  0  0  0  # atno 6908 bound_to 6896
  150.8964  134.8398  159.7390 H   0  0  0  0  0  0  0  0  0  0  0  0  # atno 6909 bound_to 6896
  145.0676  140.8336  143.4115 H   0  0  0  0  0  0  0  0  0  0  0  0  # atno 7974 bound_to 7965
  156.0146  140.3347  155.6976 H   0  0  0  0  0  0  0  0  0  0  0  0  # atno 8008 bound_to 7997
  155.6109  140.0665  157.2724 H   0  0  0  0  0  0  0  0  0  0  0  0  # atno 8009 bound_to 7997
  154.4293  140.1793  156.1259 H   0  0  0  0  0  0  0  0  0  0  0  0  # atno 8010 bound_to 7997
  139.6991  144.7097  151.1216 H   0  0  0  0  0  0  0  0  0  0  0  0  # atno 10167 bound_to 10162
  156.7299  130.5177  149.5848 H   0  0  0  0  0  0  0  0  0  0  0  0  # atno 10718 bound_to 10713
  153.2372  135.6899  153.7823 H   0  0  0  0  0  0  0  0  0  0  0  0  # atno 10763 bound_to 10752
  153.6966  135.3304  155.3216 H   0  0  0  0  0  0  0  0  0  0  0  0  # atno 10764 bound_to 10752
  154.8340  135.4558  154.1280 H   0  0  0  0  0  0  0  0  0  0  0  0  # atno 10765 bound_to 10752
  140.9799  134.0688  157.3776 H   0  0  0  0  0  0  0  0  0  0  0  0  # atno 11005 bound_to 11000
  145.1332  139.2619  143.5528 LP  0  0  0  0  0  0  0  0  0  0  0  0  # atno 17320 bound_to 7965
  146.3527  140.0989  142.8609 LP  0  0  0  0  0  0  0  0  0  0  0  0  # atno 17321 bound_to 7965
  140.7705  143.5449  150.9270 LP  0  0  0  0  0  0  0  0  0  0  0  0  # atno 17342 bound_to 10162
  139.9130  143.6697  152.3111 LP  0  0  0  0  0  0  0  0  0  0  0  0  # atno 17343 bound_to 10162
  156.1536  130.6327  151.0628 LP  0  0  0  0  0  0  0  0  0  0  0  0  # atno 17370 bound_to 10713
  157.6863  131.0824  150.7233 LP  0  0  0  0  0  0  0  0  0  0  0  0  # atno 17371 bound_to 10713
  139.8946  135.0136  156.6958 LP  0  0  0  0  0  0  0  0  0  0  0  0  # atno 17394 bound_to 11000
  140.7202  133.9147  155.8142 LP  0  0  0  0  0  0  0  0  0  0  0  0  # atno 17395 bound_to 11000

$$$$
