AV-unprocessed.smi:2273|AV-procd|sdf|9165|dock2
  -GOLD-   2272012373D 1   1.00000     0.00000
 Structure written by MMmdl.
 53 54  0  0  0  0  0  0  0  0  1 V2000
  151.5343  140.7482  157.6158 C   0  0  0  0  0  0  0  0  0  0  0  0
  150.8709  139.3802  157.3950 C   0  0  0  0  0  0  0  0  0  0  0  0
  151.7333  138.3710  156.5951 C   0  0  0  0  0  0  0  0  0  0  0  0
  152.0635  138.9092  155.1803 C   0  0  0  0  0  0  0  0  0  0  0  0
  153.2310  138.1955  154.4816 C   0  0  0  0  0  0  0  0  0  0  0  0
  151.0784  136.9662  156.5257 C   0  0  1  0  0  0  0  0  0  0  0  0
  150.1935  136.7348  155.2825 C   0  0  0  0  0  0  0  0  0  0  0  0
  149.5733  135.3267  155.3205 C   0  0  1  0  0  0  0  0  0  0  0  0
  148.8289  135.0447  154.0915 N   0  0  0  0  0  0  0  0  0  0  0  0
  147.9205  134.0767  153.8714 C   0  0  0  0  0  0  0  0  0  0  0  0
  147.6276  133.2617  154.7450 O   0  0  0  0  0  0  0  0  0  0  0  0
  147.4032  134.0715  152.6260 N   0  0  0  0  0  0  0  0  0  0  0  0
  146.4855  133.1442  152.1099 C   0  0  0  0  0  0  0  0  0  0  0  0
  145.4494  133.5953  151.3549 C   0  0  0  0  0  0  0  0  0  0  0  0
  145.2820  135.0699  151.0235 C   0  0  0  0  0  0  0  0  0  0  0  0
  144.4917  132.6426  150.8332 C   0  0  0  0  0  0  0  0  0  0  0  0
  144.6389  131.3405  151.1115 C   0  0  0  0  0  0  0  0  0  0  0  0
  145.6912  130.8727  151.9115 N   0  0  0  0  0  0  0  0  0  0  0  0
  145.7547  129.4326  152.1740 C   0  0  0  0  0  0  0  0  0  0  0  0
  146.6142  131.7104  152.4656 C   0  0  0  0  0  0  0  0  0  0  0  0
  147.4812  131.2783  153.2287 O   0  0  0  0  0  0  0  0  0  0  0  0
  150.6956  134.2935  155.4978 C   0  0  0  0  0  0  0  0  0  0  0  0
  151.5691  134.6429  156.7137 C   0  0  0  0  0  0  0  0  0  0  0  0
  152.0897  135.9621  156.5843 O   0  0  0  0  0  0  0  0  0  0  0  0
  150.9231  141.3671  158.2730 H   0  0  0  0  0  0  0  0  0  0  0  0
  151.6619  141.2996  156.6853 H   0  0  0  0  0  0  0  0  0  0  0  0
  152.5139  140.6406  158.0821 H   0  0  0  0  0  0  0  0  0  0  0  0
  150.6447  138.9811  158.3814 H   0  0  0  0  0  0  0  0  0  0  0  0
  149.9067  139.5167  156.9040 H   0  0  0  0  0  0  0  0  0  0  0  0
  152.6784  138.2592  157.1284 H   0  0  0  0  0  0  0  0  0  0  0  0
  151.1759  138.8653  154.5481 H   0  0  0  0  0  0  0  0  0  0  0  0
  152.3308  139.9629  155.2379 H   0  0  0  0  0  0  0  0  0  0  0  0
  153.4741  138.6920  153.5419 H   0  0  0  0  0  0  0  0  0  0  0  0
  152.9980  137.1584  154.2441 H   0  0  0  0  0  0  0  0  0  0  0  0
  154.1279  138.2079  155.1013 H   0  0  0  0  0  0  0  0  0  0  0  0
  150.4310  136.8473  157.3940 H   0  0  0  0  0  0  0  0  0  0  0  0
  149.4140  137.4948  155.2402 H   0  0  0  0  0  0  0  0  0  0  0  0
  150.7756  136.8366  154.3676 H   0  0  0  0  0  0  0  0  0  0  0  0
  148.9054  135.2468  156.1801 H   0  0  0  0  0  0  0  0  0  0  0  0
  149.0332  135.6504  153.3096 H   0  0  0  0  0  0  0  0  0  0  0  0
  147.8052  134.7119  151.9575 H   0  0  0  0  0  0  0  0  0  0  0  0
  144.4112  135.2361  150.3891 H   0  0  0  0  0  0  0  0  0  0  0  0
  146.1581  135.4456  150.4942 H   0  0  0  0  0  0  0  0  0  0  0  0
  145.1488  135.6535  151.9350 H   0  0  0  0  0  0  0  0  0  0  0  0
  143.6675  132.9723  150.2177 H   0  0  0  0  0  0  0  0  0  0  0  0
  143.9588  130.5838  150.7486 H   0  0  0  0  0  0  0  0  0  0  0  0
  146.7401  129.0365  151.9235 H   0  0  0  0  0  0  0  0  0  0  0  0
  145.0251  128.8667  151.5936 H   0  0  0  0  0  0  0  0  0  0  0  0
  145.5645  129.2300  153.2290 H   0  0  0  0  0  0  0  0  0  0  0  0
  150.2758  133.2938  155.6161 H   0  0  0  0  0  0  0  0  0  0  0  0
  151.3210  134.2666  154.6043 H   0  0  0  0  0  0  0  0  0  0  0  0
  150.9983  134.5565  157.6396 H   0  0  0  0  0  0  0  0  0  0  0  0
  152.4016  133.9434  156.7894 H   0  0  0  0  0  0  0  0  0  0  0  0
  1  2  1  0  0  0  0
  1 25  1  0  0  0  0
  1 26  1  0  0  0  0
  1 27  1  0  0  0  0
  2  3  1  0  0  0  0
  2 28  1  0  0  0  0
  2 29  1  0  0  0  0
  3  4  1  0  0  0  0
  3  6  1  0  0  0  0
  3 30  1  0  0  0  0
  4  5  1  0  0  0  0
  4 31  1  0  0  0  0
  4 32  1  0  0  0  0
  5 33  1  0  0  0  0
  5 34  1  0  0  0  0
  5 35  1  0  0  0  0
  6 24  1  0  0  0  0
  6  7  1  0  0  0  0
  6 36  1  0  0  0  0
  7  8  1  0  0  0  0
  7 37  1  0  0  0  0
  7 38  1  0  0  0  0
  8  9  1  0  0  0  0
  8 22  1  0  0  0  0
  8 39  1  0  0  0  0
  9 10  1  0  0  0  0
  9 40  1  0  0  0  0
 10 11  2  0  0  0  0
 10 12  1  0  0  0  0
 12 13  1  0  0  0  0
 12 41  1  0  0  0  0
 13 20  1  0  0  0  0
 13 14  2  0  0  0  0
 14 15  1  0  0  0  0
 14 16  1  0  0  0  0
 15 42  1  0  0  0  0
 15 43  1  0  0  0  0
 15 44  1  0  0  0  0
 16 17  2  0  0  0  0
 16 45  1  0  0  0  0
 17 18  1  0  0  0  0
 17 46  1  0  0  0  0
 18 19  1  0  0  0  0
 18 20  1  0  0  0  0
 19 47  1  0  0  0  0
 19 48  1  0  0  0  0
 19 49  1  0  0  0  0
 20 21  2  0  0  0  0
 22 23  1  0  0  0  0
 22 50  1  0  0  0  0
 22 51  1  0  0  0  0
 23 24  1  0  0  0  0
 23 52  1  0  0  0  0
 23 53  1  0  0  0  0
M  END
> <s_m_source_file>
AV-unprocessed.smi

> <i_m_source_file_index>
2273

> <i_lp_mmshare_version>
43012

> <i_f3d_flags>
0

> <s_epik_input>
W0NIM11bQ0gyXVtDSF0oW0NIMl1bQ0gzXSlbQ0BASF0xW0NIMl1bQ0BIXShbQ0gyXVtDSDJdTzEpW05IXUMoPU8pW05IXWMyYyhbQ0gzXSlbY0hdW2NIXW4oW0NIM10pYzI9Tw==

> <s_epik_cmdline>
J2VwaWtfcHl0aG9uJywgJy1waCcsICc3LjAnLCAnLXRuJywgJzgnLCAnLW1hJywgJzIwMCcsICctbWV0YWxfYmluZGluZycsICctaW1hZScsICc8aW5maWxlLm1hZT4nLCAnLW9tYWUnLCAnPG91dGZpbGUubWFlPic=

> <r_lp_tautomer_probability>
1

> <r_epik_Ionization_Penalty>
2.66245e-05

> <r_epik_Ionization_Penalty_Charging>
6.91055e-06

> <r_epik_Ionization_Penalty_Neutral>
1.97139e-05

> <r_epik_State_Penalty>
-0

> <r_epik_Charging_Adjusted_Penalty>
6.91055e-06

> <i_epik_Tot_Q>
0

> <i_epik_Tot_abs_Q>
0

> <r_epik_Metal_State_Penalty>
-0

> <b_epik_Metal_Only>
0

> <s_lp_Force_Field>
OPLS_2005

> <r_lp_Energy>
39.8716

> <b_lp_Chiralities_Consistent>
1

> <s_lp_Variant>
AV-unprocessed.smi:2273-2

> <Gold.Version>
5.8.1

> <Gold.Id.Protein>
6NUR|6NUR_protein|mol2

> <Gold.PLP.Fitness>
43.0090

> <Gold.PLP.PLP>
-38.0750

> <Gold.PLP.part.hbond>
-2.8986

> <Gold.PLP.part.metal>
0.0000

> <Gold.PLP.part.buried>
-3.9349

> <Gold.PLP.part.nonpolar>
-32.3612

> <Gold.PLP.part.repulsive>
0.1369

> <Gold.PLP.ligand.clash>
0.0000

> <Gold.PLP.ligand.torsion>
1.4557

> <Gold.PLP.Chemscore.Hbond>
2.3640

> <Gold.PLP.Chemscore.CHOScore>
0.0000

> <Gold.PLP.Chemscore.Metal>
0.0000

> <Gold.Chemscore.Hbonds>
donor molecule, donor type, donor heavy atom, donor atom, acceptor molecule, acceptor atom, score
      L1  H     9    40       P1  7948  1.00
      L1  H    12    41       P1  7948  0.85
      P1  H 10752 10765       L1    24  0.60

> <Gold.PLP.Chemscore.Internal.Correction>
0.7533

> <Gold.Rescore>
     Score         DG    S(hbond)    S(metal)    S(lipo)     H(rot)  DE(clash)    DE(int)     intcor
     12.63     -18.06       1.59        0.00      93.39       1.42       0.29       5.14       ----

> <Gold.Chemscore.Fitness>
12.6294

> <Gold.Chemscore.DG>
-18.0602

> <Gold.Chemscore.ZeroCoef>
-5.4800

> <Gold.Chemscore.Hbond>
1.5864

> <Gold.Chemscore.Metal>
0.0000

> <Gold.Chemscore.Lipo>
93.3850

> <Gold.Chemscore.Internal_Hbond>
0.0000

> <Gold.Chemscore.DEClash>
0.2872

> <Gold.Chemscore.DEInternal>
5.1436

> <Gold.Chemscore.Rot>
1.4236

> <Gold.Chemscore.Internal.Correction>
   9.000000E+99

> <Gold.Chemscore.Hbonds>
donor molecule, donor type, donor heavy atom, donor atom, acceptor molecule, acceptor atom, score
      L1  H     9    40       P1  7948  0.69
      L1  H    12    41       P1  7948  0.38
      P1  H 10752 10765       L1    24  0.04

> <Gold.Chemscore.Hbond.Weighted>
-5.2987

> <Gold.Chemscore.Metal.Weighted>
-0.0000

> <Gold.Chemscore.Lipo.Weighted>
-10.9261

> <Gold.Chemscore.Internal_Hbond.Weighted>
0.0000

> <Gold.Chemscore.DEClash.Weighted>
0.2872

> <Gold.Chemscore.DEInternal.Weighted>
5.1436

> <Gold.Chemscore.Rot.Weighted>
3.6445

> <Gold.Chemscore.Internal.Correction.Weighted>
   9.000000E+99

> <Gold.Protein.RotatedTorsions>
[ 6907 6896 6895 6894 ] final -114.71 input  -60.11 | X-H torsion
[ 7974 7965 7964 7962 ] final -166.79 input  175.53 | X-H torsion
[ 8008 7997 7996 7995 ] final -137.36 input   59.86 | X-H torsion
[ 10167 10162 10161 10158 ] final  145.29 input  -65.29 | X-H torsion
[ 10718 10713 10712 10709 ] final   39.49 input   66.30 | X-H torsion
[ 10763 10752 10751 10750 ] final -144.43 input  -60.55 | X-H torsion
[ 11005 11000 10999 10996 ] final  109.90 input  -57.11 | X-H torsion

> <Gold.Protein.ActiveResidues>
 VAL166  LYS551  ARG553  GLY616  TRP617  ASP618  TYR619  PRO620  LYS621  CYS622 
 ASP623  PHE694  ASN695  SER759  ASP760  ASP761  ALA762  ILE779  LEU786  VAL792 
 PHE793  MET794  SER795  GLU796  ALA797  LYS798  CYS799  TRP800  GLU811  SER814 

> <Gold.Protein.RotatedAtoms>
  150.7923  133.8762  159.3272 H   0  0  0  0  0  0  0  0  0  0  0  0  # atno 6907 bound_to 6896
  151.6596  135.0989  160.0186 H   0  0  0  0  0  0  0  0  0  0  0  0  # atno 6908 bound_to 6896
  152.3999  133.6763  159.6342 H   0  0  0  0  0  0  0  0  0  0  0  0  # atno 6909 bound_to 6896
  144.7237  140.2614  143.6264 H   0  0  0  0  0  0  0  0  0  0  0  0  # atno 7974 bound_to 7965
  155.4105  140.0512  157.3032 H   0  0  0  0  0  0  0  0  0  0  0  0  # atno 8008 bound_to 7997
  154.4948  140.2134  155.9430 H   0  0  0  0  0  0  0  0  0  0  0  0  # atno 8009 bound_to 7997
  156.1391  140.3157  155.8472 H   0  0  0  0  0  0  0  0  0  0  0  0  # atno 8010 bound_to 7997
  139.4929  144.5912  151.6676 H   0  0  0  0  0  0  0  0  0  0  0  0  # atno 10167 bound_to 10162
  157.3712  130.7702  149.7121 H   0  0  0  0  0  0  0  0  0  0  0  0  # atno 10718 bound_to 10713
  154.8428  135.3440  154.6344 H   0  0  0  0  0  0  0  0  0  0  0  0  # atno 10763 bound_to 10752
  153.6954  135.6972  153.5082 H   0  0  0  0  0  0  0  0  0  0  0  0  # atno 10764 bound_to 10752
  153.2563  135.4337  155.0804 H   0  0  0  0  0  0  0  0  0  0  0  0  # atno 10765 bound_to 10752
  139.8871  134.9470  156.6196 H   0  0  0  0  0  0  0  0  0  0  0  0  # atno 11005 bound_to 11000
  145.8132  139.2012  143.1981 LP  0  0  0  0  0  0  0  0  0  0  0  0  # atno 17320 bound_to 7965
  146.0578  140.8002  142.9750 LP  0  0  0  0  0  0  0  0  0  0  0  0  # atno 17321 bound_to 7965
  140.5540  144.0379  150.6139 LP  0  0  0  0  0  0  0  0  0  0  0  0  # atno 17342 bound_to 10162
  140.3443  143.3001  152.0555 LP  0  0  0  0  0  0  0  0  0  0  0  0  # atno 17343 bound_to 10162
  155.9756  130.4087  150.3838 LP  0  0  0  0  0  0  0  0  0  0  0  0  # atno 17370 bound_to 10713
  157.1929  131.0419  151.2690 LP  0  0  0  0  0  0  0  0  0  0  0  0  # atno 17371 bound_to 10713
  140.7749  133.8708  155.8521 LP  0  0  0  0  0  0  0  0  0  0  0  0  # atno 17394 bound_to 11000
  140.9810  134.1405  157.4494 LP  0  0  0  0  0  0  0  0  0  0  0  0  # atno 17395 bound_to 11000

$$$$
