AV-unprocessed.smi:1999|AV-procd|sdf|8092|dock8
  -GOLD-   2272010313D 1   1.00000     0.00000
 Structure written by MMmdl.
 38 39  0  0  0  0  0  0  0  0  1 V2000
  144.4031  133.3869  150.2245 C   0  0  0  0  0  0  0  0  0  0  0  0
  144.3530  134.6114  151.0728 C   0  0  0  0  0  0  0  0  0  0  0  0
  143.4274  134.7999  152.0213 N   0  0  0  0  0  0  0  0  0  0  0  0
  143.5893  136.0099  152.6815 N   0  0  0  0  0  0  0  0  0  0  0  0
  144.6371  136.6999  152.2105 C   0  0  0  0  0  0  0  0  0  0  0  0
  145.0366  137.9675  152.7099 N   0  0  0  0  0  0  0  0  0  0  0  0
  146.0781  138.2578  153.5092 C   0  0  0  0  0  0  0  0  0  0  0  0
  146.8654  137.4363  153.9801 O   0  0  0  0  0  0  0  0  0  0  0  0
  146.1628  139.5774  153.7336 N   0  0  0  0  0  0  0  0  0  0  0  0
  147.2024  140.2393  154.5170 C   0  0  2  0  0  0  0  0  0  0  0  0
  146.9588  141.7584  154.5332 C   0  0  0  0  0  0  0  0  0  0  0  0
  148.5754  139.8761  153.9150 C   0  0  0  0  0  0  0  0  0  0  0  0
  149.6678  139.7121  154.8746 N   0  0  0  0  0  0  0  0  0  0  0  0
  150.7949  138.9620  154.3225 C   0  0  0  0  0  0  0  0  0  0  0  0
  151.9495  138.8320  155.3314 C   0  0  0  0  0  0  0  0  0  0  0  0
  152.3601  140.1253  155.7620 O   0  0  0  0  0  0  0  0  0  0  0  0
  151.2985  140.8679  156.3521 C   0  0  0  0  0  0  0  0  0  0  0  0
  150.1477  141.0088  155.3416 C   0  0  0  0  0  0  0  0  0  0  0  0
  145.5151  135.9214  150.9048 S   0  0  0  0  0  0  0  0  0  0  0  0
  143.4931  132.7981  150.3441 H   0  0  0  0  0  0  0  0  0  0  0  0
  145.2573  132.7725  150.5093 H   0  0  0  0  0  0  0  0  0  0  0  0
  144.5038  133.6634  149.1750 H   0  0  0  0  0  0  0  0  0  0  0  0
  144.4766  138.7489  152.4030 H   0  0  0  0  0  0  0  0  0  0  0  0
  145.4684  140.1753  153.3101 H   0  0  0  0  0  0  0  0  0  0  0  0
  147.1456  139.8621  155.5384 H   0  0  0  0  0  0  0  0  0  0  0  0
  147.7078  142.2710  155.1375 H   0  0  0  0  0  0  0  0  0  0  0  0
  145.9828  141.9988  154.9560 H   0  0  0  0  0  0  0  0  0  0  0  0
  146.9995  142.1787  153.5277 H   0  0  0  0  0  0  0  0  0  0  0  0
  148.4797  138.9633  153.3247 H   0  0  0  0  0  0  0  0  0  0  0  0
  148.8440  140.6592  153.2044 H   0  0  0  0  0  0  0  0  0  0  0  0
  150.4803  137.9611  154.0302 H   0  0  0  0  0  0  0  0  0  0  0  0
  151.1593  139.4531  153.4188 H   0  0  0  0  0  0  0  0  0  0  0  0
  151.6434  138.2352  156.1919 H   0  0  0  0  0  0  0  0  0  0  0  0
  152.7974  138.3227  154.8730 H   0  0  0  0  0  0  0  0  0  0  0  0
  150.9569  140.3698  157.2609 H   0  0  0  0  0  0  0  0  0  0  0  0
  151.6693  141.8504  156.6445 H   0  0  0  0  0  0  0  0  0  0  0  0
  150.4861  141.6056  154.4931 H   0  0  0  0  0  0  0  0  0  0  0  0
  149.3295  141.5616  155.8047 H   0  0  0  0  0  0  0  0  0  0  0  0
  1  2  1  0  0  0  0
  1 20  1  0  0  0  0
  1 21  1  0  0  0  0
  1 22  1  0  0  0  0
  2 19  1  0  0  0  0
  2  3  2  0  0  0  0
  3  4  1  0  0  0  0
  4  5  2  0  0  0  0
  5  6  1  0  0  0  0
  5 19  1  0  0  0  0
  6  7  1  0  0  0  0
  6 23  1  0  0  0  0
  7  8  2  0  0  0  0
  7  9  1  0  0  0  0
  9 10  1  0  0  0  0
  9 24  1  0  0  0  0
 10 11  1  0  0  0  0
 10 12  1  0  0  0  0
 10 25  1  0  0  0  0
 11 26  1  0  0  0  0
 11 27  1  0  0  0  0
 11 28  1  0  0  0  0
 12 13  1  0  0  0  0
 12 29  1  0  0  0  0
 12 30  1  0  0  0  0
 13 18  1  0  0  0  0
 13 14  1  0  0  0  0
 14 15  1  0  0  0  0
 14 31  1  0  0  0  0
 14 32  1  0  0  0  0
 15 16  1  0  0  0  0
 15 33  1  0  0  0  0
 15 34  1  0  0  0  0
 16 17  1  0  0  0  0
 17 18  1  0  0  0  0
 17 35  1  0  0  0  0
 17 36  1  0  0  0  0
 18 37  1  0  0  0  0
 18 38  1  0  0  0  0
M  END
> <s_m_source_file>
AV-unprocessed.smi

> <i_m_source_file_index>
1999

> <i_lp_mmshare_version>
43012

> <i_f3d_flags>
0

> <s_epik_input>
W0NIM11jMW5uYyhzMSlbTkhdQyg9TylbTkhdW0NASF0oW0NIM10pW0NIMl1OMltDSDJdW0NIMl1PW0NIMl1bQ0gyXTI=

> <s_epik_cmdline>
J2VwaWtfcHl0aG9uJywgJy1waCcsICc3LjAnLCAnLXRuJywgJzgnLCAnLW1hJywgJzIwMCcsICctbWV0YWxfYmluZGluZycsICctaW1hZScsICc8aW5maWxlLm1hZT4nLCAnLW9tYWUnLCAnPG91dGZpbGUubWFlPic=

> <r_lp_tautomer_probability>
1

> <r_epik_Ionization_Penalty>
0.221412

> <r_epik_Ionization_Penalty_Charging>
0

> <r_epik_Ionization_Penalty_Neutral>
0.221412

> <r_epik_State_Penalty>
0.209349

> <r_epik_Charging_Adjusted_Penalty>
0.209349

> <i_epik_Tot_Q>
0

> <i_epik_Tot_abs_Q>
0

> <r_epik_Metal_State_Penalty>
0.56886

> <b_epik_Metal_Only>
0

> <s_lp_Force_Field>
OPLS_2005

> <r_lp_Energy>
22.1143

> <b_lp_Chiralities_Consistent>
1

> <s_lp_Variant>
AV-unprocessed.smi:1999-1

> <Gold.Version>
5.8.1

> <Gold.Id.Protein>
6NUR|6NUR_protein|mol2

> <Gold.PLP.Fitness>
37.0763

> <Gold.PLP.PLP>
-30.6959

> <Gold.PLP.part.hbond>
-3.6124

> <Gold.PLP.part.metal>
0.0000

> <Gold.PLP.part.buried>
-1.9374

> <Gold.PLP.part.nonpolar>
-25.5770

> <Gold.PLP.part.repulsive>
0.5184

> <Gold.PLP.ligand.clash>
0.0000

> <Gold.PLP.ligand.torsion>
1.3260

> <Gold.PLP.Chemscore.Hbond>
3.0000

> <Gold.PLP.Chemscore.CHOScore>
0.0000

> <Gold.PLP.Chemscore.Metal>
0.0000

> <Gold.Chemscore.Hbonds>
donor molecule, donor type, donor heavy atom, donor atom, acceptor molecule, acceptor atom, score
      L1  H     6    23       P1 10175  1.00
      L1  H     9    24       P1 10175  1.00
      P1  H  7997  8009       L1    16  1.00

> <Gold.PLP.Chemscore.Internal.Correction>
0.0323

> <Gold.Rescore>
     Score         DG    S(hbond)    S(metal)    S(lipo)     H(rot)  DE(clash)    DE(int)     intcor
     15.45     -18.64       2.82        0.00      66.51       1.58       0.56       2.63       ----

> <Gold.Chemscore.Fitness>
15.4517

> <Gold.Chemscore.DG>
-18.6384

> <Gold.Chemscore.ZeroCoef>
-5.4800

> <Gold.Chemscore.Hbond>
2.8238

> <Gold.Chemscore.Metal>
0.0000

> <Gold.Chemscore.Lipo>
66.5067

> <Gold.Chemscore.Internal_Hbond>
0.0000

> <Gold.Chemscore.DEClash>
0.5554

> <Gold.Chemscore.DEInternal>
2.6313

> <Gold.Chemscore.Rot>
1.5837

> <Gold.Chemscore.Internal.Correction>
   9.000000E+99

> <Gold.Chemscore.Hbonds>
donor molecule, donor type, donor heavy atom, donor atom, acceptor molecule, acceptor atom, score
      L1  H     6    23       P1 10175  0.99
      L1  H     9    24       P1 10175  0.93
      P1  H  7997  8009       L1    16  0.73

> <Gold.Chemscore.Hbond.Weighted>
-9.4313

> <Gold.Chemscore.Metal.Weighted>
-0.0000

> <Gold.Chemscore.Lipo.Weighted>
-7.7813

> <Gold.Chemscore.Internal_Hbond.Weighted>
0.0000

> <Gold.Chemscore.DEClash.Weighted>
0.5554

> <Gold.Chemscore.DEInternal.Weighted>
2.6313

> <Gold.Chemscore.Rot.Weighted>
4.0542

> <Gold.Chemscore.Internal.Correction.Weighted>
   9.000000E+99

> <Gold.Protein.RotatedTorsions>
[ 6907 6896 6895 6894 ] final -123.27 input  -60.11 | X-H torsion
[ 7974 7965 7964 7962 ] final    5.37 input  175.53 | X-H torsion
[ 8008 7997 7996 7995 ] final -150.26 input   59.86 | X-H torsion
[ 10167 10162 10161 10158 ] final  139.27 input  -65.29 | X-H torsion
[ 10718 10713 10712 10709 ] final  -28.37 input   66.30 | X-H torsion
[ 10763 10752 10751 10750 ] final  121.63 input  -60.55 | X-H torsion
[ 11005 11000 10999 10996 ] final -119.63 input  -57.11 | X-H torsion

> <Gold.Protein.ActiveResidues>
 VAL166  LYS551  ARG553  GLY616  TRP617  ASP618  TYR619  PRO620  LYS621  CYS622 
 ASP623  PHE694  ASN695  SER759  ASP760  ASP761  ALA762  ILE779  LEU786  VAL792 
 PHE793  MET794  SER795  GLU796  ALA797  LYS798  CYS799  TRP800  GLU811  SER814 

> <Gold.Protein.RotatedAtoms>
  150.8654  133.7582  159.2978 H   0  0  0  0  0  0  0  0  0  0  0  0  # atno 6907 bound_to 6896
  151.5211  135.1065  159.9888 H   0  0  0  0  0  0  0  0  0  0  0  0  # atno 6908 bound_to 6896
  152.4657  133.7874  159.6939 H   0  0  0  0  0  0  0  0  0  0  0  0  # atno 6909 bound_to 6896
  146.2441  140.0393  142.8383 H   0  0  0  0  0  0  0  0  0  0  0  0  # atno 7974 bound_to 7965
  155.6208  140.0681  157.2678 H   0  0  0  0  0  0  0  0  0  0  0  0  # atno 8008 bound_to 7997
  154.4230  140.1785  156.1418 H   0  0  0  0  0  0  0  0  0  0  0  0  # atno 8009 bound_to 7997
  156.0011  140.3336  155.6850 H   0  0  0  0  0  0  0  0  0  0  0  0  # atno 8010 bound_to 7997
  139.5084  144.6304  151.5831 H   0  0  0  0  0  0  0  0  0  0  0  0  # atno 10167 bound_to 10162
  156.4261  130.4436  149.7150 H   0  0  0  0  0  0  0  0  0  0  0  0  # atno 10718 bound_to 10713
  153.6171  135.3420  155.2998 H   0  0  0  0  0  0  0  0  0  0  0  0  # atno 10763 bound_to 10752
  154.8607  135.4264  154.2247 H   0  0  0  0  0  0  0  0  0  0  0  0  # atno 10764 bound_to 10752
  153.3111  135.7031  153.7187 H   0  0  0  0  0  0  0  0  0  0  0  0  # atno 10765 bound_to 10752
  141.0201  134.0136  157.3294 H   0  0  0  0  0  0  0  0  0  0  0  0  # atno 11005 bound_to 11000
  145.1083  140.9389  143.4671 LP  0  0  0  0  0  0  0  0  0  0  0  0  # atno 17320 bound_to 7965
  145.0602  139.3112  143.5884 LP  0  0  0  0  0  0  0  0  0  0  0  0  # atno 17321 bound_to 7965
  140.6035  143.9566  150.6402 LP  0  0  0  0  0  0  0  0  0  0  0  0  # atno 17342 bound_to 10162
  140.2786  143.3405  152.1172 LP  0  0  0  0  0  0  0  0  0  0  0  0  # atno 17343 bound_to 10162
  156.4071  130.7704  151.2715 LP  0  0  0  0  0  0  0  0  0  0  0  0  # atno 17370 bound_to 10713
  157.7508  131.0222  150.3784 LP  0  0  0  0  0  0  0  0  0  0  0  0  # atno 17371 bound_to 10713
  139.9141  135.0194  156.7811 LP  0  0  0  0  0  0  0  0  0  0  0  0  # atno 17394 bound_to 11000
  140.6587  133.9665  155.7793 LP  0  0  0  0  0  0  0  0  0  0  0  0  # atno 17395 bound_to 11000

$$$$
