AV-unprocessed.smi:590|AV-procd|sdf|3008|dock7
  -GOLD-   2262023513D 1   1.00000     0.00000
 Structure written by MMmdl.
 41 42  0  0  0  0  0  0  0  0  1 V2000
  154.9457  132.7404  161.7133 C   0  0  0  0  0  0  0  0  0  0  0  0
  154.9257  133.9260  162.6348 C   0  0  0  0  0  0  0  0  0  0  0  0
  154.7382  133.7440  163.9313 N   0  0  0  0  0  0  0  0  0  0  0  0
  154.7623  135.0193  164.5041 O   0  0  0  0  0  0  0  0  0  0  0  0
  154.9631  135.9296  163.5174 C   0  0  0  0  0  0  0  0  0  0  0  0
  155.0132  137.3628  163.9263 C   0  0  0  0  0  0  0  0  0  0  0  0
  155.0787  135.3037  162.3071 C   0  0  0  0  0  0  0  0  0  0  0  0
  155.3059  135.9168  160.9499 C   0  0  0  0  0  0  0  0  0  0  0  0
  154.2212  136.9562  160.6676 C   0  0  0  0  0  0  0  0  0  0  0  0
  153.0818  136.5909  160.3787 O   0  0  0  0  0  0  0  0  0  0  0  0
  154.5899  138.2445  160.7517 N   0  0  0  0  0  0  0  0  0  0  0  0
  153.7213  139.3952  160.5189 C   0  0  0  0  0  0  0  0  0  0  0  0
  154.4249  140.7315  160.8287 C   0  0  0  0  0  0  0  0  0  0  0  0
  153.5183  141.9499  160.7327 C   0  0  0  0  0  0  0  0  0  0  0  0
  153.2966  142.7567  161.7891 C   0  0  0  0  0  0  0  0  0  0  0  0
  152.4228  143.9978  161.7474 C   0  0  0  0  0  0  0  0  0  0  0  0
  152.1053  144.4427  160.3101 C   0  0  0  0  0  0  0  0  0  0  0  0
  151.7468  143.2422  159.4261 C   0  0  0  0  0  0  0  0  0  0  0  0
  152.9004  142.2253  159.3660 C   0  0  0  0  0  0  0  0  0  0  0  0
  155.7883  132.7958  161.0239 H   0  0  0  0  0  0  0  0  0  0  0  0
  154.0332  132.6959  161.1188 H   0  0  0  0  0  0  0  0  0  0  0  0
  155.0303  131.8022  162.2627 H   0  0  0  0  0  0  0  0  0  0  0  0
  154.5167  137.9929  163.1882 H   0  0  0  0  0  0  0  0  0  0  0  0
  156.0451  137.7004  164.0204 H   0  0  0  0  0  0  0  0  0  0  0  0
  154.5175  137.5152  164.8852 H   0  0  0  0  0  0  0  0  0  0  0  0
  156.2774  136.4089  160.8926 H   0  0  0  0  0  0  0  0  0  0  0  0
  155.3077  135.1569  160.1673 H   0  0  0  0  0  0  0  0  0  0  0  0
  155.5494  138.4439  160.9955 H   0  0  0  0  0  0  0  0  0  0  0  0
  153.4333  139.3804  159.4676 H   0  0  0  0  0  0  0  0  0  0  0  0
  152.7909  139.3034  161.0807 H   0  0  0  0  0  0  0  0  0  0  0  0
  154.8568  140.6826  161.8293 H   0  0  0  0  0  0  0  0  0  0  0  0
  155.2633  140.8727  160.1459 H   0  0  0  0  0  0  0  0  0  0  0  0
  153.7427  142.5241  162.7449 H   0  0  0  0  0  0  0  0  0  0  0  0
  151.5005  143.7767  162.2856 H   0  0  0  0  0  0  0  0  0  0  0  0
  152.9189  144.8061  162.2851 H   0  0  0  0  0  0  0  0  0  0  0  0
  151.2913  145.1682  160.3153 H   0  0  0  0  0  0  0  0  0  0  0  0
  152.9716  144.9525  159.8865 H   0  0  0  0  0  0  0  0  0  0  0  0
  150.8557  142.7564  159.8266 H   0  0  0  0  0  0  0  0  0  0  0  0
  151.4908  143.5743  158.4196 H   0  0  0  0  0  0  0  0  0  0  0  0
  153.6889  142.5948  158.7100 H   0  0  0  0  0  0  0  0  0  0  0  0
  152.5346  141.2993  158.9238 H   0  0  0  0  0  0  0  0  0  0  0  0
  1  2  1  0  0  0  0
  1 20  1  0  0  0  0
  1 21  1  0  0  0  0
  1 22  1  0  0  0  0
  2  7  1  0  0  0  0
  2  3  2  0  0  0  0
  3  4  1  0  0  0  0
  4  5  1  0  0  0  0
  5  6  1  0  0  0  0
  5  7  2  0  0  0  0
  6 23  1  0  0  0  0
  6 24  1  0  0  0  0
  6 25  1  0  0  0  0
  7  8  1  0  0  0  0
  8  9  1  0  0  0  0
  8 26  1  0  0  0  0
  8 27  1  0  0  0  0
  9 10  2  0  0  0  0
  9 11  1  0  0  0  0
 11 12  1  0  0  0  0
 11 28  1  0  0  0  0
 12 13  1  0  0  0  0
 12 29  1  0  0  0  0
 12 30  1  0  0  0  0
 13 14  1  0  0  0  0
 13 31  1  0  0  0  0
 13 32  1  0  0  0  0
 14 19  1  0  0  0  0
 14 15  2  0  0  0  0
 15 16  1  0  0  0  0
 15 33  1  0  0  0  0
 16 17  1  0  0  0  0
 16 34  1  0  0  0  0
 16 35  1  0  0  0  0
 17 18  1  0  0  0  0
 17 36  1  0  0  0  0
 17 37  1  0  0  0  0
 18 19  1  0  0  0  0
 18 38  1  0  0  0  0
 18 39  1  0  0  0  0
 19 40  1  0  0  0  0
 19 41  1  0  0  0  0
M  END
> <s_m_source_file>
AV-unprocessed.smi

> <i_m_source_file_index>
590

> <i_lp_mmshare_version>
43012

> <i_f3d_flags>
0

> <s_epik_input>
W0NIM11jMW5vYyhbQ0gzXSljMVtDSDJdQyg9TylbTkhdW0NIMl1bQ0gyXUMyPVtDSF1bQ0gyXVtDSDJdW0NIMl1bQ0gyXTI=

> <s_epik_cmdline>
J2VwaWtfcHl0aG9uJywgJy1waCcsICc3LjAnLCAnLXRuJywgJzgnLCAnLW1hJywgJzIwMCcsICctbWV0YWxfYmluZGluZycsICctaW1hZScsICc8aW5maWxlLm1hZT4nLCAnLW9tYWUnLCAnPG91dGZpbGUubWFlPic=

> <r_lp_tautomer_probability>
1

> <r_epik_Ionization_Penalty>
1.93189e-08

> <r_epik_Ionization_Penalty_Charging>
0

> <r_epik_Ionization_Penalty_Neutral>
1.93189e-08

> <r_epik_State_Penalty>
-0

> <r_epik_Charging_Adjusted_Penalty>
0

> <i_epik_Tot_Q>
0

> <i_epik_Tot_abs_Q>
0

> <r_epik_Metal_State_Penalty>
-0

> <b_epik_Metal_Only>
0

> <s_lp_Force_Field>
OPLS_2005

> <r_lp_Energy>
2.22272

> <b_lp_Chiralities_Consistent>
1

> <s_lp_Variant>
AV-unprocessed.smi:590-1

> <Gold.Version>
5.8.1

> <Gold.Id.Protein>
6NUR|6NUR_protein|mol2

> <Gold.PLP.Fitness>
45.7697

> <Gold.PLP.PLP>
-43.1877

> <Gold.PLP.part.hbond>
-1.0000

> <Gold.PLP.part.metal>
0.0000

> <Gold.PLP.part.buried>
-5.4054

> <Gold.PLP.part.nonpolar>
-36.7568

> <Gold.PLP.part.repulsive>
0.1299

> <Gold.PLP.ligand.clash>
0.0000

> <Gold.PLP.ligand.torsion>
0.2227

> <Gold.PLP.Chemscore.Hbond>
1.0000

> <Gold.PLP.Chemscore.CHOScore>
0.0000

> <Gold.PLP.Chemscore.Metal>
0.0000

> <Gold.Chemscore.Hbonds>
donor molecule, donor type, donor heavy atom, donor atom, acceptor molecule, acceptor atom, score
      P1  H  6896  6909       L1    10  1.00

> <Gold.PLP.Chemscore.Internal.Correction>
0.0274

> <Gold.Rescore>
     Score         DG    S(hbond)    S(metal)    S(lipo)     H(rot)  DE(clash)    DE(int)     intcor
     18.61     -18.80       1.00        0.00     119.24       1.55       0.01       0.18       ----

> <Gold.Chemscore.Fitness>
18.6103

> <Gold.Chemscore.DG>
-18.8020

> <Gold.Chemscore.ZeroCoef>
-5.4800

> <Gold.Chemscore.Hbond>
0.9992

> <Gold.Chemscore.Metal>
0.0000

> <Gold.Chemscore.Lipo>
119.2378

> <Gold.Chemscore.Internal_Hbond>
0.0000

> <Gold.Chemscore.DEClash>
0.0089

> <Gold.Chemscore.DEInternal>
0.1828

> <Gold.Chemscore.Rot>
1.5493

> <Gold.Chemscore.Internal.Correction>
   9.000000E+99

> <Gold.Chemscore.Hbonds>
donor molecule, donor type, donor heavy atom, donor atom, acceptor molecule, acceptor atom, score
      P1  H  6896  6909       L1    10  1.00

> <Gold.Chemscore.Hbond.Weighted>
-3.3374

> <Gold.Chemscore.Metal.Weighted>
-0.0000

> <Gold.Chemscore.Lipo.Weighted>
-13.9508

> <Gold.Chemscore.Internal_Hbond.Weighted>
0.0000

> <Gold.Chemscore.DEClash.Weighted>
0.0089

> <Gold.Chemscore.DEInternal.Weighted>
0.1828

> <Gold.Chemscore.Rot.Weighted>
3.9663

> <Gold.Chemscore.Internal.Correction.Weighted>
   9.000000E+99

> <Gold.Protein.RotatedTorsions>
[ 6907 6896 6895 6894 ] final  156.58 input  -60.11 | X-H torsion
[ 7974 7965 7964 7962 ] final   35.40 input  175.53 | X-H torsion
[ 8008 7997 7996 7995 ] final -116.55 input   59.86 | X-H torsion
[ 10167 10162 10161 10158 ] final -163.30 input  -65.29 | X-H torsion
[ 10718 10713 10712 10709 ] final -161.91 input   66.30 | X-H torsion
[ 10763 10752 10751 10750 ] final  178.85 input  -60.55 | X-H torsion
[ 11005 11000 10999 10996 ] final   20.52 input  -57.11 | X-H torsion

> <Gold.Protein.ActiveResidues>
 VAL166  LYS551  ARG553  GLY616  TRP617  ASP618  TYR619  PRO620  LYS621  CYS622 
 ASP623  PHE694  ASN695  SER759  ASP760  ASP761  ALA762  ILE779  LEU786  VAL792 
 PHE793  MET794  SER795  GLU796  ALA797  LYS798  CYS799  TRP800  GLU811  SER814 

> <Gold.Protein.RotatedAtoms>
  152.0277  133.3924  159.4283 H   0  0  0  0  0  0  0  0  0  0  0  0  # atno 6907 bound_to 6896
  150.6885  134.3556  159.4937 H   0  0  0  0  0  0  0  0  0  0  0  0  # atno 6908 bound_to 6896
  152.1338  134.9114  160.0608 H   0  0  0  0  0  0  0  0  0  0  0  0  # atno 6909 bound_to 6896
  146.1285  139.6147  142.9242 H   0  0  0  0  0  0  0  0  0  0  0  0  # atno 7974 bound_to 7965
  155.0696  140.0393  157.2604 H   0  0  0  0  0  0  0  0  0  0  0  0  # atno 8008 bound_to 7997
  154.6993  140.2670  155.6710 H   0  0  0  0  0  0  0  0  0  0  0  0  # atno 8009 bound_to 7997
  156.2755  140.2743  156.1599 H   0  0  0  0  0  0  0  0  0  0  0  0  # atno 8010 bound_to 7997
  139.6330  144.0403  152.2031 H   0  0  0  0  0  0  0  0  0  0  0  0  # atno 10167 bound_to 10162
  156.6029  130.8818  151.2918 H   0  0  0  0  0  0  0  0  0  0  0  0  # atno 10718 bound_to 10713
  154.5130  135.2789  155.1327 H   0  0  0  0  0  0  0  0  0  0  0  0  # atno 10763 bound_to 10752
  154.2914  135.6266  153.5390 H   0  0  0  0  0  0  0  0  0  0  0  0  # atno 10764 bound_to 10752
  152.9922  135.5675  154.5600 H   0  0  0  0  0  0  0  0  0  0  0  0  # atno 10765 bound_to 10752
  140.4018  134.1711  155.7664 H   0  0  0  0  0  0  0  0  0  0  0  0  # atno 11005 bound_to 11000
  145.5312  141.0427  143.2382 LP  0  0  0  0  0  0  0  0  0  0  0  0  # atno 17320 bound_to 7965
  144.7666  139.6830  143.7212 LP  0  0  0  0  0  0  0  0  0  0  0  0  # atno 17321 bound_to 7965
  140.0073  144.6250  150.7678 LP  0  0  0  0  0  0  0  0  0  0  0  0  # atno 17342 bound_to 10162
  140.7450  143.2869  151.3439 LP  0  0  0  0  0  0  0  0  0  0  0  0  # atno 17343 bound_to 10162
  157.7275  130.9643  150.1700 LP  0  0  0  0  0  0  0  0  0  0  0  0  # atno 17370 bound_to 10713
  156.2454  130.3695  149.8291 LP  0  0  0  0  0  0  0  0  0  0  0  0  # atno 17371 bound_to 10713
  141.1854  133.8324  157.1106 LP  0  0  0  0  0  0  0  0  0  0  0  0  # atno 17394 bound_to 11000
  140.0331  134.9891  157.0819 LP  0  0  0  0  0  0  0  0  0  0  0  0  # atno 17395 bound_to 11000

$$$$
