AV-unprocessed.smi:2299|AV-procd|sdf|9231|dock3
  -GOLD-   2272012453D 1   1.00000     0.00000
 Structure written by MMmdl.
 42 43  0  0  0  0  0  0  0  0  1 V2000
  153.2553  142.2011  161.8080 C   0  0  0  0  0  0  0  0  0  0  0  0
  153.1802  141.8266  160.3207 C   0  0  0  0  0  0  0  0  0  0  0  0
  154.5436  141.3861  159.7683 C   0  0  0  0  0  0  0  0  0  0  0  0
  152.5825  142.9395  159.5019 C   0  0  0  0  0  0  0  0  0  0  0  0
  153.1110  144.1599  159.4441 N   0  0  0  0  0  0  0  0  0  0  0  0
  152.2634  144.8842  158.6157 C   0  0  0  0  0  0  0  0  0  0  0  0
  151.2377  144.0733  158.1980 C   0  0  0  0  0  0  0  0  0  0  0  0
  151.4481  142.8262  158.7745 N   0  0  0  0  0  0  0  0  0  0  0  0
  150.5770  141.6728  158.6006 C   0  0  0  0  0  0  0  0  0  0  0  0
  150.1310  141.5364  157.1437 C   0  0  0  0  0  0  0  0  0  0  0  0
  150.6836  142.2000  156.2666 O   0  0  0  0  0  0  0  0  0  0  0  0
  149.1252  140.6814  156.9026 N   0  0  0  0  0  0  0  0  0  0  0  0
  148.4937  140.4458  155.6043 C   0  0  1  0  0  0  0  0  0  0  0  0
  147.7425  141.7118  155.1360 C   0  0  0  0  0  0  0  0  0  0  0  0
  146.6261  141.4318  154.1167 C   0  0  0  0  0  0  0  0  0  0  0  0
  147.1018  140.8314  152.7851 C   0  0  0  0  0  0  0  0  0  0  0  0
  147.7109  139.4249  152.9217 C   0  0  0  0  0  0  0  0  0  0  0  0
  149.0866  139.4549  153.4028 N   0  0  0  0  0  0  0  0  0  0  0  0
  149.5197  139.9067  154.5895 C   0  0  0  0  0  0  0  0  0  0  0  0
  150.7201  139.8980  154.8618 O   0  0  0  0  0  0  0  0  0  0  0  0
  152.2671  142.4444  162.1994 H   0  0  0  0  0  0  0  0  0  0  0  0
  153.9007  143.0651  161.9698 H   0  0  0  0  0  0  0  0  0  0  0  0
  153.6493  141.3759  162.4020 H   0  0  0  0  0  0  0  0  0  0  0  0
  152.5341  140.9541  160.2549 H   0  0  0  0  0  0  0  0  0  0  0  0
  154.4594  141.0654  158.7294 H   0  0  0  0  0  0  0  0  0  0  0  0
  154.9467  140.5496  160.3397 H   0  0  0  0  0  0  0  0  0  0  0  0
  155.2715  142.1970  159.8091 H   0  0  0  0  0  0  0  0  0  0  0  0
  152.4533  145.9229  158.3892 H   0  0  0  0  0  0  0  0  0  0  0  0
  150.3912  144.2770  157.5589 H   0  0  0  0  0  0  0  0  0  0  0  0
  151.1221  140.7735  158.8899 H   0  0  0  0  0  0  0  0  0  0  0  0
  149.7250  141.7469  159.2772 H   0  0  0  0  0  0  0  0  0  0  0  0
  148.7318  140.1810  157.6867 H   0  0  0  0  0  0  0  0  0  0  0  0
  147.7645  139.6466  155.7509 H   0  0  0  0  0  0  0  0  0  0  0  0
  147.2807  142.2012  155.9947 H   0  0  0  0  0  0  0  0  0  0  0  0
  148.4482  142.4376  154.7290 H   0  0  0  0  0  0  0  0  0  0  0  0
  145.8806  140.7746  154.5662 H   0  0  0  0  0  0  0  0  0  0  0  0
  146.1075  142.3681  153.9080 H   0  0  0  0  0  0  0  0  0  0  0  0
  146.2397  140.7670  152.1201 H   0  0  0  0  0  0  0  0  0  0  0  0
  147.8063  141.5047  152.2950 H   0  0  0  0  0  0  0  0  0  0  0  0
  147.0969  138.7889  153.5609 H   0  0  0  0  0  0  0  0  0  0  0  0
  147.7274  138.9468  151.9419 H   0  0  0  0  0  0  0  0  0  0  0  0
  149.7870  139.1063  152.7641 H   0  0  0  0  0  0  0  0  0  0  0  0
  1  2  1  0  0  0  0
  1 21  1  0  0  0  0
  1 22  1  0  0  0  0
  1 23  1  0  0  0  0
  2  3  1  0  0  0  0
  2  4  1  0  0  0  0
  2 24  1  0  0  0  0
  3 25  1  0  0  0  0
  3 26  1  0  0  0  0
  3 27  1  0  0  0  0
  4  8  1  0  0  0  0
  4  5  2  0  0  0  0
  5  6  1  0  0  0  0
  6  7  2  0  0  0  0
  6 28  1  0  0  0  0
  7  8  1  0  0  0  0
  7 29  1  0  0  0  0
  8  9  1  0  0  0  0
  9 10  1  0  0  0  0
  9 30  1  0  0  0  0
  9 31  1  0  0  0  0
 10 11  2  0  0  0  0
 10 12  1  0  0  0  0
 12 13  1  0  0  0  0
 12 32  1  0  0  0  0
 13 19  1  0  0  0  0
 13 14  1  0  0  0  0
 13 33  1  0  0  0  0
 14 15  1  0  0  0  0
 14 34  1  0  0  0  0
 14 35  1  0  0  0  0
 15 16  1  0  0  0  0
 15 36  1  0  0  0  0
 15 37  1  0  0  0  0
 16 17  1  0  0  0  0
 16 38  1  0  0  0  0
 16 39  1  0  0  0  0
 17 18  1  0  0  0  0
 17 40  1  0  0  0  0
 17 41  1  0  0  0  0
 18 19  1  0  0  0  0
 18 42  1  0  0  0  0
 19 20  2  0  0  0  0
M  END
> <s_m_source_file>
AV-unprocessed.smi

> <i_m_source_file_index>
2299

> <i_lp_mmshare_version>
43012

> <i_f3d_flags>
0

> <s_epik_input>
W0NIM11bQ0hdKFtDSDNdKWMxbltjSF1bY0hdbjFbQ0gyXUMoPU8pW05IXVtDQEBIXTJbQ0gyXVtDSDJdW0NIMl1bQ0gyXVtOSF1DMj1P

> <s_epik_cmdline>
J2VwaWtfcHl0aG9uJywgJy1waCcsICc3LjAnLCAnLXRuJywgJzgnLCAnLW1hJywgJzIwMCcsICctbWV0YWxfYmluZGluZycsICctaW1hZScsICc8aW5maWxlLm1hZT4nLCAnLW9tYWUnLCAnPG91dGZpbGUubWFlPic=

> <r_lp_tautomer_probability>
1

> <r_epik_Ionization_Penalty>
0.557868

> <r_epik_Ionization_Penalty_Charging>
0.557868

> <r_epik_Ionization_Penalty_Neutral>
1.99744e-07

> <r_epik_State_Penalty>
0.568774

> <r_epik_Charging_Adjusted_Penalty>
1.12664

> <i_epik_Tot_Q>
0

> <i_epik_Tot_abs_Q>
0

> <r_epik_Metal_State_Penalty>
0.289303

> <b_epik_Metal_Only>
0

> <s_lp_Force_Field>
OPLS_2005

> <r_lp_Energy>
10.2382

> <b_lp_Chiralities_Consistent>
1

> <s_lp_Variant>
AV-unprocessed.smi:2299-4

> <Gold.Version>
5.8.1

> <Gold.Id.Protein>
6NUR|6NUR_protein|mol2

> <Gold.PLP.Fitness>
44.8629

> <Gold.PLP.PLP>
-39.2893

> <Gold.PLP.part.hbond>
-1.5937

> <Gold.PLP.part.metal>
0.0000

> <Gold.PLP.part.buried>
0.2174

> <Gold.PLP.part.nonpolar>
-36.7893

> <Gold.PLP.part.repulsive>
0.3240

> <Gold.PLP.ligand.clash>
0.1034

> <Gold.PLP.ligand.torsion>
0.4376

> <Gold.PLP.Chemscore.Hbond>
1.1600

> <Gold.PLP.Chemscore.CHOScore>
1.0000

> <Gold.PLP.Chemscore.Metal>
0.0000

> <Gold.Chemscore.Hbonds>
donor molecule, donor type, donor heavy atom, donor atom, acceptor molecule, acceptor atom, score
      L1  H    18    42       P1  7957  0.18
      P1  H  7989  7998       L1    20  1.00
      L1  C     7    29       P1  8028  1.00

> <Gold.PLP.Chemscore.Internal.Correction>
0.0721

> <Gold.Rescore>
     Score         DG    S(hbond)    S(metal)    S(lipo)     H(rot)  DE(clash)    DE(int)     intcor
     10.70     -17.23       1.84        0.00      85.23       1.70       0.41       6.12       ----

> <Gold.Chemscore.Fitness>
10.7039

> <Gold.Chemscore.DG>
-17.2282

> <Gold.Chemscore.ZeroCoef>
-5.4800

> <Gold.Chemscore.Hbond>
1.8351

> <Gold.Chemscore.Metal>
0.0000

> <Gold.Chemscore.Lipo>
85.2320

> <Gold.Chemscore.Internal_Hbond>
0.0000

> <Gold.Chemscore.DEClash>
0.4065

> <Gold.Chemscore.DEInternal>
6.1179

> <Gold.Chemscore.Rot>
1.7004

> <Gold.Chemscore.Internal.Correction>
   9.000000E+99

> <Gold.Chemscore.Hbonds>
donor molecule, donor type, donor heavy atom, donor atom, acceptor molecule, acceptor atom, score
      L1  H    18    42       P1  7957  0.17
      P1  H  7989  7998       L1    20  0.65

> <Gold.Chemscore.Hbond.Weighted>
-6.1291

> <Gold.Chemscore.Metal.Weighted>
-0.0000

> <Gold.Chemscore.Lipo.Weighted>
-9.9721

> <Gold.Chemscore.Internal_Hbond.Weighted>
0.0000

> <Gold.Chemscore.DEClash.Weighted>
0.4065

> <Gold.Chemscore.DEInternal.Weighted>
6.1179

> <Gold.Chemscore.Rot.Weighted>
4.3530

> <Gold.Chemscore.Internal.Correction.Weighted>
   9.000000E+99

> <Gold.Protein.RotatedTorsions>
[ 6907 6896 6895 6894 ] final  116.00 input  -60.11 | X-H torsion
[ 7974 7965 7964 7962 ] final -102.25 input  175.53 | X-H torsion
[ 8008 7997 7996 7995 ] final  -87.08 input   59.86 | X-H torsion
[ 10167 10162 10161 10158 ] final -108.26 input  -65.29 | X-H torsion
[ 10718 10713 10712 10709 ] final -152.30 input   66.30 | X-H torsion
[ 10763 10752 10751 10750 ] final  -54.26 input  -60.55 | X-H torsion
[ 11005 11000 10999 10996 ] final   -2.32 input  -57.11 | X-H torsion

> <Gold.Protein.ActiveResidues>
 VAL166  LYS551  ARG553  GLY616  TRP617  ASP618  TYR619  PRO620  LYS621  CYS622 
 ASP623  PHE694  ASN695  SER759  ASP760  ASP761  ALA762  ILE779  LEU786  VAL792 
 PHE793  MET794  SER795  GLU796  ALA797  LYS798  CYS799  TRP800  GLU811  SER814 

> <Gold.Protein.RotatedAtoms>
  152.4706  133.8021  159.6958 H   0  0  0  0  0  0  0  0  0  0  0  0  # atno 6907 bound_to 6896
  150.8693  133.7519  159.2973 H   0  0  0  0  0  0  0  0  0  0  0  0  # atno 6908 bound_to 6896
  151.5059  135.1066  159.9893 H   0  0  0  0  0  0  0  0  0  0  0  0  # atno 6909 bound_to 6896
  145.2711  140.9299  143.2986 H   0  0  0  0  0  0  0  0  0  0  0  0  # atno 7974 bound_to 7965
  154.6592  140.0570  157.0043 H   0  0  0  0  0  0  0  0  0  0  0  0  # atno 8008 bound_to 7997
  155.1255  140.3251  155.4468 H   0  0  0  0  0  0  0  0  0  0  0  0  # atno 8009 bound_to 7997
  156.2610  140.1990  156.6375 H   0  0  0  0  0  0  0  0  0  0  0  0  # atno 8010 bound_to 7997
  140.1681  143.4065  152.1375 H   0  0  0  0  0  0  0  0  0  0  0  0  # atno 10167 bound_to 10162
  156.4707  130.8257  151.2486 H   0  0  0  0  0  0  0  0  0  0  0  0  # atno 10718 bound_to 10713
  154.1720  135.6457  153.5012 H   0  0  0  0  0  0  0  0  0  0  0  0  # atno 10763 bound_to 10752
  153.0082  135.5386  154.6602 H   0  0  0  0  0  0  0  0  0  0  0  0  # atno 10764 bound_to 10752
  154.5944  135.2937  155.0574 H   0  0  0  0  0  0  0  0  0  0  0  0  # atno 10765 bound_to 10752
  140.6571  133.9353  155.8414 H   0  0  0  0  0  0  0  0  0  0  0  0  # atno 11005 bound_to 11000
  144.9334  139.4272  143.6484 LP  0  0  0  0  0  0  0  0  0  0  0  0  # atno 17320 bound_to 7965
  146.3246  139.8257  142.8918 LP  0  0  0  0  0  0  0  0  0  0  0  0  # atno 17321 bound_to 7965
  139.5350  144.7200  151.4924 LP  0  0  0  0  0  0  0  0  0  0  0  0  # atno 17342 bound_to 10162
  140.6600  143.8519  150.6877 LP  0  0  0  0  0  0  0  0  0  0  0  0  # atno 17343 bound_to 10162
  157.7491  131.0077  150.3200 LP  0  0  0  0  0  0  0  0  0  0  0  0  # atno 17370 bound_to 10713
  156.3621  130.3849  149.7243 LP  0  0  0  0  0  0  0  0  0  0  0  0  # atno 17371 bound_to 10713
  141.0493  134.0507  157.3803 LP  0  0  0  0  0  0  0  0  0  0  0  0  # atno 17394 bound_to 11000
  139.9026  135.0169  156.7338 LP  0  0  0  0  0  0  0  0  0  0  0  0  # atno 17395 bound_to 11000

$$$$
