AV-unprocessed.smi:910|AV-procd|sdf|4119|dock2
  -GOLD-   22720 2 13D 1   1.00000     0.00000
 Structure written by MMmdl.
 46 47  0  0  0  0  0  0  0  0  1 V2000
  147.0127  133.8075  162.1256 C   0  0  0  0  0  0  0  0  0  0  0  0
  147.4560  135.1110  161.5392 C   0  0  0  0  0  0  0  0  0  0  0  0
  147.9285  135.2130  160.2384 N   0  0  0  0  0  0  0  0  0  0  0  0
  148.2171  136.5069  160.0873 C   0  0  0  0  0  0  0  0  0  0  0  0
  148.7394  137.1252  158.9240 N   0  0  0  0  0  0  0  0  0  0  0  0
  150.0180  137.4528  158.6758 C   0  0  0  0  0  0  0  0  0  0  0  0
  150.9670  137.2348  159.4295 O   0  0  0  0  0  0  0  0  0  0  0  0
  150.1392  138.0684  157.4911 N   0  0  0  0  0  0  0  0  0  0  0  0
  151.3751  138.6308  156.9563 C   0  0  0  0  0  0  0  0  0  0  0  0
  151.3370  140.1663  156.9430 C   0  0  0  0  0  0  0  0  0  0  0  0
  151.4414  140.6327  158.2802 O   0  0  0  0  0  0  0  0  0  0  0  0
  152.1058  141.8810  158.4214 C   0  0  1  0  0  0  0  0  0  0  0  0
  151.2059  143.0063  157.8712 C   0  0  0  0  0  0  0  0  0  0  0  0
  151.8152  144.3918  158.1310 C   0  0  0  0  0  0  0  0  0  0  0  0
  152.1014  144.5971  159.6253 C   0  0  0  0  0  0  0  0  0  0  0  0
  153.0065  143.4827  160.1723 C   0  0  0  0  0  0  0  0  0  0  0  0
  152.4059  142.0845  159.9233 C   0  0  2  0  0  0  0  0  0  0  0  0
  153.3351  140.9873  160.4697 C   0  0  0  0  0  0  0  0  0  0  0  0
  147.9684  137.2588  161.1921 O   0  0  0  0  0  0  0  0  0  0  0  0
  147.4850  136.3603  162.1057 C   0  0  0  0  0  0  0  0  0  0  0  0
  147.1086  136.8735  163.4540 C   0  0  0  0  0  0  0  0  0  0  0  0
  147.3051  133.7265  163.1727 H   0  0  0  0  0  0  0  0  0  0  0  0
  147.4511  132.9614  161.5955 H   0  0  0  0  0  0  0  0  0  0  0  0
  145.9287  133.7044  162.0754 H   0  0  0  0  0  0  0  0  0  0  0  0
  148.0628  137.3633  158.2140 H   0  0  0  0  0  0  0  0  0  0  0  0
  149.3061  138.2022  156.9373 H   0  0  0  0  0  0  0  0  0  0  0  0
  152.2287  138.2766  157.5363 H   0  0  0  0  0  0  0  0  0  0  0  0
  151.5092  138.2557  155.9415 H   0  0  0  0  0  0  0  0  0  0  0  0
  152.1569  140.5535  156.3362 H   0  0  0  0  0  0  0  0  0  0  0  0
  150.4076  140.5133  156.4912 H   0  0  0  0  0  0  0  0  0  0  0  0
  153.0551  141.8739  157.8822 H   0  0  0  0  0  0  0  0  0  0  0  0
  151.0454  142.8765  156.8011 H   0  0  0  0  0  0  0  0  0  0  0  0
  150.2224  142.9494  158.3396 H   0  0  0  0  0  0  0  0  0  0  0  0
  152.7402  144.4976  157.5629 H   0  0  0  0  0  0  0  0  0  0  0  0
  151.1396  145.1687  157.7716 H   0  0  0  0  0  0  0  0  0  0  0  0
  152.5703  145.5686  159.7839 H   0  0  0  0  0  0  0  0  0  0  0  0
  151.1627  144.6116  160.1804 H   0  0  0  0  0  0  0  0  0  0  0  0
  153.9886  143.5508  159.7018 H   0  0  0  0  0  0  0  0  0  0  0  0
  153.1660  143.6355  161.2402 H   0  0  0  0  0  0  0  0  0  0  0  0
  151.4632  142.0234  160.4694 H   0  0  0  0  0  0  0  0  0  0  0  0
  154.2942  140.9850  159.9509 H   0  0  0  0  0  0  0  0  0  0  0  0
  152.8939  139.9968  160.3530 H   0  0  0  0  0  0  0  0  0  0  0  0
  153.5317  141.1329  161.5321 H   0  0  0  0  0  0  0  0  0  0  0  0
  146.1818  136.4144  163.7982 H   0  0  0  0  0  0  0  0  0  0  0  0
  146.9627  137.9537  163.4354 H   0  0  0  0  0  0  0  0  0  0  0  0
  147.8879  136.6493  164.1824 H   0  0  0  0  0  0  0  0  0  0  0  0
  1  2  1  0  0  0  0
  1 22  1  0  0  0  0
  1 23  1  0  0  0  0
  1 24  1  0  0  0  0
  2 20  2  0  0  0  0
  2  3  1  0  0  0  0
  3  4  2  0  0  0  0
  4  5  1  0  0  0  0
  4 19  1  0  0  0  0
  5  6  1  0  0  0  0
  5 25  1  0  0  0  0
  6  7  2  0  0  0  0
  6  8  1  0  0  0  0
  8  9  1  0  0  0  0
  8 26  1  0  0  0  0
  9 10  1  0  0  0  0
  9 27  1  0  0  0  0
  9 28  1  0  0  0  0
 10 11  1  0  0  0  0
 10 29  1  0  0  0  0
 10 30  1  0  0  0  0
 11 12  1  0  0  0  0
 12 17  1  0  0  0  0
 12 13  1  0  0  0  0
 12 31  1  0  0  0  0
 13 14  1  0  0  0  0
 13 32  1  0  0  0  0
 13 33  1  0  0  0  0
 14 15  1  0  0  0  0
 14 34  1  0  0  0  0
 14 35  1  0  0  0  0
 15 16  1  0  0  0  0
 15 36  1  0  0  0  0
 15 37  1  0  0  0  0
 16 17  1  0  0  0  0
 16 38  1  0  0  0  0
 16 39  1  0  0  0  0
 17 18  1  0  0  0  0
 17 40  1  0  0  0  0
 18 41  1  0  0  0  0
 18 42  1  0  0  0  0
 18 43  1  0  0  0  0
 19 20  1  0  0  0  0
 20 21  1  0  0  0  0
 21 44  1  0  0  0  0
 21 45  1  0  0  0  0
 21 46  1  0  0  0  0
M  END
> <s_m_source_file>
AV-unprocessed.smi

> <i_m_source_file_index>
910

> <i_lp_mmshare_version>
43012

> <i_f3d_flags>
0

> <s_epik_input>
W0NIM11jMW5jKG9jMVtDSDNdKVtOSF1DKD1PKVtOSF1bQ0gyXVtDSDJdT1tDQEBIXTJbQ0gyXVtDSDJdW0NIMl1bQ0gyXVtDQEhdMltDSDNd

> <s_epik_cmdline>
J2VwaWtfcHl0aG9uJywgJy1waCcsICc3LjAnLCAnLXRuJywgJzgnLCAnLW1hJywgJzIwMCcsICctbWV0YWxfYmluZGluZycsICctaW1hZScsICc8aW5maWxlLm1hZT4nLCAnLW9tYWUnLCAnPG91dGZpbGUubWFlPic=

> <r_lp_tautomer_probability>
0.785861

> <r_epik_Ionization_Penalty>
4.15957e-05

> <r_epik_Ionization_Penalty_Charging>
0

> <r_epik_Ionization_Penalty_Neutral>
4.15957e-05

> <r_epik_State_Penalty>
0.0240523

> <r_epik_Charging_Adjusted_Penalty>
0.0240523

> <i_epik_Tot_Q>
0

> <i_epik_Tot_abs_Q>
0

> <r_epik_Metal_State_Penalty>
0.057053

> <b_epik_Metal_Only>
0

> <s_lp_Force_Field>
OPLS_2005

> <r_lp_Energy>
8.26637

> <b_lp_Chiralities_Consistent>
1

> <s_lp_Variant>
AV-unprocessed.smi:910-4

> <Gold.Version>
5.8.1

> <Gold.Id.Protein>
6NUR|6NUR_protein|mol2

> <Gold.PLP.Fitness>
49.2120

> <Gold.PLP.PLP>
-46.5078

> <Gold.PLP.part.hbond>
-2.7250

> <Gold.PLP.part.metal>
0.0000

> <Gold.PLP.part.buried>
-5.8064

> <Gold.PLP.part.nonpolar>
-37.6355

> <Gold.PLP.part.repulsive>
0.1901

> <Gold.PLP.ligand.clash>
0.0000

> <Gold.PLP.ligand.torsion>
1.0905

> <Gold.PLP.Chemscore.Hbond>
1.6131

> <Gold.PLP.Chemscore.CHOScore>
0.0000

> <Gold.PLP.Chemscore.Metal>
0.0000

> <Gold.Chemscore.Hbonds>
donor molecule, donor type, donor heavy atom, donor atom, acceptor molecule, acceptor atom, score
      P1  H  6931  6943       L1    19  0.98
      P1  H  6934  6947       L1    19  0.70

> <Gold.PLP.Chemscore.Internal.Correction>
0.0460

> <Gold.Rescore>
     Score         DG    S(hbond)    S(metal)    S(lipo)     H(rot)  DE(clash)    DE(int)     intcor
     18.12     -19.47       1.41        0.00     115.73       1.66       0.16       1.19       ----

> <Gold.Chemscore.Fitness>
18.1190

> <Gold.Chemscore.DG>
-19.4726

> <Gold.Chemscore.ZeroCoef>
-5.4800

> <Gold.Chemscore.Hbond>
1.4058

> <Gold.Chemscore.Metal>
0.0000

> <Gold.Chemscore.Lipo>
115.7337

> <Gold.Chemscore.Internal_Hbond>
0.0000

> <Gold.Chemscore.DEClash>
0.1645

> <Gold.Chemscore.DEInternal>
1.1891

> <Gold.Chemscore.Rot>
1.6576

> <Gold.Chemscore.Internal.Correction>
   9.000000E+99

> <Gold.Chemscore.Hbonds>
donor molecule, donor type, donor heavy atom, donor atom, acceptor molecule, acceptor atom, score
      P1  H  6896  6907       L1     7  0.01
      P1  H  6931  6943       L1    19  0.69
      P1  H  6934  6947       L1    19  0.66

> <Gold.Chemscore.Hbond.Weighted>
-4.6953

> <Gold.Chemscore.Metal.Weighted>
-0.0000

> <Gold.Chemscore.Lipo.Weighted>
-13.5408

> <Gold.Chemscore.Internal_Hbond.Weighted>
0.0000

> <Gold.Chemscore.DEClash.Weighted>
0.1645

> <Gold.Chemscore.DEInternal.Weighted>
1.1891

> <Gold.Chemscore.Rot.Weighted>
4.2436

> <Gold.Chemscore.Internal.Correction.Weighted>
   9.000000E+99

> <Gold.Protein.RotatedTorsions>
[ 6907 6896 6895 6894 ] final   28.88 input  -60.11 | X-H torsion
[ 7974 7965 7964 7962 ] final -145.34 input  175.53 | X-H torsion
[ 8008 7997 7996 7995 ] final -102.76 input   59.86 | X-H torsion
[ 10167 10162 10161 10158 ] final  -58.65 input  -65.29 | X-H torsion
[ 10718 10713 10712 10709 ] final  -83.37 input   66.30 | X-H torsion
[ 10763 10752 10751 10750 ] final   47.20 input  -60.55 | X-H torsion
[ 11005 11000 10999 10996 ] final -103.47 input  -57.11 | X-H torsion

> <Gold.Protein.ActiveResidues>
 VAL166  LYS551  ARG553  GLY616  TRP617  ASP618  TYR619  PRO620  LYS621  CYS622 
 ASP623  PHE694  ASN695  SER759  ASP760  ASP761  ALA762  ILE779  LEU786  VAL792 
 PHE793  MET794  SER795  GLU796  ALA797  LYS798  CYS799  TRP800  GLU811  SER814 

> <Gold.Protein.RotatedAtoms>
  152.0235  134.9809  160.0570 H   0  0  0  0  0  0  0  0  0  0  0  0  # atno 6907 bound_to 6896
  152.1314  133.4405  159.4731 H   0  0  0  0  0  0  0  0  0  0  0  0  # atno 6908 bound_to 6896
  150.6856  134.2334  159.4487 H   0  0  0  0  0  0  0  0  0  0  0  0  # atno 6909 bound_to 6896
  144.8234  140.5596  143.5563 H   0  0  0  0  0  0  0  0  0  0  0  0  # atno 7974 bound_to 7965
  154.8612  140.0426  157.1666 H   0  0  0  0  0  0  0  0  0  0  0  0  # atno 8008 bound_to 7997
  154.8838  140.2976  155.5389 H   0  0  0  0  0  0  0  0  0  0  0  0  # atno 8009 bound_to 7997
  156.2998  140.2406  156.3844 H   0  0  0  0  0  0  0  0  0  0  0  0  # atno 8010 bound_to 7997
  140.6184  143.2410  151.5541 H   0  0  0  0  0  0  0  0  0  0  0  0  # atno 10167 bound_to 10162
  156.0019  130.4663  150.4247 H   0  0  0  0  0  0  0  0  0  0  0  0  # atno 10718 bound_to 10713
  152.9802  135.5984  154.3725 H   0  0  0  0  0  0  0  0  0  0  0  0  # atno 10763 bound_to 10752
  154.3397  135.2768  155.2431 H   0  0  0  0  0  0  0  0  0  0  0  0  # atno 10764 bound_to 10752
  154.4518  135.5988  153.6252 H   0  0  0  0  0  0  0  0  0  0  0  0  # atno 10765 bound_to 10752
  141.1144  133.8643  157.1491 H   0  0  0  0  0  0  0  0  0  0  0  0  # atno 11005 bound_to 11000
  145.5054  139.1481  143.3634 LP  0  0  0  0  0  0  0  0  0  0  0  0  # atno 17320 bound_to 7965
  146.2539  140.5194  142.8881 LP  0  0  0  0  0  0  0  0  0  0  0  0  # atno 17321 bound_to 7965
  139.5418  144.2628  152.1365 LP  0  0  0  0  0  0  0  0  0  0  0  0  # atno 17342 bound_to 10162
  140.1843  144.4814  150.6512 LP  0  0  0  0  0  0  0  0  0  0  0  0  # atno 17343 bound_to 10162
  157.2300  131.0502  151.2497 LP  0  0  0  0  0  0  0  0  0  0  0  0  # atno 17370 bound_to 10713
  157.3720  130.7186  149.6571 LP  0  0  0  0  0  0  0  0  0  0  0  0  # atno 17371 bound_to 10713
  140.0057  135.0009  157.0287 LP  0  0  0  0  0  0  0  0  0  0  0  0  # atno 17394 bound_to 11000
  140.4687  134.1409  155.7200 LP  0  0  0  0  0  0  0  0  0  0  0  0  # atno 17395 bound_to 11000

$$$$
