AV-unprocessed.smi:541|AV-procd|sdf|2871|dock6
  -GOLD-   2262023363D 1   1.00000     0.00000
 Structure written by MMmdl.
 43 45  0  0  0  0  0  0  0  0  1 V2000
  146.6349  142.3025  154.3115 C   0  0  0  0  0  0  0  0  0  0  0  0
  147.6628  141.2812  153.8191 C   0  0  0  0  0  0  0  0  0  0  0  0
  148.9576  141.7078  154.2077 O   0  0  0  0  0  0  0  0  0  0  0  0
  149.2387  141.4304  155.5688 C   0  0  0  0  0  0  0  0  0  0  0  0
  150.6191  142.0053  155.9160 C   0  0  0  0  0  0  0  0  0  0  0  0
  151.3350  141.1615  156.8681 N   0  0  0  0  0  0  0  0  0  0  0  0
  151.8594  141.4594  158.0964 C   0  0  0  0  0  0  0  0  0  0  0  0
  151.8251  142.7278  158.6989 N   0  0  0  0  0  0  0  0  0  0  0  0
  151.3572  144.0231  158.2030 C   0  0  0  0  0  0  0  0  0  0  0  0
  151.9179  145.1144  159.1091 C   0  0  0  0  0  0  0  0  0  0  0  0
  151.9648  144.4102  160.4462 C   0  0  0  0  0  0  0  0  0  0  0  0
  152.3551  142.9933  160.0375 C   0  0  0  0  0  0  0  0  0  0  0  0
  152.4326  140.4149  158.7053 N   0  0  0  0  0  0  0  0  0  0  0  0
  152.2830  139.3800  157.7996 C   0  0  0  0  0  0  0  0  0  0  0  0
  151.6370  139.8080  156.6878 C   0  0  0  0  0  0  0  0  0  0  0  0
  151.3605  138.9160  155.5508 C   0  0  0  0  0  0  0  0  0  0  0  0
  150.7866  139.2771  154.5259 O   0  0  0  0  0  0  0  0  0  0  0  0
  151.8119  137.6526  155.7422 N   0  0  0  0  0  0  0  0  0  0  0  0
  152.4673  137.1605  156.8367 C   0  0  0  0  0  0  0  0  0  0  0  0
  152.8267  135.9834  156.8609 O   0  0  0  0  0  0  0  0  0  0  0  0
  152.7014  138.0211  157.8783 N   0  0  0  0  0  0  0  0  0  0  0  0
  153.4018  137.5524  159.0757 C   0  0  0  0  0  0  0  0  0  0  0  0
  151.6501  137.0010  154.9882 H   0  0  0  0  0  0  0  0  0  0  0  0
  145.6245  142.0038  154.0320 H   0  0  0  0  0  0  0  0  0  0  0  0
  146.8240  143.2866  153.8822 H   0  0  0  0  0  0  0  0  0  0  0  0
  146.6671  142.3978  155.3971 H   0  0  0  0  0  0  0  0  0  0  0  0
  147.4461  140.3010  154.2457 H   0  0  0  0  0  0  0  0  0  0  0  0
  147.6058  141.1899  152.7334 H   0  0  0  0  0  0  0  0  0  0  0  0
  148.4748  141.8778  156.2062 H   0  0  0  0  0  0  0  0  0  0  0  0
  149.2137  140.3544  155.7437 H   0  0  0  0  0  0  0  0  0  0  0  0
  151.2194  142.1665  155.0264 H   0  0  0  0  0  0  0  0  0  0  0  0
  150.5104  143.0024  156.3403 H   0  0  0  0  0  0  0  0  0  0  0  0
  151.6612  144.1989  157.1730 H   0  0  0  0  0  0  0  0  0  0  0  0
  150.2680  144.0405  158.2482 H   0  0  0  0  0  0  0  0  0  0  0  0
  152.9260  145.3858  158.7925 H   0  0  0  0  0  0  0  0  0  0  0  0
  151.3064  146.0169  159.1190 H   0  0  0  0  0  0  0  0  0  0  0  0
  152.6684  144.8616  161.1464 H   0  0  0  0  0  0  0  0  0  0  0  0
  150.9749  144.4109  160.9048 H   0  0  0  0  0  0  0  0  0  0  0  0
  151.9858  142.2629  160.7580 H   0  0  0  0  0  0  0  0  0  0  0  0
  153.4411  142.8991  160.0006 H   0  0  0  0  0  0  0  0  0  0  0  0
  152.9568  136.6310  159.4541 H   0  0  0  0  0  0  0  0  0  0  0  0
  153.3699  138.2784  159.8879 H   0  0  0  0  0  0  0  0  0  0  0  0
  154.4501  137.3565  158.8479 H   0  0  0  0  0  0  0  0  0  0  0  0
  1  2  1  0  0  0  0
  1 24  1  0  0  0  0
  1 25  1  0  0  0  0
  1 26  1  0  0  0  0
  2  3  1  0  0  0  0
  2 27  1  0  0  0  0
  2 28  1  0  0  0  0
  3  4  1  0  0  0  0
  4  5  1  0  0  0  0
  4 29  1  0  0  0  0
  4 30  1  0  0  0  0
  5  6  1  0  0  0  0
  5 31  1  0  0  0  0
  5 32  1  0  0  0  0
  6 15  1  0  0  0  0
  6  7  1  0  0  0  0
  7  8  1  0  0  0  0
  7 13  2  0  0  0  0
  8 12  1  0  0  0  0
  8  9  1  0  0  0  0
  9 10  1  0  0  0  0
  9 33  1  0  0  0  0
  9 34  1  0  0  0  0
 10 11  1  0  0  0  0
 10 35  1  0  0  0  0
 10 36  1  0  0  0  0
 11 12  1  0  0  0  0
 11 37  1  0  0  0  0
 11 38  1  0  0  0  0
 12 39  1  0  0  0  0
 12 40  1  0  0  0  0
 13 14  1  0  0  0  0
 14 21  1  0  0  0  0
 14 15  2  0  0  0  0
 15 16  1  0  0  0  0
 16 17  2  0  0  0  0
 16 18  1  0  0  0  0
 18 23  1  0  0  0  0
 18 19  1  0  0  0  0
 19 20  2  0  0  0  0
 19 21  1  0  0  0  0
 21 22  1  0  0  0  0
 22 41  1  0  0  0  0
 22 42  1  0  0  0  0
 22 43  1  0  0  0  0
M  END
> <s_m_source_file>
AV-unprocessed.smi

> <i_m_source_file_index>
541

> <i_lp_mmshare_version>
43012

> <i_f3d_flags>
0

> <s_epik_input>
W0NIM11uMWMoPU8pW25IXWMoPU8pYyhjMTIpbihbQ0gyXVtDSDJdT1tDSDJdW0NIM10pYyhuMilOM1tDSDJdW0NIMl1bQ0gyXVtDSDJdMw==

> <s_epik_cmdline>
J2VwaWtfcHl0aG9uJywgJy1waCcsICc3LjAnLCAnLXRuJywgJzgnLCAnLW1hJywgJzIwMCcsICctbWV0YWxfYmluZGluZycsICctaW1hZScsICc8aW5maWxlLm1hZT4nLCAnLW9tYWUnLCAnPG91dGZpbGUubWFlPic=

> <r_lp_tautomer_probability>
1

> <r_epik_Ionization_Penalty>
0.00016913

> <r_epik_Ionization_Penalty_Charging>
2.12732e-05

> <r_epik_Ionization_Penalty_Neutral>
0.000147857

> <r_epik_State_Penalty>
-0

> <r_epik_Charging_Adjusted_Penalty>
2.12732e-05

> <i_epik_Tot_Q>
0

> <i_epik_Tot_abs_Q>
0

> <r_epik_Metal_State_Penalty>
0.0201837

> <b_epik_Metal_Only>
0

> <s_lp_Force_Field>
OPLS_2005

> <r_lp_Energy>
45.5158

> <b_lp_Chiralities_Consistent>
1

> <s_lp_Variant>
AV-unprocessed.smi:541-1

> <Gold.Version>
5.8.1

> <Gold.Id.Protein>
6NUR|6NUR_protein|mol2

> <Gold.PLP.Fitness>
51.8295

> <Gold.PLP.PLP>
-45.0749

> <Gold.PLP.part.hbond>
-3.6786

> <Gold.PLP.part.metal>
0.0000

> <Gold.PLP.part.buried>
-7.5827

> <Gold.PLP.part.nonpolar>
-35.3018

> <Gold.PLP.part.repulsive>
0.4359

> <Gold.PLP.ligand.clash>
0.0000

> <Gold.PLP.ligand.torsion>
0.3453

> <Gold.PLP.Chemscore.Hbond>
2.4760

> <Gold.PLP.Chemscore.CHOScore>
0.0000

> <Gold.PLP.Chemscore.Metal>
0.0000

> <Gold.Chemscore.Hbonds>
donor molecule, donor type, donor heavy atom, donor atom, acceptor molecule, acceptor atom, score
      P1  H  7989  7998       L1    17  0.89
      P1  H  8011  8017       L1     3  0.36
      P1  H 10752 10764       L1    20  1.00

> <Gold.PLP.Chemscore.Internal.Correction>
0.0173

> <Gold.Rescore>
     Score         DG    S(hbond)    S(metal)    S(lipo)     H(rot)  DE(clash)    DE(int)     intcor
     17.44     -17.85       2.07        0.00      83.21       1.67       0.10       0.31       ----

> <Gold.Chemscore.Fitness>
17.4354

> <Gold.Chemscore.DG>
-17.8453

> <Gold.Chemscore.ZeroCoef>
-5.4800

> <Gold.Chemscore.Hbond>
2.0656

> <Gold.Chemscore.Metal>
0.0000

> <Gold.Chemscore.Lipo>
83.2067

> <Gold.Chemscore.Internal_Hbond>
0.0000

> <Gold.Chemscore.DEClash>
0.0990

> <Gold.Chemscore.DEInternal>
0.3109

> <Gold.Chemscore.Rot>
1.6675

> <Gold.Chemscore.Internal.Correction>
   9.000000E+99

> <Gold.Chemscore.Hbonds>
donor molecule, donor type, donor heavy atom, donor atom, acceptor molecule, acceptor atom, score
      P1  H  7989  7998       L1    17  0.82
      P1  H  8011  8017       L1     3  0.14
      P1  H 10752 10764       L1    20  0.91

> <Gold.Chemscore.Hbond.Weighted>
-6.8990

> <Gold.Chemscore.Metal.Weighted>
-0.0000

> <Gold.Chemscore.Lipo.Weighted>
-9.7352

> <Gold.Chemscore.Internal_Hbond.Weighted>
0.0000

> <Gold.Chemscore.DEClash.Weighted>
0.0990

> <Gold.Chemscore.DEInternal.Weighted>
0.3109

> <Gold.Chemscore.Rot.Weighted>
4.2689

> <Gold.Chemscore.Internal.Correction.Weighted>
   9.000000E+99

> <Gold.Protein.RotatedTorsions>
[ 6907 6896 6895 6894 ] final  126.75 input  -60.11 | X-H torsion
[ 7974 7965 7964 7962 ] final   10.88 input  175.53 | X-H torsion
[ 8008 7997 7996 7995 ] final   14.33 input   59.86 | X-H torsion
[ 10167 10162 10161 10158 ] final   41.58 input  -65.29 | X-H torsion
[ 10718 10713 10712 10709 ] final   72.53 input   66.30 | X-H torsion
[ 10763 10752 10751 10750 ] final   -3.45 input  -60.55 | X-H torsion
[ 11005 11000 10999 10996 ] final    0.86 input  -57.11 | X-H torsion

> <Gold.Protein.ActiveResidues>
 VAL166  LYS551  ARG553  GLY616  TRP617  ASP618  TYR619  PRO620  LYS621  CYS622 
 ASP623  PHE694  ASN695  SER759  ASP760  ASP761  ALA762  ILE779  LEU786  VAL792 
 PHE793  MET794  SER795  GLU796  ALA797  LYS798  CYS799  TRP800  GLU811  SER814 

> <Gold.Protein.RotatedAtoms>
  152.3875  133.6632  159.6210 H   0  0  0  0  0  0  0  0  0  0  0  0  # atno 6907 bound_to 6896
  150.7791  133.9010  159.3350 H   0  0  0  0  0  0  0  0  0  0  0  0  # atno 6908 bound_to 6896
  151.6803  135.0964  160.0266 H   0  0  0  0  0  0  0  0  0  0  0  0  # atno 6909 bound_to 6896
  146.2381  139.9568  142.8463 H   0  0  0  0  0  0  0  0  0  0  0  0  # atno 7974 bound_to 7965
  154.8469  140.2923  155.5623 H   0  0  0  0  0  0  0  0  0  0  0  0  # atno 8008 bound_to 7997
  156.3014  140.2503  156.3353 H   0  0  0  0  0  0  0  0  0  0  0  0  # atno 8009 bound_to 7997
  154.9063  140.0390  157.1911 H   0  0  0  0  0  0  0  0  0  0  0  0  # atno 8010 bound_to 7997
  140.3629  144.2205  150.6137 H   0  0  0  0  0  0  0  0  0  0  0  0  # atno 10167 bound_to 10162
  157.6505  130.9583  150.0941 H   0  0  0  0  0  0  0  0  0  0  0  0  # atno 10718 bound_to 10713
  153.3715  135.6994  153.6634 H   0  0  0  0  0  0  0  0  0  0  0  0  # atno 10763 bound_to 10752
  153.5282  135.3598  155.2664 H   0  0  0  0  0  0  0  0  0  0  0  0  # atno 10764 bound_to 10752
  154.8682  135.4174  154.2994 H   0  0  0  0  0  0  0  0  0  0  0  0  # atno 10765 bound_to 10752
  140.6218  133.9654  155.8229 H   0  0  0  0  0  0  0  0  0  0  0  0  # atno 11005 bound_to 11000
  145.1809  140.9766  143.4267 LP  0  0  0  0  0  0  0  0  0  0  0  0  # atno 17320 bound_to 7965
  144.9943  139.3659  143.6199 LP  0  0  0  0  0  0  0  0  0  0  0  0  # atno 17321 bound_to 7965
  140.5109  143.2291  151.8536 LP  0  0  0  0  0  0  0  0  0  0  0  0  # atno 17342 bound_to 10162
  139.4812  144.4951  151.9135 LP  0  0  0  0  0  0  0  0  0  0  0  0  # atno 17343 bound_to 10162
  156.1882  130.3653  149.8945 LP  0  0  0  0  0  0  0  0  0  0  0  0  # atno 17370 bound_to 10713
  156.6880  130.8884  151.3584 LP  0  0  0  0  0  0  0  0  0  0  0  0  # atno 17371 bound_to 10713
  141.0737  134.0167  157.3489 LP  0  0  0  0  0  0  0  0  0  0  0  0  # atno 17394 bound_to 11000
  139.9150  135.0195  156.7846 LP  0  0  0  0  0  0  0  0  0  0  0  0  # atno 17395 bound_to 11000

$$$$
