AV-unprocessed.smi:1037|AV-procd|sdf|4520|dock6
  -GOLD-   22720 2533D 1   1.00000     0.00000
 Structure written by MMmdl.
 29 29  0  0  0  0  0  0  0  0  1 V2000
  145.3762  141.2791  154.4687 N   0  0  0  0  0  0  0  0  0  0  0  0
  146.6782  141.5510  154.5820 C   0  0  0  0  0  0  0  0  0  0  0  0
  147.4228  141.5983  153.6040 O   0  0  0  0  0  0  0  0  0  0  0  0
  147.2016  141.8278  155.9975 C   0  0  0  0  0  0  0  0  0  0  0  0
  148.6262  142.1495  156.0264 N   0  0  0  0  0  0  0  0  0  0  0  0
  149.6007  141.3114  156.4126 C   0  0  0  0  0  0  0  0  0  0  0  0
  149.3849  140.1710  156.8255 O   0  0  0  0  0  0  0  0  0  0  0  0
  151.0327  141.8589  156.3355 C   0  0  0  0  0  0  0  0  0  0  0  0
  151.5524  142.2963  157.6424 N   0  0  0  0  0  0  0  0  0  0  0  0
  151.1452  143.5625  158.0994 C   0  0  0  0  0  0  0  0  0  0  0  0
  151.5554  144.0529  159.2767 C   0  0  0  0  0  0  0  0  0  0  0  0
  152.4386  143.2450  160.0819 C   0  0  0  0  0  0  0  0  0  0  0  0
  152.8453  142.0219  159.6703 C   0  0  0  0  0  0  0  0  0  0  0  0
  153.7773  141.1525  160.5112 C   0  0  0  0  0  0  0  0  0  0  0  0
  153.3197  139.9016  160.5782 F   0  0  0  0  0  0  0  0  0  0  0  0
  154.9983  141.1216  159.9759 F   0  0  0  0  0  0  0  0  0  0  0  0
  153.8911  141.6116  161.7585 F   0  0  0  0  0  0  0  0  0  0  0  0
  152.3854  141.4899  158.3711 C   0  0  0  0  0  0  0  0  0  0  0  0
  152.7270  140.3818  157.9539 O   0  0  0  0  0  0  0  0  0  0  0  0
  144.9835  141.0837  153.5592 H   0  0  0  0  0  0  0  0  0  0  0  0
  144.7898  141.2633  155.2905 H   0  0  0  0  0  0  0  0  0  0  0  0
  146.6518  142.6737  156.4103 H   0  0  0  0  0  0  0  0  0  0  0  0
  146.9970  140.9742  156.6463 H   0  0  0  0  0  0  0  0  0  0  0  0
  148.8913  143.0677  155.7009 H   0  0  0  0  0  0  0  0  0  0  0  0
  151.6929  141.1038  155.9041 H   0  0  0  0  0  0  0  0  0  0  0  0
  151.0409  142.6838  155.6218 H   0  0  0  0  0  0  0  0  0  0  0  0
  150.4781  144.0995  157.4409 H   0  0  0  0  0  0  0  0  0  0  0  0
  151.2300  145.0253  159.6161 H   0  0  0  0  0  0  0  0  0  0  0  0
  152.7711  143.6388  161.0307 H   0  0  0  0  0  0  0  0  0  0  0  0
  1  2  1  0  0  0  0
  1 20  1  0  0  0  0
  1 21  1  0  0  0  0
  2  3  2  0  0  0  0
  2  4  1  0  0  0  0
  4  5  1  0  0  0  0
  4 22  1  0  0  0  0
  4 23  1  0  0  0  0
  5  6  1  0  0  0  0
  5 24  1  0  0  0  0
  6  7  2  0  0  0  0
  6  8  1  0  0  0  0
  8  9  1  0  0  0  0
  8 25  1  0  0  0  0
  8 26  1  0  0  0  0
  9 18  1  0  0  0  0
  9 10  1  0  0  0  0
 10 11  2  0  0  0  0
 10 27  1  0  0  0  0
 11 12  1  0  0  0  0
 11 28  1  0  0  0  0
 12 13  2  0  0  0  0
 12 29  1  0  0  0  0
 13 14  1  0  0  0  0
 13 18  1  0  0  0  0
 14 15  1  0  0  0  0
 14 16  1  0  0  0  0
 14 17  1  0  0  0  0
 18 19  2  0  0  0  0
M  END
> <s_m_source_file>
AV-unprocessed.smi

> <i_m_source_file_index>
1037

> <i_lp_mmshare_version>
43012

> <i_f3d_flags>
0

> <s_epik_input>
W05IMl1DKD1PKVtDSDJdW05IXUMoPU8pW0NIMl1uMVtjSF1bY0hdW2NIXWMoQyhGKShGKUYpYzE9Tw==

> <s_epik_cmdline>
J2VwaWtfcHl0aG9uJywgJy1waCcsICc3LjAnLCAnLXRuJywgJzgnLCAnLW1hJywgJzIwMCcsICctbWV0YWxfYmluZGluZycsICctaW1hZScsICc8aW5maWxlLm1hZT4nLCAnLW9tYWUnLCAnPG91dGZpbGUubWFlPic=

> <r_lp_tautomer_probability>
1

> <r_epik_Ionization_Penalty>
9.73018e-08

> <r_epik_Ionization_Penalty_Charging>
1.58095e-09

> <r_epik_Ionization_Penalty_Neutral>
9.57208e-08

> <r_epik_State_Penalty>
-0

> <r_epik_Charging_Adjusted_Penalty>
1.58095e-09

> <i_epik_Tot_Q>
0

> <i_epik_Tot_abs_Q>
0

> <r_epik_Metal_State_Penalty>
-0

> <b_epik_Metal_Only>
0

> <s_lp_Force_Field>
OPLS_2005

> <r_lp_Energy>
7.91729

> <b_lp_Chiralities_Consistent>
1

> <s_lp_Variant>
AV-unprocessed.smi:1037-1

> <Gold.Version>
5.8.1

> <Gold.Id.Protein>
6NUR|6NUR_protein|mol2

> <Gold.PLP.Fitness>
46.9003

> <Gold.PLP.PLP>
-37.2084

> <Gold.PLP.part.hbond>
-3.0000

> <Gold.PLP.part.metal>
0.0000

> <Gold.PLP.part.buried>
-3.1508

> <Gold.PLP.part.nonpolar>
-29.5132

> <Gold.PLP.part.repulsive>
0.2345

> <Gold.PLP.ligand.clash>
0.0000

> <Gold.PLP.ligand.torsion>
1.1053

> <Gold.PLP.Chemscore.Hbond>
2.8580

> <Gold.PLP.Chemscore.CHOScore>
0.9962

> <Gold.PLP.Chemscore.Metal>
0.0000

> <Gold.Chemscore.Hbonds>
donor molecule, donor type, donor heavy atom, donor atom, acceptor molecule, acceptor atom, score
      L1  H     1    20       P1 10175  1.00
      L1  H     5    24       P1  8028  1.00
      P1  H  7997  8010       L1    19  0.79
      L1  C    10    27       P1  8028  1.00

> <Gold.PLP.Chemscore.Internal.Correction>
0.3399

> <Gold.Rescore>
     Score         DG    S(hbond)    S(metal)    S(lipo)     H(rot)  DE(clash)    DE(int)     intcor
     13.00     -15.42       2.88        0.00      62.85       2.74       0.06       2.35       ----

> <Gold.Chemscore.Fitness>
13.0041

> <Gold.Chemscore.DG>
-15.4152

> <Gold.Chemscore.ZeroCoef>
-5.4800

> <Gold.Chemscore.Hbond>
2.8759

> <Gold.Chemscore.Metal>
0.0000

> <Gold.Chemscore.Lipo>
62.8463

> <Gold.Chemscore.Internal_Hbond>
0.0000

> <Gold.Chemscore.DEClash>
0.0630

> <Gold.Chemscore.DEInternal>
2.3480

> <Gold.Chemscore.Rot>
2.7435

> <Gold.Chemscore.Internal.Correction>
   9.000000E+99

> <Gold.Chemscore.Hbonds>
donor molecule, donor type, donor heavy atom, donor atom, acceptor molecule, acceptor atom, score
      L1  H     1    20       P1 10175  0.54
      L1  H     5    24       P1  8028  0.98
      P1  H  7997  8010       L1    19  0.75

> <Gold.Chemscore.Hbond.Weighted>
-9.6055

> <Gold.Chemscore.Metal.Weighted>
-0.0000

> <Gold.Chemscore.Lipo.Weighted>
-7.3530

> <Gold.Chemscore.Internal_Hbond.Weighted>
0.0000

> <Gold.Chemscore.DEClash.Weighted>
0.0630

> <Gold.Chemscore.DEInternal.Weighted>
2.3480

> <Gold.Chemscore.Rot.Weighted>
7.0234

> <Gold.Chemscore.Internal.Correction.Weighted>
   9.000000E+99

> <Gold.Protein.RotatedTorsions>
[ 6907 6896 6895 6894 ] final   83.60 input  -60.11 | X-H torsion
[ 7974 7965 7964 7962 ] final  157.87 input  175.53 | X-H torsion
[ 8008 7997 7996 7995 ] final   44.44 input   59.86 | X-H torsion
[ 10167 10162 10161 10158 ] final -115.83 input  -65.29 | X-H torsion
[ 10718 10713 10712 10709 ] final  -51.93 input   66.30 | X-H torsion
[ 10763 10752 10751 10750 ] final  118.09 input  -60.55 | X-H torsion
[ 11005 11000 10999 10996 ] final -104.88 input  -57.11 | X-H torsion

> <Gold.Protein.ActiveResidues>
 VAL166  LYS551  ARG553  GLY616  TRP617  ASP618  TYR619  PRO620  LYS621  CYS622 
 ASP623  PHE694  ASN695  SER759  ASP760  ASP761  ALA762  ILE779  LEU786  VAL792 
 PHE793  MET794  SER795  GLU796  ALA797  LYS798  CYS799  TRP800  GLU811  SER814 

> <Gold.Protein.RotatedAtoms>
  152.5331  134.2870  159.9028 H   0  0  0  0  0  0  0  0  0  0  0  0  # atno 6907 bound_to 6896
  151.2823  133.4197  159.2635 H   0  0  0  0  0  0  0  0  0  0  0  0  # atno 6908 bound_to 6896
  151.0273  134.9529  159.8149 H   0  0  0  0  0  0  0  0  0  0  0  0  # atno 6909 bound_to 6896
  144.7878  139.7399  143.6233 H   0  0  0  0  0  0  0  0  0  0  0  0  # atno 7974 bound_to 7965
  155.3194  140.3396  155.4241 H   0  0  0  0  0  0  0  0  0  0  0  0  # atno 8008 bound_to 7997
  156.1916  140.1700  156.8117 H   0  0  0  0  0  0  0  0  0  0  0  0  # atno 8009 bound_to 7997
  154.5449  140.0717  156.8556 H   0  0  0  0  0  0  0  0  0  0  0  0  # atno 8010 bound_to 7997
  140.0858  143.4745  152.1899 H   0  0  0  0  0  0  0  0  0  0  0  0  # atno 10167 bound_to 10162
  156.1666  130.4149  149.9711 H   0  0  0  0  0  0  0  0  0  0  0  0  # atno 10718 bound_to 10713
  153.5623  135.3518  155.2804 H   0  0  0  0  0  0  0  0  0  0  0  0  # atno 10763 bound_to 10752
  154.8693  135.4139  154.2817 H   0  0  0  0  0  0  0  0  0  0  0  0  # atno 10764 bound_to 10752
  153.3566  135.7058  153.6815 H   0  0  0  0  0  0  0  0  0  0  0  0  # atno 10765 bound_to 10752
  141.1080  133.8761  157.1666 H   0  0  0  0  0  0  0  0  0  0  0  0  # atno 11005 bound_to 11000
  146.2118  139.5480  142.9676 LP  0  0  0  0  0  0  0  0  0  0  0  0  # atno 17320 bound_to 7965
  145.5874  141.0374  143.2089 LP  0  0  0  0  0  0  0  0  0  0  0  0  # atno 17321 bound_to 7965
  139.5753  144.7484  151.3782 LP  0  0  0  0  0  0  0  0  0  0  0  0  # atno 17342 bound_to 10162
  140.7054  143.7527  150.7473 LP  0  0  0  0  0  0  0  0  0  0  0  0  # atno 17343 bound_to 10162
  156.7523  130.9120  151.3638 LP  0  0  0  0  0  0  0  0  0  0  0  0  # atno 17370 bound_to 10713
  157.6772  130.9106  150.0180 LP  0  0  0  0  0  0  0  0  0  0  0  0  # atno 17371 bound_to 10713
  139.9959  135.0047  157.0081 LP  0  0  0  0  0  0  0  0  0  0  0  0  # atno 17394 bound_to 11000
  140.4852  134.1249  155.7223 LP  0  0  0  0  0  0  0  0  0  0  0  0  # atno 17395 bound_to 11000

$$$$
