AV-unprocessed.smi:610|AV-procd|sdf|3056|dock3
  -GOLD-   2262023583D 1   1.00000     0.00000
 Structure written by MMmdl.
 38 39  0  0  0  0  0  0  0  0  2 V2000
  151.3067  140.3530  158.0812 C   0  0  0  0  0  0  0  0  0  0  0  0
  150.3087  141.3466  157.4715 C   0  0  1  0  0  0  0  0  0  0  0  0
  151.0311  142.5736  156.8766 C   0  0  0  0  0  0  0  0  0  0  0  0
  151.3128  143.5931  157.8702 N   0  0  0  0  0  0  0  0  0  0  0  0
  152.5614  144.0326  158.2898 C   0  0  0  0  0  0  0  0  0  0  0  0
  152.3375  144.9962  159.2469 C   0  0  0  0  0  0  0  0  0  0  0  0
  150.9670  145.1715  159.4242 N   0  0  0  0  0  0  0  0  0  0  0  0
  150.4257  144.3133  158.5699 C   0  0  0  0  0  0  0  0  0  0  0  0
  149.5225  140.6595  156.4472 N   0  0  0  0  0  0  0  0  0  0  0  0
  150.0027  140.1093  155.3180 C   0  0  0  0  0  0  0  0  0  0  0  0
  151.1953  140.1581  155.0155 O   0  0  0  0  0  0  0  0  0  0  0  0
  149.0049  139.4167  154.3597 C   0  0  0  0  0  0  0  0  0  0  0  0
  149.8028  138.7118  153.3402 N   0  3  0  0  0  0  0  0  0  0  0  0
  148.0828  138.4425  155.1176 C   0  0  0  0  0  0  0  0  0  0  0  0
  146.9237  139.2986  155.6493 C   0  0  0  0  0  0  0  0  0  0  0  0
  146.8809  140.5572  154.7684 C   0  0  0  0  0  0  0  0  0  0  0  0
  147.9738  140.3630  153.7098 C   0  0  0  0  0  0  0  0  0  0  0  0
  151.8946  140.8232  158.8701 H   0  0  0  0  0  0  0  0  0  0  0  0
  152.0008  139.9736  157.3303 H   0  0  0  0  0  0  0  0  0  0  0  0
  150.7913  139.4987  158.5217 H   0  0  0  0  0  0  0  0  0  0  0  0
  149.6575  141.6824  158.2805 H   0  0  0  0  0  0  0  0  0  0  0  0
  151.9812  142.2712  156.4343 H   0  0  0  0  0  0  0  0  0  0  0  0
  150.4398  143.0155  156.0731 H   0  0  0  0  0  0  0  0  0  0  0  0
  153.4801  143.6297  157.8894 H   0  0  0  0  0  0  0  0  0  0  0  0
  153.0518  145.5735  159.8153 H   0  0  0  0  0  0  0  0  0  0  0  0
  149.3574  144.1989  158.4586 H   0  0  0  0  0  0  0  0  0  0  0  0
  148.5311  140.5802  156.6227 H   0  0  0  0  0  0  0  0  0  0  0  0
  150.0057  139.3386  152.5749 H   0  0  0  0  0  0  0  0  0  0  0  0
  149.2774  137.9195  152.9985 H   0  0  0  0  0  0  0  0  0  0  0  0
  147.6842  137.6984  154.4259 H   0  0  0  0  0  0  0  0  0  0  0  0
  148.5788  137.8897  155.9168 H   0  0  0  0  0  0  0  0  0  0  0  0
  145.9825  138.7489  155.6178 H   0  0  0  0  0  0  0  0  0  0  0  0
  147.1020  139.5762  156.6884 H   0  0  0  0  0  0  0  0  0  0  0  0
  145.9017  140.7064  154.3120 H   0  0  0  0  0  0  0  0  0  0  0  0
  147.0959  141.4388  155.3736 H   0  0  0  0  0  0  0  0  0  0  0  0
  148.3837  141.3088  153.3536 H   0  0  0  0  0  0  0  0  0  0  0  0
  147.5328  139.8756  152.8384 H   0  0  0  0  0  0  0  0  0  0  0  0
  150.6659  138.3885  153.7527 H   0  0  0  0  0  0  0  0  0  0  0  0
  1  2  1  0  0  0  0
  1 18  1  0  0  0  0
  1 19  1  0  0  0  0
  1 20  1  0  0  0  0
  2  3  1  0  0  0  0
  2  9  1  0  0  0  0
  2 21  1  0  0  0  0
  3  4  1  0  0  0  0
  3 22  1  0  0  0  0
  3 23  1  0  0  0  0
  4  8  1  0  0  0  0
  4  5  1  0  0  0  0
  5  6  2  0  0  0  0
  5 24  1  0  0  0  0
  6  7  1  0  0  0  0
  6 25  1  0  0  0  0
  7  8  2  0  0  0  0
  8 26  1  0  0  0  0
  9 10  1  0  0  0  0
  9 27  1  0  0  0  0
 10 11  2  0  0  0  0
 10 12  1  0  0  0  0
 12 17  1  0  0  0  0
 12 13  1  0  0  0  0
 12 14  1  0  0  0  0
 13 28  1  0  0  0  0
 13 29  1  0  0  0  0
 13 38  1  0  0  0  0
 14 15  1  0  0  0  0
 14 30  1  0  0  0  0
 14 31  1  0  0  0  0
 15 16  1  0  0  0  0
 15 32  1  0  0  0  0
 15 33  1  0  0  0  0
 16 17  1  0  0  0  0
 16 34  1  0  0  0  0
 16 35  1  0  0  0  0
 17 36  1  0  0  0  0
 17 37  1  0  0  0  0
M  CHG  1  13   1
M  END
> <s_m_source_file>
AV-unprocessed.smi

> <i_m_source_file_index>
610

> <i_lp_mmshare_version>
43012

> <i_f3d_flags>
0

> <s_epik_input>
W2NIXTFuW2NIXVtjSF1uMVtDSDJdW0NAQEhdKFtDSDNdKVtOSF1DKD1PKUMyKFtOSDJdKVtDSDJdW0NIMl1bQ0gyXVtDSDJdMg==

> <s_epik_cmdline>
J2VwaWtfcHl0aG9uJywgJy1waCcsICc3LjAnLCAnLXRuJywgJzgnLCAnLW1hJywgJzIwMCcsICctbWV0YWxfYmluZGluZycsICctaW1hZScsICc8aW5maWxlLm1hZT4nLCAnLW9tYWUnLCAnPG91dGZpbGUubWFlPic=

> <r_lp_tautomer_probability>
1

> <r_epik_Ionization_Penalty>
0.661147

> <r_epik_Ionization_Penalty_Charging>
0.661145

> <r_epik_Ionization_Penalty_Neutral>
1.19451e-06

> <r_epik_State_Penalty>
0.679243

> <r_epik_Charging_Adjusted_Penalty>
1.34039

> <i_epik_Tot_Q>
1

> <i_epik_Tot_abs_Q>
1

> <r_epik_Metal_State_Penalty>
0.372892

> <b_epik_Metal_Only>
0

> <s_lp_Force_Field>
OPLS_2005

> <r_lp_Energy>
24.5235

> <b_lp_Chiralities_Consistent>
1

> <s_lp_Variant>
AV-unprocessed.smi:610-4

> <Gold.Version>
5.8.1

> <Gold.Id.Protein>
6NUR|6NUR_protein|mol2

> <Gold.PLP.Fitness>
44.4388

> <Gold.PLP.PLP>
-30.8108

> <Gold.PLP.part.hbond>
-3.0000

> <Gold.PLP.part.metal>
0.0000

> <Gold.PLP.part.buried>
-3.0945

> <Gold.PLP.part.nonpolar>
-25.4462

> <Gold.PLP.part.repulsive>
0.3303

> <Gold.PLP.ligand.clash>
0.0000

> <Gold.PLP.ligand.torsion>
0.5553

> <Gold.PLP.Chemscore.Hbond>
4.0000

> <Gold.PLP.Chemscore.CHOScore>
0.8910

> <Gold.PLP.Chemscore.Metal>
0.0000

> <Gold.Chemscore.Hbonds>
donor molecule, donor type, donor heavy atom, donor atom, acceptor molecule, acceptor atom, score
      L1  H    13    28       P1  7957  1.00
      L1  H    13    29       P1  7948  2.00
      P1  H  7989  7998       L1    11  1.00
      L1  C     8    26       P1  8028  0.04
      L1  C     8    26       P1  8029  0.78

> <Gold.PLP.Chemscore.Internal.Correction>
0.0657

> <Gold.Rescore>
     Score         DG    S(hbond)    S(metal)    S(lipo)     H(rot)  DE(clash)    DE(int)     intcor
     15.10     -17.40       2.81        0.00      65.24       2.00       0.04       2.25       ----

> <Gold.Chemscore.Fitness>
15.0987

> <Gold.Chemscore.DG>
-17.3970

> <Gold.Chemscore.ZeroCoef>
-5.4800

> <Gold.Chemscore.Hbond>
2.8133

> <Gold.Chemscore.Metal>
0.0000

> <Gold.Chemscore.Lipo>
65.2430

> <Gold.Chemscore.Internal_Hbond>
0.0000

> <Gold.Chemscore.DEClash>
0.0435

> <Gold.Chemscore.DEInternal>
2.2548

> <Gold.Chemscore.Rot>
1.9972

> <Gold.Chemscore.Internal.Correction>
   9.000000E+99

> <Gold.Chemscore.Hbonds>
donor molecule, donor type, donor heavy atom, donor atom, acceptor molecule, acceptor atom, score
      L1  H    13    28       P1  7957  0.84
      L1  H    13    29       P1  7948  0.88
      P1  H  7989  7998       L1    11  0.96

> <Gold.Chemscore.Hbond.Weighted>
-9.3963

> <Gold.Chemscore.Metal.Weighted>
-0.0000

> <Gold.Chemscore.Lipo.Weighted>
-7.6334

> <Gold.Chemscore.Internal_Hbond.Weighted>
0.0000

> <Gold.Chemscore.DEClash.Weighted>
0.0435

> <Gold.Chemscore.DEInternal.Weighted>
2.2548

> <Gold.Chemscore.Rot.Weighted>
5.1127

> <Gold.Chemscore.Internal.Correction.Weighted>
   9.000000E+99

> <Gold.Protein.RotatedTorsions>
[ 6907 6896 6895 6894 ] final   65.32 input  -60.11 | X-H torsion
[ 7974 7965 7964 7962 ] final  -49.52 input  175.53 | X-H torsion
[ 8008 7997 7996 7995 ] final  122.18 input   59.86 | X-H torsion
[ 10167 10162 10161 10158 ] final  138.23 input  -65.29 | X-H torsion
[ 10718 10713 10712 10709 ] final   92.35 input   66.30 | X-H torsion
[ 10763 10752 10751 10750 ] final  136.40 input  -60.55 | X-H torsion
[ 11005 11000 10999 10996 ] final  -21.94 input  -57.11 | X-H torsion

> <Gold.Protein.ActiveResidues>
 VAL166  LYS551  ARG553  GLY616  TRP617  ASP618  TYR619  PRO620  LYS621  CYS622 
 ASP623  PHE694  ASN695  SER759  ASP760  ASP761  ALA762  ILE779  LEU786  VAL792 
 PHE793  MET794  SER795  GLU796  ALA797  LYS798  CYS799  TRP800  GLU811  SER814 

> <Gold.Protein.RotatedAtoms>
  152.4399  134.5612  159.9894 H   0  0  0  0  0  0  0  0  0  0  0  0  # atno 6907 bound_to 6896
  151.5713  133.3384  159.2998 H   0  0  0  0  0  0  0  0  0  0  0  0  # atno 6908 bound_to 6896
  150.8303  134.7587  159.6912 H   0  0  0  0  0  0  0  0  0  0  0  0  # atno 6909 bound_to 6896
  145.9397  140.7674  142.9558 H   0  0  0  0  0  0  0  0  0  0  0  0  # atno 7974 bound_to 7965
  156.2717  140.2791  156.1426 H   0  0  0  0  0  0  0  0  0  0  0  0  # atno 8008 bound_to 7997
  155.0938  140.0389  157.2694 H   0  0  0  0  0  0  0  0  0  0  0  0  # atno 8009 bound_to 7997
  154.6869  140.2620  155.6858 H   0  0  0  0  0  0  0  0  0  0  0  0  # atno 8010 bound_to 7997
  139.5117  144.6365  151.5683 H   0  0  0  0  0  0  0  0  0  0  0  0  # atno 10167 bound_to 10162
  157.6959  131.0440  150.3868 H   0  0  0  0  0  0  0  0  0  0  0  0  # atno 10718 bound_to 10713
  153.8559  135.3073  155.3435 H   0  0  0  0  0  0  0  0  0  0  0  0  # atno 10763 bound_to 10752
  154.7870  135.4804  153.9972 H   0  0  0  0  0  0  0  0  0  0  0  0  # atno 10764 bound_to 10752
  153.1490  135.6839  153.9004 H   0  0  0  0  0  0  0  0  0  0  0  0  # atno 10765 bound_to 10752
  140.8610  133.7788  156.0074 H   0  0  0  0  0  0  0  0  0  0  0  0  # atno 11005 bound_to 11000
  144.6777  140.2260  143.7361 LP  0  0  0  0  0  0  0  0  0  0  0  0  # atno 17320 bound_to 7965
  145.8316  139.2089  143.1879 LP  0  0  0  0  0  0  0  0  0  0  0  0  # atno 17321 bound_to 7965
  140.6116  143.9426  150.6457 LP  0  0  0  0  0  0  0  0  0  0  0  0  # atno 17342 bound_to 10162
  140.2670  143.3483  152.1272 LP  0  0  0  0  0  0  0  0  0  0  0  0  # atno 17343 bound_to 10162
  156.4276  130.3965  149.6782 LP  0  0  0  0  0  0  0  0  0  0  0  0  # atno 17370 bound_to 10713
  156.4011  130.7675  151.2683 LP  0  0  0  0  0  0  0  0  0  0  0  0  # atno 17371 bound_to 10713
  140.8683  134.2757  157.5202 LP  0  0  0  0  0  0  0  0  0  0  0  0  # atno 17394 bound_to 11000
  139.8707  134.9554  156.4205 LP  0  0  0  0  0  0  0  0  0  0  0  0  # atno 17395 bound_to 11000

$$$$
