AV-unprocessed.smi:2973|AV-procd|sdf|11352|dock6
  -GOLD-   2272016273D 1   1.00000     0.00000
 Structure written by MMmdl.
 49 51  0  0  0  0  0  0  0  0  3 V2000
  151.1234  133.0908  156.7625 C   0  0  0  0  0  0  0  0  0  0  0  0
  149.6717  133.6141  156.8341 C   0  0  1  0  0  0  0  0  0  0  0  0
  149.0084  133.1483  158.1500 C   0  0  0  0  0  0  0  0  0  0  0  0
  147.5365  133.5777  158.2351 C   0  0  0  0  0  0  0  0  0  0  0  0
  147.3912  135.0965  158.0798 C   0  0  0  0  0  0  0  0  0  0  0  0
  148.0341  135.5801  156.7684 C   0  0  0  0  0  0  0  0  0  0  0  0
  149.5203  135.1573  156.6150 C   0  0  2  0  0  0  0  0  0  0  0  0
  149.9667  135.5253  155.2821 N   0  5  0  0  0  0  0  0  0  0  0  0
  150.9599  136.4384  155.3831 C   0  0  0  0  0  0  0  0  0  0  0  0
  151.5579  136.9811  154.4543 O   0  0  0  0  0  0  0  0  0  0  0  0
  151.2399  136.7080  156.6718 N   0  0  0  0  0  0  0  0  0  0  0  0
  152.2549  137.6675  157.1261 C   0  0  0  0  0  0  0  0  0  0  0  0
  152.1725  139.0159  156.3977 C   0  0  0  0  0  0  0  0  0  0  0  0
  152.9002  139.2621  155.4344 O   0  0  0  0  0  0  0  0  0  0  0  0
  151.2601  139.8810  156.8649 N   0  0  0  0  0  0  0  0  0  0  0  0
  151.0234  141.2158  156.3290 C   0  0  0  0  0  0  0  0  0  0  0  0
  150.0817  142.0292  157.2333 C   0  0  0  0  0  0  0  0  0  0  0  0
  150.8389  142.9560  158.1639 C   0  0  0  0  0  0  0  0  0  0  0  0
  151.7652  142.4733  159.1138 C   0  0  0  0  0  0  0  0  0  0  0  0
  152.4414  143.3908  159.9452 C   0  0  0  0  0  0  0  0  0  0  0  0
  152.1786  144.7698  159.8080 C   0  0  0  0  0  0  0  0  0  0  0  0
  151.2453  145.1969  158.8414 C   0  0  0  0  0  0  0  0  0  0  0  0
  150.6178  144.2870  158.0641 N   0  3  0  0  0  0  0  0  0  0  0  0
  150.4420  136.0089  157.4864 C   0  0  0  0  0  0  0  0  0  0  0  0
  150.4341  136.0320  158.7180 O   0  0  0  0  0  0  0  0  0  0  0  0
  151.7371  133.4826  157.5738 H   0  0  0  0  0  0  0  0  0  0  0  0
  151.6028  133.3601  155.8213 H   0  0  0  0  0  0  0  0  0  0  0  0
  151.1471  132.0033  156.8335 H   0  0  0  0  0  0  0  0  0  0  0  0
  149.1305  133.1235  156.0228 H   0  0  0  0  0  0  0  0  0  0  0  0
  149.0667  132.0622  158.2276 H   0  0  0  0  0  0  0  0  0  0  0  0
  149.5533  133.5402  159.0091 H   0  0  0  0  0  0  0  0  0  0  0  0
  146.9638  133.0740  157.4552 H   0  0  0  0  0  0  0  0  0  0  0  0
  147.1107  133.2592  159.1869 H   0  0  0  0  0  0  0  0  0  0  0  0
  146.3356  135.3685  158.0925 H   0  0  0  0  0  0  0  0  0  0  0  0
  147.8437  135.6006  158.9336 H   0  0  0  0  0  0  0  0  0  0  0  0
  147.4562  135.1809  155.9331 H   0  0  0  0  0  0  0  0  0  0  0  0
  147.9373  136.6653  156.7025 H   0  0  0  0  0  0  0  0  0  0  0  0
  152.1561  137.8490  158.1974 H   0  0  0  0  0  0  0  0  0  0  0  0
  153.2490  137.2375  156.9909 H   0  0  0  0  0  0  0  0  0  0  0  0
  150.6994  139.5958  157.6547 H   0  0  0  0  0  0  0  0  0  0  0  0
  151.9730  141.7373  156.1973 H   0  0  0  0  0  0  0  0  0  0  0  0
  150.5876  141.1072  155.3356 H   0  0  0  0  0  0  0  0  0  0  0  0
  149.3964  142.6207  156.6247 H   0  0  0  0  0  0  0  0  0  0  0  0
  149.4603  141.3611  157.8314 H   0  0  0  0  0  0  0  0  0  0  0  0
  151.9569  141.4137  159.2046 H   0  0  0  0  0  0  0  0  0  0  0  0
  153.1537  143.0409  160.6782 H   0  0  0  0  0  0  0  0  0  0  0  0
  152.6853  145.4889  160.4348 H   0  0  0  0  0  0  0  0  0  0  0  0
  150.9832  146.2304  158.6679 H   0  0  0  0  0  0  0  0  0  0  0  0
  149.9463  144.6193  157.3715 H   0  0  0  0  0  0  0  0  0  0  0  0
  1  2  1  0  0  0  0
  1 26  1  0  0  0  0
  1 27  1  0  0  0  0
  1 28  1  0  0  0  0
  2  7  1  0  0  0  0
  2  3  1  0  0  0  0
  2 29  1  0  0  0  0
  3  4  1  0  0  0  0
  3 30  1  0  0  0  0
  3 31  1  0  0  0  0
  4  5  1  0  0  0  0
  4 32  1  0  0  0  0
  4 33  1  0  0  0  0
  5  6  1  0  0  0  0
  5 34  1  0  0  0  0
  5 35  1  0  0  0  0
  6  7  1  0  0  0  0
  6 36  1  0  0  0  0
  6 37  1  0  0  0  0
  7 24  1  0  0  0  0
  7  8  1  0  0  0  0
  8  9  1  0  0  0  0
  9 10  2  0  0  0  0
  9 11  1  0  0  0  0
 11 12  1  0  0  0  0
 11 24  1  0  0  0  0
 12 13  1  0  0  0  0
 12 38  1  0  0  0  0
 12 39  1  0  0  0  0
 13 14  2  0  0  0  0
 13 15  1  0  0  0  0
 15 16  1  0  0  0  0
 15 40  1  0  0  0  0
 16 17  1  0  0  0  0
 16 41  1  0  0  0  0
 16 42  1  0  0  0  0
 17 18  1  0  0  0  0
 17 43  1  0  0  0  0
 17 44  1  0  0  0  0
 18 23  1  0  0  0  0
 18 19  2  0  0  0  0
 19 20  1  0  0  0  0
 19 45  1  0  0  0  0
 20 21  2  0  0  0  0
 20 46  1  0  0  0  0
 21 22  1  0  0  0  0
 21 47  1  0  0  0  0
 22 23  2  0  0  0  0
 22 48  1  0  0  0  0
 23 49  1  0  0  0  0
 24 25  2  0  0  0  0
M  CHG  1   8  -1
M  CHG  1  23   1
M  END
> <s_m_source_file>
AV-unprocessed.smi

> <i_m_source_file_index>
2973

> <i_lp_mmshare_version>
43012

> <i_f3d_flags>
0

> <s_epik_input>
W0NIMl0xW0NIMl1bQ0gyXVtDSDJdW0NAQEhdKFtDSDNdKVtDQF0xMltOSF1DKD1PKU4oQzI9TylbQ0gyXUMoPU8pW05IXVtDSDJdW0NIMl1jM1tjSF1bY0hdW2NIXVtjSF1uMw==

> <s_epik_cmdline>
J2VwaWtfcHl0aG9uJywgJy1waCcsICc3LjAnLCAnLXRuJywgJzgnLCAnLW1hJywgJzIwMCcsICctbWV0YWxfYmluZGluZycsICctaW1hZScsICc8aW5maWxlLm1hZT4nLCAnLW9tYWUnLCAnPG91dGZpbGUubWFlPic=

> <r_lp_tautomer_probability>
1

> <r_epik_Ionization_Penalty>
7.89073

> <r_epik_Ionization_Penalty_Charging>
7.89073

> <r_epik_Ionization_Penalty_Neutral>
1.56557e-07

> <r_epik_State_Penalty>
8.01193

> <r_epik_Charging_Adjusted_Penalty>
15.9027

> <i_epik_Tot_Q>
0

> <i_epik_Tot_abs_Q>
2

> <r_epik_Metal_State_Penalty>
3.98737

> <b_epik_Metal_Only>
1

> <s_lp_Force_Field>
OPLS_2005

> <r_lp_Energy>
17.432

> <b_lp_Chiralities_Consistent>
1

> <s_lp_Variant>
AV-unprocessed.smi:2973-16

> <Gold.Version>
5.8.1

> <Gold.Id.Protein>
6NUR|6NUR_protein|mol2

> <Gold.PLP.Fitness>
49.0939

> <Gold.PLP.PLP>
-35.7877

> <Gold.PLP.part.hbond>
-4.0807

> <Gold.PLP.part.metal>
0.0000

> <Gold.PLP.part.buried>
-6.9895

> <Gold.PLP.part.nonpolar>
-26.9593

> <Gold.PLP.part.repulsive>
1.3022

> <Gold.PLP.ligand.clash>
0.0000

> <Gold.PLP.ligand.torsion>
0.7501

> <Gold.PLP.Chemscore.Hbond>
4.9280

> <Gold.PLP.Chemscore.CHOScore>
0.0000

> <Gold.PLP.Chemscore.Metal>
0.0000

> <Gold.Chemscore.Hbonds>
donor molecule, donor type, donor heavy atom, donor atom, acceptor molecule, acceptor atom, score
      L1  H    23    49       P1  8028  1.80
      P1  H  6896  6908       L1    25  0.98
      P1  H  7997  8008       L1    14  1.00
      P1  H 10752 10764       L1    10  0.93

> <Gold.PLP.Chemscore.Internal.Correction>
0.0223

> <Gold.Rescore>
     Score         DG    S(hbond)    S(metal)    S(lipo)     H(rot)  DE(clash)    DE(int)     intcor
     19.22     -22.88       3.49        0.00      90.96       1.92       0.39       3.27       ----

> <Gold.Chemscore.Fitness>
19.2198

> <Gold.Chemscore.DG>
-22.8820

> <Gold.Chemscore.ZeroCoef>
-5.4800

> <Gold.Chemscore.Hbond>
3.4935

> <Gold.Chemscore.Metal>
0.0000

> <Gold.Chemscore.Lipo>
90.9616

> <Gold.Chemscore.Internal_Hbond>
0.0000

> <Gold.Chemscore.DEClash>
0.3922

> <Gold.Chemscore.DEInternal>
3.2700

> <Gold.Chemscore.Rot>
1.9175

> <Gold.Chemscore.Internal.Correction>
   9.000000E+99

> <Gold.Chemscore.Hbonds>
donor molecule, donor type, donor heavy atom, donor atom, acceptor molecule, acceptor atom, score
      L1  H    23    49       P1  8028  0.17
      P1  H  6896  6908       L1    25  0.90
      P1  H  7997  8008       L1    14  0.91
      P1  H 10752 10764       L1    10  0.39

> <Gold.Chemscore.Hbond.Weighted>
-11.6682

> <Gold.Chemscore.Metal.Weighted>
-0.0000

> <Gold.Chemscore.Lipo.Weighted>
-10.6425

> <Gold.Chemscore.Internal_Hbond.Weighted>
0.0000

> <Gold.Chemscore.DEClash.Weighted>
0.3922

> <Gold.Chemscore.DEInternal.Weighted>
3.2700

> <Gold.Chemscore.Rot.Weighted>
4.9087

> <Gold.Chemscore.Internal.Correction.Weighted>
   9.000000E+99

> <Gold.Protein.RotatedTorsions>
[ 6907 6896 6895 6894 ] final -170.85 input  -60.11 | X-H torsion
[ 7974 7965 7964 7962 ] final  -38.66 input  175.53 | X-H torsion
[ 8008 7997 7996 7995 ] final   -9.56 input   59.86 | X-H torsion
[ 10167 10162 10161 10158 ] final   33.94 input  -65.29 | X-H torsion
[ 10718 10713 10712 10709 ] final   40.24 input   66.30 | X-H torsion
[ 10763 10752 10751 10750 ] final  -95.49 input  -60.55 | X-H torsion
[ 11005 11000 10999 10996 ] final  -13.87 input  -57.11 | X-H torsion

> <Gold.Protein.ActiveResidues>
 VAL166  LYS551  ARG553  GLY616  TRP617  ASP618  TYR619  PRO620  LYS621  CYS622 
 ASP623  PHE694  ASN695  SER759  ASP760  ASP761  ALA762  ILE779  LEU786  VAL792 
 PHE793  MET794  SER795  GLU796  ALA797  LYS798  CYS799  TRP800  GLU811  SER814 

> <Gold.Protein.RotatedAtoms>
  151.5143  133.3479  159.2890 H   0  0  0  0  0  0  0  0  0  0  0  0  # atno 6907 bound_to 6896
  150.8692  134.8065  159.7153 H   0  0  0  0  0  0  0  0  0  0  0  0  # atno 6908 bound_to 6896
  152.4686  134.5025  159.9781 H   0  0  0  0  0  0  0  0  0  0  0  0  # atno 6909 bound_to 6896
  146.0466  140.6538  142.9062 H   0  0  0  0  0  0  0  0  0  0  0  0  # atno 7974 bound_to 7965
  154.5635  140.2352  155.8299 H   0  0  0  0  0  0  0  0  0  0  0  0  # atno 8008 bound_to 7997
  156.2049  140.3042  155.9565 H   0  0  0  0  0  0  0  0  0  0  0  0  # atno 8009 bound_to 7997
  155.2844  140.0424  157.3008 H   0  0  0  0  0  0  0  0  0  0  0  0  # atno 8010 bound_to 7997
  140.4361  144.1255  150.6166 H   0  0  0  0  0  0  0  0  0  0  0  0  # atno 10167 bound_to 10162
  157.3799  130.7748  149.7185 H   0  0  0  0  0  0  0  0  0  0  0  0  # atno 10718 bound_to 10713
  154.7153  135.5118  153.8728 H   0  0  0  0  0  0  0  0  0  0  0  0  # atno 10763 bound_to 10752
  153.0815  135.6633  154.0044 H   0  0  0  0  0  0  0  0  0  0  0  0  # atno 10764 bound_to 10752
  153.9878  135.3023  155.3394 H   0  0  0  0  0  0  0  0  0  0  0  0  # atno 10765 bound_to 10752
  140.7806  133.8366  155.9288 H   0  0  0  0  0  0  0  0  0  0  0  0  # atno 11005 bound_to 11000
  144.7101  140.4005  143.7087 LP  0  0  0  0  0  0  0  0  0  0  0  0  # atno 17320 bound_to 7965
  145.6795  139.1615  143.2709 LP  0  0  0  0  0  0  0  0  0  0  0  0  # atno 17321 bound_to 7965
  140.4372  143.2542  151.9519 LP  0  0  0  0  0  0  0  0  0  0  0  0  # atno 17342 bound_to 10162
  139.4787  144.5688  151.8121 LP  0  0  0  0  0  0  0  0  0  0  0  0  # atno 17343 bound_to 10162
  155.9773  130.4064  150.3718 LP  0  0  0  0  0  0  0  0  0  0  0  0  # atno 17370 bound_to 10713
  157.1821  131.0395  151.2743 LP  0  0  0  0  0  0  0  0  0  0  0  0  # atno 17371 bound_to 10713
  140.9486  134.1808  157.4744 LP  0  0  0  0  0  0  0  0  0  0  0  0  # atno 17394 bound_to 11000
  139.8743  134.9900  156.5484 LP  0  0  0  0  0  0  0  0  0  0  0  0  # atno 17395 bound_to 11000

$$$$
