AV-unprocessed.smi:37|AV-procd|sdf|311|dock3
  -GOLD-   2262016123D 1   1.00000     0.00000
 Structure written by MMmdl.
 44 45  0  0  0  0  0  0  0  0  1 V2000
  149.6487  133.3004  154.1712 C   0  0  0  0  0  0  0  0  0  0  0  0
  150.0871  132.3831  155.3207 C   0  0  0  0  0  0  0  0  0  0  0  0
  149.6304  132.9060  156.6808 C   0  0  0  0  0  0  0  0  0  0  0  0
  150.4330  133.1141  157.5910 O   0  0  0  0  0  0  0  0  0  0  0  0
  148.3029  133.0924  156.7443 O   0  0  0  0  0  0  0  0  0  0  0  0
  147.7367  133.7223  157.8808 C   0  0  0  0  0  0  0  0  0  0  0  0
  148.0850  135.2155  157.8506 C   0  0  2  0  0  0  0  0  0  0  0  0
  149.4862  135.4199  157.9933 O   0  0  0  0  0  0  0  0  0  0  0  0
  149.7305  136.6829  158.5408 C   0  0  1  0  0  0  0  0  0  0  0  0
  150.4678  137.5410  157.5374 N   0  0  0  0  0  0  0  0  0  0  0  0
  150.0711  137.6322  156.2081 C   0  0  0  0  0  0  0  0  0  0  0  0
  150.7202  138.3968  155.2987 C   0  0  0  0  0  0  0  0  0  0  0  0
  150.2762  138.4398  154.0312 F   0  0  0  0  0  0  0  0  0  0  0  0
  151.8933  139.1773  155.6820 C   0  0  0  0  0  0  0  0  0  0  0  0
  152.5484  139.8960  154.9297 O   0  0  0  0  0  0  0  0  0  0  0  0
  152.2506  139.0591  157.0284 N   0  0  0  0  0  0  0  0  0  0  0  0
  151.5888  138.2778  157.9770 C   0  0  0  0  0  0  0  0  0  0  0  0
  151.9813  138.2556  159.1428 O   0  0  0  0  0  0  0  0  0  0  0  0
  148.3706  137.2787  158.9679 C   0  0  1  0  0  0  0  0  0  0  0  0
  147.6103  138.5700  157.6437 Br  0  0  0  0  0  0  0  0  0  0  0  0
  147.4854  136.0467  158.9882 C   0  0  2  0  0  0  0  0  0  0  0  0
  147.6372  135.3749  160.2367 O   0  0  0  0  0  0  0  0  0  0  0  0
  147.3808  136.0028  161.3988 C   0  0  0  0  0  0  0  0  0  0  0  0
  147.1363  137.2027  161.5335 O   0  0  0  0  0  0  0  0  0  0  0  0
  147.4209  135.0378  162.5856 C   0  0  0  0  0  0  0  0  0  0  0  0
  146.4040  133.8913  162.4812 C   0  0  0  0  0  0  0  0  0  0  0  0
  153.0532  139.5862  157.3406 H   0  0  0  0  0  0  0  0  0  0  0  0
  150.0248  132.9281  153.2184 H   0  0  0  0  0  0  0  0  0  0  0  0
  150.0315  134.3128  154.3042 H   0  0  0  0  0  0  0  0  0  0  0  0
  148.5622  133.3575  154.0965 H   0  0  0  0  0  0  0  0  0  0  0  0
  149.6843  131.3809  155.1737 H   0  0  0  0  0  0  0  0  0  0  0  0
  151.1735  132.2898  155.3256 H   0  0  0  0  0  0  0  0  0  0  0  0
  146.6540  133.5927  157.8546 H   0  0  0  0  0  0  0  0  0  0  0  0
  148.1031  133.2609  158.7991 H   0  0  0  0  0  0  0  0  0  0  0  0
  147.7662  135.6466  156.9002 H   0  0  0  0  0  0  0  0  0  0  0  0
  150.4157  136.5345  159.3777 H   0  0  0  0  0  0  0  0  0  0  0  0
  149.2049  137.0854  155.8665 H   0  0  0  0  0  0  0  0  0  0  0  0
  148.4464  137.7863  159.9303 H   0  0  0  0  0  0  0  0  0  0  0  0
  146.4443  136.3043  158.7900 H   0  0  0  0  0  0  0  0  0  0  0  0
  148.4284  134.6280  162.6630 H   0  0  0  0  0  0  0  0  0  0  0  0
  147.2408  135.6051  163.4990 H   0  0  0  0  0  0  0  0  0  0  0  0
  146.4736  133.2369  163.3502 H   0  0  0  0  0  0  0  0  0  0  0  0
  146.5811  133.2814  161.5947 H   0  0  0  0  0  0  0  0  0  0  0  0
  145.3817  134.2685  162.4344 H   0  0  0  0  0  0  0  0  0  0  0  0
  1  2  1  0  0  0  0
  1 28  1  0  0  0  0
  1 29  1  0  0  0  0
  1 30  1  0  0  0  0
  2  3  1  0  0  0  0
  2 31  1  0  0  0  0
  2 32  1  0  0  0  0
  3  4  2  0  0  0  0
  3  5  1  0  0  0  0
  5  6  1  0  0  0  0
  6  7  1  0  0  0  0
  6 33  1  0  0  0  0
  6 34  1  0  0  0  0
  7 21  1  0  0  0  0
  7  8  1  0  0  0  0
  7 35  1  0  0  0  0
  8  9  1  0  0  0  0
  9 10  1  0  0  0  0
  9 19  1  0  0  0  0
  9 36  1  0  0  0  0
 10 17  1  0  0  0  0
 10 11  1  0  0  0  0
 11 12  2  0  0  0  0
 11 37  1  0  0  0  0
 12 13  1  0  0  0  0
 12 14  1  0  0  0  0
 14 15  2  0  0  0  0
 14 16  1  0  0  0  0
 16 27  1  0  0  0  0
 16 17  1  0  0  0  0
 17 18  2  0  0  0  0
 19 20  1  0  0  0  0
 19 21  1  0  0  0  0
 19 38  1  0  0  0  0
 21 22  1  0  0  0  0
 21 39  1  0  0  0  0
 22 23  1  0  0  0  0
 23 24  2  0  0  0  0
 23 25  1  0  0  0  0
 25 26  1  0  0  0  0
 25 40  1  0  0  0  0
 25 41  1  0  0  0  0
 26 42  1  0  0  0  0
 26 43  1  0  0  0  0
 26 44  1  0  0  0  0
M  END
> <s_m_source_file>
AV-unprocessed.smi

> <i_m_source_file_index>
37

> <i_lp_mmshare_version>
43012

> <i_f3d_flags>
0

> <s_epik_input>
W0NIM11bQ0gyXUMoPU8pT1tDSDJdW0NAQEhdMU9bQ0BASF0objJbY0hdYyhGKWMoPU8pW25IXWMyPU8pW0NAQEhdKEJyKVtDQEhdMU9DKD1PKVtDSDJdW0NIM10=

> <s_epik_cmdline>
J2VwaWtfcHl0aG9uJywgJy1waCcsICc3LjAnLCAnLXRuJywgJzgnLCAnLW1hJywgJzIwMCcsICctbWV0YWxfYmluZGluZycsICctaW1hZScsICc8aW5maWxlLm1hZT4nLCAnLW9tYWUnLCAnPG91dGZpbGUubWFlPic=

> <r_lp_tautomer_probability>
0.999537

> <r_epik_Ionization_Penalty>
0.104106

> <r_epik_Ionization_Penalty_Charging>
0.104106

> <r_epik_Ionization_Penalty_Neutral>
3.94675e-16

> <r_epik_State_Penalty>
0.0940182

> <r_epik_Charging_Adjusted_Penalty>
0.198124

> <i_epik_Tot_Q>
0

> <i_epik_Tot_abs_Q>
0

> <r_epik_Metal_State_Penalty>
3.05314

> <b_epik_Metal_Only>
0

> <s_epik_Chemistry_Notes>
This compound has an ester and may undergo hydrolysis at high or low pH. This compound contains an acetal/aminal-like group ( X-CH(R)-Y where X, Y are N, S, or O) that may be acid/base labile, releasing an aldehyde.

> <s_lp_Force_Field>
OPLS_2005

> <r_lp_Energy>
26.7513

> <b_lp_Chiralities_Consistent>
1

> <s_lp_Variant>
AV-unprocessed.smi:37-9

> <Gold.Version>
5.8.1

> <Gold.Id.Protein>
6NUR|6NUR_protein|mol2

> <Gold.PLP.Fitness>
49.1986

> <Gold.PLP.PLP>
-37.1237

> <Gold.PLP.part.hbond>
-5.8647

> <Gold.PLP.part.metal>
0.0000

> <Gold.PLP.part.buried>
-5.7353

> <Gold.PLP.part.nonpolar>
-26.8410

> <Gold.PLP.part.repulsive>
0.1213

> <Gold.PLP.ligand.clash>
0.0200

> <Gold.PLP.ligand.torsion>
0.5303

> <Gold.PLP.Chemscore.Hbond>
4.2720

> <Gold.PLP.Chemscore.CHOScore>
0.0000

> <Gold.PLP.Chemscore.Metal>
0.0000

> <Gold.Chemscore.Hbonds>
donor molecule, donor type, donor heavy atom, donor atom, acceptor molecule, acceptor atom, score
      P1  H  6896  6907       L1     4  1.00
      P1  H  6931  6943       L1    24  0.50
      P1  H  6934  6947       L1    24  0.99
      P1  H  7989  7998       L1    15  0.56
      P1  H  7997  8008       L1    15  0.70

> <Gold.PLP.Chemscore.Internal.Correction>
0.3395

> <Gold.Rescore>
     Score         DG    S(hbond)    S(metal)    S(lipo)     H(rot)  DE(clash)    DE(int)     intcor
      9.16     -15.17       3.76        0.00      48.51       3.33       0.00       6.01       ----

> <Gold.Chemscore.Fitness>
9.1609

> <Gold.Chemscore.DG>
-15.1722

> <Gold.Chemscore.ZeroCoef>
-5.4800

> <Gold.Chemscore.Hbond>
3.7551

> <Gold.Chemscore.Metal>
0.0000

> <Gold.Chemscore.Lipo>
48.5110

> <Gold.Chemscore.Internal_Hbond>
0.0000

> <Gold.Chemscore.DEClash>
0.0000

> <Gold.Chemscore.DEInternal>
6.0112

> <Gold.Chemscore.Rot>
3.3303

> <Gold.Chemscore.Internal.Correction>
   9.000000E+99

> <Gold.Chemscore.Hbonds>
donor molecule, donor type, donor heavy atom, donor atom, acceptor molecule, acceptor atom, score
      P1  H  6896  6907       L1     4  0.99
      P1  H  6931  6943       L1    24  0.34
      P1  H  6934  6947       L1    24  0.93
      P1  H  7989  7998       L1    15  0.55
      P1  H  7997  8008       L1    15  0.41

> <Gold.Chemscore.Hbond.Weighted>
-12.5420

> <Gold.Chemscore.Metal.Weighted>
-0.0000

> <Gold.Chemscore.Lipo.Weighted>
-5.6758

> <Gold.Chemscore.Internal_Hbond.Weighted>
0.0000

> <Gold.Chemscore.DEClash.Weighted>
0.0000

> <Gold.Chemscore.DEInternal.Weighted>
6.0112

> <Gold.Chemscore.Rot.Weighted>
8.5256

> <Gold.Chemscore.Internal.Correction.Weighted>
   9.000000E+99

> <Gold.Protein.RotatedTorsions>
[ 6907 6896 6895 6894 ] final -130.11 input  -60.11 | X-H torsion
[ 7974 7965 7964 7962 ] final -157.38 input  175.53 | X-H torsion
[ 8008 7997 7996 7995 ] final  -13.55 input   59.86 | X-H torsion
[ 10167 10162 10161 10158 ] final   61.80 input  -65.29 | X-H torsion
[ 10718 10713 10712 10709 ] final   26.15 input   66.30 | X-H torsion
[ 10763 10752 10751 10750 ] final   66.15 input  -60.55 | X-H torsion
[ 11005 11000 10999 10996 ] final -151.15 input  -57.11 | X-H torsion

> <Gold.Protein.ActiveResidues>
 VAL166  LYS551  ARG553  GLY616  TRP617  ASP618  TYR619  PRO620  LYS621  CYS622 
 ASP623  PHE694  ASN695  SER759  ASP760  ASP761  ALA762  ILE779  LEU786  VAL792 
 PHE793  MET794  SER795  GLU796  ALA797  LYS798  CYS799  TRP800  GLU811  SER814 

> <Gold.Protein.RotatedAtoms>
  150.9361  133.6710  159.2800 H   0  0  0  0  0  0  0  0  0  0  0  0  # atno 6907 bound_to 6896
  151.4116  135.0984  159.9596 H   0  0  0  0  0  0  0  0  0  0  0  0  # atno 6908 bound_to 6896
  152.5048  133.8832  159.7412 H   0  0  0  0  0  0  0  0  0  0  0  0  # atno 6909 bound_to 6896
  144.7551  140.3977  143.6018 H   0  0  0  0  0  0  0  0  0  0  0  0  # atno 7974 bound_to 7965
  154.5283  140.2246  155.8850 H   0  0  0  0  0  0  0  0  0  0  0  0  # atno 8008 bound_to 7997
  156.1737  140.3116  155.8983 H   0  0  0  0  0  0  0  0  0  0  0  0  # atno 8009 bound_to 7997
  155.3505  140.0455  157.3036 H   0  0  0  0  0  0  0  0  0  0  0  0  # atno 8010 bound_to 7997
  140.1508  144.4464  150.6760 H   0  0  0  0  0  0  0  0  0  0  0  0  # atno 10167 bound_to 10162
  157.2029  130.6898  149.6196 H   0  0  0  0  0  0  0  0  0  0  0  0  # atno 10718 bound_to 10713
  153.0127  135.5331  154.6779 H   0  0  0  0  0  0  0  0  0  0  0  0  # atno 10763 bound_to 10752
  154.5946  135.2862  155.0601 H   0  0  0  0  0  0  0  0  0  0  0  0  # atno 10764 bound_to 10752
  154.1681  135.6536  153.5055 H   0  0  0  0  0  0  0  0  0  0  0  0  # atno 10765 bound_to 10752
  140.7327  134.3603  157.5163 H   0  0  0  0  0  0  0  0  0  0  0  0  # atno 11005 bound_to 11000
  145.6808  139.1618  143.2702 LP  0  0  0  0  0  0  0  0  0  0  0  0  # atno 17320 bound_to 7965
  146.1551  140.6870  142.9304 LP  0  0  0  0  0  0  0  0  0  0  0  0  # atno 17321 bound_to 7965
  140.6703  143.2283  151.5641 LP  0  0  0  0  0  0  0  0  0  0  0  0  # atno 17342 bound_to 10162
  139.5427  144.2605  152.1381 LP  0  0  0  0  0  0  0  0  0  0  0  0  # atno 17343 bound_to 10162
  155.9698  130.4576  150.5970 LP  0  0  0  0  0  0  0  0  0  0  0  0  # atno 17370 bound_to 10713
  157.3749  131.0771  151.1526 LP  0  0  0  0  0  0  0  0  0  0  0  0  # atno 17371 bound_to 10713
  139.8823  134.9029  156.2842 LP  0  0  0  0  0  0  0  0  0  0  0  0  # atno 17394 bound_to 11000
  140.9907  133.7210  156.0809 LP  0  0  0  0  0  0  0  0  0  0  0  0  # atno 17395 bound_to 11000

$$$$
