AV-unprocessed.smi:1535|AV-procd|sdf|6185|dock1
  -GOLD-   22720 6343D 1   1.00000     0.00000
 Structure written by MMmdl.
 47 48  0  0  0  0  0  0  0  0  2 V2000
  152.9651  143.3201  161.0784 C   0  0  0  0  0  0  0  0  0  0  0  0
  152.4624  142.7307  159.7722 C   0  0  0  0  0  0  0  0  0  0  0  0
  152.8588  141.4235  159.4096 C   0  0  0  0  0  0  0  0  0  0  0  0
  152.4140  140.8401  158.2030 C   0  0  0  0  0  0  0  0  0  0  0  0
  152.6709  139.5937  157.6580 N   0  0  0  0  0  0  0  0  0  0  0  0
  151.9767  139.6472  156.5253 C   0  0  0  0  0  0  0  0  0  0  0  0
  151.2958  140.7814  156.2726 N   0  0  0  0  0  0  0  0  0  0  0  0
  150.4779  141.0694  155.1076 C   0  0  0  0  0  0  0  0  0  0  0  0
  149.3589  140.0318  154.8956 C   0  0  1  0  0  0  0  0  0  0  0  0
  148.5188  140.4514  153.8370 O   0  0  0  0  0  0  0  0  0  0  0  0
  149.9312  138.6448  154.5422 C   0  0  0  0  0  0  0  0  0  0  0  0
  149.1994  137.5475  155.2246 N   0  3  1  0  0  0  0  0  0  0  0  0
  147.7738  137.4989  154.8261 C   0  0  0  0  0  0  0  0  0  0  0  0
  149.8720  136.2280  155.0955 C   0  0  0  0  0  0  0  0  0  0  0  0
  148.9567  135.0616  155.5111 C   0  0  1  0  0  0  0  0  0  0  0  0
  149.0211  133.9085  154.5017 C   0  0  0  0  0  0  0  0  0  0  0  0
  149.2836  134.5880  156.8660 C   0  0  0  0  0  0  0  0  0  0  0  0
  149.5380  134.2126  157.9296 N   0  0  0  0  0  0  0  0  0  0  0  0
  151.5556  141.6068  157.3617 C   0  0  0  0  0  0  0  0  0  0  0  0
  151.1521  142.9072  157.7128 C   0  0  0  0  0  0  0  0  0  0  0  0
  151.6050  143.4748  158.9222 C   0  0  0  0  0  0  0  0  0  0  0  0
  151.1615  144.8787  159.2931 C   0  0  0  0  0  0  0  0  0  0  0  0
  153.6301  142.6293  161.5976 H   0  0  0  0  0  0  0  0  0  0  0  0
  152.1299  143.5439  161.7423 H   0  0  0  0  0  0  0  0  0  0  0  0
  153.5187  144.2414  160.8951 H   0  0  0  0  0  0  0  0  0  0  0  0
  153.5105  140.8555  160.0574 H   0  0  0  0  0  0  0  0  0  0  0  0
  151.9606  138.8130  155.8391 H   0  0  0  0  0  0  0  0  0  0  0  0
  150.0566  142.0696  155.2168 H   0  0  0  0  0  0  0  0  0  0  0  0
  151.1301  141.1020  154.2339 H   0  0  0  0  0  0  0  0  0  0  0  0
  148.7565  139.9774  155.8025 H   0  0  0  0  0  0  0  0  0  0  0  0
  148.9017  140.1709  153.0189 H   0  0  0  0  0  0  0  0  0  0  0  0
  149.8759  138.5161  153.4597 H   0  0  0  0  0  0  0  0  0  0  0  0
  150.9905  138.5852  154.7980 H   0  0  0  0  0  0  0  0  0  0  0  0
  147.6726  137.2819  153.7620 H   0  0  0  0  0  0  0  0  0  0  0  0
  147.2860  138.4534  155.0275 H   0  0  0  0  0  0  0  0  0  0  0  0
  147.2302  136.7366  155.3831 H   0  0  0  0  0  0  0  0  0  0  0  0
  150.2242  136.0979  154.0710 H   0  0  0  0  0  0  0  0  0  0  0  0
  150.7627  136.1994  155.7236 H   0  0  0  0  0  0  0  0  0  0  0  0
  147.9235  135.4054  155.5512 H   0  0  0  0  0  0  0  0  0  0  0  0
  148.3529  133.0976  154.7932 H   0  0  0  0  0  0  0  0  0  0  0  0
  150.0293  133.4989  154.4321 H   0  0  0  0  0  0  0  0  0  0  0  0
  148.7242  134.2385  153.5058 H   0  0  0  0  0  0  0  0  0  0  0  0
  150.4982  143.4637  157.0578 H   0  0  0  0  0  0  0  0  0  0  0  0
  150.5195  145.3098  158.5243 H   0  0  0  0  0  0  0  0  0  0  0  0
  152.0242  145.5342  159.4132 H   0  0  0  0  0  0  0  0  0  0  0  0
  150.6017  144.8673  160.2285 H   0  0  0  0  0  0  0  0  0  0  0  0
  149.2111  137.7901  156.2056 H   0  0  0  0  0  0  0  0  0  0  0  0
  1  2  1  0  0  0  0
  1 23  1  0  0  0  0
  1 24  1  0  0  0  0
  1 25  1  0  0  0  0
  2 21  1  0  0  0  0
  2  3  2  0  0  0  0
  3  4  1  0  0  0  0
  3 26  1  0  0  0  0
  4 19  2  0  0  0  0
  4  5  1  0  0  0  0
  5  6  2  0  0  0  0
  6  7  1  0  0  0  0
  6 27  1  0  0  0  0
  7  8  1  0  0  0  0
  7 19  1  0  0  0  0
  8  9  1  0  0  0  0
  8 28  1  0  0  0  0
  8 29  1  0  0  0  0
  9 10  1  0  0  0  0
  9 11  1  0  0  0  0
  9 30  1  0  0  0  0
 10 31  1  0  0  0  0
 11 12  1  0  0  0  0
 11 32  1  0  0  0  0
 11 33  1  0  0  0  0
 12 13  1  0  0  0  0
 12 14  1  0  0  0  0
 12 47  1  0  0  0  0
 13 34  1  0  0  0  0
 13 35  1  0  0  0  0
 13 36  1  0  0  0  0
 14 15  1  0  0  0  0
 14 37  1  0  0  0  0
 14 38  1  0  0  0  0
 15 16  1  0  0  0  0
 15 17  1  0  0  0  0
 15 39  1  0  0  0  0
 16 40  1  0  0  0  0
 16 41  1  0  0  0  0
 16 42  1  0  0  0  0
 17 18  3  0  0  0  0
 19 20  1  0  0  0  0
 20 21  2  0  0  0  0
 20 43  1  0  0  0  0
 21 22  1  0  0  0  0
 22 44  1  0  0  0  0
 22 45  1  0  0  0  0
 22 46  1  0  0  0  0
M  CHG  1  12   1
M  END
> <s_m_source_file>
AV-unprocessed.smi

> <i_m_source_file_index>
1535

> <i_lp_mmshare_version>
43012

> <i_f3d_flags>
0

> <s_epik_input>
W0NIM11jKFtjSF0xKWMoW0NIM10pW2NIXWMoYzEyKW4oW2NIXW4yKVtDSDJdW0NASF0oW09IXSlbQ0gyXU4oW0NIM10pW0NIMl1bQ0BIXShbQ0gzXSlDI04=

> <s_epik_cmdline>
J2VwaWtfcHl0aG9uJywgJy1waCcsICc3LjAnLCAnLXRuJywgJzgnLCAnLW1hJywgJzIwMCcsICctbWV0YWxfYmluZGluZycsICctaW1hZScsICc8aW5maWxlLm1hZT4nLCAnLW9tYWUnLCAnPG91dGZpbGUubWFlPic=

> <r_epik_Ionization_Penalty>
2.21058

> <r_epik_Ionization_Penalty_Charging>
2.12381

> <r_epik_Ionization_Penalty_Neutral>
0.0867699

> <r_epik_State_Penalty>
2.36208

> <r_epik_Charging_Adjusted_Penalty>
4.48589

> <i_epik_Tot_Q>
1

> <i_epik_Tot_abs_Q>
1

> <r_epik_Metal_State_Penalty>
2.2818

> <b_epik_Metal_Only>
0

> <s_lp_Force_Field>
OPLS_2005

> <r_lp_Energy>
14.5736

> <b_lp_Chiralities_Consistent>
1

> <s_lp_Variant>
AV-unprocessed.smi:1535-16

> <Gold.Version>
5.8.1

> <Gold.Id.Protein>
6NUR|6NUR_protein|mol2

> <Gold.PLP.Fitness>
48.0090

> <Gold.PLP.PLP>
-41.3543

> <Gold.PLP.part.hbond>
-3.0000

> <Gold.PLP.part.metal>
0.0000

> <Gold.PLP.part.buried>
-2.7282

> <Gold.PLP.part.nonpolar>
-34.8982

> <Gold.PLP.part.repulsive>
0.0000

> <Gold.PLP.ligand.clash>
0.0000

> <Gold.PLP.ligand.torsion>
1.3944

> <Gold.PLP.Chemscore.Hbond>
2.9920

> <Gold.PLP.Chemscore.CHOScore>
0.0000

> <Gold.PLP.Chemscore.Metal>
0.0000

> <Gold.Chemscore.Hbonds>
donor molecule, donor type, donor heavy atom, donor atom, acceptor molecule, acceptor atom, score
      L1  H    10    31       P1  7957  1.00
      P1  H  6896  6909       L1    18  1.00
      P1  H  7997  8008       L1     5  0.76

> <Gold.PLP.Chemscore.Internal.Correction>
0.4675

> <Gold.Rescore>
     Score         DG    S(hbond)    S(metal)    S(lipo)     H(rot)  DE(clash)    DE(int)     intcor
     16.00     -19.41       1.94        0.00     120.66       2.60       1.88       1.52       ----

> <Gold.Chemscore.Fitness>
16.0036

> <Gold.Chemscore.DG>
-19.4065

> <Gold.Chemscore.ZeroCoef>
-5.4800

> <Gold.Chemscore.Hbond>
1.9382

> <Gold.Chemscore.Metal>
0.0000

> <Gold.Chemscore.Lipo>
120.6566

> <Gold.Chemscore.Internal_Hbond>
0.0000

> <Gold.Chemscore.DEClash>
1.8798

> <Gold.Chemscore.DEInternal>
1.5230

> <Gold.Chemscore.Rot>
2.6031

> <Gold.Chemscore.Internal.Correction>
   9.000000E+99

> <Gold.Chemscore.Hbonds>
donor molecule, donor type, donor heavy atom, donor atom, acceptor molecule, acceptor atom, score
      L1  H    10    31       P1  7957  0.97
      P1  H  6896  6909       L1    18  0.99
      P1  H  7997  8008       L1     5  0.02

> <Gold.Chemscore.Hbond.Weighted>
-6.4737

> <Gold.Chemscore.Metal.Weighted>
-0.0000

> <Gold.Chemscore.Lipo.Weighted>
-14.1168

> <Gold.Chemscore.Internal_Hbond.Weighted>
0.0000

> <Gold.Chemscore.DEClash.Weighted>
1.8798

> <Gold.Chemscore.DEInternal.Weighted>
1.5230

> <Gold.Chemscore.Rot.Weighted>
6.6640

> <Gold.Chemscore.Internal.Correction.Weighted>
   9.000000E+99

> <Gold.Protein.RotatedTorsions>
[ 6907 6896 6895 6894 ] final    8.02 input  -60.11 | X-H torsion
[ 7974 7965 7964 7962 ] final -159.63 input  175.53 | X-H torsion
[ 8008 7997 7996 7995 ] final  -78.16 input   59.86 | X-H torsion
[ 10167 10162 10161 10158 ] final  -81.06 input  -65.29 | X-H torsion
[ 10718 10713 10712 10709 ] final  -98.30 input   66.30 | X-H torsion
[ 10763 10752 10751 10750 ] final  134.59 input  -60.55 | X-H torsion
[ 11005 11000 10999 10996 ] final  127.16 input  -57.11 | X-H torsion

> <Gold.Protein.ActiveResidues>
 VAL166  LYS551  ARG553  GLY616  TRP617  ASP618  TYR619  PRO620  LYS621  CYS622 
 ASP623  PHE694  ASN695  SER759  ASP760  ASP761  ALA762  ILE779  LEU786  VAL792 
 PHE793  MET794  SER795  GLU796  ALA797  LYS798  CYS799  TRP800  GLU811  SER814 

> <Gold.Protein.RotatedAtoms>
  151.6993  135.0933  160.0247 H   0  0  0  0  0  0  0  0  0  0  0  0  # atno 6907 bound_to 6896
  152.3730  133.6440  159.6110 H   0  0  0  0  0  0  0  0  0  0  0  0  # atno 6908 bound_to 6896
  150.7688  133.9155  159.3423 H   0  0  0  0  0  0  0  0  0  0  0  0  # atno 6909 bound_to 6896
  144.7458  140.3657  143.6086 H   0  0  0  0  0  0  0  0  0  0  0  0  # atno 7974 bound_to 7965
  154.5663  140.0699  156.8897 H   0  0  0  0  0  0  0  0  0  0  0  0  # atno 8008 bound_to 7997
  155.2716  140.3365  155.4246 H   0  0  0  0  0  0  0  0  0  0  0  0  # atno 8009 bound_to 7997
  156.2083  140.1749  156.7736 H   0  0  0  0  0  0  0  0  0  0  0  0  # atno 8010 bound_to 7997
  140.4446  143.2503  151.8576 H   0  0  0  0  0  0  0  0  0  0  0  0  # atno 10167 bound_to 10162
  156.0104  130.5232  150.6503 H   0  0  0  0  0  0  0  0  0  0  0  0  # atno 10718 bound_to 10713
  153.8260  135.3110  155.3414 H   0  0  0  0  0  0  0  0  0  0  0  0  # atno 10763 bound_to 10752
  154.7993  135.4736  154.0239 H   0  0  0  0  0  0  0  0  0  0  0  0  # atno 10764 bound_to 10752
  153.1664  135.6870  153.8760 H   0  0  0  0  0  0  0  0  0  0  0  0  # atno 10765 bound_to 10752
  139.9493  134.9624  156.8814 H   0  0  0  0  0  0  0  0  0  0  0  0  # atno 11005 bound_to 11000
  145.7130  139.1689  143.2528 LP  0  0  0  0  0  0  0  0  0  0  0  0  # atno 17320 bound_to 7965
  146.1333  140.7156  142.9402 LP  0  0  0  0  0  0  0  0  0  0  0  0  # atno 17321 bound_to 7965
  139.4792  144.5190  151.8828 LP  0  0  0  0  0  0  0  0  0  0  0  0  # atno 17342 bound_to 10162
  140.4278  144.2156  150.5887 LP  0  0  0  0  0  0  0  0  0  0  0  0  # atno 17343 bound_to 10162
  157.4266  131.0844  151.1080 LP  0  0  0  0  0  0  0  0  0  0  0  0  # atno 17370 bound_to 10713
  157.1665  130.6249  149.5627 LP  0  0  0  0  0  0  0  0  0  0  0  0  # atno 17371 bound_to 10713
  140.5758  134.0400  155.7446 LP  0  0  0  0  0  0  0  0  0  0  0  0  # atno 17394 bound_to 11000
  141.1152  133.9552  157.2836 LP  0  0  0  0  0  0  0  0  0  0  0  0  # atno 17395 bound_to 11000

$$$$
