AV-unprocessed.smi:113|AV-procd|sdf|1093|dock9
  -GOLD-   2262018193D 1   1.00000     0.00000
 Structure written by MMmdl.
 52 55  0  0  0  0  0  0  0  0  1 V2000
  150.2024  137.5382  158.5561 C   0  0  0  0  0  0  0  0  0  0  0  0
  149.2129  136.5905  159.2015 C   0  0  0  0  0  0  0  0  0  0  0  0
  148.6117  135.5636  158.4527 C   0  0  0  0  0  0  0  0  0  0  0  0
  147.6959  134.6953  159.0895 C   0  0  0  0  0  0  0  0  0  0  0  0
  147.0109  133.5616  158.3176 C   0  0  0  0  0  0  0  0  0  0  0  0
  147.5051  133.2871  156.9753 N   0  0  0  0  0  0  0  0  0  0  0  0
  148.8728  132.9493  156.8314 C   0  0  0  0  0  0  0  0  0  0  0  0
  149.6321  132.9020  157.8018 O   0  0  0  0  0  0  0  0  0  0  0  0
  149.2973  132.6458  155.4630 C   0  0  0  0  0  0  0  0  0  0  0  0
  150.7519  132.2683  155.2307 C   0  0  0  0  0  0  0  0  0  0  0  0
  148.3975  132.7005  154.4517 C   0  0  0  0  0  0  0  0  0  0  0  0
  147.0661  133.0411  154.6165 N   0  0  0  0  0  0  0  0  0  0  0  0
  146.1406  133.0123  153.4169 C   0  0  2  0  0  0  0  0  0  0  0  0
  146.6174  132.0868  152.2921 C   0  0  0  0  0  0  0  0  0  0  0  0
  146.1406  132.8476  151.0723 C   0  0  2  0  0  0  0  0  0  0  0  0
  146.9100  132.5140  149.9353 O   0  0  0  0  0  0  0  0  0  0  0  0
  146.3273  134.3081  151.4963 C   0  0  1  0  0  0  0  0  0  0  0  0
  145.3864  135.2794  150.7670 C   0  0  0  0  0  0  0  0  0  0  0  0
  145.8694  136.6010  150.8807 O   0  0  0  0  0  0  0  0  0  0  0  0
  146.0303  134.3036  152.8937 O   0  0  0  0  0  0  0  0  0  0  0  0
  146.5747  133.3191  155.9120 C   0  0  0  0  0  0  0  0  0  0  0  0
  145.3822  133.5615  156.1069 O   0  0  0  0  0  0  0  0  0  0  0  0
  147.4300  134.9058  160.4696 C   0  0  0  0  0  0  0  0  0  0  0  0
  146.5294  134.0789  161.1838 C   0  0  0  0  0  0  0  0  0  0  0  0
  146.2766  134.3065  162.5481 C   0  0  0  0  0  0  0  0  0  0  0  0
  146.9220  135.3618  163.2135 C   0  0  0  0  0  0  0  0  0  0  0  0
  147.8202  136.1859  162.5122 C   0  0  0  0  0  0  0  0  0  0  0  0
  148.0895  135.9762  161.1427 C   0  0  0  0  0  0  0  0  0  0  0  0
  148.9610  136.7918  160.5095 N   0  0  0  0  0  0  0  0  0  0  0  0
  149.9831  137.6627  157.4952 H   0  0  0  0  0  0  0  0  0  0  0  0
  151.2152  137.1466  158.6533 H   0  0  0  0  0  0  0  0  0  0  0  0
  150.1676  138.5225  159.0247 H   0  0  0  0  0  0  0  0  0  0  0  0
  148.8606  135.4567  157.4078 H   0  0  0  0  0  0  0  0  0  0  0  0
  147.0715  132.6309  158.8838 H   0  0  0  0  0  0  0  0  0  0  0  0
  145.9408  133.7559  158.2348 H   0  0  0  0  0  0  0  0  0  0  0  0
  150.9561  132.0654  154.1790 H   0  0  0  0  0  0  0  0  0  0  0  0
  151.0089  131.3730  155.7983 H   0  0  0  0  0  0  0  0  0  0  0  0
  151.4114  133.0769  155.5481 H   0  0  0  0  0  0  0  0  0  0  0  0
  148.7459  132.4650  153.4563 H   0  0  0  0  0  0  0  0  0  0  0  0
  145.1590  132.7194  153.7907 H   0  0  0  0  0  0  0  0  0  0  0  0
  147.7022  131.9854  152.2953 H   0  0  0  0  0  0  0  0  0  0  0  0
  146.1758  131.0946  152.3881 H   0  0  0  0  0  0  0  0  0  0  0  0
  145.0867  132.6317  150.8897 H   0  0  0  0  0  0  0  0  0  0  0  0
  147.6753  132.0378  150.2200 H   0  0  0  0  0  0  0  0  0  0  0  0
  147.3703  134.5964  151.3551 H   0  0  0  0  0  0  0  0  0  0  0  0
  145.3484  135.0373  149.7045 H   0  0  0  0  0  0  0  0  0  0  0  0
  144.3685  135.2110  151.1515 H   0  0  0  0  0  0  0  0  0  0  0  0
  145.2608  137.1815  150.4499 H   0  0  0  0  0  0  0  0  0  0  0  0
  146.0186  133.2588  160.7033 H   0  0  0  0  0  0  0  0  0  0  0  0
  145.5873  133.6704  163.0837 H   0  0  0  0  0  0  0  0  0  0  0  0
  146.7295  135.5394  164.2613 H   0  0  0  0  0  0  0  0  0  0  0  0
  148.3112  136.9935  163.0352 H   0  0  0  0  0  0  0  0  0  0  0  0
  1  2  1  0  0  0  0
  1 30  1  0  0  0  0
  1 31  1  0  0  0  0
  1 32  1  0  0  0  0
  2 29  1  0  0  0  0
  2  3  2  0  0  0  0
  3  4  1  0  0  0  0
  3 33  1  0  0  0  0
  4  5  1  0  0  0  0
  4 23  2  0  0  0  0
  5  6  1  0  0  0  0
  5 34  1  0  0  0  0
  5 35  1  0  0  0  0
  6 21  1  0  0  0  0
  6  7  1  0  0  0  0
  7  8  2  0  0  0  0
  7  9  1  0  0  0  0
  9 10  1  0  0  0  0
  9 11  2  0  0  0  0
 10 36  1  0  0  0  0
 10 37  1  0  0  0  0
 10 38  1  0  0  0  0
 11 12  1  0  0  0  0
 11 39  1  0  0  0  0
 12 13  1  0  0  0  0
 12 21  1  0  0  0  0
 13 20  1  0  0  0  0
 13 14  1  0  0  0  0
 13 40  1  0  0  0  0
 14 15  1  0  0  0  0
 14 41  1  0  0  0  0
 14 42  1  0  0  0  0
 15 16  1  0  0  0  0
 15 17  1  0  0  0  0
 15 43  1  0  0  0  0
 16 44  1  0  0  0  0
 17 18  1  0  0  0  0
 17 20  1  0  0  0  0
 17 45  1  0  0  0  0
 18 19  1  0  0  0  0
 18 46  1  0  0  0  0
 18 47  1  0  0  0  0
 19 48  1  0  0  0  0
 21 22  2  0  0  0  0
 23 28  1  0  0  0  0
 23 24  1  0  0  0  0
 24 25  2  0  0  0  0
 24 49  1  0  0  0  0
 25 26  1  0  0  0  0
 25 50  1  0  0  0  0
 26 27  2  0  0  0  0
 26 51  1  0  0  0  0
 27 28  1  0  0  0  0
 27 52  1  0  0  0  0
 28 29  2  0  0  0  0
M  END
> <s_m_source_file>
AV-unprocessed.smi

> <i_m_source_file_index>
113

> <i_lp_mmshare_version>
43012

> <i_f3d_flags>
0

> <s_epik_input>
W2NIXTFbY0hdW2NIXVtjSF1jKGMxMiluYyhbQ0gzXSlbY0hdYzJbQ0gyXW4zYyg9TyljKFtDSDNdKVtjSF1uKGMzPU8pW0NAQEhdNFtDSDJdW0NAQEhdKFtPSF0pW0NASF0oTzQpW0NIMl1bT0hd

> <s_epik_cmdline>
J2VwaWtfcHl0aG9uJywgJy1waCcsICc3LjAnLCAnLXRuJywgJzgnLCAnLW1hJywgJzIwMCcsICctbWV0YWxfYmluZGluZycsICctaW1hZScsICc8aW5maWxlLm1hZT4nLCAnLW9tYWUnLCAnPG91dGZpbGUubWFlPic=

> <r_lp_tautomer_probability>
1

> <r_epik_Ionization_Penalty>
0.214728

> <r_epik_Ionization_Penalty_Charging>
3.04883e-08

> <r_epik_Ionization_Penalty_Neutral>
0.214728

> <r_epik_State_Penalty>
0.204913

> <r_epik_Charging_Adjusted_Penalty>
0.204913

> <i_epik_Tot_Q>
0

> <i_epik_Tot_abs_Q>
0

> <r_epik_Metal_State_Penalty>
0.000244761

> <b_epik_Metal_Only>
0

> <s_epik_Chemistry_Notes>
This compound contains an acetal/aminal-like group ( X-CH(R)-Y where X, Y are N, S, or O) that may be acid/base labile, releasing an aldehyde.

> <s_lp_Force_Field>
OPLS_2005

> <r_lp_Energy>
34.9534

> <b_lp_Chiralities_Consistent>
1

> <s_lp_Variant>
AV-unprocessed.smi:113-3

> <Gold.Version>
5.8.1

> <Gold.Id.Protein>
6NUR|6NUR_protein|mol2

> <Gold.PLP.Fitness>
51.4163

> <Gold.PLP.PLP>
-42.0130

> <Gold.PLP.part.hbond>
-4.6374

> <Gold.PLP.part.metal>
0.0000

> <Gold.PLP.part.buried>
-7.0233

> <Gold.PLP.part.nonpolar>
-31.5082

> <Gold.PLP.part.repulsive>
0.1850

> <Gold.PLP.ligand.clash>
0.0000

> <Gold.PLP.ligand.torsion>
0.9895

> <Gold.PLP.Chemscore.Hbond>
3.7840

> <Gold.PLP.Chemscore.CHOScore>
0.0000

> <Gold.PLP.Chemscore.Metal>
0.0000

> <Gold.Chemscore.Hbonds>
donor molecule, donor type, donor heavy atom, donor atom, acceptor molecule, acceptor atom, score
      L1  H    16    44       P1 10747  1.00
      L1  H    19    48       P1 10171  0.89
      P1  H  6896  6909       L1     8  0.96
      P1  H  6931  6943       L1    29  0.74

> <Gold.PLP.Chemscore.Internal.Correction>
0.0302

> <Gold.Rescore>
     Score         DG    S(hbond)    S(metal)    S(lipo)     H(rot)  DE(clash)    DE(int)     intcor
     18.75     -22.45       3.69        0.00     104.24       2.95       0.26       3.43       ----

> <Gold.Chemscore.Fitness>
18.7512

> <Gold.Chemscore.DG>
-22.4479

> <Gold.Chemscore.ZeroCoef>
-5.4800

> <Gold.Chemscore.Hbond>
3.6872

> <Gold.Chemscore.Metal>
0.0000

> <Gold.Chemscore.Lipo>
104.2431

> <Gold.Chemscore.Internal_Hbond>
0.0000

> <Gold.Chemscore.DEClash>
0.2636

> <Gold.Chemscore.DEInternal>
3.4331

> <Gold.Chemscore.Rot>
2.9469

> <Gold.Chemscore.Internal.Correction>
   9.000000E+99

> <Gold.Chemscore.Hbonds>
donor molecule, donor type, donor heavy atom, donor atom, acceptor molecule, acceptor atom, score
      L1  H    16    44       P1 10747  1.00
      L1  H    19    48       P1 10171  0.87
      P1  H  6896  6909       L1     8  0.91
      P1  H  6931  6943       L1    29  0.16

> <Gold.Chemscore.Hbond.Weighted>
-12.3154

> <Gold.Chemscore.Metal.Weighted>
-0.0000

> <Gold.Chemscore.Lipo.Weighted>
-12.1964

> <Gold.Chemscore.Internal_Hbond.Weighted>
0.0000

> <Gold.Chemscore.DEClash.Weighted>
0.2636

> <Gold.Chemscore.DEInternal.Weighted>
3.4331

> <Gold.Chemscore.Rot.Weighted>
7.5439

> <Gold.Chemscore.Internal.Correction.Weighted>
   9.000000E+99

> <Gold.Protein.RotatedTorsions>
[ 6907 6896 6895 6894 ] final  -10.72 input  -60.11 | X-H torsion
[ 7974 7965 7964 7962 ] final -134.98 input  175.53 | X-H torsion
[ 8008 7997 7996 7995 ] final   -6.92 input   59.86 | X-H torsion
[ 10167 10162 10161 10158 ] final  -72.32 input  -65.29 | X-H torsion
[ 10718 10713 10712 10709 ] final  -64.38 input   66.30 | X-H torsion
[ 10763 10752 10751 10750 ] final  170.80 input  -60.55 | X-H torsion
[ 11005 11000 10999 10996 ] final   74.76 input  -57.11 | X-H torsion

> <Gold.Protein.ActiveResidues>
 VAL166  LYS551  ARG553  GLY616  TRP617  ASP618  TYR619  PRO620  LYS621  CYS622 
 ASP623  PHE694  ASN695  SER759  ASP760  ASP761  ALA762  ILE779  LEU786  VAL792 
 PHE793  MET794  SER795  GLU796  ALA797  LYS798  CYS799  TRP800  GLU811  SER814 

> <Gold.Protein.RotatedAtoms>
  151.3976  135.0966  159.9545 H   0  0  0  0  0  0  0  0  0  0  0  0  # atno 6907 bound_to 6896
  152.5060  133.8920  159.7409 H   0  0  0  0  0  0  0  0  0  0  0  0  # atno 6908 bound_to 6896
  150.9386  133.6626  159.2824 H   0  0  0  0  0  0  0  0  0  0  0  0  # atno 6909 bound_to 6896
  144.9054  140.6826  143.5058 H   0  0  0  0  0  0  0  0  0  0  0  0  # atno 7974 bound_to 7965
  154.5889  140.2420  155.7948 H   0  0  0  0  0  0  0  0  0  0  0  0  # atno 8008 bound_to 7997
  156.2233  140.2990  155.9960 H   0  0  0  0  0  0  0  0  0  0  0  0  # atno 8009 bound_to 7997
  155.2408  140.0407  157.2965 H   0  0  0  0  0  0  0  0  0  0  0  0  # atno 8010 bound_to 7997
  140.5202  143.2333  151.7443 H   0  0  0  0  0  0  0  0  0  0  0  0  # atno 10167 bound_to 10162
  156.0733  130.4233  150.1412 H   0  0  0  0  0  0  0  0  0  0  0  0  # atno 10718 bound_to 10713
  154.4028  135.2755  155.2086 H   0  0  0  0  0  0  0  0  0  0  0  0  # atno 10763 bound_to 10752
  154.4104  135.6024  153.5953 H   0  0  0  0  0  0  0  0  0  0  0  0  # atno 10764 bound_to 10752
  152.9831  135.5948  154.4299 H   0  0  0  0  0  0  0  0  0  0  0  0  # atno 10765 bound_to 10752
  139.9375  134.7461  156.1188 H   0  0  0  0  0  0  0  0  0  0  0  0  # atno 11005 bound_to 11000
  145.3544  139.1698  143.4417 LP  0  0  0  0  0  0  0  0  0  0  0  0  # atno 17320 bound_to 7965
  146.3131  140.3600  142.8664 LP  0  0  0  0  0  0  0  0  0  0  0  0  # atno 17321 bound_to 7965
  139.4921  144.4266  151.9919 LP  0  0  0  0  0  0  0  0  0  0  0  0  # atno 17342 bound_to 10162
  140.3362  144.3258  150.5976 LP  0  0  0  0  0  0  0  0  0  0  0  0  # atno 17343 bound_to 10162
  156.9458  130.9759  151.3507 LP  0  0  0  0  0  0  0  0  0  0  0  0  # atno 17370 bound_to 10713
  157.5815  130.8380  149.8529 LP  0  0  0  0  0  0  0  0  0  0  0  0  # atno 17371 bound_to 10713
  141.0996  133.6682  156.2723 LP  0  0  0  0  0  0  0  0  0  0  0  0  # atno 17394 bound_to 11000
  140.6037  134.5529  157.5522 LP  0  0  0  0  0  0  0  0  0  0  0  0  # atno 17395 bound_to 11000

$$$$
