AV-unprocessed.smi:2646|AV-procd|sdf|10281|dock10
  -GOLD-   2272014293D 1   1.00000     0.00000
 Structure written by MMmdl.
 43 44  0  0  0  0  0  0  0  0  1 V2000
  147.4724  141.5429  153.3202 C   0  0  0  0  0  0  0  0  0  0  0  0
  147.8808  140.9617  154.6982 C   0  0  1  0  0  0  0  0  0  0  0  0
  148.6876  139.6507  154.4620 C   0  0  0  0  0  0  0  0  0  0  0  0
  149.8690  139.8718  153.7180 O   0  0  0  0  0  0  0  0  0  0  0  0
  148.7255  141.9284  155.4170 N   0  0  0  0  0  0  0  0  0  0  0  0
  149.5043  141.7340  156.4940 C   0  0  0  0  0  0  0  0  0  0  0  0
  149.6284  140.6545  157.0707 O   0  0  0  0  0  0  0  0  0  0  0  0
  150.1043  142.8791  156.8609 N   0  0  0  0  0  0  0  0  0  0  0  0
  151.0085  143.0970  157.9348 C   0  0  0  0  0  0  0  0  0  0  0  0
  151.5365  144.3936  158.1024 C   0  0  0  0  0  0  0  0  0  0  0  0
  152.4489  144.6330  159.1474 C   0  0  0  0  0  0  0  0  0  0  0  0
  152.8069  143.5577  159.9832 C   0  0  0  0  0  0  0  0  0  0  0  0
  152.3240  142.3072  159.8274 N   0  0  0  0  0  0  0  0  0  0  0  0
  151.4479  142.0846  158.8240 C   0  0  0  0  0  0  0  0  0  0  0  0
  146.6071  140.7078  155.5806 C   0  0  0  0  0  0  0  0  0  0  0  0
  145.7500  141.9820  155.8146 C   0  0  0  0  0  0  0  0  0  0  0  0
  144.4837  141.6908  156.6359 C   0  0  0  0  0  0  0  0  0  0  0  0
  144.8284  141.0430  157.9825 C   0  0  0  0  0  0  0  0  0  0  0  0
  145.6567  139.7697  157.7724 C   0  0  0  0  0  0  0  0  0  0  0  0
  146.9254  140.0552  156.9534 C   0  0  0  0  0  0  0  0  0  0  0  0
  146.6882  140.9441  152.8557 H   0  0  0  0  0  0  0  0  0  0  0  0
  148.3094  141.5625  152.6224 H   0  0  0  0  0  0  0  0  0  0  0  0
  147.1056  142.5660  153.3968 H   0  0  0  0  0  0  0  0  0  0  0  0
  148.9799  139.1928  155.4069 H   0  0  0  0  0  0  0  0  0  0  0  0
  148.0867  138.9038  153.9431 H   0  0  0  0  0  0  0  0  0  0  0  0
  149.6837  139.7052  152.8064 H   0  0  0  0  0  0  0  0  0  0  0  0
  148.7095  142.8653  155.0416 H   0  0  0  0  0  0  0  0  0  0  0  0
  149.8386  143.7048  156.3444 H   0  0  0  0  0  0  0  0  0  0  0  0
  151.2446  145.1979  157.4430 H   0  0  0  0  0  0  0  0  0  0  0  0
  152.8645  145.6172  159.3049 H   0  0  0  0  0  0  0  0  0  0  0  0
  153.5040  143.7051  160.7949 H   0  0  0  0  0  0  0  0  0  0  0  0
  151.1190  141.0613  158.7331 H   0  0  0  0  0  0  0  0  0  0  0  0
  145.9694  140.0073  155.0390 H   0  0  0  0  0  0  0  0  0  0  0  0
  146.3360  142.7460  156.3266 H   0  0  0  0  0  0  0  0  0  0  0  0
  145.4385  142.4182  154.8666 H   0  0  0  0  0  0  0  0  0  0  0  0
  143.9283  142.6145  156.8009 H   0  0  0  0  0  0  0  0  0  0  0  0
  143.8246  141.0311  156.0699 H   0  0  0  0  0  0  0  0  0  0  0  0
  145.3869  141.7485  158.5993 H   0  0  0  0  0  0  0  0  0  0  0  0
  143.9143  140.8075  158.5284 H   0  0  0  0  0  0  0  0  0  0  0  0
  145.9276  139.3404  158.7374 H   0  0  0  0  0  0  0  0  0  0  0  0
  145.0526  139.0201  157.2595 H   0  0  0  0  0  0  0  0  0  0  0  0
  147.4531  139.1121  156.8201 H   0  0  0  0  0  0  0  0  0  0  0  0
  147.5878  140.6985  157.5336 H   0  0  0  0  0  0  0  0  0  0  0  0
  1  2  1  0  0  0  0
  1 21  1  0  0  0  0
  1 22  1  0  0  0  0
  1 23  1  0  0  0  0
  2  3  1  0  0  0  0
  2  5  1  0  0  0  0
  2 15  1  0  0  0  0
  3  4  1  0  0  0  0
  3 24  1  0  0  0  0
  3 25  1  0  0  0  0
  4 26  1  0  0  0  0
  5  6  1  0  0  0  0
  5 27  1  0  0  0  0
  6  7  2  0  0  0  0
  6  8  1  0  0  0  0
  8  9  1  0  0  0  0
  8 28  1  0  0  0  0
  9 14  1  0  0  0  0
  9 10  2  0  0  0  0
 10 11  1  0  0  0  0
 10 29  1  0  0  0  0
 11 12  2  0  0  0  0
 11 30  1  0  0  0  0
 12 13  1  0  0  0  0
 12 31  1  0  0  0  0
 13 14  2  0  0  0  0
 14 32  1  0  0  0  0
 15 20  1  0  0  0  0
 15 16  1  0  0  0  0
 15 33  1  0  0  0  0
 16 17  1  0  0  0  0
 16 34  1  0  0  0  0
 16 35  1  0  0  0  0
 17 18  1  0  0  0  0
 17 36  1  0  0  0  0
 17 37  1  0  0  0  0
 18 19  1  0  0  0  0
 18 38  1  0  0  0  0
 18 39  1  0  0  0  0
 19 20  1  0  0  0  0
 19 40  1  0  0  0  0
 19 41  1  0  0  0  0
 20 42  1  0  0  0  0
 20 43  1  0  0  0  0
M  END
> <s_m_source_file>
AV-unprocessed.smi

> <i_m_source_file_index>
2646

> <i_lp_mmshare_version>
43012

> <i_f3d_flags>
0

> <s_epik_input>
W0NIMl0xW0NIMl1bQ0gyXVtDSDJdW0NIMl1bQ0hdMVtDQF0oW0NIM10pKFtDSDJdW09IXSlbTkhdQyg9TylbTkhdYzJbY0hdW2NIXVtjSF1uW2NIXTI=

> <s_epik_cmdline>
J2VwaWtfcHl0aG9uJywgJy1waCcsICc3LjAnLCAnLXRuJywgJzgnLCAnLW1hJywgJzIwMCcsICctbWV0YWxfYmluZGluZycsICctaW1hZScsICc8aW5maWxlLm1hZT4nLCAnLW9tYWUnLCAnPG91dGZpbGUubWFlPic=

> <r_epik_Ionization_Penalty>
0.00498697

> <r_epik_Ionization_Penalty_Charging>
0

> <r_epik_Ionization_Penalty_Neutral>
0.00498697

> <r_epik_State_Penalty>
0.00359645

> <r_epik_Charging_Adjusted_Penalty>
0.00359645

> <i_epik_Tot_Q>
0

> <i_epik_Tot_abs_Q>
0

> <r_epik_Metal_State_Penalty>
-0

> <b_epik_Metal_Only>
0

> <s_lp_Force_Field>
OPLS_2005

> <r_lp_Energy>
21.3241

> <b_lp_Chiralities_Consistent>
1

> <s_lp_Variant>
AV-unprocessed.smi:2646-1

> <Gold.Version>
5.8.1

> <Gold.Id.Protein>
6NUR|6NUR_protein|mol2

> <Gold.PLP.Fitness>
42.6855

> <Gold.PLP.PLP>
-32.4544

> <Gold.PLP.part.hbond>
-3.8793

> <Gold.PLP.part.metal>
0.0000

> <Gold.PLP.part.buried>
-6.3992

> <Gold.PLP.part.nonpolar>
-22.9482

> <Gold.PLP.part.repulsive>
0.1932

> <Gold.PLP.ligand.clash>
0.0000

> <Gold.PLP.ligand.torsion>
0.2833

> <Gold.PLP.Chemscore.Hbond>
3.5840

> <Gold.PLP.Chemscore.CHOScore>
0.0000

> <Gold.PLP.Chemscore.Metal>
0.0000

> <Gold.Chemscore.Hbonds>
donor molecule, donor type, donor heavy atom, donor atom, acceptor molecule, acceptor atom, score
      L1  H     4    26       P1  7957  1.00
      L1  H     5    27       P1  8028  0.82
      L1  H     8    28       P1  8028  1.00
      P1  H  7989  7998       L1     4  0.67

> <Gold.PLP.Chemscore.Internal.Correction>
0.0457

> <Gold.Rescore>
     Score         DG    S(hbond)    S(metal)    S(lipo)     H(rot)  DE(clash)    DE(int)     intcor
     15.24     -19.59       2.89        0.00      81.32       1.98       0.17       4.18       ----

> <Gold.Chemscore.Fitness>
15.2394

> <Gold.Chemscore.DG>
-19.5927

> <Gold.Chemscore.ZeroCoef>
-5.4800

> <Gold.Chemscore.Hbond>
2.8941

> <Gold.Chemscore.Metal>
0.0000

> <Gold.Chemscore.Lipo>
81.3219

> <Gold.Chemscore.Internal_Hbond>
0.0000

> <Gold.Chemscore.DEClash>
0.1743

> <Gold.Chemscore.DEInternal>
4.1789

> <Gold.Chemscore.Rot>
1.9798

> <Gold.Chemscore.Internal.Correction>
   9.000000E+99

> <Gold.Chemscore.Hbonds>
donor molecule, donor type, donor heavy atom, donor atom, acceptor molecule, acceptor atom, score
      L1  H     4    26       P1  7957  0.99
      L1  H     5    27       P1  8028  0.79
      L1  H     8    28       P1  8028  0.94
      P1  H  7989  7998       L1     4  0.11

> <Gold.Chemscore.Hbond.Weighted>
-9.6662

> <Gold.Chemscore.Metal.Weighted>
-0.0000

> <Gold.Chemscore.Lipo.Weighted>
-9.5147

> <Gold.Chemscore.Internal_Hbond.Weighted>
0.0000

> <Gold.Chemscore.DEClash.Weighted>
0.1743

> <Gold.Chemscore.DEInternal.Weighted>
4.1789

> <Gold.Chemscore.Rot.Weighted>
5.0682

> <Gold.Chemscore.Internal.Correction.Weighted>
   9.000000E+99

> <Gold.Protein.RotatedTorsions>
[ 6907 6896 6895 6894 ] final  162.89 input  -60.11 | X-H torsion
[ 7974 7965 7964 7962 ] final   26.43 input  175.53 | X-H torsion
[ 8008 7997 7996 7995 ] final   55.61 input   59.86 | X-H torsion
[ 10167 10162 10161 10158 ] final   45.88 input  -65.29 | X-H torsion
[ 10718 10713 10712 10709 ] final  -73.60 input   66.30 | X-H torsion
[ 10763 10752 10751 10750 ] final  143.01 input  -60.55 | X-H torsion
[ 11005 11000 10999 10996 ] final -101.79 input  -57.11 | X-H torsion

> <Gold.Protein.ActiveResidues>
 VAL166  LYS551  ARG553  GLY616  TRP617  ASP618  TYR619  PRO620  LYS621  CYS622 
 ASP623  PHE694  ASN695  SER759  ASP760  ASP761  ALA762  ILE779  LEU786  VAL792 
 PHE793  MET794  SER795  GLU796  ALA797  LYS798  CYS799  TRP800  GLU811  SER814 

> <Gold.Protein.RotatedAtoms>
  151.9335  133.3618  159.3939 H   0  0  0  0  0  0  0  0  0  0  0  0  # atno 6907 bound_to 6896
  150.7012  134.4513  159.5347 H   0  0  0  0  0  0  0  0  0  0  0  0  # atno 6908 bound_to 6896
  152.2157  134.8460  160.0543 H   0  0  0  0  0  0  0  0  0  0  0  0  # atno 6909 bound_to 6896
  146.1838  139.7330  142.8881 H   0  0  0  0  0  0  0  0  0  0  0  0  # atno 7974 bound_to 7965
  155.5040  140.3475  155.4376 H   0  0  0  0  0  0  0  0  0  0  0  0  # atno 8008 bound_to 7997
  156.0895  140.1407  156.9638 H   0  0  0  0  0  0  0  0  0  0  0  0  # atno 8009 bound_to 7997
  154.4626  140.0929  156.6911 H   0  0  0  0  0  0  0  0  0  0  0  0  # atno 8010 bound_to 7997
  140.3196  144.2722  150.6185 H   0  0  0  0  0  0  0  0  0  0  0  0  # atno 10167 bound_to 10162
  156.0274  130.4398  150.2766 H   0  0  0  0  0  0  0  0  0  0  0  0  # atno 10718 bound_to 10713
  153.9652  135.2956  155.3431 H   0  0  0  0  0  0  0  0  0  0  0  0  # atno 10763 bound_to 10752
  154.7353  135.5049  153.9034 H   0  0  0  0  0  0  0  0  0  0  0  0  # atno 10764 bound_to 10752
  153.0927  135.6712  153.9934 H   0  0  0  0  0  0  0  0  0  0  0  0  # atno 10765 bound_to 10752
  141.1216  133.8506  157.1277 H   0  0  0  0  0  0  0  0  0  0  0  0  # atno 11005 bound_to 11000
  145.3999  141.0384  143.3076 LP  0  0  0  0  0  0  0  0  0  0  0  0  # atno 17320 bound_to 7965
  144.8361  139.5548  143.6921 LP  0  0  0  0  0  0  0  0  0  0  0  0  # atno 17321 bound_to 7965
  140.5496  143.2209  151.7950 LP  0  0  0  0  0  0  0  0  0  0  0  0  # atno 17342 bound_to 10162
  139.4877  144.4494  151.9671 LP  0  0  0  0  0  0  0  0  0  0  0  0  # atno 17343 bound_to 10162
  157.0870  131.0159  151.3136 LP  0  0  0  0  0  0  0  0  0  0  0  0  # atno 17370 bound_to 10713
  157.4884  130.7807  149.7483 LP  0  0  0  0  0  0  0  0  0  0  0  0  # atno 17371 bound_to 10713
  140.0178  134.9959  157.0530 LP  0  0  0  0  0  0  0  0  0  0  0  0  # atno 17394 bound_to 11000
  140.4490  134.1602  155.7180 LP  0  0  0  0  0  0  0  0  0  0  0  0  # atno 17395 bound_to 11000

$$$$
