AV-unprocessed.smi:1014|AV-procd|sdf|4432|dock3
  -GOLD-   22720 2393D 1   1.00000     0.00000
 Structure written by MMmdl.
 33 33  0  0  0  0  0  0  0  0  1 V2000
  147.1143  141.6862  153.7959 C   0  0  0  0  0  0  0  0  0  0  0  0
  148.5848  141.4001  154.1315 C   0  0  0  0  0  0  0  0  0  0  0  0
  148.7696  140.2046  155.0899 C   0  0  2  0  0  0  0  0  0  0  0  0
  150.1390  140.2032  155.6385 N   0  0  0  0  0  0  0  0  0  0  0  0
  150.3054  140.9979  156.8499 C   0  0  0  0  0  0  0  0  0  0  0  0
  151.0097  142.3157  156.4978 C   0  0  0  0  0  0  0  0  0  0  0  0
  151.4660  143.0094  157.6864 N   0  0  0  0  0  0  0  0  0  0  0  0
  151.2318  144.3159  158.0585 C   0  0  0  0  0  0  0  0  0  0  0  0
  151.8665  144.5237  159.2503 C   0  0  0  0  0  0  0  0  0  0  0  0
  151.9235  145.7754  160.0779 C   0  0  0  0  0  0  0  0  0  0  0  0
  152.4707  143.2643  159.5270 C   0  0  0  0  0  0  0  0  0  0  0  0
  152.2308  142.3613  158.5902 N   0  0  0  0  0  0  0  0  0  0  0  0
  148.4095  138.8894  154.3768 C   0  0  0  0  0  0  0  0  0  0  0  0
  149.0124  138.6408  153.2116 N   0  0  0  0  0  0  0  0  0  0  0  0
  147.5839  138.1189  154.8639 O   0  0  0  0  0  0  0  0  0  0  0  0
  147.0313  142.5253  153.1053 H   0  0  0  0  0  0  0  0  0  0  0  0
  146.5434  141.9364  154.6903 H   0  0  0  0  0  0  0  0  0  0  0  0
  146.6417  140.8229  153.3269 H   0  0  0  0  0  0  0  0  0  0  0  0
  149.1100  141.2074  153.1944 H   0  0  0  0  0  0  0  0  0  0  0  0
  149.0437  142.2953  154.5540 H   0  0  0  0  0  0  0  0  0  0  0  0
  148.0738  140.3319  155.9215 H   0  0  0  0  0  0  0  0  0  0  0  0
  150.4755  139.2635  155.7935 H   0  0  0  0  0  0  0  0  0  0  0  0
  149.3300  141.2015  157.2944 H   0  0  0  0  0  0  0  0  0  0  0  0
  150.8979  140.4563  157.5880 H   0  0  0  0  0  0  0  0  0  0  0  0
  151.8727  142.1283  155.8572 H   0  0  0  0  0  0  0  0  0  0  0  0
  150.3400  142.9750  155.9428 H   0  0  0  0  0  0  0  0  0  0  0  0
  150.6401  144.9832  157.4495 H   0  0  0  0  0  0  0  0  0  0  0  0
  152.0403  145.5530  161.1389 H   0  0  0  0  0  0  0  0  0  0  0  0
  151.0165  146.3711  159.9737 H   0  0  0  0  0  0  0  0  0  0  0  0
  152.7609  146.4100  159.7879 H   0  0  0  0  0  0  0  0  0  0  0  0
  153.0745  142.9819  160.3770 H   0  0  0  0  0  0  0  0  0  0  0  0
  148.8061  137.7893  152.7095 H   0  0  0  0  0  0  0  0  0  0  0  0
  149.6731  139.3061  152.8372 H   0  0  0  0  0  0  0  0  0  0  0  0
  1  2  1  0  0  0  0
  1 16  1  0  0  0  0
  1 17  1  0  0  0  0
  1 18  1  0  0  0  0
  2  3  1  0  0  0  0
  2 19  1  0  0  0  0
  2 20  1  0  0  0  0
  3  4  1  0  0  0  0
  3 13  1  0  0  0  0
  3 21  1  0  0  0  0
  4  5  1  0  0  0  0
  4 22  1  0  0  0  0
  5  6  1  0  0  0  0
  5 23  1  0  0  0  0
  5 24  1  0  0  0  0
  6  7  1  0  0  0  0
  6 25  1  0  0  0  0
  6 26  1  0  0  0  0
  7 12  1  0  0  0  0
  7  8  1  0  0  0  0
  8  9  2  0  0  0  0
  8 27  1  0  0  0  0
  9 10  1  0  0  0  0
  9 11  1  0  0  0  0
 10 28  1  0  0  0  0
 10 29  1  0  0  0  0
 10 30  1  0  0  0  0
 11 12  2  0  0  0  0
 11 31  1  0  0  0  0
 13 14  1  0  0  0  0
 13 15  2  0  0  0  0
 14 32  1  0  0  0  0
 14 33  1  0  0  0  0
M  END
> <s_m_source_file>
AV-unprocessed.smi

> <i_m_source_file_index>
1014

> <i_lp_mmshare_version>
43012

> <i_f3d_flags>
0

> <s_epik_input>
W0NIM11bQ0gyXVtDQEBIXShDKD1PKVtOSDJdKVtOSF1bQ0gyXVtDSDJdbjFbY0hdYyhbQ0gzXSlbY0hdbjE=

> <s_epik_cmdline>
J2VwaWtfcHl0aG9uJywgJy1waCcsICc3LjAnLCAnLXRuJywgJzgnLCAnLW1hJywgJzIwMCcsICctbWV0YWxfYmluZGluZycsICctaW1hZScsICc8aW5maWxlLm1hZT4nLCAnLW9tYWUnLCAnPG91dGZpbGUubWFlPic=

> <r_lp_tautomer_probability>
1

> <r_epik_Ionization_Penalty>
0.767127

> <r_epik_Ionization_Penalty_Charging>
0

> <r_epik_Ionization_Penalty_Neutral>
0.767127

> <r_epik_State_Penalty>
0.793761

> <r_epik_Charging_Adjusted_Penalty>
0.793761

> <i_epik_Tot_Q>
0

> <i_epik_Tot_abs_Q>
0

> <r_epik_Metal_State_Penalty>
0.79201

> <b_epik_Metal_Only>
0

> <s_lp_Force_Field>
OPLS_2005

> <r_lp_Energy>
4.2036

> <b_lp_Chiralities_Consistent>
1

> <s_lp_Variant>
AV-unprocessed.smi:1014-3

> <Gold.Version>
5.8.1

> <Gold.Id.Protein>
6NUR|6NUR_protein|mol2

> <Gold.PLP.Fitness>
40.9284

> <Gold.PLP.PLP>
-35.3206

> <Gold.PLP.part.hbond>
-2.0000

> <Gold.PLP.part.metal>
0.0000

> <Gold.PLP.part.buried>
-4.8591

> <Gold.PLP.part.nonpolar>
-28.3700

> <Gold.PLP.part.repulsive>
0.1651

> <Gold.PLP.ligand.clash>
0.0000

> <Gold.PLP.ligand.torsion>
0.9861

> <Gold.PLP.Chemscore.Hbond>
1.5120

> <Gold.PLP.Chemscore.CHOScore>
0.9892

> <Gold.PLP.Chemscore.Metal>
0.0000

> <Gold.Chemscore.Hbonds>
donor molecule, donor type, donor heavy atom, donor atom, acceptor molecule, acceptor atom, score
      L1  H    14    32       P1  7948  1.00
      L1  H    14    33       P1  7957  0.51
      L1  C     8    27       P1  8028  1.00
      L1  C     8    27       P1  8029  0.01

> <Gold.PLP.Chemscore.Internal.Correction>
0.0765

> <Gold.Rescore>
     Score         DG    S(hbond)    S(metal)    S(lipo)     H(rot)  DE(clash)    DE(int)     intcor
     13.51     -14.50       1.67        0.00      84.28       2.51       0.10       0.90       ----

> <Gold.Chemscore.Fitness>
13.5106

> <Gold.Chemscore.DG>
-14.5029

> <Gold.Chemscore.ZeroCoef>
-5.4800

> <Gold.Chemscore.Hbond>
1.6727

> <Gold.Chemscore.Metal>
0.0000

> <Gold.Chemscore.Lipo>
84.2795

> <Gold.Chemscore.Internal_Hbond>
0.0000

> <Gold.Chemscore.DEClash>
0.0954

> <Gold.Chemscore.DEInternal>
0.8969

> <Gold.Chemscore.Rot>
2.5096

> <Gold.Chemscore.Internal.Correction>
   9.000000E+99

> <Gold.Chemscore.Hbonds>
donor molecule, donor type, donor heavy atom, donor atom, acceptor molecule, acceptor atom, score
      L1  H    14    32       P1  7948  1.00
      L1  H    14    33       P1  7957  0.50

> <Gold.Chemscore.Hbond.Weighted>
-5.5869

> <Gold.Chemscore.Metal.Weighted>
-0.0000

> <Gold.Chemscore.Lipo.Weighted>
-9.8607

> <Gold.Chemscore.Internal_Hbond.Weighted>
0.0000

> <Gold.Chemscore.DEClash.Weighted>
0.0954

> <Gold.Chemscore.DEInternal.Weighted>
0.8969

> <Gold.Chemscore.Rot.Weighted>
6.4246

> <Gold.Chemscore.Internal.Correction.Weighted>
   9.000000E+99

> <Gold.Protein.RotatedTorsions>
[ 6907 6896 6895 6894 ] final -164.73 input  -60.11 | X-H torsion
[ 7974 7965 7964 7962 ] final   96.40 input  175.53 | X-H torsion
[ 8008 7997 7996 7995 ] final   38.23 input   59.86 | X-H torsion
[ 10167 10162 10161 10158 ] final  153.96 input  -65.29 | X-H torsion
[ 10718 10713 10712 10709 ] final   -2.89 input   66.30 | X-H torsion
[ 10763 10752 10751 10750 ] final  -68.62 input  -60.55 | X-H torsion
[ 11005 11000 10999 10996 ] final  135.71 input  -57.11 | X-H torsion

> <Gold.Protein.ActiveResidues>
 VAL166  LYS551  ARG553  GLY616  TRP617  ASP618  TYR619  PRO620  LYS621  CYS622 
 ASP623  PHE694  ASN695  SER759  ASP760  ASP761  ALA762  ILE779  LEU786  VAL792 
 PHE793  MET794  SER795  GLU796  ALA797  LYS798  CYS799  TRP800  GLU811  SER814 

> <Gold.Protein.RotatedAtoms>
  151.4165  133.3711  159.2750 H   0  0  0  0  0  0  0  0  0  0  0  0  # atno 6907 bound_to 6896
  150.9325  134.8740  159.7571 H   0  0  0  0  0  0  0  0  0  0  0  0  # atno 6908 bound_to 6896
  152.5034  134.4110  159.9501 H   0  0  0  0  0  0  0  0  0  0  0  0  # atno 6909 bound_to 6896
  145.4394  139.2303  143.3100 H   0  0  0  0  0  0  0  0  0  0  0  0  # atno 7974 bound_to 7965
  155.2167  140.3328  155.4321 H   0  0  0  0  0  0  0  0  0  0  0  0  # atno 8008 bound_to 7997
  156.2349  140.1867  156.7193 H   0  0  0  0  0  0  0  0  0  0  0  0  # atno 8009 bound_to 7997
  154.6042  140.0618  156.9394 H   0  0  0  0  0  0  0  0  0  0  0  0  # atno 8010 bound_to 7997
  139.4825  144.5228  151.7848 H   0  0  0  0  0  0  0  0  0  0  0  0  # atno 10167 bound_to 10162
  156.7841  130.5340  149.5746 H   0  0  0  0  0  0  0  0  0  0  0  0  # atno 10718 bound_to 10713
  154.3917  135.6051  153.5847 H   0  0  0  0  0  0  0  0  0  0  0  0  # atno 10763 bound_to 10752
  152.9787  135.5885  154.4290 H   0  0  0  0  0  0  0  0  0  0  0  0  # atno 10764 bound_to 10752
  154.4075  135.2844  155.2036 H   0  0  0  0  0  0  0  0  0  0  0  0  # atno 10765 bound_to 10752
  139.9998  134.9483  157.0046 H   0  0  0  0  0  0  0  0  0  0  0  0  # atno 11005 bound_to 11000
  146.2565  140.5140  142.8871 LP  0  0  0  0  0  0  0  0  0  0  0  0  # atno 17320 bound_to 7965
  144.8131  140.6421  143.6402 LP  0  0  0  0  0  0  0  0  0  0  0  0  # atno 17321 bound_to 7965
  140.4745  144.1540  150.5923 LP  0  0  0  0  0  0  0  0  0  0  0  0  # atno 17342 bound_to 10162
  140.4346  143.2553  151.9551 LP  0  0  0  0  0  0  0  0  0  0  0  0  # atno 17343 bound_to 10162
  156.1200  130.6103  151.0178 LP  0  0  0  0  0  0  0  0  0  0  0  0  # atno 17370 bound_to 10713
  157.6632  131.0877  150.7789 LP  0  0  0  0  0  0  0  0  0  0  0  0  # atno 17371 bound_to 10713
  140.4750  134.1348  155.7208 LP  0  0  0  0  0  0  0  0  0  0  0  0  # atno 17394 bound_to 11000
  141.1633  133.8752  157.1787 LP  0  0  0  0  0  0  0  0  0  0  0  0  # atno 17395 bound_to 11000

$$$$
