AV-unprocessed.smi:572|AV-procd|sdf|2965|dock5
  -GOLD-   2262023473D 1   1.00000     0.00000
 Structure written by MMmdl.
 44 46  0  0  0  0  0  0  0  0  1 V2000
  153.3837  137.9436  159.6398 C   0  0  0  0  0  0  0  0  0  0  0  0
  153.8181  139.1480  160.2444 O   0  0  0  0  0  0  0  0  0  0  0  0
  153.6021  140.2819  159.4206 C   0  0  0  0  0  0  0  0  0  0  0  0
  152.1451  140.3017  158.9381 C   0  0  0  0  0  0  0  0  0  0  0  0
  151.6963  141.6496  158.6215 N   0  0  0  0  0  0  0  0  0  0  0  0
  151.0589  142.0726  157.5009 C   0  0  0  0  0  0  0  0  0  0  0  0
  150.7051  141.1999  156.3927 C   0  0  0  0  0  0  0  0  0  0  0  0
  151.5944  140.1875  155.9875 C   0  0  0  0  0  0  0  0  0  0  0  0
  151.2554  139.3222  154.9195 C   0  0  0  0  0  0  0  0  0  0  0  0
  152.0675  138.2985  154.4755 O   0  0  0  0  0  0  0  0  0  0  0  0
  153.4734  138.4527  154.6057 C   0  0  0  0  0  0  0  0  0  0  0  0
  150.0175  139.5029  154.2626 C   0  0  0  0  0  0  0  0  0  0  0  0
  149.6842  138.6730  153.2295 O   0  0  0  0  0  0  0  0  0  0  0  0
  149.1190  140.5215  154.6534 C   0  0  0  0  0  0  0  0  0  0  0  0
  147.9325  140.6260  153.9566 O   0  0  0  0  0  0  0  0  0  0  0  0
  147.1740  141.8185  154.0945 C   0  0  0  0  0  0  0  0  0  0  0  0
  149.4759  141.3709  155.7287 C   0  0  0  0  0  0  0  0  0  0  0  0
  150.7728  143.3758  157.4701 N   0  0  0  0  0  0  0  0  0  0  0  0
  151.2693  143.8344  158.6742 C   0  0  0  0  0  0  0  0  0  0  0  0
  151.2764  145.1329  159.2324 C   0  0  0  0  0  0  0  0  0  0  0  0
  151.8562  145.3620  160.4976 C   0  0  0  0  0  0  0  0  0  0  0  0
  152.4350  144.2991  161.2210 C   0  0  0  0  0  0  0  0  0  0  0  0
  152.4367  142.9978  160.6832 C   0  0  0  0  0  0  0  0  0  0  0  0
  151.8563  142.7757  159.4203 C   0  0  0  0  0  0  0  0  0  0  0  0
  153.5717  137.1083  160.3139 H   0  0  0  0  0  0  0  0  0  0  0  0
  153.9200  137.7542  158.7093 H   0  0  0  0  0  0  0  0  0  0  0  0
  152.3139  137.9717  159.4294 H   0  0  0  0  0  0  0  0  0  0  0  0
  153.8202  141.1947  159.9766 H   0  0  0  0  0  0  0  0  0  0  0  0
  154.2770  140.2531  158.5636 H   0  0  0  0  0  0  0  0  0  0  0  0
  152.0297  139.6629  158.0625 H   0  0  0  0  0  0  0  0  0  0  0  0
  151.4903  139.8905  159.7069 H   0  0  0  0  0  0  0  0  0  0  0  0
  152.5286  140.0888  156.5194 H   0  0  0  0  0  0  0  0  0  0  0  0
  153.9694  137.5586  154.2282 H   0  0  0  0  0  0  0  0  0  0  0  0
  153.7661  138.5760  155.6493 H   0  0  0  0  0  0  0  0  0  0  0  0
  153.8374  139.3011  154.0248 H   0  0  0  0  0  0  0  0  0  0  0  0
  149.5967  139.1330  152.4086 H   0  0  0  0  0  0  0  0  0  0  0  0
  146.2767  141.7467  153.4800 H   0  0  0  0  0  0  0  0  0  0  0  0
  147.7360  142.6899  153.7556 H   0  0  0  0  0  0  0  0  0  0  0  0
  146.8554  141.9716  155.1263 H   0  0  0  0  0  0  0  0  0  0  0  0
  148.8212  142.1604  156.0658 H   0  0  0  0  0  0  0  0  0  0  0  0
  150.8365  145.9537  158.6857 H   0  0  0  0  0  0  0  0  0  0  0  0
  151.8573  146.3582  160.9147 H   0  0  0  0  0  0  0  0  0  0  0  0
  152.8779  144.4833  162.1890 H   0  0  0  0  0  0  0  0  0  0  0  0
  152.8797  142.1808  161.2332 H   0  0  0  0  0  0  0  0  0  0  0  0
  1  2  1  0  0  0  0
  1 25  1  0  0  0  0
  1 26  1  0  0  0  0
  1 27  1  0  0  0  0
  2  3  1  0  0  0  0
  3  4  1  0  0  0  0
  3 28  1  0  0  0  0
  3 29  1  0  0  0  0
  4  5  1  0  0  0  0
  4 30  1  0  0  0  0
  4 31  1  0  0  0  0
  5 24  1  0  0  0  0
  5  6  1  0  0  0  0
  6  7  1  0  0  0  0
  6 18  2  0  0  0  0
  7 17  1  0  0  0  0
  7  8  2  0  0  0  0
  8  9  1  0  0  0  0
  8 32  1  0  0  0  0
  9 10  1  0  0  0  0
  9 12  2  0  0  0  0
 10 11  1  0  0  0  0
 11 33  1  0  0  0  0
 11 34  1  0  0  0  0
 11 35  1  0  0  0  0
 12 13  1  0  0  0  0
 12 14  1  0  0  0  0
 13 36  1  0  0  0  0
 14 15  1  0  0  0  0
 14 17  2  0  0  0  0
 15 16  1  0  0  0  0
 16 37  1  0  0  0  0
 16 38  1  0  0  0  0
 16 39  1  0  0  0  0
 17 40  1  0  0  0  0
 18 19  1  0  0  0  0
 19 24  2  0  0  0  0
 19 20  1  0  0  0  0
 20 21  2  0  0  0  0
 20 41  1  0  0  0  0
 21 22  1  0  0  0  0
 21 42  1  0  0  0  0
 22 23  2  0  0  0  0
 22 43  1  0  0  0  0
 23 24  1  0  0  0  0
 23 44  1  0  0  0  0
M  END
> <s_m_source_file>
AV-unprocessed.smi

> <i_m_source_file_index>
572

> <i_lp_mmshare_version>
43012

> <i_f3d_flags>
0

> <s_epik_input>
W2NIXTFbY0hdW2NIXVtjSF1jKGMxMiluKFtDSDJdW0NIMl1PW0NIM10pYyhuMiktYzNbY0hdYyhPW0NIM10pYyhbT0hdKWMoW2NIXTMpT1tDSDNd

> <s_epik_cmdline>
J2VwaWtfcHl0aG9uJywgJy1waCcsICc3LjAnLCAnLXRuJywgJzgnLCAnLW1hJywgJzIwMCcsICctbWV0YWxfYmluZGluZycsICctaW1hZScsICc8aW5maWxlLm1hZT4nLCAnLW9tYWUnLCAnPG91dGZpbGUubWFlPic=

> <r_lp_tautomer_probability>
1

> <r_epik_Ionization_Penalty>
0.264233

> <r_epik_Ionization_Penalty_Charging>
0

> <r_epik_Ionization_Penalty_Neutral>
0.264233

> <r_epik_State_Penalty>
0.193741

> <r_epik_Charging_Adjusted_Penalty>
0.193741

> <i_epik_Tot_Q>
0

> <i_epik_Tot_abs_Q>
0

> <r_epik_Metal_State_Penalty>
0.000227182

> <b_epik_Metal_Only>
0

> <s_lp_Force_Field>
OPLS_2005

> <r_lp_Energy>
21.3559

> <b_lp_Chiralities_Consistent>
1

> <s_lp_Variant>
AV-unprocessed.smi:572-1

> <Gold.Version>
5.8.1

> <Gold.Id.Protein>
6NUR|6NUR_protein|mol2

> <Gold.PLP.Fitness>
54.7543

> <Gold.PLP.PLP>
-53.4913

> <Gold.PLP.part.hbond>
-1.7934

> <Gold.PLP.part.metal>
0.0000

> <Gold.PLP.part.buried>
-4.4047

> <Gold.PLP.part.nonpolar>
-47.2939

> <Gold.PLP.part.repulsive>
1.5185

> <Gold.PLP.ligand.clash>
0.0000

> <Gold.PLP.ligand.torsion>
1.4519

> <Gold.PLP.Chemscore.Hbond>
0.9913

> <Gold.PLP.Chemscore.CHOScore>
0.0000

> <Gold.PLP.Chemscore.Metal>
0.0000

> <Gold.Chemscore.Hbonds>
donor molecule, donor type, donor heavy atom, donor atom, acceptor molecule, acceptor atom, score
      L1  H    13    36       P1  7957  0.99

> <Gold.PLP.Chemscore.Internal.Correction>
1.1930

> <Gold.Rescore>
     Score         DG    S(hbond)    S(metal)    S(lipo)     H(rot)  DE(clash)    DE(int)     intcor
     16.80     -19.18       0.96        0.00     138.13       2.21       0.03       2.35       ----

> <Gold.Chemscore.Fitness>
16.7960

> <Gold.Chemscore.DG>
-19.1759

> <Gold.Chemscore.ZeroCoef>
-5.4800

> <Gold.Chemscore.Hbond>
0.9558

> <Gold.Chemscore.Metal>
0.0000

> <Gold.Chemscore.Lipo>
138.1273

> <Gold.Chemscore.Internal_Hbond>
0.0000

> <Gold.Chemscore.DEClash>
0.0338

> <Gold.Chemscore.DEInternal>
2.3460

> <Gold.Chemscore.Rot>
2.2099

> <Gold.Chemscore.Internal.Correction>
   9.000000E+99

> <Gold.Chemscore.Hbonds>
donor molecule, donor type, donor heavy atom, donor atom, acceptor molecule, acceptor atom, score
      L1  H    13    36       P1  7957  0.85

> <Gold.Chemscore.Hbond.Weighted>
-3.1924

> <Gold.Chemscore.Metal.Weighted>
-0.0000

> <Gold.Chemscore.Lipo.Weighted>
-16.1609

> <Gold.Chemscore.Internal_Hbond.Weighted>
0.0000

> <Gold.Chemscore.DEClash.Weighted>
0.0338

> <Gold.Chemscore.DEInternal.Weighted>
2.3460

> <Gold.Chemscore.Rot.Weighted>
5.6574

> <Gold.Chemscore.Internal.Correction.Weighted>
   9.000000E+99

> <Gold.Protein.RotatedTorsions>
[ 6907 6896 6895 6894 ] final -143.38 input  -60.11 | X-H torsion
[ 7974 7965 7964 7962 ] final   56.80 input  175.53 | X-H torsion
[ 8008 7997 7996 7995 ] final   46.12 input   59.86 | X-H torsion
[ 10167 10162 10161 10158 ] final  123.79 input  -65.29 | X-H torsion
[ 10718 10713 10712 10709 ] final  -14.28 input   66.30 | X-H torsion
[ 10763 10752 10751 10750 ] final  -29.25 input  -60.55 | X-H torsion
[ 11005 11000 10999 10996 ] final   46.05 input  -57.11 | X-H torsion

> <Gold.Protein.ActiveResidues>
 VAL166  LYS551  ARG553  GLY616  TRP617  ASP618  TYR619  PRO620  LYS621  CYS622 
 ASP623  PHE694  ASN695  SER759  ASP760  ASP761  ALA762  ILE779  LEU786  VAL792 
 PHE793  MET794  SER795  GLU796  ALA797  LYS798  CYS799  TRP800  GLU811  SER814 

> <Gold.Protein.RotatedAtoms>
  151.0997  133.5253  159.2610 H   0  0  0  0  0  0  0  0  0  0  0  0  # atno 6907 bound_to 6896
  151.2088  135.0472  159.8913 H   0  0  0  0  0  0  0  0  0  0  0  0  # atno 6908 bound_to 6896
  152.5442  134.0815  159.8291 H   0  0  0  0  0  0  0  0  0  0  0  0  # atno 6909 bound_to 6896
  145.9359  139.3847  143.0393 H   0  0  0  0  0  0  0  0  0  0  0  0  # atno 7974 bound_to 7965
  155.3472  140.3411  155.4239 H   0  0  0  0  0  0  0  0  0  0  0  0  # atno 8008 bound_to 7997
  156.1783  140.1655  156.8358 H   0  0  0  0  0  0  0  0  0  0  0  0  # atno 8009 bound_to 7997
  154.5305  140.0746  156.8320 H   0  0  0  0  0  0  0  0  0  0  0  0  # atno 8010 bound_to 7997
  139.5779  144.6972  151.3605 H   0  0  0  0  0  0  0  0  0  0  0  0  # atno 10167 bound_to 10162
  156.6182  130.4868  149.6175 H   0  0  0  0  0  0  0  0  0  0  0  0  # atno 10718 bound_to 10713
  153.7615  135.6919  153.4924 H   0  0  0  0  0  0  0  0  0  0  0  0  # atno 10763 bound_to 10752
  153.1935  135.4462  155.0177 H   0  0  0  0  0  0  0  0  0  0  0  0  # atno 10764 bound_to 10752
  154.8151  135.3395  154.7130 H   0  0  0  0  0  0  0  0  0  0  0  0  # atno 10765 bound_to 10752
  140.1404  134.4590  155.8454 H   0  0  0  0  0  0  0  0  0  0  0  0  # atno 11005 bound_to 11000
  145.8364  140.9604  143.0822 LP  0  0  0  0  0  0  0  0  0  0  0  0  # atno 17320 bound_to 7965
  144.6771  140.0228  143.7483 LP  0  0  0  0  0  0  0  0  0  0  0  0  # atno 17321 bound_to 7965
  140.7060  143.7512  150.7483 LP  0  0  0  0  0  0  0  0  0  0  0  0  # atno 17342 bound_to 10162
  140.1037  143.4764  152.2410 LP  0  0  0  0  0  0  0  0  0  0  0  0  # atno 17343 bound_to 10162
  156.2333  130.6808  151.1485 LP  0  0  0  0  0  0  0  0  0  0  0  0  # atno 17370 bound_to 10713
  157.7235  131.0666  150.6034 LP  0  0  0  0  0  0  0  0  0  0  0  0  # atno 17371 bound_to 10713
  141.2185  133.6831  156.7236 LP  0  0  0  0  0  0  0  0  0  0  0  0  # atno 17394 bound_to 11000
  140.2729  134.8378  157.3864 LP  0  0  0  0  0  0  0  0  0  0  0  0  # atno 17395 bound_to 11000

$$$$
