AV-unprocessed.smi:270|AV-procd|sdf|2046|dock3
  -GOLD-   2262021273D 1   1.00000     0.00000
 Structure written by MMmdl.
 54 57  0  0  0  0  0  0  0  0  1 V2000
  146.7179  133.9965  151.5110 C   0  0  0  0  0  0  0  0  0  0  0  0
  145.2334  134.1899  151.1557 C   0  0  1  0  0  0  0  0  0  0  0  0
  144.8491  133.2634  150.1411 O   0  0  0  0  0  0  0  0  0  0  0  0
  143.8419  132.3956  150.6367 C   0  0  0  0  0  0  0  0  0  0  0  0
  143.0918  133.2504  151.6486 C   0  0  0  0  0  0  0  0  0  0  0  0
  144.2118  134.0377  152.3131 C   0  0  1  0  0  0  0  0  0  0  0  0
  144.7455  133.2437  153.3609 O   0  0  0  0  0  0  0  0  0  0  0  0
  143.7145  135.3753  152.9123 C   0  0  0  0  0  0  0  0  0  0  0  0
  144.7904  136.2633  153.3229 N   0  0  0  0  0  0  0  0  0  0  0  0
  144.9442  137.5866  152.9772 C   0  0  0  0  0  0  0  0  0  0  0  0
  146.0026  138.1699  153.4685 N   0  0  0  0  0  0  0  0  0  0  0  0
  146.6235  137.1784  154.2195 C   0  0  0  0  0  0  0  0  0  0  0  0
  147.8089  137.1396  155.0103 C   0  0  0  0  0  0  0  0  0  0  0  0
  148.6751  138.2554  155.1999 N   0  0  0  0  0  0  0  0  0  0  0  0
  148.0380  139.4803  155.6617 C   0  0  0  0  0  0  0  0  0  0  0  0
  148.8901  140.2250  154.6295 C   0  0  0  0  0  0  0  0  0  0  0  0
  150.0191  140.8826  155.1839 O   0  0  0  0  0  0  0  0  0  0  0  0
  149.6612  141.9097  156.0953 C   0  0  0  0  0  0  0  0  0  0  0  0
  150.3987  141.6785  157.4192 C   0  0  0  0  0  0  0  0  0  0  0  0
  150.5452  140.5193  157.8093 O   0  0  0  0  0  0  0  0  0  0  0  0
  150.8729  142.7431  158.1079 N   0  0  0  0  0  0  0  0  0  0  0  0
  150.6689  144.1307  157.6820 C   0  0  0  0  0  0  0  0  0  0  0  0
  151.6159  142.5559  159.3567 C   0  0  0  0  0  0  0  0  0  0  0  0
  149.2529  138.8738  154.0121 C   0  0  0  0  0  0  0  0  0  0  0  0
  148.0713  135.9635  155.6415 N   0  0  0  0  0  0  0  0  0  0  0  0
  147.2711  134.9041  155.4915 C   0  0  0  0  0  0  0  0  0  0  0  0
  146.1544  134.7989  154.7710 N   0  0  0  0  0  0  0  0  0  0  0  0
  145.8639  135.9754  154.1478 C   0  0  0  0  0  0  0  0  0  0  0  0
  147.0322  134.6854  152.2949 H   0  0  0  0  0  0  0  0  0  0  0  0
  147.3487  134.1772  150.6407 H   0  0  0  0  0  0  0  0  0  0  0  0
  146.9196  132.9815  151.8542 H   0  0  0  0  0  0  0  0  0  0  0  0
  145.1156  135.1750  150.7035 H   0  0  0  0  0  0  0  0  0  0  0  0
  143.2006  132.0272  149.8358 H   0  0  0  0  0  0  0  0  0  0  0  0
  144.3106  131.5392  151.1237 H   0  0  0  0  0  0  0  0  0  0  0  0
  142.4189  133.9239  151.1156 H   0  0  0  0  0  0  0  0  0  0  0  0
  142.4919  132.6638  152.3456 H   0  0  0  0  0  0  0  0  0  0  0  0
  144.0296  132.8440  153.8305 H   0  0  0  0  0  0  0  0  0  0  0  0
  143.1000  135.9075  152.1851 H   0  0  0  0  0  0  0  0  0  0  0  0
  143.0718  135.1892  153.7739 H   0  0  0  0  0  0  0  0  0  0  0  0
  144.2465  138.1083  152.3384 H   0  0  0  0  0  0  0  0  0  0  0  0
  146.9701  139.5258  155.4428 H   0  0  0  0  0  0  0  0  0  0  0  0
  148.2637  139.7172  156.7017 H   0  0  0  0  0  0  0  0  0  0  0  0
  148.3109  140.8511  153.9488 H   0  0  0  0  0  0  0  0  0  0  0  0
  149.9481  142.8798  155.6856 H   0  0  0  0  0  0  0  0  0  0  0  0
  148.5838  141.9418  156.2621 H   0  0  0  0  0  0  0  0  0  0  0  0
  151.2185  144.3352  156.7627 H   0  0  0  0  0  0  0  0  0  0  0  0
  151.0073  144.8483  158.4298 H   0  0  0  0  0  0  0  0  0  0  0  0
  149.6133  144.3396  157.5067 H   0  0  0  0  0  0  0  0  0  0  0  0
  150.9295  142.3239  160.1715 H   0  0  0  0  0  0  0  0  0  0  0  0
  152.1836  143.4427  159.6394 H   0  0  0  0  0  0  0  0  0  0  0  0
  152.3344  141.7386  159.2747 H   0  0  0  0  0  0  0  0  0  0  0  0
  150.3239  138.6980  153.9084 H   0  0  0  0  0  0  0  0  0  0  0  0
  148.7050  138.6783  153.0891 H   0  0  0  0  0  0  0  0  0  0  0  0
  147.5690  134.0142  156.0262 H   0  0  0  0  0  0  0  0  0  0  0  0
  1  2  1  0  0  0  0
  1 29  1  0  0  0  0
  1 30  1  0  0  0  0
  1 31  1  0  0  0  0
  2  6  1  0  0  0  0
  2  3  1  0  0  0  0
  2 32  1  0  0  0  0
  3  4  1  0  0  0  0
  4  5  1  0  0  0  0
  4 33  1  0  0  0  0
  4 34  1  0  0  0  0
  5  6  1  0  0  0  0
  5 35  1  0  0  0  0
  5 36  1  0  0  0  0
  6  7  1  0  0  0  0
  6  8  1  0  0  0  0
  7 37  1  0  0  0  0
  8  9  1  0  0  0  0
  8 38  1  0  0  0  0
  8 39  1  0  0  0  0
  9 28  1  0  0  0  0
  9 10  1  0  0  0  0
 10 11  2  0  0  0  0
 10 40  1  0  0  0  0
 11 12  1  0  0  0  0
 12 28  2  0  0  0  0
 12 13  1  0  0  0  0
 13 14  1  0  0  0  0
 13 25  2  0  0  0  0
 14 24  1  0  0  0  0
 14 15  1  0  0  0  0
 15 16  1  0  0  0  0
 15 41  1  0  0  0  0
 15 42  1  0  0  0  0
 16 17  1  0  0  0  0
 16 24  1  0  0  0  0
 16 43  1  0  0  0  0
 17 18  1  0  0  0  0
 18 19  1  0  0  0  0
 18 44  1  0  0  0  0
 18 45  1  0  0  0  0
 19 20  2  0  0  0  0
 19 21  1  0  0  0  0
 21 22  1  0  0  0  0
 21 23  1  0  0  0  0
 22 46  1  0  0  0  0
 22 47  1  0  0  0  0
 22 48  1  0  0  0  0
 23 49  1  0  0  0  0
 23 50  1  0  0  0  0
 23 51  1  0  0  0  0
 24 52  1  0  0  0  0
 24 53  1  0  0  0  0
 25 26  1  0  0  0  0
 26 27  2  0  0  0  0
 26 54  1  0  0  0  0
 27 28  1  0  0  0  0
M  END
> <s_m_source_file>
AV-unprocessed.smi

> <i_m_source_file_index>
270

> <i_lp_mmshare_version>
43012

> <i_f3d_flags>
0

> <s_epik_input>
W0NIMl0xW0NIMl1PW0NAQEhdKFtDSDNdKVtDQEBdMShbT0hdKVtDSDJdbihbY0hdbjIpYyhjMjMpbltjSF1uYzNONFtDSDJdW0NIXShbQ0gyXTQpT1tDSDJdQyg9TylOKFtDSDNdKVtDSDNd

> <s_epik_cmdline>
J2VwaWtfcHl0aG9uJywgJy1waCcsICc3LjAnLCAnLXRuJywgJzgnLCAnLW1hJywgJzIwMCcsICctbWV0YWxfYmluZGluZycsICctaW1hZScsICc8aW5maWxlLm1hZT4nLCAnLW9tYWUnLCAnPG91dGZpbGUubWFlPic=

> <r_lp_tautomer_probability>
1

> <r_epik_Ionization_Penalty>
0.00375854

> <r_epik_Ionization_Penalty_Charging>
0

> <r_epik_Ionization_Penalty_Neutral>
0.00375854

> <r_epik_State_Penalty>
-0

> <r_epik_Charging_Adjusted_Penalty>
0

> <i_epik_Tot_Q>
0

> <i_epik_Tot_abs_Q>
0

> <r_epik_Metal_State_Penalty>
-0

> <b_epik_Metal_Only>
0

> <s_lp_Force_Field>
OPLS_2005

> <r_lp_Energy>
55.1289

> <b_lp_Chiralities_Consistent>
1

> <s_lp_Variant>
AV-unprocessed.smi:270-2

> <Gold.Version>
5.8.1

> <Gold.Id.Protein>
6NUR|6NUR_protein|mol2

> <Gold.PLP.Fitness>
46.0100

> <Gold.PLP.PLP>
-35.8348

> <Gold.PLP.part.hbond>
-2.0000

> <Gold.PLP.part.metal>
0.0000

> <Gold.PLP.part.buried>
-3.6086

> <Gold.PLP.part.nonpolar>
-30.4427

> <Gold.PLP.part.repulsive>
0.6248

> <Gold.PLP.ligand.clash>
0.0000

> <Gold.PLP.ligand.torsion>
0.9565

> <Gold.PLP.Chemscore.Hbond>
1.9424

> <Gold.PLP.Chemscore.CHOScore>
1.9762

> <Gold.PLP.Chemscore.Metal>
0.0000

> <Gold.Chemscore.Hbonds>
donor molecule, donor type, donor heavy atom, donor atom, acceptor molecule, acceptor atom, score
      L1  H     7    37       P1 10957  1.00
      P1  H  7989  7998       L1    17  0.21
      L1  C    10    40       P1 10171  0.85
      L1  C    10    40       P1 10175  0.94

> <Gold.PLP.Chemscore.Internal.Correction>
0.3323

> <Gold.Rescore>
     Score         DG    S(hbond)    S(metal)    S(lipo)     H(rot)  DE(clash)    DE(int)     intcor
      8.50     -11.29       1.24        0.00      82.53       3.12       0.14       2.64       ----

> <Gold.Chemscore.Fitness>
8.5035

> <Gold.Chemscore.DG>
-11.2865

> <Gold.Chemscore.ZeroCoef>
-5.4800

> <Gold.Chemscore.Hbond>
1.2413

> <Gold.Chemscore.Metal>
0.0000

> <Gold.Chemscore.Lipo>
82.5338

> <Gold.Chemscore.Internal_Hbond>
0.0000

> <Gold.Chemscore.DEClash>
0.1442

> <Gold.Chemscore.DEInternal>
2.6387

> <Gold.Chemscore.Rot>
3.1234

> <Gold.Chemscore.Internal.Correction>
   9.000000E+99

> <Gold.Chemscore.Hbonds>
donor molecule, donor type, donor heavy atom, donor atom, acceptor molecule, acceptor atom, score
      L1  H     7    37       P1 10957  0.86
      P1  H  7989  7998       L1    17  0.11

> <Gold.Chemscore.Hbond.Weighted>
-4.1459

> <Gold.Chemscore.Metal.Weighted>
-0.0000

> <Gold.Chemscore.Lipo.Weighted>
-9.6565

> <Gold.Chemscore.Internal_Hbond.Weighted>
0.0000

> <Gold.Chemscore.DEClash.Weighted>
0.1442

> <Gold.Chemscore.DEInternal.Weighted>
2.6387

> <Gold.Chemscore.Rot.Weighted>
7.9959

> <Gold.Chemscore.Internal.Correction.Weighted>
   9.000000E+99

> <Gold.Protein.RotatedTorsions>
[ 6907 6896 6895 6894 ] final   17.22 input  -60.11 | X-H torsion
[ 7974 7965 7964 7962 ] final  -52.18 input  175.53 | X-H torsion
[ 8008 7997 7996 7995 ] final   93.88 input   59.86 | X-H torsion
[ 10167 10162 10161 10158 ] final  148.86 input  -65.29 | X-H torsion
[ 10718 10713 10712 10709 ] final  -93.06 input   66.30 | X-H torsion
[ 10763 10752 10751 10750 ] final -174.22 input  -60.55 | X-H torsion
[ 11005 11000 10999 10996 ] final -176.22 input  -57.11 | X-H torsion

> <Gold.Protein.ActiveResidues>
 VAL166  LYS551  ARG553  GLY616  TRP617  ASP618  TYR619  PRO620  LYS621  CYS622 
 ASP623  PHE694  ASN695  SER759  ASP760  ASP761  ALA762  ILE779  LEU786  VAL792 
 PHE793  MET794  SER795  GLU796  ALA797  LYS798  CYS799  TRP800  GLU811  SER814 

> <Gold.Protein.RotatedAtoms>
  151.8462  135.0573  160.0453 H   0  0  0  0  0  0  0  0  0  0  0  0  # atno 6907 bound_to 6896
  152.2771  133.5431  159.5483 H   0  0  0  0  0  0  0  0  0  0  0  0  # atno 6908 bound_to 6896
  150.7174  134.0532  159.3848 H   0  0  0  0  0  0  0  0  0  0  0  0  # atno 6909 bound_to 6896
  145.9108  140.7916  142.9696 H   0  0  0  0  0  0  0  0  0  0  0  0  # atno 7974 bound_to 7965
  156.0517  140.3307  155.7358 H   0  0  0  0  0  0  0  0  0  0  0  0  # atno 8008 bound_to 7997
  155.5591  140.0617  157.2850 H   0  0  0  0  0  0  0  0  0  0  0  0  # atno 8009 bound_to 7997
  154.4439  140.1880  156.0752 H   0  0  0  0  0  0  0  0  0  0  0  0  # atno 8010 bound_to 7997
  139.4869  144.5647  151.7167 H   0  0  0  0  0  0  0  0  0  0  0  0  # atno 10167 bound_to 10162
  156.0009  130.5012  150.5719 H   0  0  0  0  0  0  0  0  0  0  0  0  # atno 10718 bound_to 10713
  154.5987  135.2852  155.0558 H   0  0  0  0  0  0  0  0  0  0  0  0  # atno 10763 bound_to 10752
  154.1831  135.6453  153.5043 H   0  0  0  0  0  0  0  0  0  0  0  0  # atno 10764 bound_to 10752
  153.0148  135.5428  154.6699 H   0  0  0  0  0  0  0  0  0  0  0  0  # atno 10765 bound_to 10752
  140.4546  134.6312  157.4816 H   0  0  0  0  0  0  0  0  0  0  0  0  # atno 11005 bound_to 11000
  144.6743  140.1823  143.7404 LP  0  0  0  0  0  0  0  0  0  0  0  0  # atno 17320 bound_to 7965
  145.8674  139.2254  143.1681 LP  0  0  0  0  0  0  0  0  0  0  0  0  # atno 17321 bound_to 7965
  140.5223  144.0860  150.6026 LP  0  0  0  0  0  0  0  0  0  0  0  0  # atno 17342 bound_to 10162
  140.3822  143.2797  152.0157 LP  0  0  0  0  0  0  0  0  0  0  0  0  # atno 17343 bound_to 10162
  157.3612  131.0750  151.1634 LP  0  0  0  0  0  0  0  0  0  0  0  0  # atno 17370 bound_to 10713
  157.2418  130.6573  149.5893 LP  0  0  0  0  0  0  0  0  0  0  0  0  # atno 17371 bound_to 10713
  139.9985  134.6874  155.9570 LP  0  0  0  0  0  0  0  0  0  0  0  0  # atno 17394 bound_to 11000
  141.1649  133.6537  156.4444 LP  0  0  0  0  0  0  0  0  0  0  0  0  # atno 17395 bound_to 11000

$$$$
