AV-unprocessed.smi:2822|AV-procd|sdf|10883|dock6
  -GOLD-   2272015323D 1   1.00000     0.00000
 Structure written by MMmdl.
 39 41  0  0  0  0  0  0  0  0  1 V2000
  148.5638  138.8032  154.4528 Cl  0  0  0  0  0  0  0  0  0  0  0  0
  150.2753  138.7310  154.6892 C   0  0  0  0  0  0  0  0  0  0  0  0
  151.0181  137.6870  154.1006 C   0  0  0  0  0  0  0  0  0  0  0  0
  152.3546  137.5565  154.2348 N   0  0  0  0  0  0  0  0  0  0  0  0
  153.0039  138.4806  154.9731 C   0  0  0  0  0  0  0  0  0  0  0  0
  152.3593  139.5635  155.6036 C   0  0  0  0  0  0  0  0  0  0  0  0
  150.9578  139.6987  155.4622 C   0  0  0  0  0  0  0  0  0  0  0  0
  150.2363  140.7444  156.0583 N   0  0  0  0  0  0  0  0  0  0  0  0
  150.8718  142.0197  156.3520 C   0  0  0  0  0  0  0  0  0  0  0  0
  150.8802  142.3137  157.8583 C   0  0  1  0  0  0  0  0  0  0  0  0
  152.0975  141.6757  158.5532 C   0  0  0  0  0  0  0  0  0  0  0  0
  152.1602  142.0181  159.9686 N   0  0  0  0  0  0  0  0  0  0  0  0
  153.3274  141.4146  160.6099 C   0  0  0  0  0  0  0  0  0  0  0  0
  153.3998  141.7312  162.1123 C   0  0  0  0  0  0  0  0  0  0  0  0
  153.3948  143.2498  162.3378 C   0  0  0  0  0  0  0  0  0  0  0  0
  152.1968  143.8862  161.6163 C   0  0  0  0  0  0  0  0  0  0  0  0
  152.1655  143.4752  160.1297 C   0  0  2  0  0  0  0  0  0  0  0  0
  150.9570  144.1110  159.4132 C   0  0  0  0  0  0  0  0  0  0  0  0
  150.9487  143.7256  158.0423 O   0  0  0  0  0  0  0  0  0  0  0  0
  150.5249  136.9337  153.5040 H   0  0  0  0  0  0  0  0  0  0  0  0
  154.0723  138.3531  155.0661 H   0  0  0  0  0  0  0  0  0  0  0  0
  152.9457  140.2629  156.1801 H   0  0  0  0  0  0  0  0  0  0  0  0
  149.2281  140.6906  156.0931 H   0  0  0  0  0  0  0  0  0  0  0  0
  151.8985  141.9844  155.9863 H   0  0  0  0  0  0  0  0  0  0  0  0
  150.3621  142.8213  155.8156 H   0  0  0  0  0  0  0  0  0  0  0  0
  149.9634  141.9294  158.3103 H   0  0  0  0  0  0  0  0  0  0  0  0
  152.0522  140.5917  158.4408 H   0  0  0  0  0  0  0  0  0  0  0  0
  153.0113  142.0023  158.0540 H   0  0  0  0  0  0  0  0  0  0  0  0
  153.3002  140.3327  160.4755 H   0  0  0  0  0  0  0  0  0  0  0  0
  154.2393  141.7629  160.1224 H   0  0  0  0  0  0  0  0  0  0  0  0
  152.5484  141.2798  162.6232 H   0  0  0  0  0  0  0  0  0  0  0  0
  154.2962  141.2890  162.5477 H   0  0  0  0  0  0  0  0  0  0  0  0
  153.3601  143.4756  163.4038 H   0  0  0  0  0  0  0  0  0  0  0  0
  154.3220  143.6792  161.9564 H   0  0  0  0  0  0  0  0  0  0  0  0
  151.2719  143.5754  162.1043 H   0  0  0  0  0  0  0  0  0  0  0  0
  152.2465  144.9718  161.7076 H   0  0  0  0  0  0  0  0  0  0  0  0
  153.0672  143.8705  159.6587 H   0  0  0  0  0  0  0  0  0  0  0  0
  150.0198  143.8108  159.8853 H   0  0  0  0  0  0  0  0  0  0  0  0
  151.0091  145.1984  159.4702 H   0  0  0  0  0  0  0  0  0  0  0  0
  1  2  1  0  0  0  0
  2  7  1  0  0  0  0
  2  3  2  0  0  0  0
  3  4  1  0  0  0  0
  3 20  1  0  0  0  0
  4  5  2  0  0  0  0
  5  6  1  0  0  0  0
  5 21  1  0  0  0  0
  6  7  2  0  0  0  0
  6 22  1  0  0  0  0
  7  8  1  0  0  0  0
  8  9  1  0  0  0  0
  8 23  1  0  0  0  0
  9 10  1  0  0  0  0
  9 24  1  0  0  0  0
  9 25  1  0  0  0  0
 10 19  1  0  0  0  0
 10 11  1  0  0  0  0
 10 26  1  0  0  0  0
 11 12  1  0  0  0  0
 11 27  1  0  0  0  0
 11 28  1  0  0  0  0
 12 17  1  0  0  0  0
 12 13  1  0  0  0  0
 13 14  1  0  0  0  0
 13 29  1  0  0  0  0
 13 30  1  0  0  0  0
 14 15  1  0  0  0  0
 14 31  1  0  0  0  0
 14 32  1  0  0  0  0
 15 16  1  0  0  0  0
 15 33  1  0  0  0  0
 15 34  1  0  0  0  0
 16 17  1  0  0  0  0
 16 35  1  0  0  0  0
 16 36  1  0  0  0  0
 17 18  1  0  0  0  0
 17 37  1  0  0  0  0
 18 19  1  0  0  0  0
 18 38  1  0  0  0  0
 18 39  1  0  0  0  0
M  END
> <s_m_source_file>
AV-unprocessed.smi

> <i_m_source_file_index>
2822

> <i_lp_mmshare_version>
43012

> <i_f3d_flags>
0

> <s_epik_input>
Q2xjMVtjSF1uW2NIXVtjSF1jMVtOSF1bQ0gyXVtDQEhdKFtDSDJdMilPW0NIMl1bQ0BASF0oTjIzKVtDSDJdW0NIMl1bQ0gyXVtDSDJdMw==

> <s_epik_cmdline>
J2VwaWtfcHl0aG9uJywgJy1waCcsICc3LjAnLCAnLXRuJywgJzgnLCAnLW1hJywgJzIwMCcsICctbWV0YWxfYmluZGluZycsICctaW1hZScsICc8aW5maWxlLm1hZT4nLCAnLW9tYWUnLCAnPG91dGZpbGUubWFlPic=

> <r_lp_tautomer_probability>
0.999999

> <r_epik_Ionization_Penalty>
2.10064

> <r_epik_Ionization_Penalty_Charging>
0

> <r_epik_Ionization_Penalty_Neutral>
2.10064

> <r_epik_State_Penalty>
2.1757

> <r_epik_Charging_Adjusted_Penalty>
2.1757

> <i_epik_Tot_Q>
0

> <i_epik_Tot_abs_Q>
0

> <r_epik_Metal_State_Penalty>
1.25425

> <b_epik_Metal_Only>
0

> <s_lp_Force_Field>
OPLS_2005

> <r_lp_Energy>
37.6932

> <b_lp_Chiralities_Consistent>
1

> <s_lp_Variant>
AV-unprocessed.smi:2822-24

> <Gold.Version>
5.8.1

> <Gold.Id.Protein>
6NUR|6NUR_protein|mol2

> <Gold.PLP.Fitness>
46.1632

> <Gold.PLP.PLP>
-42.0753

> <Gold.PLP.part.hbond>
-1.0000

> <Gold.PLP.part.metal>
0.0000

> <Gold.PLP.part.buried>
-5.5466

> <Gold.PLP.part.nonpolar>
-36.8119

> <Gold.PLP.part.repulsive>
0.3587

> <Gold.PLP.ligand.clash>
0.0000

> <Gold.PLP.ligand.torsion>
0.4417

> <Gold.PLP.Chemscore.Hbond>
0.7360

> <Gold.PLP.Chemscore.CHOScore>
0.9209

> <Gold.PLP.Chemscore.Metal>
0.0000

> <Gold.Chemscore.Hbonds>
donor molecule, donor type, donor heavy atom, donor atom, acceptor molecule, acceptor atom, score
      P1  H 10752 10765       L1     4  0.74
      L1  C     3    20       P1  7948  0.45
      L1  C     3    20       P1  7949  0.47

> <Gold.PLP.Chemscore.Internal.Correction>
0.0007

> <Gold.Rescore>
     Score         DG    S(hbond)    S(metal)    S(lipo)     H(rot)  DE(clash)    DE(int)     intcor
     19.80     -20.54       0.75        0.00     132.53       1.15       0.27       0.47       ----

> <Gold.Chemscore.Fitness>
19.8012

> <Gold.Chemscore.DG>
-20.5375

> <Gold.Chemscore.ZeroCoef>
-5.4800

> <Gold.Chemscore.Hbond>
0.7487

> <Gold.Chemscore.Metal>
0.0000

> <Gold.Chemscore.Lipo>
132.5262

> <Gold.Chemscore.Internal_Hbond>
0.0000

> <Gold.Chemscore.DEClash>
0.2701

> <Gold.Chemscore.DEInternal>
0.4662

> <Gold.Chemscore.Rot>
1.1519

> <Gold.Chemscore.Internal.Correction>
   9.000000E+99

> <Gold.Chemscore.Hbonds>
donor molecule, donor type, donor heavy atom, donor atom, acceptor molecule, acceptor atom, score
      P1  H 10752 10765       L1     4  0.61

> <Gold.Chemscore.Hbond.Weighted>
-2.5007

> <Gold.Chemscore.Metal.Weighted>
-0.0000

> <Gold.Chemscore.Lipo.Weighted>
-15.5056

> <Gold.Chemscore.Internal_Hbond.Weighted>
0.0000

> <Gold.Chemscore.DEClash.Weighted>
0.2701

> <Gold.Chemscore.DEInternal.Weighted>
0.4662

> <Gold.Chemscore.Rot.Weighted>
2.9487

> <Gold.Chemscore.Internal.Correction.Weighted>
   9.000000E+99

> <Gold.Protein.RotatedTorsions>
[ 6907 6896 6895 6894 ] final -106.75 input  -60.11 | X-H torsion
[ 7974 7965 7964 7962 ] final -146.85 input  175.53 | X-H torsion
[ 8008 7997 7996 7995 ] final   88.99 input   59.86 | X-H torsion
[ 10167 10162 10161 10158 ] final -169.56 input  -65.29 | X-H torsion
[ 10718 10713 10712 10709 ] final  -87.23 input   66.30 | X-H torsion
[ 10763 10752 10751 10750 ] final  156.02 input  -60.55 | X-H torsion
[ 11005 11000 10999 10996 ] final  120.49 input  -57.11 | X-H torsion

> <Gold.Protein.ActiveResidues>
 VAL166  LYS551  ARG553  GLY616  TRP617  ASP618  TYR619  PRO620  LYS621  CYS622 
 ASP623  PHE694  ASN695  SER759  ASP760  ASP761  ALA762  ILE779  LEU786  VAL792 
 PHE793  MET794  SER795  GLU796  ALA797  LYS798  CYS799  TRP800  GLU811  SER814 

> <Gold.Protein.RotatedAtoms>
  150.7406  133.9930  159.3612 H   0  0  0  0  0  0  0  0  0  0  0  0  # atno 6907 bound_to 6896
  151.7879  135.0742  160.0392 H   0  0  0  0  0  0  0  0  0  0  0  0  # atno 6908 bound_to 6896
  152.3229  133.5836  159.5793 H   0  0  0  0  0  0  0  0  0  0  0  0  # atno 6909 bound_to 6896
  144.8132  140.5402  143.5628 H   0  0  0  0  0  0  0  0  0  0  0  0  # atno 7974 bound_to 7965
  155.9945  140.3365  155.6785 H   0  0  0  0  0  0  0  0  0  0  0  0  # atno 8008 bound_to 7997
  155.6375  140.0691  157.2647 H   0  0  0  0  0  0  0  0  0  0  0  0  # atno 8009 bound_to 7997
  154.4229  140.1748  156.1525 H   0  0  0  0  0  0  0  0  0  0  0  0  # atno 8010 bound_to 7997
  139.5915  144.1203  152.1640 H   0  0  0  0  0  0  0  0  0  0  0  0  # atno 10167 bound_to 10162
  155.9986  130.4793  150.4835 H   0  0  0  0  0  0  0  0  0  0  0  0  # atno 10718 bound_to 10713
  154.1777  135.2801  155.3061 H   0  0  0  0  0  0  0  0  0  0  0  0  # atno 10763 bound_to 10752
  154.6026  135.5524  153.7393 H   0  0  0  0  0  0  0  0  0  0  0  0  # atno 10764 bound_to 10752
  153.0146  135.6395  154.1917 H   0  0  0  0  0  0  0  0  0  0  0  0  # atno 10765 bound_to 10752
  139.9187  134.9635  156.7815 H   0  0  0  0  0  0  0  0  0  0  0  0  # atno 11005 bound_to 11000
  145.5276  139.1475  143.3518 LP  0  0  0  0  0  0  0  0  0  0  0  0  # atno 17320 bound_to 7965
  146.2432  140.5416  142.8925 LP  0  0  0  0  0  0  0  0  0  0  0  0  # atno 17321 bound_to 7965
  140.0778  144.5726  150.7144 LP  0  0  0  0  0  0  0  0  0  0  0  0  # atno 17342 bound_to 10162
  140.7177  143.2559  151.4381 LP  0  0  0  0  0  0  0  0  0  0  0  0  # atno 17343 bound_to 10162
  157.2838  131.0612  151.2180 LP  0  0  0  0  0  0  0  0  0  0  0  0  # atno 17370 bound_to 10713
  157.3217  130.6940  149.6273 LP  0  0  0  0  0  0  0  0  0  0  0  0  # atno 17371 bound_to 10713
  140.6541  133.9705  155.7770 LP  0  0  0  0  0  0  0  0  0  0  0  0  # atno 17394 bound_to 11000
  141.0688  134.0236  157.3555 LP  0  0  0  0  0  0  0  0  0  0  0  0  # atno 17395 bound_to 11000

$$$$
