AV-unprocessed.smi:1737|AV-procd|sdf|6996|dock9
  -GOLD-   22720 8213D 1   1.00000     0.00000
 Structure written by MMmdl.
 43 44  0  0  0  0  0  0  0  0  2 V2000
  144.4027  134.3136  152.8655 C   0  0  0  0  0  0  0  0  0  0  0  0
  144.7179  133.5288  151.6021 C   0  0  0  0  0  0  0  0  0  0  0  0
  143.6598  132.9628  150.8593 C   0  0  0  0  0  0  0  0  0  0  0  0
  143.9531  132.2371  149.6921 C   0  0  0  0  0  0  0  0  0  0  0  0
  145.3005  132.1070  149.3145 C   0  0  0  0  0  0  0  0  0  0  0  0
  146.3175  132.6449  150.0182 N   0  0  0  0  0  0  0  0  0  0  0  0
  146.0520  133.3473  151.1481 C   0  0  0  0  0  0  0  0  0  0  0  0
  147.0747  133.9450  151.9375 N   0  0  0  0  0  0  0  0  0  0  0  0
  147.4190  133.6691  153.2078 C   0  0  0  0  0  0  0  0  0  0  0  0
  146.8616  132.8488  153.9367 O   0  0  0  0  0  0  0  0  0  0  0  0
  148.4672  134.4090  153.5967 N   0  0  0  0  0  0  0  0  0  0  0  0
  149.0953  134.3623  154.9167 C   0  0  0  0  0  0  0  0  0  0  0  0
  149.0199  135.7085  155.6866 C   0  0  1  0  0  0  0  0  0  0  0  0
  149.7609  135.5872  157.0363 C   0  0  0  0  0  0  0  0  0  0  0  0
  149.4991  136.8676  154.8652 N   0  3  0  0  0  0  0  0  0  0  0  0
  148.8623  138.1567  155.2502 C   0  0  0  0  0  0  0  0  0  0  0  0
  149.3430  139.3046  154.3477 C   0  0  0  0  0  0  0  0  0  0  0  0
  150.7569  139.4073  154.4221 O   0  0  0  0  0  0  0  0  0  0  0  0
  151.3885  138.2245  153.9557 C   0  0  0  0  0  0  0  0  0  0  0  0
  150.9787  137.0307  154.8349 C   0  0  0  0  0  0  0  0  0  0  0  0
  143.3296  134.3430  153.0580 H   0  0  0  0  0  0  0  0  0  0  0  0
  144.7550  135.3416  152.7747 H   0  0  0  0  0  0  0  0  0  0  0  0
  144.8850  133.8553  153.7294 H   0  0  0  0  0  0  0  0  0  0  0  0
  142.6344  133.0817  151.1772 H   0  0  0  0  0  0  0  0  0  0  0  0
  143.1661  131.7919  149.1014 H   0  0  0  0  0  0  0  0  0  0  0  0
  145.5698  131.5576  148.4246 H   0  0  0  0  0  0  0  0  0  0  0  0
  147.6123  134.6614  151.4727 H   0  0  0  0  0  0  0  0  0  0  0  0
  148.8499  135.0691  152.9357 H   0  0  0  0  0  0  0  0  0  0  0  0
  148.5915  133.5820  155.4865 H   0  0  0  0  0  0  0  0  0  0  0  0
  150.1288  134.0205  154.8373 H   0  0  0  0  0  0  0  0  0  0  0  0
  147.9701  135.8862  155.9257 H   0  0  0  0  0  0  0  0  0  0  0  0
  149.4936  134.6639  157.5508 H   0  0  0  0  0  0  0  0  0  0  0  0
  149.5032  136.3986  157.7167 H   0  0  0  0  0  0  0  0  0  0  0  0
  150.8431  135.5882  156.9041 H   0  0  0  0  0  0  0  0  0  0  0  0
  147.7779  138.0959  155.1715 H   0  0  0  0  0  0  0  0  0  0  0  0
  149.0946  138.3818  156.2923 H   0  0  0  0  0  0  0  0  0  0  0  0
  149.0271  139.1479  153.3149 H   0  0  0  0  0  0  0  0  0  0  0  0
  148.9043  140.2475  154.6748 H   0  0  0  0  0  0  0  0  0  0  0  0
  151.1293  138.0458  152.9106 H   0  0  0  0  0  0  0  0  0  0  0  0
  152.4690  138.3645  153.9944 H   0  0  0  0  0  0  0  0  0  0  0  0
  151.3525  137.1666  155.8508 H   0  0  0  0  0  0  0  0  0  0  0  0
  151.4616  136.1437  154.4269 H   0  0  0  0  0  0  0  0  0  0  0  0
  149.2181  136.6760  153.9141 H   0  0  0  0  0  0  0  0  0  0  0  0
  1  2  1  0  0  0  0
  1 21  1  0  0  0  0
  1 22  1  0  0  0  0
  1 23  1  0  0  0  0
  2  7  1  0  0  0  0
  2  3  2  0  0  0  0
  3  4  1  0  0  0  0
  3 24  1  0  0  0  0
  4  5  2  0  0  0  0
  4 25  1  0  0  0  0
  5  6  1  0  0  0  0
  5 26  1  0  0  0  0
  6  7  2  0  0  0  0
  7  8  1  0  0  0  0
  8  9  1  0  0  0  0
  8 27  1  0  0  0  0
  9 10  2  0  0  0  0
  9 11  1  0  0  0  0
 11 12  1  0  0  0  0
 11 28  1  0  0  0  0
 12 13  1  0  0  0  0
 12 29  1  0  0  0  0
 12 30  1  0  0  0  0
 13 14  1  0  0  0  0
 13 15  1  0  0  0  0
 13 31  1  0  0  0  0
 14 32  1  0  0  0  0
 14 33  1  0  0  0  0
 14 34  1  0  0  0  0
 15 20  1  0  0  0  0
 15 16  1  0  0  0  0
 15 43  1  0  0  0  0
 16 17  1  0  0  0  0
 16 35  1  0  0  0  0
 16 36  1  0  0  0  0
 17 18  1  0  0  0  0
 17 37  1  0  0  0  0
 17 38  1  0  0  0  0
 18 19  1  0  0  0  0
 19 20  1  0  0  0  0
 19 39  1  0  0  0  0
 19 40  1  0  0  0  0
 20 41  1  0  0  0  0
 20 42  1  0  0  0  0
M  CHG  1  15   1
M  END
> <s_m_source_file>
AV-unprocessed.smi

> <i_m_source_file_index>
1737

> <i_lp_mmshare_version>
43012

> <i_f3d_flags>
0

> <s_epik_input>
W0NIM11jMVtjSF1bY0hdW2NIXW5jMVtOSF1DKD1PKVtOSF1bQ0gyXVtDQEhdKFtDSDNdKU4yW0NIMl1bQ0gyXU9bQ0gyXVtDSDJdMg==

> <s_epik_cmdline>
J2VwaWtfcHl0aG9uJywgJy1waCcsICc3LjAnLCAnLXRuJywgJzgnLCAnLW1hJywgJzIwMCcsICctbWV0YWxfYmluZGluZycsICctaW1hZScsICc8aW5maWxlLm1hZT4nLCAnLW9tYWUnLCAnPG91dGZpbGUubWFlPic=

> <r_epik_Ionization_Penalty>
0.602573

> <r_epik_Ionization_Penalty_Charging>
0.602531

> <r_epik_Ionization_Penalty_Neutral>
4.25912e-05

> <r_epik_State_Penalty>
0.617039

> <r_epik_Charging_Adjusted_Penalty>
1.21957

> <i_epik_Tot_Q>
1

> <i_epik_Tot_abs_Q>
1

> <r_epik_Metal_State_Penalty>
0.617042

> <b_epik_Metal_Only>
0

> <s_lp_Force_Field>
OPLS_2005

> <r_lp_Energy>
29.9094

> <b_lp_Chiralities_Consistent>
1

> <s_lp_Variant>
AV-unprocessed.smi:1737-4

> <Gold.Version>
5.8.1

> <Gold.Id.Protein>
6NUR|6NUR_protein|mol2

> <Gold.PLP.Fitness>
42.2951

> <Gold.PLP.PLP>
-30.8571

> <Gold.PLP.part.hbond>
-3.7617

> <Gold.PLP.part.metal>
0.0000

> <Gold.PLP.part.buried>
-3.9971

> <Gold.PLP.part.nonpolar>
-23.6333

> <Gold.PLP.part.repulsive>
0.4631

> <Gold.PLP.ligand.clash>
0.0000

> <Gold.PLP.ligand.torsion>
1.0898

> <Gold.PLP.Chemscore.Hbond>
4.5228

> <Gold.PLP.Chemscore.CHOScore>
0.0000

> <Gold.PLP.Chemscore.Metal>
0.0000

> <Gold.Chemscore.Hbonds>
donor molecule, donor type, donor heavy atom, donor atom, acceptor molecule, acceptor atom, score
      L1  H     8    27       P1  7948  0.80
      L1  H    11    28       P1  7948  1.00
      L1  H    15    43       P1  7948  1.66
      P1  H  7989  7998       L1    18  1.00

> <Gold.PLP.Chemscore.Internal.Correction>
0.0493

> <Gold.Rescore>
     Score         DG    S(hbond)    S(metal)    S(lipo)     H(rot)  DE(clash)    DE(int)     intcor
     17.00     -20.02       2.86        0.00      75.71       1.51       1.39       1.64       ----

> <Gold.Chemscore.Fitness>
17.0004

> <Gold.Chemscore.DG>
-20.0224

> <Gold.Chemscore.ZeroCoef>
-5.4800

> <Gold.Chemscore.Hbond>
2.8615

> <Gold.Chemscore.Metal>
0.0000

> <Gold.Chemscore.Lipo>
75.7072

> <Gold.Chemscore.Internal_Hbond>
0.0000

> <Gold.Chemscore.DEClash>
1.3859

> <Gold.Chemscore.DEInternal>
1.6361

> <Gold.Chemscore.Rot>
1.5128

> <Gold.Chemscore.Internal.Correction>
   9.000000E+99

> <Gold.Chemscore.Hbonds>
donor molecule, donor type, donor heavy atom, donor atom, acceptor molecule, acceptor atom, score
      L1  H     8    27       P1  7948  0.17
      L1  H    11    28       P1  7948  0.24
      L1  H    15    43       P1  7948  0.80
      P1  H  7989  7998       L1    18  0.48

> <Gold.Chemscore.Hbond.Weighted>
-9.5573

> <Gold.Chemscore.Metal.Weighted>
-0.0000

> <Gold.Chemscore.Lipo.Weighted>
-8.8577

> <Gold.Chemscore.Internal_Hbond.Weighted>
0.0000

> <Gold.Chemscore.DEClash.Weighted>
1.3859

> <Gold.Chemscore.DEInternal.Weighted>
1.6361

> <Gold.Chemscore.Rot.Weighted>
3.8726

> <Gold.Chemscore.Internal.Correction.Weighted>
   9.000000E+99

> <Gold.Protein.RotatedTorsions>
[ 6907 6896 6895 6894 ] final   94.44 input  -60.11 | X-H torsion
[ 7974 7965 7964 7962 ] final  -20.50 input  175.53 | X-H torsion
[ 8008 7997 7996 7995 ] final -139.45 input   59.86 | X-H torsion
[ 10167 10162 10161 10158 ] final  137.54 input  -65.29 | X-H torsion
[ 10718 10713 10712 10709 ] final  171.54 input   66.30 | X-H torsion
[ 10763 10752 10751 10750 ] final   89.67 input  -60.55 | X-H torsion
[ 11005 11000 10999 10996 ] final  140.31 input  -57.11 | X-H torsion

> <Gold.Protein.ActiveResidues>
 VAL166  LYS551  ARG553  GLY616  TRP617  ASP618  TYR619  PRO620  LYS621  CYS622 
 ASP623  PHE694  ASN695  SER759  ASP760  ASP761  ALA762  ILE779  LEU786  VAL792 
 PHE793  MET794  SER795  GLU796  ALA797  LYS798  CYS799  TRP800  GLU811  SER814 

> <Gold.Protein.RotatedAtoms>
  152.5449  134.1193  159.8391 H   0  0  0  0  0  0  0  0  0  0  0  0  # atno 6907 bound_to 6896
  151.1251  133.5069  159.2608 H   0  0  0  0  0  0  0  0  0  0  0  0  # atno 6908 bound_to 6896
  151.1737  135.0339  159.8817 H   0  0  0  0  0  0  0  0  0  0  0  0  # atno 6909 bound_to 6896
  146.1784  140.4211  142.8504 H   0  0  0  0  0  0  0  0  0  0  0  0  # atno 7974 bound_to 7965
  155.4450  140.0534  157.3007 H   0  0  0  0  0  0  0  0  0  0  0  0  # atno 8008 bound_to 7997
  154.4801  140.2078  155.9740 H   0  0  0  0  0  0  0  0  0  0  0  0  # atno 8009 bound_to 7997
  156.1193  140.3191  155.8190 H   0  0  0  0  0  0  0  0  0  0  0  0  # atno 8010 bound_to 7997
  139.5141  144.6404  151.5583 H   0  0  0  0  0  0  0  0  0  0  0  0  # atno 10167 bound_to 10162
  156.9920  131.0150  151.2854 H   0  0  0  0  0  0  0  0  0  0  0  0  # atno 10718 bound_to 10713
  153.1895  135.4462  155.0131 H   0  0  0  0  0  0  0  0  0  0  0  0  # atno 10763 bound_to 10752
  154.8081  135.3283  154.7379 H   0  0  0  0  0  0  0  0  0  0  0  0  # atno 10764 bound_to 10752
  153.7835  135.6975  153.4939 H   0  0  0  0  0  0  0  0  0  0  0  0  # atno 10765 bound_to 10752
  140.0318  134.9348  157.0677 H   0  0  0  0  0  0  0  0  0  0  0  0  # atno 11005 bound_to 11000
  144.8275  140.6652  143.6313 LP  0  0  0  0  0  0  0  0  0  0  0  0  # atno 17320 bound_to 7965
  145.4145  139.1574  143.4108 LP  0  0  0  0  0  0  0  0  0  0  0  0  # atno 17321 bound_to 7965
  140.6169  143.9332  150.6495 LP  0  0  0  0  0  0  0  0  0  0  0  0  # atno 17342 bound_to 10162
  140.2593  143.3536  152.1337 LP  0  0  0  0  0  0  0  0  0  0  0  0  # atno 17343 bound_to 10162
  157.5452  130.8146  149.8076 LP  0  0  0  0  0  0  0  0  0  0  0  0  # atno 17370 bound_to 10713
  156.0203  130.3798  150.1982 LP  0  0  0  0  0  0  0  0  0  0  0  0  # atno 17371 bound_to 10713
  140.4213  134.1878  155.7164 LP  0  0  0  0  0  0  0  0  0  0  0  0  # atno 17394 bound_to 11000
  141.1835  133.8363  157.1172 LP  0  0  0  0  0  0  0  0  0  0  0  0  # atno 17395 bound_to 11000

$$$$
