AV-unprocessed.smi:1669|AV-procd|sdf|6683|dock5
  -GOLD-   22720 7403D 1   1.00000     0.00000
 Structure written by MMmdl.
 48 50  0  0  0  0  0  0  0  0  2 V2000
  146.8137  141.9768  154.9112 C   0  0  0  0  0  0  0  0  0  0  0  0
  147.4765  142.0944  156.2311 N   0  3  1  0  0  0  0  0  0  0  0  0
  146.5128  142.0626  157.3621 C   0  0  0  0  0  0  0  0  0  0  0  0
  145.7245  143.3549  157.4714 C   0  0  0  0  0  0  0  0  0  0  0  0
  144.9345  143.7906  156.3869 C   0  0  0  0  0  0  0  0  0  0  0  0
  144.1976  144.9870  156.4842 C   0  0  0  0  0  0  0  0  0  0  0  0
  144.2498  145.7528  157.6649 C   0  0  0  0  0  0  0  0  0  0  0  0
  145.0404  145.3229  158.7482 C   0  0  0  0  0  0  0  0  0  0  0  0
  145.7774  144.1266  158.6519 C   0  0  0  0  0  0  0  0  0  0  0  0
  148.5811  141.1157  156.3907 C   0  0  0  0  0  0  0  0  0  0  0  0
  149.8754  141.5899  155.6934 C   0  0  2  0  0  0  0  0  0  0  0  0
  149.7072  141.4761  154.2951 O   0  0  0  0  0  0  0  0  0  0  0  0
  151.1288  140.7855  156.0914 C   0  0  0  0  0  0  0  0  0  0  0  0
  151.6369  141.1631  157.4038 N   0  0  0  0  0  0  0  0  0  0  0  0
  152.1351  140.3654  158.3834 C   0  0  0  0  0  0  0  0  0  0  0  0
  152.2455  138.8791  158.2327 C   0  0  0  0  0  0  0  0  0  0  0  0
  153.2282  138.4986  157.2939 O   0  0  0  0  0  0  0  0  0  0  0  0
  152.5162  140.9875  159.4993 N   0  0  0  0  0  0  0  0  0  0  0  0
  152.2543  142.3131  159.2145 C   0  0  0  0  0  0  0  0  0  0  0  0
  152.4395  143.4749  159.9974 C   0  0  0  0  0  0  0  0  0  0  0  0
  152.0913  144.7424  159.4864 C   0  0  0  0  0  0  0  0  0  0  0  0
  151.5564  144.8666  158.1879 C   0  0  0  0  0  0  0  0  0  0  0  0
  151.3639  143.7217  157.3914 C   0  0  0  0  0  0  0  0  0  0  0  0
  151.7089  142.4582  157.9077 C   0  0  0  0  0  0  0  0  0  0  0  0
  146.3151  141.0120  154.8089 H   0  0  0  0  0  0  0  0  0  0  0  0
  147.5410  142.0731  154.1044 H   0  0  0  0  0  0  0  0  0  0  0  0
  146.0720  142.7627  154.7692 H   0  0  0  0  0  0  0  0  0  0  0  0
  145.8378  141.2118  157.2542 H   0  0  0  0  0  0  0  0  0  0  0  0
  147.0326  141.9149  158.3087 H   0  0  0  0  0  0  0  0  0  0  0  0
  144.8898  143.2073  155.4785 H   0  0  0  0  0  0  0  0  0  0  0  0
  143.5918  145.3171  155.6533 H   0  0  0  0  0  0  0  0  0  0  0  0
  143.6845  146.6703  157.7392 H   0  0  0  0  0  0  0  0  0  0  0  0
  145.0812  145.9106  159.6536 H   0  0  0  0  0  0  0  0  0  0  0  0
  146.3803  143.8032  159.4878 H   0  0  0  0  0  0  0  0  0  0  0  0
  148.7380  140.9492  157.4571 H   0  0  0  0  0  0  0  0  0  0  0  0
  148.2977  140.1471  155.9756 H   0  0  0  0  0  0  0  0  0  0  0  0
  150.0580  142.6410  155.9131 H   0  0  0  0  0  0  0  0  0  0  0  0
  149.1553  140.7300  154.1145 H   0  0  0  0  0  0  0  0  0  0  0  0
  150.9173  139.7170  156.0693 H   0  0  0  0  0  0  0  0  0  0  0  0
  151.9252  140.9507  155.3643 H   0  0  0  0  0  0  0  0  0  0  0  0
  152.4966  138.4360  159.1971 H   0  0  0  0  0  0  0  0  0  0  0  0
  151.2805  138.4655  157.9399 H   0  0  0  0  0  0  0  0  0  0  0  0
  153.6127  137.6821  157.5743 H   0  0  0  0  0  0  0  0  0  0  0  0
  152.8510  143.3915  160.9924 H   0  0  0  0  0  0  0  0  0  0  0  0
  152.2377  145.6241  160.0932 H   0  0  0  0  0  0  0  0  0  0  0  0
  151.2956  145.8418  157.8032 H   0  0  0  0  0  0  0  0  0  0  0  0
  150.9577  143.8154  156.3951 H   0  0  0  0  0  0  0  0  0  0  0  0
  147.9143  143.0050  156.2461 H   0  0  0  0  0  0  0  0  0  0  0  0
  1  2  1  0  0  0  0
  1 25  1  0  0  0  0
  1 26  1  0  0  0  0
  1 27  1  0  0  0  0
  2  3  1  0  0  0  0
  2 10  1  0  0  0  0
  2 48  1  0  0  0  0
  3  4  1  0  0  0  0
  3 28  1  0  0  0  0
  3 29  1  0  0  0  0
  4  9  1  0  0  0  0
  4  5  2  0  0  0  0
  5  6  1  0  0  0  0
  5 30  1  0  0  0  0
  6  7  2  0  0  0  0
  6 31  1  0  0  0  0
  7  8  1  0  0  0  0
  7 32  1  0  0  0  0
  8  9  2  0  0  0  0
  8 33  1  0  0  0  0
  9 34  1  0  0  0  0
 10 11  1  0  0  0  0
 10 35  1  0  0  0  0
 10 36  1  0  0  0  0
 11 12  1  0  0  0  0
 11 13  1  0  0  0  0
 11 37  1  0  0  0  0
 12 38  1  0  0  0  0
 13 14  1  0  0  0  0
 13 39  1  0  0  0  0
 13 40  1  0  0  0  0
 14 24  1  0  0  0  0
 14 15  1  0  0  0  0
 15 16  1  0  0  0  0
 15 18  2  0  0  0  0
 16 17  1  0  0  0  0
 16 41  1  0  0  0  0
 16 42  1  0  0  0  0
 17 43  1  0  0  0  0
 18 19  1  0  0  0  0
 19 24  2  0  0  0  0
 19 20  1  0  0  0  0
 20 21  2  0  0  0  0
 20 44  1  0  0  0  0
 21 22  1  0  0  0  0
 21 45  1  0  0  0  0
 22 23  2  0  0  0  0
 22 46  1  0  0  0  0
 23 24  1  0  0  0  0
 23 47  1  0  0  0  0
M  CHG  1   2   1
M  END
> <s_m_source_file>
AV-unprocessed.smi

> <i_m_source_file_index>
1669

> <i_lp_mmshare_version>
43012

> <i_f3d_flags>
0

> <s_epik_input>
W2NIXTFbY0hdW2NIXVtjSF1bY0hdYzFbQ0gyXU4oW0NIM10pW0NIMl1bQ0BIXShbT0hdKVtDSDJdbihjKG4yKVtDSDJdW09IXSljKGMyMylbY0hdW2NIXVtjSF1bY0hdMw==

> <s_epik_cmdline>
J2VwaWtfcHl0aG9uJywgJy1waCcsICc3LjAnLCAnLXRuJywgJzgnLCAnLW1hJywgJzIwMCcsICctbWV0YWxfYmluZGluZycsICctaW1hZScsICc8aW5maWxlLm1hZT4nLCAnLW9tYWUnLCAnPG91dGZpbGUubWFlPic=

> <r_epik_Ionization_Penalty>
0.0949884

> <r_epik_Ionization_Penalty_Charging>
0.0475377

> <r_epik_Ionization_Penalty_Neutral>
0.0474507

> <r_epik_State_Penalty>
0.078247

> <r_epik_Charging_Adjusted_Penalty>
0.125785

> <i_epik_Tot_Q>
1

> <i_epik_Tot_abs_Q>
1

> <r_epik_Metal_State_Penalty>
0.0403451

> <b_epik_Metal_Only>
0

> <s_lp_Force_Field>
OPLS_2005

> <r_lp_Energy>
16.111

> <b_lp_Chiralities_Consistent>
1

> <s_lp_Variant>
AV-unprocessed.smi:1669-1

> <Gold.Version>
5.8.1

> <Gold.Id.Protein>
6NUR|6NUR_protein|mol2

> <Gold.PLP.Fitness>
52.5112

> <Gold.PLP.PLP>
-43.6674

> <Gold.PLP.part.hbond>
-4.0000

> <Gold.PLP.part.metal>
0.0000

> <Gold.PLP.part.buried>
-2.0057

> <Gold.PLP.part.nonpolar>
-37.2593

> <Gold.PLP.part.repulsive>
0.0093

> <Gold.PLP.ligand.clash>
0.0048

> <Gold.PLP.ligand.torsion>
1.0196

> <Gold.PLP.Chemscore.Hbond>
3.6040

> <Gold.PLP.Chemscore.CHOScore>
0.0000

> <Gold.PLP.Chemscore.Metal>
0.0000

> <Gold.Chemscore.Hbonds>
donor molecule, donor type, donor heavy atom, donor atom, acceptor molecule, acceptor atom, score
      L1  H     2    48       P1  8028  1.98
      P1  H  7989  7998       L1    12  0.23
      P1  H  7997  8009       L1    17  1.00
      P1  H  8011  8017       L1    12  0.38

> <Gold.PLP.Chemscore.Internal.Correction>
0.0759

> <Gold.Rescore>
     Score         DG    S(hbond)    S(metal)    S(lipo)     H(rot)  DE(clash)    DE(int)     intcor
     13.31     -15.05       1.39        0.00     111.70       3.17       0.39       1.36       ----

> <Gold.Chemscore.Fitness>
13.3065

> <Gold.Chemscore.DG>
-15.0548

> <Gold.Chemscore.ZeroCoef>
-5.4800

> <Gold.Chemscore.Hbond>
1.3858

> <Gold.Chemscore.Metal>
0.0000

> <Gold.Chemscore.Lipo>
111.7030

> <Gold.Chemscore.Internal_Hbond>
0.0000

> <Gold.Chemscore.DEClash>
0.3879

> <Gold.Chemscore.DEInternal>
1.3604

> <Gold.Chemscore.Rot>
3.1731

> <Gold.Chemscore.Internal.Correction>
   9.000000E+99

> <Gold.Chemscore.Hbonds>
donor molecule, donor type, donor heavy atom, donor atom, acceptor molecule, acceptor atom, score
      L1  H     2    48       P1  8028  0.32
      P1  H  7989  7998       L1    12  0.06
      P1  H  7997  8009       L1    17  0.73
      P1  H  8011  8017       L1    12  0.13

> <Gold.Chemscore.Hbond.Weighted>
-4.6286

> <Gold.Chemscore.Metal.Weighted>
-0.0000

> <Gold.Chemscore.Lipo.Weighted>
-13.0693

> <Gold.Chemscore.Internal_Hbond.Weighted>
0.0000

> <Gold.Chemscore.DEClash.Weighted>
0.3879

> <Gold.Chemscore.DEInternal.Weighted>
1.3604

> <Gold.Chemscore.Rot.Weighted>
8.1230

> <Gold.Chemscore.Internal.Correction.Weighted>
   9.000000E+99

> <Gold.Protein.RotatedTorsions>
[ 6907 6896 6895 6894 ] final -142.71 input  -60.11 | X-H torsion
[ 7974 7965 7964 7962 ] final  -55.50 input  175.53 | X-H torsion
[ 8008 7997 7996 7995 ] final  170.01 input   59.86 | X-H torsion
[ 10167 10162 10161 10158 ] final  -93.14 input  -65.29 | X-H torsion
[ 10718 10713 10712 10709 ] final   82.66 input   66.30 | X-H torsion
[ 10763 10752 10751 10750 ] final   74.61 input  -60.55 | X-H torsion
[ 11005 11000 10999 10996 ] final   29.26 input  -57.11 | X-H torsion

> <Gold.Protein.ActiveResidues>
 VAL166  LYS551  ARG553  GLY616  TRP617  ASP618  TYR619  PRO620  LYS621  CYS622 
 ASP623  PHE694  ASN695  SER759  ASP760  ASP761  ALA762  ILE779  LEU786  VAL792 
 PHE793  MET794  SER795  GLU796  ALA797  LYS798  CYS799  TRP800  GLU811  SER814 

> <Gold.Protein.RotatedAtoms>
  151.0907  133.5318  159.2614 H   0  0  0  0  0  0  0  0  0  0  0  0  # atno 6907 bound_to 6896
  151.2186  135.0509  159.8950 H   0  0  0  0  0  0  0  0  0  0  0  0  # atno 6908 bound_to 6896
  152.5434  134.0713  159.8248 H   0  0  0  0  0  0  0  0  0  0  0  0  # atno 6909 bound_to 6896
  145.8734  140.8199  142.9876 H   0  0  0  0  0  0  0  0  0  0  0  0  # atno 7974 bound_to 7965
  156.1405  140.1549  156.8928 H   0  0  0  0  0  0  0  0  0  0  0  0  # atno 8008 bound_to 7997
  154.4983  140.0832  156.7783 H   0  0  0  0  0  0  0  0  0  0  0  0  # atno 8009 bound_to 7997
  155.4087  140.3418  155.4264 H   0  0  0  0  0  0  0  0  0  0  0  0  # atno 8010 bound_to 7997
  140.3277  143.3012  151.9976 H   0  0  0  0  0  0  0  0  0  0  0  0  # atno 10167 bound_to 10162
  157.6862  131.0057  150.2407 H   0  0  0  0  0  0  0  0  0  0  0  0  # atno 10718 bound_to 10713
  153.0598  135.5019  154.8067 H   0  0  0  0  0  0  0  0  0  0  0  0  # atno 10763 bound_to 10752
  154.6865  135.2977  154.9542 H   0  0  0  0  0  0  0  0  0  0  0  0  # atno 10764 bound_to 10752
  154.0311  135.6729  153.4833 H   0  0  0  0  0  0  0  0  0  0  0  0  # atno 10765 bound_to 10752
  140.3068  134.2695  155.7742 H   0  0  0  0  0  0  0  0  0  0  0  0  # atno 11005 bound_to 11000
  144.6726  140.1274  143.7446 LP  0  0  0  0  0  0  0  0  0  0  0  0  # atno 17320 bound_to 7965
  145.9109  139.2487  143.1438 LP  0  0  0  0  0  0  0  0  0  0  0  0  # atno 17321 bound_to 7965
  139.4862  144.6260  151.7163 LP  0  0  0  0  0  0  0  0  0  0  0  0  # atno 17342 bound_to 10162
  140.5426  144.0555  150.6094 LP  0  0  0  0  0  0  0  0  0  0  0  0  # atno 17343 bound_to 10162
  156.3022  130.3760  149.7740 LP  0  0  0  0  0  0  0  0  0  0  0  0  # atno 17370 bound_to 10713
  156.5366  130.8281  151.3255 LP  0  0  0  0  0  0  0  0  0  0  0  0  # atno 17371 bound_to 10713
  141.2117  133.7682  156.9848 LP  0  0  0  0  0  0  0  0  0  0  0  0  # atno 17394 bound_to 11000
  140.1060  134.9506  157.1995 LP  0  0  0  0  0  0  0  0  0  0  0  0  # atno 17395 bound_to 11000

$$$$
