AV-unprocessed.smi:490|AV-procd|sdf|2704|dock8
  -GOLD-   2262023143D 1   1.00000     0.00000
 Structure written by MMmdl.
 49 51  0  0  0  0  0  0  0  0  1 V2000
  144.6138  135.2910  150.8926 C   0  0  0  0  0  0  0  0  0  0  0  0
  145.6126  134.4180  151.6328 C   0  0  0  0  0  0  0  0  0  0  0  0
  145.9891  133.1815  151.0700 C   0  0  0  0  0  0  0  0  0  0  0  0
  146.9122  132.3507  151.7287 C   0  0  0  0  0  0  0  0  0  0  0  0
  147.4783  132.7538  152.9534 C   0  0  0  0  0  0  0  0  0  0  0  0
  148.4760  131.8517  153.6551 C   0  0  0  0  0  0  0  0  0  0  0  0
  147.1195  133.9979  153.5192 C   0  0  0  0  0  0  0  0  0  0  0  0
  147.6934  134.3769  154.7065 O   0  0  0  0  0  0  0  0  0  0  0  0
  149.0878  134.6373  154.6129 C   0  0  0  0  0  0  0  0  0  0  0  0
  149.3938  135.9685  155.3244 C   0  0  1  0  0  0  0  0  0  0  0  0
  149.5847  135.7084  156.6994 O   0  0  0  0  0  0  0  0  0  0  0  0
  150.6542  136.6904  154.8003 C   0  0  0  0  0  0  0  0  0  0  0  0
  150.5113  138.1417  154.7789 N   0  0  0  0  0  0  0  0  0  0  0  0
  151.4738  139.0795  154.9731 C   0  0  0  0  0  0  0  0  0  0  0  0
  152.9074  138.7211  155.2223 C   0  0  0  0  0  0  0  0  0  0  0  0
  153.3417  139.0839  156.5153 O   0  0  0  0  0  0  0  0  0  0  0  0
  151.0687  140.3484  154.9161 N   0  0  0  0  0  0  0  0  0  0  0  0
  149.7213  140.2253  154.6418 C   0  0  0  0  0  0  0  0  0  0  0  0
  148.7280  141.2147  154.4640 C   0  0  0  0  0  0  0  0  0  0  0  0
  147.3954  140.8467  154.1865 C   0  0  0  0  0  0  0  0  0  0  0  0
  147.0382  139.4871  154.0805 C   0  0  0  0  0  0  0  0  0  0  0  0
  148.0124  138.4855  154.2542 C   0  0  0  0  0  0  0  0  0  0  0  0
  149.3409  138.8573  154.5377 C   0  0  0  0  0  0  0  0  0  0  0  0
  146.1676  134.8274  152.8708 C   0  0  0  0  0  0  0  0  0  0  0  0
  145.7404  136.1499  153.4957 C   0  0  0  0  0  0  0  0  0  0  0  0
  144.3693  134.8745  149.9150 H   0  0  0  0  0  0  0  0  0  0  0  0
  145.0202  136.2907  150.7358 H   0  0  0  0  0  0  0  0  0  0  0  0
  143.6876  135.3770  151.4609 H   0  0  0  0  0  0  0  0  0  0  0  0
  145.5677  132.8607  150.1286 H   0  0  0  0  0  0  0  0  0  0  0  0
  147.1854  131.4037  151.2866 H   0  0  0  0  0  0  0  0  0  0  0  0
  148.1659  131.6703  154.6845 H   0  0  0  0  0  0  0  0  0  0  0  0
  149.4620  132.3159  153.6691 H   0  0  0  0  0  0  0  0  0  0  0  0
  148.5617  130.8872  153.1543 H   0  0  0  0  0  0  0  0  0  0  0  0
  149.6642  133.8133  155.0359 H   0  0  0  0  0  0  0  0  0  0  0  0
  149.3723  134.6959  153.5646 H   0  0  0  0  0  0  0  0  0  0  0  0
  148.5367  136.6338  155.2247 H   0  0  0  0  0  0  0  0  0  0  0  0
  149.0109  136.2747  157.1928 H   0  0  0  0  0  0  0  0  0  0  0  0
  151.5168  136.4401  155.4183 H   0  0  0  0  0  0  0  0  0  0  0  0
  150.8963  136.3459  153.7942 H   0  0  0  0  0  0  0  0  0  0  0  0
  153.0348  137.6444  155.1032 H   0  0  0  0  0  0  0  0  0  0  0  0
  153.5488  139.1935  154.4800 H   0  0  0  0  0  0  0  0  0  0  0  0
  152.6910  138.8026  157.1401 H   0  0  0  0  0  0  0  0  0  0  0  0
  148.9925  142.2589  154.5413 H   0  0  0  0  0  0  0  0  0  0  0  0
  146.6440  141.6111  154.0535 H   0  0  0  0  0  0  0  0  0  0  0  0
  146.0152  139.2134  153.8675 H   0  0  0  0  0  0  0  0  0  0  0  0
  147.7393  137.4434  154.1787 H   0  0  0  0  0  0  0  0  0  0  0  0
  146.0703  136.2489  154.5293 H   0  0  0  0  0  0  0  0  0  0  0  0
  144.6546  136.2434  153.4990 H   0  0  0  0  0  0  0  0  0  0  0  0
  146.1551  136.9832  152.9285 H   0  0  0  0  0  0  0  0  0  0  0  0
  1  2  1  0  0  0  0
  1 26  1  0  0  0  0
  1 27  1  0  0  0  0
  1 28  1  0  0  0  0
  2 24  1  0  0  0  0
  2  3  2  0  0  0  0
  3  4  1  0  0  0  0
  3 29  1  0  0  0  0
  4  5  2  0  0  0  0
  4 30  1  0  0  0  0
  5  6  1  0  0  0  0
  5  7  1  0  0  0  0
  6 31  1  0  0  0  0
  6 32  1  0  0  0  0
  6 33  1  0  0  0  0
  7  8  1  0  0  0  0
  7 24  2  0  0  0  0
  8  9  1  0  0  0  0
  9 10  1  0  0  0  0
  9 34  1  0  0  0  0
  9 35  1  0  0  0  0
 10 11  1  0  0  0  0
 10 12  1  0  0  0  0
 10 36  1  0  0  0  0
 11 37  1  0  0  0  0
 12 13  1  0  0  0  0
 12 38  1  0  0  0  0
 12 39  1  0  0  0  0
 13 23  1  0  0  0  0
 13 14  1  0  0  0  0
 14 15  1  0  0  0  0
 14 17  2  0  0  0  0
 15 16  1  0  0  0  0
 15 40  1  0  0  0  0
 15 41  1  0  0  0  0
 16 42  1  0  0  0  0
 17 18  1  0  0  0  0
 18 23  2  0  0  0  0
 18 19  1  0  0  0  0
 19 20  2  0  0  0  0
 19 43  1  0  0  0  0
 20 21  1  0  0  0  0
 20 44  1  0  0  0  0
 21 22  2  0  0  0  0
 21 45  1  0  0  0  0
 22 23  1  0  0  0  0
 22 46  1  0  0  0  0
 24 25  1  0  0  0  0
 25 47  1  0  0  0  0
 25 48  1  0  0  0  0
 25 49  1  0  0  0  0
M  END
> <s_m_source_file>
AV-unprocessed.smi

> <i_m_source_file_index>
490

> <i_lp_mmshare_version>
43012

> <i_f3d_flags>
0

> <s_epik_input>
W0NIM11jMVtjSF1bY0hdYyhbQ0gzXSljKGMxW0NIM10pT1tDSDJdW0NASF0oW09IXSlbQ0gyXW4oYyhuMilbQ0gyXVtPSF0pYyhjMjMpW2NIXVtjSF1bY0hdW2NIXTM=

> <s_epik_cmdline>
J2VwaWtfcHl0aG9uJywgJy1waCcsICc3LjAnLCAnLXRuJywgJzgnLCAnLW1hJywgJzIwMCcsICctbWV0YWxfYmluZGluZycsICctaW1hZScsICc8aW5maWxlLm1hZT4nLCAnLW9tYWUnLCAnPG91dGZpbGUubWFlPic=

> <r_lp_tautomer_probability>
1

> <r_epik_Ionization_Penalty>
0.0555874

> <r_epik_Ionization_Penalty_Charging>
0

> <r_epik_Ionization_Penalty_Neutral>
0.0555874

> <r_epik_State_Penalty>
0.0478234

> <r_epik_Charging_Adjusted_Penalty>
0.0478234

> <i_epik_Tot_Q>
0

> <i_epik_Tot_abs_Q>
0

> <r_epik_Metal_State_Penalty>
4.98044e-05

> <b_epik_Metal_Only>
0

> <s_lp_Force_Field>
OPLS_2005

> <r_lp_Energy>
21.221

> <b_lp_Chiralities_Consistent>
1

> <s_lp_Variant>
AV-unprocessed.smi:490-2

> <Gold.Version>
5.8.1

> <Gold.Id.Protein>
6NUR|6NUR_protein|mol2

> <Gold.PLP.Fitness>
45.4281

> <Gold.PLP.PLP>
-42.4144

> <Gold.PLP.part.hbond>
-1.8897

> <Gold.PLP.part.metal>
0.0000

> <Gold.PLP.part.buried>
0.1843

> <Gold.PLP.part.nonpolar>
-40.7444

> <Gold.PLP.part.repulsive>
0.1491

> <Gold.PLP.ligand.clash>
0.0000

> <Gold.PLP.ligand.torsion>
1.5733

> <Gold.PLP.Chemscore.Hbond>
2.0000

> <Gold.PLP.Chemscore.CHOScore>
0.0000

> <Gold.PLP.Chemscore.Metal>
0.0000

> <Gold.Chemscore.Hbonds>
donor molecule, donor type, donor heavy atom, donor atom, acceptor molecule, acceptor atom, score
      P1  H  7989  7998       L1    17  1.00
      P1  H  7997  8009       L1    16  0.73

> <Gold.PLP.Chemscore.Internal.Correction>
0.1603

> <Gold.Rescore>
     Score         DG    S(hbond)    S(metal)    S(lipo)     H(rot)  DE(clash)    DE(int)     intcor
     12.92     -15.68       1.71        0.00     102.34       2.93       0.07       2.68       ----

> <Gold.Chemscore.Fitness>
12.9240

> <Gold.Chemscore.DG>
-15.6761

> <Gold.Chemscore.ZeroCoef>
-5.4800

> <Gold.Chemscore.Hbond>
1.7119

> <Gold.Chemscore.Metal>
0.0000

> <Gold.Chemscore.Lipo>
102.3392

> <Gold.Chemscore.Internal_Hbond>
0.0000

> <Gold.Chemscore.DEClash>
0.0731

> <Gold.Chemscore.DEInternal>
2.6791

> <Gold.Chemscore.Rot>
2.9279

> <Gold.Chemscore.Internal.Correction>
   9.000000E+99

> <Gold.Chemscore.Hbonds>
donor molecule, donor type, donor heavy atom, donor atom, acceptor molecule, acceptor atom, score
      P1  H  7989  7998       L1    17  0.15
      P1  H  7997  8009       L1    16  0.57

> <Gold.Chemscore.Hbond.Weighted>
-5.7179

> <Gold.Chemscore.Metal.Weighted>
-0.0000

> <Gold.Chemscore.Lipo.Weighted>
-11.9737

> <Gold.Chemscore.Internal_Hbond.Weighted>
0.0000

> <Gold.Chemscore.DEClash.Weighted>
0.0731

> <Gold.Chemscore.DEInternal.Weighted>
2.6791

> <Gold.Chemscore.Rot.Weighted>
7.4954

> <Gold.Chemscore.Internal.Correction.Weighted>
   9.000000E+99

> <Gold.Protein.RotatedTorsions>
[ 6907 6896 6895 6894 ] final  -18.13 input  -60.11 | X-H torsion
[ 7974 7965 7964 7962 ] final   27.56 input  175.53 | X-H torsion
[ 8008 7997 7996 7995 ] final -168.46 input   59.86 | X-H torsion
[ 10167 10162 10161 10158 ] final   35.08 input  -65.29 | X-H torsion
[ 10718 10713 10712 10709 ] final  -56.29 input   66.30 | X-H torsion
[ 10763 10752 10751 10750 ] final  112.35 input  -60.55 | X-H torsion
[ 11005 11000 10999 10996 ] final  -55.18 input  -57.11 | X-H torsion

> <Gold.Protein.ActiveResidues>
 VAL166  LYS551  ARG553  GLY616  TRP617  ASP618  TYR619  PRO620  LYS621  CYS622 
 ASP623  PHE694  ASN695  SER759  ASP760  ASP761  ALA762  ILE779  LEU786  VAL792 
 PHE793  MET794  SER795  GLU796  ALA797  LYS798  CYS799  TRP800  GLU811  SER814 

> <Gold.Protein.RotatedAtoms>
  151.2828  135.0719  159.9175 H   0  0  0  0  0  0  0  0  0  0  0  0  # atno 6907 bound_to 6896
  152.5331  134.0013  159.7906 H   0  0  0  0  0  0  0  0  0  0  0  0  # atno 6908 bound_to 6896
  151.0269  133.5774  159.2695 H   0  0  0  0  0  0  0  0  0  0  0  0  # atno 6909 bound_to 6896
  146.1777  139.7175  142.8922 H   0  0  0  0  0  0  0  0  0  0  0  0  # atno 7974 bound_to 7965
  155.8918  140.1026  157.1413 H   0  0  0  0  0  0  0  0  0  0  0  0  # atno 8008 bound_to 7997
  154.4016  140.1309  156.4389 H   0  0  0  0  0  0  0  0  0  0  0  0  # atno 8009 bound_to 7997
  155.7525  140.3465  155.5160 H   0  0  0  0  0  0  0  0  0  0  0  0  # atno 8010 bound_to 7997
  140.4256  144.1398  150.6153 H   0  0  0  0  0  0  0  0  0  0  0  0  # atno 10167 bound_to 10162
  156.1300  130.4160  150.0285 H   0  0  0  0  0  0  0  0  0  0  0  0  # atno 10718 bound_to 10713
  153.4766  135.3689  155.2419 H   0  0  0  0  0  0  0  0  0  0  0  0  # atno 10763 bound_to 10752
  154.8756  135.3944  154.3749 H   0  0  0  0  0  0  0  0  0  0  0  0  # atno 10764 bound_to 10752
  153.4346  135.7083  153.6273 H   0  0  0  0  0  0  0  0  0  0  0  0  # atno 10765 bound_to 10752
  141.1062  133.6613  156.4431 H   0  0  0  0  0  0  0  0  0  0  0  0  # atno 11005 bound_to 11000
  145.4164  141.0402  143.2988 LP  0  0  0  0  0  0  0  0  0  0  0  0  # atno 17320 bound_to 7965
  144.8263  139.5704  143.6964 LP  0  0  0  0  0  0  0  0  0  0  0  0  # atno 17321 bound_to 7965
  140.4485  143.2496  151.9379 LP  0  0  0  0  0  0  0  0  0  0  0  0  # atno 17342 bound_to 10162
  139.4783  144.5585  151.8276 LP  0  0  0  0  0  0  0  0  0  0  0  0  # atno 17343 bound_to 10162
  156.8200  130.9355  151.3641 LP  0  0  0  0  0  0  0  0  0  0  0  0  # atno 17370 bound_to 10713
  157.6479  130.8860  149.9575 LP  0  0  0  0  0  0  0  0  0  0  0  0  # atno 17371 bound_to 10713
  140.4897  134.6587  157.5205 LP  0  0  0  0  0  0  0  0  0  0  0  0  # atno 17394 bound_to 11000
  139.9933  134.6951  155.9653 LP  0  0  0  0  0  0  0  0  0  0  0  0  # atno 17395 bound_to 11000

$$$$
