AV-unprocessed.smi:134|AV-procd|sdf|1168|dock9
  -GOLD-   2262018313D 1   1.00000     0.00000
 Structure written by MMmdl.
 51 54  0  0  0  0  0  0  0  0  1 V2000
  149.6429  134.2219  157.7121 O   0  0  0  0  0  0  0  0  0  0  0  0
  149.4669  133.0174  157.5365 C   0  0  0  0  0  0  0  0  0  0  0  0
  150.1455  132.3432  156.3290 C   0  0  0  0  0  0  0  0  0  0  0  0
  149.2211  131.8546  155.2781 N   0  0  0  0  0  0  0  0  0  0  0  0
  149.1285  130.4583  155.0515 C   0  0  0  0  0  0  0  0  0  0  0  0
  149.7927  129.6601  155.7137 O   0  0  0  0  0  0  0  0  0  0  0  0
  148.2190  130.0505  153.9871 C   0  0  0  0  0  0  0  0  0  0  0  0
  148.0745  128.7461  153.6985 F   0  0  0  0  0  0  0  0  0  0  0  0
  147.5224  130.9642  153.2810 C   0  0  0  0  0  0  0  0  0  0  0  0
  147.6182  132.3243  153.5151 N   0  0  0  0  0  0  0  0  0  0  0  0
  146.8170  133.3269  152.7104 C   0  0  1  0  0  0  0  0  0  0  0  0
  146.9037  133.0016  151.2166 C   0  0  0  0  0  0  0  0  0  0  0  0
  145.7197  132.0792  151.0339 C   0  0  0  0  0  0  0  0  0  0  0  0
  144.7054  132.6877  151.9968 C   0  0  0  0  0  0  0  0  0  0  0  0
  145.4682  133.2380  153.0704 O   0  0  0  0  0  0  0  0  0  0  0  0
  148.4860  132.7993  154.5225 C   0  0  0  0  0  0  0  0  0  0  0  0
  148.6048  134.0087  154.7294 O   0  0  0  0  0  0  0  0  0  0  0  0
  148.7315  132.2374  158.3520 N   0  0  0  0  0  0  0  0  0  0  0  0
  147.9959  132.5959  159.5147 C   0  0  0  0  0  0  0  0  0  0  0  0
  147.4045  133.8721  159.6784 C   0  0  0  0  0  0  0  0  0  0  0  0
  146.6556  134.1672  160.8339 C   0  0  0  0  0  0  0  0  0  0  0  0
  146.4800  133.1904  161.8311 C   0  0  0  0  0  0  0  0  0  0  0  0
  147.0494  131.9138  161.6705 C   0  0  0  0  0  0  0  0  0  0  0  0
  147.8019  131.6144  160.5171 C   0  0  0  0  0  0  0  0  0  0  0  0
  148.5089  130.0013  160.3529 S   0  0  0  0  0  0  0  0  0  0  0  0
  148.2066  129.3661  161.9685 C   0  0  0  0  0  0  0  0  0  0  0  0
  146.9290  128.8778  162.3074 C   0  0  0  0  0  0  0  0  0  0  0  0
  146.6862  128.3868  163.6045 C   0  0  0  0  0  0  0  0  0  0  0  0
  147.7214  128.3800  164.5604 C   0  0  0  0  0  0  0  0  0  0  0  0
  147.4228  127.7821  166.1509 Cl  0  0  0  0  0  0  0  0  0  0  0  0
  149.0006  128.8621  164.2179 C   0  0  0  0  0  0  0  0  0  0  0  0
  149.2443  129.3550  162.9211 C   0  0  0  0  0  0  0  0  0  0  0  0
  150.8602  133.0517  155.9076 H   0  0  0  0  0  0  0  0  0  0  0  0
  150.7752  131.5350  156.7040 H   0  0  0  0  0  0  0  0  0  0  0  0
  146.8705  130.6009  152.5009 H   0  0  0  0  0  0  0  0  0  0  0  0
  147.2117  134.3083  152.9786 H   0  0  0  0  0  0  0  0  0  0  0  0
  146.7658  133.9226  150.6490 H   0  0  0  0  0  0  0  0  0  0  0  0
  147.8581  132.5563  150.9432 H   0  0  0  0  0  0  0  0  0  0  0  0
  145.3620  132.0393  150.0049 H   0  0  0  0  0  0  0  0  0  0  0  0
  145.9801  131.0666  151.3446 H   0  0  0  0  0  0  0  0  0  0  0  0
  144.1602  133.4970  151.5097 H   0  0  0  0  0  0  0  0  0  0  0  0
  143.9793  131.9579  152.3554 H   0  0  0  0  0  0  0  0  0  0  0  0
  148.7591  131.2480  158.1518 H   0  0  0  0  0  0  0  0  0  0  0  0
  147.4984  134.6349  158.9208 H   0  0  0  0  0  0  0  0  0  0  0  0
  146.2085  135.1434  160.9506 H   0  0  0  0  0  0  0  0  0  0  0  0
  145.9038  133.4182  162.7158 H   0  0  0  0  0  0  0  0  0  0  0  0
  146.9097  131.1649  162.4363 H   0  0  0  0  0  0  0  0  0  0  0  0
  146.1335  128.8803  161.5780 H   0  0  0  0  0  0  0  0  0  0  0  0
  145.7054  128.0165  163.8644 H   0  0  0  0  0  0  0  0  0  0  0  0
  149.7953  128.8564  164.9494 H   0  0  0  0  0  0  0  0  0  0  0  0
  150.2248  129.7270  162.6620 H   0  0  0  0  0  0  0  0  0  0  0  0
  1  2  2  0  0  0  0
  2  3  1  0  0  0  0
  2 18  1  0  0  0  0
  3  4  1  0  0  0  0
  3 33  1  0  0  0  0
  3 34  1  0  0  0  0
  4 16  1  0  0  0  0
  4  5  1  0  0  0  0
  5  6  2  0  0  0  0
  5  7  1  0  0  0  0
  7  8  1  0  0  0  0
  7  9  2  0  0  0  0
  9 10  1  0  0  0  0
  9 35  1  0  0  0  0
 10 11  1  0  0  0  0
 10 16  1  0  0  0  0
 11 15  1  0  0  0  0
 11 12  1  0  0  0  0
 11 36  1  0  0  0  0
 12 13  1  0  0  0  0
 12 37  1  0  0  0  0
 12 38  1  0  0  0  0
 13 14  1  0  0  0  0
 13 39  1  0  0  0  0
 13 40  1  0  0  0  0
 14 15  1  0  0  0  0
 14 41  1  0  0  0  0
 14 42  1  0  0  0  0
 16 17  2  0  0  0  0
 18 19  1  0  0  0  0
 18 43  1  0  0  0  0
 19 24  1  0  0  0  0
 19 20  2  0  0  0  0
 20 21  1  0  0  0  0
 20 44  1  0  0  0  0
 21 22  2  0  0  0  0
 21 45  1  0  0  0  0
 22 23  1  0  0  0  0
 22 46  1  0  0  0  0
 23 24  2  0  0  0  0
 23 47  1  0  0  0  0
 24 25  1  0  0  0  0
 25 26  1  0  0  0  0
 26 32  1  0  0  0  0
 26 27  2  0  0  0  0
 27 28  1  0  0  0  0
 27 48  1  0  0  0  0
 28 29  2  0  0  0  0
 28 49  1  0  0  0  0
 29 30  1  0  0  0  0
 29 31  1  0  0  0  0
 31 32  2  0  0  0  0
 31 50  1  0  0  0  0
 32 51  1  0  0  0  0
M  END
> <s_m_source_file>
AV-unprocessed.smi

> <i_m_source_file_index>
134

> <i_lp_mmshare_version>
43012

> <i_f3d_flags>
0

> <s_epik_input>
TzFbQ0gyXVtDSDJdW0NIMl1bQ0BIXTFuKGMyPU8pW2NIXWMoRiljKD1PKW4yW0NIMl1DKD1PKVtOSF1jM1tjSF1bY0hdW2NIXVtjSF1jM1NjNFtjSF1bY0hdYyhDbClbY0hdW2NIXTQ=

> <s_epik_cmdline>
J2VwaWtfcHl0aG9uJywgJy1waCcsICc3LjAnLCAnLXRuJywgJzgnLCAnLW1hJywgJzIwMCcsICctbWV0YWxfYmluZGluZycsICctaW1hZScsICc8aW5maWxlLm1hZT4nLCAnLW9tYWUnLCAnPG91dGZpbGUubWFlPic=

> <r_lp_tautomer_probability>
1

> <r_epik_Ionization_Penalty>
2.01717e-06

> <r_epik_Ionization_Penalty_Charging>
3.88729e-08

> <r_epik_Ionization_Penalty_Neutral>
1.9783e-06

> <r_epik_State_Penalty>
-0

> <r_epik_Charging_Adjusted_Penalty>
3.88729e-08

> <i_epik_Tot_Q>
0

> <i_epik_Tot_abs_Q>
0

> <r_epik_Metal_State_Penalty>
-0

> <b_epik_Metal_Only>
0

> <s_epik_Chemistry_Notes>
This compound contains an acetal/aminal-like group ( X-CH(R)-Y where X, Y are N, S, or O) that may be acid/base labile, releasing an aldehyde.

> <s_lp_Force_Field>
OPLS_2005

> <r_lp_Energy>
34.7756

> <b_lp_Chiralities_Consistent>
1

> <s_lp_Variant>
AV-unprocessed.smi:134-2

> <Gold.Version>
5.8.1

> <Gold.Id.Protein>
6NUR|6NUR_protein|mol2

> <Gold.PLP.Fitness>
45.8481

> <Gold.PLP.PLP>
-45.8933

> <Gold.PLP.part.hbond>
-0.7101

> <Gold.PLP.part.metal>
0.0000

> <Gold.PLP.part.buried>
-2.7681

> <Gold.PLP.part.nonpolar>
-42.7419

> <Gold.PLP.part.repulsive>
0.3232

> <Gold.PLP.ligand.clash>
0.0000

> <Gold.PLP.ligand.torsion>
0.9122

> <Gold.PLP.Chemscore.Hbond>
0.0000

> <Gold.PLP.Chemscore.CHOScore>
0.5626

> <Gold.PLP.Chemscore.Metal>
0.0000

> <Gold.Chemscore.Hbonds>
donor molecule, donor type, donor heavy atom, donor atom, acceptor molecule, acceptor atom, score
      P1  H  6896  6909       L1     1  0.95

> <Gold.PLP.Chemscore.Internal.Correction>
0.0912

> <Gold.Rescore>
     Score         DG    S(hbond)    S(metal)    S(lipo)     H(rot)  DE(clash)    DE(int)     intcor
     11.10     -13.77       0.00        0.00     113.64       1.95       0.17       2.50       ----

> <Gold.Chemscore.Fitness>
11.1043

> <Gold.Chemscore.DG>
-13.7712

> <Gold.Chemscore.ZeroCoef>
-5.4800

> <Gold.Chemscore.Hbond>
0.0000

> <Gold.Chemscore.Metal>
0.0000

> <Gold.Chemscore.Lipo>
113.6401

> <Gold.Chemscore.Internal_Hbond>
0.0000

> <Gold.Chemscore.DEClash>
0.1660

> <Gold.Chemscore.DEInternal>
2.5009

> <Gold.Chemscore.Rot>
1.9549

> <Gold.Chemscore.Internal.Correction>
   9.000000E+99

> <Gold.Chemscore.Hbonds>
donor molecule, donor type, donor heavy atom, donor atom, acceptor molecule, acceptor atom, score
      P1  H  6896  6909       L1     1  0.21

> <Gold.Chemscore.Hbond.Weighted>
-0.0000

> <Gold.Chemscore.Metal.Weighted>
-0.0000

> <Gold.Chemscore.Lipo.Weighted>
-13.2959

> <Gold.Chemscore.Internal_Hbond.Weighted>
0.0000

> <Gold.Chemscore.DEClash.Weighted>
0.1660

> <Gold.Chemscore.DEInternal.Weighted>
2.5009

> <Gold.Chemscore.Rot.Weighted>
5.0046

> <Gold.Chemscore.Internal.Correction.Weighted>
   9.000000E+99

> <Gold.Protein.RotatedTorsions>
[ 6907 6896 6895 6894 ] final   23.89 input  -60.11 | X-H torsion
[ 7974 7965 7964 7962 ] final   54.72 input  175.53 | X-H torsion
[ 8008 7997 7996 7995 ] final  -97.40 input   59.86 | X-H torsion
[ 10167 10162 10161 10158 ] final -150.85 input  -65.29 | X-H torsion
[ 10718 10713 10712 10709 ] final   76.78 input   66.30 | X-H torsion
[ 10763 10752 10751 10750 ] final  126.76 input  -60.55 | X-H torsion
[ 11005 11000 10999 10996 ] final  118.83 input  -57.11 | X-H torsion

> <Gold.Protein.ActiveResidues>
 VAL166  LYS551  ARG553  GLY616  TRP617  ASP618  TYR619  PRO620  LYS621  CYS622 
 ASP623  PHE694  ASN695  SER759  ASP760  ASP761  ALA762  ILE779  LEU786  VAL792 
 PHE793  MET794  SER795  GLU796  ALA797  LYS798  CYS799  TRP800  GLU811  SER814 

> <Gold.Protein.RotatedAtoms>
  151.9492  135.0177  160.0540 H   0  0  0  0  0  0  0  0  0  0  0  0  # atno 6907 bound_to 6896
  152.1968  133.4808  159.5045 H   0  0  0  0  0  0  0  0  0  0  0  0  # atno 6908 bound_to 6896
  150.6946  134.1558  159.4200 H   0  0  0  0  0  0  0  0  0  0  0  0  # atno 6909 bound_to 6896
  145.9580  139.4032  143.0266 H   0  0  0  0  0  0  0  0  0  0  0  0  # atno 7974 bound_to 7965
  154.7873  140.0463  157.1174 H   0  0  0  0  0  0  0  0  0  0  0  0  # atno 8008 bound_to 7997
  154.9633  140.3080  155.5001 H   0  0  0  0  0  0  0  0  0  0  0  0  # atno 8009 bound_to 7997
  156.2945  140.2266  156.4720 H   0  0  0  0  0  0  0  0  0  0  0  0  # atno 8010 bound_to 7997
  139.7318  143.8797  152.2537 H   0  0  0  0  0  0  0  0  0  0  0  0  # atno 10167 bound_to 10162
  157.6686  130.9791  150.1547 H   0  0  0  0  0  0  0  0  0  0  0  0  # atno 10718 bound_to 10713
  153.6984  135.3287  155.3219 H   0  0  0  0  0  0  0  0  0  0  0  0  # atno 10763 bound_to 10752
  154.8420  135.4448  154.1436 H   0  0  0  0  0  0  0  0  0  0  0  0  # atno 10764 bound_to 10752
  153.2497  135.6980  153.7771 H   0  0  0  0  0  0  0  0  0  0  0  0  # atno 10765 bound_to 10752
  139.9124  134.9623  156.7563 H   0  0  0  0  0  0  0  0  0  0  0  0  # atno 11005 bound_to 11000
  145.8080  140.9739  143.0964 LP  0  0  0  0  0  0  0  0  0  0  0  0  # atno 17320 bound_to 7965
  144.6809  139.9885  143.7484 LP  0  0  0  0  0  0  0  0  0  0  0  0  # atno 17321 bound_to 7965
  139.8722  144.7062  150.8974 LP  0  0  0  0  0  0  0  0  0  0  0  0  # atno 17342 bound_to 10162
  140.7772  143.3729  151.1616 LP  0  0  0  0  0  0  0  0  0  0  0  0  # atno 17343 bound_to 10162
  156.2338  130.3684  149.8415 LP  0  0  0  0  0  0  0  0  0  0  0  0  # atno 17370 bound_to 10713
  156.6234  130.8636  151.3480 LP  0  0  0  0  0  0  0  0  0  0  0  0  # atno 17371 bound_to 10713
  140.6733  133.9540  155.7869 LP  0  0  0  0  0  0  0  0  0  0  0  0  # atno 17394 bound_to 11000
  141.0562  134.0413  157.3719 LP  0  0  0  0  0  0  0  0  0  0  0  0  # atno 17395 bound_to 11000

$$$$
