AV-unprocessed.smi:114|AV-procd|sdf|1118|dock10
  -GOLD-   2262018243D 1   1.00000     0.00000
 Structure written by MMmdl.
 32 34  0  0  0  0  0  0  0  0  1 V2000
  144.8953  133.8431  154.8281 N   0  0  0  0  0  0  0  0  0  0  0  0
  144.7098  135.1707  154.8090 C   0  0  0  0  0  0  0  0  0  0  0  0
  143.4421  135.6436  154.7801 N   0  0  0  0  0  0  0  0  0  0  0  0
  143.2130  136.9624  154.7603 C   0  0  0  0  0  0  0  0  0  0  0  0
  141.9153  137.3474  154.7333 F   0  0  0  0  0  0  0  0  0  0  0  0
  144.1223  137.9427  154.7648 N   0  0  0  0  0  0  0  0  0  0  0  0
  145.4023  137.4710  154.7950 C   0  0  0  0  0  0  0  0  0  0  0  0
  145.7777  136.1010  154.8176 C   0  0  0  0  0  0  0  0  0  0  0  0
  147.1612  135.9883  154.8436 N   0  0  0  0  0  0  0  0  0  0  0  0
  147.5763  137.2268  154.8359 C   0  0  0  0  0  0  0  0  0  0  0  0
  146.5851  138.1835  154.8124 N   0  0  0  0  0  0  0  0  0  0  0  0
  146.7544  139.6713  154.8063 C   0  0  1  0  0  0  0  0  0  0  0  0
  147.6202  140.0234  155.8385 O   0  0  0  0  0  0  0  0  0  0  0  0
  148.4037  141.1378  155.4282 C   0  0  1  0  0  0  0  0  0  0  0  0
  149.6579  141.2861  156.3078 C   0  0  0  0  0  0  0  0  0  0  0  0
  150.3261  142.4920  156.0022 O   0  0  0  0  0  0  0  0  0  0  0  0
  148.6636  140.8540  153.9410 C   0  0  1  0  0  0  0  0  0  0  0  0
  149.7800  139.9976  153.7708 O   0  0  0  0  0  0  0  0  0  0  0  0
  147.3529  140.2113  153.4897 C   0  0  1  0  0  0  0  0  0  0  0  0
  147.5130  139.2630  152.4465 O   0  0  0  0  0  0  0  0  0  0  0  0
  145.7556  140.0626  155.0043 H   0  0  0  0  0  0  0  0  0  0  0  0
  147.7875  142.0368  155.4982 H   0  0  0  0  0  0  0  0  0  0  0  0
  148.8651  141.7726  153.3892 H   0  0  0  0  0  0  0  0  0  0  0  0
  146.6785  140.9921  153.1354 H   0  0  0  0  0  0  0  0  0  0  0  0
  145.8322  133.4667  154.8497 H   0  0  0  0  0  0  0  0  0  0  0  0
  144.0988  133.2225  154.8200 H   0  0  0  0  0  0  0  0  0  0  0  0
  148.6266  137.4789  154.8521 H   0  0  0  0  0  0  0  0  0  0  0  0
  149.4056  141.2508  157.3683 H   0  0  0  0  0  0  0  0  0  0  0  0
  150.3545  140.4706  156.1108 H   0  0  0  0  0  0  0  0  0  0  0  0
  149.6833  143.1810  155.9316 H   0  0  0  0  0  0  0  0  0  0  0  0
  149.7422  139.6292  152.9013 H   0  0  0  0  0  0  0  0  0  0  0  0
  148.2991  139.4747  151.9666 H   0  0  0  0  0  0  0  0  0  0  0  0
  1  2  1  0  0  0  0
  1 25  1  0  0  0  0
  1 26  1  0  0  0  0
  2  8  1  0  0  0  0
  2  3  2  0  0  0  0
  3  4  1  0  0  0  0
  4  5  1  0  0  0  0
  4  6  2  0  0  0  0
  6  7  1  0  0  0  0
  7 11  1  0  0  0  0
  7  8  2  0  0  0  0
  8  9  1  0  0  0  0
  9 10  2  0  0  0  0
 10 11  1  0  0  0  0
 10 27  1  0  0  0  0
 11 12  1  0  0  0  0
 12 21  1  0  0  0  0
 12 19  1  0  0  0  0
 12 13  1  0  0  0  0
 13 14  1  0  0  0  0
 14 22  1  0  0  0  0
 14 15  1  0  0  0  0
 14 17  1  0  0  0  0
 15 16  1  0  0  0  0
 15 28  1  0  0  0  0
 15 29  1  0  0  0  0
 16 30  1  0  0  0  0
 17 23  1  0  0  0  0
 17 18  1  0  0  0  0
 17 19  1  0  0  0  0
 18 31  1  0  0  0  0
 19 24  1  0  0  0  0
 19 20  1  0  0  0  0
 20 32  1  0  0  0  0
M  END
> <s_m_source_file>
AV-unprocessed.smi

> <i_m_source_file_index>
114

> <i_lp_mmshare_version>
43012

> <i_f3d_flags>
0

> <s_epik_input>
RmMobjEpbmMoW05IMl0pYyhjMTIpbltjSF1uMltDQEBIXTNPW0NASF0oW0NIMl1bT0hdKVtDQEBIXShbT0hdKVtDQEBIXTNbT0hd

> <s_epik_cmdline>
J2VwaWtfcHl0aG9uJywgJy1waCcsICc3LjAnLCAnLXRuJywgJzgnLCAnLW1hJywgJzIwMCcsICctbWV0YWxfYmluZGluZycsICctaW1hZScsICc8aW5maWxlLm1hZT4nLCAnLW9tYWUnLCAnPG91dGZpbGUubWFlPic=

> <r_lp_tautomer_probability>
1

> <r_epik_Ionization_Penalty>
1.13199e-05

> <r_epik_Ionization_Penalty_Charging>
0

> <r_epik_Ionization_Penalty_Neutral>
1.13199e-05

> <r_epik_State_Penalty>
-0

> <r_epik_Charging_Adjusted_Penalty>
0

> <i_epik_Tot_Q>
0

> <i_epik_Tot_abs_Q>
0

> <r_epik_Metal_State_Penalty>
-0

> <b_epik_Metal_Only>
0

> <s_epik_Chemistry_Notes>
This compound contains an acetal/aminal-like group ( X-CH(R)-Y where X, Y are N, S, or O) that may be acid/base labile, releasing an aldehyde.

> <s_lp_Force_Field>
OPLS_2005

> <r_lp_Energy>
48.1785

> <b_lp_Chiralities_Consistent>
1

> <s_lp_Variant>
AV-unprocessed.smi:114-12

> <Gold.Version>
5.8.1

> <Gold.Id.Protein>
6NUR|6NUR_protein|mol2

> <Gold.PLP.Fitness>
30.2232

> <Gold.PLP.PLP>
-17.5194

> <Gold.PLP.part.hbond>
-4.9647

> <Gold.PLP.part.metal>
0.0000

> <Gold.PLP.part.buried>
-3.8079

> <Gold.PLP.part.nonpolar>
-9.3330

> <Gold.PLP.part.repulsive>
0.2276

> <Gold.PLP.ligand.clash>
0.0000

> <Gold.PLP.ligand.torsion>
0.2053

> <Gold.PLP.Chemscore.Hbond>
4.3706

> <Gold.PLP.Chemscore.CHOScore>
0.0000

> <Gold.PLP.Chemscore.Metal>
0.0000

> <Gold.Chemscore.Hbonds>
donor molecule, donor type, donor heavy atom, donor atom, acceptor molecule, acceptor atom, score
      L1  H     1    26       P1 10957  0.98
      L1  H    16    30       P1  8028  1.00
      L1  H    18    31       P1  7957  0.88
      L1  H    20    32       P1  7957  1.00
      P1  H  7989  7998       L1    18  0.50

> <Gold.PLP.Chemscore.Internal.Correction>
0.0024

> <Gold.Rescore>
     Score         DG    S(hbond)    S(metal)    S(lipo)     H(rot)  DE(clash)    DE(int)     intcor
     11.26     -11.54       3.99        0.00      26.09       4.03       0.13       0.14       ----

> <Gold.Chemscore.Fitness>
11.2646

> <Gold.Chemscore.DG>
-11.5351

> <Gold.Chemscore.ZeroCoef>
-5.4800

> <Gold.Chemscore.Hbond>
3.9860

> <Gold.Chemscore.Metal>
0.0000

> <Gold.Chemscore.Lipo>
26.0942

> <Gold.Chemscore.Internal_Hbond>
0.0000

> <Gold.Chemscore.DEClash>
0.1334

> <Gold.Chemscore.DEInternal>
0.1371

> <Gold.Chemscore.Rot>
4.0277

> <Gold.Chemscore.Internal.Correction>
   9.000000E+99

> <Gold.Chemscore.Hbonds>
donor molecule, donor type, donor heavy atom, donor atom, acceptor molecule, acceptor atom, score
      L1  H     1    26       P1 10957  0.91
      L1  H    16    30       P1  8028  1.00
      L1  H    18    31       P1  7957  0.86
      L1  H    20    32       P1  7957  0.99
      P1  H  7989  7998       L1    18  0.05

> <Gold.Chemscore.Hbond.Weighted>
-13.3131

> <Gold.Chemscore.Metal.Weighted>
-0.0000

> <Gold.Chemscore.Lipo.Weighted>
-3.0530

> <Gold.Chemscore.Internal_Hbond.Weighted>
0.0000

> <Gold.Chemscore.DEClash.Weighted>
0.1334

> <Gold.Chemscore.DEInternal.Weighted>
0.1371

> <Gold.Chemscore.Rot.Weighted>
10.3110

> <Gold.Chemscore.Internal.Correction.Weighted>
   9.000000E+99

> <Gold.Protein.RotatedTorsions>
[ 6907 6896 6895 6894 ] final   33.45 input  -60.11 | X-H torsion
[ 7974 7965 7964 7962 ] final  -82.93 input  175.53 | X-H torsion
[ 8008 7997 7996 7995 ] final -175.72 input   59.86 | X-H torsion
[ 10167 10162 10161 10158 ] final -114.85 input  -65.29 | X-H torsion
[ 10718 10713 10712 10709 ] final   20.93 input   66.30 | X-H torsion
[ 10763 10752 10751 10750 ] final   79.45 input  -60.55 | X-H torsion
[ 11005 11000 10999 10996 ] final   28.17 input  -57.11 | X-H torsion

> <Gold.Protein.ActiveResidues>
 VAL166  LYS551  ARG553  GLY616  TRP617  ASP618  TYR619  PRO620  LYS621  CYS622 
 ASP623  PHE694  ASN695  SER759  ASP760  ASP761  ALA762  ILE779  LEU786  VAL792 
 PHE793  MET794  SER795  GLU796  ALA797  LYS798  CYS799  TRP800  GLU811  SER814 

> <Gold.Protein.RotatedAtoms>
  152.0887  134.9422  160.0572 H   0  0  0  0  0  0  0  0  0  0  0  0  # atno 6907 bound_to 6896
  152.0682  133.4089  159.4455 H   0  0  0  0  0  0  0  0  0  0  0  0  # atno 6908 bound_to 6896
  150.6836  134.3043  159.4763 H   0  0  0  0  0  0  0  0  0  0  0  0  # atno 6909 bound_to 6896
  145.5267  140.9525  143.1625 H   0  0  0  0  0  0  0  0  0  0  0  0  # atno 7974 bound_to 7965
  155.9861  140.1191  157.0682 H   0  0  0  0  0  0  0  0  0  0  0  0  # atno 8008 bound_to 7997
  154.4197  140.1135  156.5569 H   0  0  0  0  0  0  0  0  0  0  0  0  # atno 8009 bound_to 7997
  155.6406  140.3473  155.4716 H   0  0  0  0  0  0  0  0  0  0  0  0  # atno 8010 bound_to 7997
  140.0965  143.4652  152.1838 H   0  0  0  0  0  0  0  0  0  0  0  0  # atno 10167 bound_to 10162
  157.1314  130.6593  149.5953 H   0  0  0  0  0  0  0  0  0  0  0  0  # atno 10718 bound_to 10713
  153.0954  135.4839  154.8768 H   0  0  0  0  0  0  0  0  0  0  0  0  # atno 10763 bound_to 10752
  154.7318  135.3062  154.8881 H   0  0  0  0  0  0  0  0  0  0  0  0  # atno 10764 bound_to 10752
  153.9514  135.6823  153.4797 H   0  0  0  0  0  0  0  0  0  0  0  0  # atno 10765 bound_to 10752
  140.3185  134.2570  155.7721 H   0  0  0  0  0  0  0  0  0  0  0  0  # atno 11005 bound_to 11000
  144.7647  139.6873  143.7220 LP  0  0  0  0  0  0  0  0  0  0  0  0  # atno 17320 bound_to 7965
  146.2071  139.5402  142.9705 LP  0  0  0  0  0  0  0  0  0  0  0  0  # atno 17321 bound_to 7965
  139.5695  144.7455  151.3929 LP  0  0  0  0  0  0  0  0  0  0  0  0  # atno 17342 bound_to 10162
  140.7001  143.7653  150.7389 LP  0  0  0  0  0  0  0  0  0  0  0  0  # atno 17343 bound_to 10162
  155.9807  130.4809  150.6787 LP  0  0  0  0  0  0  0  0  0  0  0  0  # atno 17370 bound_to 10713
  157.4389  131.0858  151.0964 LP  0  0  0  0  0  0  0  0  0  0  0  0  # atno 17371 bound_to 10713
  141.2092  133.7755  157.0011 LP  0  0  0  0  0  0  0  0  0  0  0  0  # atno 17394 bound_to 11000
  140.0963  134.9562  157.1854 LP  0  0  0  0  0  0  0  0  0  0  0  0  # atno 17395 bound_to 11000

$$$$
