AV-unprocessed.smi:3185|AV-procd|sdf|12170|dock8
  -GOLD-   2272018 03D 1   1.00000     0.00000
 Structure written by MMmdl.
 37 38  0  0  0  0  0  0  0  0  1 V2000
  150.4912  132.9353  157.4660 N   0  0  0  0  0  0  0  0  0  0  0  0
  150.2764  132.7256  156.3487 C   0  0  0  0  0  0  0  0  0  0  0  0
  150.0034  132.4586  154.9285 C   0  0  0  0  0  0  0  0  0  0  0  0
  148.9086  133.3645  154.3549 C   0  0  0  0  0  0  0  0  0  0  0  0
  148.5120  132.9554  152.9314 C   0  0  0  0  0  0  0  0  0  0  0  0
  147.3855  133.7649  152.4907 N   0  0  0  0  0  0  0  0  0  0  0  0
  146.5203  133.0528  151.5525 C   0  0  1  0  0  0  0  0  0  0  0  0
  145.8687  131.8070  152.1972 C   0  0  0  0  0  0  0  0  0  0  0  0
  144.9495  131.0850  151.1986 C   0  0  0  0  0  0  0  0  0  0  0  0
  143.8773  132.0229  150.6240 C   0  0  0  0  0  0  0  0  0  0  0  0
  144.5059  133.2821  149.9984 C   0  0  0  0  0  0  0  0  0  0  0  0
  145.4733  134.0295  150.9458 C   0  0  1  0  0  0  0  0  0  0  0  0
  144.7699  134.8600  151.9282 N   0  0  0  0  0  0  0  0  0  0  0  0
  143.9931  135.9733  151.6757 C   0  0  0  0  0  0  0  0  0  0  0  0
  143.5310  136.4396  152.8728 C   0  0  0  0  0  0  0  0  0  0  0  0
  144.0844  135.5359  153.8203 C   0  0  0  0  0  0  0  0  0  0  0  0
  144.8218  134.5964  153.2538 N   0  0  0  0  0  0  0  0  0  0  0  0
  150.9354  132.5928  154.3794 H   0  0  0  0  0  0  0  0  0  0  0  0
  149.7191  131.4103  154.8347 H   0  0  0  0  0  0  0  0  0  0  0  0
  148.0340  133.3289  155.0061 H   0  0  0  0  0  0  0  0  0  0  0  0
  149.2579  134.3980  154.3584 H   0  0  0  0  0  0  0  0  0  0  0  0
  149.3568  133.0997  152.2568 H   0  0  0  0  0  0  0  0  0  0  0  0
  148.2524  131.8973  152.9135 H   0  0  0  0  0  0  0  0  0  0  0  0
  147.7401  134.5980  152.0435 H   0  0  0  0  0  0  0  0  0  0  0  0
  147.1411  132.7118  150.7224 H   0  0  0  0  0  0  0  0  0  0  0  0
  146.6308  131.1030  152.5299 H   0  0  0  0  0  0  0  0  0  0  0  0
  145.3059  132.0807  153.0892 H   0  0  0  0  0  0  0  0  0  0  0  0
  145.5499  130.6806  150.3828 H   0  0  0  0  0  0  0  0  0  0  0  0
  144.4737  130.2316  151.6824 H   0  0  0  0  0  0  0  0  0  0  0  0
  143.2954  131.4933  149.8692 H   0  0  0  0  0  0  0  0  0  0  0  0
  143.1688  132.2958  151.4050 H   0  0  0  0  0  0  0  0  0  0  0  0
  145.0577  132.9813  149.1070 H   0  0  0  0  0  0  0  0  0  0  0  0
  143.7228  133.9569  149.6507 H   0  0  0  0  0  0  0  0  0  0  0  0
  146.0288  134.7296  150.3199 H   0  0  0  0  0  0  0  0  0  0  0  0
  143.8344  136.3399  150.6722 H   0  0  0  0  0  0  0  0  0  0  0  0
  142.8953  137.2953  153.0449 H   0  0  0  0  0  0  0  0  0  0  0  0
  143.9730  135.5340  154.8945 H   0  0  0  0  0  0  0  0  0  0  0  0
  1  2  3  0  0  0  0
  2  3  1  0  0  0  0
  3  4  1  0  0  0  0
  3 18  1  0  0  0  0
  3 19  1  0  0  0  0
  4  5  1  0  0  0  0
  4 20  1  0  0  0  0
  4 21  1  0  0  0  0
  5  6  1  0  0  0  0
  5 22  1  0  0  0  0
  5 23  1  0  0  0  0
  6  7  1  0  0  0  0
  6 24  1  0  0  0  0
  7 12  1  0  0  0  0
  7  8  1  0  0  0  0
  7 25  1  0  0  0  0
  8  9  1  0  0  0  0
  8 26  1  0  0  0  0
  8 27  1  0  0  0  0
  9 10  1  0  0  0  0
  9 28  1  0  0  0  0
  9 29  1  0  0  0  0
 10 11  1  0  0  0  0
 10 30  1  0  0  0  0
 10 31  1  0  0  0  0
 11 12  1  0  0  0  0
 11 32  1  0  0  0  0
 11 33  1  0  0  0  0
 12 13  1  0  0  0  0
 12 34  1  0  0  0  0
 13 17  1  0  0  0  0
 13 14  1  0  0  0  0
 14 15  2  0  0  0  0
 14 35  1  0  0  0  0
 15 16  1  0  0  0  0
 15 36  1  0  0  0  0
 16 17  2  0  0  0  0
 16 37  1  0  0  0  0
M  END
> <s_m_source_file>
AV-unprocessed.smi

> <i_m_source_file_index>
3185

> <i_lp_mmshare_version>
43012

> <i_f3d_flags>
0

> <s_epik_input>
TiNDW0NIMl1bQ0gyXVtDSDJdW05IXVtDQEBIXTFbQ0gyXVtDSDJdW0NIMl1bQ0gyXVtDQEhdMW4yW2NIXVtjSF1bY0hdbjI=

> <s_epik_cmdline>
J2VwaWtfcHl0aG9uJywgJy1waCcsICc3LjAnLCAnLXRuJywgJzgnLCAnLW1hJywgJzIwMCcsICctbWV0YWxfYmluZGluZycsICctaW1hZScsICc8aW5maWxlLm1hZT4nLCAnLW9tYWUnLCAnPG91dGZpbGUubWFlPic=

> <r_lp_tautomer_probability>
1

> <r_epik_Ionization_Penalty>
2.21326

> <r_epik_Ionization_Penalty_Charging>
0

> <r_epik_Ionization_Penalty_Neutral>
2.21326

> <r_epik_State_Penalty>
2.35651

> <r_epik_Charging_Adjusted_Penalty>
2.35651

> <i_epik_Tot_Q>
0

> <i_epik_Tot_abs_Q>
0

> <r_epik_Metal_State_Penalty>
2.3555

> <b_epik_Metal_Only>
0

> <s_lp_Force_Field>
OPLS_2005

> <r_lp_Energy>
19.4285

> <b_lp_Chiralities_Consistent>
1

> <s_lp_Variant>
AV-unprocessed.smi:3185-6

> <Gold.Version>
5.8.1

> <Gold.Id.Protein>
6NUR|6NUR_protein|mol2

> <Gold.PLP.Fitness>
41.6529

> <Gold.PLP.PLP>
-33.4113

> <Gold.PLP.part.hbond>
-2.0000

> <Gold.PLP.part.metal>
0.0000

> <Gold.PLP.part.buried>
-5.1893

> <Gold.PLP.part.nonpolar>
-26.2366

> <Gold.PLP.part.repulsive>
0.0753

> <Gold.PLP.ligand.clash>
0.0000

> <Gold.PLP.ligand.torsion>
0.4210

> <Gold.PLP.Chemscore.Hbond>
2.0000

> <Gold.PLP.Chemscore.CHOScore>
1.0000

> <Gold.PLP.Chemscore.Metal>
0.0000

> <Gold.Chemscore.Hbonds>
donor molecule, donor type, donor heavy atom, donor atom, acceptor molecule, acceptor atom, score
      L1  H     6    24       P1  7948  1.00
      P1  H  6896  6908       L1     1  1.00
      L1  C    14    35       P1 10171  1.00

> <Gold.PLP.Chemscore.Internal.Correction>
0.0835

> <Gold.Rescore>
     Score         DG    S(hbond)    S(metal)    S(lipo)     H(rot)  DE(clash)    DE(int)     intcor
     13.92     -15.74       1.83        0.00      75.21       1.81       0.04       1.78       ----

> <Gold.Chemscore.Fitness>
13.9231

> <Gold.Chemscore.DG>
-15.7433

> <Gold.Chemscore.ZeroCoef>
-5.4800

> <Gold.Chemscore.Hbond>
1.8263

> <Gold.Chemscore.Metal>
0.0000

> <Gold.Chemscore.Lipo>
75.2110

> <Gold.Chemscore.Internal_Hbond>
0.0000

> <Gold.Chemscore.DEClash>
0.0354

> <Gold.Chemscore.DEInternal>
1.7849

> <Gold.Chemscore.Rot>
1.8110

> <Gold.Chemscore.Internal.Correction>
   9.000000E+99

> <Gold.Chemscore.Hbonds>
donor molecule, donor type, donor heavy atom, donor atom, acceptor molecule, acceptor atom, score
      L1  H     6    24       P1  7948  0.43
      P1  H  6896  6908       L1     1  0.97

> <Gold.Chemscore.Hbond.Weighted>
-6.0998

> <Gold.Chemscore.Metal.Weighted>
-0.0000

> <Gold.Chemscore.Lipo.Weighted>
-8.7997

> <Gold.Chemscore.Internal_Hbond.Weighted>
0.0000

> <Gold.Chemscore.DEClash.Weighted>
0.0354

> <Gold.Chemscore.DEInternal.Weighted>
1.7849

> <Gold.Chemscore.Rot.Weighted>
4.6362

> <Gold.Chemscore.Internal.Correction.Weighted>
   9.000000E+99

> <Gold.Protein.RotatedTorsions>
[ 6907 6896 6895 6894 ] final   87.32 input  -60.11 | X-H torsion
[ 7974 7965 7964 7962 ] final  -60.59 input  175.53 | X-H torsion
[ 8008 7997 7996 7995 ] final  -57.65 input   59.86 | X-H torsion
[ 10167 10162 10161 10158 ] final   79.99 input  -65.29 | X-H torsion
[ 10718 10713 10712 10709 ] final   49.07 input   66.30 | X-H torsion
[ 10763 10752 10751 10750 ] final -132.96 input  -60.55 | X-H torsion
[ 11005 11000 10999 10996 ] final   26.03 input  -57.11 | X-H torsion

> <Gold.Protein.ActiveResidues>
 VAL166  LYS551  ARG553  GLY616  TRP617  ASP618  TYR619  PRO620  LYS621  CYS622 
 ASP623  PHE694  ASN695  SER759  ASP760  ASP761  ALA762  ILE779  LEU786  VAL792 
 PHE793  MET794  SER795  GLU796  ALA797  LYS798  CYS799  TRP800  GLU811  SER814 

> <Gold.Protein.RotatedAtoms>
  152.5409  134.2295  159.8819 H   0  0  0  0  0  0  0  0  0  0  0  0  # atno 6907 bound_to 6896
  151.2268  133.4465  159.2610 H   0  0  0  0  0  0  0  0  0  0  0  0  # atno 6908 bound_to 6896
  151.0753  134.9838  159.8385 H   0  0  0  0  0  0  0  0  0  0  0  0  # atno 6909 bound_to 6896
  145.8137  140.8583  143.0168 H   0  0  0  0  0  0  0  0  0  0  0  0  # atno 7974 bound_to 7965
  154.4276  140.1102  156.5831 H   0  0  0  0  0  0  0  0  0  0  0  0  # atno 8008 bound_to 7997
  155.6091  140.3494  155.4598 H   0  0  0  0  0  0  0  0  0  0  0  0  # atno 8009 bound_to 7997
  156.0113  140.1220  157.0440 H   0  0  0  0  0  0  0  0  0  0  0  0  # atno 8010 bound_to 7997
  139.9545  144.6003  150.8129 H   0  0  0  0  0  0  0  0  0  0  0  0  # atno 10167 bound_to 10162
  157.4750  130.8279  149.8029 H   0  0  0  0  0  0  0  0  0  0  0  0  # atno 10718 bound_to 10713
  154.8738  135.3781  154.4495 H   0  0  0  0  0  0  0  0  0  0  0  0  # atno 10763 bound_to 10752
  153.5172  135.7029  153.5755 H   0  0  0  0  0  0  0  0  0  0  0  0  # atno 10764 bound_to 10752
  153.4018  135.3946  155.1958 H   0  0  0  0  0  0  0  0  0  0  0  0  # atno 10765 bound_to 10752
  140.3414  134.2328  155.7689 H   0  0  0  0  0  0  0  0  0  0  0  0  # atno 11005 bound_to 11000
  144.6754  140.0433  143.7480 LP  0  0  0  0  0  0  0  0  0  0  0  0  # atno 17320 bound_to 7965
  145.9750  139.2898  143.1076 LP  0  0  0  0  0  0  0  0  0  0  0  0  # atno 17321 bound_to 7965
  140.7572  143.3082  151.2909 LP  0  0  0  0  0  0  0  0  0  0  0  0  # atno 17342 bound_to 10162
  139.6602  144.0203  152.2687 LP  0  0  0  0  0  0  0  0  0  0  0  0  # atno 17343 bound_to 10162
  156.0092  130.3841  150.2323 LP  0  0  0  0  0  0  0  0  0  0  0  0  # atno 17370 bound_to 10713
  157.0507  131.0062  151.3254 LP  0  0  0  0  0  0  0  0  0  0  0  0  # atno 17371 bound_to 10713
  141.2037  133.7905  157.0324 LP  0  0  0  0  0  0  0  0  0  0  0  0  # atno 17394 bound_to 11000
  140.0778  134.9666  157.1574 LP  0  0  0  0  0  0  0  0  0  0  0  0  # atno 17395 bound_to 11000

$$$$
