AV-unprocessed.smi:1512|AV-procd|sdf|6103|dock8
  -GOLD-   22720 6233D 1   1.00000     0.00000
 Structure written by MMmdl.
 44 46  0  0  0  0  0  0  0  0  3 V2000
  151.1890  141.3732  158.2335 C   0  0  0  0  0  0  0  0  0  0  0  0
  151.0527  142.5530  157.2559 C   0  0  1  0  0  0  0  0  0  0  0  0
  149.8597  142.3769  156.4352 N   0  0  0  0  0  0  0  0  0  0  0  0
  149.7186  141.5159  155.4135 C   0  0  0  0  0  0  0  0  0  0  0  0
  150.6037  140.7313  155.0747 O   0  0  0  0  0  0  0  0  0  0  0  0
  148.3929  141.5320  154.6324 C   0  0  0  0  0  0  0  0  0  0  0  0
  147.5648  140.3224  154.7991 N   0  0  0  0  0  0  0  0  0  0  0  0
  147.1528  139.6732  153.6201 C   0  0  0  0  0  0  0  0  0  0  0  0
  146.3844  138.5753  153.6469 C   0  0  0  0  0  0  0  0  0  0  0  0
  145.9716  138.0624  154.9303 C   0  0  0  0  0  0  0  0  0  0  0  0
  146.3493  138.6726  156.0775 C   0  0  0  0  0  0  0  0  0  0  0  0
  145.8847  138.1159  157.3277 N   0  3  0  0  0  0  0  0  0  0  0  0
  145.2353  137.0749  157.3084 O   0  0  0  0  0  0  0  0  0  0  0  0
  146.1709  138.6972  158.3702 O   0  5  0  0  0  0  0  0  0  0  0  0
  147.2060  139.8766  156.0435 C   0  0  0  0  0  0  0  0  0  0  0  0
  147.5830  140.4582  157.0622 O   0  0  0  0  0  0  0  0  0  0  0  0
  150.9668  143.9094  157.9941 C   0  0  1  0  0  0  0  0  0  0  0  0
  150.0430  143.9184  159.2324 C   0  0  0  0  0  0  0  0  0  0  0  0
  150.9292  144.5532  160.3207 C   0  0  1  0  0  0  0  0  0  0  0  0
  151.9898  143.5295  160.7657 C   0  0  0  0  0  0  0  0  0  0  0  0
  152.9476  143.4907  159.5611 C   0  0  0  0  0  0  0  0  0  0  0  0
  152.2909  144.4739  158.5701 C   0  0  2  0  0  0  0  0  0  0  0  0
  151.7653  145.5451  159.5203 C   0  0  0  0  0  0  0  0  0  0  0  0
  152.0824  141.4707  158.8503 H   0  0  0  0  0  0  0  0  0  0  0  0
  151.2651  140.4247  157.7008 H   0  0  0  0  0  0  0  0  0  0  0  0
  150.3295  141.3096  158.9017 H   0  0  0  0  0  0  0  0  0  0  0  0
  151.9311  142.5586  156.6091 H   0  0  0  0  0  0  0  0  0  0  0  0
  149.0801  142.9826  156.6459 H   0  0  0  0  0  0  0  0  0  0  0  0
  147.8295  142.4127  154.9442 H   0  0  0  0  0  0  0  0  0  0  0  0
  148.6160  141.7053  153.5783 H   0  0  0  0  0  0  0  0  0  0  0  0
  147.4951  140.1267  152.7010 H   0  0  0  0  0  0  0  0  0  0  0  0
  146.0758  138.0921  152.7316 H   0  0  0  0  0  0  0  0  0  0  0  0
  145.3398  137.1865  154.9603 H   0  0  0  0  0  0  0  0  0  0  0  0
  150.5875  144.6474  157.2842 H   0  0  0  0  0  0  0  0  0  0  0  0
  149.1577  144.5266  159.0431 H   0  0  0  0  0  0  0  0  0  0  0  0
  149.7035  142.9227  159.5203 H   0  0  0  0  0  0  0  0  0  0  0  0
  150.3647  144.9846  161.1479 H   0  0  0  0  0  0  0  0  0  0  0  0
  152.5125  143.8725  161.6595 H   0  0  0  0  0  0  0  0  0  0  0  0
  151.5564  142.5531  160.9852 H   0  0  0  0  0  0  0  0  0  0  0  0
  153.9351  143.8499  159.8534 H   0  0  0  0  0  0  0  0  0  0  0  0
  153.0771  142.4879  159.1558 H   0  0  0  0  0  0  0  0  0  0  0  0
  152.9766  144.8464  157.8079 H   0  0  0  0  0  0  0  0  0  0  0  0
  151.1696  146.3135  159.0241 H   0  0  0  0  0  0  0  0  0  0  0  0
  152.5485  146.0256  160.1097 H   0  0  0  0  0  0  0  0  0  0  0  0
  1  2  1  0  0  0  0
  1 24  1  0  0  0  0
  1 25  1  0  0  0  0
  1 26  1  0  0  0  0
  2  3  1  0  0  0  0
  2 17  1  0  0  0  0
  2 27  1  0  0  0  0
  3  4  1  0  0  0  0
  3 28  1  0  0  0  0
  4  5  2  0  0  0  0
  4  6  1  0  0  0  0
  6  7  1  0  0  0  0
  6 29  1  0  0  0  0
  6 30  1  0  0  0  0
  7 15  1  0  0  0  0
  7  8  1  0  0  0  0
  8  9  2  0  0  0  0
  8 31  1  0  0  0  0
  9 10  1  0  0  0  0
  9 32  1  0  0  0  0
 10 11  2  0  0  0  0
 10 33  1  0  0  0  0
 11 12  1  0  0  0  0
 11 15  1  0  0  0  0
 12 13  2  0  0  0  0
 12 14  1  0  0  0  0
 15 16  2  0  0  0  0
 17 22  1  0  0  0  0
 17 18  1  0  0  0  0
 17 34  1  0  0  0  0
 18 19  1  0  0  0  0
 18 35  1  0  0  0  0
 18 36  1  0  0  0  0
 19 23  1  0  0  0  0
 19 20  1  0  0  0  0
 19 37  1  0  0  0  0
 20 21  1  0  0  0  0
 20 38  1  0  0  0  0
 20 39  1  0  0  0  0
 21 22  1  0  0  0  0
 21 40  1  0  0  0  0
 21 41  1  0  0  0  0
 22 23  1  0  0  0  0
 22 42  1  0  0  0  0
 23 43  1  0  0  0  0
 23 44  1  0  0  0  0
M  CHG  1  12   1
M  CHG  1  14  -1
M  END
> <s_m_source_file>
AV-unprocessed.smi

> <i_m_source_file_index>
1512

> <i_lp_mmshare_version>
43012

> <i_f3d_flags>
0

> <s_epik_input>
W0NIMl0xW0NIMl1bQ0BIXShbQ0gyXTIpW0NAQEhdKFtDSDJdW0NAQEhdMTIpW0NASF0oW0NIM10pW05IXUMoPU8pW0NIMl1uM1tjSF1bY0hdW2NIXWMoW04rXSg9TylbTy1dKWMzPU8=

> <s_epik_cmdline>
J2VwaWtfcHl0aG9uJywgJy1waCcsICc3LjAnLCAnLXRuJywgJzgnLCAnLW1hJywgJzIwMCcsICctbWV0YWxfYmluZGluZycsICctaW1hZScsICc8aW5maWxlLm1hZT4nLCAnLW9tYWUnLCAnPG91dGZpbGUubWFlPic=

> <r_lp_tautomer_probability>
1

> <r_epik_Ionization_Penalty>
2.17697e-08

> <r_epik_Ionization_Penalty_Charging>
1.42735e-10

> <r_epik_Ionization_Penalty_Neutral>
2.16269e-08

> <r_epik_State_Penalty>
-0

> <r_epik_Charging_Adjusted_Penalty>
1.42735e-10

> <i_epik_Tot_Q>
0

> <i_epik_Tot_abs_Q>
2

> <r_epik_Metal_State_Penalty>
-0

> <b_epik_Metal_Only>
0

> <s_lp_Force_Field>
OPLS_2005

> <r_lp_Energy>
64.3313

> <b_lp_Chiralities_Consistent>
1

> <s_lp_Variant>
AV-unprocessed.smi:1512-4

> <Gold.Version>
5.8.1

> <Gold.Id.Protein>
6NUR|6NUR_protein|mol2

> <Gold.PLP.Fitness>
50.5166

> <Gold.PLP.PLP>
-43.0987

> <Gold.PLP.part.hbond>
-2.0000

> <Gold.PLP.part.metal>
0.0000

> <Gold.PLP.part.buried>
-4.9441

> <Gold.PLP.part.nonpolar>
-35.0276

> <Gold.PLP.part.repulsive>
0.1831

> <Gold.PLP.ligand.clash>
0.0000

> <Gold.PLP.ligand.torsion>
0.6010

> <Gold.PLP.Chemscore.Hbond>
1.8640

> <Gold.PLP.Chemscore.CHOScore>
1.0000

> <Gold.PLP.Chemscore.Metal>
0.0000

> <Gold.Chemscore.Hbonds>
donor molecule, donor type, donor heavy atom, donor atom, acceptor molecule, acceptor atom, score
      L1  H     3    28       P1  8028  0.40
      P1  H  7989  7998       L1     5  0.88
      L1  C     8    31       P1  7957  0.83

> <Gold.PLP.Chemscore.Internal.Correction>
0.0278

> <Gold.Rescore>
     Score         DG    S(hbond)    S(metal)    S(lipo)     H(rot)  DE(clash)    DE(int)     intcor
     15.70     -20.38       1.62        0.00     119.27       1.75       0.08       4.61       ----

> <Gold.Chemscore.Fitness>
15.6960

> <Gold.Chemscore.DG>
-20.3819

> <Gold.Chemscore.ZeroCoef>
-5.4800

> <Gold.Chemscore.Hbond>
1.6230

> <Gold.Chemscore.Metal>
0.0000

> <Gold.Chemscore.Lipo>
119.2697

> <Gold.Chemscore.Internal_Hbond>
0.0000

> <Gold.Chemscore.DEClash>
0.0777

> <Gold.Chemscore.DEInternal>
4.6083

> <Gold.Chemscore.Rot>
1.7474

> <Gold.Chemscore.Internal.Correction>
   9.000000E+99

> <Gold.Chemscore.Hbonds>
donor molecule, donor type, donor heavy atom, donor atom, acceptor molecule, acceptor atom, score
      L1  H     3    28       P1  8028  0.38
      P1  H  7989  7998       L1     5  0.86

> <Gold.Chemscore.Hbond.Weighted>
-5.4207

> <Gold.Chemscore.Metal.Weighted>
-0.0000

> <Gold.Chemscore.Lipo.Weighted>
-13.9546

> <Gold.Chemscore.Internal_Hbond.Weighted>
0.0000

> <Gold.Chemscore.DEClash.Weighted>
0.0777

> <Gold.Chemscore.DEInternal.Weighted>
4.6083

> <Gold.Chemscore.Rot.Weighted>
4.4733

> <Gold.Chemscore.Internal.Correction.Weighted>
   9.000000E+99

> <Gold.Protein.RotatedTorsions>
[ 6907 6896 6895 6894 ] final  -34.63 input  -60.11 | X-H torsion
[ 7974 7965 7964 7962 ] final -171.61 input  175.53 | X-H torsion
[ 8008 7997 7996 7995 ] final   53.89 input   59.86 | X-H torsion
[ 10167 10162 10161 10158 ] final   57.53 input  -65.29 | X-H torsion
[ 10718 10713 10712 10709 ] final -136.01 input   66.30 | X-H torsion
[ 10763 10752 10751 10750 ] final   -4.89 input  -60.55 | X-H torsion
[ 11005 11000 10999 10996 ] final  104.60 input  -57.11 | X-H torsion

> <Gold.Protein.ActiveResidues>
 VAL166  LYS551  ARG553  GLY616  TRP617  ASP618  TYR619  PRO620  LYS621  CYS622 
 ASP623  PHE694  ASN695  SER759  ASP760  ASP761  ALA762  ILE779  LEU786  VAL792 
 PHE793  MET794  SER795  GLU796  ALA797  LYS798  CYS799  TRP800  GLU811  SER814 

> <Gold.Protein.RotatedAtoms>
  151.0501  134.9667  159.8206 H   0  0  0  0  0  0  0  0  0  0  0  0  # atno 6907 bound_to 6896
  152.5379  134.2548  159.8922 H   0  0  0  0  0  0  0  0  0  0  0  0  # atno 6908 bound_to 6896
  151.2563  133.4281  159.2647 H   0  0  0  0  0  0  0  0  0  0  0  0  # atno 6909 bound_to 6896
  144.7155  140.1896  143.6350 H   0  0  0  0  0  0  0  0  0  0  0  0  # atno 7974 bound_to 7965
  155.4757  140.3466  155.4332 H   0  0  0  0  0  0  0  0  0  0  0  0  # atno 8008 bound_to 7997
  156.1072  140.1451  156.9417 H   0  0  0  0  0  0  0  0  0  0  0  0  # atno 8009 bound_to 7997
  154.4732  140.0894  156.7175 H   0  0  0  0  0  0  0  0  0  0  0  0  # atno 8010 bound_to 7997
  140.1969  144.4028  150.6546 H   0  0  0  0  0  0  0  0  0  0  0  0  # atno 10167 bound_to 10162
  156.2724  130.7273  151.1245 H   0  0  0  0  0  0  0  0  0  0  0  0  # atno 10718 bound_to 10713
  153.3911  135.7002  153.6494 H   0  0  0  0  0  0  0  0  0  0  0  0  # atno 10763 bound_to 10752
  153.5067  135.3640  155.2567 H   0  0  0  0  0  0  0  0  0  0  0  0  # atno 10764 bound_to 10752
  154.8702  135.4125  154.3227 H   0  0  0  0  0  0  0  0  0  0  0  0  # atno 10765 bound_to 10752
  139.8793  134.9306  156.5386 H   0  0  0  0  0  0  0  0  0  0  0  0  # atno 11005 bound_to 11000
  145.8781  139.2308  143.1621 LP  0  0  0  0  0  0  0  0  0  0  0  0  # atno 17320 bound_to 7965
  146.0021  140.8511  143.0013 LP  0  0  0  0  0  0  0  0  0  0  0  0  # atno 17321 bound_to 7965
  140.6417  143.2205  151.6276 LP  0  0  0  0  0  0  0  0  0  0  0  0  # atno 17342 bound_to 10162
  139.5233  144.3138  152.0970 LP  0  0  0  0  0  0  0  0  0  0  0  0  # atno 17343 bound_to 10162
  157.7288  131.0629  150.5802 LP  0  0  0  0  0  0  0  0  0  0  0  0  # atno 17370 bound_to 10713
  156.5900  130.4327  149.5940 LP  0  0  0  0  0  0  0  0  0  0  0  0  # atno 17371 bound_to 10713
  140.8327  133.8266  155.8999 LP  0  0  0  0  0  0  0  0  0  0  0  0  # atno 17394 bound_to 11000
  140.9313  134.2018  157.4862 LP  0  0  0  0  0  0  0  0  0  0  0  0  # atno 17395 bound_to 11000

$$$$
