AV-unprocessed.smi:830|AV-procd|sdf|3872|dock8
  -GOLD-   22720 1323D 1   1.00000     0.00000
 Structure written by MMmdl.
 53 55  0  0  0  0  0  0  0  0  2 V2000
  146.7047  141.9478  153.7987 C   0  0  0  0  0  0  0  0  0  0  0  0
  147.2206  140.5534  153.4059 C   0  0  2  0  0  0  0  0  0  0  0  0
  146.1068  139.6780  153.0456 N   0  0  0  0  0  0  0  0  0  0  0  0
  146.2036  138.3817  152.7195 C   0  0  0  0  0  0  0  0  0  0  0  0
  147.2694  137.7682  152.6684 O   0  0  0  0  0  0  0  0  0  0  0  0
  144.9964  137.8616  152.4415 N   0  0  0  0  0  0  0  0  0  0  0  0
  144.6810  136.5379  152.0222 C   0  0  0  0  0  0  0  0  0  0  0  0
  145.5802  135.7818  151.2264 C   0  0  0  0  0  0  0  0  0  0  0  0
  145.2300  134.4841  150.8091 C   0  0  0  0  0  0  0  0  0  0  0  0
  143.9865  133.9576  151.1973 C   0  0  0  0  0  0  0  0  0  0  0  0
  143.1623  134.6927  151.9717 N   0  3  0  0  0  0  0  0  0  0  0  0
  143.4482  135.9414  152.4184 C   0  0  0  0  0  0  0  0  0  0  0  0
  142.4892  136.5829  153.2357 N   0  0  0  0  0  0  0  0  0  0  0  0
  142.0213  137.9256  152.9113 C   0  0  0  0  0  0  0  0  0  0  0  0
  140.7821  138.1329  153.7779 C   0  0  0  0  0  0  0  0  0  0  0  0
  140.1679  136.7368  153.8092 C   0  0  0  0  0  0  0  0  0  0  0  0
  141.3841  135.8044  153.7861 C   0  0  0  0  0  0  0  0  0  0  0  0
  148.1040  139.9077  154.4796 C   0  0  0  0  0  0  0  0  0  0  0  0
  147.7856  139.9603  155.6687 O   0  0  0  0  0  0  0  0  0  0  0  0
  149.2249  139.3113  154.0458 N   0  0  0  0  0  0  0  0  0  0  0  0
  150.2068  138.6474  154.8985 C   0  0  0  0  0  0  0  0  0  0  0  0
  150.7767  139.6329  155.9351 C   0  0  0  0  0  0  0  0  0  0  0  0
  152.2106  139.9255  155.4928 C   0  0  0  0  0  0  0  0  0  0  0  0
  152.6615  138.6340  154.8179 C   0  0  0  0  0  0  0  0  0  0  0  0
  151.4145  138.1339  154.0865 C   0  0  0  0  0  0  0  0  0  0  0  0
  147.5274  142.6144  154.0595 H   0  0  0  0  0  0  0  0  0  0  0  0
  146.0347  141.8955  154.6577 H   0  0  0  0  0  0  0  0  0  0  0  0
  146.1576  142.4132  152.9783 H   0  0  0  0  0  0  0  0  0  0  0  0
  147.8520  140.6707  152.5227 H   0  0  0  0  0  0  0  0  0  0  0  0
  145.1891  140.0989  153.0614 H   0  0  0  0  0  0  0  0  0  0  0  0
  144.2268  138.5149  152.4337 H   0  0  0  0  0  0  0  0  0  0  0  0
  146.5411  136.1753  150.9317 H   0  0  0  0  0  0  0  0  0  0  0  0
  145.9057  133.9031  150.1987 H   0  0  0  0  0  0  0  0  0  0  0  0
  143.6315  132.9750  150.9223 H   0  0  0  0  0  0  0  0  0  0  0  0
  142.7869  138.6752  153.1130 H   0  0  0  0  0  0  0  0  0  0  0  0
  141.7452  137.9889  151.8580 H   0  0  0  0  0  0  0  0  0  0  0  0
  141.0753  138.4333  154.7849 H   0  0  0  0  0  0  0  0  0  0  0  0
  140.1060  138.8902  153.3800 H   0  0  0  0  0  0  0  0  0  0  0  0
  139.5251  136.5726  154.6745 H   0  0  0  0  0  0  0  0  0  0  0  0
  139.5685  136.5815  152.9110 H   0  0  0  0  0  0  0  0  0  0  0  0
  141.1828  134.9045  153.2035 H   0  0  0  0  0  0  0  0  0  0  0  0
  141.6398  135.5031  154.8022 H   0  0  0  0  0  0  0  0  0  0  0  0
  149.4131  139.3185  153.0538 H   0  0  0  0  0  0  0  0  0  0  0  0
  149.7277  137.8206  155.4265 H   0  0  0  0  0  0  0  0  0  0  0  0
  150.1853  140.5437  156.0403 H   0  0  0  0  0  0  0  0  0  0  0  0
  150.7967  139.1513  156.9139 H   0  0  0  0  0  0  0  0  0  0  0  0
  152.2135  140.7401  154.7673 H   0  0  0  0  0  0  0  0  0  0  0  0
  152.8558  140.2144  156.3229 H   0  0  0  0  0  0  0  0  0  0  0  0
  153.5095  138.7823  154.1487 H   0  0  0  0  0  0  0  0  0  0  0  0
  152.9583  137.9085  155.5764 H   0  0  0  0  0  0  0  0  0  0  0  0
  151.4095  137.0482  153.9861 H   0  0  0  0  0  0  0  0  0  0  0  0
  151.4053  138.5497  153.0776 H   0  0  0  0  0  0  0  0  0  0  0  0
  142.2711  134.2788  152.2454 H   0  0  0  0  0  0  0  0  0  0  0  0
  1  2  1  0  0  0  0
  1 26  1  0  0  0  0
  1 27  1  0  0  0  0
  1 28  1  0  0  0  0
  2  3  1  0  0  0  0
  2 18  1  0  0  0  0
  2 29  1  0  0  0  0
  3  4  1  0  0  0  0
  3 30  1  0  0  0  0
  4  5  2  0  0  0  0
  4  6  1  0  0  0  0
  6  7  1  0  0  0  0
  6 31  1  0  0  0  0
  7 12  1  0  0  0  0
  7  8  2  0  0  0  0
  8  9  1  0  0  0  0
  8 32  1  0  0  0  0
  9 10  2  0  0  0  0
  9 33  1  0  0  0  0
 10 11  1  0  0  0  0
 10 34  1  0  0  0  0
 11 12  2  0  0  0  0
 11 53  1  0  0  0  0
 12 13  1  0  0  0  0
 13 17  1  0  0  0  0
 13 14  1  0  0  0  0
 14 15  1  0  0  0  0
 14 35  1  0  0  0  0
 14 36  1  0  0  0  0
 15 16  1  0  0  0  0
 15 37  1  0  0  0  0
 15 38  1  0  0  0  0
 16 17  1  0  0  0  0
 16 39  1  0  0  0  0
 16 40  1  0  0  0  0
 17 41  1  0  0  0  0
 17 42  1  0  0  0  0
 18 19  2  0  0  0  0
 18 20  1  0  0  0  0
 20 21  1  0  0  0  0
 20 43  1  0  0  0  0
 21 25  1  0  0  0  0
 21 22  1  0  0  0  0
 21 44  1  0  0  0  0
 22 23  1  0  0  0  0
 22 45  1  0  0  0  0
 22 46  1  0  0  0  0
 23 24  1  0  0  0  0
 23 47  1  0  0  0  0
 23 48  1  0  0  0  0
 24 25  1  0  0  0  0
 24 49  1  0  0  0  0
 24 50  1  0  0  0  0
 25 51  1  0  0  0  0
 25 52  1  0  0  0  0
M  CHG  1  11   1
M  END
> <s_m_source_file>
AV-unprocessed.smi

> <i_m_source_file_index>
830

> <i_lp_mmshare_version>
43012

> <i_f3d_flags>
0

> <s_epik_input>
W0NIMl0xW0NIMl1bQ0gyXVtDSDJdW0NIXTFbTkhdQyg9TylbQ0BIXShbQ0gzXSlbTkhdQyg9TylbTkhdYzJbY0hdW2NIXVtjSF1uYzJOM1tDSDJdW0NIMl1bQ0gyXVtDSDJdMw==

> <s_epik_cmdline>
J2VwaWtfcHl0aG9uJywgJy1waCcsICc3LjAnLCAnLXRuJywgJzgnLCAnLW1hJywgJzIwMCcsICctbWV0YWxfYmluZGluZycsICctaW1hZScsICc8aW5maWxlLm1hZT4nLCAnLW9tYWUnLCAnPG91dGZpbGUubWFlPic=

> <r_lp_tautomer_probability>
0.999994

> <r_epik_Ionization_Penalty>
1.21091

> <r_epik_Ionization_Penalty_Charging>
1.21089

> <r_epik_Ionization_Penalty_Neutral>
1.88713e-05

> <r_epik_State_Penalty>
1.27732

> <r_epik_Charging_Adjusted_Penalty>
2.48821

> <i_epik_Tot_Q>
1

> <i_epik_Tot_abs_Q>
1

> <r_epik_Metal_State_Penalty>
1.3505

> <b_epik_Metal_Only>
0

> <s_lp_Force_Field>
OPLS_2005

> <r_lp_Energy>
52.1076

> <b_lp_Chiralities_Consistent>
1

> <s_lp_Variant>
AV-unprocessed.smi:830-3

> <Gold.Version>
5.8.1

> <Gold.Id.Protein>
6NUR|6NUR_protein|mol2

> <Gold.PLP.Fitness>
49.6173

> <Gold.PLP.PLP>
-42.3272

> <Gold.PLP.part.hbond>
-4.3603

> <Gold.PLP.part.metal>
0.0000

> <Gold.PLP.part.buried>
-5.3758

> <Gold.PLP.part.nonpolar>
-37.5277

> <Gold.PLP.part.repulsive>
4.9958

> <Gold.PLP.ligand.clash>
0.0000

> <Gold.PLP.ligand.torsion>
0.9882

> <Gold.PLP.Chemscore.Hbond>
2.9353

> <Gold.PLP.Chemscore.CHOScore>
0.0000

> <Gold.PLP.Chemscore.Metal>
0.0000

> <Gold.Chemscore.Hbonds>
donor molecule, donor type, donor heavy atom, donor atom, acceptor molecule, acceptor atom, score
      L1  H     3    30       P1 10175  1.00
      L1  H     6    31       P1 10175  0.94
      L1  H    20    43       P1  7957  0.99

> <Gold.PLP.Chemscore.Internal.Correction>
0.4608

> <Gold.Rescore>
     Score         DG    S(hbond)    S(metal)    S(lipo)     H(rot)  DE(clash)    DE(int)     intcor
     16.62     -22.04       2.82        0.00      97.57       1.67       2.19       3.23       ----

> <Gold.Chemscore.Fitness>
16.6195

> <Gold.Chemscore.DG>
-22.0371

> <Gold.Chemscore.ZeroCoef>
-5.4800

> <Gold.Chemscore.Hbond>
2.8176

> <Gold.Chemscore.Metal>
0.0000

> <Gold.Chemscore.Lipo>
97.5680

> <Gold.Chemscore.Internal_Hbond>
0.0000

> <Gold.Chemscore.DEClash>
2.1892

> <Gold.Chemscore.DEInternal>
3.2284

> <Gold.Chemscore.Rot>
1.6676

> <Gold.Chemscore.Internal.Correction>
   9.000000E+99

> <Gold.Chemscore.Hbonds>
donor molecule, donor type, donor heavy atom, donor atom, acceptor molecule, acceptor atom, score
      L1  H     3    30       P1 10175  0.98
      L1  H     6    31       P1 10175  0.87
      L1  H    20    43       P1  7957  0.92

> <Gold.Chemscore.Hbond.Weighted>
-9.4108

> <Gold.Chemscore.Metal.Weighted>
-0.0000

> <Gold.Chemscore.Lipo.Weighted>
-11.4155

> <Gold.Chemscore.Internal_Hbond.Weighted>
0.0000

> <Gold.Chemscore.DEClash.Weighted>
2.1892

> <Gold.Chemscore.DEInternal.Weighted>
3.2284

> <Gold.Chemscore.Rot.Weighted>
4.2691

> <Gold.Chemscore.Internal.Correction.Weighted>
   9.000000E+99

> <Gold.Protein.RotatedTorsions>
[ 6907 6896 6895 6894 ] final  -57.37 input  -60.11 | X-H torsion
[ 7974 7965 7964 7962 ] final  -19.10 input  175.53 | X-H torsion
[ 8008 7997 7996 7995 ] final  -75.30 input   59.86 | X-H torsion
[ 10167 10162 10161 10158 ] final  -93.65 input  -65.29 | X-H torsion
[ 10718 10713 10712 10709 ] final  -55.12 input   66.30 | X-H torsion
[ 10763 10752 10751 10750 ] final -176.82 input  -60.55 | X-H torsion
[ 11005 11000 10999 10996 ] final   19.05 input  -57.11 | X-H torsion

> <Gold.Protein.ActiveResidues>
 VAL166  LYS551  ARG553  GLY616  TRP617  ASP618  TYR619  PRO620  LYS621  CYS622 
 ASP623  PHE694  ASN695  SER759  ASP760  ASP761  ALA762  ILE779  LEU786  VAL792 
 PHE793  MET794  SER795  GLU796  ALA797  LYS798  CYS799  TRP800  GLU811  SER814 

> <Gold.Protein.RotatedAtoms>
  150.8091  134.7235  159.6671 H   0  0  0  0  0  0  0  0  0  0  0  0  # atno 6907 bound_to 6896
  152.4211  134.5949  159.9994 H   0  0  0  0  0  0  0  0  0  0  0  0  # atno 6908 bound_to 6896
  151.6164  133.3305  159.3114 H   0  0  0  0  0  0  0  0  0  0  0  0  # atno 6909 bound_to 6896
  146.1859  140.4014  142.8476 H   0  0  0  0  0  0  0  0  0  0  0  0  # atno 7974 bound_to 7965
  154.5405  140.0746  156.8501 H   0  0  0  0  0  0  0  0  0  0  0  0  # atno 8008 bound_to 7997
  155.3191  140.3395  155.4223 H   0  0  0  0  0  0  0  0  0  0  0  0  # atno 8009 bound_to 7997
  156.1869  140.1672  156.8153 H   0  0  0  0  0  0  0  0  0  0  0  0  # atno 8010 bound_to 7997
  140.3224  143.3041  152.0031 H   0  0  0  0  0  0  0  0  0  0  0  0  # atno 10167 bound_to 10162
  156.1395  130.4155  150.0128 H   0  0  0  0  0  0  0  0  0  0  0  0  # atno 10718 bound_to 10713
  154.5677  135.2825  155.0858 H   0  0  0  0  0  0  0  0  0  0  0  0  # atno 10763 bound_to 10752
  154.2242  135.6385  153.5158 H   0  0  0  0  0  0  0  0  0  0  0  0  # atno 10764 bound_to 10752
  153.0048  135.5522  154.6291 H   0  0  0  0  0  0  0  0  0  0  0  0  # atno 10765 bound_to 10752
  140.4180  134.1548  155.7671 H   0  0  0  0  0  0  0  0  0  0  0  0  # atno 11005 bound_to 11000
  144.8396  140.6836  143.6238 LP  0  0  0  0  0  0  0  0  0  0  0  0  # atno 17320 bound_to 7965
  145.3941  139.1611  143.4213 LP  0  0  0  0  0  0  0  0  0  0  0  0  # atno 17321 bound_to 7965
  139.4871  144.6300  151.7089 LP  0  0  0  0  0  0  0  0  0  0  0  0  # atno 17342 bound_to 10162
  140.5471  144.0485  150.6111 LP  0  0  0  0  0  0  0  0  0  0  0  0  # atno 17343 bound_to 10162
  156.8017  130.9293  151.3646 LP  0  0  0  0  0  0  0  0  0  0  0  0  # atno 17370 bound_to 10713
  157.6562  130.8927  149.9735 LP  0  0  0  0  0  0  0  0  0  0  0  0  # atno 17371 bound_to 10713
  141.1795  133.8444  157.1307 LP  0  0  0  0  0  0  0  0  0  0  0  0  # atno 17394 bound_to 11000
  140.0220  134.9941  157.0610 LP  0  0  0  0  0  0  0  0  0  0  0  0  # atno 17395 bound_to 11000

$$$$
