AV-unprocessed.smi:102|AV-procd|sdf|963|dock10
  -GOLD-   2262017503D 1   1.00000     0.00000
 Structure written by MMmdl.
 43 44  0  0  0  0  0  0  0  0  2 V2000
  145.2915  137.4823  162.4739 C   0  0  0  0  0  0  0  0  0  0  0  0
  146.7609  137.1796  162.2133 C   0  0  0  0  0  0  0  0  0  0  0  0
  147.6213  137.3751  163.0718 O   0  0  0  0  0  0  0  0  0  0  0  0
  146.9710  136.7010  160.9793 O   0  0  0  0  0  0  0  0  0  0  0  0
  148.2783  136.3198  160.5797 C   0  0  0  0  0  0  0  0  0  0  0  0
  148.3372  136.0583  159.0653 C   0  0  2  0  0  0  0  0  0  0  0  0
  149.6935  135.8968  158.6523 O   0  0  0  0  0  0  0  0  0  0  0  0
  150.0450  136.8785  157.7206 C   0  0  2  0  0  0  0  0  0  0  0  0
  151.4023  137.4417  158.0729 N   0  0  0  0  0  0  0  0  0  0  0  0
  151.5182  138.6422  158.7530 C   0  0  0  0  0  0  0  0  0  0  0  0
  152.7248  139.1720  159.0378 C   0  0  0  0  0  0  0  0  0  0  0  0
  152.8032  140.3405  159.6974 F   0  0  0  0  0  0  0  0  0  0  0  0
  153.9382  138.4705  158.6235 C   0  0  0  0  0  0  0  0  0  0  0  0
  155.0365  138.9584  158.8857 O   0  0  0  0  0  0  0  0  0  0  0  0
  153.7946  137.2896  157.9549 N   0  5  0  0  0  0  0  0  0  0  0  0
  152.5746  136.7521  157.6596 C   0  0  0  0  0  0  0  0  0  0  0  0
  152.4383  135.6944  157.0448 O   0  0  0  0  0  0  0  0  0  0  0  0
  148.9773  137.9715  157.7850 C   0  0  1  0  0  0  0  0  0  0  0  0
  148.8313  138.6286  156.5326 O   0  0  0  0  0  0  0  0  0  0  0  0
  149.5356  139.7396  156.2686 C   0  0  0  0  0  0  0  0  0  0  0  0
  149.4307  140.1575  154.8084 C   0  0  0  0  0  0  0  0  0  0  0  0
  150.2020  140.3855  157.0777 O   0  0  0  0  0  0  0  0  0  0  0  0
  147.7440  137.1860  158.2078 C   0  0  1  0  0  0  0  0  0  0  0  0
  147.0883  136.6290  157.0711 O   0  0  0  0  0  0  0  0  0  0  0  0
  145.9975  135.8589  157.2249 C   0  0  0  0  0  0  0  0  0  0  0  0
  145.4263  135.3921  155.8927 C   0  0  0  0  0  0  0  0  0  0  0  0
  145.4840  135.5333  158.2952 O   0  0  0  0  0  0  0  0  0  0  0  0
  144.8506  137.9947  161.6180 H   0  0  0  0  0  0  0  0  0  0  0  0
  145.1839  138.1218  163.3504 H   0  0  0  0  0  0  0  0  0  0  0  0
  144.7398  136.5583  162.6480 H   0  0  0  0  0  0  0  0  0  0  0  0
  148.9980  137.0960  160.8439 H   0  0  0  0  0  0  0  0  0  0  0  0
  148.5616  135.4171  161.1222 H   0  0  0  0  0  0  0  0  0  0  0  0
  147.8167  135.1189  158.8756 H   0  0  0  0  0  0  0  0  0  0  0  0
  150.1334  136.4020  156.7427 H   0  0  0  0  0  0  0  0  0  0  0  0
  150.6354  139.1755  159.0679 H   0  0  0  0  0  0  0  0  0  0  0  0
  149.2609  138.6715  158.5727 H   0  0  0  0  0  0  0  0  0  0  0  0
  149.7564  139.3445  154.1589 H   0  0  0  0  0  0  0  0  0  0  0  0
  150.0567  141.0283  154.6123 H   0  0  0  0  0  0  0  0  0  0  0  0
  148.3994  140.4084  154.5599 H   0  0  0  0  0  0  0  0  0  0  0  0
  147.0575  137.8214  158.7697 H   0  0  0  0  0  0  0  0  0  0  0  0
  145.2388  136.2460  155.2417 H   0  0  0  0  0  0  0  0  0  0  0  0
  144.4873  134.8590  156.0434 H   0  0  0  0  0  0  0  0  0  0  0  0
  146.1279  134.7231  155.3944 H   0  0  0  0  0  0  0  0  0  0  0  0
  1  2  1  0  0  0  0
  1 28  1  0  0  0  0
  1 29  1  0  0  0  0
  1 30  1  0  0  0  0
  2  3  2  0  0  0  0
  2  4  1  0  0  0  0
  4  5  1  0  0  0  0
  5  6  1  0  0  0  0
  5 31  1  0  0  0  0
  5 32  1  0  0  0  0
  6 23  1  0  0  0  0
  6  7  1  0  0  0  0
  6 33  1  0  0  0  0
  7  8  1  0  0  0  0
  8  9  1  0  0  0  0
  8 18  1  0  0  0  0
  8 34  1  0  0  0  0
  9 16  1  0  0  0  0
  9 10  1  0  0  0  0
 10 11  2  0  0  0  0
 10 35  1  0  0  0  0
 11 12  1  0  0  0  0
 11 13  1  0  0  0  0
 13 14  2  0  0  0  0
 13 15  1  0  0  0  0
 15 16  1  0  0  0  0
 16 17  2  0  0  0  0
 18 19  1  0  0  0  0
 18 23  1  0  0  0  0
 18 36  1  0  0  0  0
 19 20  1  0  0  0  0
 20 21  1  0  0  0  0
 20 22  2  0  0  0  0
 21 37  1  0  0  0  0
 21 38  1  0  0  0  0
 21 39  1  0  0  0  0
 23 24  1  0  0  0  0
 23 40  1  0  0  0  0
 24 25  1  0  0  0  0
 25 26  1  0  0  0  0
 25 27  2  0  0  0  0
 26 41  1  0  0  0  0
 26 42  1  0  0  0  0
 26 43  1  0  0  0  0
M  CHG  1  15  -1
M  END
> <s_m_source_file>
AV-unprocessed.smi

> <i_m_source_file_index>
102

> <i_lp_mmshare_version>
43012

> <i_f3d_flags>
0

> <s_epik_input>
W0NIM11DKD1PKU9bQ0gyXVtDQEBIXTFPW0NASF0oW0NAQEhdKE9DKD1PKVtDSDNdKVtDQEhdMU9DKD1PKVtDSDNdKW4yW2NIXWMoRiljKD1PKVtuSF1jMj1P

> <s_epik_cmdline>
J2VwaWtfcHl0aG9uJywgJy1waCcsICc3LjAnLCAnLXRuJywgJzgnLCAnLW1hJywgJzIwMCcsICctbWV0YWxfYmluZGluZycsICctaW1hZScsICc8aW5maWxlLm1hZT4nLCAnLW9tYWUnLCAnPG91dGZpbGUubWFlPic=

> <r_epik_Ionization_Penalty>
1.40304

> <r_epik_Ionization_Penalty_Charging>
1.43915e-08

> <r_epik_Ionization_Penalty_Neutral>
1.40304

> <r_epik_State_Penalty>
1.48536

> <r_epik_Charging_Adjusted_Penalty>
1.48536

> <i_epik_Tot_Q>
-1

> <i_epik_Tot_abs_Q>
1

> <r_epik_Metal_State_Penalty>
0.00663881

> <b_epik_Metal_Only>
0

> <s_epik_Chemistry_Notes>
This compound has an ester and may undergo hydrolysis at high or low pH. This compound contains an acetal/aminal-like group ( X-CH(R)-Y where X, Y are N, S, or O) that may be acid/base labile, releasing an aldehyde.

> <s_lp_Force_Field>
OPLS_2005

> <r_lp_Energy>
27.0192

> <b_lp_Chiralities_Consistent>
1

> <s_lp_Variant>
AV-unprocessed.smi:102-19

> <Gold.Version>
5.8.1

> <Gold.Id.Protein>
6NUR|6NUR_protein|mol2

> <Gold.PLP.Fitness>
35.5564

> <Gold.PLP.PLP>
-26.9509

> <Gold.PLP.part.hbond>
-4.1257

> <Gold.PLP.part.metal>
0.0000

> <Gold.PLP.part.buried>
-4.6858

> <Gold.PLP.part.nonpolar>
-17.5970

> <Gold.PLP.part.repulsive>
0.0204

> <Gold.PLP.ligand.clash>
0.0000

> <Gold.PLP.ligand.torsion>
1.1382

> <Gold.PLP.Chemscore.Hbond>
3.5920

> <Gold.PLP.Chemscore.CHOScore>
0.0000

> <Gold.PLP.Chemscore.Metal>
0.0000

> <Gold.Chemscore.Hbonds>
donor molecule, donor type, donor heavy atom, donor atom, acceptor molecule, acceptor atom, score
      P1  H  6896  6908       L1     7  1.00
      P1  H  6931  6943       L1     3  0.58
      P1  H  7997  8008       L1    14  1.00
      P1  H 10752 10763       L1    17  0.96

> <Gold.PLP.Chemscore.Internal.Correction>
0.1059

> <Gold.Rescore>
     Score         DG    S(hbond)    S(metal)    S(lipo)     H(rot)  DE(clash)    DE(int)     intcor
      7.17      -9.87       3.22        0.00      33.01       4.00       0.01       2.68       ----

> <Gold.Chemscore.Fitness>
7.1689

> <Gold.Chemscore.DG>
-9.8663

> <Gold.Chemscore.ZeroCoef>
-5.4800

> <Gold.Chemscore.Hbond>
3.2191

> <Gold.Chemscore.Metal>
0.0000

> <Gold.Chemscore.Lipo>
33.0075

> <Gold.Chemscore.Internal_Hbond>
0.0000

> <Gold.Chemscore.DEClash>
0.0136

> <Gold.Chemscore.DEInternal>
2.6839

> <Gold.Chemscore.Rot>
3.9951

> <Gold.Chemscore.Internal.Correction>
   9.000000E+99

> <Gold.Chemscore.Hbonds>
donor molecule, donor type, donor heavy atom, donor atom, acceptor molecule, acceptor atom, score
      P1  H  6896  6908       L1     7  0.96
      P1  H  6931  6943       L1     3  0.14
      P1  H  7997  8008       L1    14  0.35
      P1  H 10752 10763       L1    17  0.90

> <Gold.Chemscore.Hbond.Weighted>
-10.7519

> <Gold.Chemscore.Metal.Weighted>
-0.0000

> <Gold.Chemscore.Lipo.Weighted>
-3.8619

> <Gold.Chemscore.Internal_Hbond.Weighted>
0.0000

> <Gold.Chemscore.DEClash.Weighted>
0.0136

> <Gold.Chemscore.DEInternal.Weighted>
2.6839

> <Gold.Chemscore.Rot.Weighted>
10.2274

> <Gold.Chemscore.Internal.Correction.Weighted>
   9.000000E+99

> <Gold.Protein.RotatedTorsions>
[ 6907 6896 6895 6894 ] final  178.56 input  -60.11 | X-H torsion
[ 7974 7965 7964 7962 ] final  117.00 input  175.53 | X-H torsion
[ 8008 7997 7996 7995 ] final -135.17 input   59.86 | X-H torsion
[ 10167 10162 10161 10158 ] final -149.28 input  -65.29 | X-H torsion
[ 10718 10713 10712 10709 ] final   24.90 input   66.30 | X-H torsion
[ 10763 10752 10751 10750 ] final  102.28 input  -60.55 | X-H torsion
[ 11005 11000 10999 10996 ] final  167.29 input  -57.11 | X-H torsion

> <Gold.Protein.ActiveResidues>
 VAL166  LYS551  ARG553  GLY616  TRP617  ASP618  TYR619  PRO620  LYS621  CYS622 
 ASP623  PHE694  ASN695  SER759  ASP760  ASP761  ALA762  ILE779  LEU786  VAL792 
 PHE793  MET794  SER795  GLU796  ALA797  LYS798  CYS799  TRP800  GLU811  SER814 

> <Gold.Protein.RotatedAtoms>
  151.6859  133.3311  159.3230 H   0  0  0  0  0  0  0  0  0  0  0  0  # atno 6907 bound_to 6896
  150.7801  134.6740  159.6417 H   0  0  0  0  0  0  0  0  0  0  0  0  # atno 6908 bound_to 6896
  152.3856  134.6526  160.0179 H   0  0  0  0  0  0  0  0  0  0  0  0  # atno 6909 bound_to 6896
  145.1728  139.3092  143.4459 H   0  0  0  0  0  0  0  0  0  0  0  0  # atno 7974 bound_to 7965
  155.3742  140.0490  157.3045 H   0  0  0  0  0  0  0  0  0  0  0  0  # atno 8008 bound_to 7997
  154.5114  140.2193  155.9111 H   0  0  0  0  0  0  0  0  0  0  0  0  # atno 8009 bound_to 7997
  156.1587  140.3121  155.8776 H   0  0  0  0  0  0  0  0  0  0  0  0  # atno 8010 bound_to 7997
  139.7456  143.8595  152.2574 H   0  0  0  0  0  0  0  0  0  0  0  0  # atno 10167 bound_to 10162
  157.1860  130.6824  149.6131 H   0  0  0  0  0  0  0  0  0  0  0  0  # atno 10718 bound_to 10713
  153.3375  135.4016  155.1545 H   0  0  0  0  0  0  0  0  0  0  0  0  # atno 10763 bound_to 10752
  154.8636  135.3625  154.5389 H   0  0  0  0  0  0  0  0  0  0  0  0  # atno 10764 bound_to 10752
  153.5832  135.7076  153.5514 H   0  0  0  0  0  0  0  0  0  0  0  0  # atno 10765 bound_to 10752
  140.2752  134.7794  157.3710 H   0  0  0  0  0  0  0  0  0  0  0  0  # atno 11005 bound_to 11000
  146.3466  140.1879  142.8589 LP  0  0  0  0  0  0  0  0  0  0  0  0  # atno 17320 bound_to 7965
  145.0215  140.8798  143.5163 LP  0  0  0  0  0  0  0  0  0  0  0  0  # atno 17321 bound_to 7965
  139.8559  144.7141  150.9158 LP  0  0  0  0  0  0  0  0  0  0  0  0  # atno 17342 bound_to 10162
  140.7791  143.3859  151.1394 LP  0  0  0  0  0  0  0  0  0  0  0  0  # atno 17343 bound_to 10162
  155.9718  130.4630  150.6167 LP  0  0  0  0  0  0  0  0  0  0  0  0  # atno 17370 bound_to 10713
  157.3906  131.0795  151.1397 LP  0  0  0  0  0  0  0  0  0  0  0  0  # atno 17371 bound_to 10713
  140.1335  134.5064  155.8087 LP  0  0  0  0  0  0  0  0  0  0  0  0  # atno 17394 bound_to 11000
  141.2171  133.6798  156.7082 LP  0  0  0  0  0  0  0  0  0  0  0  0  # atno 17395 bound_to 11000

$$$$
