AV-unprocessed.smi:531|AV-procd|sdf|2847|dock4
  -GOLD-   2262023333D 1   1.00000     0.00000
 Structure written by MMmdl.
 45 47  0  0  0  0  0  0  0  0  2 V2000
  146.8410  142.3479  154.0883 C   0  0  0  0  0  0  0  0  0  0  0  0
  147.8767  141.3247  153.6169 C   0  0  0  0  0  0  0  0  0  0  0  0
  149.1464  141.7064  154.1137 O   0  0  0  0  0  0  0  0  0  0  0  0
  149.3270  141.3875  155.4831 C   0  0  0  0  0  0  0  0  0  0  0  0
  150.6985  141.8924  155.9521 C   0  0  0  0  0  0  0  0  0  0  0  0
  151.3409  140.9462  156.8643 N   0  0  0  0  0  0  0  0  0  0  0  0
  151.6986  141.1465  158.1627 C   0  0  0  0  0  0  0  0  0  0  0  0
  151.5174  142.3704  158.8110 N   0  0  0  0  0  0  0  0  0  0  0  0
  152.2820  142.8618  159.9579 C   0  0  0  0  0  0  0  0  0  0  0  0
  152.7839  144.2996  159.7325 C   0  0  0  0  0  0  0  0  0  0  0  0
  151.6040  145.2414  159.4557 C   0  0  0  0  0  0  0  0  0  0  0  0
  150.7329  144.6733  158.3266 C   0  0  0  0  0  0  0  0  0  0  0  0
  150.3388  143.2147  158.6215 C   0  0  0  0  0  0  0  0  0  0  0  0
  152.1880  140.0686  158.7775 N   0  0  0  0  0  0  0  0  0  0  0  0
  152.1633  139.1035  157.7835 C   0  0  0  0  0  0  0  0  0  0  0  0
  151.6512  139.6008  156.6254 C   0  0  0  0  0  0  0  0  0  0  0  0
  151.4592  138.7888  155.4005 C   0  0  0  0  0  0  0  0  0  0  0  0
  150.9737  139.2733  154.3807 O   0  0  0  0  0  0  0  0  0  0  0  0
  151.8739  137.4932  155.5674 N   0  5  0  0  0  0  0  0  0  0  0  0
  152.4010  136.9524  156.7197 C   0  0  0  0  0  0  0  0  0  0  0  0
  152.7420  135.7706  156.7864 O   0  0  0  0  0  0  0  0  0  0  0  0
  152.5543  137.7378  157.8313 N   0  0  0  0  0  0  0  0  0  0  0  0
  153.1072  137.1884  159.0729 C   0  0  0  0  0  0  0  0  0  0  0  0
  145.8459  142.0929  153.7238 H   0  0  0  0  0  0  0  0  0  0  0  0
  147.0859  143.3464  153.7251 H   0  0  0  0  0  0  0  0  0  0  0  0
  146.7996  142.3890  155.1770 H   0  0  0  0  0  0  0  0  0  0  0  0
  147.6135  140.3299  153.9794 H   0  0  0  0  0  0  0  0  0  0  0  0
  147.8945  141.2881  152.5266 H   0  0  0  0  0  0  0  0  0  0  0  0
  148.5378  141.8434  156.0825 H   0  0  0  0  0  0  0  0  0  0  0  0
  149.2617  140.3077  155.6245 H   0  0  0  0  0  0  0  0  0  0  0  0
  151.3445  142.0846  155.0993 H   0  0  0  0  0  0  0  0  0  0  0  0
  150.5932  142.8609  156.4306 H   0  0  0  0  0  0  0  0  0  0  0  0
  151.6418  142.8321  160.8406 H   0  0  0  0  0  0  0  0  0  0  0  0
  153.1114  142.1912  160.1787 H   0  0  0  0  0  0  0  0  0  0  0  0
  153.3392  144.6439  160.6052 H   0  0  0  0  0  0  0  0  0  0  0  0
  153.4784  144.3249  158.8925 H   0  0  0  0  0  0  0  0  0  0  0  0
  151.0035  145.3489  160.3597 H   0  0  0  0  0  0  0  0  0  0  0  0
  151.9634  146.2376  159.1966 H   0  0  0  0  0  0  0  0  0  0  0  0
  149.8390  145.2848  158.2007 H   0  0  0  0  0  0  0  0  0  0  0  0
  151.2771  144.7201  157.3826 H   0  0  0  0  0  0  0  0  0  0  0  0
  149.7414  142.8270  157.7956 H   0  0  0  0  0  0  0  0  0  0  0  0
  149.7098  143.1626  159.5112 H   0  0  0  0  0  0  0  0  0  0  0  0
  154.0863  136.7415  158.8945 H   0  0  0  0  0  0  0  0  0  0  0  0
  152.4473  136.4174  159.4728 H   0  0  0  0  0  0  0  0  0  0  0  0
  153.2349  137.9441  159.8475 H   0  0  0  0  0  0  0  0  0  0  0  0
  1  2  1  0  0  0  0
  1 24  1  0  0  0  0
  1 25  1  0  0  0  0
  1 26  1  0  0  0  0
  2  3  1  0  0  0  0
  2 27  1  0  0  0  0
  2 28  1  0  0  0  0
  3  4  1  0  0  0  0
  4  5  1  0  0  0  0
  4 29  1  0  0  0  0
  4 30  1  0  0  0  0
  5  6  1  0  0  0  0
  5 31  1  0  0  0  0
  5 32  1  0  0  0  0
  6 16  1  0  0  0  0
  6  7  1  0  0  0  0
  7  8  1  0  0  0  0
  7 14  2  0  0  0  0
  8 13  1  0  0  0  0
  8  9  1  0  0  0  0
  9 10  1  0  0  0  0
  9 33  1  0  0  0  0
  9 34  1  0  0  0  0
 10 11  1  0  0  0  0
 10 35  1  0  0  0  0
 10 36  1  0  0  0  0
 11 12  1  0  0  0  0
 11 37  1  0  0  0  0
 11 38  1  0  0  0  0
 12 13  1  0  0  0  0
 12 39  1  0  0  0  0
 12 40  1  0  0  0  0
 13 41  1  0  0  0  0
 13 42  1  0  0  0  0
 14 15  1  0  0  0  0
 15 22  1  0  0  0  0
 15 16  2  0  0  0  0
 16 17  1  0  0  0  0
 17 18  2  0  0  0  0
 17 19  1  0  0  0  0
 19 20  1  0  0  0  0
 20 21  2  0  0  0  0
 20 22  1  0  0  0  0
 22 23  1  0  0  0  0
 23 43  1  0  0  0  0
 23 44  1  0  0  0  0
 23 45  1  0  0  0  0
M  CHG  1  19  -1
M  END
> <s_m_source_file>
AV-unprocessed.smi

> <i_m_source_file_index>
531

> <i_lp_mmshare_version>
43012

> <i_f3d_flags>
0

> <s_epik_input>
W0NIM11uMWMoPU8pW25IXWMoPU8pYyhjMTIpbihbQ0gyXVtDSDJdT1tDSDJdW0NIM10pYyhuMilOM1tDSDJdW0NIMl1bQ0gyXVtDSDJdW0NIMl0z

> <s_epik_cmdline>
J2VwaWtfcHl0aG9uJywgJy1waCcsICc3LjAnLCAnLXRuJywgJzgnLCAnLW1hJywgJzIwMCcsICctbWV0YWxfYmluZGluZycsICctaW1hZScsICc8aW5maWxlLm1hZT4nLCAnLW9tYWUnLCAnPG91dGZpbGUubWFlPic=

> <r_lp_tautomer_probability>
1

> <r_epik_Ionization_Penalty>
5.10252

> <r_epik_Ionization_Penalty_Charging>
0.0734613

> <r_epik_Ionization_Penalty_Neutral>
5.02906

> <r_epik_State_Penalty>
5.02576

> <r_epik_Charging_Adjusted_Penalty>
5.09922

> <i_epik_Tot_Q>
-1

> <i_epik_Tot_abs_Q>
1

> <r_epik_Metal_State_Penalty>
1.13821

> <b_epik_Metal_Only>
1

> <s_lp_Force_Field>
OPLS_2005

> <r_lp_Energy>
41.0851

> <b_lp_Chiralities_Consistent>
1

> <s_lp_Variant>
AV-unprocessed.smi:531-2

> <Gold.Version>
5.8.1

> <Gold.Id.Protein>
6NUR|6NUR_protein|mol2

> <Gold.PLP.Fitness>
49.7584

> <Gold.PLP.PLP>
-43.5080

> <Gold.PLP.part.hbond>
-3.9850

> <Gold.PLP.part.metal>
0.0000

> <Gold.PLP.part.buried>
-5.8295

> <Gold.PLP.part.nonpolar>
-33.2508

> <Gold.PLP.part.repulsive>
0.3696

> <Gold.PLP.ligand.clash>
0.0000

> <Gold.PLP.ligand.torsion>
0.8166

> <Gold.PLP.Chemscore.Hbond>
2.4282

> <Gold.PLP.Chemscore.CHOScore>
0.0000

> <Gold.PLP.Chemscore.Metal>
0.0000

> <Gold.Chemscore.Hbonds>
donor molecule, donor type, donor heavy atom, donor atom, acceptor molecule, acceptor atom, score
      P1  H  7989  7998       L1    18  1.00
      P1  H  8011  8017       L1     3  0.39
      P1  H 10752 10765       L1    21  1.00

> <Gold.PLP.Chemscore.Internal.Correction>
0.5990

> <Gold.Rescore>
     Score         DG    S(hbond)    S(metal)    S(lipo)     H(rot)  DE(clash)    DE(int)     intcor
     15.38     -18.53       1.85        0.00      93.52       1.59       0.07       3.09       ----

> <Gold.Chemscore.Fitness>
15.3755

> <Gold.Chemscore.DG>
-18.5283

> <Gold.Chemscore.ZeroCoef>
-5.4800

> <Gold.Chemscore.Hbond>
1.8509

> <Gold.Chemscore.Metal>
0.0000

> <Gold.Chemscore.Lipo>
93.5199

> <Gold.Chemscore.Internal_Hbond>
0.0000

> <Gold.Chemscore.DEClash>
0.0675

> <Gold.Chemscore.DEInternal>
3.0853

> <Gold.Chemscore.Rot>
1.5920

> <Gold.Chemscore.Internal.Correction>
   9.000000E+99

> <Gold.Chemscore.Hbonds>
donor molecule, donor type, donor heavy atom, donor atom, acceptor molecule, acceptor atom, score
      P1  H  7989  7998       L1    18  0.99
      P1  H  8011  8017       L1     3  0.04
      P1  H 10752 10765       L1    21  0.60

> <Gold.Chemscore.Hbond.Weighted>
-6.1821

> <Gold.Chemscore.Metal.Weighted>
-0.0000

> <Gold.Chemscore.Lipo.Weighted>
-10.9418

> <Gold.Chemscore.Internal_Hbond.Weighted>
0.0000

> <Gold.Chemscore.DEClash.Weighted>
0.0675

> <Gold.Chemscore.DEInternal.Weighted>
3.0853

> <Gold.Chemscore.Rot.Weighted>
4.0756

> <Gold.Chemscore.Internal.Correction.Weighted>
   9.000000E+99

> <Gold.Protein.RotatedTorsions>
[ 6907 6896 6895 6894 ] final  152.31 input  -60.11 | X-H torsion
[ 7974 7965 7964 7962 ] final -128.56 input  175.53 | X-H torsion
[ 8008 7997 7996 7995 ] final   92.95 input   59.86 | X-H torsion
[ 10167 10162 10161 10158 ] final   -9.84 input  -65.29 | X-H torsion
[ 10718 10713 10712 10709 ] final  166.04 input   66.30 | X-H torsion
[ 10763 10752 10751 10750 ] final -124.16 input  -60.55 | X-H torsion
[ 11005 11000 10999 10996 ] final  -66.04 input  -57.11 | X-H torsion

> <Gold.Protein.ActiveResidues>
 VAL166  LYS551  ARG553  GLY616  TRP617  ASP618  TYR619  PRO620  LYS621  CYS622 
 ASP623  PHE694  ASN695  SER759  ASP760  ASP761  ALA762  ILE779  LEU786  VAL792 
 PHE793  MET794  SER795  GLU796  ALA797  LYS798  CYS799  TRP800  GLU811  SER814 

> <Gold.Protein.RotatedAtoms>
  152.0885  133.4188  159.4532 H   0  0  0  0  0  0  0  0  0  0  0  0  # atno 6907 bound_to 6896
  150.6862  134.2899  159.4671 H   0  0  0  0  0  0  0  0  0  0  0  0  # atno 6908 bound_to 6896
  152.0748  134.9509  160.0625 H   0  0  0  0  0  0  0  0  0  0  0  0  # atno 6909 bound_to 6896
  144.9659  140.7495  143.4700 H   0  0  0  0  0  0  0  0  0  0  0  0  # atno 7974 bound_to 7965
  156.0413  140.3319  155.7246 H   0  0  0  0  0  0  0  0  0  0  0  0  # atno 8008 bound_to 7997
  155.5741  140.0630  157.2817 H   0  0  0  0  0  0  0  0  0  0  0  0  # atno 8009 bound_to 7997
  154.4394  140.1855  156.0897 H   0  0  0  0  0  0  0  0  0  0  0  0  # atno 8010 bound_to 7997
  140.7098  143.5814  150.8988 H   0  0  0  0  0  0  0  0  0  0  0  0  # atno 10167 bound_to 10162
  157.0716  131.0368  151.2609 H   0  0  0  0  0  0  0  0  0  0  0  0  # atno 10718 bound_to 10713
  154.8719  135.4073  154.3061 H   0  0  0  0  0  0  0  0  0  0  0  0  # atno 10763 bound_to 10752
  153.3912  135.7015  153.6499 H   0  0  0  0  0  0  0  0  0  0  0  0  # atno 10764 bound_to 10752
  153.5281  135.3673  155.2634 H   0  0  0  0  0  0  0  0  0  0  0  0  # atno 10765 bound_to 10752
  141.1471  133.6692  156.6078 H   0  0  0  0  0  0  0  0  0  0  0  0  # atno 11005 bound_to 11000
  145.2631  139.1984  143.4881 LP  0  0  0  0  0  0  0  0  0  0  0  0  # atno 17320 bound_to 7965
  146.3367  140.2565  142.8600 LP  0  0  0  0  0  0  0  0  0  0  0  0  # atno 17321 bound_to 7965
  139.9540  143.6240  152.3021 LP  0  0  0  0  0  0  0  0  0  0  0  0  # atno 17342 bound_to 10162
  139.6768  144.7658  151.1681 LP  0  0  0  0  0  0  0  0  0  0  0  0  # atno 17343 bound_to 10162
  157.4873  130.7801  149.7473 LP  0  0  0  0  0  0  0  0  0  0  0  0  # atno 17370 bound_to 10713
  155.9949  130.3915  150.2841 LP  0  0  0  0  0  0  0  0  0  0  0  0  # atno 17371 bound_to 10713
  140.3638  134.7664  157.4552 LP  0  0  0  0  0  0  0  0  0  0  0  0  # atno 17394 bound_to 11000
  140.0764  134.5792  155.8587 LP  0  0  0  0  0  0  0  0  0  0  0  0  # atno 17395 bound_to 11000

$$$$
