AV-unprocessed.smi:1110|AV-procd|sdf|4791|dock8
  -GOLD-   22720 3333D 1   1.00000     0.00000
 Structure written by MMmdl.
 44 45  0  0  0  0  0  0  0  0  2 V2000
  149.2654  131.9022  154.1386 C   0  0  0  0  0  0  0  0  0  0  0  0
  148.5837  132.8230  153.1163 C   0  0  0  0  0  0  0  0  0  0  0  0
  147.5685  133.8274  153.7262 C   0  0  1  0  0  0  0  0  0  0  0  0
  148.1927  134.6323  154.8952 C   0  0  0  0  0  0  0  0  0  0  0  0
  148.9134  135.8042  154.4108 N   0  0  0  0  0  0  0  0  0  0  0  0
  149.3123  136.8451  155.1592 C   0  0  0  0  0  0  0  0  0  0  0  0
  149.1045  136.9130  156.3696 O   0  0  0  0  0  0  0  0  0  0  0  0
  150.0472  138.0011  154.4583 C   0  0  0  0  0  0  0  0  0  0  0  0
  149.2088  139.1780  154.1636 N   0  0  0  0  0  0  0  0  0  0  0  0
  147.9859  138.9393  153.5054 C   0  0  0  0  0  0  0  0  0  0  0  0
  147.1496  139.9366  153.1767 C   0  0  0  0  0  0  0  0  0  0  0  0
  147.5306  141.2867  153.5181 C   0  0  0  0  0  0  0  0  0  0  0  0
  148.7004  141.5269  154.1434 C   0  0  0  0  0  0  0  0  0  0  0  0
  149.6215  140.4406  154.4965 C   0  0  0  0  0  0  0  0  0  0  0  0
  150.7022  140.6523  155.0459 O   0  0  0  0  0  0  0  0  0  0  0  0
  147.0271  134.7298  152.6647 N   0  3  0  0  0  0  0  0  0  0  0  0
  146.4984  134.0465  151.4559 C   0  0  0  0  0  0  0  0  0  0  0  0
  145.2509  134.8178  151.0036 C   0  0  0  0  0  0  0  0  0  0  0  0
  145.2766  136.1068  151.8155 C   0  0  0  0  0  0  0  0  0  0  0  0
  145.9832  135.6854  153.0979 C   0  0  0  0  0  0  0  0  0  0  0  0
  149.8554  131.1379  153.6321 H   0  0  0  0  0  0  0  0  0  0  0  0
  148.5320  131.3926  154.7640 H   0  0  0  0  0  0  0  0  0  0  0  0
  149.9456  132.4513  154.7895 H   0  0  0  0  0  0  0  0  0  0  0  0
  149.3470  133.3562  152.5481 H   0  0  0  0  0  0  0  0  0  0  0  0
  148.0808  132.1770  152.3973 H   0  0  0  0  0  0  0  0  0  0  0  0
  146.7292  133.2592  154.1308 H   0  0  0  0  0  0  0  0  0  0  0  0
  147.4180  134.9244  155.6052 H   0  0  0  0  0  0  0  0  0  0  0  0
  148.8802  134.0142  155.4714 H   0  0  0  0  0  0  0  0  0  0  0  0
  149.1389  135.8235  153.4265 H   0  0  0  0  0  0  0  0  0  0  0  0
  150.8908  138.2944  155.0850 H   0  0  0  0  0  0  0  0  0  0  0  0
  150.5005  137.6167  153.5430 H   0  0  0  0  0  0  0  0  0  0  0  0
  147.7782  137.9025  153.2838 H   0  0  0  0  0  0  0  0  0  0  0  0
  146.2166  139.7349  152.6710 H   0  0  0  0  0  0  0  0  0  0  0  0
  146.8734  142.1083  153.2733 H   0  0  0  0  0  0  0  0  0  0  0  0
  148.9681  142.5435  154.3924 H   0  0  0  0  0  0  0  0  0  0  0  0
  147.2659  134.0480  150.6813 H   0  0  0  0  0  0  0  0  0  0  0  0
  146.2326  133.0081  151.6597 H   0  0  0  0  0  0  0  0  0  0  0  0
  145.2366  135.0015  149.9289 H   0  0  0  0  0  0  0  0  0  0  0  0
  144.3560  134.2459  151.2536 H   0  0  0  0  0  0  0  0  0  0  0  0
  145.8681  136.8621  151.2961 H   0  0  0  0  0  0  0  0  0  0  0  0
  144.2825  136.5186  151.9930 H   0  0  0  0  0  0  0  0  0  0  0  0
  145.2748  135.1841  153.7597 H   0  0  0  0  0  0  0  0  0  0  0  0
  146.4027  136.5402  153.6292 H   0  0  0  0  0  0  0  0  0  0  0  0
  147.7969  135.3005  152.3458 H   0  0  0  0  0  0  0  0  0  0  0  0
  1  2  1  0  0  0  0
  1 21  1  0  0  0  0
  1 22  1  0  0  0  0
  1 23  1  0  0  0  0
  2  3  1  0  0  0  0
  2 24  1  0  0  0  0
  2 25  1  0  0  0  0
  3  4  1  0  0  0  0
  3 16  1  0  0  0  0
  3 26  1  0  0  0  0
  4  5  1  0  0  0  0
  4 27  1  0  0  0  0
  4 28  1  0  0  0  0
  5  6  1  0  0  0  0
  5 29  1  0  0  0  0
  6  7  2  0  0  0  0
  6  8  1  0  0  0  0
  8  9  1  0  0  0  0
  8 30  1  0  0  0  0
  8 31  1  0  0  0  0
  9 14  1  0  0  0  0
  9 10  1  0  0  0  0
 10 11  2  0  0  0  0
 10 32  1  0  0  0  0
 11 12  1  0  0  0  0
 11 33  1  0  0  0  0
 12 13  2  0  0  0  0
 12 34  1  0  0  0  0
 13 14  1  0  0  0  0
 13 35  1  0  0  0  0
 14 15  2  0  0  0  0
 16 20  1  0  0  0  0
 16 17  1  0  0  0  0
 16 44  1  0  0  0  0
 17 18  1  0  0  0  0
 17 36  1  0  0  0  0
 17 37  1  0  0  0  0
 18 19  1  0  0  0  0
 18 38  1  0  0  0  0
 18 39  1  0  0  0  0
 19 20  1  0  0  0  0
 19 40  1  0  0  0  0
 19 41  1  0  0  0  0
 20 42  1  0  0  0  0
 20 43  1  0  0  0  0
M  CHG  1  16   1
M  END
> <s_m_source_file>
AV-unprocessed.smi

> <i_m_source_file_index>
1110

> <i_lp_mmshare_version>
43012

> <i_f3d_flags>
0

> <s_epik_input>
W0NIMl0xW0NIMl1bQ0gyXVtDSDJdTjFbQ0BIXShbQ0gyXVtDSDNdKVtDSDJdW05IXUMoPU8pW0NIMl1uMltjSF1bY0hdW2NIXVtjSF1jMj1P

> <s_epik_cmdline>
J2VwaWtfcHl0aG9uJywgJy1waCcsICc3LjAnLCAnLXRuJywgJzgnLCAnLW1hJywgJzIwMCcsICctbWV0YWxfYmluZGluZycsICctaW1hZScsICc8aW5maWxlLm1hZT4nLCAnLW9tYWUnLCAnPG91dGZpbGUubWFlPic=

> <r_lp_tautomer_probability>
1

> <r_epik_Ionization_Penalty>
0.00361135

> <r_epik_Ionization_Penalty_Charging>
0.00361127

> <r_epik_Ionization_Penalty_Neutral>
7.8489e-08

> <r_epik_State_Penalty>
0.00256751

> <r_epik_Charging_Adjusted_Penalty>
0.00617878

> <i_epik_Tot_Q>
1

> <i_epik_Tot_abs_Q>
1

> <r_epik_Metal_State_Penalty>
-0

> <b_epik_Metal_Only>
0

> <s_lp_Force_Field>
OPLS_2005

> <r_lp_Energy>
49.2182

> <b_lp_Chiralities_Consistent>
1

> <s_lp_Variant>
AV-unprocessed.smi:1110-2

> <Gold.Version>
5.8.1

> <Gold.Id.Protein>
6NUR|6NUR_protein|mol2

> <Gold.PLP.Fitness>
48.4223

> <Gold.PLP.PLP>
-35.4279

> <Gold.PLP.part.hbond>
-3.0000

> <Gold.PLP.part.metal>
0.0000

> <Gold.PLP.part.buried>
-1.7300

> <Gold.PLP.part.nonpolar>
-31.2827

> <Gold.PLP.part.repulsive>
0.0934

> <Gold.PLP.ligand.clash>
0.0000

> <Gold.PLP.ligand.torsion>
0.7676

> <Gold.PLP.Chemscore.Hbond>
3.7888

> <Gold.PLP.Chemscore.CHOScore>
1.0000

> <Gold.PLP.Chemscore.Metal>
0.0000

> <Gold.Chemscore.Hbonds>
donor molecule, donor type, donor heavy atom, donor atom, acceptor molecule, acceptor atom, score
      L1  H     5    29       P1  7948  1.00
      L1  H    16    44       P1  7948  2.00
      P1  H  7989  7998       L1    15  0.70
      L1  C    10    32       P1  7948  1.00

> <Gold.PLP.Chemscore.Internal.Correction>
0.1632

> <Gold.Rescore>
     Score         DG    S(hbond)    S(metal)    S(lipo)     H(rot)  DE(clash)    DE(int)     intcor
     16.38     -17.11       2.52        0.00      70.94       1.99       0.02       0.71       ----

> <Gold.Chemscore.Fitness>
16.3776

> <Gold.Chemscore.DG>
-17.1082

> <Gold.Chemscore.ZeroCoef>
-5.4800

> <Gold.Chemscore.Hbond>
2.5211

> <Gold.Chemscore.Metal>
0.0000

> <Gold.Chemscore.Lipo>
70.9440

> <Gold.Chemscore.Internal_Hbond>
0.0000

> <Gold.Chemscore.DEClash>
0.0163

> <Gold.Chemscore.DEInternal>
0.7143

> <Gold.Chemscore.Rot>
1.9893

> <Gold.Chemscore.Internal.Correction>
   9.000000E+99

> <Gold.Chemscore.Hbonds>
donor molecule, donor type, donor heavy atom, donor atom, acceptor molecule, acceptor atom, score
      L1  H     5    29       P1  7948  0.77
      L1  H    16    44       P1  7948  0.93
      P1  H  7989  7998       L1    15  0.08

> <Gold.Chemscore.Hbond.Weighted>
-8.4204

> <Gold.Chemscore.Metal.Weighted>
-0.0000

> <Gold.Chemscore.Lipo.Weighted>
-8.3005

> <Gold.Chemscore.Internal_Hbond.Weighted>
0.0000

> <Gold.Chemscore.DEClash.Weighted>
0.0163

> <Gold.Chemscore.DEInternal.Weighted>
0.7143

> <Gold.Chemscore.Rot.Weighted>
5.0927

> <Gold.Chemscore.Internal.Correction.Weighted>
   9.000000E+99

> <Gold.Protein.RotatedTorsions>
[ 6907 6896 6895 6894 ] final  -44.08 input  -60.11 | X-H torsion
[ 7974 7965 7964 7962 ] final  -61.11 input  175.53 | X-H torsion
[ 8008 7997 7996 7995 ] final -102.94 input   59.86 | X-H torsion
[ 10167 10162 10161 10158 ] final -137.91 input  -65.29 | X-H torsion
[ 10718 10713 10712 10709 ] final -149.84 input   66.30 | X-H torsion
[ 10763 10752 10751 10750 ] final  109.39 input  -60.55 | X-H torsion
[ 11005 11000 10999 10996 ] final   14.94 input  -57.11 | X-H torsion

> <Gold.Protein.ActiveResidues>
 VAL166  LYS551  ARG553  GLY616  TRP617  ASP618  TYR619  PRO620  LYS621  CYS622 
 ASP623  PHE694  ASN695  SER759  ASP760  ASP761  ALA762  ILE779  LEU786  VAL792 
 PHE793  MET794  SER795  GLU796  ALA797  LYS798  CYS799  TRP800  GLU811  SER814 

> <Gold.Protein.RotatedAtoms>
  150.9368  134.8779  159.7586 H   0  0  0  0  0  0  0  0  0  0  0  0  # atno 6907 bound_to 6896
  152.5062  134.4000  159.9423 H   0  0  0  0  0  0  0  0  0  0  0  0  # atno 6908 bound_to 6896
  151.4023  133.3713  159.2768 H   0  0  0  0  0  0  0  0  0  0  0  0  # atno 6909 bound_to 6896
  145.8074  140.8619  143.0200 H   0  0  0  0  0  0  0  0  0  0  0  0  # atno 7974 bound_to 7965
  154.8638  140.0425  157.1682 H   0  0  0  0  0  0  0  0  0  0  0  0  # atno 8008 bound_to 7997
  154.8812  140.2973  155.5404 H   0  0  0  0  0  0  0  0  0  0  0  0  # atno 8009 bound_to 7997
  156.2999  140.2411  156.3814 H   0  0  0  0  0  0  0  0  0  0  0  0  # atno 8010 bound_to 7997
  139.8531  143.7173  152.2656 H   0  0  0  0  0  0  0  0  0  0  0  0  # atno 10167 bound_to 10162
  156.4384  130.8110  151.2339 H   0  0  0  0  0  0  0  0  0  0  0  0  # atno 10718 bound_to 10713
  153.4341  135.3781  155.2188 H   0  0  0  0  0  0  0  0  0  0  0  0  # atno 10763 bound_to 10752
  154.8751  135.3847  154.4233 H   0  0  0  0  0  0  0  0  0  0  0  0  # atno 10764 bound_to 10752
  153.4769  135.7088  153.6024 H   0  0  0  0  0  0  0  0  0  0  0  0  # atno 10765 bound_to 10752
  140.4638  134.1100  155.7721 H   0  0  0  0  0  0  0  0  0  0  0  0  # atno 11005 bound_to 11000
  144.6761  140.0346  143.7482 LP  0  0  0  0  0  0  0  0  0  0  0  0  # atno 17320 bound_to 7965
  145.9814  139.2944  143.1040 LP  0  0  0  0  0  0  0  0  0  0  0  0  # atno 17321 bound_to 7965
  139.7446  144.7550  151.0599 LP  0  0  0  0  0  0  0  0  0  0  0  0  # atno 17342 bound_to 10162
  140.7785  143.4931  150.9867 LP  0  0  0  0  0  0  0  0  0  0  0  0  # atno 17343 bound_to 10162
  157.7507  131.0176  150.3592 LP  0  0  0  0  0  0  0  0  0  0  0  0  # atno 17370 bound_to 10713
  156.3944  130.3904  149.7006 LP  0  0  0  0  0  0  0  0  0  0  0  0  # atno 17371 bound_to 10713
  141.1609  133.8795  157.1851 LP  0  0  0  0  0  0  0  0  0  0  0  0  # atno 17394 bound_to 11000
  139.9928  135.0058  157.0014 LP  0  0  0  0  0  0  0  0  0  0  0  0  # atno 17395 bound_to 11000

$$$$
