AV-unprocessed.smi:558|AV-procd|sdf|2923|dock3
  -GOLD-   2262023413D 1   1.00000     0.00000
 Structure written by MMmdl.
 36 37  0  0  0  0  0  0  0  0  1 V2000
  154.1134  141.4671  161.3230 C   0  0  0  0  0  0  0  0  0  0  0  0
  153.2226  142.4817  160.6694 C   0  0  0  0  0  0  0  0  0  0  0  0
  152.6192  143.6315  161.2507 C   0  0  0  0  0  0  0  0  0  0  0  0
  151.9172  144.2000  160.2254 C   0  0  0  0  0  0  0  0  0  0  0  0
  151.0747  145.4336  160.2094 C   0  0  0  0  0  0  0  0  0  0  0  0
  152.1184  143.4033  159.1107 N   0  0  0  0  0  0  0  0  0  0  0  0
  151.6021  143.5587  157.7595 C   0  0  0  0  0  0  0  0  0  0  0  0
  151.0197  142.2462  157.2317 C   0  0  0  0  0  0  0  0  0  0  0  0
  151.2350  141.1927  157.8302 O   0  0  0  0  0  0  0  0  0  0  0  0
  150.2825  142.3257  156.1130 N   0  0  0  0  0  0  0  0  0  0  0  0
  149.6394  141.2034  155.4378 C   0  0  0  0  0  0  0  0  0  0  0  0
  150.6502  140.3683  154.6307 C   0  0  1  0  0  0  0  0  0  0  0  0
  151.8888  139.9828  155.4130 C   0  0  0  0  0  0  0  0  0  0  0  0
  152.4489  138.8383  154.5739 C   0  0  0  0  0  0  0  0  0  0  0  0
  151.3214  138.2076  153.9729 O   0  0  0  0  0  0  0  0  0  0  0  0
  150.1514  138.9920  154.1861 C   0  0  0  0  0  0  0  0  0  0  0  0
  152.9186  142.3508  159.3891 N   0  0  0  0  0  0  0  0  0  0  0  0
  154.2263  141.6697  162.3882 H   0  0  0  0  0  0  0  0  0  0  0  0
  155.1082  141.4736  160.8770 H   0  0  0  0  0  0  0  0  0  0  0  0
  153.7065  140.4611  161.2184 H   0  0  0  0  0  0  0  0  0  0  0  0
  152.6913  143.9859  162.2684 H   0  0  0  0  0  0  0  0  0  0  0  0
  150.9117  145.8047  161.2213 H   0  0  0  0  0  0  0  0  0  0  0  0
  150.0980  145.2390  159.7665 H   0  0  0  0  0  0  0  0  0  0  0  0
  151.5579  146.2258  159.6377 H   0  0  0  0  0  0  0  0  0  0  0  0
  150.8278  144.3277  157.7554 H   0  0  0  0  0  0  0  0  0  0  0  0
  152.4006  143.9159  157.1082 H   0  0  0  0  0  0  0  0  0  0  0  0
  150.1605  143.2359  155.6935 H   0  0  0  0  0  0  0  0  0  0  0  0
  149.1812  140.5777  156.2042 H   0  0  0  0  0  0  0  0  0  0  0  0
  148.8238  141.5464  154.7988 H   0  0  0  0  0  0  0  0  0  0  0  0
  150.9621  140.9298  153.7483 H   0  0  0  0  0  0  0  0  0  0  0  0
  152.5944  140.8053  155.5327 H   0  0  0  0  0  0  0  0  0  0  0  0
  151.6157  139.6196  156.4049 H   0  0  0  0  0  0  0  0  0  0  0  0
  153.0908  139.2268  153.7824 H   0  0  0  0  0  0  0  0  0  0  0  0
  153.0320  138.1335  155.1672 H   0  0  0  0  0  0  0  0  0  0  0  0
  149.5622  138.5211  154.9744 H   0  0  0  0  0  0  0  0  0  0  0  0
  149.5358  139.0393  153.2874 H   0  0  0  0  0  0  0  0  0  0  0  0
  1  2  1  0  0  0  0
  1 18  1  0  0  0  0
  1 19  1  0  0  0  0
  1 20  1  0  0  0  0
  2 17  2  0  0  0  0
  2  3  1  0  0  0  0
  3  4  2  0  0  0  0
  3 21  1  0  0  0  0
  4  5  1  0  0  0  0
  4  6  1  0  0  0  0
  5 22  1  0  0  0  0
  5 23  1  0  0  0  0
  5 24  1  0  0  0  0
  6  7  1  0  0  0  0
  6 17  1  0  0  0  0
  7  8  1  0  0  0  0
  7 25  1  0  0  0  0
  7 26  1  0  0  0  0
  8  9  2  0  0  0  0
  8 10  1  0  0  0  0
 10 11  1  0  0  0  0
 10 27  1  0  0  0  0
 11 12  1  0  0  0  0
 11 28  1  0  0  0  0
 11 29  1  0  0  0  0
 12 16  1  0  0  0  0
 12 13  1  0  0  0  0
 12 30  1  0  0  0  0
 13 14  1  0  0  0  0
 13 31  1  0  0  0  0
 13 32  1  0  0  0  0
 14 15  1  0  0  0  0
 14 33  1  0  0  0  0
 14 34  1  0  0  0  0
 15 16  1  0  0  0  0
 16 35  1  0  0  0  0
 16 36  1  0  0  0  0
M  END
> <s_m_source_file>
AV-unprocessed.smi

> <i_m_source_file_index>
558

> <i_lp_mmshare_version>
43012

> <i_f3d_flags>
0

> <s_epik_input>
W0NIM11jMVtjSF1jKFtDSDNdKW4objEpW0NIMl1DKD1PKVtOSF1bQ0gyXVtDQEBIXTJbQ0gyXVtDSDJdT1tDSDJdMg==

> <s_epik_cmdline>
J2VwaWtfcHl0aG9uJywgJy1waCcsICc3LjAnLCAnLXRuJywgJzgnLCAnLW1hJywgJzIwMCcsICctbWV0YWxfYmluZGluZycsICctaW1hZScsICc8aW5maWxlLm1hZT4nLCAnLW9tYWUnLCAnPG91dGZpbGUubWFlPic=

> <r_lp_tautomer_probability>
1

> <r_epik_Ionization_Penalty>
0.000376629

> <r_epik_Ionization_Penalty_Charging>
0

> <r_epik_Ionization_Penalty_Neutral>
0.000376629

> <r_epik_State_Penalty>
-0

> <r_epik_Charging_Adjusted_Penalty>
0

> <i_epik_Tot_Q>
0

> <i_epik_Tot_abs_Q>
0

> <r_epik_Metal_State_Penalty>
-0

> <b_epik_Metal_Only>
0

> <s_lp_Force_Field>
OPLS_2005

> <r_lp_Energy>
17.6381

> <b_lp_Chiralities_Consistent>
1

> <s_lp_Variant>
AV-unprocessed.smi:558-2

> <Gold.Version>
5.8.1

> <Gold.Id.Protein>
6NUR|6NUR_protein|mol2

> <Gold.PLP.Fitness>
44.6678

> <Gold.PLP.PLP>
-43.5769

> <Gold.PLP.part.hbond>
-1.0000

> <Gold.PLP.part.metal>
0.0000

> <Gold.PLP.part.buried>
-3.4870

> <Gold.PLP.part.nonpolar>
-39.7413

> <Gold.PLP.part.repulsive>
0.3455

> <Gold.PLP.ligand.clash>
0.0000

> <Gold.PLP.ligand.torsion>
0.4718

> <Gold.PLP.Chemscore.Hbond>
0.6720

> <Gold.PLP.Chemscore.CHOScore>
0.0000

> <Gold.PLP.Chemscore.Metal>
0.0000

> <Gold.Chemscore.Hbonds>
donor molecule, donor type, donor heavy atom, donor atom, acceptor molecule, acceptor atom, score
      L1  H    10    27       P1  8028  0.82

> <Gold.PLP.Chemscore.Internal.Correction>
0.0186

> <Gold.Rescore>
     Score         DG    S(hbond)    S(metal)    S(lipo)     H(rot)  DE(clash)    DE(int)     intcor
     13.32     -16.79       0.97        0.00     102.64       1.54       0.13       3.34       ----

> <Gold.Chemscore.Fitness>
13.3155

> <Gold.Chemscore.DG>
-16.7868

> <Gold.Chemscore.ZeroCoef>
-5.4800

> <Gold.Chemscore.Hbond>
0.9693

> <Gold.Chemscore.Metal>
0.0000

> <Gold.Chemscore.Lipo>
102.6376

> <Gold.Chemscore.Internal_Hbond>
0.0000

> <Gold.Chemscore.DEClash>
0.1295

> <Gold.Chemscore.DEInternal>
3.3418

> <Gold.Chemscore.Rot>
1.5387

> <Gold.Chemscore.Internal.Correction>
   9.000000E+99

> <Gold.Chemscore.Hbonds>
donor molecule, donor type, donor heavy atom, donor atom, acceptor molecule, acceptor atom, score
      L1  H    10    27       P1  8028  0.81

> <Gold.Chemscore.Hbond.Weighted>
-3.2373

> <Gold.Chemscore.Metal.Weighted>
-0.0000

> <Gold.Chemscore.Lipo.Weighted>
-12.0086

> <Gold.Chemscore.Internal_Hbond.Weighted>
0.0000

> <Gold.Chemscore.DEClash.Weighted>
0.1295

> <Gold.Chemscore.DEInternal.Weighted>
3.3418

> <Gold.Chemscore.Rot.Weighted>
3.9392

> <Gold.Chemscore.Internal.Correction.Weighted>
   9.000000E+99

> <Gold.Protein.RotatedTorsions>
[ 6907 6896 6895 6894 ] final  -89.46 input  -60.11 | X-H torsion
[ 7974 7965 7964 7962 ] final   94.99 input  175.53 | X-H torsion
[ 8008 7997 7996 7995 ] final   15.11 input   59.86 | X-H torsion
[ 10167 10162 10161 10158 ] final   32.22 input  -65.29 | X-H torsion
[ 10718 10713 10712 10709 ] final  -36.31 input   66.30 | X-H torsion
[ 10763 10752 10751 10750 ] final  -13.79 input  -60.55 | X-H torsion
[ 11005 11000 10999 10996 ] final  -67.10 input  -57.11 | X-H torsion

> <Gold.Protein.ActiveResidues>
 VAL166  LYS551  ARG553  GLY616  TRP617  ASP618  TYR619  PRO620  LYS621  CYS622 
 ASP623  PHE694  ASN695  SER759  ASP760  ASP761  ALA762  ILE779  LEU786  VAL792 
 PHE793  MET794  SER795  GLU796  ALA797  LYS798  CYS799  TRP800  GLU811  SER814 

> <Gold.Protein.RotatedAtoms>
  150.6874  134.2583  159.4538 H   0  0  0  0  0  0  0  0  0  0  0  0  # atno 6907 bound_to 6896
  152.0515  134.9648  160.0584 H   0  0  0  0  0  0  0  0  0  0  0  0  # atno 6908 bound_to 6896
  152.1110  133.4266  159.4668 H   0  0  0  0  0  0  0  0  0  0  0  0  # atno 6909 bound_to 6896
  145.4581  139.2288  143.3002 H   0  0  0  0  0  0  0  0  0  0  0  0  # atno 7974 bound_to 7965
  154.8580  140.2940  155.5556 H   0  0  0  0  0  0  0  0  0  0  0  0  # atno 8008 bound_to 7997
  156.3019  140.2483  156.3483 H   0  0  0  0  0  0  0  0  0  0  0  0  # atno 8009 bound_to 7997
  154.8949  140.0393  157.1849 H   0  0  0  0  0  0  0  0  0  0  0  0  # atno 8010 bound_to 7997
  140.4518  144.1037  150.6193 H   0  0  0  0  0  0  0  0  0  0  0  0  # atno 10167 bound_to 10162
  156.3283  130.4275  149.7896 H   0  0  0  0  0  0  0  0  0  0  0  0  # atno 10718 bound_to 10713
  153.5186  135.7016  153.5743 H   0  0  0  0  0  0  0  0  0  0  0  0  # atno 10763 bound_to 10752
  153.3802  135.3922  155.1851 H   0  0  0  0  0  0  0  0  0  0  0  0  # atno 10764 bound_to 10752
  154.8697  135.3833  154.4672 H   0  0  0  0  0  0  0  0  0  0  0  0  # atno 10765 bound_to 10752
  141.1499  133.6712  156.6241 H   0  0  0  0  0  0  0  0  0  0  0  0  # atno 11005 bound_to 11000
  146.2466  140.5347  142.8911 LP  0  0  0  0  0  0  0  0  0  0  0  0  # atno 17320 bound_to 7965
  144.8019  140.6230  143.6472 LP  0  0  0  0  0  0  0  0  0  0  0  0  # atno 17321 bound_to 7965
  140.4198  143.2617  151.9729 LP  0  0  0  0  0  0  0  0  0  0  0  0  # atno 17342 bound_to 10162
  139.4797  144.5841  151.7883 LP  0  0  0  0  0  0  0  0  0  0  0  0  # atno 17343 bound_to 10162
  156.5178  130.8201  151.3192 LP  0  0  0  0  0  0  0  0  0  0  0  0  # atno 17370 bound_to 10713
  157.7425  130.9893  150.2525 LP  0  0  0  0  0  0  0  0  0  0  0  0  # atno 17371 bound_to 10713
  140.3517  134.7762  157.4472 LP  0  0  0  0  0  0  0  0  0  0  0  0  # atno 17394 bound_to 11000
  140.0855  134.5672  155.8497 LP  0  0  0  0  0  0  0  0  0  0  0  0  # atno 17395 bound_to 11000

$$$$
