AV-unprocessed.smi:2999|AV-procd|sdf|11422|dock2
  -GOLD-   2272016343D 1   1.00000     0.00000
 Structure written by MMmdl.
 38 40  0  0  0  0  0  0  0  0  2 V2000
  150.3361  134.5320  155.7901 O   0  0  0  0  0  0  0  0  0  0  0  0
  149.8776  135.0733  154.7844 C   0  0  0  0  0  0  0  0  0  0  0  0
  148.9710  134.4943  153.9842 N   0  0  0  0  0  0  0  0  0  0  0  0
  148.4199  133.1528  154.1610 C   0  0  0  0  0  0  0  0  0  0  0  0
  147.8928  132.5400  152.8485 C   0  0  1  0  0  0  0  0  0  0  0  0
  147.1306  131.2092  153.0258 C   0  0  0  0  0  0  0  0  0  0  0  0
  146.6588  130.7104  151.7148 N   0  3  1  0  0  0  0  0  0  0  0  0
  145.9578  129.4128  151.8239 C   0  0  0  0  0  0  0  0  0  0  0  0
  146.5126  128.5116  152.9022 C   0  0  0  0  0  0  0  0  0  0  0  0
  146.8139  128.2262  151.4475 C   0  0  0  0  0  0  0  0  0  0  0  0
  145.8412  131.7390  151.0323 C   0  0  0  0  0  0  0  0  0  0  0  0
  146.6273  133.0556  150.9162 C   0  0  0  0  0  0  0  0  0  0  0  0
  147.0405  133.4858  152.2084 O   0  0  0  0  0  0  0  0  0  0  0  0
  150.1984  136.3018  154.3485 N   0  0  0  0  0  0  0  0  0  0  0  0
  151.0922  137.2268  154.9426 C   0  0  0  0  0  0  0  0  0  0  0  0
  151.9792  136.7838  155.8353 N   0  0  0  0  0  0  0  0  0  0  0  0
  152.7891  137.8125  156.3256 C   0  0  0  0  0  0  0  0  0  0  0  0
  152.5019  139.0437  155.7903 C   0  0  0  0  0  0  0  0  0  0  0  0
  151.1945  138.9632  154.6403 S   0  0  0  0  0  0  0  0  0  0  0  0
  148.6450  135.0148  153.1828 H   0  0  0  0  0  0  0  0  0  0  0  0
  149.2111  132.5194  154.5630 H   0  0  0  0  0  0  0  0  0  0  0  0
  147.6300  133.1567  154.9138 H   0  0  0  0  0  0  0  0  0  0  0  0
  148.7564  132.3652  152.2041 H   0  0  0  0  0  0  0  0  0  0  0  0
  147.7803  130.4669  153.4911 H   0  0  0  0  0  0  0  0  0  0  0  0
  146.2689  131.3382  153.6813 H   0  0  0  0  0  0  0  0  0  0  0  0
  144.8912  129.4180  151.6054 H   0  0  0  0  0  0  0  0  0  0  0  0
  147.3273  128.8861  153.5195 H   0  0  0  0  0  0  0  0  0  0  0  0
  145.8156  127.8455  153.4066 H   0  0  0  0  0  0  0  0  0  0  0  0
  146.3166  127.3710  150.9944 H   0  0  0  0  0  0  0  0  0  0  0  0
  147.8292  128.4106  151.1004 H   0  0  0  0  0  0  0  0  0  0  0  0
  145.5575  131.3868  150.0401 H   0  0  0  0  0  0  0  0  0  0  0  0
  144.9181  131.9035  151.5906 H   0  0  0  0  0  0  0  0  0  0  0  0
  147.4949  132.9350  150.2653 H   0  0  0  0  0  0  0  0  0  0  0  0
  146.0013  133.8290  150.4709 H   0  0  0  0  0  0  0  0  0  0  0  0
  149.7470  136.6162  153.5022 H   0  0  0  0  0  0  0  0  0  0  0  0
  153.5490  137.5783  157.0564 H   0  0  0  0  0  0  0  0  0  0  0  0
  152.9785  139.9894  156.0018 H   0  0  0  0  0  0  0  0  0  0  0  0
  147.4782  130.5566  151.1446 H   0  0  0  0  0  0  0  0  0  0  0  0
  1  2  2  0  0  0  0
  2  3  1  0  0  0  0
  2 14  1  0  0  0  0
  3  4  1  0  0  0  0
  3 20  1  0  0  0  0
  4  5  1  0  0  0  0
  4 21  1  0  0  0  0
  4 22  1  0  0  0  0
  5 13  1  0  0  0  0
  5  6  1  0  0  0  0
  5 23  1  0  0  0  0
  6  7  1  0  0  0  0
  6 24  1  0  0  0  0
  6 25  1  0  0  0  0
  7  8  1  0  0  0  0
  7 11  1  0  0  0  0
  7 38  1  0  0  0  0
  8 10  1  0  0  0  0
  8  9  1  0  0  0  0
  8 26  1  0  0  0  0
  9 10  1  0  0  0  0
  9 27  1  0  0  0  0
  9 28  1  0  0  0  0
 10 29  1  0  0  0  0
 10 30  1  0  0  0  0
 11 12  1  0  0  0  0
 11 31  1  0  0  0  0
 11 32  1  0  0  0  0
 12 13  1  0  0  0  0
 12 33  1  0  0  0  0
 12 34  1  0  0  0  0
 14 15  1  0  0  0  0
 14 35  1  0  0  0  0
 15 19  1  0  0  0  0
 15 16  2  0  0  0  0
 16 17  1  0  0  0  0
 17 18  2  0  0  0  0
 17 36  1  0  0  0  0
 18 19  1  0  0  0  0
 18 37  1  0  0  0  0
M  CHG  1   7   1
M  END
> <s_m_source_file>
AV-unprocessed.smi

> <i_m_source_file_index>
2999

> <i_lp_mmshare_version>
43012

> <i_f3d_flags>
0

> <s_epik_input>
czFbY0hdW2NIXW5jMVtOSF1DKD1PKVtOSF1bQ0gyXVtDQEBIXTJbQ0gyXU4oW0NIMl1bQ0gyXU8yKVtDSF0zW0NIMl1bQ0gyXTM=

> <s_epik_cmdline>
J2VwaWtfcHl0aG9uJywgJy1waCcsICc3LjAnLCAnLXRuJywgJzgnLCAnLW1hJywgJzIwMCcsICctbWV0YWxfYmluZGluZycsICctaW1hZScsICc8aW5maWxlLm1hZT4nLCAnLW9tYWUnLCAnPG91dGZpbGUubWFlPic=

> <r_lp_tautomer_probability>
0.999

> <r_epik_Ionization_Penalty>
1.55235

> <r_epik_Ionization_Penalty_Charging>
1.55221

> <r_epik_Ionization_Penalty_Neutral>
0.000139685

> <r_epik_State_Penalty>
1.64652

> <r_epik_Charging_Adjusted_Penalty>
3.19873

> <i_epik_Tot_Q>
1

> <i_epik_Tot_abs_Q>
1

> <r_epik_Metal_State_Penalty>
1.68612

> <b_epik_Metal_Only>
0

> <s_lp_Force_Field>
OPLS_2005

> <r_lp_Energy>
20.9615

> <b_lp_Chiralities_Consistent>
1

> <s_lp_Variant>
AV-unprocessed.smi:2999-6

> <Gold.Version>
5.8.1

> <Gold.Id.Protein>
6NUR|6NUR_protein|mol2

> <Gold.PLP.Fitness>
47.7293

> <Gold.PLP.PLP>
-36.7815

> <Gold.PLP.part.hbond>
-4.8809

> <Gold.PLP.part.metal>
0.0000

> <Gold.PLP.part.buried>
-3.0200

> <Gold.PLP.part.nonpolar>
-29.6616

> <Gold.PLP.part.repulsive>
0.3062

> <Gold.PLP.ligand.clash>
0.0000

> <Gold.PLP.ligand.torsion>
1.1410

> <Gold.PLP.Chemscore.Hbond>
3.9840

> <Gold.PLP.Chemscore.CHOScore>
0.0000

> <Gold.PLP.Chemscore.Metal>
0.0000

> <Gold.Chemscore.Hbonds>
donor molecule, donor type, donor heavy atom, donor atom, acceptor molecule, acceptor atom, score
      L1  H     3    20       P1  7948  0.99
      L1  H     7    38       P1 10747  1.00
      L1  H    14    35       P1  7948  0.99
      P1  H 10752 10765       L1    16  1.00

> <Gold.PLP.Chemscore.Internal.Correction>
1.2778

> <Gold.Rescore>
     Score         DG    S(hbond)    S(metal)    S(lipo)     H(rot)  DE(clash)    DE(int)     intcor
     19.76     -22.37       3.27        0.00      85.63       1.58       0.01       2.60       ----

> <Gold.Chemscore.Fitness>
19.7607

> <Gold.Chemscore.DG>
-22.3701

> <Gold.Chemscore.ZeroCoef>
-5.4800

> <Gold.Chemscore.Hbond>
3.2680

> <Gold.Chemscore.Metal>
0.0000

> <Gold.Chemscore.Lipo>
85.6293

> <Gold.Chemscore.Internal_Hbond>
0.0000

> <Gold.Chemscore.DEClash>
0.0137

> <Gold.Chemscore.DEInternal>
2.5958

> <Gold.Chemscore.Rot>
1.5795

> <Gold.Chemscore.Internal.Correction>
   9.000000E+99

> <Gold.Chemscore.Hbonds>
donor molecule, donor type, donor heavy atom, donor atom, acceptor molecule, acceptor atom, score
      L1  H     3    20       P1  7948  0.56
      L1  H     7    38       P1 10747  1.00
      L1  H    14    35       P1  7948  0.42
      P1  H 10752 10765       L1    16  0.33

> <Gold.Chemscore.Hbond.Weighted>
-10.9150

> <Gold.Chemscore.Metal.Weighted>
-0.0000

> <Gold.Chemscore.Lipo.Weighted>
-10.0186

> <Gold.Chemscore.Internal_Hbond.Weighted>
0.0000

> <Gold.Chemscore.DEClash.Weighted>
0.0137

> <Gold.Chemscore.DEInternal.Weighted>
2.5958

> <Gold.Chemscore.Rot.Weighted>
4.0434

> <Gold.Chemscore.Internal.Correction.Weighted>
   9.000000E+99

> <Gold.Protein.RotatedTorsions>
[ 6907 6896 6895 6894 ] final -103.04 input  -60.11 | X-H torsion
[ 7974 7965 7964 7962 ] final   -4.64 input  175.53 | X-H torsion
[ 8008 7997 7996 7995 ] final -135.59 input   59.86 | X-H torsion
[ 10167 10162 10161 10158 ] final -101.15 input  -65.29 | X-H torsion
[ 10718 10713 10712 10709 ] final  -72.57 input   66.30 | X-H torsion
[ 10763 10752 10751 10750 ] final -163.97 input  -60.55 | X-H torsion
[ 11005 11000 10999 10996 ] final  -90.24 input  -57.11 | X-H torsion

> <Gold.Protein.ActiveResidues>
 VAL166  LYS551  ARG553  GLY616  TRP617  ASP618  TYR619  PRO620  LYS621  CYS622 
 ASP623  PHE694  ASN695  SER759  ASP760  ASP761  ALA762  ILE779  LEU786  VAL792 
 PHE793  MET794  SER795  GLU796  ALA797  LYS798  CYS799  TRP800  GLU811  SER814 

> <Gold.Protein.RotatedAtoms>
  150.7222  134.0490  159.3791 H   0  0  0  0  0  0  0  0  0  0  0  0  # atno 6907 bound_to 6896
  151.8466  135.0570  160.0463 H   0  0  0  0  0  0  0  0  0  0  0  0  # atno 6908 bound_to 6896
  152.2822  133.5445  159.5541 H   0  0  0  0  0  0  0  0  0  0  0  0  # atno 6909 bound_to 6896
  146.2368  140.1901  142.8332 H   0  0  0  0  0  0  0  0  0  0  0  0  # atno 7974 bound_to 7965
  155.3812  140.0494  157.3043 H   0  0  0  0  0  0  0  0  0  0  0  0  # atno 8008 bound_to 7997
  154.5082  140.2182  155.9171 H   0  0  0  0  0  0  0  0  0  0  0  0  # atno 8009 bound_to 7997
  156.1551  140.3128  155.8717 H   0  0  0  0  0  0  0  0  0  0  0  0  # atno 8010 bound_to 7997
  140.2443  143.3517  152.0773 H   0  0  0  0  0  0  0  0  0  0  0  0  # atno 10167 bound_to 10162
  156.0315  130.4375  150.2612 H   0  0  0  0  0  0  0  0  0  0  0  0  # atno 10718 bound_to 10713
  154.7072  135.2999  154.9252 H   0  0  0  0  0  0  0  0  0  0  0  0  # atno 10763 bound_to 10752
  154.0165  135.6688  153.4773 H   0  0  0  0  0  0  0  0  0  0  0  0  # atno 10764 bound_to 10752
  153.0727  135.5052  154.8250 H   0  0  0  0  0  0  0  0  0  0  0  0  # atno 10765 bound_to 10752
  141.1569  133.7679  156.9709 H   0  0  0  0  0  0  0  0  0  0  0  0  # atno 11005 bound_to 11000
  144.9865  140.8507  143.5365 LP  0  0  0  0  0  0  0  0  0  0  0  0  # atno 17320 bound_to 7965
  145.1901  139.2305  143.5247 LP  0  0  0  0  0  0  0  0  0  0  0  0  # atno 17321 bound_to 7965
  139.5067  144.6818  151.5989 LP  0  0  0  0  0  0  0  0  0  0  0  0  # atno 17342 bound_to 10162
  140.6089  143.9472  150.6439 LP  0  0  0  0  0  0  0  0  0  0  0  0  # atno 17343 bound_to 10162
  157.0714  131.0118  151.3189 LP  0  0  0  0  0  0  0  0  0  0  0  0  # atno 17370 bound_to 10713
  157.4996  130.7872  149.7591 LP  0  0  0  0  0  0  0  0  0  0  0  0  # atno 17371 bound_to 10713
  140.1130  134.9465  157.2093 LP  0  0  0  0  0  0  0  0  0  0  0  0  # atno 17394 bound_to 11000
  140.3169  134.2960  155.7254 LP  0  0  0  0  0  0  0  0  0  0  0  0  # atno 17395 bound_to 11000

$$$$
