AV-unprocessed.smi:3009|AV-procd|sdf|11454|dock4
  -GOLD-   2272016383D 1   1.00000     0.00000
 Structure written by MMmdl.
 43 44  0  0  0  0  0  0  0  0  1 V2000
  150.0631  141.6184  155.4682 C   0  0  0  0  0  0  0  0  0  0  0  0
  149.1850  140.9493  154.3982 C   0  0  0  0  0  0  0  0  0  0  0  0
  148.0045  141.8575  154.0255 C   0  0  0  0  0  0  0  0  0  0  0  0
  148.6752  139.5662  154.8577 C   0  0  0  0  0  0  0  0  0  0  0  0
  149.7066  138.5986  155.2356 N   0  0  0  0  0  0  0  0  0  0  0  0
  150.9744  138.8232  154.5442 C   0  0  0  0  0  0  0  0  0  0  0  0
  152.0354  137.7822  154.9404 C   0  0  0  0  0  0  0  0  0  0  0  0
  151.5427  136.4704  154.6904 O   0  0  0  0  0  0  0  0  0  0  0  0
  150.3255  136.1911  155.3772 C   0  0  2  0  0  0  0  0  0  0  0  0
  149.9044  134.7353  155.0987 C   0  0  0  0  0  0  0  0  0  0  0  0
  149.0748  134.6044  153.9039 N   0  0  0  0  0  0  0  0  0  0  0  0
  148.2672  133.5695  153.6340 C   0  0  0  0  0  0  0  0  0  0  0  0
  148.1203  132.6045  154.3842 O   0  0  0  0  0  0  0  0  0  0  0  0
  147.6509  133.7282  152.4513 N   0  0  0  0  0  0  0  0  0  0  0  0
  146.7251  132.8468  151.8379 C   0  0  0  0  0  0  0  0  0  0  0  0
  146.0086  133.1288  150.6431 C   0  0  0  0  0  0  0  0  0  0  0  0
  145.2143  132.1225  150.3064 N   0  0  0  0  0  0  0  0  0  0  0  0
  145.4172  131.2008  151.2748 N   0  0  0  0  0  0  0  0  0  0  0  0
  146.3291  131.5981  152.2277 C   0  0  0  0  0  0  0  0  0  0  0  0
  149.2623  137.2346  154.9717 C   0  0  0  0  0  0  0  0  0  0  0  0
  144.9309  130.3154  151.2722 H   0  0  0  0  0  0  0  0  0  0  0  0
  149.5133  141.7650  156.3982 H   0  0  0  0  0  0  0  0  0  0  0  0
  150.4159  142.5937  155.1321 H   0  0  0  0  0  0  0  0  0  0  0  0
  150.9431  141.0151  155.6933 H   0  0  0  0  0  0  0  0  0  0  0  0
  149.7835  140.8321  153.4954 H   0  0  0  0  0  0  0  0  0  0  0  0
  147.3538  142.0353  154.8825 H   0  0  0  0  0  0  0  0  0  0  0  0
  147.3998  141.4108  153.2357 H   0  0  0  0  0  0  0  0  0  0  0  0
  148.3514  142.8259  153.6641 H   0  0  0  0  0  0  0  0  0  0  0  0
  148.0111  139.7246  155.7086 H   0  0  0  0  0  0  0  0  0  0  0  0
  148.0504  139.1345  154.0740 H   0  0  0  0  0  0  0  0  0  0  0  0
  150.8197  138.7883  153.4647 H   0  0  0  0  0  0  0  0  0  0  0  0
  151.3632  139.8142  154.7738 H   0  0  0  0  0  0  0  0  0  0  0  0
  152.9492  137.9344  154.3657 H   0  0  0  0  0  0  0  0  0  0  0  0
  152.2990  137.8833  155.9942 H   0  0  0  0  0  0  0  0  0  0  0  0
  150.5161  136.2810  156.4481 H   0  0  0  0  0  0  0  0  0  0  0  0
  150.7848  134.0944  155.0297 H   0  0  0  0  0  0  0  0  0  0  0  0
  149.3248  134.3606  155.9426 H   0  0  0  0  0  0  0  0  0  0  0  0
  149.1295  135.3532  153.2291 H   0  0  0  0  0  0  0  0  0  0  0  0
  147.8639  134.5701  151.9367 H   0  0  0  0  0  0  0  0  0  0  0  0
  146.0369  134.0124  150.0225 H   0  0  0  0  0  0  0  0  0  0  0  0
  146.5989  130.9732  153.0661 H   0  0  0  0  0  0  0  0  0  0  0  0
  148.3393  137.0362  155.5180 H   0  0  0  0  0  0  0  0  0  0  0  0
  149.0251  137.1289  153.9120 H   0  0  0  0  0  0  0  0  0  0  0  0
  1  2  1  0  0  0  0
  1 22  1  0  0  0  0
  1 23  1  0  0  0  0
  1 24  1  0  0  0  0
  2  3  1  0  0  0  0
  2  4  1  0  0  0  0
  2 25  1  0  0  0  0
  3 26  1  0  0  0  0
  3 27  1  0  0  0  0
  3 28  1  0  0  0  0
  4  5  1  0  0  0  0
  4 29  1  0  0  0  0
  4 30  1  0  0  0  0
  5 20  1  0  0  0  0
  5  6  1  0  0  0  0
  6  7  1  0  0  0  0
  6 31  1  0  0  0  0
  6 32  1  0  0  0  0
  7  8  1  0  0  0  0
  7 33  1  0  0  0  0
  7 34  1  0  0  0  0
  8  9  1  0  0  0  0
  9 10  1  0  0  0  0
  9 20  1  0  0  0  0
  9 35  1  0  0  0  0
 10 11  1  0  0  0  0
 10 36  1  0  0  0  0
 10 37  1  0  0  0  0
 11 12  1  0  0  0  0
 11 38  1  0  0  0  0
 12 13  2  0  0  0  0
 12 14  1  0  0  0  0
 14 15  1  0  0  0  0
 14 39  1  0  0  0  0
 15 19  2  0  0  0  0
 15 16  1  0  0  0  0
 16 17  2  0  0  0  0
 16 40  1  0  0  0  0
 17 18  1  0  0  0  0
 18 21  1  0  0  0  0
 18 19  1  0  0  0  0
 19 41  1  0  0  0  0
 20 42  1  0  0  0  0
 20 43  1  0  0  0  0
M  END
> <s_m_source_file>
AV-unprocessed.smi

> <i_m_source_file_index>
3009

> <i_lp_mmshare_version>
43012

> <i_f3d_flags>
0

> <s_epik_input>
W0NIM11bQ0hdKFtDSDNdKVtDSDJdTjFbQ0gyXVtDSDJdT1tDQEhdKFtDSDJdMSlbQ0gyXVtOSF1DKD1PKVtOSF1jMltjSF1uW25IXVtjSF0y

> <s_epik_cmdline>
J2VwaWtfcHl0aG9uJywgJy1waCcsICc3LjAnLCAnLXRuJywgJzgnLCAnLW1hJywgJzIwMCcsICctbWV0YWxfYmluZGluZycsICctaW1hZScsICc8aW5maWxlLm1hZT4nLCAnLW9tYWUnLCAnPG91dGZpbGUubWFlPic=

> <r_lp_tautomer_probability>
0.5

> <r_epik_Ionization_Penalty>
1.11801

> <r_epik_Ionization_Penalty_Charging>
0

> <r_epik_Ionization_Penalty_Neutral>
1.11801

> <r_epik_State_Penalty>
1.17654

> <r_epik_Charging_Adjusted_Penalty>
1.17654

> <i_epik_Tot_Q>
0

> <i_epik_Tot_abs_Q>
0

> <r_epik_Metal_State_Penalty>
1.17654

> <b_epik_Metal_Only>
0

> <s_lp_Force_Field>
OPLS_2005

> <r_lp_Energy>
28.7191

> <b_lp_Chiralities_Consistent>
1

> <s_lp_Variant>
AV-unprocessed.smi:3009-6

> <Gold.Version>
5.8.1

> <Gold.Id.Protein>
6NUR|6NUR_protein|mol2

> <Gold.PLP.Fitness>
42.7135

> <Gold.PLP.PLP>
-32.6612

> <Gold.PLP.part.hbond>
-3.0000

> <Gold.PLP.part.metal>
0.0000

> <Gold.PLP.part.buried>
-3.5283

> <Gold.PLP.part.nonpolar>
-26.6100

> <Gold.PLP.part.repulsive>
0.4836

> <Gold.PLP.ligand.clash>
0.0000

> <Gold.PLP.ligand.torsion>
0.8761

> <Gold.PLP.Chemscore.Hbond>
2.9440

> <Gold.PLP.Chemscore.CHOScore>
0.9661

> <Gold.PLP.Chemscore.Metal>
0.0000

> <Gold.Chemscore.Hbonds>
donor molecule, donor type, donor heavy atom, donor atom, acceptor molecule, acceptor atom, score
      L1  H    11    38       P1  7948  1.00
      L1  H    14    39       P1  7948  0.94
      P1  H 10752 10763       L1     8  1.00
      L1  C    16    40       P1  7921  0.96

> <Gold.PLP.Chemscore.Internal.Correction>
0.0742

> <Gold.Rescore>
     Score         DG    S(hbond)    S(metal)    S(lipo)     H(rot)  DE(clash)    DE(int)     intcor
     14.86     -17.07       2.29        0.00      72.22       1.76       0.10       2.11       ----

> <Gold.Chemscore.Fitness>
14.8554

> <Gold.Chemscore.DG>
-17.0745

> <Gold.Chemscore.ZeroCoef>
-5.4800

> <Gold.Chemscore.Hbond>
2.2882

> <Gold.Chemscore.Metal>
0.0000

> <Gold.Chemscore.Lipo>
72.2170

> <Gold.Chemscore.Internal_Hbond>
0.0000

> <Gold.Chemscore.DEClash>
0.1048

> <Gold.Chemscore.DEInternal>
2.1143

> <Gold.Chemscore.Rot>
1.7568

> <Gold.Chemscore.Internal.Correction>
   9.000000E+99

> <Gold.Chemscore.Hbonds>
donor molecule, donor type, donor heavy atom, donor atom, acceptor molecule, acceptor atom, score
      L1  H    11    38       P1  7948  0.29
      L1  H    14    39       P1  7948  0.23
      P1  H 10752 10763       L1     8  0.35

> <Gold.Chemscore.Hbond.Weighted>
-7.6425

> <Gold.Chemscore.Metal.Weighted>
-0.0000

> <Gold.Chemscore.Lipo.Weighted>
-8.4494

> <Gold.Chemscore.Internal_Hbond.Weighted>
0.0000

> <Gold.Chemscore.DEClash.Weighted>
0.1048

> <Gold.Chemscore.DEInternal.Weighted>
2.1143

> <Gold.Chemscore.Rot.Weighted>
4.4974

> <Gold.Chemscore.Internal.Correction.Weighted>
   9.000000E+99

> <Gold.Protein.RotatedTorsions>
[ 6907 6896 6895 6894 ] final  -53.07 input  -60.11 | X-H torsion
[ 7974 7965 7964 7962 ] final -143.96 input  175.53 | X-H torsion
[ 8008 7997 7996 7995 ] final  -15.54 input   59.86 | X-H torsion
[ 10167 10162 10161 10158 ] final -166.22 input  -65.29 | X-H torsion
[ 10718 10713 10712 10709 ] final   73.94 input   66.30 | X-H torsion
[ 10763 10752 10751 10750 ] final   47.28 input  -60.55 | X-H torsion
[ 11005 11000 10999 10996 ] final  -70.64 input  -57.11 | X-H torsion

> <Gold.Protein.ActiveResidues>
 VAL166  LYS551  ARG553  GLY616  TRP617  ASP618  TYR619  PRO620  LYS621  CYS622 
 ASP623  PHE694  ASN695  SER759  ASP760  ASP761  ALA762  ILE779  LEU786  VAL792 
 PHE793  MET794  SER795  GLU796  ALA797  LYS798  CYS799  TRP800  GLU811  SER814 

> <Gold.Protein.RotatedAtoms>
  150.8460  134.7768  159.6970 H   0  0  0  0  0  0  0  0  0  0  0  0  # atno 6907 bound_to 6896
  152.4536  134.5336  159.9828 H   0  0  0  0  0  0  0  0  0  0  0  0  # atno 6908 bound_to 6896
  151.5467  133.3386  159.2981 H   0  0  0  0  0  0  0  0  0  0  0  0  # atno 6909 bound_to 6896
  144.8332  140.5770  143.5501 H   0  0  0  0  0  0  0  0  0  0  0  0  # atno 7974 bound_to 7965
  154.5122  140.2193  155.9133 H   0  0  0  0  0  0  0  0  0  0  0  0  # atno 8008 bound_to 7997
  156.1566  140.3150  155.8702 H   0  0  0  0  0  0  0  0  0  0  0  0  # atno 8009 bound_to 7997
  155.3834  140.0474  157.3033 H   0  0  0  0  0  0  0  0  0  0  0  0  # atno 8010 bound_to 7997
  139.6129  144.0778  152.1860 H   0  0  0  0  0  0  0  0  0  0  0  0  # atno 10167 bound_to 10162
  157.6570  130.9653  150.1141 H   0  0  0  0  0  0  0  0  0  0  0  0  # atno 10718 bound_to 10713
  152.9801  135.5981  154.3738 H   0  0  0  0  0  0  0  0  0  0  0  0  # atno 10763 bound_to 10752
  154.3409  135.2767  155.2425 H   0  0  0  0  0  0  0  0  0  0  0  0  # atno 10764 bound_to 10752
  154.4507  135.5990  153.6245 H   0  0  0  0  0  0  0  0  0  0  0  0  # atno 10765 bound_to 10752
  141.1578  133.6795  156.6784 H   0  0  0  0  0  0  0  0  0  0  0  0  # atno 11005 bound_to 11000
  145.4851  139.1492  143.3740 LP  0  0  0  0  0  0  0  0  0  0  0  0  # atno 17320 bound_to 7965
  146.2633  140.4988  142.8844 LP  0  0  0  0  0  0  0  0  0  0  0  0  # atno 17321 bound_to 7965
  140.0401  144.6014  150.7418 LP  0  0  0  0  0  0  0  0  0  0  0  0  # atno 17342 bound_to 10162
  140.7331  143.2714  151.3878 LP  0  0  0  0  0  0  0  0  0  0  0  0  # atno 17343 bound_to 10162
  156.2030  130.3661  149.8765 LP  0  0  0  0  0  0  0  0  0  0  0  0  # atno 17370 bound_to 10713
  156.6664  130.8802  151.3555 LP  0  0  0  0  0  0  0  0  0  0  0  0  # atno 17371 bound_to 10713
  140.3121  134.8077  157.4185 LP  0  0  0  0  0  0  0  0  0  0  0  0  # atno 17394 bound_to 11000
  140.1169  134.5270  155.8217 LP  0  0  0  0  0  0  0  0  0  0  0  0  # atno 17395 bound_to 11000

$$$$
