AV-unprocessed.smi:2148|AV-procd|sdf|8750|dock3
  -GOLD-   2272011523D 1   1.00000     0.00000
 Structure written by MMmdl.
 44 45  0  0  0  0  0  0  0  0  1 V2000
  145.6329  136.0901  151.9333 C   0  0  0  0  0  0  0  0  0  0  0  0
  146.3750  136.8835  153.3859 S   0  0  0  0  0  0  0  0  0  0  0  0
  146.1575  138.6403  152.9701 C   0  0  2  0  0  0  0  0  0  0  0  0
  146.8157  138.9503  151.6164 C   0  0  0  0  0  0  0  0  0  0  0  0
  146.7006  139.5602  154.0714 C   0  0  0  0  0  0  0  0  0  0  0  0
  145.9237  140.2726  154.7066 O   0  0  0  0  0  0  0  0  0  0  0  0
  148.0356  139.5374  154.2450 N   0  0  0  0  0  0  0  0  0  0  0  0
  148.8339  140.2743  155.1621 C   0  0  0  0  0  0  0  0  0  0  0  0
  148.1715  141.0481  156.1347 C   0  0  0  0  0  0  0  0  0  0  0  0
  148.9286  141.8018  157.0512 C   0  0  0  0  0  0  0  0  0  0  0  0
  150.3408  141.7675  156.9729 C   0  0  0  0  0  0  0  0  0  0  0  0
  151.1241  142.5109  157.8831 N   0  0  0  0  0  0  0  0  0  0  0  0
  152.0889  141.7474  158.6683 C   0  0  0  0  0  0  0  0  0  0  0  0
  152.5892  142.5824  159.8605 C   0  0  1  0  0  0  0  0  0  0  0  0
  153.6969  141.8632  160.6375 C   0  0  0  0  0  0  0  0  0  0  0  0
  153.1139  143.8227  159.3890 O   0  0  0  0  0  0  0  0  0  0  0  0
  152.1909  144.6160  158.6399 C   0  0  2  0  0  0  0  0  0  0  0  0
  151.0934  145.2263  159.5296 C   0  0  0  0  0  0  0  0  0  0  0  0
  151.6373  143.8091  157.4488 C   0  0  0  0  0  0  0  0  0  0  0  0
  150.9774  141.0379  156.0241 N   0  0  0  0  0  0  0  0  0  0  0  0
  150.2483  140.3163  155.1469 C   0  0  0  0  0  0  0  0  0  0  0  0
  145.7219  135.0068  152.0134 H   0  0  0  0  0  0  0  0  0  0  0  0
  146.1380  136.4117  151.0227 H   0  0  0  0  0  0  0  0  0  0  0  0
  144.5751  136.3404  151.8538 H   0  0  0  0  0  0  0  0  0  0  0  0
  145.0858  138.8145  152.8615 H   0  0  0  0  0  0  0  0  0  0  0  0
  146.6961  140.0007  151.3477 H   0  0  0  0  0  0  0  0  0  0  0  0
  146.3650  138.3567  150.8207 H   0  0  0  0  0  0  0  0  0  0  0  0
  147.8836  138.7275  151.6281 H   0  0  0  0  0  0  0  0  0  0  0  0
  148.5494  138.9515  153.6029 H   0  0  0  0  0  0  0  0  0  0  0  0
  147.0923  141.0668  156.1821 H   0  0  0  0  0  0  0  0  0  0  0  0
  148.4187  142.4035  157.7886 H   0  0  0  0  0  0  0  0  0  0  0  0
  151.6636  140.8166  159.0408 H   0  0  0  0  0  0  0  0  0  0  0  0
  152.9252  141.4757  158.0230 H   0  0  0  0  0  0  0  0  0  0  0  0
  151.7638  142.7690  160.5477 H   0  0  0  0  0  0  0  0  0  0  0  0
  153.3451  140.9082  161.0288 H   0  0  0  0  0  0  0  0  0  0  0  0
  154.0332  142.4649  161.4824 H   0  0  0  0  0  0  0  0  0  0  0  0
  154.5613  141.6673  160.0024 H   0  0  0  0  0  0  0  0  0  0  0  0
  152.7657  145.4494  158.2353 H   0  0  0  0  0  0  0  0  0  0  0  0
  150.4900  145.9365  158.9640 H   0  0  0  0  0  0  0  0  0  0  0  0
  151.5301  145.7626  160.3721 H   0  0  0  0  0  0  0  0  0  0  0  0
  150.4150  144.4720  159.9273 H   0  0  0  0  0  0  0  0  0  0  0  0
  152.4313  143.6429  156.7192 H   0  0  0  0  0  0  0  0  0  0  0  0
  150.8573  144.3852  156.9497 H   0  0  0  0  0  0  0  0  0  0  0  0
  150.8334  139.7845  154.4140 H   0  0  0  0  0  0  0  0  0  0  0  0
  1  2  1  0  0  0  0
  1 22  1  0  0  0  0
  1 23  1  0  0  0  0
  1 24  1  0  0  0  0
  2  3  1  0  0  0  0
  3  4  1  0  0  0  0
  3  5  1  0  0  0  0
  3 25  1  0  0  0  0
  4 26  1  0  0  0  0
  4 27  1  0  0  0  0
  4 28  1  0  0  0  0
  5  6  2  0  0  0  0
  5  7  1  0  0  0  0
  7  8  1  0  0  0  0
  7 29  1  0  0  0  0
  8 21  1  0  0  0  0
  8  9  2  0  0  0  0
  9 10  1  0  0  0  0
  9 30  1  0  0  0  0
 10 11  2  0  0  0  0
 10 31  1  0  0  0  0
 11 12  1  0  0  0  0
 11 20  1  0  0  0  0
 12 19  1  0  0  0  0
 12 13  1  0  0  0  0
 13 14  1  0  0  0  0
 13 32  1  0  0  0  0
 13 33  1  0  0  0  0
 14 15  1  0  0  0  0
 14 16  1  0  0  0  0
 14 34  1  0  0  0  0
 15 35  1  0  0  0  0
 15 36  1  0  0  0  0
 15 37  1  0  0  0  0
 16 17  1  0  0  0  0
 17 18  1  0  0  0  0
 17 19  1  0  0  0  0
 17 38  1  0  0  0  0
 18 39  1  0  0  0  0
 18 40  1  0  0  0  0
 18 41  1  0  0  0  0
 19 42  1  0  0  0  0
 19 43  1  0  0  0  0
 20 21  2  0  0  0  0
 21 44  1  0  0  0  0
M  END
> <s_m_source_file>
AV-unprocessed.smi

> <i_m_source_file_index>
2148

> <i_lp_mmshare_version>
43012

> <i_f3d_flags>
0

> <s_epik_input>
W0NIM11TW0NASF0oW0NIM10pQyg9TylbTkhdYzFbY0hdW2NIXWMobltjSF0xKU4yW0NIMl1bQ0BASF0oW0NIM10pT1tDQEBIXShbQ0gzXSlbQ0gyXTI=

> <s_epik_cmdline>
J2VwaWtfcHl0aG9uJywgJy1waCcsICc3LjAnLCAnLXRuJywgJzgnLCAnLW1hJywgJzIwMCcsICctbWV0YWxfYmluZGluZycsICctaW1hZScsICc8aW5maWxlLm1hZT4nLCAnLW9tYWUnLCAnPG91dGZpbGUubWFlPic=

> <r_lp_tautomer_probability>
1

> <r_epik_Ionization_Penalty>
0.000646494

> <r_epik_Ionization_Penalty_Charging>
0

> <r_epik_Ionization_Penalty_Neutral>
0.000646494

> <r_epik_State_Penalty>
0.000408447

> <r_epik_Charging_Adjusted_Penalty>
0.000408447

> <i_epik_Tot_Q>
0

> <i_epik_Tot_abs_Q>
0

> <r_epik_Metal_State_Penalty>
-0

> <b_epik_Metal_Only>
0

> <s_lp_Force_Field>
OPLS_2005

> <r_lp_Energy>
25.6467

> <b_lp_Chiralities_Consistent>
1

> <s_lp_Variant>
AV-unprocessed.smi:2148-5

> <Gold.Version>
5.8.1

> <Gold.Id.Protein>
6NUR|6NUR_protein|mol2

> <Gold.PLP.Fitness>
38.1048

> <Gold.PLP.PLP>
-38.4956

> <Gold.PLP.part.hbond>
0.0000

> <Gold.PLP.part.metal>
0.0000

> <Gold.PLP.part.buried>
-2.3094

> <Gold.PLP.part.nonpolar>
-36.7634

> <Gold.PLP.part.repulsive>
0.2331

> <Gold.PLP.ligand.clash>
0.0000

> <Gold.PLP.ligand.torsion>
0.3797

> <Gold.PLP.Chemscore.Hbond>
0.0000

> <Gold.PLP.Chemscore.CHOScore>
0.0000

> <Gold.PLP.Chemscore.Metal>
0.0000

> <Gold.PLP.Chemscore.Internal.Correction>
0.3686

> <Gold.Rescore>
     Score         DG    S(hbond)    S(metal)    S(lipo)     H(rot)  DE(clash)    DE(int)     intcor
     12.57     -15.14       0.00        0.00     110.28       1.27       0.70       1.87       ----

> <Gold.Chemscore.Fitness>
12.5749

> <Gold.Chemscore.DG>
-15.1422

> <Gold.Chemscore.ZeroCoef>
-5.4800

> <Gold.Chemscore.Hbond>
0.0000

> <Gold.Chemscore.Metal>
0.0000

> <Gold.Chemscore.Lipo>
110.2800

> <Gold.Chemscore.Internal_Hbond>
0.0000

> <Gold.Chemscore.DEClash>
0.7013

> <Gold.Chemscore.DEInternal>
1.8659

> <Gold.Chemscore.Rot>
1.2659

> <Gold.Chemscore.Internal.Correction>
   9.000000E+99

> <Gold.Chemscore.Hbond.Weighted>
-0.0000

> <Gold.Chemscore.Metal.Weighted>
-0.0000

> <Gold.Chemscore.Lipo.Weighted>
-12.9028

> <Gold.Chemscore.Internal_Hbond.Weighted>
0.0000

> <Gold.Chemscore.DEClash.Weighted>
0.7013

> <Gold.Chemscore.DEInternal.Weighted>
1.8659

> <Gold.Chemscore.Rot.Weighted>
3.2406

> <Gold.Chemscore.Internal.Correction.Weighted>
   9.000000E+99

> <Gold.Protein.RotatedTorsions>
[ 6907 6896 6895 6894 ] final  124.48 input  -60.11 | X-H torsion
[ 7974 7965 7964 7962 ] final   78.98 input  175.53 | X-H torsion
[ 8008 7997 7996 7995 ] final -153.15 input   59.86 | X-H torsion
[ 10167 10162 10161 10158 ] final  -88.64 input  -65.29 | X-H torsion
[ 10718 10713 10712 10709 ] final -175.07 input   66.30 | X-H torsion
[ 10763 10752 10751 10750 ] final  122.67 input  -60.55 | X-H torsion
[ 11005 11000 10999 10996 ] final  127.79 input  -57.11 | X-H torsion

> <Gold.Protein.ActiveResidues>
 VAL166  LYS551  ARG553  GLY616  TRP617  ASP618  TYR619  PRO620  LYS621  CYS622 
 ASP623  PHE694  ASN695  SER759  ASP760  ASP761  ALA762  ILE779  LEU786  VAL792 
 PHE793  MET794  SER795  GLU796  ALA797  LYS798  CYS799  TRP800  GLU811  SER814 

> <Gold.Protein.RotatedAtoms>
  152.4074  133.6910  159.6368 H   0  0  0  0  0  0  0  0  0  0  0  0  # atno 6907 bound_to 6896
  150.7958  133.8684  159.3260 H   0  0  0  0  0  0  0  0  0  0  0  0  # atno 6908 bound_to 6896
  151.6435  135.1011  160.0198 H   0  0  0  0  0  0  0  0  0  0  0  0  # atno 6909 bound_to 6896
  145.6702  139.2494  143.1873 H   0  0  0  0  0  0  0  0  0  0  0  0  # atno 7974 bound_to 7965
  155.6664  140.0728  157.2536 H   0  0  0  0  0  0  0  0  0  0  0  0  # atno 8008 bound_to 7997
  154.4132  140.1707  156.1882 H   0  0  0  0  0  0  0  0  0  0  0  0  # atno 8009 bound_to 7997
  155.9654  140.3366  155.6531 H   0  0  0  0  0  0  0  0  0  0  0  0  # atno 8010 bound_to 7997
  140.3727  143.2786  151.9481 H   0  0  0  0  0  0  0  0  0  0  0  0  # atno 10167 bound_to 10162
  156.7945  130.9530  151.3120 H   0  0  0  0  0  0  0  0  0  0  0  0  # atno 10718 bound_to 10713
  153.6334  135.3392  155.3049 H   0  0  0  0  0  0  0  0  0  0  0  0  # atno 10763 bound_to 10752
  154.8575  135.4301  154.2081 H   0  0  0  0  0  0  0  0  0  0  0  0  # atno 10764 bound_to 10752
  153.2983  135.7022  153.7301 H   0  0  0  0  0  0  0  0  0  0  0  0  # atno 10765 bound_to 10752
  139.9526  134.9619  156.8906 H   0  0  0  0  0  0  0  0  0  0  0  0  # atno 11005 bound_to 11000
  146.1052  140.7496  142.9530 LP  0  0  0  0  0  0  0  0  0  0  0  0  # atno 17320 bound_to 7965
  144.7059  140.3850  143.7118 LP  0  0  0  0  0  0  0  0  0  0  0  0  # atno 17321 bound_to 7965
  139.4802  144.5892  151.7801 LP  0  0  0  0  0  0  0  0  0  0  0  0  # atno 17342 bound_to 10162
  140.5017  144.1159  150.5973 LP  0  0  0  0  0  0  0  0  0  0  0  0  # atno 17343 bound_to 10162
  157.6584  130.8945  149.9778 LP  0  0  0  0  0  0  0  0  0  0  0  0  # atno 17370 bound_to 10713
  156.1139  130.3648  150.0002 LP  0  0  0  0  0  0  0  0  0  0  0  0  # atno 17371 bound_to 10713
  140.5684  134.0467  155.7422 LP  0  0  0  0  0  0  0  0  0  0  0  0  # atno 17394 bound_to 11000
  141.1191  133.9490  157.2764 LP  0  0  0  0  0  0  0  0  0  0  0  0  # atno 17395 bound_to 11000

$$$$
