AV-unprocessed.smi:686|AV-procd|sdf|3352|dock4
  -GOLD-   22720 0323D 1   1.00000     0.00000
 Structure written by MMmdl.
 40 41  0  0  0  0  0  0  0  0  3 V2000
  151.7030  138.5330  155.5746 C   0  0  0  0  0  0  0  0  0  0  0  0
  150.1853  138.7590  155.4299 C   0  0  1  0  0  0  0  0  0  0  0  0
  149.7352  138.9594  153.9721 C   0  0  0  0  0  0  0  0  0  0  0  0
  148.4268  138.2736  153.8151 N   0  3  2  0  0  0  0  0  0  0  0  0
  147.4084  139.0127  153.0163 C   0  0  0  0  0  0  0  0  0  0  0  0
  146.9730  140.3154  153.7146 C   0  0  0  0  0  0  0  0  0  0  0  0
  146.1709  138.1359  152.7468 C   0  0  0  0  0  0  0  0  0  0  0  0
  147.9972  137.8545  155.1663 C   0  0  0  0  0  0  0  0  0  0  0  0
  149.2949  137.6158  155.9390 C   0  0  2  0  0  0  0  0  0  0  0  0
  149.0994  137.6971  157.3787 N   0  5  0  0  0  0  0  0  0  0  0  0
  149.4093  136.4072  158.3138 S   0  0  0  0  0  0  0  0  0  0  0  0
  149.8623  135.2420  157.5358 O   0  0  0  0  0  0  0  0  0  0  0  0
  150.1959  136.7654  159.5048 O   0  0  0  0  0  0  0  0  0  0  0  0
  147.7145  136.0061  158.9274 C   0  0  0  0  0  0  0  0  0  0  0  0
  147.6719  136.0540  160.4308 C   0  0  0  0  0  0  0  0  0  0  0  0
  147.5484  134.9718  161.3462 C   0  0  0  0  0  0  0  0  0  0  0  0
  147.5622  135.5819  162.5669 C   0  0  0  0  0  0  0  0  0  0  0  0
  147.6764  136.9262  162.4245 O   0  0  0  0  0  0  0  0  0  0  0  0
  147.7416  137.2186  161.0573 N   0  0  0  0  0  0  0  0  0  0  0  0
  152.0441  137.6530  155.0260 H   0  0  0  0  0  0  0  0  0  0  0  0
  151.9980  138.4111  156.6184 H   0  0  0  0  0  0  0  0  0  0  0  0
  152.2541  139.3895  155.1856 H   0  0  0  0  0  0  0  0  0  0  0  0
  149.9242  139.6690  155.9745 H   0  0  0  0  0  0  0  0  0  0  0  0
  149.6664  140.0265  153.7550 H   0  0  0  0  0  0  0  0  0  0  0  0
  150.4417  138.5275  153.2610 H   0  0  0  0  0  0  0  0  0  0  0  0
  147.8575  139.2777  152.0578 H   0  0  0  0  0  0  0  0  0  0  0  0
  146.1917  140.8209  153.1463 H   0  0  0  0  0  0  0  0  0  0  0  0
  147.7968  141.0226  153.8128 H   0  0  0  0  0  0  0  0  0  0  0  0
  146.5796  140.1182  154.7127 H   0  0  0  0  0  0  0  0  0  0  0  0
  145.4171  138.6876  152.1842 H   0  0  0  0  0  0  0  0  0  0  0  0
  145.7104  137.8051  153.6784 H   0  0  0  0  0  0  0  0  0  0  0  0
  146.4137  137.2485  152.1626 H   0  0  0  0  0  0  0  0  0  0  0  0
  147.4169  138.6554  155.6295 H   0  0  0  0  0  0  0  0  0  0  0  0
  147.3748  136.9601  155.1253 H   0  0  0  0  0  0  0  0  0  0  0  0
  149.7243  136.6626  155.6268 H   0  0  0  0  0  0  0  0  0  0  0  0
  147.0279  136.7362  158.4984 H   0  0  0  0  0  0  0  0  0  0  0  0
  147.4265  135.0264  158.5473 H   0  0  0  0  0  0  0  0  0  0  0  0
  147.4692  133.9151  161.1373 H   0  0  0  0  0  0  0  0  0  0  0  0
  147.5008  135.2151  163.5809 H   0  0  0  0  0  0  0  0  0  0  0  0
  148.6253  137.4157  153.3207 H   0  0  0  0  0  0  0  0  0  0  0  0
  1  2  1  0  0  0  0
  1 20  1  0  0  0  0
  1 21  1  0  0  0  0
  1 22  1  0  0  0  0
  2  9  1  0  0  0  0
  2  3  1  0  0  0  0
  2 23  1  0  0  0  0
  3  4  1  0  0  0  0
  3 24  1  0  0  0  0
  3 25  1  0  0  0  0
  4  5  1  0  0  0  0
  4  8  1  0  0  0  0
  4 40  1  0  0  0  0
  5  6  1  0  0  0  0
  5  7  1  0  0  0  0
  5 26  1  0  0  0  0
  6 27  1  0  0  0  0
  6 28  1  0  0  0  0
  6 29  1  0  0  0  0
  7 30  1  0  0  0  0
  7 31  1  0  0  0  0
  7 32  1  0  0  0  0
  8  9  1  0  0  0  0
  8 33  1  0  0  0  0
  8 34  1  0  0  0  0
  9 10  1  0  0  0  0
  9 35  1  0  0  0  0
 10 11  1  0  0  0  0
 11 12  2  0  0  0  0
 11 13  2  0  0  0  0
 11 14  1  0  0  0  0
 14 15  1  0  0  0  0
 14 36  1  0  0  0  0
 14 37  1  0  0  0  0
 15 19  2  0  0  0  0
 15 16  1  0  0  0  0
 16 17  2  0  0  0  0
 16 38  1  0  0  0  0
 17 18  1  0  0  0  0
 17 39  1  0  0  0  0
 18 19  1  0  0  0  0
M  CHG  1   4   1
M  CHG  1  10  -1
M  END
> <s_m_source_file>
AV-unprocessed.smi

> <i_m_source_file_index>
686

> <i_lp_mmshare_version>
43012

> <i_f3d_flags>
0

> <s_epik_input>
W0NIM11bQ0BASF0xW0NIMl1OKFtDSF0oW0NIM10pW0NIM10pW0NIMl1bQ0BIXTFbTkhdUyg9TykoPU8pW0NIMl1jMltjSF1bY0hdb24y

> <s_epik_cmdline>
J2VwaWtfcHl0aG9uJywgJy1waCcsICc3LjAnLCAnLXRuJywgJzgnLCAnLW1hJywgJzIwMCcsICctbWV0YWxfYmluZGluZycsICctaW1hZScsICc8aW5maWxlLm1hZT4nLCAnLW9tYWUnLCAnPG91dGZpbGUubWFlPic=

> <r_epik_Ionization_Penalty>
3.62478

> <r_epik_Ionization_Penalty_Charging>
3.62478

> <r_epik_Ionization_Penalty_Neutral>
2.03645e-10

> <r_epik_State_Penalty>
3.6247

> <r_epik_Charging_Adjusted_Penalty>
7.24949

> <i_epik_Tot_Q>
0

> <i_epik_Tot_abs_Q>
2

> <r_epik_Metal_State_Penalty>
0.530836

> <b_epik_Metal_Only>
1

> <s_lp_Force_Field>
OPLS_2005

> <r_lp_Energy>
17.1192

> <b_lp_Chiralities_Consistent>
1

> <s_lp_Variant>
AV-unprocessed.smi:686-16

> <Gold.Version>
5.8.1

> <Gold.Id.Protein>
6NUR|6NUR_protein|mol2

> <Gold.PLP.Fitness>
40.2993

> <Gold.PLP.PLP>
-29.0914

> <Gold.PLP.part.hbond>
-5.7962

> <Gold.PLP.part.metal>
0.0000

> <Gold.PLP.part.buried>
-2.2936

> <Gold.PLP.part.nonpolar>
-20.9636

> <Gold.PLP.part.repulsive>
0.0107

> <Gold.PLP.ligand.clash>
0.0000

> <Gold.PLP.ligand.torsion>
0.6881

> <Gold.PLP.Chemscore.Hbond>
3.8480

> <Gold.PLP.Chemscore.CHOScore>
0.0000

> <Gold.PLP.Chemscore.Metal>
0.0000

> <Gold.Chemscore.Hbonds>
donor molecule, donor type, donor heavy atom, donor atom, acceptor molecule, acceptor atom, score
      L1  H     4    40       P1  7948  2.00
      P1  H  6896  6907       L1    13  1.00
      P1  H  6934  6947       L1    19  0.85

> <Gold.PLP.Chemscore.Internal.Correction>
1.0402

> <Gold.Rescore>
     Score         DG    S(hbond)    S(metal)    S(lipo)     H(rot)  DE(clash)    DE(int)     intcor
     16.25     -18.68       2.83        0.00      67.47       1.61       1.48       0.94       ----

> <Gold.Chemscore.Fitness>
16.2542

> <Gold.Chemscore.DG>
-18.6829

> <Gold.Chemscore.ZeroCoef>
-5.4800

> <Gold.Chemscore.Hbond>
2.8271

> <Gold.Chemscore.Metal>
0.0000

> <Gold.Chemscore.Lipo>
67.4740

> <Gold.Chemscore.Internal_Hbond>
0.0000

> <Gold.Chemscore.DEClash>
1.4838

> <Gold.Chemscore.DEInternal>
0.9449

> <Gold.Chemscore.Rot>
1.6149

> <Gold.Chemscore.Internal.Correction>
   9.000000E+99

> <Gold.Chemscore.Hbonds>
donor molecule, donor type, donor heavy atom, donor atom, acceptor molecule, acceptor atom, score
      L1  H     4    40       P1  7948  0.99
      P1  H  6896  6907       L1    13  0.25
      P1  H  6934  6947       L1    19  0.38

> <Gold.Chemscore.Hbond.Weighted>
-9.4425

> <Gold.Chemscore.Metal.Weighted>
-0.0000

> <Gold.Chemscore.Lipo.Weighted>
-7.8945

> <Gold.Chemscore.Internal_Hbond.Weighted>
0.0000

> <Gold.Chemscore.DEClash.Weighted>
1.4838

> <Gold.Chemscore.DEInternal.Weighted>
0.9449

> <Gold.Chemscore.Rot.Weighted>
4.1341

> <Gold.Chemscore.Internal.Correction.Weighted>
   9.000000E+99

> <Gold.Protein.RotatedTorsions>
[ 6907 6896 6895 6894 ] final  -29.82 input  -60.11 | X-H torsion
[ 7974 7965 7964 7962 ] final  -67.44 input  175.53 | X-H torsion
[ 8008 7997 7996 7995 ] final  104.24 input   59.86 | X-H torsion
[ 10167 10162 10161 10158 ] final   13.18 input  -65.29 | X-H torsion
[ 10718 10713 10712 10709 ] final -119.34 input   66.30 | X-H torsion
[ 10763 10752 10751 10750 ] final  167.33 input  -60.55 | X-H torsion
[ 11005 11000 10999 10996 ] final -173.82 input  -57.11 | X-H torsion

> <Gold.Protein.ActiveResidues>
 VAL166  LYS551  ARG553  GLY616  TRP617  ASP618  TYR619  PRO620  LYS621  CYS622 
 ASP623  PHE694  ASN695  SER759  ASP760  ASP761  ALA762  ILE779  LEU786  VAL792 
 PHE793  MET794  SER795  GLU796  ALA797  LYS798  CYS799  TRP800  GLU811  SER814 

> <Gold.Protein.RotatedAtoms>
  151.1139  135.0042  159.8506 H   0  0  0  0  0  0  0  0  0  0  0  0  # atno 6907 bound_to 6896
  152.5444  134.1803  159.8643 H   0  0  0  0  0  0  0  0  0  0  0  0  # atno 6908 bound_to 6896
  151.1855  133.4654  159.2627 H   0  0  0  0  0  0  0  0  0  0  0  0  # atno 6909 bound_to 6896
  145.7292  140.9004  143.0589 H   0  0  0  0  0  0  0  0  0  0  0  0  # atno 7974 bound_to 7965
  156.1555  140.3151  155.8719 H   0  0  0  0  0  0  0  0  0  0  0  0  # atno 8008 bound_to 7997
  155.3886  140.0492  157.3058 H   0  0  0  0  0  0  0  0  0  0  0  0  # atno 8009 bound_to 7997
  154.5097  140.2160  155.9191 H   0  0  0  0  0  0  0  0  0  0  0  0  # atno 8010 bound_to 7997
  140.6019  143.8587  150.6974 H   0  0  0  0  0  0  0  0  0  0  0  0  # atno 10167 bound_to 10162
  156.1174  130.6296  150.9404 H   0  0  0  0  0  0  0  0  0  0  0  0  # atno 10718 bound_to 10713
  154.3523  135.2753  155.2365 H   0  0  0  0  0  0  0  0  0  0  0  0  # atno 10763 bound_to 10752
  154.4589  135.5912  153.6246 H   0  0  0  0  0  0  0  0  0  0  0  0  # atno 10764 bound_to 10752
  152.9849  135.6060  154.3734 H   0  0  0  0  0  0  0  0  0  0  0  0  # atno 10765 bound_to 10752
  140.4815  134.6071  157.4921 H   0  0  0  0  0  0  0  0  0  0  0  0  # atno 11005 bound_to 11000
  144.6897  139.9307  143.7471 LP  0  0  0  0  0  0  0  0  0  0  0  0  # atno 17320 bound_to 7965
  146.0554  139.3551  143.0614 LP  0  0  0  0  0  0  0  0  0  0  0  0  # atno 17321 bound_to 7965
  140.2135  143.3865  152.1700 LP  0  0  0  0  0  0  0  0  0  0  0  0  # atno 17342 bound_to 10162
  139.5297  144.7145  151.5100 LP  0  0  0  0  0  0  0  0  0  0  0  0  # atno 17343 bound_to 10162
  157.6357  131.0916  150.8353 LP  0  0  0  0  0  0  0  0  0  0  0  0  # atno 17370 bound_to 10713
  156.8455  130.5062  149.5317 LP  0  0  0  0  0  0  0  0  0  0  0  0  # atno 17371 bound_to 10713
  139.9824  134.7116  155.9836 LP  0  0  0  0  0  0  0  0  0  0  0  0  # atno 17394 bound_to 11000
  141.1529  133.6546  156.4069 LP  0  0  0  0  0  0  0  0  0  0  0  0  # atno 17395 bound_to 11000

$$$$
