AV-unprocessed.smi:1662|AV-procd|sdf|6657|dock3
  -GOLD-   22720 7363D 1   1.00000     0.00000
 Structure written by MMmdl.
 47 48  0  0  0  0  0  0  0  0  1 V2000
  155.0765  137.8169  164.5403 C   0  0  0  0  0  0  0  0  0  0  0  0
  154.9423  137.0610  163.2458 C   0  0  0  0  0  0  0  0  0  0  0  0
  154.3462  137.6722  162.2754 N   0  0  0  0  0  0  0  0  0  0  0  0
  154.1681  137.0680  161.0458 N   0  0  0  0  0  0  0  0  0  0  0  0
  153.4490  137.8979  160.0675 C   0  0  0  0  0  0  0  0  0  0  0  0
  153.7639  139.3962  160.1904 C   0  0  0  0  0  0  0  0  0  0  0  0
  154.8658  139.7780  160.5876 O   0  0  0  0  0  0  0  0  0  0  0  0
  152.7807  140.2323  159.8205 N   0  0  0  0  0  0  0  0  0  0  0  0
  152.8361  141.6934  159.8568 C   0  0  2  0  0  0  0  0  0  0  0  0
  152.9264  142.1440  161.3275 C   0  0  0  0  0  0  0  0  0  0  0  0
  152.9174  143.6732  161.4602 C   0  0  0  0  0  0  0  0  0  0  0  0
  151.6870  144.2815  160.7692 C   0  0  0  0  0  0  0  0  0  0  0  0
  151.5843  143.8643  159.2880 C   0  0  1  0  0  0  0  0  0  0  0  0
  152.6401  144.5812  158.4216 C   0  0  0  0  0  0  0  0  0  0  0  0
  151.5990  142.3173  159.1570 C   0  0  1  0  0  0  0  0  0  0  0  0
  151.4264  141.8524  157.6974 C   0  0  0  0  0  0  0  0  0  0  0  0
  154.5982  135.8127  160.7279 C   0  0  0  0  0  0  0  0  0  0  0  0
  154.4277  135.3164  159.6132 O   0  0  0  0  0  0  0  0  0  0  0  0
  155.2710  135.1256  161.8326 C   0  0  0  0  0  0  0  0  0  0  0  0
  155.7304  133.8053  161.5442 C   0  0  0  0  0  0  0  0  0  0  0  0
  156.1006  132.7383  161.2902 N   0  0  0  0  0  0  0  0  0  0  0  0
  155.4442  135.7052  163.0468 C   0  0  0  0  0  0  0  0  0  0  0  0
  156.1352  135.0348  164.2263 C   0  0  0  0  0  0  0  0  0  0  0  0
  156.1250  137.9255  164.8183 H   0  0  0  0  0  0  0  0  0  0  0  0
  154.5639  137.2945  165.3481 H   0  0  0  0  0  0  0  0  0  0  0  0
  154.6494  138.8189  164.4729 H   0  0  0  0  0  0  0  0  0  0  0  0
  153.6965  137.5843  159.0516 H   0  0  0  0  0  0  0  0  0  0  0  0
  152.3732  137.7417  160.1676 H   0  0  0  0  0  0  0  0  0  0  0  0
  151.9156  139.8233  159.4979 H   0  0  0  0  0  0  0  0  0  0  0  0
  153.7366  142.0402  159.3479 H   0  0  0  0  0  0  0  0  0  0  0  0
  152.0882  141.7319  161.8914 H   0  0  0  0  0  0  0  0  0  0  0  0
  153.8316  141.7434  161.7856 H   0  0  0  0  0  0  0  0  0  0  0  0
  152.9237  143.9516  162.5145 H   0  0  0  0  0  0  0  0  0  0  0  0
  153.8307  144.0856  161.0309 H   0  0  0  0  0  0  0  0  0  0  0  0
  150.7886  143.9575  161.2961 H   0  0  0  0  0  0  0  0  0  0  0  0
  151.7105  145.3683  160.8559 H   0  0  0  0  0  0  0  0  0  0  0  0
  150.6135  144.2116  158.9317 H   0  0  0  0  0  0  0  0  0  0  0  0
  153.6548  144.2643  158.6600 H   0  0  0  0  0  0  0  0  0  0  0  0
  152.5924  145.6607  158.5668 H   0  0  0  0  0  0  0  0  0  0  0  0
  152.4777  144.3982  157.3598 H   0  0  0  0  0  0  0  0  0  0  0  0
  150.7181  141.9581  159.6921 H   0  0  0  0  0  0  0  0  0  0  0  0
  152.3210  142.0463  157.1055 H   0  0  0  0  0  0  0  0  0  0  0  0
  150.5901  142.3622  157.2190 H   0  0  0  0  0  0  0  0  0  0  0  0
  151.2232  140.7829  157.6406 H   0  0  0  0  0  0  0  0  0  0  0  0
  156.4688  134.0249  163.9904 H   0  0  0  0  0  0  0  0  0  0  0  0
  155.4571  134.9639  165.0774 H   0  0  0  0  0  0  0  0  0  0  0  0
  157.0122  135.6065  164.5313 H   0  0  0  0  0  0  0  0  0  0  0  0
  1  2  1  0  0  0  0
  1 24  1  0  0  0  0
  1 25  1  0  0  0  0
  1 26  1  0  0  0  0
  2 22  1  0  0  0  0
  2  3  2  0  0  0  0
  3  4  1  0  0  0  0
  4  5  1  0  0  0  0
  4 17  1  0  0  0  0
  5  6  1  0  0  0  0
  5 27  1  0  0  0  0
  5 28  1  0  0  0  0
  6  7  2  0  0  0  0
  6  8  1  0  0  0  0
  8  9  1  0  0  0  0
  8 29  1  0  0  0  0
  9 15  1  0  0  0  0
  9 10  1  0  0  0  0
  9 30  1  0  0  0  0
 10 11  1  0  0  0  0
 10 31  1  0  0  0  0
 10 32  1  0  0  0  0
 11 12  1  0  0  0  0
 11 33  1  0  0  0  0
 11 34  1  0  0  0  0
 12 13  1  0  0  0  0
 12 35  1  0  0  0  0
 12 36  1  0  0  0  0
 13 14  1  0  0  0  0
 13 15  1  0  0  0  0
 13 37  1  0  0  0  0
 14 38  1  0  0  0  0
 14 39  1  0  0  0  0
 14 40  1  0  0  0  0
 15 16  1  0  0  0  0
 15 41  1  0  0  0  0
 16 42  1  0  0  0  0
 16 43  1  0  0  0  0
 16 44  1  0  0  0  0
 17 18  2  0  0  0  0
 17 19  1  0  0  0  0
 19 20  1  0  0  0  0
 19 22  2  0  0  0  0
 20 21  3  0  0  0  0
 22 23  1  0  0  0  0
 23 45  1  0  0  0  0
 23 46  1  0  0  0  0
 23 47  1  0  0  0  0
M  END
> <s_m_source_file>
AV-unprocessed.smi

> <i_m_source_file_index>
1662

> <i_lp_mmshare_version>
43012

> <i_f3d_flags>
0

> <s_epik_input>
TiNDYyhjMVtDSDNdKWMoPU8pbihuYzFbQ0gzXSlbQ0gyXUMoPU8pW05IXVtDQEBIXTJbQ0gyXVtDSDJdW0NIMl1bQ0BASF0oW0NIM10pW0NASF0yW0NIM10=

> <s_epik_cmdline>
J2VwaWtfcHl0aG9uJywgJy1waCcsICc3LjAnLCAnLXRuJywgJzgnLCAnLW1hJywgJzIwMCcsICctbWV0YWxfYmluZGluZycsICctaW1hZScsICc8aW5maWxlLm1hZT4nLCAnLW9tYWUnLCAnPG91dGZpbGUubWFlPic=

> <r_lp_tautomer_probability>
1

> <r_epik_Ionization_Penalty>
1.90709e-08

> <r_epik_Ionization_Penalty_Charging>
2.37982e-11

> <r_epik_Ionization_Penalty_Neutral>
1.90471e-08

> <r_epik_State_Penalty>
-0

> <r_epik_Charging_Adjusted_Penalty>
2.37982e-11

> <i_epik_Tot_Q>
0

> <i_epik_Tot_abs_Q>
0

> <r_epik_Metal_State_Penalty>
-0

> <b_epik_Metal_Only>
0

> <s_lp_Force_Field>
OPLS_2005

> <r_lp_Energy>
29.144

> <b_lp_Chiralities_Consistent>
1

> <s_lp_Variant>
AV-unprocessed.smi:1662-1

> <Gold.Version>
5.8.1

> <Gold.Id.Protein>
6NUR|6NUR_protein|mol2

> <Gold.PLP.Fitness>
44.8784

> <Gold.PLP.PLP>
-43.4312

> <Gold.PLP.part.hbond>
-1.0000

> <Gold.PLP.part.metal>
0.0000

> <Gold.PLP.part.buried>
-6.5119

> <Gold.PLP.part.nonpolar>
-34.8247

> <Gold.PLP.part.repulsive>
0.1272

> <Gold.PLP.ligand.clash>
0.0000

> <Gold.PLP.ligand.torsion>
0.7800

> <Gold.PLP.Chemscore.Hbond>
1.0000

> <Gold.PLP.Chemscore.CHOScore>
0.0000

> <Gold.PLP.Chemscore.Metal>
0.0000

> <Gold.Chemscore.Hbonds>
donor molecule, donor type, donor heavy atom, donor atom, acceptor molecule, acceptor atom, score
      P1  H  6896  6908       L1    18  0.70

> <Gold.PLP.Chemscore.Internal.Correction>
0.0071

> <Gold.Rescore>
     Score         DG    S(hbond)    S(metal)    S(lipo)     H(rot)  DE(clash)    DE(int)     intcor
     16.62     -19.17       0.96        0.00     121.31       1.45       0.39       2.15       ----

> <Gold.Chemscore.Fitness>
16.6236

> <Gold.Chemscore.DG>
-19.1706

> <Gold.Chemscore.ZeroCoef>
-5.4800

> <Gold.Chemscore.Hbond>
0.9610

> <Gold.Chemscore.Metal>
0.0000

> <Gold.Chemscore.Lipo>
121.3149

> <Gold.Chemscore.Internal_Hbond>
0.0000

> <Gold.Chemscore.DEClash>
0.3944

> <Gold.Chemscore.DEInternal>
2.1526

> <Gold.Chemscore.Rot>
1.4504

> <Gold.Chemscore.Internal.Correction>
   9.000000E+99

> <Gold.Chemscore.Hbonds>
donor molecule, donor type, donor heavy atom, donor atom, acceptor molecule, acceptor atom, score
      P1  H  6896  6908       L1    18  0.27

> <Gold.Chemscore.Hbond.Weighted>
-3.2097

> <Gold.Chemscore.Metal.Weighted>
-0.0000

> <Gold.Chemscore.Lipo.Weighted>
-14.1938

> <Gold.Chemscore.Internal_Hbond.Weighted>
0.0000

> <Gold.Chemscore.DEClash.Weighted>
0.3944

> <Gold.Chemscore.DEInternal.Weighted>
2.1526

> <Gold.Chemscore.Rot.Weighted>
3.7129

> <Gold.Chemscore.Internal.Correction.Weighted>
   9.000000E+99

> <Gold.Protein.RotatedTorsions>
[ 6907 6896 6895 6894 ] final  -28.96 input  -60.11 | X-H torsion
[ 7974 7965 7964 7962 ] final   -3.76 input  175.53 | X-H torsion
[ 8008 7997 7996 7995 ] final    6.44 input   59.86 | X-H torsion
[ 10167 10162 10161 10158 ] final   52.19 input  -65.29 | X-H torsion
[ 10718 10713 10712 10709 ] final   88.38 input   66.30 | X-H torsion
[ 10763 10752 10751 10750 ] final -110.33 input  -60.55 | X-H torsion
[ 11005 11000 10999 10996 ] final  152.17 input  -57.11 | X-H torsion

> <Gold.Protein.ActiveResidues>
 VAL166  LYS551  ARG553  GLY616  TRP617  ASP618  TYR619  PRO620  LYS621  CYS622 
 ASP623  PHE694  ASN695  SER759  ASP760  ASP761  ALA762  ILE779  LEU786  VAL792 
 PHE793  MET794  SER795  GLU796  ALA797  LYS798  CYS799  TRP800  GLU811  SER814 

> <Gold.Protein.RotatedAtoms>
  151.1258  135.0104  159.8559 H   0  0  0  0  0  0  0  0  0  0  0  0  # atno 6907 bound_to 6896
  152.5449  134.1669  159.8591 H   0  0  0  0  0  0  0  0  0  0  0  0  # atno 6908 bound_to 6896
  151.1731  133.4727  159.2627 H   0  0  0  0  0  0  0  0  0  0  0  0  # atno 6909 bound_to 6896
  146.2384  140.1770  142.8332 H   0  0  0  0  0  0  0  0  0  0  0  0  # atno 7974 bound_to 7965
  154.7410  140.2749  155.6373 H   0  0  0  0  0  0  0  0  0  0  0  0  # atno 8008 bound_to 7997
  156.2873  140.2697  156.2063 H   0  0  0  0  0  0  0  0  0  0  0  0  # atno 8009 bound_to 7997
  155.0258  140.0371  157.2445 H   0  0  0  0  0  0  0  0  0  0  0  0  # atno 8010 bound_to 7997
  140.2540  144.3448  150.6339 H   0  0  0  0  0  0  0  0  0  0  0  0  # atno 10167 bound_to 10162
  157.6948  131.0292  150.3266 H   0  0  0  0  0  0  0  0  0  0  0  0  # atno 10718 bound_to 10713
  154.8242  135.4568  154.0869 H   0  0  0  0  0  0  0  0  0  0  0  0  # atno 10763 bound_to 10752
  153.2197  135.6892  153.8021 H   0  0  0  0  0  0  0  0  0  0  0  0  # atno 10764 bound_to 10752
  153.7443  135.3308  155.3286 H   0  0  0  0  0  0  0  0  0  0  0  0  # atno 10765 bound_to 10752
  140.1284  134.8818  157.2169 H   0  0  0  0  0  0  0  0  0  0  0  0  # atno 11005 bound_to 11000
  144.9965  140.8594  143.5307 LP  0  0  0  0  0  0  0  0  0  0  0  0  # atno 17320 bound_to 7965
  145.1783  139.2366  143.5306 LP  0  0  0  0  0  0  0  0  0  0  0  0  # atno 17321 bound_to 7965
  140.6018  143.2167  151.7057 LP  0  0  0  0  0  0  0  0  0  0  0  0  # atno 17342 bound_to 10162
  139.5037  144.3780  152.0404 LP  0  0  0  0  0  0  0  0  0  0  0  0  # atno 17343 bound_to 10162
  156.3746  130.3869  149.7149 LP  0  0  0  0  0  0  0  0  0  0  0  0  # atno 17370 bound_to 10713
  156.4551  130.7925  151.2946 LP  0  0  0  0  0  0  0  0  0  0  0  0  # atno 17371 bound_to 10713
  140.2874  134.3279  155.7325 LP  0  0  0  0  0  0  0  0  0  0  0  0  # atno 17394 bound_to 11000
  141.2165  133.7514  156.9454 LP  0  0  0  0  0  0  0  0  0  0  0  0  # atno 17395 bound_to 11000

$$$$
