AV-unprocessed.smi:2453|AV-procd|sdf|9688|dock4
  -GOLD-   2272013323D 1   1.00000     0.00000
 Structure written by MMmdl.
 40 41  0  0  0  0  0  0  0  0  1 V2000
  150.8261  145.1461  158.7554 C   0  0  0  0  0  0  0  0  0  0  0  0
  151.5619  143.8341  158.9656 C   0  0  0  0  0  0  0  0  0  0  0  0
  152.7206  143.7985  159.7708 C   0  0  0  0  0  0  0  0  0  0  0  0
  153.4323  142.6770  160.0056 N   0  0  0  0  0  0  0  0  0  0  0  0
  153.0086  141.5326  159.4316 C   0  0  0  0  0  0  0  0  0  0  0  0
  151.8673  141.4529  158.6103 C   0  0  0  0  0  0  0  0  0  0  0  0
  151.1118  142.6275  158.3763 C   0  0  0  0  0  0  0  0  0  0  0  0
  149.9565  142.6610  157.5450 N   0  0  0  0  0  0  0  0  0  0  0  0
  148.9779  141.7477  157.4219 C   0  0  0  0  0  0  0  0  0  0  0  0
  148.8916  140.7041  158.0686 O   0  0  0  0  0  0  0  0  0  0  0  0
  148.0820  142.1298  156.5002 N   0  0  0  0  0  0  0  0  0  0  0  0
  146.8927  141.3826  156.0847 C   0  0  1  0  0  0  0  0  0  0  0  0
  145.6265  142.2273  156.3313 C   0  0  0  0  0  0  0  0  0  0  0  0
  145.5334  143.4295  155.3762 C   0  0  0  0  0  0  0  0  0  0  0  0
  145.6274  142.9825  153.9100 C   0  0  0  0  0  0  0  0  0  0  0  0
  146.9007  142.1591  153.6563 C   0  0  0  0  0  0  0  0  0  0  0  0
  146.9904  140.9401  154.5997 C   0  0  1  0  0  0  0  0  0  0  0  0
  148.2390  140.0873  154.2893 C   0  0  0  0  0  0  0  0  0  0  0  0
  148.1311  139.4861  153.0159 O   0  0  0  0  0  0  0  0  0  0  0  0
  151.3128  145.9636  159.2882 H   0  0  0  0  0  0  0  0  0  0  0  0
  149.8013  145.0695  159.1197 H   0  0  0  0  0  0  0  0  0  0  0  0
  150.7993  145.4030  157.6962 H   0  0  0  0  0  0  0  0  0  0  0  0
  153.0919  144.6971  160.2412 H   0  0  0  0  0  0  0  0  0  0  0  0
  153.6025  140.6520  159.6267 H   0  0  0  0  0  0  0  0  0  0  0  0
  151.6064  140.5028  158.1705 H   0  0  0  0  0  0  0  0  0  0  0  0
  149.8378  143.5088  157.0105 H   0  0  0  0  0  0  0  0  0  0  0  0
  148.2397  143.0095  156.0313 H   0  0  0  0  0  0  0  0  0  0  0  0
  146.7980  140.4832  156.6954 H   0  0  0  0  0  0  0  0  0  0  0  0
  144.7466  141.5972  156.1956 H   0  0  0  0  0  0  0  0  0  0  0  0
  145.5959  142.5684  157.3669 H   0  0  0  0  0  0  0  0  0  0  0  0
  144.5964  143.9620  155.5419 H   0  0  0  0  0  0  0  0  0  0  0  0
  146.3317  144.1396  155.5946 H   0  0  0  0  0  0  0  0  0  0  0  0
  144.7506  142.3868  153.6531 H   0  0  0  0  0  0  0  0  0  0  0  0
  145.6113  143.8538  153.2545 H   0  0  0  0  0  0  0  0  0  0  0  0
  146.9124  141.8272  152.6177 H   0  0  0  0  0  0  0  0  0  0  0  0
  147.7779  142.7948  153.7826 H   0  0  0  0  0  0  0  0  0  0  0  0
  146.1197  140.3162  154.3897 H   0  0  0  0  0  0  0  0  0  0  0  0
  149.1327  140.7120  154.2909 H   0  0  0  0  0  0  0  0  0  0  0  0
  148.3928  139.3144  155.0426 H   0  0  0  0  0  0  0  0  0  0  0  0
  148.7998  139.8472  152.4540 H   0  0  0  0  0  0  0  0  0  0  0  0
  1  2  1  0  0  0  0
  1 20  1  0  0  0  0
  1 21  1  0  0  0  0
  1 22  1  0  0  0  0
  2  7  1  0  0  0  0
  2  3  2  0  0  0  0
  3  4  1  0  0  0  0
  3 23  1  0  0  0  0
  4  5  2  0  0  0  0
  5  6  1  0  0  0  0
  5 24  1  0  0  0  0
  6  7  2  0  0  0  0
  6 25  1  0  0  0  0
  7  8  1  0  0  0  0
  8  9  1  0  0  0  0
  8 26  1  0  0  0  0
  9 10  2  0  0  0  0
  9 11  1  0  0  0  0
 11 12  1  0  0  0  0
 11 27  1  0  0  0  0
 12 17  1  0  0  0  0
 12 13  1  0  0  0  0
 12 28  1  0  0  0  0
 13 14  1  0  0  0  0
 13 29  1  0  0  0  0
 13 30  1  0  0  0  0
 14 15  1  0  0  0  0
 14 31  1  0  0  0  0
 14 32  1  0  0  0  0
 15 16  1  0  0  0  0
 15 33  1  0  0  0  0
 15 34  1  0  0  0  0
 16 17  1  0  0  0  0
 16 35  1  0  0  0  0
 16 36  1  0  0  0  0
 17 18  1  0  0  0  0
 17 37  1  0  0  0  0
 18 19  1  0  0  0  0
 18 38  1  0  0  0  0
 18 39  1  0  0  0  0
 19 40  1  0  0  0  0
M  END
> <s_m_source_file>
AV-unprocessed.smi

> <i_m_source_file_index>
2453

> <i_lp_mmshare_version>
43012

> <i_f3d_flags>
0

> <s_epik_input>
W0NIM11jMVtjSF1uW2NIXVtjSF1jMVtOSF1DKD1PKVtOSF1bQ0BASF0yW0NIMl1bQ0gyXVtDSDJdW0NIMl1bQ0BIXTJbQ0gyXVtPSF0=

> <s_epik_cmdline>
J2VwaWtfcHl0aG9uJywgJy1waCcsICc3LjAnLCAnLXRuJywgJzgnLCAnLW1hJywgJzIwMCcsICctbWV0YWxfYmluZGluZycsICctaW1hZScsICc8aW5maWxlLm1hZT4nLCAnLW9tYWUnLCAnPG91dGZpbGUubWFlPic=

> <r_epik_Ionization_Penalty>
0.210691

> <r_epik_Ionization_Penalty_Charging>
0

> <r_epik_Ionization_Penalty_Neutral>
0.210691

> <r_epik_State_Penalty>
0.200732

> <r_epik_Charging_Adjusted_Penalty>
0.200732

> <i_epik_Tot_Q>
0

> <i_epik_Tot_abs_Q>
0

> <r_epik_Metal_State_Penalty>
0.147519

> <b_epik_Metal_Only>
0

> <s_lp_Force_Field>
OPLS_2005

> <r_lp_Energy>
17.3761

> <b_lp_Chiralities_Consistent>
1

> <s_lp_Variant>
AV-unprocessed.smi:2453-2

> <Gold.Version>
5.8.1

> <Gold.Id.Protein>
6NUR|6NUR_protein|mol2

> <Gold.PLP.Fitness>
44.0038

> <Gold.PLP.PLP>
-35.6793

> <Gold.PLP.part.hbond>
-2.7518

> <Gold.PLP.part.metal>
0.0000

> <Gold.PLP.part.buried>
-7.9211

> <Gold.PLP.part.nonpolar>
-25.1042

> <Gold.PLP.part.repulsive>
0.0509

> <Gold.PLP.ligand.clash>
0.0000

> <Gold.PLP.ligand.torsion>
0.3465

> <Gold.PLP.Chemscore.Hbond>
3.0000

> <Gold.PLP.Chemscore.CHOScore>
0.0000

> <Gold.PLP.Chemscore.Metal>
0.0000

> <Gold.Chemscore.Hbonds>
donor molecule, donor type, donor heavy atom, donor atom, acceptor molecule, acceptor atom, score
      L1  H     8    26       P1  8028  0.98
      L1  H    11    27       P1  8028  1.00
      L1  H    19    40       P1  7957  1.00

> <Gold.PLP.Chemscore.Internal.Correction>
0.0174

> <Gold.Rescore>
     Score         DG    S(hbond)    S(metal)    S(lipo)     H(rot)  DE(clash)    DE(int)     intcor
     21.45     -21.85       2.87        0.00      96.30       1.75       0.07       0.33       ----

> <Gold.Chemscore.Fitness>
21.4457

> <Gold.Chemscore.DG>
-21.8505

> <Gold.Chemscore.ZeroCoef>
-5.4800

> <Gold.Chemscore.Hbond>
2.8687

> <Gold.Chemscore.Metal>
0.0000

> <Gold.Chemscore.Lipo>
96.3014

> <Gold.Chemscore.Internal_Hbond>
0.0000

> <Gold.Chemscore.DEClash>
0.0739

> <Gold.Chemscore.DEInternal>
0.3310

> <Gold.Chemscore.Rot>
1.7493

> <Gold.Chemscore.Internal.Correction>
   9.000000E+99

> <Gold.Chemscore.Hbonds>
donor molecule, donor type, donor heavy atom, donor atom, acceptor molecule, acceptor atom, score
      L1  H     8    26       P1  8028  0.89
      L1  H    11    27       P1  8028  0.82
      L1  H    19    40       P1  7957  0.92

> <Gold.Chemscore.Hbond.Weighted>
-9.5814

> <Gold.Chemscore.Metal.Weighted>
-0.0000

> <Gold.Chemscore.Lipo.Weighted>
-11.2673

> <Gold.Chemscore.Internal_Hbond.Weighted>
0.0000

> <Gold.Chemscore.DEClash.Weighted>
0.0739

> <Gold.Chemscore.DEInternal.Weighted>
0.3310

> <Gold.Chemscore.Rot.Weighted>
4.4782

> <Gold.Chemscore.Internal.Correction.Weighted>
   9.000000E+99

> <Gold.Protein.RotatedTorsions>
[ 6907 6896 6895 6894 ] final   77.07 input  -60.11 | X-H torsion
[ 7974 7965 7964 7962 ] final  100.52 input  175.53 | X-H torsion
[ 8008 7997 7996 7995 ] final -116.77 input   59.86 | X-H torsion
[ 10167 10162 10161 10158 ] final -151.71 input  -65.29 | X-H torsion
[ 10718 10713 10712 10709 ] final -158.77 input   66.30 | X-H torsion
[ 10763 10752 10751 10750 ] final  127.25 input  -60.55 | X-H torsion
[ 11005 11000 10999 10996 ] final  130.70 input  -57.11 | X-H torsion

> <Gold.Protein.ActiveResidues>
 VAL166  LYS551  ARG553  GLY616  TRP617  ASP618  TYR619  PRO620  LYS621  CYS622 
 ASP623  PHE694  ASN695  SER759  ASP760  ASP761  ALA762  ILE779  LEU786  VAL792 
 PHE793  MET794  SER795  GLU796  ALA797  LYS798  CYS799  TRP800  GLU811  SER814 

> <Gold.Protein.RotatedAtoms>
  152.5101  134.3873  159.9371 H   0  0  0  0  0  0  0  0  0  0  0  0  # atno 6907 bound_to 6896
  151.3832  133.3808  159.2720 H   0  0  0  0  0  0  0  0  0  0  0  0  # atno 6908 bound_to 6896
  150.9489  134.8911  159.7718 H   0  0  0  0  0  0  0  0  0  0  0  0  # atno 6909 bound_to 6896
  145.3845  139.2374  143.3385 H   0  0  0  0  0  0  0  0  0  0  0  0  # atno 7974 bound_to 7965
  155.0731  140.0393  157.2615 H   0  0  0  0  0  0  0  0  0  0  0  0  # atno 8008 bound_to 7997
  154.6966  140.2664  155.6735 H   0  0  0  0  0  0  0  0  0  0  0  0  # atno 8009 bound_to 7997
  156.2747  140.2749  156.1563 H   0  0  0  0  0  0  0  0  0  0  0  0  # atno 8010 bound_to 7997
  139.7244  143.8906  152.2514 H   0  0  0  0  0  0  0  0  0  0  0  0  # atno 10167 bound_to 10162
  156.5588  130.8638  151.2803 H   0  0  0  0  0  0  0  0  0  0  0  0  # atno 10718 bound_to 10713
  153.7064  135.3275  155.3236 H   0  0  0  0  0  0  0  0  0  0  0  0  # atno 10763 bound_to 10752
  154.8398  135.4466  154.1358 H   0  0  0  0  0  0  0  0  0  0  0  0  # atno 10764 bound_to 10752
  153.2440  135.6974  153.7830 H   0  0  0  0  0  0  0  0  0  0  0  0  # atno 10765 bound_to 10752
  139.9687  134.9583  156.9331 H   0  0  0  0  0  0  0  0  0  0  0  0  # atno 11005 bound_to 11000
  146.2827  140.4517  142.8770 LP  0  0  0  0  0  0  0  0  0  0  0  0  # atno 17320 bound_to 7965
  144.8484  140.6964  143.6184 LP  0  0  0  0  0  0  0  0  0  0  0  0  # atno 17321 bound_to 7965
  139.8811  144.7017  150.8876 LP  0  0  0  0  0  0  0  0  0  0  0  0  # atno 17342 bound_to 10162
  140.7760  143.3660  151.1738 LP  0  0  0  0  0  0  0  0  0  0  0  0  # atno 17343 bound_to 10162
  157.7373  130.9793  150.2183 LP  0  0  0  0  0  0  0  0  0  0  0  0  # atno 17370 bound_to 10713
  156.2818  130.3734  149.7928 LP  0  0  0  0  0  0  0  0  0  0  0  0  # atno 17371 bound_to 10713
  140.5340  134.0785  155.7323 LP  0  0  0  0  0  0  0  0  0  0  0  0  # atno 17394 bound_to 11000
  141.1367  133.9210  157.2418 LP  0  0  0  0  0  0  0  0  0  0  0  0  # atno 17395 bound_to 11000

$$$$
