AV-unprocessed.smi:2472|AV-procd|sdf|9742|dock5
  -GOLD-   2272013383D 1   1.00000     0.00000
 Structure written by MMmdl.
 48 50  0  0  0  0  0  0  0  0  2 V2000
  150.5840  138.9423  154.3856 C   0  0  0  0  0  0  0  0  0  0  0  0
  149.4800  139.9824  154.4611 C   0  0  0  0  0  0  0  0  0  0  0  0
  149.7867  141.2942  154.8841 C   0  0  0  0  0  0  0  0  0  0  0  0
  148.8148  142.2280  154.9573 N   0  3  0  0  0  0  0  0  0  0  0  0
  147.5282  141.9686  154.6449 C   0  0  0  0  0  0  0  0  0  0  0  0
  147.1560  140.6792  154.2156 C   0  0  0  0  0  0  0  0  0  0  0  0
  148.1434  139.6675  154.1054 C   0  0  0  0  0  0  0  0  0  0  0  0
  147.8362  138.3397  153.6969 N   0  0  0  0  0  0  0  0  0  0  0  0
  146.6414  137.7254  153.7193 C   0  0  0  0  0  0  0  0  0  0  0  0
  145.5947  138.2316  154.1232 O   0  0  0  0  0  0  0  0  0  0  0  0
  146.7219  136.4850  153.2053 N   0  0  0  0  0  0  0  0  0  0  0  0
  145.6301  135.5107  153.0191 C   0  0  0  0  0  0  0  0  0  0  0  0
  146.1069  134.1797  152.3690 C   0  0  0  0  0  0  0  0  0  0  0  0
  146.9038  133.4541  152.9654 O   0  0  0  0  0  0  0  0  0  0  0  0
  145.6394  133.8678  151.1490 N   0  0  0  0  0  0  0  0  0  0  0  0
  145.9719  132.6615  150.4074 C   0  0  0  0  0  0  0  0  0  0  0  0
  144.7605  131.8925  149.9239 C   0  0  0  0  0  0  0  0  0  0  0  0
  143.7385  132.5518  149.0278 C   0  0  0  0  0  0  0  0  0  0  0  0
  143.3796  132.2023  150.4524 C   0  0  0  0  0  0  0  0  0  0  0  0
  145.0238  135.1933  154.4074 C   0  0  0  0  0  0  0  0  0  0  0  0
  143.5223  135.0165  154.1916 C   0  0  0  0  0  0  0  0  0  0  0  0
  143.1849  136.0403  153.1161 C   0  0  0  0  0  0  0  0  0  0  0  0
  144.4367  136.1427  152.2351 C   0  0  0  0  0  0  0  0  0  0  0  0
  151.5504  139.3705  154.6532 H   0  0  0  0  0  0  0  0  0  0  0  0
  150.6627  138.5417  153.3745 H   0  0  0  0  0  0  0  0  0  0  0  0
  150.3786  138.1188  155.0702 H   0  0  0  0  0  0  0  0  0  0  0  0
  150.7757  141.6249  155.1670 H   0  0  0  0  0  0  0  0  0  0  0  0
  146.8380  142.7924  154.7524 H   0  0  0  0  0  0  0  0  0  0  0  0
  146.1185  140.4844  153.9895 H   0  0  0  0  0  0  0  0  0  0  0  0
  148.5871  137.8376  153.2461 H   0  0  0  0  0  0  0  0  0  0  0  0
  147.6323  136.1750  152.8988 H   0  0  0  0  0  0  0  0  0  0  0  0
  144.9937  134.5088  150.7125 H   0  0  0  0  0  0  0  0  0  0  0  0
  146.5998  132.9256  149.5551 H   0  0  0  0  0  0  0  0  0  0  0  0
  146.5622  132.0000  151.0436 H   0  0  0  0  0  0  0  0  0  0  0  0
  144.9671  130.8464  149.7041 H   0  0  0  0  0  0  0  0  0  0  0  0
  143.8758  133.6046  148.7888 H   0  0  0  0  0  0  0  0  0  0  0  0
  143.2998  131.9474  148.2365 H   0  0  0  0  0  0  0  0  0  0  0  0
  142.7037  131.3644  150.6111 H   0  0  0  0  0  0  0  0  0  0  0  0
  143.2786  133.0229  151.1600 H   0  0  0  0  0  0  0  0  0  0  0  0
  145.4659  134.3168  154.8847 H   0  0  0  0  0  0  0  0  0  0  0  0
  145.1797  136.0294  155.0912 H   0  0  0  0  0  0  0  0  0  0  0  0
  143.3139  134.0104  153.8257 H   0  0  0  0  0  0  0  0  0  0  0  0
  142.9460  135.1639  155.1053 H   0  0  0  0  0  0  0  0  0  0  0  0
  142.2957  135.7673  152.5471 H   0  0  0  0  0  0  0  0  0  0  0  0
  142.9908  137.0060  153.5848 H   0  0  0  0  0  0  0  0  0  0  0  0
  144.6049  137.1897  151.9809 H   0  0  0  0  0  0  0  0  0  0  0  0
  144.2607  135.6366  151.2848 H   0  0  0  0  0  0  0  0  0  0  0  0
  149.0624  143.1683  155.2667 H   0  0  0  0  0  0  0  0  0  0  0  0
  1  2  1  0  0  0  0
  1 24  1  0  0  0  0
  1 25  1  0  0  0  0
  1 26  1  0  0  0  0
  2  7  1  0  0  0  0
  2  3  2  0  0  0  0
  3  4  1  0  0  0  0
  3 27  1  0  0  0  0
  4  5  2  0  0  0  0
  4 48  1  0  0  0  0
  5  6  1  0  0  0  0
  5 28  1  0  0  0  0
  6  7  2  0  0  0  0
  6 29  1  0  0  0  0
  7  8  1  0  0  0  0
  8  9  1  0  0  0  0
  8 30  1  0  0  0  0
  9 10  2  0  0  0  0
  9 11  1  0  0  0  0
 11 12  1  0  0  0  0
 11 31  1  0  0  0  0
 12 23  1  0  0  0  0
 12 13  1  0  0  0  0
 12 20  1  0  0  0  0
 13 14  2  0  0  0  0
 13 15  1  0  0  0  0
 15 16  1  0  0  0  0
 15 32  1  0  0  0  0
 16 17  1  0  0  0  0
 16 33  1  0  0  0  0
 16 34  1  0  0  0  0
 17 19  1  0  0  0  0
 17 18  1  0  0  0  0
 17 35  1  0  0  0  0
 18 19  1  0  0  0  0
 18 36  1  0  0  0  0
 18 37  1  0  0  0  0
 19 38  1  0  0  0  0
 19 39  1  0  0  0  0
 20 21  1  0  0  0  0
 20 40  1  0  0  0  0
 20 41  1  0  0  0  0
 21 22  1  0  0  0  0
 21 42  1  0  0  0  0
 21 43  1  0  0  0  0
 22 23  1  0  0  0  0
 22 44  1  0  0  0  0
 22 45  1  0  0  0  0
 23 46  1  0  0  0  0
 23 47  1  0  0  0  0
M  CHG  1   4   1
M  END
> <s_m_source_file>
AV-unprocessed.smi

> <i_m_source_file_index>
2472

> <i_lp_mmshare_version>
43012

> <i_f3d_flags>
0

> <s_epik_input>
W0NIM11jMVtjSF1uW2NIXVtjSF1jMVtOSF1DKD1PKVtOSF1DMihbQ0gyXVtDSDJdW0NIMl1bQ0gyXTIpQyg9TylbTkhdW0NIMl1bQ0hdM1tDSDJdW0NIMl0z

> <s_epik_cmdline>
J2VwaWtfcHl0aG9uJywgJy1waCcsICc3LjAnLCAnLXRuJywgJzgnLCAnLW1hJywgJzIwMCcsICctbWV0YWxfYmluZGluZycsICctaW1hZScsICc8aW5maWxlLm1hZT4nLCAnLW9tYWUnLCAnPG91dGZpbGUubWFlPic=

> <r_epik_Ionization_Penalty>
0.772167

> <r_epik_Ionization_Penalty_Charging>
0.772149

> <r_epik_Ionization_Penalty_Neutral>
1.87678e-05

> <r_epik_State_Penalty>
0.800952

> <r_epik_Charging_Adjusted_Penalty>
1.5731

> <i_epik_Tot_Q>
1

> <i_epik_Tot_abs_Q>
1

> <r_epik_Metal_State_Penalty>
0.9454

> <b_epik_Metal_Only>
0

> <s_lp_Force_Field>
OPLS_2005

> <r_lp_Energy>
39.076

> <b_lp_Chiralities_Consistent>
1

> <s_lp_Variant>
AV-unprocessed.smi:2472-2

> <Gold.Version>
5.8.1

> <Gold.Id.Protein>
6NUR|6NUR_protein|mol2

> <Gold.PLP.Fitness>
50.5467

> <Gold.PLP.PLP>
-40.3824

> <Gold.PLP.part.hbond>
-2.9114

> <Gold.PLP.part.metal>
0.0000

> <Gold.PLP.part.buried>
-3.2116

> <Gold.PLP.part.nonpolar>
-33.6570

> <Gold.PLP.part.repulsive>
0.5665

> <Gold.PLP.ligand.clash>
0.0000

> <Gold.PLP.ligand.torsion>
0.6408

> <Gold.PLP.Chemscore.Hbond>
3.5980

> <Gold.PLP.Chemscore.CHOScore>
0.0000

> <Gold.PLP.Chemscore.Metal>
0.0000

> <Gold.Chemscore.Hbonds>
donor molecule, donor type, donor heavy atom, donor atom, acceptor molecule, acceptor atom, score
      L1  H     4    48       P1  8028  2.00
      L1  H     8    30       P1  7948  0.62
      L1  H    11    31       P1  7948  1.00

> <Gold.PLP.Chemscore.Internal.Correction>
0.6519

> <Gold.Rescore>
     Score         DG    S(hbond)    S(metal)    S(lipo)     H(rot)  DE(clash)    DE(int)     intcor
     19.81     -22.72       2.70        0.00     106.00       1.63       0.16       2.75       ----

> <Gold.Chemscore.Fitness>
19.8127

> <Gold.Chemscore.DG>
-22.7237

> <Gold.Chemscore.ZeroCoef>
-5.4800

> <Gold.Chemscore.Hbond>
2.6979

> <Gold.Chemscore.Metal>
0.0000

> <Gold.Chemscore.Lipo>
105.9993

> <Gold.Chemscore.Internal_Hbond>
0.0000

> <Gold.Chemscore.DEClash>
0.1615

> <Gold.Chemscore.DEInternal>
2.7495

> <Gold.Chemscore.Rot>
1.6286

> <Gold.Chemscore.Internal.Correction>
   9.000000E+99

> <Gold.Chemscore.Hbonds>
donor molecule, donor type, donor heavy atom, donor atom, acceptor molecule, acceptor atom, score
      L1  H     4    48       P1  8028  0.98
      L1  H     8    30       P1  7948  0.62
      L1  H    11    31       P1  7948  0.96

> <Gold.Chemscore.Hbond.Weighted>
-9.0110

> <Gold.Chemscore.Metal.Weighted>
-0.0000

> <Gold.Chemscore.Lipo.Weighted>
-12.4019

> <Gold.Chemscore.Internal_Hbond.Weighted>
0.0000

> <Gold.Chemscore.DEClash.Weighted>
0.1615

> <Gold.Chemscore.DEInternal.Weighted>
2.7495

> <Gold.Chemscore.Rot.Weighted>
4.1692

> <Gold.Chemscore.Internal.Correction.Weighted>
   9.000000E+99

> <Gold.Protein.RotatedTorsions>
[ 6907 6896 6895 6894 ] final  170.22 input  -60.11 | X-H torsion
[ 7974 7965 7964 7962 ] final  -22.29 input  175.53 | X-H torsion
[ 8008 7997 7996 7995 ] final -164.51 input   59.86 | X-H torsion
[ 10167 10162 10161 10158 ] final -152.42 input  -65.29 | X-H torsion
[ 10718 10713 10712 10709 ] final  132.42 input   66.30 | X-H torsion
[ 10763 10752 10751 10750 ] final  166.80 input  -60.55 | X-H torsion
[ 11005 11000 10999 10996 ] final  102.49 input  -57.11 | X-H torsion

> <Gold.Protein.ActiveResidues>
 VAL166  LYS551  ARG553  GLY616  TRP617  ASP618  TYR619  PRO620  LYS621  CYS622 
 ASP623  PHE694  ASN695  SER759  ASP760  ASP761  ALA762  ILE779  LEU786  VAL792 
 PHE793  MET794  SER795  GLU796  ALA797  LYS798  CYS799  TRP800  GLU811  SER814 

> <Gold.Protein.RotatedAtoms>
  151.8196  133.3393  159.3579 H   0  0  0  0  0  0  0  0  0  0  0  0  # atno 6907 bound_to 6896
  150.7299  134.5587  159.5840 H   0  0  0  0  0  0  0  0  0  0  0  0  # atno 6908 bound_to 6896
  152.3016  134.7605  160.0408 H   0  0  0  0  0  0  0  0  0  0  0  0  # atno 6909 bound_to 6896
  146.1684  140.4458  142.8542 H   0  0  0  0  0  0  0  0  0  0  0  0  # atno 7974 bound_to 7965
  155.8367  140.0942  157.1760 H   0  0  0  0  0  0  0  0  0  0  0  0  # atno 8008 bound_to 7997
  154.3981  140.1409  156.3740 H   0  0  0  0  0  0  0  0  0  0  0  0  # atno 8009 bound_to 7997
  155.8108  140.3450  155.5459 H   0  0  0  0  0  0  0  0  0  0  0  0  # atno 8010 bound_to 7997
  139.7183  143.8998  152.2494 H   0  0  0  0  0  0  0  0  0  0  0  0  # atno 10167 bound_to 10162
  157.4873  131.1089  150.9603 H   0  0  0  0  0  0  0  0  0  0  0  0  # atno 10718 bound_to 10713
  154.3444  135.2753  155.2405 H   0  0  0  0  0  0  0  0  0  0  0  0  # atno 10763 bound_to 10752
  154.4662  135.5894  153.6293 H   0  0  0  0  0  0  0  0  0  0  0  0  # atno 10764 bound_to 10752
  152.9855  135.6077  154.3648 H   0  0  0  0  0  0  0  0  0  0  0  0  # atno 10765 bound_to 10752
  139.8778  134.9226  156.5066 H   0  0  0  0  0  0  0  0  0  0  0  0  # atno 11005 bound_to 11000
  144.8127  140.6413  143.6405 LP  0  0  0  0  0  0  0  0  0  0  0  0  # atno 17320 bound_to 7965
  145.4405  139.1536  143.3973 LP  0  0  0  0  0  0  0  0  0  0  0  0  # atno 17321 bound_to 7965
  139.8886  144.6978  150.8795 LP  0  0  0  0  0  0  0  0  0  0  0  0  # atno 17342 bound_to 10162
  140.7748  143.3604  151.1840 LP  0  0  0  0  0  0  0  0  0  0  0  0  # atno 17343 bound_to 10162
  157.0317  130.5714  149.5344 LP  0  0  0  0  0  0  0  0  0  0  0  0  # atno 17370 bound_to 10713
  156.0154  130.5247  150.8117 LP  0  0  0  0  0  0  0  0  0  0  0  0  # atno 17371 bound_to 10713
  140.8550  133.8103  155.9207 LP  0  0  0  0  0  0  0  0  0  0  0  0  # atno 17394 bound_to 11000
  140.9106  134.2265  157.4988 LP  0  0  0  0  0  0  0  0  0  0  0  0  # atno 17395 bound_to 11000

$$$$
