AV-unprocessed.smi:743|AV-procd|sdf|3567|dock10
  -GOLD-   22720 0563D 1   1.00000     0.00000
 Structure written by MMmdl.
 28 29  0  0  0  0  0  0  0  0  1 V2000
  151.8664  145.6493  159.9706 C   0  0  0  0  0  0  0  0  0  0  0  0
  151.8225  144.4131  159.2195 N   0  0  0  0  0  0  0  0  0  0  0  0
  151.1663  144.1473  158.0378 C   0  0  0  0  0  0  0  0  0  0  0  0
  151.4194  142.8438  157.7055 C   0  0  0  0  0  0  0  0  0  0  0  0
  150.9487  142.0417  156.5073 C   0  0  1  0  0  0  0  0  0  0  0  0
  151.9282  141.0083  156.1597 N   0  0  0  0  0  0  0  0  0  0  0  0
  151.8770  139.7064  156.4996 C   0  0  0  0  0  0  0  0  0  0  0  0
  152.8104  138.9451  156.2572 O   0  0  0  0  0  0  0  0  0  0  0  0
  150.6033  139.1494  157.1590 C   0  0  0  0  0  0  0  0  0  0  0  0
  149.6412  140.2270  157.6904 C   0  0  0  0  0  0  0  0  0  0  0  0
  149.5518  141.4059  156.7134 C   0  0  1  0  0  0  0  0  0  0  0  0
  148.5598  142.3703  157.1540 N   0  0  0  0  0  0  0  0  0  0  0  0
  152.2499  142.3962  158.7739 C   0  0  0  0  0  0  0  0  0  0  0  0
  152.4891  143.3341  159.6755 N   0  0  0  0  0  0  0  0  0  0  0  0
  149.2057  141.0196  155.7536 H   0  0  0  0  0  0  0  0  0  0  0  0
  151.2991  146.4225  159.4517 H   0  0  0  0  0  0  0  0  0  0  0  0
  152.8999  145.9802  160.0770 H   0  0  0  0  0  0  0  0  0  0  0  0
  151.4343  145.4960  160.9599 H   0  0  0  0  0  0  0  0  0  0  0  0
  150.5822  144.9018  157.5315 H   0  0  0  0  0  0  0  0  0  0  0  0
  150.8867  142.7006  155.6404 H   0  0  0  0  0  0  0  0  0  0  0  0
  152.7619  141.3274  155.6875 H   0  0  0  0  0  0  0  0  0  0  0  0
  150.0887  138.5519  156.4059 H   0  0  0  0  0  0  0  0  0  0  0  0
  150.8773  138.4648  157.9621 H   0  0  0  0  0  0  0  0  0  0  0  0
  148.6550  139.7864  157.8412 H   0  0  0  0  0  0  0  0  0  0  0  0
  149.9751  140.5695  158.6710 H   0  0  0  0  0  0  0  0  0  0  0  0
  148.5003  143.1274  156.4882 H   0  0  0  0  0  0  0  0  0  0  0  0
  147.6487  141.9349  157.1799 H   0  0  0  0  0  0  0  0  0  0  0  0
  152.6861  141.4186  158.9173 H   0  0  0  0  0  0  0  0  0  0  0  0
  1  2  1  0  0  0  0
  1 16  1  0  0  0  0
  1 17  1  0  0  0  0
  1 18  1  0  0  0  0
  2 14  1  0  0  0  0
  2  3  1  0  0  0  0
  3  4  2  0  0  0  0
  3 19  1  0  0  0  0
  4  5  1  0  0  0  0
  4 13  1  0  0  0  0
  5 11  1  0  0  0  0
  5  6  1  0  0  0  0
  5 20  1  0  0  0  0
  6  7  1  0  0  0  0
  6 21  1  0  0  0  0
  7  8  2  0  0  0  0
  7  9  1  0  0  0  0
  9 10  1  0  0  0  0
  9 22  1  0  0  0  0
  9 23  1  0  0  0  0
 10 11  1  0  0  0  0
 10 24  1  0  0  0  0
 10 25  1  0  0  0  0
 11 15  1  0  0  0  0
 11 12  1  0  0  0  0
 12 26  1  0  0  0  0
 12 27  1  0  0  0  0
 13 14  2  0  0  0  0
 13 28  1  0  0  0  0
M  END
> <s_m_source_file>
AV-unprocessed.smi

> <i_m_source_file_index>
743

> <i_lp_mmshare_version>
43012

> <i_f3d_flags>
0

> <s_epik_input>
W0NIM11uMVtjSF1jKFtjSF1uMSlbQ0BASF0yW05IXUMoPU8pW0NIMl1bQ0gyXVtDQEBIXTJbTkgyXQ==

> <s_epik_cmdline>
J2VwaWtfcHl0aG9uJywgJy1waCcsICc3LjAnLCAnLXRuJywgJzgnLCAnLW1hJywgJzIwMCcsICctbWV0YWxfYmluZGluZycsICctaW1hZScsICc8aW5maWxlLm1hZT4nLCAnLW9tYWUnLCAnPG91dGZpbGUubWFlPic=

> <r_lp_tautomer_probability>
1

> <r_epik_Ionization_Penalty>
2.50279

> <r_epik_Ionization_Penalty_Charging>
0

> <r_epik_Ionization_Penalty_Neutral>
2.50279

> <r_epik_State_Penalty>
2.66754

> <r_epik_Charging_Adjusted_Penalty>
2.66754

> <i_epik_Tot_Q>
0

> <i_epik_Tot_abs_Q>
0

> <r_epik_Metal_State_Penalty>
2.66721

> <b_epik_Metal_Only>
0

> <s_lp_Force_Field>
OPLS_2005

> <r_lp_Energy>
9.07018

> <b_lp_Chiralities_Consistent>
1

> <s_lp_Variant>
AV-unprocessed.smi:743-8

> <Gold.Version>
5.8.1

> <Gold.Id.Protein>
6NUR|6NUR_protein|mol2

> <Gold.PLP.Fitness>
33.5442

> <Gold.PLP.PLP>
-25.9387

> <Gold.PLP.part.hbond>
-2.0000

> <Gold.PLP.part.metal>
0.0000

> <Gold.PLP.part.buried>
-2.2289

> <Gold.PLP.part.nonpolar>
-22.1766

> <Gold.PLP.part.repulsive>
0.1751

> <Gold.PLP.ligand.clash>
0.0000

> <Gold.PLP.ligand.torsion>
0.7269

> <Gold.PLP.Chemscore.Hbond>
2.0000

> <Gold.PLP.Chemscore.CHOScore>
1.0137

> <Gold.PLP.Chemscore.Metal>
0.0000

> <Gold.Chemscore.Hbonds>
donor molecule, donor type, donor heavy atom, donor atom, acceptor molecule, acceptor atom, score
      L1  H    12    26       P1  8028  1.00
      P1  H  7997  8010       L1     8  1.00
      L1  C     3    19       P1  8028  0.99
      L1  C     3    19       P1  8029  0.02

> <Gold.PLP.Chemscore.Internal.Correction>
0.0179

> <Gold.Rescore>
     Score         DG    S(hbond)    S(metal)    S(lipo)     H(rot)  DE(clash)    DE(int)     intcor
     13.46     -15.72       1.61        0.00      63.55       1.00       1.57       0.69       ----

> <Gold.Chemscore.Fitness>
13.4620

> <Gold.Chemscore.DG>
-15.7178

> <Gold.Chemscore.ZeroCoef>
-5.4800

> <Gold.Chemscore.Hbond>
1.6057

> <Gold.Chemscore.Metal>
0.0000

> <Gold.Chemscore.Lipo>
63.5454

> <Gold.Chemscore.Internal_Hbond>
0.0000

> <Gold.Chemscore.DEClash>
1.5652

> <Gold.Chemscore.DEInternal>
0.6906

> <Gold.Chemscore.Rot>
1.0000

> <Gold.Chemscore.Internal.Correction>
   9.000000E+99

> <Gold.Chemscore.Hbonds>
donor molecule, donor type, donor heavy atom, donor atom, acceptor molecule, acceptor atom, score
      L1  H    12    26       P1  8028  0.78
      P1  H  7997  8010       L1     8  0.44

> <Gold.Chemscore.Hbond.Weighted>
-5.3630

> <Gold.Chemscore.Metal.Weighted>
-0.0000

> <Gold.Chemscore.Lipo.Weighted>
-7.4348

> <Gold.Chemscore.Internal_Hbond.Weighted>
0.0000

> <Gold.Chemscore.DEClash.Weighted>
1.5652

> <Gold.Chemscore.DEInternal.Weighted>
0.6906

> <Gold.Chemscore.Rot.Weighted>
2.5600

> <Gold.Chemscore.Internal.Correction.Weighted>
   9.000000E+99

> <Gold.Protein.RotatedTorsions>
[ 6907 6896 6895 6894 ] final -146.06 input  -60.11 | X-H torsion
[ 7974 7965 7964 7962 ] final   26.12 input  175.53 | X-H torsion
[ 8008 7997 7996 7995 ] final   87.64 input   59.86 | X-H torsion
[ 10167 10162 10161 10158 ] final  114.62 input  -65.29 | X-H torsion
[ 10718 10713 10712 10709 ] final  -43.00 input   66.30 | X-H torsion
[ 10763 10752 10751 10750 ] final   83.72 input  -60.55 | X-H torsion
[ 11005 11000 10999 10996 ] final   73.05 input  -57.11 | X-H torsion

> <Gold.Protein.ActiveResidues>
 VAL166  LYS551  ARG553  GLY616  TRP617  ASP618  TYR619  PRO620  LYS621  CYS622 
 ASP623  PHE694  ASN695  SER759  ASP760  ASP761  ALA762  ILE779  LEU786  VAL792 
 PHE793  MET794  SER795  GLU796  ALA797  LYS798  CYS799  TRP800  GLU811  SER814 

> <Gold.Protein.RotatedAtoms>
  151.1364  133.5001  159.2597 H   0  0  0  0  0  0  0  0  0  0  0  0  # atno 6907 bound_to 6896
  151.1702  135.0314  159.8758 H   0  0  0  0  0  0  0  0  0  0  0  0  # atno 6908 bound_to 6896
  152.5461  134.1228  159.8459 H   0  0  0  0  0  0  0  0  0  0  0  0  # atno 6909 bound_to 6896
  146.1854  139.7372  142.8870 H   0  0  0  0  0  0  0  0  0  0  0  0  # atno 7974 bound_to 7965
  155.9778  140.3380  155.6635 H   0  0  0  0  0  0  0  0  0  0  0  0  # atno 8008 bound_to 7997
  155.6589  140.0714  157.2579 H   0  0  0  0  0  0  0  0  0  0  0  0  # atno 8009 bound_to 7997
  154.4183  140.1712  156.1742 H   0  0  0  0  0  0  0  0  0  0  0  0  # atno 8010 bound_to 7997
  139.6375  144.7121  151.2304 H   0  0  0  0  0  0  0  0  0  0  0  0  # atno 10167 bound_to 10162
  156.2536  130.4190  149.8621 H   0  0  0  0  0  0  0  0  0  0  0  0  # atno 10718 bound_to 10713
  153.1317  135.4680  154.9359 H   0  0  0  0  0  0  0  0  0  0  0  0  # atno 10763 bound_to 10752
  154.7670  135.3147  154.8269 H   0  0  0  0  0  0  0  0  0  0  0  0  # atno 10764 bound_to 10752
  153.8810  135.6894  153.4821 H   0  0  0  0  0  0  0  0  0  0  0  0  # atno 10765 bound_to 10752
  139.9460  134.7313  156.0980 H   0  0  0  0  0  0  0  0  0  0  0  0  # atno 11005 bound_to 11000
  145.3954  141.0378  143.3100 LP  0  0  0  0  0  0  0  0  0  0  0  0  # atno 17320 bound_to 7965
  144.8388  139.5506  143.6910 LP  0  0  0  0  0  0  0  0  0  0  0  0  # atno 17321 bound_to 7965
  140.7473  143.6369  150.8370 LP  0  0  0  0  0  0  0  0  0  0  0  0  # atno 17342 bound_to 10162
  140.0002  143.5752  152.2878 LP  0  0  0  0  0  0  0  0  0  0  0  0  # atno 17343 bound_to 10162
  156.6161  130.8607  151.3465 LP  0  0  0  0  0  0  0  0  0  0  0  0  # atno 17370 bound_to 10713
  157.7224  130.9576  150.1493 LP  0  0  0  0  0  0  0  0  0  0  0  0  # atno 17371 bound_to 10713
  141.1110  133.6643  156.2978 LP  0  0  0  0  0  0  0  0  0  0  0  0  # atno 17394 bound_to 11000
  140.5835  134.5722  157.5484 LP  0  0  0  0  0  0  0  0  0  0  0  0  # atno 17395 bound_to 11000

$$$$
