AV-unprocessed.smi:2893|AV-procd|sdf|11124|dock5
  -GOLD-   2272015593D 1   1.00000     0.00000
 Structure written by MMmdl.
 37 39  0  0  0  0  0  0  0  0  1 V2000
  135.3131  136.8993  153.2637 C   0  0  0  0  0  0  0  0  0  0  0  0
  136.4632  137.4701  154.1044 C   0  0  0  0  0  0  0  0  0  0  0  0
  137.7146  136.7650  153.8537 N   0  0  0  0  0  0  0  0  0  0  0  0
  138.8452  137.3286  153.3938 C   0  0  0  0  0  0  0  0  0  0  0  0
  138.9460  138.5305  153.1432 O   0  0  0  0  0  0  0  0  0  0  0  0
  140.0240  136.4051  153.2380 C   0  0  0  0  0  0  0  0  0  0  0  0
  141.2757  136.9163  152.8312 C   0  0  0  0  0  0  0  0  0  0  0  0
  142.3399  136.0097  152.6870 C   0  0  0  0  0  0  0  0  0  0  0  0
  142.0843  134.6514  152.9544 C   0  0  0  0  0  0  0  0  0  0  0  0
  143.1295  133.7266  152.8208 N   0  0  0  0  0  0  0  0  0  0  0  0
  144.3712  134.0783  152.1384 C   0  0  2  0  0  0  0  0  0  0  0  0
  144.1520  134.5391  150.6953 C   0  0  0  0  0  0  0  0  0  0  0  0
  145.1064  133.6186  149.9212 C   0  0  2  0  0  0  0  0  0  0  0  0
  144.5510  132.1927  149.8149 C   0  0  0  0  0  0  0  0  0  0  0  0
  144.7287  131.6838  151.2439 C   0  0  0  0  0  0  0  0  0  0  0  0
  145.3517  132.9044  151.9424 C   0  0  1  0  0  0  0  0  0  0  0  0
  146.1331  133.4239  150.8796 O   0  0  0  0  0  0  0  0  0  0  0  0
  140.8595  134.2190  153.3415 N   0  0  0  0  0  0  0  0  0  0  0  0
  139.8460  135.0808  153.4763 N   0  0  0  0  0  0  0  0  0  0  0  0
  134.3941  137.4605  153.4339 H   0  0  0  0  0  0  0  0  0  0  0  0
  135.1145  135.8571  153.5154 H   0  0  0  0  0  0  0  0  0  0  0  0
  135.5404  136.9500  152.1986 H   0  0  0  0  0  0  0  0  0  0  0  0
  136.6111  138.5216  153.8577 H   0  0  0  0  0  0  0  0  0  0  0  0
  136.2140  137.4318  155.1660 H   0  0  0  0  0  0  0  0  0  0  0  0
  137.7275  135.7722  154.0397 H   0  0  0  0  0  0  0  0  0  0  0  0
  141.4238  137.9686  152.6363 H   0  0  0  0  0  0  0  0  0  0  0  0
  143.3185  136.3489  152.3803 H   0  0  0  0  0  0  0  0  0  0  0  0
  143.0966  132.8644  153.3451 H   0  0  0  0  0  0  0  0  0  0  0  0
  144.8686  134.8804  152.6855 H   0  0  0  0  0  0  0  0  0  0  0  0
  143.1213  134.4377  150.3519 H   0  0  0  0  0  0  0  0  0  0  0  0
  144.4434  135.5840  150.5846 H   0  0  0  0  0  0  0  0  0  0  0  0
  145.4478  134.0322  148.9720 H   0  0  0  0  0  0  0  0  0  0  0  0
  143.5123  132.1738  149.4835 H   0  0  0  0  0  0  0  0  0  0  0  0
  145.1434  131.5956  149.1205 H   0  0  0  0  0  0  0  0  0  0  0  0
  143.7934  131.3596  151.7002 H   0  0  0  0  0  0  0  0  0  0  0  0
  145.4200  130.8406  151.2609 H   0  0  0  0  0  0  0  0  0  0  0  0
  145.9283  132.6545  152.8333 H   0  0  0  0  0  0  0  0  0  0  0  0
  1  2  1  0  0  0  0
  1 20  1  0  0  0  0
  1 21  1  0  0  0  0
  1 22  1  0  0  0  0
  2  3  1  0  0  0  0
  2 23  1  0  0  0  0
  2 24  1  0  0  0  0
  3  4  1  0  0  0  0
  3 25  1  0  0  0  0
  4  5  2  0  0  0  0
  4  6  1  0  0  0  0
  6 19  1  0  0  0  0
  6  7  2  0  0  0  0
  7  8  1  0  0  0  0
  7 26  1  0  0  0  0
  8  9  2  0  0  0  0
  8 27  1  0  0  0  0
  9 10  1  0  0  0  0
  9 18  1  0  0  0  0
 10 11  1  0  0  0  0
 10 28  1  0  0  0  0
 11 16  1  0  0  0  0
 11 12  1  0  0  0  0
 11 29  1  0  0  0  0
 12 13  1  0  0  0  0
 12 30  1  0  0  0  0
 12 31  1  0  0  0  0
 13 17  1  0  0  0  0
 13 14  1  0  0  0  0
 13 32  1  0  0  0  0
 14 15  1  0  0  0  0
 14 33  1  0  0  0  0
 14 34  1  0  0  0  0
 15 16  1  0  0  0  0
 15 35  1  0  0  0  0
 15 36  1  0  0  0  0
 16 17  1  0  0  0  0
 16 37  1  0  0  0  0
 18 19  2  0  0  0  0
M  END
> <s_m_source_file>
AV-unprocessed.smi

> <i_m_source_file_index>
2893

> <i_lp_mmshare_version>
43012

> <i_f3d_flags>
0

> <s_epik_input>
W0NIM11bQ0gyXVtOSF1DKD1PKWMxW2NIXVtjSF1jKG5uMSlbTkhdW0NASF0oW0NIMl1bQ0BASF0yMylbQ0BASF0oTzMpW0NIMl1bQ0gyXTI=

> <s_epik_cmdline>
J2VwaWtfcHl0aG9uJywgJy1waCcsICc3LjAnLCAnLXRuJywgJzgnLCAnLW1hJywgJzIwMCcsICctbWV0YWxfYmluZGluZycsICctaW1hZScsICc8aW5maWxlLm1hZT4nLCAnLW9tYWUnLCAnPG91dGZpbGUubWFlPic=

> <r_lp_tautomer_probability>
1

> <r_epik_Ionization_Penalty>
0.00432031

> <r_epik_Ionization_Penalty_Charging>
0

> <r_epik_Ionization_Penalty_Neutral>
0.00432031

> <r_epik_State_Penalty>
-0

> <r_epik_Charging_Adjusted_Penalty>
0

> <i_epik_Tot_Q>
0

> <i_epik_Tot_abs_Q>
0

> <r_epik_Metal_State_Penalty>
-0

> <b_epik_Metal_Only>
0

> <s_lp_Force_Field>
OPLS_2005

> <r_lp_Energy>
51.9869

> <b_lp_Chiralities_Consistent>
1

> <s_lp_Variant>
AV-unprocessed.smi:2893-3

> <Gold.Version>
5.8.1

> <Gold.Id.Protein>
6NUR|6NUR_protein|mol2

> <Gold.PLP.Fitness>
39.6409

> <Gold.PLP.PLP>
-34.9791

> <Gold.PLP.part.hbond>
-4.6845

> <Gold.PLP.part.metal>
0.0000

> <Gold.PLP.part.buried>
-5.9554

> <Gold.PLP.part.nonpolar>
-24.9705

> <Gold.PLP.part.repulsive>
0.6973

> <Gold.PLP.ligand.clash>
0.0000

> <Gold.PLP.ligand.torsion>
0.0692

> <Gold.PLP.Chemscore.Hbond>
1.5900

> <Gold.PLP.Chemscore.CHOScore>
0.0000

> <Gold.PLP.Chemscore.Metal>
0.0000

> <Gold.Chemscore.Hbonds>
donor molecule, donor type, donor heavy atom, donor atom, acceptor molecule, acceptor atom, score
      L1  H    10    28       P1 10957  1.00

> <Gold.PLP.Chemscore.Internal.Correction>
0.0301

> <Gold.Rescore>
     Score         DG    S(hbond)    S(metal)    S(lipo)     H(rot)  DE(clash)    DE(int)     intcor
     13.73     -13.90       0.97        0.00      70.68       1.21       0.09       0.08       ----

> <Gold.Chemscore.Fitness>
13.7304

> <Gold.Chemscore.DG>
-13.8975

> <Gold.Chemscore.ZeroCoef>
-5.4800

> <Gold.Chemscore.Hbond>
0.9688

> <Gold.Chemscore.Metal>
0.0000

> <Gold.Chemscore.Lipo>
70.6780

> <Gold.Chemscore.Internal_Hbond>
0.0000

> <Gold.Chemscore.DEClash>
0.0917

> <Gold.Chemscore.DEInternal>
0.0754

> <Gold.Chemscore.Rot>
1.2061

> <Gold.Chemscore.Internal.Correction>
   9.000000E+99

> <Gold.Chemscore.Hbonds>
donor molecule, donor type, donor heavy atom, donor atom, acceptor molecule, acceptor atom, score
      L1  H    10    28       P1 10957  0.65

> <Gold.Chemscore.Hbond.Weighted>
-3.2357

> <Gold.Chemscore.Metal.Weighted>
-0.0000

> <Gold.Chemscore.Lipo.Weighted>
-8.2693

> <Gold.Chemscore.Internal_Hbond.Weighted>
0.0000

> <Gold.Chemscore.DEClash.Weighted>
0.0917

> <Gold.Chemscore.DEInternal.Weighted>
0.0754

> <Gold.Chemscore.Rot.Weighted>
3.0876

> <Gold.Chemscore.Internal.Correction.Weighted>
   9.000000E+99

> <Gold.Protein.RotatedTorsions>
[ 6907 6896 6895 6894 ] final   98.26 input  -60.11 | X-H torsion
[ 7974 7965 7964 7962 ] final  -16.19 input  175.53 | X-H torsion
[ 8008 7997 7996 7995 ] final  104.78 input   59.86 | X-H torsion
[ 10167 10162 10161 10158 ] final  -99.57 input  -65.29 | X-H torsion
[ 10718 10713 10712 10709 ] final   35.06 input   66.30 | X-H torsion
[ 10763 10752 10751 10750 ] final   76.72 input  -60.55 | X-H torsion
[ 11005 11000 10999 10996 ] final   64.99 input  -57.11 | X-H torsion

> <Gold.Protein.ActiveResidues>
 VAL166  LYS551  ARG553  GLY616  TRP617  ASP618  TYR619  PRO620  LYS621  CYS622 
 ASP623  PHE694  ASN695  SER759  ASP760  ASP761  ALA762  ILE779  LEU786  VAL792 
 PHE793  MET794  SER795  GLU796  ALA797  LYS798  CYS799  TRP800  GLU811  SER814 

> <Gold.Protein.RotatedAtoms>
  152.5412  134.0608  159.8150 H   0  0  0  0  0  0  0  0  0  0  0  0  # atno 6907 bound_to 6896
  151.0736  133.5439  159.2632 H   0  0  0  0  0  0  0  0  0  0  0  0  # atno 6908 bound_to 6896
  151.2292  135.0556  159.9035 H   0  0  0  0  0  0  0  0  0  0  0  0  # atno 6909 bound_to 6896
  146.1999  140.3601  142.8427 H   0  0  0  0  0  0  0  0  0  0  0  0  # atno 7974 bound_to 7965
  156.1603  140.3142  155.8795 H   0  0  0  0  0  0  0  0  0  0  0  0  # atno 8008 bound_to 7997
  155.3796  140.0487  157.3061 H   0  0  0  0  0  0  0  0  0  0  0  0  # atno 8009 bound_to 7997
  154.5140  140.2174  155.9113 H   0  0  0  0  0  0  0  0  0  0  0  0  # atno 8010 bound_to 7997
  140.2610  143.3407  152.0625 H   0  0  0  0  0  0  0  0  0  0  0  0  # atno 10167 bound_to 10162
  157.3180  130.7433  149.6767 H   0  0  0  0  0  0  0  0  0  0  0  0  # atno 10718 bound_to 10713
  153.0745  135.4941  154.8376 H   0  0  0  0  0  0  0  0  0  0  0  0  # atno 10763 bound_to 10752
  154.7069  135.3012  154.9259 H   0  0  0  0  0  0  0  0  0  0  0  0  # atno 10764 bound_to 10752
  153.9965  135.6771  153.4810 H   0  0  0  0  0  0  0  0  0  0  0  0  # atno 10765 bound_to 10752
  139.9923  134.6572  156.0069 H   0  0  0  0  0  0  0  0  0  0  0  0  # atno 11005 bound_to 11000
  144.8659  140.7206  143.6077 LP  0  0  0  0  0  0  0  0  0  0  0  0  # atno 17320 bound_to 7965
  145.3520  139.1703  143.4429 LP  0  0  0  0  0  0  0  0  0  0  0  0  # atno 17321 bound_to 7965
  139.5017  144.6718  151.6223 LP  0  0  0  0  0  0  0  0  0  0  0  0  # atno 17342 bound_to 10162
  140.5965  143.9686  150.6358 LP  0  0  0  0  0  0  0  0  0  0  0  0  # atno 17343 bound_to 10162
  155.9683  130.4231  150.4549 LP  0  0  0  0  0  0  0  0  0  0  0  0  # atno 17370 bound_to 10713
  157.2559  131.0556  151.2350 LP  0  0  0  0  0  0  0  0  0  0  0  0  # atno 17371 bound_to 10713
  141.1576  133.6541  156.4212 LP  0  0  0  0  0  0  0  0  0  0  0  0  # atno 17394 bound_to 11000
  140.4884  134.6598  157.5200 LP  0  0  0  0  0  0  0  0  0  0  0  0  # atno 17395 bound_to 11000

$$$$
