AV-unprocessed.smi:1803|AV-procd|sdf|7282|dock1
  -GOLD-   22720 8543D 1   1.00000     0.00000
 Structure written by MMmdl.
 36 38  0  0  0  0  0  0  0  0  2 V2000
  146.0112  138.2523  154.3635 O   0  0  0  0  0  0  0  0  0  0  0  0
  146.8374  137.5859  153.7429 C   0  0  0  0  0  0  0  0  0  0  0  0
  148.0992  138.0293  153.5615 N   0  0  0  0  0  0  0  0  0  0  0  0
  148.7396  139.2313  153.9825 C   0  0  0  0  0  0  0  0  0  0  0  0
  149.9957  139.2943  154.4545 N   0  0  0  0  0  0  0  0  0  0  0  0
  150.3543  140.5857  154.8156 N   0  0  0  0  0  0  0  0  0  0  0  0
  149.3524  141.4461  154.6149 C   0  0  0  0  0  0  0  0  0  0  0  0
  147.8731  140.7612  153.9649 S   0  0  0  0  0  0  0  0  0  0  0  0
  146.5510  136.3874  153.2074 N   0  0  0  0  0  0  0  0  0  0  0  0
  145.2754  135.6837  153.3145 C   0  0  1  0  0  0  0  0  0  0  0  0
  144.0980  136.4983  152.7438 C   0  0  0  0  0  0  0  0  0  0  0  0
  143.2685  135.4842  151.9496 C   0  0  0  0  0  0  0  0  0  0  0  0
  144.2827  134.5483  151.4508 N   0  3  2  0  0  0  0  0  0  0  0  0
  143.8320  133.2819  150.8386 C   0  0  0  0  0  0  0  0  0  0  0  0
  145.0603  132.5629  150.2408 C   0  0  0  0  0  0  0  0  0  0  0  0
  146.2012  132.4011  151.2708 C   0  0  0  0  0  0  0  0  0  0  0  0
  146.5391  133.7378  151.9651 C   0  0  0  0  0  0  0  0  0  0  0  0
  145.2470  134.3421  152.5451 C   0  0  1  0  0  0  0  0  0  0  0  0
  148.6625  137.4504  152.9554 H   0  0  0  0  0  0  0  0  0  0  0  0
  149.4841  142.4907  154.8556 H   0  0  0  0  0  0  0  0  0  0  0  0
  147.2896  135.9138  152.7069 H   0  0  0  0  0  0  0  0  0  0  0  0
  145.0656  135.4810  154.3668 H   0  0  0  0  0  0  0  0  0  0  0  0
  143.5152  136.9947  153.5203 H   0  0  0  0  0  0  0  0  0  0  0  0
  144.4646  137.2703  152.0652 H   0  0  0  0  0  0  0  0  0  0  0  0
  142.5722  134.9593  152.6057 H   0  0  0  0  0  0  0  0  0  0  0  0
  142.7028  135.9443  151.1391 H   0  0  0  0  0  0  0  0  0  0  0  0
  143.3408  132.6570  151.5858 H   0  0  0  0  0  0  0  0  0  0  0  0
  143.0999  133.4896  150.0576 H   0  0  0  0  0  0  0  0  0  0  0  0
  144.7687  131.5879  149.8494 H   0  0  0  0  0  0  0  0  0  0  0  0
  145.4300  133.1356  149.3891 H   0  0  0  0  0  0  0  0  0  0  0  0
  145.9027  131.6702  152.0237 H   0  0  0  0  0  0  0  0  0  0  0  0
  147.0898  131.9956  150.7860 H   0  0  0  0  0  0  0  0  0  0  0  0
  147.2711  133.5683  152.7553 H   0  0  0  0  0  0  0  0  0  0  0  0
  146.9947  134.4251  151.2505 H   0  0  0  0  0  0  0  0  0  0  0  0
  144.8134  133.6083  153.2283 H   0  0  0  0  0  0  0  0  0  0  0  0
  144.7819  135.0522  150.7319 H   0  0  0  0  0  0  0  0  0  0  0  0
  1  2  2  0  0  0  0
  2  3  1  0  0  0  0
  2  9  1  0  0  0  0
  3  4  1  0  0  0  0
  3 19  1  0  0  0  0
  4  8  1  0  0  0  0
  4  5  2  0  0  0  0
  5  6  1  0  0  0  0
  6  7  2  0  0  0  0
  7  8  1  0  0  0  0
  7 20  1  0  0  0  0
  9 10  1  0  0  0  0
  9 21  1  0  0  0  0
 10 18  1  0  0  0  0
 10 11  1  0  0  0  0
 10 22  1  0  0  0  0
 11 12  1  0  0  0  0
 11 23  1  0  0  0  0
 11 24  1  0  0  0  0
 12 13  1  0  0  0  0
 12 25  1  0  0  0  0
 12 26  1  0  0  0  0
 13 18  1  0  0  0  0
 13 14  1  0  0  0  0
 13 36  1  0  0  0  0
 14 15  1  0  0  0  0
 14 27  1  0  0  0  0
 14 28  1  0  0  0  0
 15 16  1  0  0  0  0
 15 29  1  0  0  0  0
 15 30  1  0  0  0  0
 16 17  1  0  0  0  0
 16 31  1  0  0  0  0
 16 32  1  0  0  0  0
 17 18  1  0  0  0  0
 17 33  1  0  0  0  0
 17 34  1  0  0  0  0
 18 35  1  0  0  0  0
M  CHG  1  13   1
M  END
> <s_m_source_file>
AV-unprocessed.smi

> <i_m_source_file_index>
1803

> <i_lp_mmshare_version>
43012

> <i_f3d_flags>
0

> <s_epik_input>
czFbY0hdbm5jMVtOSF1DKD1PKVtOSF1bQ0BIXShbQ0gyXVtDSDJdMilbQ0BASF0oTjIzKVtDSDJdW0NIMl1bQ0gyXVtDSDJdMw==

> <s_epik_cmdline>
J2VwaWtfcHl0aG9uJywgJy1waCcsICc3LjAnLCAnLXRuJywgJzgnLCAnLW1hJywgJzIwMCcsICctbWV0YWxfYmluZGluZycsICctaW1hZScsICc8aW5maWxlLm1hZT4nLCAnLW9tYWUnLCAnPG91dGZpbGUubWFlPic=

> <r_lp_tautomer_probability>
1

> <r_epik_Ionization_Penalty>
0.00213286

> <r_epik_Ionization_Penalty_Charging>
0.00107044

> <r_epik_Ionization_Penalty_Neutral>
0.00106242

> <r_epik_State_Penalty>
-0

> <r_epik_Charging_Adjusted_Penalty>
0.00107044

> <i_epik_Tot_Q>
1

> <i_epik_Tot_abs_Q>
1

> <r_epik_Metal_State_Penalty>
0.292783

> <b_epik_Metal_Only>
0

> <s_lp_Force_Field>
OPLS_2005

> <r_lp_Energy>
42.6804

> <b_lp_Chiralities_Consistent>
1

> <s_lp_Variant>
AV-unprocessed.smi:1803-4

> <Gold.Version>
5.8.1

> <Gold.Id.Protein>
6NUR|6NUR_protein|mol2

> <Gold.PLP.Fitness>
36.6469

> <Gold.PLP.PLP>
-25.8881

> <Gold.PLP.part.hbond>
-3.0000

> <Gold.PLP.part.metal>
0.0000

> <Gold.PLP.part.buried>
-3.9034

> <Gold.PLP.part.nonpolar>
-19.4597

> <Gold.PLP.part.repulsive>
0.3464

> <Gold.PLP.ligand.clash>
0.0000

> <Gold.PLP.ligand.torsion>
0.3071

> <Gold.PLP.Chemscore.Hbond>
2.7904

> <Gold.PLP.Chemscore.CHOScore>
1.0000

> <Gold.PLP.Chemscore.Metal>
0.0000

> <Gold.Chemscore.Hbonds>
donor molecule, donor type, donor heavy atom, donor atom, acceptor molecule, acceptor atom, score
      L1  H     3    19       P1  7948  1.00
      L1  H     9    21       P1  7948  0.85
      P1  H  7989  7998       L1     6  0.85
      L1  C     7    20       P1  8028  1.00

> <Gold.PLP.Chemscore.Internal.Correction>
0.0017

> <Gold.Rescore>
     Score         DG    S(hbond)    S(metal)    S(lipo)     H(rot)  DE(clash)    DE(int)     intcor
     16.05     -16.35       1.93        0.00      59.62       1.00       0.01       0.28       ----

> <Gold.Chemscore.Fitness>
16.0518

> <Gold.Chemscore.DG>
-16.3457

> <Gold.Chemscore.ZeroCoef>
-5.4800

> <Gold.Chemscore.Hbond>
1.9311

> <Gold.Chemscore.Metal>
0.0000

> <Gold.Chemscore.Lipo>
59.6220

> <Gold.Chemscore.Internal_Hbond>
0.0000

> <Gold.Chemscore.DEClash>
0.0137

> <Gold.Chemscore.DEInternal>
0.2802

> <Gold.Chemscore.Rot>
1.0000

> <Gold.Chemscore.Internal.Correction>
   9.000000E+99

> <Gold.Chemscore.Hbonds>
donor molecule, donor type, donor heavy atom, donor atom, acceptor molecule, acceptor atom, score
      L1  H     3    19       P1  7948  0.99
      L1  H     9    21       P1  7948  0.85
      P1  H  7989  7998       L1     6  0.10

> <Gold.Chemscore.Hbond.Weighted>
-6.4499

> <Gold.Chemscore.Metal.Weighted>
-0.0000

> <Gold.Chemscore.Lipo.Weighted>
-6.9758

> <Gold.Chemscore.Internal_Hbond.Weighted>
0.0000

> <Gold.Chemscore.DEClash.Weighted>
0.0137

> <Gold.Chemscore.DEInternal.Weighted>
0.2802

> <Gold.Chemscore.Rot.Weighted>
2.5600

> <Gold.Chemscore.Internal.Correction.Weighted>
   9.000000E+99

> <Gold.Protein.RotatedTorsions>
[ 6907 6896 6895 6894 ] final   18.95 input  -60.11 | X-H torsion
[ 7974 7965 7964 7962 ] final   89.47 input  175.53 | X-H torsion
[ 8008 7997 7996 7995 ] final   33.68 input   59.86 | X-H torsion
[ 10167 10162 10161 10158 ] final  -91.48 input  -65.29 | X-H torsion
[ 10718 10713 10712 10709 ] final   13.43 input   66.30 | X-H torsion
[ 10763 10752 10751 10750 ] final  122.60 input  -60.55 | X-H torsion
[ 11005 11000 10999 10996 ] final  -52.13 input  -57.11 | X-H torsion

> <Gold.Protein.ActiveResidues>
 VAL166  LYS551  ARG553  GLY616  TRP617  ASP618  TYR619  PRO620  LYS621  CYS622 
 ASP623  PHE694  ASN695  SER759  ASP760  ASP761  ALA762  ILE779  LEU786  VAL792 
 PHE793  MET794  SER795  GLU796  ALA797  LYS798  CYS799  TRP800  GLU811  SER814 

> <Gold.Protein.RotatedAtoms>
  151.8733  135.0481  160.0481 H   0  0  0  0  0  0  0  0  0  0  0  0  # atno 6907 bound_to 6896
  152.2570  133.5260  159.5368 H   0  0  0  0  0  0  0  0  0  0  0  0  # atno 6908 bound_to 6896
  150.7103  134.0798  159.3936 H   0  0  0  0  0  0  0  0  0  0  0  0  # atno 6909 bound_to 6896
  145.5319  139.2284  143.2614 H   0  0  0  0  0  0  0  0  0  0  0  0  # atno 7974 bound_to 7965
  155.1425  140.3267  155.4449 H   0  0  0  0  0  0  0  0  0  0  0  0  # atno 8008 bound_to 7997
  156.2600  140.1991  156.6490 H   0  0  0  0  0  0  0  0  0  0  0  0  # atno 8009 bound_to 7997
  154.6532  140.0556  156.9966 H   0  0  0  0  0  0  0  0  0  0  0  0  # atno 8010 bound_to 7997
  140.3445  143.2924  151.9798 H   0  0  0  0  0  0  0  0  0  0  0  0  # atno 10167 bound_to 10162
  157.0245  130.6168  149.5726 H   0  0  0  0  0  0  0  0  0  0  0  0  # atno 10718 bound_to 10713
  153.6323  135.3394  155.3045 H   0  0  0  0  0  0  0  0  0  0  0  0  # atno 10763 bound_to 10752
  154.8577  135.4298  154.2092 H   0  0  0  0  0  0  0  0  0  0  0  0  # atno 10764 bound_to 10752
  153.2991  135.7023  153.7293 H   0  0  0  0  0  0  0  0  0  0  0  0  # atno 10765 bound_to 10752
  141.0908  133.6633  156.3979 H   0  0  0  0  0  0  0  0  0  0  0  0  # atno 11005 bound_to 11000
  146.2038  140.6136  142.9090 LP  0  0  0  0  0  0  0  0  0  0  0  0  # atno 17320 bound_to 7965
  144.7621  140.5447  143.6728 LP  0  0  0  0  0  0  0  0  0  0  0  0  # atno 17321 bound_to 7965
  139.4835  144.6129  151.7400 LP  0  0  0  0  0  0  0  0  0  0  0  0  # atno 17342 bound_to 10162
  140.5278  144.0778  150.6043 LP  0  0  0  0  0  0  0  0  0  0  0  0  # atno 17343 bound_to 10162
  156.0091  130.5181  150.7928 LP  0  0  0  0  0  0  0  0  0  0  0  0  # atno 17370 bound_to 10713
  157.5225  131.0932  151.0060 LP  0  0  0  0  0  0  0  0  0  0  0  0  # atno 17371 bound_to 10713
  140.5256  134.6262  157.5333 LP  0  0  0  0  0  0  0  0  0  0  0  0  # atno 17394 bound_to 11000
  139.9734  134.7256  155.9997 LP  0  0  0  0  0  0  0  0  0  0  0  0  # atno 17395 bound_to 11000

$$$$
