AV-unprocessed.smi:36|AV-procd|sdf|302|dock3
  -GOLD-   2262016103D 1   1.00000     0.00000
 Structure written by MMmdl.
 63 66  0  0  0  0  0  0  0  0  2 V2000
  148.1735  136.2447  160.5592 C   0  0  0  0  0  0  0  0  0  0  0  0
  146.7870  136.2099  161.2227 C   0  0  0  0  0  0  0  0  0  0  0  0
  146.8492  136.8841  162.6035 C   0  0  0  0  0  0  0  0  0  0  0  0
  145.7656  136.9402  160.3354 C   0  0  0  0  0  0  0  0  0  0  0  0
  146.2346  134.3946  161.4437 Si  0  0  0  0  0  0  0  0  0  0  0  0
  147.4622  133.4284  162.5251 C   0  0  0  0  0  0  0  0  0  0  0  0
  144.4942  134.2973  162.2002 C   0  0  0  0  0  0  0  0  0  0  0  0
  146.1949  133.6746  159.9136 O   0  0  0  0  0  0  0  0  0  0  0  0
  147.3517  133.2987  159.1967 C   0  0  0  0  0  0  0  0  0  0  0  0
  147.7172  134.4117  158.2068 C   0  0  1  0  0  0  0  0  0  0  0  0
  149.1254  134.6235  158.2115 O   0  0  0  0  0  0  0  0  0  0  0  0
  149.5415  135.1042  156.9663 C   0  0  2  0  0  0  0  0  0  0  0  0
  150.0180  136.5097  157.1399 N   0  0  0  0  0  0  0  0  0  0  0  0
  150.2925  137.1711  158.2832 C   0  0  0  0  0  0  0  0  0  0  0  0
  150.7058  138.4322  158.1778 N   0  0  0  0  0  0  0  0  0  0  0  0
  150.6991  138.6152  156.8027 C   0  0  0  0  0  0  0  0  0  0  0  0
  151.0246  139.7306  155.9832 C   0  0  0  0  0  0  0  0  0  0  0  0
  151.4447  140.9006  156.4884 N   0  5  0  0  0  0  0  0  0  0  0  0
  152.1483  140.9230  157.6486 C   0  0  0  0  0  0  0  0  0  0  0  0
  152.7987  140.0072  158.1570 O   0  0  0  0  0  0  0  0  0  0  0  0
  152.0365  142.2297  158.3874 C   0  0  0  0  0  0  0  0  0  0  0  0
  152.4353  142.3053  159.7415 C   0  0  0  0  0  0  0  0  0  0  0  0
  152.3677  143.5259  160.4410 C   0  0  0  0  0  0  0  0  0  0  0  0
  151.9089  144.6869  159.7912 C   0  0  0  0  0  0  0  0  0  0  0  0
  151.5211  144.6270  158.4397 C   0  0  0  0  0  0  0  0  0  0  0  0
  151.5886  143.4068  157.7393 C   0  0  0  0  0  0  0  0  0  0  0  0
  150.9135  139.5601  154.6409 N   0  0  0  0  0  0  0  0  0  0  0  0
  150.4990  138.3903  154.1394 C   0  0  0  0  0  0  0  0  0  0  0  0
  150.1548  137.2721  154.7868 N   0  0  0  0  0  0  0  0  0  0  0  0
  150.2738  137.4289  156.1374 C   0  0  0  0  0  0  0  0  0  0  0  0
  148.3283  135.0683  156.0297 C   0  0  0  0  0  0  0  0  0  0  0  0
  147.4149  134.0911  156.7424 C   0  0  2  0  0  0  0  0  0  0  0  0
  146.0619  134.3189  156.4036 O   0  0  0  0  0  0  0  0  0  0  0  0
  148.5185  137.2696  160.4182 H   0  0  0  0  0  0  0  0  0  0  0  0
  148.1568  135.7665  159.5795 H   0  0  0  0  0  0  0  0  0  0  0  0
  148.9182  135.7281  161.1652 H   0  0  0  0  0  0  0  0  0  0  0  0
  147.5756  136.3951  163.2529 H   0  0  0  0  0  0  0  0  0  0  0  0
  145.8819  136.8460  163.1060 H   0  0  0  0  0  0  0  0  0  0  0  0
  147.1368  137.9326  162.5208 H   0  0  0  0  0  0  0  0  0  0  0  0
  146.0361  137.9881  160.1995 H   0  0  0  0  0  0  0  0  0  0  0  0
  144.7678  136.9114  160.7743 H   0  0  0  0  0  0  0  0  0  0  0  0
  145.7032  136.4874  159.3456 H   0  0  0  0  0  0  0  0  0  0  0  0
  147.5583  133.8703  163.5165 H   0  0  0  0  0  0  0  0  0  0  0  0
  148.4567  133.4062  162.0801 H   0  0  0  0  0  0  0  0  0  0  0  0
  147.1457  132.3945  162.6604 H   0  0  0  0  0  0  0  0  0  0  0  0
  144.4540  134.7804  163.1760 H   0  0  0  0  0  0  0  0  0  0  0  0
  144.1746  133.2649  162.3378 H   0  0  0  0  0  0  0  0  0  0  0  0
  143.7537  134.7834  161.5656 H   0  0  0  0  0  0  0  0  0  0  0  0
  148.1648  133.1507  159.9078 H   0  0  0  0  0  0  0  0  0  0  0  0
  147.1946  132.3512  158.6805 H   0  0  0  0  0  0  0  0  0  0  0  0
  147.2389  135.3485  158.4985 H   0  0  0  0  0  0  0  0  0  0  0  0
  150.4012  134.5384  156.6058 H   0  0  0  0  0  0  0  0  0  0  0  0
  150.1826  136.7021  159.2496 H   0  0  0  0  0  0  0  0  0  0  0  0
  152.7926  141.4237  160.2540 H   0  0  0  0  0  0  0  0  0  0  0  0
  152.6708  143.5708  161.4764 H   0  0  0  0  0  0  0  0  0  0  0  0
  151.8590  145.6231  160.3269 H   0  0  0  0  0  0  0  0  0  0  0  0
  151.1752  145.5183  157.9373 H   0  0  0  0  0  0  0  0  0  0  0  0
  151.2977  143.3851  156.6988 H   0  0  0  0  0  0  0  0  0  0  0  0
  150.4351  138.3432  153.0625 H   0  0  0  0  0  0  0  0  0  0  0  0
  147.8723  136.0588  155.9727 H   0  0  0  0  0  0  0  0  0  0  0  0
  148.6136  134.7516  155.0261 H   0  0  0  0  0  0  0  0  0  0  0  0
  147.6979  133.0654  156.5017 H   0  0  0  0  0  0  0  0  0  0  0  0
  145.9168  134.0085  155.5229 H   0  0  0  0  0  0  0  0  0  0  0  0
  1  2  1  0  0  0  0
  1 34  1  0  0  0  0
  1 35  1  0  0  0  0
  1 36  1  0  0  0  0
  2  3  1  0  0  0  0
  2  4  1  0  0  0  0
  2  5  1  0  0  0  0
  3 37  1  0  0  0  0
  3 38  1  0  0  0  0
  3 39  1  0  0  0  0
  4 40  1  0  0  0  0
  4 41  1  0  0  0  0
  4 42  1  0  0  0  0
  5  6  1  0  0  0  0
  5  7  1  0  0  0  0
  5  8  1  0  0  0  0
  6 43  1  0  0  0  0
  6 44  1  0  0  0  0
  6 45  1  0  0  0  0
  7 46  1  0  0  0  0
  7 47  1  0  0  0  0
  7 48  1  0  0  0  0
  8  9  1  0  0  0  0
  9 10  1  0  0  0  0
  9 49  1  0  0  0  0
  9 50  1  0  0  0  0
 10 32  1  0  0  0  0
 10 11  1  0  0  0  0
 10 51  1  0  0  0  0
 11 12  1  0  0  0  0
 12 13  1  0  0  0  0
 12 31  1  0  0  0  0
 12 52  1  0  0  0  0
 13 30  1  0  0  0  0
 13 14  1  0  0  0  0
 14 15  2  0  0  0  0
 14 53  1  0  0  0  0
 15 16  1  0  0  0  0
 16 30  2  0  0  0  0
 16 17  1  0  0  0  0
 17 18  1  0  0  0  0
 17 27  2  0  0  0  0
 18 19  1  0  0  0  0
 19 20  2  0  0  0  0
 19 21  1  0  0  0  0
 21 26  1  0  0  0  0
 21 22  2  0  0  0  0
 22 23  1  0  0  0  0
 22 54  1  0  0  0  0
 23 24  2  0  0  0  0
 23 55  1  0  0  0  0
 24 25  1  0  0  0  0
 24 56  1  0  0  0  0
 25 26  2  0  0  0  0
 25 57  1  0  0  0  0
 26 58  1  0  0  0  0
 27 28  1  0  0  0  0
 28 29  2  0  0  0  0
 28 59  1  0  0  0  0
 29 30  1  0  0  0  0
 31 32  1  0  0  0  0
 31 60  1  0  0  0  0
 31 61  1  0  0  0  0
 32 33  1  0  0  0  0
 32 62  1  0  0  0  0
 33 63  1  0  0  0  0
M  CHG  1  18  -1
M  END
> <s_m_source_file>
AV-unprocessed.smi

> <i_m_source_file_index>
36

> <i_lp_mmshare_version>
43012

> <i_f3d_flags>
0

> <s_epik_input>
W0NIM11DKFtDSDNdKShbQ0gzXSlbU2ldKFtDSDNdKShbQ0gzXSlPW0NIMl1bQ0BASF0xT1tDQEhdKFtDSDJdW0NASF0xW09IXSluKFtjSF1uMiljKGMyMyluW2NIXW5jM1tOSF1DKD1PKWM0W2NIXVtjSF1bY0hdW2NIXVtjSF00

> <s_epik_cmdline>
J2VwaWtfcHl0aG9uJywgJy1waCcsICc3LjAnLCAnLXRuJywgJzgnLCAnLW1hJywgJzIwMCcsICctbWV0YWxfYmluZGluZycsICctaW1hZScsICc8aW5maWxlLm1hZT4nLCAnLW9tYWUnLCAnPG91dGZpbGUubWFlPic=

> <r_lp_tautomer_probability>
1

> <r_epik_Ionization_Penalty>
4.75685

> <r_epik_Ionization_Penalty_Charging>
3.55822

> <r_epik_Ionization_Penalty_Neutral>
1.19863

> <r_epik_State_Penalty>
3.564

> <r_epik_Charging_Adjusted_Penalty>
7.12222

> <i_epik_Tot_Q>
-1

> <i_epik_Tot_abs_Q>
1

> <r_epik_Metal_State_Penalty>
0.523258

> <b_epik_Metal_Only>
1

> <s_epik_Chemistry_Notes>
This compound contains an acetal/aminal-like group ( X-CH(R)-Y where X, Y are N, S, or O) that may be acid/base labile, releasing an aldehyde.

> <s_lp_Force_Field>
OPLS_2005

> <r_lp_Energy>
39.042

> <b_lp_Chiralities_Consistent>
1

> <s_lp_Variant>
AV-unprocessed.smi:36-24

> <Gold.Version>
5.8.1

> <Gold.Id.Protein>
6NUR|6NUR_protein|mol2

> <Gold.PLP.Fitness>
60.6758

> <Gold.PLP.PLP>
-50.1050

> <Gold.PLP.part.hbond>
-3.0000

> <Gold.PLP.part.metal>
0.0000

> <Gold.PLP.part.buried>
-8.0777

> <Gold.PLP.part.nonpolar>
-39.8122

> <Gold.PLP.part.repulsive>
0.2967

> <Gold.PLP.ligand.clash>
0.0000

> <Gold.PLP.ligand.torsion>
1.7093

> <Gold.PLP.Chemscore.Hbond>
3.0000

> <Gold.PLP.Chemscore.CHOScore>
1.4795

> <Gold.PLP.Chemscore.Metal>
0.0000

> <Gold.Chemscore.Hbonds>
donor molecule, donor type, donor heavy atom, donor atom, acceptor molecule, acceptor atom, score
      P1  H  6896  6909       L1    11  1.00
      P1  H  7989  7998       L1    27  1.00
      P1  H  7997  8010       L1    20  0.72
      L1  C    28    59       P1  7948  0.23
      L1  C    28    59       P1  7949  0.02
      L1  C    28    59       P1  7957  0.68

> <Gold.PLP.Chemscore.Internal.Correction>
0.5510

> <Gold.Rescore>
     Score         DG    S(hbond)    S(metal)    S(lipo)     H(rot)  DE(clash)    DE(int)     intcor
     15.33     -21.21       2.67        0.00     116.63       2.67       0.13       5.75       ----

> <Gold.Chemscore.Fitness>
15.3329

> <Gold.Chemscore.DG>
-21.2103

> <Gold.Chemscore.ZeroCoef>
-5.4800

> <Gold.Chemscore.Hbond>
2.6707

> <Gold.Chemscore.Metal>
0.0000

> <Gold.Chemscore.Lipo>
116.6318

> <Gold.Chemscore.Internal_Hbond>
0.0000

> <Gold.Chemscore.DEClash>
0.1304

> <Gold.Chemscore.DEInternal>
5.7470

> <Gold.Chemscore.Rot>
2.6702

> <Gold.Chemscore.Internal.Correction>
   9.000000E+99

> <Gold.Chemscore.Hbonds>
donor molecule, donor type, donor heavy atom, donor atom, acceptor molecule, acceptor atom, score
      P1  H  6896  6909       L1    11  0.78
      P1  H  7989  7998       L1    27  0.95
      P1  H  7997  8010       L1    20  0.14

> <Gold.Chemscore.Hbond.Weighted>
-8.9201

> <Gold.Chemscore.Metal.Weighted>
-0.0000

> <Gold.Chemscore.Lipo.Weighted>
-13.6459

> <Gold.Chemscore.Internal_Hbond.Weighted>
0.0000

> <Gold.Chemscore.DEClash.Weighted>
0.1304

> <Gold.Chemscore.DEInternal.Weighted>
5.7470

> <Gold.Chemscore.Rot.Weighted>
6.8358

> <Gold.Chemscore.Internal.Correction.Weighted>
   9.000000E+99

> <Gold.Protein.RotatedTorsions>
[ 6907 6896 6895 6894 ] final   43.98 input  -60.11 | X-H torsion
[ 7974 7965 7964 7962 ] final -128.18 input  175.53 | X-H torsion
[ 8008 7997 7996 7995 ] final   46.21 input   59.86 | X-H torsion
[ 10167 10162 10161 10158 ] final -108.68 input  -65.29 | X-H torsion
[ 10718 10713 10712 10709 ] final   23.36 input   66.30 | X-H torsion
[ 10763 10752 10751 10750 ] final  178.17 input  -60.55 | X-H torsion
[ 11005 11000 10999 10996 ] final  -59.22 input  -57.11 | X-H torsion

> <Gold.Protein.ActiveResidues>
 VAL166  LYS551  ARG553  GLY616  TRP617  ASP618  TYR619  PRO620  LYS621  CYS622 
 ASP623  PHE694  ASN695  SER759  ASP760  ASP761  ALA762  ILE779  LEU786  VAL792 
 PHE793  MET794  SER795  GLU796  ALA797  LYS798  CYS799  TRP800  GLU811  SER814 

> <Gold.Protein.RotatedAtoms>
  152.2270  134.8359  160.0478 H   0  0  0  0  0  0  0  0  0  0  0  0  # atno 6907 bound_to 6896
  151.9121  133.3559  159.3875 H   0  0  0  0  0  0  0  0  0  0  0  0  # atno 6908 bound_to 6896
  150.7015  134.4646  159.5441 H   0  0  0  0  0  0  0  0  0  0  0  0  # atno 6909 bound_to 6896
  144.9696  140.7532  143.4678 H   0  0  0  0  0  0  0  0  0  0  0  0  # atno 7974 bound_to 7965
  155.3487  140.3412  155.4239 H   0  0  0  0  0  0  0  0  0  0  0  0  # atno 8008 bound_to 7997
  156.1775  140.1652  156.8371 H   0  0  0  0  0  0  0  0  0  0  0  0  # atno 8009 bound_to 7997
  154.5298  140.0748  156.8306 H   0  0  0  0  0  0  0  0  0  0  0  0  # atno 8010 bound_to 7997
  140.1635  143.4101  152.1408 H   0  0  0  0  0  0  0  0  0  0  0  0  # atno 10167 bound_to 10162
  157.1650  130.6734  149.6057 H   0  0  0  0  0  0  0  0  0  0  0  0  # atno 10718 bound_to 10713
  154.5041  135.2785  155.1396 H   0  0  0  0  0  0  0  0  0  0  0  0  # atno 10763 bound_to 10752
  154.3018  135.6246  153.5431 H   0  0  0  0  0  0  0  0  0  0  0  0  # atno 10764 bound_to 10752
  152.9907  135.5698  154.5491 H   0  0  0  0  0  0  0  0  0  0  0  0  # atno 10765 bound_to 10752
  141.1239  133.6615  156.5038 H   0  0  0  0  0  0  0  0  0  0  0  0  # atno 11005 bound_to 11000
  145.2578  139.2005  143.4908 LP  0  0  0  0  0  0  0  0  0  0  0  0  # atno 17320 bound_to 7965
  146.3378  140.2503  142.8598 LP  0  0  0  0  0  0  0  0  0  0  0  0  # atno 17321 bound_to 7965
  139.5370  144.7219  151.4860 LP  0  0  0  0  0  0  0  0  0  0  0  0  # atno 17342 bound_to 10162
  140.6628  143.8463  150.6907 LP  0  0  0  0  0  0  0  0  0  0  0  0  # atno 17343 bound_to 10162
  155.9747  130.4699  150.6410 LP  0  0  0  0  0  0  0  0  0  0  0  0  # atno 17370 bound_to 10713
  157.4097  131.0822  151.1232 LP  0  0  0  0  0  0  0  0  0  0  0  0  # atno 17371 bound_to 10713
  140.4424  134.7003  157.4998 LP  0  0  0  0  0  0  0  0  0  0  0  0  # atno 17394 bound_to 11000
  140.0220  134.6533  155.9226 LP  0  0  0  0  0  0  0  0  0  0  0  0  # atno 17395 bound_to 11000

$$$$
