AV-unprocessed.smi:1203|AV-procd|sdf|5036|dock2
  -GOLD-   22720 4 63D 1   1.00000     0.00000
 Structure written by MMmdl.
 40 41  0  0  0  0  0  0  0  0  2 V2000
  151.2852  138.0506  153.6289 C   0  0  0  0  0  0  0  0  0  0  0  0
  149.8823  138.0093  154.8195 S   0  0  0  0  0  0  0  0  0  0  0  0
  149.2012  136.7141  154.6730 O   0  0  0  0  0  0  0  0  0  0  0  0
  150.3690  138.4406  156.1391 O   0  0  0  0  0  0  0  0  0  0  0  0
  148.8091  139.2310  154.2151 N   0  0  0  0  0  0  0  0  0  0  0  0
  148.8592  140.6152  154.6790 C   0  0  0  0  0  0  0  0  0  0  0  0
  147.9309  141.3628  153.7260 C   0  0  0  0  0  0  0  0  0  0  0  0
  146.8782  140.3243  153.3474 C   0  0  0  0  0  0  0  0  0  0  0  0
  147.6225  138.9722  153.3811 C   0  0  2  0  0  0  0  0  0  0  0  0
  146.7153  137.8304  153.8627 C   0  0  0  0  0  0  0  0  0  0  0  0
  146.0609  137.9469  154.8995 O   0  0  0  0  0  0  0  0  0  0  0  0
  146.6853  136.7291  153.0954 N   0  0  0  0  0  0  0  0  0  0  0  0
  145.8839  135.5349  153.3520 C   0  0  0  0  0  0  0  0  0  0  0  0
  146.4753  134.2765  152.6865 C   0  0  0  0  0  0  0  0  0  0  0  0
  145.5077  133.5664  151.7550 C   0  0  0  0  0  0  0  0  0  0  0  0
  145.9011  132.3960  151.0692 C   0  0  0  0  0  0  0  0  0  0  0  0
  144.9732  131.7380  150.2353 C   0  0  0  0  0  0  0  0  0  0  0  0
  143.6731  132.2672  150.1038 C   0  0  0  0  0  0  0  0  0  0  0  0
  143.3337  133.3915  150.7718 N   0  3  0  0  0  0  0  0  0  0  0  0
  144.1928  134.0506  151.5797 C   0  0  0  0  0  0  0  0  0  0  0  0
  151.9904  137.2583  153.8784 H   0  0  0  0  0  0  0  0  0  0  0  0
  151.7968  139.0096  153.6834 H   0  0  0  0  0  0  0  0  0  0  0  0
  150.9114  137.8929  152.6176 H   0  0  0  0  0  0  0  0  0  0  0  0
  148.4920  140.6615  155.7047 H   0  0  0  0  0  0  0  0  0  0  0  0
  149.8772  141.0046  154.6526 H   0  0  0  0  0  0  0  0  0  0  0  0
  147.5007  142.2597  154.1721 H   0  0  0  0  0  0  0  0  0  0  0  0
  148.4856  141.6642  152.8363 H   0  0  0  0  0  0  0  0  0  0  0  0
  146.0650  140.3651  154.0740 H   0  0  0  0  0  0  0  0  0  0  0  0
  146.4451  140.5287  152.3679 H   0  0  0  0  0  0  0  0  0  0  0  0
  147.9811  138.7444  152.3760 H   0  0  0  0  0  0  0  0  0  0  0  0
  147.2712  136.7136  152.2728 H   0  0  0  0  0  0  0  0  0  0  0  0
  145.8374  135.3867  154.4310 H   0  0  0  0  0  0  0  0  0  0  0  0
  144.8541  135.6869  153.0245 H   0  0  0  0  0  0  0  0  0  0  0  0
  147.3740  134.5457  152.1297 H   0  0  0  0  0  0  0  0  0  0  0  0
  146.7971  133.5736  153.4558 H   0  0  0  0  0  0  0  0  0  0  0  0
  146.8988  131.9992  151.1894 H   0  0  0  0  0  0  0  0  0  0  0  0
  145.2541  130.8386  149.7071 H   0  0  0  0  0  0  0  0  0  0  0  0
  142.9005  131.8287  149.4892 H   0  0  0  0  0  0  0  0  0  0  0  0
  143.8006  134.9319  152.0664 H   0  0  0  0  0  0  0  0  0  0  0  0
  142.3877  133.7577  150.6625 H   0  0  0  0  0  0  0  0  0  0  0  0
  1  2  1  0  0  0  0
  1 21  1  0  0  0  0
  1 22  1  0  0  0  0
  1 23  1  0  0  0  0
  2  3  2  0  0  0  0
  2  4  2  0  0  0  0
  2  5  1  0  0  0  0
  5  9  1  0  0  0  0
  5  6  1  0  0  0  0
  6  7  1  0  0  0  0
  6 24  1  0  0  0  0
  6 25  1  0  0  0  0
  7  8  1  0  0  0  0
  7 26  1  0  0  0  0
  7 27  1  0  0  0  0
  8  9  1  0  0  0  0
  8 28  1  0  0  0  0
  8 29  1  0  0  0  0
  9 10  1  0  0  0  0
  9 30  1  0  0  0  0
 10 11  2  0  0  0  0
 10 12  1  0  0  0  0
 12 13  1  0  0  0  0
 12 31  1  0  0  0  0
 13 14  1  0  0  0  0
 13 32  1  0  0  0  0
 13 33  1  0  0  0  0
 14 15  1  0  0  0  0
 14 34  1  0  0  0  0
 14 35  1  0  0  0  0
 15 20  1  0  0  0  0
 15 16  2  0  0  0  0
 16 17  1  0  0  0  0
 16 36  1  0  0  0  0
 17 18  2  0  0  0  0
 17 37  1  0  0  0  0
 18 19  1  0  0  0  0
 18 38  1  0  0  0  0
 19 20  2  0  0  0  0
 19 40  1  0  0  0  0
 20 39  1  0  0  0  0
M  CHG  1  19   1
M  END
> <s_m_source_file>
AV-unprocessed.smi

> <i_m_source_file_index>
1203

> <i_lp_mmshare_version>
43012

> <i_f3d_flags>
0

> <s_epik_input>
W0NIM11TKD1PKSg9TylOMVtDSDJdW0NIMl1bQ0gyXVtDQEhdMUMoPU8pW05IXVtDSDJdW0NIMl1jMltjSF1bY0hdW2NIXW5bY0hdMg==

> <s_epik_cmdline>
J2VwaWtfcHl0aG9uJywgJy1waCcsICc3LjAnLCAnLXRuJywgJzgnLCAnLW1hJywgJzIwMCcsICctbWV0YWxfYmluZGluZycsICctaW1hZScsICc8aW5maWxlLm1hZT4nLCAnLW9tYWUnLCAnPG91dGZpbGUubWFlPic=

> <r_epik_Ionization_Penalty>
2.2835

> <r_epik_Ionization_Penalty_Charging>
2.2835

> <r_epik_Ionization_Penalty_Neutral>
1.4017e-07

> <r_epik_State_Penalty>
2.43297

> <r_epik_Charging_Adjusted_Penalty>
4.71647

> <i_epik_Tot_Q>
1

> <i_epik_Tot_abs_Q>
1

> <r_epik_Metal_State_Penalty>
2.44558

> <b_epik_Metal_Only>
0

> <s_lp_Force_Field>
OPLS_2005

> <r_lp_Energy>
15.5637

> <b_lp_Chiralities_Consistent>
1

> <s_lp_Variant>
AV-unprocessed.smi:1203-4

> <Gold.Version>
5.8.1

> <Gold.Id.Protein>
6NUR|6NUR_protein|mol2

> <Gold.PLP.Fitness>
41.4754

> <Gold.PLP.PLP>
-33.7983

> <Gold.PLP.part.hbond>
-2.0000

> <Gold.PLP.part.metal>
0.0000

> <Gold.PLP.part.buried>
-3.5962

> <Gold.PLP.part.nonpolar>
-28.4644

> <Gold.PLP.part.repulsive>
0.2572

> <Gold.PLP.ligand.clash>
0.0000

> <Gold.PLP.ligand.torsion>
1.7142

> <Gold.PLP.Chemscore.Hbond>
3.0000

> <Gold.PLP.Chemscore.CHOScore>
0.0000

> <Gold.PLP.Chemscore.Metal>
0.0000

> <Gold.Chemscore.Hbonds>
donor molecule, donor type, donor heavy atom, donor atom, acceptor molecule, acceptor atom, score
      L1  H    12    31       P1  7948  0.77
      L1  H    19    40       P1 10186  2.00

> <Gold.PLP.Chemscore.Internal.Correction>
2.1056

> <Gold.Rescore>
     Score         DG    S(hbond)    S(metal)    S(lipo)     H(rot)  DE(clash)    DE(int)     intcor
     14.72     -17.69       1.96        0.00      85.52       1.70       0.06       2.91       ----

> <Gold.Chemscore.Fitness>
14.7156

> <Gold.Chemscore.DG>
-17.6868

> <Gold.Chemscore.ZeroCoef>
-5.4800

> <Gold.Chemscore.Hbond>
1.9629

> <Gold.Chemscore.Metal>
0.0000

> <Gold.Chemscore.Lipo>
85.5207

> <Gold.Chemscore.Internal_Hbond>
0.0000

> <Gold.Chemscore.DEClash>
0.0630

> <Gold.Chemscore.DEInternal>
2.9082

> <Gold.Chemscore.Rot>
1.7012

> <Gold.Chemscore.Internal.Correction>
   9.000000E+99

> <Gold.Chemscore.Hbonds>
donor molecule, donor type, donor heavy atom, donor atom, acceptor molecule, acceptor atom, score
      L1  H    12    31       P1  7948  0.76
      L1  H    19    40       P1 10186  0.84

> <Gold.Chemscore.Hbond.Weighted>
-6.5560

> <Gold.Chemscore.Metal.Weighted>
-0.0000

> <Gold.Chemscore.Lipo.Weighted>
-10.0059

> <Gold.Chemscore.Internal_Hbond.Weighted>
0.0000

> <Gold.Chemscore.DEClash.Weighted>
0.0630

> <Gold.Chemscore.DEInternal.Weighted>
2.9082

> <Gold.Chemscore.Rot.Weighted>
4.3551

> <Gold.Chemscore.Internal.Correction.Weighted>
   9.000000E+99

> <Gold.Protein.RotatedTorsions>
[ 6907 6896 6895 6894 ] final  -27.86 input  -60.11 | X-H torsion
[ 7974 7965 7964 7962 ] final   29.35 input  175.53 | X-H torsion
[ 8008 7997 7996 7995 ] final   71.68 input   59.86 | X-H torsion
[ 10167 10162 10161 10158 ] final  -98.61 input  -65.29 | X-H torsion
[ 10718 10713 10712 10709 ] final   36.14 input   66.30 | X-H torsion
[ 10763 10752 10751 10750 ] final  -67.50 input  -60.55 | X-H torsion
[ 11005 11000 10999 10996 ] final  140.85 input  -57.11 | X-H torsion

> <Gold.Protein.ActiveResidues>
 VAL166  LYS551  ARG553  GLY616  TRP617  ASP618  TYR619  PRO620  LYS621  CYS622 
 ASP623  PHE694  ASN695  SER759  ASP760  ASP761  ALA762  ILE779  LEU786  VAL792 
 PHE793  MET794  SER795  GLU796  ALA797  LYS798  CYS799  TRP800  GLU811  SER814 

> <Gold.Protein.RotatedAtoms>
  151.1410  135.0179  159.8625 H   0  0  0  0  0  0  0  0  0  0  0  0  # atno 6907 bound_to 6896
  152.5452  134.1499  159.8524 H   0  0  0  0  0  0  0  0  0  0  0  0  # atno 6908 bound_to 6896
  151.1574  133.4822  159.2627 H   0  0  0  0  0  0  0  0  0  0  0  0  # atno 6909 bound_to 6896
  146.1676  139.6933  142.8990 H   0  0  0  0  0  0  0  0  0  0  0  0  # atno 7974 bound_to 7965
  155.7575  140.3487  155.5181 H   0  0  0  0  0  0  0  0  0  0  0  0  # atno 8008 bound_to 7997
  155.8945  140.1023  157.1415 H   0  0  0  0  0  0  0  0  0  0  0  0  # atno 8009 bound_to 7997
  154.4037  140.1298  156.4345 H   0  0  0  0  0  0  0  0  0  0  0  0  # atno 8010 bound_to 7997
  140.2712  143.3343  152.0533 H   0  0  0  0  0  0  0  0  0  0  0  0  # atno 10167 bound_to 10162
  157.3312  130.7499  149.6849 H   0  0  0  0  0  0  0  0  0  0  0  0  # atno 10718 bound_to 10713
  154.3754  135.6086  153.5762 H   0  0  0  0  0  0  0  0  0  0  0  0  # atno 10763 bound_to 10752
  152.9789  135.5848  154.4473 H   0  0  0  0  0  0  0  0  0  0  0  0  # atno 10764 bound_to 10752
  154.4234  135.2846  155.1938 H   0  0  0  0  0  0  0  0  0  0  0  0  # atno 10765 bound_to 10752
  140.0358  134.9330  157.0749 H   0  0  0  0  0  0  0  0  0  0  0  0  # atno 11005 bound_to 11000
  145.4426  141.0423  143.2849 LP  0  0  0  0  0  0  0  0  0  0  0  0  # atno 17320 bound_to 7965
  144.8115  139.5953  143.7027 LP  0  0  0  0  0  0  0  0  0  0  0  0  # atno 17321 bound_to 7965
  139.4988  144.6655  151.6366 LP  0  0  0  0  0  0  0  0  0  0  0  0  # atno 17342 bound_to 10162
  140.5888  143.9816  150.6312 LP  0  0  0  0  0  0  0  0  0  0  0  0  # atno 17343 bound_to 10162
  155.9696  130.4194  150.4376 LP  0  0  0  0  0  0  0  0  0  0  0  0  # atno 17370 bound_to 10713
  157.2408  131.0525  151.2438 LP  0  0  0  0  0  0  0  0  0  0  0  0  # atno 17371 bound_to 10713
  140.4151  134.1940  155.7163 LP  0  0  0  0  0  0  0  0  0  0  0  0  # atno 17394 bound_to 11000
  141.1856  133.8319  157.1098 LP  0  0  0  0  0  0  0  0  0  0  0  0  # atno 17395 bound_to 11000

$$$$
