AV-unprocessed.smi:3282|AV-procd|sdf|12567|dock2
  -GOLD-   2272018483D 1   1.00000     0.00000
 Structure written by MMmdl.
 33 34  0  0  0  0  0  0  0  0  2 V2000
  152.8262  142.8124  162.0432 C   0  0  0  0  0  0  0  0  0  0  0  0
  153.8024  142.0178  161.1606 C   0  0  0  0  0  0  0  0  0  0  0  0
  153.1332  141.3367  159.9550 C   0  0  0  0  0  0  0  0  0  0  0  0
  153.1634  140.1094  159.8503 O   0  0  0  0  0  0  0  0  0  0  0  0
  152.5266  142.1188  159.0380 N   0  0  0  0  0  0  0  0  0  0  0  0
  152.4365  143.5767  159.0858 C   0  0  0  0  0  0  0  0  0  0  0  0
  151.4815  143.9768  157.9609 C   0  0  0  0  0  0  0  0  0  0  0  0
  151.5368  142.8158  156.9716 C   0  0  2  0  0  0  0  0  0  0  0  0
  150.2737  142.6567  156.2570 N   0  0  0  0  0  0  0  0  0  0  0  0
  149.9803  141.6696  155.3984 C   0  0  0  0  0  0  0  0  0  0  0  0
  150.8195  140.8000  155.1525 O   0  0  0  0  0  0  0  0  0  0  0  0
  148.7334  141.7499  154.8818 N   0  5  0  0  0  0  0  0  0  0  0  0
  148.2394  140.7267  154.1661 C   0  0  0  0  0  0  0  0  0  0  0  0
  148.6996  139.4746  154.1557 N   0  0  0  0  0  0  0  0  0  0  0  0
  147.8885  138.7798  153.2718 C   0  0  0  0  0  0  0  0  0  0  0  0
  146.9637  139.6561  152.7733 C   0  0  0  0  0  0  0  0  0  0  0  0
  147.1777  140.8882  153.3262 O   0  0  0  0  0  0  0  0  0  0  0  0
  151.8687  141.5967  157.8430 C   0  0  0  0  0  0  0  0  0  0  0  0
  153.3515  143.2696  162.8821 H   0  0  0  0  0  0  0  0  0  0  0  0
  152.0472  142.1692  162.4540 H   0  0  0  0  0  0  0  0  0  0  0  0
  152.3429  143.6141  161.4830 H   0  0  0  0  0  0  0  0  0  0  0  0
  154.5817  142.6884  160.7971 H   0  0  0  0  0  0  0  0  0  0  0  0
  154.2937  141.2588  161.7704 H   0  0  0  0  0  0  0  0  0  0  0  0
  152.0760  143.9388  160.0493 H   0  0  0  0  0  0  0  0  0  0  0  0
  153.4263  144.0002  158.9098 H   0  0  0  0  0  0  0  0  0  0  0  0
  150.4742  144.0751  158.3691 H   0  0  0  0  0  0  0  0  0  0  0  0
  151.7463  144.9308  157.5042 H   0  0  0  0  0  0  0  0  0  0  0  0
  152.3527  142.9942  156.2686 H   0  0  0  0  0  0  0  0  0  0  0  0
  149.5599  143.3493  156.4292 H   0  0  0  0  0  0  0  0  0  0  0  0
  148.0331  137.7293  153.0685 H   0  0  0  0  0  0  0  0  0  0  0  0
  146.1489  139.5717  152.0702 H   0  0  0  0  0  0  0  0  0  0  0  0
  152.5015  140.8897  157.3041 H   0  0  0  0  0  0  0  0  0  0  0  0
  150.9629  141.0703  158.1492 H   0  0  0  0  0  0  0  0  0  0  0  0
  1  2  1  0  0  0  0
  1 19  1  0  0  0  0
  1 20  1  0  0  0  0
  1 21  1  0  0  0  0
  2  3  1  0  0  0  0
  2 22  1  0  0  0  0
  2 23  1  0  0  0  0
  3  4  2  0  0  0  0
  3  5  1  0  0  0  0
  5 18  1  0  0  0  0
  5  6  1  0  0  0  0
  6  7  1  0  0  0  0
  6 24  1  0  0  0  0
  6 25  1  0  0  0  0
  7  8  1  0  0  0  0
  7 26  1  0  0  0  0
  7 27  1  0  0  0  0
  8  9  1  0  0  0  0
  8 18  1  0  0  0  0
  8 28  1  0  0  0  0
  9 10  1  0  0  0  0
  9 29  1  0  0  0  0
 10 11  2  0  0  0  0
 10 12  1  0  0  0  0
 12 13  1  0  0  0  0
 13 17  1  0  0  0  0
 13 14  2  0  0  0  0
 14 15  1  0  0  0  0
 15 16  2  0  0  0  0
 15 30  1  0  0  0  0
 16 17  1  0  0  0  0
 16 31  1  0  0  0  0
 18 32  1  0  0  0  0
 18 33  1  0  0  0  0
M  CHG  1  12  -1
M  END
> <s_m_source_file>
AV-unprocessed.smi

> <i_m_source_file_index>
3282

> <i_lp_mmshare_version>
43012

> <i_f3d_flags>
0

> <s_epik_input>
W0NIM11bQ0gyXUMoPU8pTjFbQ0gyXVtDSDJdW0NASF0oW0NIMl0xKVtOSF1DKD1PKVtOSF1jMm5bY0hdW2NIXW8y

> <s_epik_cmdline>
J2VwaWtfcHl0aG9uJywgJy1waCcsICc3LjAnLCAnLXRuJywgJzgnLCAnLW1hJywgJzIwMCcsICctbWV0YWxfYmluZGluZycsICctaW1hZScsICc8aW5maWxlLm1hZT4nLCAnLW9tYWUnLCAnPG91dGZpbGUubWFlPic=

> <r_lp_tautomer_probability>
0.785861

> <r_epik_Ionization_Penalty>
9.30511

> <r_epik_Ionization_Penalty_Charging>
6.7516

> <r_epik_Ionization_Penalty_Neutral>
2.55351

> <r_epik_State_Penalty>
6.77285

> <r_epik_Charging_Adjusted_Penalty>
13.5244

> <i_epik_Tot_Q>
-1

> <i_epik_Tot_abs_Q>
1

> <r_epik_Metal_State_Penalty>
2.67327

> <b_epik_Metal_Only>
1

> <s_lp_Force_Field>
OPLS_2005

> <r_lp_Energy>
20.6417

> <b_lp_Chiralities_Consistent>
1

> <s_lp_Variant>
AV-unprocessed.smi:3282-8

> <Gold.Version>
5.8.1

> <Gold.Id.Protein>
6NUR|6NUR_protein|mol2

> <Gold.PLP.Fitness>
46.9916

> <Gold.PLP.PLP>
-35.8761

> <Gold.PLP.part.hbond>
-2.0000

> <Gold.PLP.part.metal>
0.0000

> <Gold.PLP.part.buried>
-5.4285

> <Gold.PLP.part.nonpolar>
-30.2732

> <Gold.PLP.part.repulsive>
0.8048

> <Gold.PLP.ligand.clash>
0.0000

> <Gold.PLP.ligand.torsion>
0.1108

> <Gold.PLP.Chemscore.Hbond>
1.8400

> <Gold.PLP.Chemscore.CHOScore>
1.9346

> <Gold.PLP.Chemscore.Metal>
0.0000

> <Gold.Chemscore.Hbonds>
donor molecule, donor type, donor heavy atom, donor atom, acceptor molecule, acceptor atom, score
      L1  H     9    29       P1  8028  0.78
      P1  H  7989  7998       L1    11  0.83
      L1  C    15    30       P1  7948  1.00
      L1  C    16    31       P1 10175  0.65

> <Gold.PLP.Chemscore.Internal.Correction>
0.0133

> <Gold.Rescore>
     Score         DG    S(hbond)    S(metal)    S(lipo)     H(rot)  DE(clash)    DE(int)     intcor
     14.10     -16.00       1.44        0.00      77.27       1.31       0.25       1.64       ----

> <Gold.Chemscore.Fitness>
14.1036

> <Gold.Chemscore.DG>
-15.9954

> <Gold.Chemscore.ZeroCoef>
-5.4800

> <Gold.Chemscore.Hbond>
1.4441

> <Gold.Chemscore.Metal>
0.0000

> <Gold.Chemscore.Lipo>
77.2741

> <Gold.Chemscore.Internal_Hbond>
0.0000

> <Gold.Chemscore.DEClash>
0.2475

> <Gold.Chemscore.DEInternal>
1.6443

> <Gold.Chemscore.Rot>
1.3082

> <Gold.Chemscore.Internal.Correction>
   9.000000E+99

> <Gold.Chemscore.Hbonds>
donor molecule, donor type, donor heavy atom, donor atom, acceptor molecule, acceptor atom, score
      L1  H     9    29       P1  8028  0.78
      P1  H  7989  7998       L1    11  0.77

> <Gold.Chemscore.Hbond.Weighted>
-4.8231

> <Gold.Chemscore.Metal.Weighted>
-0.0000

> <Gold.Chemscore.Lipo.Weighted>
-9.0411

> <Gold.Chemscore.Internal_Hbond.Weighted>
0.0000

> <Gold.Chemscore.DEClash.Weighted>
0.2475

> <Gold.Chemscore.DEInternal.Weighted>
1.6443

> <Gold.Chemscore.Rot.Weighted>
3.3489

> <Gold.Chemscore.Internal.Correction.Weighted>
   9.000000E+99

> <Gold.Protein.RotatedTorsions>
[ 6907 6896 6895 6894 ] final  -41.57 input  -60.11 | X-H torsion
[ 7974 7965 7964 7962 ] final -152.23 input  175.53 | X-H torsion
[ 8008 7997 7996 7995 ] final  121.81 input   59.86 | X-H torsion
[ 10167 10162 10161 10158 ] final  -24.94 input  -65.29 | X-H torsion
[ 10718 10713 10712 10709 ] final -143.48 input   66.30 | X-H torsion
[ 10763 10752 10751 10750 ] final  173.35 input  -60.55 | X-H torsion
[ 11005 11000 10999 10996 ] final -114.39 input  -57.11 | X-H torsion

> <Gold.Protein.ActiveResidues>
 VAL166  LYS551  ARG553  GLY616  TRP617  ASP618  TYR619  PRO620  LYS621  CYS622 
 ASP623  PHE694  ASN695  SER759  ASP760  ASP761  ALA762  ILE779  LEU786  VAL792 
 PHE793  MET794  SER795  GLU796  ALA797  LYS798  CYS799  TRP800  GLU811  SER814 

> <Gold.Protein.RotatedAtoms>
  150.9652  134.9034  159.7754 H   0  0  0  0  0  0  0  0  0  0  0  0  # atno 6907 bound_to 6896
  152.5170  134.3618  159.9297 H   0  0  0  0  0  0  0  0  0  0  0  0  # atno 6908 bound_to 6896
  151.3628  133.3842  159.2726 H   0  0  0  0  0  0  0  0  0  0  0  0  # atno 6909 bound_to 6896
  144.7806  140.4691  143.5842 H   0  0  0  0  0  0  0  0  0  0  0  0  # atno 7974 bound_to 7965
  156.2702  140.2800  156.1368 H   0  0  0  0  0  0  0  0  0  0  0  0  # atno 8008 bound_to 7997
  155.0996  140.0389  157.2710 H   0  0  0  0  0  0  0  0  0  0  0  0  # atno 8009 bound_to 7997
  154.6826  140.2612  155.6899 H   0  0  0  0  0  0  0  0  0  0  0  0  # atno 8010 bound_to 7997
  140.7287  143.4309  151.0804 H   0  0  0  0  0  0  0  0  0  0  0  0  # atno 10167 bound_to 10162
  156.3584  130.7725  151.1889 H   0  0  0  0  0  0  0  0  0  0  0  0  # atno 10718 bound_to 10713
  154.4389  135.2761  155.1861 H   0  0  0  0  0  0  0  0  0  0  0  0  # atno 10763 bound_to 10752
  154.3736  135.6103  153.5757 H   0  0  0  0  0  0  0  0  0  0  0  0  # atno 10764 bound_to 10752
  152.9840  135.5863  154.4713 H   0  0  0  0  0  0  0  0  0  0  0  0  # atno 10765 bound_to 10752
  141.0555  133.9619  157.2761 H   0  0  0  0  0  0  0  0  0  0  0  0  # atno 11005 bound_to 11000
  145.6062  139.1508  143.3101 LP  0  0  0  0  0  0  0  0  0  0  0  0  # atno 17320 bound_to 7965
  146.2011  140.6181  142.9102 LP  0  0  0  0  0  0  0  0  0  0  0  0  # atno 17321 bound_to 7965
  139.7965  143.8144  152.3158 LP  0  0  0  0  0  0  0  0  0  0  0  0  # atno 17342 bound_to 10162
  139.8146  144.7321  150.9652 LP  0  0  0  0  0  0  0  0  0  0  0  0  # atno 17343 bound_to 10162
  157.7470  131.0407  150.4611 LP  0  0  0  0  0  0  0  0  0  0  0  0  # atno 17370 bound_to 10713
  156.4818  130.4075  149.6457 LP  0  0  0  0  0  0  0  0  0  0  0  0  # atno 17371 bound_to 10713
  139.9386  135.0194  156.8637 LP  0  0  0  0  0  0  0  0  0  0  0  0  # atno 17394 bound_to 11000
  140.5972  134.0206  155.7523 LP  0  0  0  0  0  0  0  0  0  0  0  0  # atno 17395 bound_to 11000

$$$$
