AV-unprocessed.smi:1066|AV-procd|sdf|4668|dock2
  -GOLD-   22720 3183D 1   1.00000     0.00000
 Structure written by MMmdl.
 38 40  0  0  0  0  0  0  0  0  2 V2000
  148.8589  135.6479  158.3597 C   0  0  0  0  0  0  0  0  0  0  0  0
  149.2104  134.5822  157.3618 C   0  0  0  0  0  0  0  0  0  0  0  0
  149.8310  133.4833  157.7708 N   0  0  0  0  0  0  0  0  0  0  0  0
  150.0230  132.6917  156.6327 O   0  0  0  0  0  0  0  0  0  0  0  0
  149.4965  133.3684  155.5865 C   0  0  0  0  0  0  0  0  0  0  0  0
  149.5319  132.7531  153.9812 Cl  0  0  0  0  0  0  0  0  0  0  0  0
  148.9642  134.5698  155.9576 C   0  0  0  0  0  0  0  0  0  0  0  0
  148.2915  135.6248  155.1166 C   0  0  0  0  0  0  0  0  0  0  0  0
  147.0194  135.0515  154.4925 C   0  0  0  0  0  0  0  0  0  0  0  0
  146.0964  134.6699  155.2113 O   0  0  0  0  0  0  0  0  0  0  0  0
  146.9808  135.0016  153.1524 N   0  0  0  0  0  0  0  0  0  0  0  0
  145.8492  134.5231  152.3685 C   0  0  2  0  0  0  0  0  0  0  0  0
  144.5875  135.3704  152.4942 C   0  0  0  0  0  0  0  0  0  0  0  0
  143.4853  134.3977  152.0568 C   0  0  0  0  0  0  0  0  0  0  0  0
  143.9796  133.0281  152.3487 N   0  3  1  0  0  0  0  0  0  0  0  0
  143.8468  132.0971  151.2068 C   0  0  0  0  0  0  0  0  0  0  0  0
  145.1008  131.9785  150.3741 C   0  0  0  0  0  0  0  0  0  0  0  0
  143.9224  132.7778  149.8611 C   0  0  0  0  0  0  0  0  0  0  0  0
  145.3669  133.1549  152.8461 C   0  0  0  0  0  0  0  0  0  0  0  0
  148.9821  136.6427  157.9311 H   0  0  0  0  0  0  0  0  0  0  0  0
  149.4903  135.5928  159.2471 H   0  0  0  0  0  0  0  0  0  0  0  0
  147.8222  135.5516  158.6821 H   0  0  0  0  0  0  0  0  0  0  0  0
  148.0350  136.5058  155.7062 H   0  0  0  0  0  0  0  0  0  0  0  0
  148.9511  135.9765  154.3224 H   0  0  0  0  0  0  0  0  0  0  0  0
  147.7865  135.3359  152.6430 H   0  0  0  0  0  0  0  0  0  0  0  0
  146.1332  134.4472  151.3165 H   0  0  0  0  0  0  0  0  0  0  0  0
  144.4318  135.6673  153.5327 H   0  0  0  0  0  0  0  0  0  0  0  0
  144.6190  136.2749  151.8857 H   0  0  0  0  0  0  0  0  0  0  0  0
  142.5441  134.5906  152.5722 H   0  0  0  0  0  0  0  0  0  0  0  0
  143.3016  134.5130  150.9873 H   0  0  0  0  0  0  0  0  0  0  0  0
  143.1951  131.2374  151.3543 H   0  0  0  0  0  0  0  0  0  0  0  0
  145.9839  132.5318  150.6886 H   0  0  0  0  0  0  0  0  0  0  0  0
  145.2981  131.0201  149.8983 H   0  0  0  0  0  0  0  0  0  0  0  0
  143.3457  132.3459  149.0457 H   0  0  0  0  0  0  0  0  0  0  0  0
  144.0208  133.8617  149.8378 H   0  0  0  0  0  0  0  0  0  0  0  0
  146.0151  132.3435  152.5109 H   0  0  0  0  0  0  0  0  0  0  0  0
  145.3362  133.1216  153.9363 H   0  0  0  0  0  0  0  0  0  0  0  0
  143.4256  132.6518  153.1048 H   0  0  0  0  0  0  0  0  0  0  0  0
  1  2  1  0  0  0  0
  1 20  1  0  0  0  0
  1 21  1  0  0  0  0
  1 22  1  0  0  0  0
  2  7  1  0  0  0  0
  2  3  2  0  0  0  0
  3  4  1  0  0  0  0
  4  5  1  0  0  0  0
  5  6  1  0  0  0  0
  5  7  2  0  0  0  0
  7  8  1  0  0  0  0
  8  9  1  0  0  0  0
  8 23  1  0  0  0  0
  8 24  1  0  0  0  0
  9 10  2  0  0  0  0
  9 11  1  0  0  0  0
 11 12  1  0  0  0  0
 11 25  1  0  0  0  0
 12 19  1  0  0  0  0
 12 13  1  0  0  0  0
 12 26  1  0  0  0  0
 13 14  1  0  0  0  0
 13 27  1  0  0  0  0
 13 28  1  0  0  0  0
 14 15  1  0  0  0  0
 14 29  1  0  0  0  0
 14 30  1  0  0  0  0
 15 16  1  0  0  0  0
 15 19  1  0  0  0  0
 15 38  1  0  0  0  0
 16 18  1  0  0  0  0
 16 17  1  0  0  0  0
 16 31  1  0  0  0  0
 17 18  1  0  0  0  0
 17 32  1  0  0  0  0
 17 33  1  0  0  0  0
 18 34  1  0  0  0  0
 18 35  1  0  0  0  0
 19 36  1  0  0  0  0
 19 37  1  0  0  0  0
M  CHG  1  15   1
M  END
> <s_m_source_file>
AV-unprocessed.smi

> <i_m_source_file_index>
1066

> <i_lp_mmshare_version>
43012

> <i_f3d_flags>
0

> <s_epik_input>
W0NIM11jMW5vYyhDbCljMVtDSDJdQyg9TylbTkhdW0NAQEhdMltDSDJdW0NIMl1OKFtDSDJdMilbQ0hdM1tDSDJdW0NIMl0z

> <s_epik_cmdline>
J2VwaWtfcHl0aG9uJywgJy1waCcsICc3LjAnLCAnLXRuJywgJzgnLCAnLW1hJywgJzIwMCcsICctbWV0YWxfYmluZGluZycsICctaW1hZScsICc8aW5maWxlLm1hZT4nLCAnLW9tYWUnLCAnPG91dGZpbGUubWFlPic=

> <r_epik_Ionization_Penalty>
0.00108138

> <r_epik_Ionization_Penalty_Charging>
0.00108128

> <r_epik_Ionization_Penalty_Neutral>
9.66632e-08

> <r_epik_State_Penalty>
0.000708577

> <r_epik_Charging_Adjusted_Penalty>
0.00178986

> <i_epik_Tot_Q>
1

> <i_epik_Tot_abs_Q>
1

> <r_epik_Metal_State_Penalty>
-0

> <b_epik_Metal_Only>
0

> <s_lp_Force_Field>
OPLS_2005

> <r_lp_Energy>
31.6954

> <b_lp_Chiralities_Consistent>
1

> <s_lp_Variant>
AV-unprocessed.smi:1066-1

> <Gold.Version>
5.8.1

> <Gold.Id.Protein>
6NUR|6NUR_protein|mol2

> <Gold.PLP.Fitness>
37.2906

> <Gold.PLP.PLP>
-26.0416

> <Gold.PLP.part.hbond>
-2.9781

> <Gold.PLP.part.metal>
0.0000

> <Gold.PLP.part.buried>
-5.4692

> <Gold.PLP.part.nonpolar>
-19.4813

> <Gold.PLP.part.repulsive>
0.0389

> <Gold.PLP.ligand.clash>
0.0000

> <Gold.PLP.ligand.torsion>
0.9373

> <Gold.PLP.Chemscore.Hbond>
3.9500

> <Gold.PLP.Chemscore.CHOScore>
0.0000

> <Gold.PLP.Chemscore.Metal>
0.0000

> <Gold.Chemscore.Hbonds>
donor molecule, donor type, donor heavy atom, donor atom, acceptor molecule, acceptor atom, score
      L1  H    11    25       P1  7948  1.00
      L1  H    15    38       P1 10957  1.90
      P1  H  6896  6907       L1     3  1.00

> <Gold.PLP.Chemscore.Internal.Correction>
1.2735

> <Gold.Rescore>
     Score         DG    S(hbond)    S(metal)    S(lipo)     H(rot)  DE(clash)    DE(int)     intcor
     15.93     -18.31       2.85        0.00      62.80       1.57       0.09       2.29       ----

> <Gold.Chemscore.Fitness>
15.9277

> <Gold.Chemscore.DG>
-18.3129

> <Gold.Chemscore.ZeroCoef>
-5.4800

> <Gold.Chemscore.Hbond>
2.8466

> <Gold.Chemscore.Metal>
0.0000

> <Gold.Chemscore.Lipo>
62.7968

> <Gold.Chemscore.Internal_Hbond>
0.0000

> <Gold.Chemscore.DEClash>
0.0917

> <Gold.Chemscore.DEInternal>
2.2935

> <Gold.Chemscore.Rot>
1.5711

> <Gold.Chemscore.Internal.Correction>
   9.000000E+99

> <Gold.Chemscore.Hbonds>
donor molecule, donor type, donor heavy atom, donor atom, acceptor molecule, acceptor atom, score
      L1  H    11    25       P1  7948  1.00
      L1  H    15    38       P1 10957  0.20
      P1  H  6896  6907       L1     3  0.94

> <Gold.Chemscore.Hbond.Weighted>
-9.5077

> <Gold.Chemscore.Metal.Weighted>
-0.0000

> <Gold.Chemscore.Lipo.Weighted>
-7.3472

> <Gold.Chemscore.Internal_Hbond.Weighted>
0.0000

> <Gold.Chemscore.DEClash.Weighted>
0.0917

> <Gold.Chemscore.DEInternal.Weighted>
2.2935

> <Gold.Chemscore.Rot.Weighted>
4.0221

> <Gold.Chemscore.Internal.Correction.Weighted>
   9.000000E+99

> <Gold.Protein.RotatedTorsions>
[ 6907 6896 6895 6894 ] final -132.26 input  -60.11 | X-H torsion
[ 7974 7965 7964 7962 ] final  164.44 input  175.53 | X-H torsion
[ 8008 7997 7996 7995 ] final -153.25 input   59.86 | X-H torsion
[ 10167 10162 10161 10158 ] final   54.90 input  -65.29 | X-H torsion
[ 10718 10713 10712 10709 ] final   24.47 input   66.30 | X-H torsion
[ 10763 10752 10751 10750 ] final  161.49 input  -60.55 | X-H torsion
[ 11005 11000 10999 10996 ] final  -73.07 input  -57.11 | X-H torsion

> <Gold.Protein.ActiveResidues>
 VAL166  LYS551  ARG553  GLY616  TRP617  ASP618  TYR619  PRO620  LYS621  CYS622 
 ASP623  PHE694  ASN695  SER759  ASP760  ASP761  ALA762  ILE779  LEU786  VAL792 
 PHE793  MET794  SER795  GLU796  ALA797  LYS798  CYS799  TRP800  GLU811  SER814 

> <Gold.Protein.RotatedAtoms>
  150.9604  133.6452  159.2755 H   0  0  0  0  0  0  0  0  0  0  0  0  # atno 6907 bound_to 6896
  151.3776  135.0933  159.9495 H   0  0  0  0  0  0  0  0  0  0  0  0  # atno 6908 bound_to 6896
  152.5145  133.9145  159.7559 H   0  0  0  0  0  0  0  0  0  0  0  0  # atno 6909 bound_to 6896
  144.7545  139.8327  143.6355 H   0  0  0  0  0  0  0  0  0  0  0  0  # atno 7974 bound_to 7965
  155.6679  140.0730  157.2531 H   0  0  0  0  0  0  0  0  0  0  0  0  # atno 8008 bound_to 7997
  154.4129  140.1704  156.1898 H   0  0  0  0  0  0  0  0  0  0  0  0  # atno 8009 bound_to 7997
  155.9642  140.3367  155.6520 H   0  0  0  0  0  0  0  0  0  0  0  0  # atno 8010 bound_to 7997
  140.2252  144.3746  150.6435 H   0  0  0  0  0  0  0  0  0  0  0  0  # atno 10167 bound_to 10162
  157.1802  130.6799  149.6110 H   0  0  0  0  0  0  0  0  0  0  0  0  # atno 10718 bound_to 10713
  154.2637  135.2767  155.2767 H   0  0  0  0  0  0  0  0  0  0  0  0  # atno 10763 bound_to 10752
  154.5361  135.5716  153.6803 H   0  0  0  0  0  0  0  0  0  0  0  0  # atno 10764 bound_to 10752
  152.9957  135.6239  154.2789 H   0  0  0  0  0  0  0  0  0  0  0  0  # atno 10765 bound_to 10752
  141.1618  133.6866  156.7156 H   0  0  0  0  0  0  0  0  0  0  0  0  # atno 11005 bound_to 11000
  146.1538  139.4629  143.0032 LP  0  0  0  0  0  0  0  0  0  0  0  0  # atno 17320 bound_to 7965
  145.6828  141.0186  143.1597 LP  0  0  0  0  0  0  0  0  0  0  0  0  # atno 17321 bound_to 7965
  140.6225  143.2178  151.6664 LP  0  0  0  0  0  0  0  0  0  0  0  0  # atno 17342 bound_to 10162
  139.5129  144.3459  152.0697 LP  0  0  0  0  0  0  0  0  0  0  0  0  # atno 17343 bound_to 10162
  155.9725  130.4649  150.6235 LP  0  0  0  0  0  0  0  0  0  0  0  0  # atno 17370 bound_to 10713
  157.3960  131.0803  151.1352 LP  0  0  0  0  0  0  0  0  0  0  0  0  # atno 17371 bound_to 10713
  140.2854  134.8283  157.3970 LP  0  0  0  0  0  0  0  0  0  0  0  0  # atno 17394 bound_to 11000
  140.1395  134.4991  155.8043 LP  0  0  0  0  0  0  0  0  0  0  0  0  # atno 17395 bound_to 11000

$$$$
