AV-unprocessed.smi:3266|AV-procd|sdf|12500|dock1
  -GOLD-   2272018403D 1   1.00000     0.00000
 Structure written by MMmdl.
 38 39  0  0  0  0  0  0  0  0  1 V2000
  154.4190  139.2874  158.6760 O   0  0  0  0  0  0  0  0  0  0  0  0
  153.2788  139.6594  158.9544 C   0  0  0  0  0  0  0  0  0  0  0  0
  152.0977  139.2403  158.0771 C   0  0  0  0  0  0  0  0  0  0  0  0
  152.2303  139.7649  156.6361 C   0  0  0  0  0  0  0  0  0  0  0  0
  150.8789  139.8574  155.9130 C   0  0  2  0  0  0  0  0  0  0  0  0
  149.8281  138.8837  156.4431 C   0  0  0  0  0  0  0  0  0  0  0  0
  148.9079  138.7542  155.2511 C   0  0  0  0  0  0  0  0  0  0  0  0
  149.8982  138.7653  154.0896 C   0  0  0  0  0  0  0  0  0  0  0  0
  151.0176  139.5290  154.5327 O   0  0  0  0  0  0  0  0  0  0  0  0
  152.9894  140.4210  160.0216 N   0  0  0  0  0  0  0  0  0  0  0  0
  153.9465  140.8649  161.0325 C   0  0  0  0  0  0  0  0  0  0  0  0
  153.5136  142.1818  161.7067 C   0  0  0  0  0  0  0  0  0  0  0  0
  152.9097  143.1913  160.7448 C   0  0  0  0  0  0  0  0  0  0  0  0
  152.1946  144.3093  161.2265 C   0  0  0  0  0  0  0  0  0  0  0  0
  151.6866  145.2333  160.2934 C   0  0  0  0  0  0  0  0  0  0  0  0
  151.9073  145.0030  158.9220 C   0  0  0  0  0  0  0  0  0  0  0  0
  152.6291  143.8534  158.5431 C   0  0  0  0  0  0  0  0  0  0  0  0
  153.1214  142.9614  159.4295 N   0  0  0  0  0  0  0  0  0  0  0  0
  152.0174  138.1523  158.0657 H   0  0  0  0  0  0  0  0  0  0  0  0
  151.1806  139.6167  158.5313 H   0  0  0  0  0  0  0  0  0  0  0  0
  152.7077  140.7460  156.6371 H   0  0  0  0  0  0  0  0  0  0  0  0
  152.8889  139.1034  156.0711 H   0  0  0  0  0  0  0  0  0  0  0  0
  150.4851  140.8730  155.9789 H   0  0  0  0  0  0  0  0  0  0  0  0
  150.2778  137.9165  156.6731 H   0  0  0  0  0  0  0  0  0  0  0  0
  149.3230  139.2481  157.3381 H   0  0  0  0  0  0  0  0  0  0  0  0
  148.2913  137.8554  155.2782 H   0  0  0  0  0  0  0  0  0  0  0  0
  148.2484  139.6212  155.1922 H   0  0  0  0  0  0  0  0  0  0  0  0
  150.2379  137.7528  153.8680 H   0  0  0  0  0  0  0  0  0  0  0  0
  149.4655  139.1834  153.1805 H   0  0  0  0  0  0  0  0  0  0  0  0
  152.0248  140.6831  160.1647 H   0  0  0  0  0  0  0  0  0  0  0  0
  154.1014  140.0907  161.7859 H   0  0  0  0  0  0  0  0  0  0  0  0
  154.9105  141.0078  160.5440 H   0  0  0  0  0  0  0  0  0  0  0  0
  152.7871  141.9676  162.4916 H   0  0  0  0  0  0  0  0  0  0  0  0
  154.3702  142.6355  162.2068 H   0  0  0  0  0  0  0  0  0  0  0  0
  152.0505  144.4635  162.2856 H   0  0  0  0  0  0  0  0  0  0  0  0
  151.1407  146.1046  160.6235 H   0  0  0  0  0  0  0  0  0  0  0  0
  151.5334  145.6907  158.1782 H   0  0  0  0  0  0  0  0  0  0  0  0
  152.8169  143.6452  157.5001 H   0  0  0  0  0  0  0  0  0  0  0  0
  1  2  2  0  0  0  0
  2  3  1  0  0  0  0
  2 10  1  0  0  0  0
  3  4  1  0  0  0  0
  3 19  1  0  0  0  0
  3 20  1  0  0  0  0
  4  5  1  0  0  0  0
  4 21  1  0  0  0  0
  4 22  1  0  0  0  0
  5  9  1  0  0  0  0
  5  6  1  0  0  0  0
  5 23  1  0  0  0  0
  6  7  1  0  0  0  0
  6 24  1  0  0  0  0
  6 25  1  0  0  0  0
  7  8  1  0  0  0  0
  7 26  1  0  0  0  0
  7 27  1  0  0  0  0
  8  9  1  0  0  0  0
  8 28  1  0  0  0  0
  8 29  1  0  0  0  0
 10 11  1  0  0  0  0
 10 30  1  0  0  0  0
 11 12  1  0  0  0  0
 11 31  1  0  0  0  0
 11 32  1  0  0  0  0
 12 13  1  0  0  0  0
 12 33  1  0  0  0  0
 12 34  1  0  0  0  0
 13 18  1  0  0  0  0
 13 14  2  0  0  0  0
 14 15  1  0  0  0  0
 14 35  1  0  0  0  0
 15 16  2  0  0  0  0
 15 36  1  0  0  0  0
 16 17  1  0  0  0  0
 16 37  1  0  0  0  0
 17 18  2  0  0  0  0
 17 38  1  0  0  0  0
M  END
> <s_m_source_file>
AV-unprocessed.smi

> <i_m_source_file_index>
3266

> <i_lp_mmshare_version>
43012

> <i_f3d_flags>
0

> <s_epik_input>
TzFbQ0gyXVtDSDJdW0NIMl1bQ0BIXTFbQ0gyXVtDSDJdQyg9TylbTkhdW0NIMl1bQ0gyXWMyW2NIXVtjSF1bY0hdW2NIXW4y

> <s_epik_cmdline>
J2VwaWtfcHl0aG9uJywgJy1waCcsICc3LjAnLCAnLXRuJywgJzgnLCAnLW1hJywgJzIwMCcsICctbWV0YWxfYmluZGluZycsICctaW1hZScsICc8aW5maWxlLm1hZT4nLCAnLW9tYWUnLCAnPG91dGZpbGUubWFlPic=

> <r_epik_Ionization_Penalty>
0.0267142

> <r_epik_Ionization_Penalty_Charging>
0

> <r_epik_Ionization_Penalty_Neutral>
0.0267142

> <r_epik_State_Penalty>
0.0218233

> <r_epik_Charging_Adjusted_Penalty>
0.0218233

> <i_epik_Tot_Q>
0

> <i_epik_Tot_abs_Q>
0

> <r_epik_Metal_State_Penalty>
0.0208786

> <b_epik_Metal_Only>
0

> <s_lp_Force_Field>
OPLS_2005

> <r_lp_Energy>
16.3587

> <b_lp_Chiralities_Consistent>
1

> <s_lp_Variant>
AV-unprocessed.smi:3266-1

> <Gold.Version>
5.8.1

> <Gold.Id.Protein>
6NUR|6NUR_protein|mol2

> <Gold.PLP.Fitness>
44.7113

> <Gold.PLP.PLP>
-40.6454

> <Gold.PLP.part.hbond>
-2.0000

> <Gold.PLP.part.metal>
0.0000

> <Gold.PLP.part.buried>
-4.5870

> <Gold.PLP.part.nonpolar>
-34.0746

> <Gold.PLP.part.repulsive>
0.2230

> <Gold.PLP.ligand.clash>
0.0000

> <Gold.PLP.ligand.torsion>
1.0476

> <Gold.PLP.Chemscore.Hbond>
2.0000

> <Gold.PLP.Chemscore.CHOScore>
0.0000

> <Gold.PLP.Chemscore.Metal>
0.0000

> <Gold.Chemscore.Hbonds>
donor molecule, donor type, donor heavy atom, donor atom, acceptor molecule, acceptor atom, score
      P1  H  7989  7998       L1     9  1.00
      P1  H  7997  8008       L1     1  1.00

> <Gold.PLP.Chemscore.Internal.Correction>
0.1611

> <Gold.Rescore>
     Score         DG    S(hbond)    S(metal)    S(lipo)     H(rot)  DE(clash)    DE(int)     intcor
     19.21     -21.49       1.94        0.00     119.11       1.71       0.12       2.16       ----

> <Gold.Chemscore.Fitness>
19.2052

> <Gold.Chemscore.DG>
-21.4945

> <Gold.Chemscore.ZeroCoef>
-5.4800

> <Gold.Chemscore.Hbond>
1.9351

> <Gold.Chemscore.Metal>
0.0000

> <Gold.Chemscore.Lipo>
119.1102

> <Gold.Chemscore.Internal_Hbond>
0.0000

> <Gold.Chemscore.DEClash>
0.1245

> <Gold.Chemscore.DEInternal>
2.1647

> <Gold.Chemscore.Rot>
1.7127

> <Gold.Chemscore.Internal.Correction>
   9.000000E+99

> <Gold.Chemscore.Hbonds>
donor molecule, donor type, donor heavy atom, donor atom, acceptor molecule, acceptor atom, score
      P1  H  7989  7998       L1     9  0.88
      P1  H  7997  8008       L1     1  0.88

> <Gold.Chemscore.Hbond.Weighted>
-6.4631

> <Gold.Chemscore.Metal.Weighted>
-0.0000

> <Gold.Chemscore.Lipo.Weighted>
-13.9359

> <Gold.Chemscore.Internal_Hbond.Weighted>
0.0000

> <Gold.Chemscore.DEClash.Weighted>
0.1245

> <Gold.Chemscore.DEInternal.Weighted>
2.1647

> <Gold.Chemscore.Rot.Weighted>
4.3846

> <Gold.Chemscore.Internal.Correction.Weighted>
   9.000000E+99

> <Gold.Protein.RotatedTorsions>
[ 6907 6896 6895 6894 ] final  150.72 input  -60.11 | X-H torsion
[ 7974 7965 7964 7962 ] final   91.27 input  175.53 | X-H torsion
[ 8008 7997 7996 7995 ] final -116.75 input   59.86 | X-H torsion
[ 10167 10162 10161 10158 ] final  128.89 input  -65.29 | X-H torsion
[ 10718 10713 10712 10709 ] final  179.73 input   66.30 | X-H torsion
[ 10763 10752 10751 10750 ] final -159.92 input  -60.55 | X-H torsion
[ 11005 11000 10999 10996 ] final  116.08 input  -57.11 | X-H torsion

> <Gold.Protein.ActiveResidues>
 VAL166  LYS551  ARG553  GLY616  TRP617  ASP618  TYR619  PRO620  LYS621  CYS622 
 ASP623  PHE694  ASN695  SER759  ASP760  ASP761  ALA762  ILE779  LEU786  VAL792 
 PHE793  MET794  SER795  GLU796  ALA797  LYS798  CYS799  TRP800  GLU811  SER814 

> <Gold.Protein.RotatedAtoms>
  152.1106  133.4298  159.4628 H   0  0  0  0  0  0  0  0  0  0  0  0  # atno 6907 bound_to 6896
  150.6867  134.2653  159.4575 H   0  0  0  0  0  0  0  0  0  0  0  0  # atno 6908 bound_to 6896
  152.0521  134.9646  160.0625 H   0  0  0  0  0  0  0  0  0  0  0  0  # atno 6909 bound_to 6896
  145.5079  139.2276  143.2740 H   0  0  0  0  0  0  0  0  0  0  0  0  # atno 7974 bound_to 7965
  155.0727  140.0393  157.2614 H   0  0  0  0  0  0  0  0  0  0  0  0  # atno 8008 bound_to 7997
  154.6969  140.2665  155.6733 H   0  0  0  0  0  0  0  0  0  0  0  0  # atno 8009 bound_to 7997
  156.2747  140.2748  156.1567 H   0  0  0  0  0  0  0  0  0  0  0  0  # atno 8010 bound_to 7997
  139.5505  144.6809  151.4340 H   0  0  0  0  0  0  0  0  0  0  0  0  # atno 10167 bound_to 10162
  156.8714  130.9785  151.3073 H   0  0  0  0  0  0  0  0  0  0  0  0  # atno 10718 bound_to 10713
  154.7434  135.3074  154.8688 H   0  0  0  0  0  0  0  0  0  0  0  0  # atno 10763 bound_to 10752
  153.9495  135.6765  153.4748 H   0  0  0  0  0  0  0  0  0  0  0  0  # atno 10764 bound_to 10752
  153.1032  135.4902  154.8829 H   0  0  0  0  0  0  0  0  0  0  0  0  # atno 10765 bound_to 10752
  139.9030  134.9593  156.7144 H   0  0  0  0  0  0  0  0  0  0  0  0  # atno 11005 bound_to 11000
  146.2185  140.5884  142.9028 LP  0  0  0  0  0  0  0  0  0  0  0  0  # atno 17320 bound_to 7965
  144.7743  140.5706  143.6648 LP  0  0  0  0  0  0  0  0  0  0  0  0  # atno 17321 bound_to 7965
  140.6766  143.8177  150.7066 LP  0  0  0  0  0  0  0  0  0  0  0  0  # atno 17342 bound_to 10162
  140.1617  143.4270  152.2062 LP  0  0  0  0  0  0  0  0  0  0  0  0  # atno 17343 bound_to 10162
  157.6194  130.8643  149.9082 LP  0  0  0  0  0  0  0  0  0  0  0  0  # atno 17370 bound_to 10713
  156.0725  130.3683  150.0747 LP  0  0  0  0  0  0  0  0  0  0  0  0  # atno 17371 bound_to 10713
  140.7050  133.9273  155.8048 LP  0  0  0  0  0  0  0  0  0  0  0  0  # atno 17394 bound_to 11000
  141.0343  134.0712  157.3978 LP  0  0  0  0  0  0  0  0  0  0  0  0  # atno 17395 bound_to 11000

$$$$
