AV-unprocessed.smi:14|AV-procd|sdf|78|dock4
  -GOLD-   2262015203D 1   1.00000     0.00000
 Structure written by MMmdl.
 57 60  0  0  0  0  0  0  0  0  1 V2000
  149.9645  138.3203  155.1418 N   0  0  0  0  0  0  0  0  0  0  0  0
  149.0228  138.0588  155.7611 C   0  0  0  0  0  0  0  0  0  0  0  0
  147.8264  137.7257  156.5479 C   0  0  0  0  0  0  0  0  0  0  0  0
  148.0677  136.5471  157.5038 C   0  0  0  0  0  0  0  0  0  0  0  0
  146.8334  136.0426  158.1100 N   0  0  0  0  0  0  0  0  0  0  0  0
  146.4431  136.6209  159.3978 C   0  0  0  0  0  0  0  0  0  0  0  0
  147.3212  136.1658  160.5826 C   0  0  1  0  0  0  0  0  0  0  0  0
  146.9076  136.7045  161.9404 C   0  0  0  0  0  0  0  0  0  0  0  0
  147.5643  135.7155  162.8987 C   0  0  0  0  0  0  0  0  0  0  0  0
  147.6445  134.4798  162.1949 O   0  0  0  0  0  0  0  0  0  0  0  0
  147.2337  134.6627  160.8446 C   0  0  0  0  0  0  0  0  0  0  0  0
  145.8140  135.6620  157.2927 C   0  0  0  0  0  0  0  0  0  0  0  0
  144.5683  135.4869  157.8115 N   0  0  0  0  0  0  0  0  0  0  0  0
  143.5611  135.0779  157.0362 C   0  0  0  0  0  0  0  0  0  0  0  0
  143.5758  134.7913  155.7343 N   0  0  0  0  0  0  0  0  0  0  0  0
  144.8155  134.9778  155.1997 C   0  0  0  0  0  0  0  0  0  0  0  0
  145.9800  135.4048  155.9006 C   0  0  0  0  0  0  0  0  0  0  0  0
  147.0544  135.4779  155.0220 N   0  0  0  0  0  0  0  0  0  0  0  0
  146.5597  135.0983  153.8764 C   0  0  0  0  0  0  0  0  0  0  0  0
  145.2165  134.7963  153.8865 N   0  0  0  0  0  0  0  0  0  0  0  0
  144.4186  134.3447  152.7541 C   0  0  0  0  0  0  0  0  0  0  0  0
  145.1085  134.4664  151.3578 C   0  0  0  0  0  0  0  0  0  0  0  0
  145.5668  135.9377  151.1509 C   0  0  0  0  0  0  0  0  0  0  0  0
  144.5402  136.8851  151.3694 O   0  0  0  0  0  0  0  0  0  0  0  0
  146.3341  133.5161  151.3201 C   0  0  0  0  0  0  0  0  0  0  0  0
  145.9331  132.0308  151.2503 C   0  0  0  0  0  0  0  0  0  0  0  0
  145.0896  131.8079  150.1273 O   0  0  0  0  0  0  0  0  0  0  0  0
  143.8691  132.5341  150.2003 C   0  0  0  0  0  0  0  0  0  0  0  0
  144.1575  134.0470  150.2068 C   0  0  0  0  0  0  0  0  0  0  0  0
  147.5294  138.6256  157.0852 H   0  0  0  0  0  0  0  0  0  0  0  0
  147.0247  137.4876  155.8484 H   0  0  0  0  0  0  0  0  0  0  0  0
  148.5458  135.7383  156.9501 H   0  0  0  0  0  0  0  0  0  0  0  0
  148.7728  136.8344  158.2849 H   0  0  0  0  0  0  0  0  0  0  0  0
  146.4120  137.7079  159.3536 H   0  0  0  0  0  0  0  0  0  0  0  0
  145.4133  136.3174  159.5894 H   0  0  0  0  0  0  0  0  0  0  0  0
  148.3661  136.4205  160.3987 H   0  0  0  0  0  0  0  0  0  0  0  0
  147.2331  137.7292  162.1180 H   0  0  0  0  0  0  0  0  0  0  0  0
  145.8224  136.6683  162.0498 H   0  0  0  0  0  0  0  0  0  0  0  0
  148.5764  136.0389  163.1451 H   0  0  0  0  0  0  0  0  0  0  0  0
  147.0065  135.6086  163.8294 H   0  0  0  0  0  0  0  0  0  0  0  0
  146.2043  134.3136  160.7486 H   0  0  0  0  0  0  0  0  0  0  0  0
  147.8516  134.0817  160.1595 H   0  0  0  0  0  0  0  0  0  0  0  0
  142.6079  134.9597  157.5301 H   0  0  0  0  0  0  0  0  0  0  0  0
  147.1638  135.0357  152.9828 H   0  0  0  0  0  0  0  0  0  0  0  0
  144.1551  133.3024  152.9396 H   0  0  0  0  0  0  0  0  0  0  0  0
  143.4748  134.8871  152.7827 H   0  0  0  0  0  0  0  0  0  0  0  0
  146.3810  136.1904  151.8298 H   0  0  0  0  0  0  0  0  0  0  0  0
  145.9431  136.0784  150.1370 H   0  0  0  0  0  0  0  0  0  0  0  0
  144.4556  137.4208  150.5953 H   0  0  0  0  0  0  0  0  0  0  0  0
  146.9495  133.7248  150.4447 H   0  0  0  0  0  0  0  0  0  0  0  0
  146.9774  133.6881  152.1837 H   0  0  0  0  0  0  0  0  0  0  0  0
  146.8248  131.4136  151.1407 H   0  0  0  0  0  0  0  0  0  0  0  0
  145.4404  131.7004  152.1649 H   0  0  0  0  0  0  0  0  0  0  0  0
  143.2609  132.2778  149.3329 H   0  0  0  0  0  0  0  0  0  0  0  0
  143.3022  132.2249  151.0781 H   0  0  0  0  0  0  0  0  0  0  0  0
  143.2255  134.6101  150.2435 H   0  0  0  0  0  0  0  0  0  0  0  0
  144.6092  134.2939  149.2458 H   0  0  0  0  0  0  0  0  0  0  0  0
  1  2  3  0  0  0  0
  2  3  1  0  0  0  0
  3  4  1  0  0  0  0
  3 30  1  0  0  0  0
  3 31  1  0  0  0  0
  4  5  1  0  0  0  0
  4 32  1  0  0  0  0
  4 33  1  0  0  0  0
  5  6  1  0  0  0  0
  5 12  1  0  0  0  0
  6  7  1  0  0  0  0
  6 34  1  0  0  0  0
  6 35  1  0  0  0  0
  7 11  1  0  0  0  0
  7  8  1  0  0  0  0
  7 36  1  0  0  0  0
  8  9  1  0  0  0  0
  8 37  1  0  0  0  0
  8 38  1  0  0  0  0
  9 10  1  0  0  0  0
  9 39  1  0  0  0  0
  9 40  1  0  0  0  0
 10 11  1  0  0  0  0
 11 41  1  0  0  0  0
 11 42  1  0  0  0  0
 12 17  1  0  0  0  0
 12 13  2  0  0  0  0
 13 14  1  0  0  0  0
 14 15  2  0  0  0  0
 14 43  1  0  0  0  0
 15 16  1  0  0  0  0
 16 20  1  0  0  0  0
 16 17  2  0  0  0  0
 17 18  1  0  0  0  0
 18 19  2  0  0  0  0
 19 20  1  0  0  0  0
 19 44  1  0  0  0  0
 20 21  1  0  0  0  0
 21 22  1  0  0  0  0
 21 45  1  0  0  0  0
 21 46  1  0  0  0  0
 22 29  1  0  0  0  0
 22 23  1  0  0  0  0
 22 25  1  0  0  0  0
 23 24  1  0  0  0  0
 23 47  1  0  0  0  0
 23 48  1  0  0  0  0
 24 49  1  0  0  0  0
 25 26  1  0  0  0  0
 25 50  1  0  0  0  0
 25 51  1  0  0  0  0
 26 27  1  0  0  0  0
 26 52  1  0  0  0  0
 26 53  1  0  0  0  0
 27 28  1  0  0  0  0
 28 29  1  0  0  0  0
 28 54  1  0  0  0  0
 28 55  1  0  0  0  0
 29 56  1  0  0  0  0
 29 57  1  0  0  0  0
M  END
> <s_m_source_file>
AV-unprocessed.smi

> <i_m_source_file_index>
14

> <i_lp_mmshare_version>
43012

> <i_f3d_flags>
0

> <s_epik_input>
W0NIMl0xT1tDSDJdW0NIMl1bQ0BIXTFbQ0gyXU4oW0NIMl1bQ0gyXUMjTiljKG5bY0hdbjIpYyhjMjMpbltjSF1uM1tDSDJdQzQoW0NIMl1bT0hdKVtDSDJdW0NIMl1PW0NIMl1bQ0gyXTQ=

> <s_epik_cmdline>
J2VwaWtfcHl0aG9uJywgJy1waCcsICc3LjAnLCAnLXRuJywgJzgnLCAnLW1hJywgJzIwMCcsICctbWV0YWxfYmluZGluZycsICctaW1hZScsICc8aW5maWxlLm1hZT4nLCAnLW9tYWUnLCAnPG91dGZpbGUubWFlPic=

> <r_lp_tautomer_probability>
1

> <r_epik_Ionization_Penalty>
0.000542547

> <r_epik_Ionization_Penalty_Charging>
0

> <r_epik_Ionization_Penalty_Neutral>
0.000542547

> <r_epik_State_Penalty>
0.000265709

> <r_epik_Charging_Adjusted_Penalty>
0.000265709

> <i_epik_Tot_Q>
0

> <i_epik_Tot_abs_Q>
0

> <r_epik_Metal_State_Penalty>
-0

> <b_epik_Metal_Only>
0

> <s_lp_Force_Field>
OPLS_2005

> <r_lp_Energy>
43.0361

> <b_lp_Chiralities_Consistent>
1

> <s_lp_Variant>
AV-unprocessed.smi:14-2

> <Gold.Version>
5.8.1

> <Gold.Id.Protein>
6NUR|6NUR_protein|mol2

> <Gold.PLP.Fitness>
41.5681

> <Gold.PLP.PLP>
-32.9722

> <Gold.PLP.part.hbond>
-0.6209

> <Gold.PLP.part.metal>
0.0000

> <Gold.PLP.part.buried>
-7.5175

> <Gold.PLP.part.nonpolar>
-26.2388

> <Gold.PLP.part.repulsive>
0.3931

> <Gold.PLP.ligand.clash>
0.0000

> <Gold.PLP.ligand.torsion>
0.7436

> <Gold.PLP.Chemscore.Hbond>
1.0000

> <Gold.PLP.Chemscore.CHOScore>
2.0000

> <Gold.PLP.Chemscore.Metal>
0.0000

> <Gold.Chemscore.Hbonds>
donor molecule, donor type, donor heavy atom, donor atom, acceptor molecule, acceptor atom, score
      L1  H    24    49       P1 10171  0.98
      L1  C    14    43       P1 11000  1.00
      L1  C    19    44       P1  7948  1.00

> <Gold.PLP.Chemscore.Internal.Correction>
1.0831

> <Gold.Rescore>
     Score         DG    S(hbond)    S(metal)    S(lipo)     H(rot)  DE(clash)    DE(int)     intcor
      6.79     -10.06       1.00        0.00      81.85       3.26       0.00       3.26       ----

> <Gold.Chemscore.Fitness>
6.7919

> <Gold.Chemscore.DG>
-10.0583

> <Gold.Chemscore.ZeroCoef>
-5.4800

> <Gold.Chemscore.Hbond>
0.9986

> <Gold.Chemscore.Metal>
0.0000

> <Gold.Chemscore.Lipo>
81.8519

> <Gold.Chemscore.Internal_Hbond>
0.0000

> <Gold.Chemscore.DEClash>
0.0038

> <Gold.Chemscore.DEInternal>
3.2626

> <Gold.Chemscore.Rot>
3.2553

> <Gold.Chemscore.Internal.Correction>
   9.000000E+99

> <Gold.Chemscore.Hbonds>
donor molecule, donor type, donor heavy atom, donor atom, acceptor molecule, acceptor atom, score
      L1  H    24    49       P1 10171  0.88

> <Gold.Chemscore.Hbond.Weighted>
-3.3352

> <Gold.Chemscore.Metal.Weighted>
-0.0000

> <Gold.Chemscore.Lipo.Weighted>
-9.5767

> <Gold.Chemscore.Internal_Hbond.Weighted>
0.0000

> <Gold.Chemscore.DEClash.Weighted>
0.0038

> <Gold.Chemscore.DEInternal.Weighted>
3.2626

> <Gold.Chemscore.Rot.Weighted>
8.3336

> <Gold.Chemscore.Internal.Correction.Weighted>
   9.000000E+99

> <Gold.Protein.RotatedTorsions>
[ 6907 6896 6895 6894 ] final   63.41 input  -60.11 | X-H torsion
[ 7974 7965 7964 7962 ] final  -84.85 input  175.53 | X-H torsion
[ 8008 7997 7996 7995 ] final  -27.36 input   59.86 | X-H torsion
[ 10167 10162 10161 10158 ] final -128.89 input  -65.29 | X-H torsion
[ 10718 10713 10712 10709 ] final   34.48 input   66.30 | X-H torsion
[ 10763 10752 10751 10750 ] final  -20.22 input  -60.55 | X-H torsion
[ 11005 11000 10999 10996 ] final   65.76 input  -57.11 | X-H torsion

> <Gold.Protein.ActiveResidues>
 VAL166  LYS551  ARG553  GLY616  TRP617  ASP618  TYR619  PRO620  LYS621  CYS622 
 ASP623  PHE694  ASN695  SER759  ASP760  ASP761  ALA762  ILE779  LEU786  VAL792 
 PHE793  MET794  SER795  GLU796  ALA797  LYS798  CYS799  TRP800  GLU811  SER814 

> <Gold.Protein.RotatedAtoms>
  152.4250  134.5884  159.9967 H   0  0  0  0  0  0  0  0  0  0  0  0  # atno 6907 bound_to 6896
  151.6023  133.3349  159.3058 H   0  0  0  0  0  0  0  0  0  0  0  0  # atno 6908 bound_to 6896
  150.8140  134.7348  159.6778 H   0  0  0  0  0  0  0  0  0  0  0  0  # atno 6909 bound_to 6896
  145.5011  140.9547  143.1759 H   0  0  0  0  0  0  0  0  0  0  0  0  # atno 7974 bound_to 7965
  154.4381  140.1874  156.0920 H   0  0  0  0  0  0  0  0  0  0  0  0  # atno 8008 bound_to 7997
  156.0358  140.3325  155.7163 H   0  0  0  0  0  0  0  0  0  0  0  0  # atno 8009 bound_to 7997
  155.5773  140.0618  157.2783 H   0  0  0  0  0  0  0  0  0  0  0  0  # atno 8010 bound_to 7997
  139.9455  143.6114  152.2491 H   0  0  0  0  0  0  0  0  0  0  0  0  # atno 10167 bound_to 10162
  157.3109  130.7398  149.6724 H   0  0  0  0  0  0  0  0  0  0  0  0  # atno 10718 bound_to 10713
  153.6170  135.6994  153.5325 H   0  0  0  0  0  0  0  0  0  0  0  0  # atno 10763 bound_to 10752
  153.2969  135.4140  155.1217 H   0  0  0  0  0  0  0  0  0  0  0  0  # atno 10764 bound_to 10752
  154.8551  135.3639  154.5710 H   0  0  0  0  0  0  0  0  0  0  0  0  # atno 10765 bound_to 10752
  139.9874  134.6646  156.0151 H   0  0  0  0  0  0  0  0  0  0  0  0  # atno 11005 bound_to 11000
  144.7779  139.6589  143.7167 LP  0  0  0  0  0  0  0  0  0  0  0  0  # atno 17320 bound_to 7965
  146.2225  139.5662  142.9609 LP  0  0  0  0  0  0  0  0  0  0  0  0  # atno 17321 bound_to 7965
  139.6670  144.7662  151.1855 LP  0  0  0  0  0  0  0  0  0  0  0  0  # atno 17342 bound_to 10162
  140.7598  143.5923  150.8784 LP  0  0  0  0  0  0  0  0  0  0  0  0  # atno 17343 bound_to 10162
  155.9678  130.4252  150.4641 LP  0  0  0  0  0  0  0  0  0  0  0  0  # atno 17370 bound_to 10713
  157.2639  131.0573  151.2302 LP  0  0  0  0  0  0  0  0  0  0  0  0  # atno 17371 bound_to 10713
  141.1537  133.6545  156.4092 LP  0  0  0  0  0  0  0  0  0  0  0  0  # atno 17394 bound_to 11000
  140.4975  134.6517  157.5235 LP  0  0  0  0  0  0  0  0  0  0  0  0  # atno 17395 bound_to 11000

$$$$
