AV-unprocessed.smi:3032|AV-procd|sdf|11563|dock4
  -GOLD-   2272016533D 1   1.00000     0.00000
 Structure written by MMmdl.
 37 38  0  0  0  0  0  0  0  0  1 V2000
  153.3586  142.2961  161.4699 C   0  0  0  0  0  0  0  0  0  0  0  0
  152.9210  142.8703  160.1150 C   0  0  2  0  0  0  0  0  0  0  0  0
  152.2824  144.2638  160.2740 C   0  0  0  0  0  0  0  0  0  0  0  0
  151.8368  144.8385  158.9200 C   0  0  0  0  0  0  0  0  0  0  0  0
  150.8806  143.8786  158.1957 C   0  0  0  0  0  0  0  0  0  0  0  0
  151.5183  142.4856  158.0168 C   0  0  2  0  0  0  0  0  0  0  0  0
  150.5504  141.5332  157.3028 C   0  0  0  0  0  0  0  0  0  0  0  0
  150.6314  140.3168  157.4768 O   0  0  0  0  0  0  0  0  0  0  0  0
  149.6297  142.1020  156.5099 N   0  0  0  0  0  0  0  0  0  0  0  0
  148.5792  141.3838  155.7951 C   0  0  0  0  0  0  0  0  0  0  0  0
  149.0273  140.8928  154.4034 C   0  0  0  0  0  0  0  0  0  0  0  0
  149.6823  139.5478  154.4239 C   0  0  0  0  0  0  0  0  0  0  0  0
  148.9556  138.4298  154.4696 N   0  0  0  0  0  0  0  0  0  0  0  0
  149.9090  137.4743  154.5141 N   0  0  0  0  0  0  0  0  0  0  0  0
  151.1049  138.0606  154.5035 C   0  0  0  0  0  0  0  0  0  0  0  0
  151.0414  139.3842  154.4528 N   0  0  0  0  0  0  0  0  0  0  0  0
  151.9558  141.9163  159.3837 C   0  0  0  0  0  0  0  0  0  0  0  0
  152.5068  142.1618  162.1376 H   0  0  0  0  0  0  0  0  0  0  0  0
  154.0693  142.9578  161.9657 H   0  0  0  0  0  0  0  0  0  0  0  0
  153.8419  141.3266  161.3478 H   0  0  0  0  0  0  0  0  0  0  0  0
  153.8160  142.9787  159.5007 H   0  0  0  0  0  0  0  0  0  0  0  0
  151.4218  144.2010  160.9416 H   0  0  0  0  0  0  0  0  0  0  0  0
  152.9891  144.9475  160.7459 H   0  0  0  0  0  0  0  0  0  0  0  0
  151.3521  145.8040  159.0683 H   0  0  0  0  0  0  0  0  0  0  0  0
  152.7112  145.0245  158.2952 H   0  0  0  0  0  0  0  0  0  0  0  0
  149.9526  143.7984  158.7643 H   0  0  0  0  0  0  0  0  0  0  0  0
  150.6120  144.2964  157.2243 H   0  0  0  0  0  0  0  0  0  0  0  0
  152.4091  142.5977  157.3957 H   0  0  0  0  0  0  0  0  0  0  0  0
  149.6346  143.1081  156.4237 H   0  0  0  0  0  0  0  0  0  0  0  0
  148.2946  140.5271  156.4063 H   0  0  0  0  0  0  0  0  0  0  0  0
  147.6889  142.0085  155.7081 H   0  0  0  0  0  0  0  0  0  0  0  0
  148.1675  140.8596  153.7333 H   0  0  0  0  0  0  0  0  0  0  0  0
  149.7208  141.6114  153.9647 H   0  0  0  0  0  0  0  0  0  0  0  0
  152.0349  137.5125  154.5363 H   0  0  0  0  0  0  0  0  0  0  0  0
  152.4367  140.9473  159.2420 H   0  0  0  0  0  0  0  0  0  0  0  0
  151.0816  141.7364  160.0119 H   0  0  0  0  0  0  0  0  0  0  0  0
  149.7034  136.4862  154.5527 H   0  0  0  0  0  0  0  0  0  0  0  0
  1  2  1  0  0  0  0
  1 18  1  0  0  0  0
  1 19  1  0  0  0  0
  1 20  1  0  0  0  0
  2 17  1  0  0  0  0
  2  3  1  0  0  0  0
  2 21  1  0  0  0  0
  3  4  1  0  0  0  0
  3 22  1  0  0  0  0
  3 23  1  0  0  0  0
  4  5  1  0  0  0  0
  4 24  1  0  0  0  0
  4 25  1  0  0  0  0
  5  6  1  0  0  0  0
  5 26  1  0  0  0  0
  5 27  1  0  0  0  0
  6  7  1  0  0  0  0
  6 17  1  0  0  0  0
  6 28  1  0  0  0  0
  7  8  2  0  0  0  0
  7  9  1  0  0  0  0
  9 10  1  0  0  0  0
  9 29  1  0  0  0  0
 10 11  1  0  0  0  0
 10 30  1  0  0  0  0
 10 31  1  0  0  0  0
 11 32  1  0  0  0  0
 11 33  1  0  0  0  0
 11 12  1  0  0  0  0
 12 16  1  0  0  0  0
 12 13  2  0  0  0  0
 13 14  1  0  0  0  0
 14 15  1  0  0  0  0
 14 37  1  0  0  0  0
 15 16  2  0  0  0  0
 15 34  1  0  0  0  0
 17 35  1  0  0  0  0
 17 36  1  0  0  0  0
M  END
> <s_m_source_file>
AV-unprocessed.smi

> <i_m_source_file_index>
3032

> <i_lp_mmshare_version>
43012

> <i_f3d_flags>
0

> <s_epik_input>
W0NIM11bQ0BASF0xW0NIMl1bQ0gyXVtDSDJdW0NASF0oW0NIMl0xKUMoPU8pW05IXVtDSDJdW0NIMl1jMm5uW2NIXVtuSF0y

> <s_epik_cmdline>
J2VwaWtfcHl0aG9uJywgJy1waCcsICc3LjAnLCAnLXRuJywgJzgnLCAnLW1hJywgJzIwMCcsICctbWV0YWxfYmluZGluZycsICctaW1hZScsICc8aW5maWxlLm1hZT4nLCAnLW9tYWUnLCAnPG91dGZpbGUubWFlPic=

> <r_epik_Ionization_Penalty>
0.000752022

> <r_epik_Ionization_Penalty_Charging>
0

> <r_epik_Ionization_Penalty_Neutral>
0.000752022

> <r_epik_State_Penalty>
0.639926

> <r_epik_Charging_Adjusted_Penalty>
0.639926

> <i_epik_Tot_Q>
0

> <i_epik_Tot_abs_Q>
0

> <r_epik_Metal_State_Penalty>
0.76532

> <b_epik_Metal_Only>
0

> <s_lp_Force_Field>
OPLS_2005

> <r_lp_Energy>
8.90132

> <b_lp_Chiralities_Consistent>
1

> <s_lp_Variant>
AV-unprocessed.smi:3032-7

> <Gold.Version>
5.8.1

> <Gold.Id.Protein>
6NUR|6NUR_protein|mol2

> <Gold.PLP.Fitness>
42.7977

> <Gold.PLP.PLP>
-39.5770

> <Gold.PLP.part.hbond>
-2.9607

> <Gold.PLP.part.metal>
0.0000

> <Gold.PLP.part.buried>
-5.4854

> <Gold.PLP.part.nonpolar>
-31.9147

> <Gold.PLP.part.repulsive>
0.4057

> <Gold.PLP.ligand.clash>
0.0000

> <Gold.PLP.ligand.torsion>
1.3910

> <Gold.PLP.Chemscore.Hbond>
1.9920

> <Gold.PLP.Chemscore.CHOScore>
0.0000

> <Gold.PLP.Chemscore.Metal>
0.0000

> <Gold.Chemscore.Hbonds>
donor molecule, donor type, donor heavy atom, donor atom, acceptor molecule, acceptor atom, score
      L1  H     9    29       P1  8028  0.99
      P1  H  7989  7998       L1    16  1.00

> <Gold.PLP.Chemscore.Internal.Correction>
0.0266

> <Gold.Rescore>
     Score         DG    S(hbond)    S(metal)    S(lipo)     H(rot)  DE(clash)    DE(int)     intcor
     15.39     -16.68       1.94        0.00      89.48       2.25       0.01       1.28       ----

> <Gold.Chemscore.Fitness>
15.3896

> <Gold.Chemscore.DG>
-16.6817

> <Gold.Chemscore.ZeroCoef>
-5.4800

> <Gold.Chemscore.Hbond>
1.9440

> <Gold.Chemscore.Metal>
0.0000

> <Gold.Chemscore.Lipo>
89.4783

> <Gold.Chemscore.Internal_Hbond>
0.0000

> <Gold.Chemscore.DEClash>
0.0117

> <Gold.Chemscore.DEInternal>
1.2804

> <Gold.Chemscore.Rot>
2.2501

> <Gold.Chemscore.Internal.Correction>
   9.000000E+99

> <Gold.Chemscore.Hbonds>
donor molecule, donor type, donor heavy atom, donor atom, acceptor molecule, acceptor atom, score
      L1  H     9    29       P1  8028  0.94
      P1  H  7989  7998       L1    16  0.35

> <Gold.Chemscore.Hbond.Weighted>
-6.4930

> <Gold.Chemscore.Metal.Weighted>
-0.0000

> <Gold.Chemscore.Lipo.Weighted>
-10.4690

> <Gold.Chemscore.Internal_Hbond.Weighted>
0.0000

> <Gold.Chemscore.DEClash.Weighted>
0.0117

> <Gold.Chemscore.DEInternal.Weighted>
1.2804

> <Gold.Chemscore.Rot.Weighted>
5.7603

> <Gold.Chemscore.Internal.Correction.Weighted>
   9.000000E+99

> <Gold.Protein.RotatedTorsions>
[ 6907 6896 6895 6894 ] final  134.31 input  -60.11 | X-H torsion
[ 7974 7965 7964 7962 ] final -172.78 input  175.53 | X-H torsion
[ 8008 7997 7996 7995 ] final   26.28 input   59.86 | X-H torsion
[ 10167 10162 10161 10158 ] final -100.15 input  -65.29 | X-H torsion
[ 10718 10713 10712 10709 ] final -176.65 input   66.30 | X-H torsion
[ 10763 10752 10751 10750 ] final -107.65 input  -60.55 | X-H torsion
[ 11005 11000 10999 10996 ] final  152.32 input  -57.11 | X-H torsion

> <Gold.Protein.ActiveResidues>
 VAL166  LYS551  ARG553  GLY616  TRP617  ASP618  TYR619  PRO620  LYS621  CYS622 
 ASP623  PHE694  ASN695  SER759  ASP760  ASP761  ALA762  ILE779  LEU786  VAL792 
 PHE793  MET794  SER795  GLU796  ALA797  LYS798  CYS799  TRP800  GLU811  SER814 

> <Gold.Protein.RotatedAtoms>
  152.3127  133.5769  159.5691 H   0  0  0  0  0  0  0  0  0  0  0  0  # atno 6907 bound_to 6896
  150.7331  134.0129  159.3684 H   0  0  0  0  0  0  0  0  0  0  0  0  # atno 6908 bound_to 6896
  151.8020  135.0706  160.0452 H   0  0  0  0  0  0  0  0  0  0  0  0  # atno 6909 bound_to 6896
  144.7143  140.1721  143.6366 H   0  0  0  0  0  0  0  0  0  0  0  0  # atno 7974 bound_to 7965
  155.0248  140.3152  155.4780 H   0  0  0  0  0  0  0  0  0  0  0  0  # atno 8008 bound_to 7997
  156.2885  140.2191  156.5310 H   0  0  0  0  0  0  0  0  0  0  0  0  # atno 8009 bound_to 7997
  154.7420  140.0473  157.0807 H   0  0  0  0  0  0  0  0  0  0  0  0  # atno 8010 bound_to 7997
  140.2550  143.3446  152.0680 H   0  0  0  0  0  0  0  0  0  0  0  0  # atno 10167 bound_to 10162
  156.8179  130.9609  151.3113 H   0  0  0  0  0  0  0  0  0  0  0  0  # atno 10718 bound_to 10713
  154.8088  135.4667  154.0462 H   0  0  0  0  0  0  0  0  0  0  0  0  # atno 10763 bound_to 10752
  153.1909  135.6855  153.8360 H   0  0  0  0  0  0  0  0  0  0  0  0  # atno 10764 bound_to 10752
  153.7879  135.3247  155.3352 H   0  0  0  0  0  0  0  0  0  0  0  0  # atno 10765 bound_to 10752
  140.1297  134.8810  157.2187 H   0  0  0  0  0  0  0  0  0  0  0  0  # atno 11005 bound_to 11000
  145.8934  139.2389  143.1536 LP  0  0  0  0  0  0  0  0  0  0  0  0  # atno 17320 bound_to 7965
  145.9881  140.8626  143.0080 LP  0  0  0  0  0  0  0  0  0  0  0  0  # atno 17321 bound_to 7965
  139.5034  144.6755  151.6138 LP  0  0  0  0  0  0  0  0  0  0  0  0  # atno 17342 bound_to 10162
  140.6011  143.9608  150.6387 LP  0  0  0  0  0  0  0  0  0  0  0  0  # atno 17343 bound_to 10162
  157.6472  130.8854  149.9562 LP  0  0  0  0  0  0  0  0  0  0  0  0  # atno 17370 bound_to 10713
  156.1006  130.3656  150.0225 LP  0  0  0  0  0  0  0  0  0  0  0  0  # atno 17371 bound_to 10713
  140.2858  134.3298  155.7329 LP  0  0  0  0  0  0  0  0  0  0  0  0  # atno 17394 bound_to 11000
  141.2168  133.7505  156.9430 LP  0  0  0  0  0  0  0  0  0  0  0  0  # atno 17395 bound_to 11000

$$$$
