AV-unprocessed.smi:3222|AV-procd|sdf|12306|dock7
  -GOLD-   2272018153D 1   1.00000     0.00000
 Structure written by MMmdl.
 41 42  0  0  0  0  0  0  0  0  2 V2000
  151.2662  140.3794  155.6824 C   0  0  0  0  0  0  0  0  0  0  0  0
  150.7663  141.8097  155.9424 C   0  0  1  0  0  0  0  0  0  0  0  0
  149.7541  142.1717  154.9236 N   0  3  0  0  0  0  0  0  0  0  0  0
  148.5831  141.2766  154.8588 C   0  0  0  0  0  0  0  0  0  0  0  0
  147.7301  141.5845  153.6186 C   0  0  0  0  0  0  0  0  0  0  0  0
  146.5271  142.3375  153.9625 N   0  0  0  0  0  0  0  0  0  0  0  0
  146.1633  143.5346  153.2233 C   0  0  0  0  0  0  0  0  0  0  0  0
  144.9662  144.1240  153.9830 C   0  0  0  0  0  0  0  0  0  0  0  0
  144.4930  143.0217  154.9370 C   0  0  0  0  0  0  0  0  0  0  0  0
  145.6271  142.0117  154.8976 C   0  0  0  0  0  0  0  0  0  0  0  0
  145.6779  141.0336  155.6417 O   0  0  0  0  0  0  0  0  0  0  0  0
  150.2149  142.0006  157.3796 C   0  0  1  0  0  0  0  0  0  0  0  0
  149.9267  140.6662  158.0936 C   0  0  0  0  0  0  0  0  0  0  0  0
  151.0390  142.8873  158.1960 N   0  0  0  0  0  0  0  0  0  0  0  0
  151.4265  144.1826  157.9185 C   0  0  0  0  0  0  0  0  0  0  0  0
  152.2072  144.6086  158.9544 C   0  0  0  0  0  0  0  0  0  0  0  0
  152.2463  143.4892  159.8308 C   0  0  0  0  0  0  0  0  0  0  0  0
  151.5526  142.4601  159.3726 N   0  0  0  0  0  0  0  0  0  0  0  0
  152.0082  140.0824  156.4241 H   0  0  0  0  0  0  0  0  0  0  0  0
  151.7356  140.3025  154.7013 H   0  0  0  0  0  0  0  0  0  0  0  0
  150.4532  139.6532  155.7158 H   0  0  0  0  0  0  0  0  0  0  0  0
  151.6273  142.4721  155.8351 H   0  0  0  0  0  0  0  0  0  0  0  0
  149.4342  143.1115  155.1087 H   0  0  0  0  0  0  0  0  0  0  0  0
  148.9295  140.2426  154.8334 H   0  0  0  0  0  0  0  0  0  0  0  0
  147.9875  141.3985  155.7646 H   0  0  0  0  0  0  0  0  0  0  0  0
  148.3167  142.1527  152.8952 H   0  0  0  0  0  0  0  0  0  0  0  0
  147.4412  140.6575  153.1201 H   0  0  0  0  0  0  0  0  0  0  0  0
  146.9950  144.2383  153.1709 H   0  0  0  0  0  0  0  0  0  0  0  0
  145.8827  143.2590  152.2057 H   0  0  0  0  0  0  0  0  0  0  0  0
  145.2786  144.9994  154.5539 H   0  0  0  0  0  0  0  0  0  0  0  0
  144.1751  144.4419  153.3028 H   0  0  0  0  0  0  0  0  0  0  0  0
  144.3257  143.3949  155.9478 H   0  0  0  0  0  0  0  0  0  0  0  0
  143.5759  142.5524  154.5796 H   0  0  0  0  0  0  0  0  0  0  0  0
  149.2491  142.4981  157.2773 H   0  0  0  0  0  0  0  0  0  0  0  0
  149.2396  140.0525  157.5106 H   0  0  0  0  0  0  0  0  0  0  0  0
  149.4669  140.8364  159.0677 H   0  0  0  0  0  0  0  0  0  0  0  0
  150.8336  140.0826  158.2546 H   0  0  0  0  0  0  0  0  0  0  0  0
  151.1190  144.6887  157.0151 H   0  0  0  0  0  0  0  0  0  0  0  0
  152.6797  145.5731  159.0685 H   0  0  0  0  0  0  0  0  0  0  0  0
  152.7575  143.3930  160.7774 H   0  0  0  0  0  0  0  0  0  0  0  0
  150.2090  142.1650  154.0211 H   0  0  0  0  0  0  0  0  0  0  0  0
  1  2  1  0  0  0  0
  1 19  1  0  0  0  0
  1 20  1  0  0  0  0
  1 21  1  0  0  0  0
  2  3  1  0  0  0  0
  2 12  1  0  0  0  0
  2 22  1  0  0  0  0
  3  4  1  0  0  0  0
  3 23  1  0  0  0  0
  3 41  1  0  0  0  0
  4  5  1  0  0  0  0
  4 24  1  0  0  0  0
  4 25  1  0  0  0  0
  5  6  1  0  0  0  0
  5 26  1  0  0  0  0
  5 27  1  0  0  0  0
  6 10  1  0  0  0  0
  6  7  1  0  0  0  0
  7  8  1  0  0  0  0
  7 28  1  0  0  0  0
  7 29  1  0  0  0  0
  8  9  1  0  0  0  0
  8 30  1  0  0  0  0
  8 31  1  0  0  0  0
  9 10  1  0  0  0  0
  9 32  1  0  0  0  0
  9 33  1  0  0  0  0
 10 11  2  0  0  0  0
 12 13  1  0  0  0  0
 12 14  1  0  0  0  0
 12 34  1  0  0  0  0
 13 35  1  0  0  0  0
 13 36  1  0  0  0  0
 13 37  1  0  0  0  0
 14 18  1  0  0  0  0
 14 15  1  0  0  0  0
 15 16  2  0  0  0  0
 15 38  1  0  0  0  0
 16 17  1  0  0  0  0
 16 39  1  0  0  0  0
 17 18  2  0  0  0  0
 17 40  1  0  0  0  0
M  CHG  1   3   1
M  END
> <s_m_source_file>
AV-unprocessed.smi

> <i_m_source_file_index>
3222

> <i_lp_mmshare_version>
43012

> <i_f3d_flags>
0

> <s_epik_input>
bjFbY0hdW2NIXVtjSF1uMVtDQEBIXShbQ0gzXSlbQ0BIXShbQ0gzXSlbTkhdW0NIMl1bQ0gyXU4yW0NIMl1bQ0gyXVtDSDJdQzI9Tw==

> <s_epik_cmdline>
J2VwaWtfcHl0aG9uJywgJy1waCcsICc3LjAnLCAnLXRuJywgJzgnLCAnLW1hJywgJzIwMCcsICctbWV0YWxfYmluZGluZycsICctaW1hZScsICc8aW5maWxlLm1hZT4nLCAnLW9tYWUnLCAnPG91dGZpbGUubWFlPic=

> <r_lp_tautomer_probability>
1

> <r_epik_Ionization_Penalty>
0.0064019

> <r_epik_Ionization_Penalty_Charging>
0.00639164

> <r_epik_Ionization_Penalty_Neutral>
1.02567e-05

> <r_epik_State_Penalty>
0.00472531

> <r_epik_Charging_Adjusted_Penalty>
0.011117

> <i_epik_Tot_Q>
1

> <i_epik_Tot_abs_Q>
1

> <r_epik_Metal_State_Penalty>
-0

> <b_epik_Metal_Only>
0

> <s_lp_Force_Field>
OPLS_2005

> <r_lp_Energy>
25.7217

> <b_lp_Chiralities_Consistent>
1

> <s_lp_Variant>
AV-unprocessed.smi:3222-4

> <Gold.Version>
5.8.1

> <Gold.Id.Protein>
6NUR|6NUR_protein|mol2

> <Gold.PLP.Fitness>
49.2154

> <Gold.PLP.PLP>
-43.7070

> <Gold.PLP.part.hbond>
-1.0000

> <Gold.PLP.part.metal>
0.0000

> <Gold.PLP.part.buried>
-5.4492

> <Gold.PLP.part.nonpolar>
-36.7363

> <Gold.PLP.part.repulsive>
0.2813

> <Gold.PLP.ligand.clash>
0.0000

> <Gold.PLP.ligand.torsion>
1.8589

> <Gold.PLP.Chemscore.Hbond>
2.0000

> <Gold.PLP.Chemscore.CHOScore>
1.0000

> <Gold.PLP.Chemscore.Metal>
0.0000

> <Gold.Chemscore.Hbonds>
donor molecule, donor type, donor heavy atom, donor atom, acceptor molecule, acceptor atom, score
      L1  H     3    23       P1  8028  2.00
      L1  C    15    38       P1  8028  0.89

> <Gold.PLP.Chemscore.Internal.Correction>
0.2263

> <Gold.Rescore>
     Score         DG    S(hbond)    S(metal)    S(lipo)     H(rot)  DE(clash)    DE(int)     intcor
     13.43     -15.19       1.00        0.00      98.06       1.99       0.15       1.61       ----

> <Gold.Chemscore.Fitness>
13.4297

> <Gold.Chemscore.DG>
-15.1906

> <Gold.Chemscore.ZeroCoef>
-5.4800

> <Gold.Chemscore.Hbond>
0.9995

> <Gold.Chemscore.Metal>
0.0000

> <Gold.Chemscore.Lipo>
98.0557

> <Gold.Chemscore.Internal_Hbond>
0.0000

> <Gold.Chemscore.DEClash>
0.1524

> <Gold.Chemscore.DEInternal>
1.6085

> <Gold.Chemscore.Rot>
1.9922

> <Gold.Chemscore.Internal.Correction>
   9.000000E+99

> <Gold.Chemscore.Hbonds>
donor molecule, donor type, donor heavy atom, donor atom, acceptor molecule, acceptor atom, score
      L1  H     3    23       P1  8028  1.00

> <Gold.Chemscore.Hbond.Weighted>
-3.3382

> <Gold.Chemscore.Metal.Weighted>
-0.0000

> <Gold.Chemscore.Lipo.Weighted>
-11.4725

> <Gold.Chemscore.Internal_Hbond.Weighted>
0.0000

> <Gold.Chemscore.DEClash.Weighted>
0.1524

> <Gold.Chemscore.DEInternal.Weighted>
1.6085

> <Gold.Chemscore.Rot.Weighted>
5.1002

> <Gold.Chemscore.Internal.Correction.Weighted>
   9.000000E+99

> <Gold.Protein.RotatedTorsions>
[ 6907 6896 6895 6894 ] final  178.72 input  -60.11 | X-H torsion
[ 7974 7965 7964 7962 ] final  -54.80 input  175.53 | X-H torsion
[ 8008 7997 7996 7995 ] final   91.15 input   59.86 | X-H torsion
[ 10167 10162 10161 10158 ] final  166.34 input  -65.29 | X-H torsion
[ 10718 10713 10712 10709 ] final -153.21 input   66.30 | X-H torsion
[ 10763 10752 10751 10750 ] final -103.71 input  -60.55 | X-H torsion
[ 11005 11000 10999 10996 ] final -150.70 input  -57.11 | X-H torsion

> <Gold.Protein.ActiveResidues>
 VAL166  LYS551  ARG553  GLY616  TRP617  ASP618  TYR619  PRO620  LYS621  CYS622 
 ASP623  PHE694  ASN695  SER759  ASP760  ASP761  ALA762  ILE779  LEU786  VAL792 
 PHE793  MET794  SER795  GLU796  ALA797  LYS798  CYS799  TRP800  GLU811  SER814 

> <Gold.Protein.RotatedAtoms>
  151.6833  133.3311  159.3224 H   0  0  0  0  0  0  0  0  0  0  0  0  # atno 6907 bound_to 6896
  150.7813  134.6762  159.6428 H   0  0  0  0  0  0  0  0  0  0  0  0  # atno 6908 bound_to 6896
  152.3871  134.6504  160.0174 H   0  0  0  0  0  0  0  0  0  0  0  0  # atno 6909 bound_to 6896
  145.8815  140.8141  142.9837 H   0  0  0  0  0  0  0  0  0  0  0  0  # atno 7974 bound_to 7965
  156.0204  140.3341  155.7033 H   0  0  0  0  0  0  0  0  0  0  0  0  # atno 8008 bound_to 7997
  155.6030  140.0657  157.2745 H   0  0  0  0  0  0  0  0  0  0  0  0  # atno 8009 bound_to 7997
  154.4314  140.1807  156.1181 H   0  0  0  0  0  0  0  0  0  0  0  0  # atno 8010 bound_to 7997
  139.4923  144.4038  151.9379 H   0  0  0  0  0  0  0  0  0  0  0  0  # atno 10167 bound_to 10162
  156.4827  130.8311  151.2537 H   0  0  0  0  0  0  0  0  0  0  0  0  # atno 10718 bound_to 10713
  154.7827  135.4813  153.9879 H   0  0  0  0  0  0  0  0  0  0  0  0  # atno 10763 bound_to 10752
  153.1516  135.6792  153.8881 H   0  0  0  0  0  0  0  0  0  0  0  0  # atno 10764 bound_to 10752
  153.8523  135.3165  155.3411 H   0  0  0  0  0  0  0  0  0  0  0  0  # atno 10765 bound_to 10752
  140.7374  134.3553  157.5154 H   0  0  0  0  0  0  0  0  0  0  0  0  # atno 11005 bound_to 11000
  144.6727  140.1391  143.7438 LP  0  0  0  0  0  0  0  0  0  0  0  0  # atno 17320 bound_to 7965
  145.9018  139.2435  143.1489 LP  0  0  0  0  0  0  0  0  0  0  0  0  # atno 17321 bound_to 7965
  140.3478  144.3126  150.5955 LP  0  0  0  0  0  0  0  0  0  0  0  0  # atno 17342 bound_to 10162
  140.5511  143.2206  151.7925 LP  0  0  0  0  0  0  0  0  0  0  0  0  # atno 17343 bound_to 10162
  157.7481  131.0039  150.3057 LP  0  0  0  0  0  0  0  0  0  0  0  0  # atno 17370 bound_to 10713
  156.3505  130.3830  149.7333 LP  0  0  0  0  0  0  0  0  0  0  0  0  # atno 17371 bound_to 10713
  139.8813  134.9058  156.2908 LP  0  0  0  0  0  0  0  0  0  0  0  0  # atno 17394 bound_to 11000
  140.9867  133.7234  156.0752 LP  0  0  0  0  0  0  0  0  0  0  0  0  # atno 17395 bound_to 11000

$$$$
