AV-unprocessed.smi:1839|AV-procd|sdf|7484|dock1
  -GOLD-   22720 9183D 1   1.00000     0.00000
 Structure written by MMmdl.
 46 47  0  0  0  0  0  0  0  0  1 V2000
  146.4123  134.8244  162.4923 C   0  0  0  0  0  0  0  0  0  0  0  0
  147.3304  134.9834  161.3644 N   0  0  0  0  0  0  0  0  0  0  0  0
  148.0407  133.7543  160.9903 C   0  0  0  0  0  0  0  0  0  0  0  0
  147.6868  136.2222  160.9422 C   0  0  0  0  0  0  0  0  0  0  0  0
  147.5351  137.2213  161.6483 O   0  0  0  0  0  0  0  0  0  0  0  0
  148.2557  136.2926  159.7153 N   0  0  0  0  0  0  0  0  0  0  0  0
  147.7804  135.5050  158.5682 C   0  0  0  0  0  0  0  0  0  0  0  0
  148.9848  134.9827  157.7648 C   0  0  0  0  0  0  0  0  0  0  0  0
  149.9035  136.1403  157.3360 C   0  0  0  0  0  0  0  0  0  0  0  0
  150.2820  137.0290  158.5409 C   0  0  1  0  0  0  0  0  0  0  0  0
  151.1108  138.2461  158.1127 C   0  0  0  0  0  0  0  0  0  0  0  0
  151.2440  138.5231  156.9204 O   0  0  0  0  0  0  0  0  0  0  0  0
  151.6394  138.9809  159.1027 N   0  0  0  0  0  0  0  0  0  0  0  0
  152.3460  140.2451  158.9256 C   0  0  0  0  0  0  0  0  0  0  0  0
  151.4688  141.3400  158.2820 C   0  0  0  0  0  0  0  0  0  0  0  0
  151.6589  142.7200  158.8929 C   0  0  0  0  0  0  0  0  0  0  0  0
  151.8735  143.8460  158.0698 C   0  0  0  0  0  0  0  0  0  0  0  0
  152.0707  145.0982  158.6840 C   0  0  0  0  0  0  0  0  0  0  0  0
  152.0484  145.1762  160.0902 C   0  0  0  0  0  0  0  0  0  0  0  0
  151.8260  143.9937  160.8234 C   0  0  0  0  0  0  0  0  0  0  0  0
  151.6339  142.7898  160.2437 N   0  0  0  0  0  0  0  0  0  0  0  0
  149.0097  137.4773  159.2927 C   0  0  0  0  0  0  0  0  0  0  0  0
  145.5968  135.5483  162.4497 H   0  0  0  0  0  0  0  0  0  0  0  0
  146.9421  134.9604  163.4358 H   0  0  0  0  0  0  0  0  0  0  0  0
  145.9595  133.8322  162.4965 H   0  0  0  0  0  0  0  0  0  0  0  0
  149.0690  133.9489  160.6822 H   0  0  0  0  0  0  0  0  0  0  0  0
  147.5258  133.2465  160.1749 H   0  0  0  0  0  0  0  0  0  0  0  0
  148.0945  133.0594  161.8295 H   0  0  0  0  0  0  0  0  0  0  0  0
  147.1405  134.6743  158.8666 H   0  0  0  0  0  0  0  0  0  0  0  0
  147.1605  136.1414  157.9350 H   0  0  0  0  0  0  0  0  0  0  0  0
  149.5498  134.2723  158.3690 H   0  0  0  0  0  0  0  0  0  0  0  0
  148.6406  134.4356  156.8868 H   0  0  0  0  0  0  0  0  0  0  0  0
  150.8005  135.7434  156.8594 H   0  0  0  0  0  0  0  0  0  0  0  0
  149.3888  136.7351  156.5797 H   0  0  0  0  0  0  0  0  0  0  0  0
  150.8842  136.4281  159.2254 H   0  0  0  0  0  0  0  0  0  0  0  0
  151.4813  138.6775  160.0526 H   0  0  0  0  0  0  0  0  0  0  0  0
  152.6680  140.5763  159.9132 H   0  0  0  0  0  0  0  0  0  0  0  0
  153.2546  140.0929  158.3416 H   0  0  0  0  0  0  0  0  0  0  0  0
  151.6773  141.3932  157.2130 H   0  0  0  0  0  0  0  0  0  0  0  0
  150.4170  141.0615  158.3658 H   0  0  0  0  0  0  0  0  0  0  0  0
  151.8926  143.7528  156.9939 H   0  0  0  0  0  0  0  0  0  0  0  0
  152.2395  145.9824  158.0872 H   0  0  0  0  0  0  0  0  0  0  0  0
  152.1981  146.1190  160.5951 H   0  0  0  0  0  0  0  0  0  0  0  0
  151.8032  144.0141  161.9029 H   0  0  0  0  0  0  0  0  0  0  0  0
  148.3781  138.1046  158.6608 H   0  0  0  0  0  0  0  0  0  0  0  0
  149.2963  138.0890  160.1503 H   0  0  0  0  0  0  0  0  0  0  0  0
  1  2  1  0  0  0  0
  1 23  1  0  0  0  0
  1 24  1  0  0  0  0
  1 25  1  0  0  0  0
  2  3  1  0  0  0  0
  2  4  1  0  0  0  0
  3 26  1  0  0  0  0
  3 27  1  0  0  0  0
  3 28  1  0  0  0  0
  4  5  2  0  0  0  0
  4  6  1  0  0  0  0
  6 22  1  0  0  0  0
  6  7  1  0  0  0  0
  7  8  1  0  0  0  0
  7 29  1  0  0  0  0
  7 30  1  0  0  0  0
  8  9  1  0  0  0  0
  8 31  1  0  0  0  0
  8 32  1  0  0  0  0
  9 10  1  0  0  0  0
  9 33  1  0  0  0  0
  9 34  1  0  0  0  0
 10 11  1  0  0  0  0
 10 22  1  0  0  0  0
 10 35  1  0  0  0  0
 11 12  2  0  0  0  0
 11 13  1  0  0  0  0
 13 14  1  0  0  0  0
 13 36  1  0  0  0  0
 14 15  1  0  0  0  0
 14 37  1  0  0  0  0
 14 38  1  0  0  0  0
 15 16  1  0  0  0  0
 15 39  1  0  0  0  0
 15 40  1  0  0  0  0
 16 21  1  0  0  0  0
 16 17  2  0  0  0  0
 17 18  1  0  0  0  0
 17 41  1  0  0  0  0
 18 19  2  0  0  0  0
 18 42  1  0  0  0  0
 19 20  1  0  0  0  0
 19 43  1  0  0  0  0
 20 21  2  0  0  0  0
 20 44  1  0  0  0  0
 22 45  1  0  0  0  0
 22 46  1  0  0  0  0
M  END
> <s_m_source_file>
AV-unprocessed.smi

> <i_m_source_file_index>
1839

> <i_lp_mmshare_version>
43012

> <i_f3d_flags>
0

> <s_epik_input>
W0NIM11OKFtDSDNdKUMoPU8pTjFbQ0gyXVtDSDJdW0NIMl1bQ0BIXShbQ0gyXTEpQyg9TylbTkhdW0NIMl1bQ0gyXWMyW2NIXVtjSF1bY0hdW2NIXW4y

> <s_epik_cmdline>
J2VwaWtfcHl0aG9uJywgJy1waCcsICc3LjAnLCAnLXRuJywgJzgnLCAnLW1hJywgJzIwMCcsICctbWV0YWxfYmluZGluZycsICctaW1hZScsICc8aW5maWxlLm1hZT4nLCAnLW9tYWUnLCAnPG91dGZpbGUubWFlPic=

> <r_epik_Ionization_Penalty>
0.0268631

> <r_epik_Ionization_Penalty_Charging>
0

> <r_epik_Ionization_Penalty_Neutral>
0.0268631

> <r_epik_State_Penalty>
0.0219025

> <r_epik_Charging_Adjusted_Penalty>
0.0219025

> <i_epik_Tot_Q>
0

> <i_epik_Tot_abs_Q>
0

> <r_epik_Metal_State_Penalty>
0.0209511

> <b_epik_Metal_Only>
0

> <s_lp_Force_Field>
OPLS_2005

> <r_lp_Energy>
49.2306

> <b_lp_Chiralities_Consistent>
1

> <s_lp_Variant>
AV-unprocessed.smi:1839-1

> <Gold.Version>
5.8.1

> <Gold.Id.Protein>
6NUR|6NUR_protein|mol2

> <Gold.PLP.Fitness>
46.8625

> <Gold.PLP.PLP>
-42.6210

> <Gold.PLP.part.hbond>
-2.7837

> <Gold.PLP.part.metal>
0.0000

> <Gold.PLP.part.buried>
-5.1873

> <Gold.PLP.part.nonpolar>
-34.1438

> <Gold.PLP.part.repulsive>
0.1739

> <Gold.PLP.ligand.clash>
0.0028

> <Gold.PLP.ligand.torsion>
1.1713

> <Gold.PLP.Chemscore.Hbond>
1.7440

> <Gold.PLP.Chemscore.CHOScore>
0.0000

> <Gold.PLP.Chemscore.Metal>
0.0000

> <Gold.Chemscore.Hbonds>
donor molecule, donor type, donor heavy atom, donor atom, acceptor molecule, acceptor atom, score
      P1  H  6931  6943       L1     5  0.94
      P1  H  6934  6947       L1     5  0.78

> <Gold.PLP.Chemscore.Internal.Correction>
1.3548

> <Gold.Rescore>
     Score         DG    S(hbond)    S(metal)    S(lipo)     H(rot)  DE(clash)    DE(int)     intcor
     17.27     -19.52       1.77        0.00     102.59       1.52       0.01       2.24       ----

> <Gold.Chemscore.Fitness>
17.2738

> <Gold.Chemscore.DG>
-19.5206

> <Gold.Chemscore.ZeroCoef>
-5.4800

> <Gold.Chemscore.Hbond>
1.7717

> <Gold.Chemscore.Metal>
0.0000

> <Gold.Chemscore.Lipo>
102.5886

> <Gold.Chemscore.Internal_Hbond>
0.0000

> <Gold.Chemscore.DEClash>
0.0108

> <Gold.Chemscore.DEInternal>
2.2360

> <Gold.Chemscore.Rot>
1.5155

> <Gold.Chemscore.Internal.Correction>
   9.000000E+99

> <Gold.Chemscore.Hbonds>
donor molecule, donor type, donor heavy atom, donor atom, acceptor molecule, acceptor atom, score
      P1  H  6931  6943       L1     5  0.84
      P1  H  6934  6947       L1     5  0.76

> <Gold.Chemscore.Hbond.Weighted>
-5.9174

> <Gold.Chemscore.Metal.Weighted>
-0.0000

> <Gold.Chemscore.Lipo.Weighted>
-12.0029

> <Gold.Chemscore.Internal_Hbond.Weighted>
0.0000

> <Gold.Chemscore.DEClash.Weighted>
0.0108

> <Gold.Chemscore.DEInternal.Weighted>
2.2360

> <Gold.Chemscore.Rot.Weighted>
3.8796

> <Gold.Chemscore.Internal.Correction.Weighted>
   9.000000E+99

> <Gold.Protein.RotatedTorsions>
[ 6907 6896 6895 6894 ] final  -40.00 input  -60.11 | X-H torsion
[ 7974 7965 7964 7962 ] final   51.17 input  175.53 | X-H torsion
[ 8008 7997 7996 7995 ] final -163.63 input   59.86 | X-H torsion
[ 10167 10162 10161 10158 ] final    1.46 input  -65.29 | X-H torsion
[ 10718 10713 10712 10709 ] final  176.45 input   66.30 | X-H torsion
[ 10763 10752 10751 10750 ] final   35.83 input  -60.55 | X-H torsion
[ 11005 11000 10999 10996 ] final   90.84 input  -57.11 | X-H torsion

> <Gold.Protein.ActiveResidues>
 VAL166  LYS551  ARG553  GLY616  TRP617  ASP618  TYR619  PRO620  LYS621  CYS622 
 ASP623  PHE694  ASN695  SER759  ASP760  ASP761  ALA762  ILE779  LEU786  VAL792 
 PHE793  MET794  SER795  GLU796  ALA797  LYS798  CYS799  TRP800  GLU811  SER814 

> <Gold.Protein.RotatedAtoms>
  150.9837  134.9186  159.7858 H   0  0  0  0  0  0  0  0  0  0  0  0  # atno 6907 bound_to 6896
  152.5230  134.3376  159.9215 H   0  0  0  0  0  0  0  0  0  0  0  0  # atno 6908 bound_to 6896
  151.3383  133.3931  159.2703 H   0  0  0  0  0  0  0  0  0  0  0  0  # atno 6909 bound_to 6896
  145.9940  139.4369  143.0056 H   0  0  0  0  0  0  0  0  0  0  0  0  # atno 7974 bound_to 7965
  155.8240  140.0924  157.1832 H   0  0  0  0  0  0  0  0  0  0  0  0  # atno 8008 bound_to 7997
  154.3979  140.1431  156.3594 H   0  0  0  0  0  0  0  0  0  0  0  0  # atno 8009 bound_to 7997
  155.8236  140.3445  155.5532 H   0  0  0  0  0  0  0  0  0  0  0  0  # atno 8010 bound_to 7997
  140.6682  143.7122  150.7869 H   0  0  0  0  0  0  0  0  0  0  0  0  # atno 10167 bound_to 10162
  156.9199  130.9937  151.3006 H   0  0  0  0  0  0  0  0  0  0  0  0  # atno 10718 bound_to 10713
  153.0102  135.6322  154.1889 H   0  0  0  0  0  0  0  0  0  0  0  0  # atno 10763 bound_to 10752
  154.1631  135.2822  155.3104 H   0  0  0  0  0  0  0  0  0  0  0  0  # atno 10764 bound_to 10752
  154.5966  135.5601  153.7392 H   0  0  0  0  0  0  0  0  0  0  0  0  # atno 10765 bound_to 10752
  139.8849  134.8638  156.3343 H   0  0  0  0  0  0  0  0  0  0  0  0  # atno 11005 bound_to 11000
  145.7587  140.9944  143.1211 LP  0  0  0  0  0  0  0  0  0  0  0  0  # atno 17320 bound_to 7965
  144.6898  139.9304  143.7471 LP  0  0  0  0  0  0  0  0  0  0  0  0  # atno 17321 bound_to 7965
  140.0803  143.4975  152.2534 LP  0  0  0  0  0  0  0  0  0  0  0  0  # atno 17342 bound_to 10162
  139.5939  144.7560  151.3334 LP  0  0  0  0  0  0  0  0  0  0  0  0  # atno 17343 bound_to 10162
  157.5914  130.8446  149.8665 LP  0  0  0  0  0  0  0  0  0  0  0  0  # atno 17370 bound_to 10713
  156.0496  130.3720  150.1234 LP  0  0  0  0  0  0  0  0  0  0  0  0  # atno 17371 bound_to 10713
  140.9702  133.7332  156.0524 LP  0  0  0  0  0  0  0  0  0  0  0  0  # atno 17394 bound_to 11000
  140.7880  134.3649  157.5471 LP  0  0  0  0  0  0  0  0  0  0  0  0  # atno 17395 bound_to 11000

$$$$
