AV-unprocessed.smi:2025|AV-procd|sdf|8199|dock5
  -GOLD-   2272010453D 1   1.00000     0.00000
 Structure written by MMmdl.
 39 40  0  0  0  0  0  0  0  0  1 V2000
  148.3595  139.4915  154.4088 C   0  0  0  0  0  0  0  0  0  0  0  0
  148.8955  140.9246  154.2784 C   0  0  2  0  0  0  0  0  0  0  0  0
  150.1213  141.0395  155.0662 N   0  0  0  0  0  0  0  0  0  0  0  0
  150.2468  140.7624  156.3733 C   0  0  0  0  0  0  0  0  0  0  0  0
  149.3093  140.3989  157.0841 O   0  0  0  0  0  0  0  0  0  0  0  0
  151.6501  140.9348  156.9676 C   0  0  0  0  0  0  0  0  0  0  0  0
  151.7141  142.0286  157.9451 N   0  0  0  0  0  0  0  0  0  0  0  0
  151.2060  143.2723  157.6167 C   0  0  0  0  0  0  0  0  0  0  0  0
  151.2076  144.3246  158.4636 C   0  0  0  0  0  0  0  0  0  0  0  0
  151.7651  144.2033  159.8048 C   0  0  0  0  0  0  0  0  0  0  0  0
  151.7739  145.1272  160.6193 O   0  0  0  0  0  0  0  0  0  0  0  0
  152.2916  142.9269  160.1105 N   0  0  0  0  0  0  0  0  0  0  0  0
  152.8467  142.7448  161.4356 C   0  0  0  0  0  0  0  0  0  0  0  0
  152.2695  141.8228  159.2271 C   0  0  0  0  0  0  0  0  0  0  0  0
  152.7061  140.7142  159.5466 O   0  0  0  0  0  0  0  0  0  0  0  0
  147.8560  141.9695  154.7380 C   0  0  1  0  0  0  0  0  0  0  0  0
  146.5528  141.9903  153.9375 C   0  0  0  0  0  0  0  0  0  0  0  0
  145.6127  142.6729  154.9043 C   0  0  0  0  0  0  0  0  0  0  0  0
  146.0804  142.1293  156.2532 C   0  0  0  0  0  0  0  0  0  0  0  0
  147.4274  141.6983  156.0689 O   0  0  0  0  0  0  0  0  0  0  0  0
  147.4625  139.3497  153.8057 H   0  0  0  0  0  0  0  0  0  0  0  0
  148.1055  139.2539  155.4425 H   0  0  0  0  0  0  0  0  0  0  0  0
  149.0979  138.7637  154.0708 H   0  0  0  0  0  0  0  0  0  0  0  0
  149.1184  141.0967  153.2239 H   0  0  0  0  0  0  0  0  0  0  0  0
  150.9487  141.3361  154.5696 H   0  0  0  0  0  0  0  0  0  0  0  0
  151.9828  140.0023  157.4281 H   0  0  0  0  0  0  0  0  0  0  0  0
  152.3451  141.1229  156.1485 H   0  0  0  0  0  0  0  0  0  0  0  0
  150.7778  143.4111  156.6346 H   0  0  0  0  0  0  0  0  0  0  0  0
  150.7883  145.2679  158.1459 H   0  0  0  0  0  0  0  0  0  0  0  0
  153.5079  141.8784  161.4593 H   0  0  0  0  0  0  0  0  0  0  0  0
  152.0045  142.6168  162.1169 H   0  0  0  0  0  0  0  0  0  0  0  0
  153.4351  143.6284  161.6886 H   0  0  0  0  0  0  0  0  0  0  0  0
  148.2965  142.9683  154.7245 H   0  0  0  0  0  0  0  0  0  0  0  0
  146.6418  142.5174  152.9870 H   0  0  0  0  0  0  0  0  0  0  0  0
  146.2085  140.9747  153.7367 H   0  0  0  0  0  0  0  0  0  0  0  0
  145.7600  143.7529  154.8644 H   0  0  0  0  0  0  0  0  0  0  0  0
  144.5620  142.4643  154.7010 H   0  0  0  0  0  0  0  0  0  0  0  0
  146.0127  142.8819  157.0391 H   0  0  0  0  0  0  0  0  0  0  0  0
  145.4799  141.2704  156.5550 H   0  0  0  0  0  0  0  0  0  0  0  0
  1  2  1  0  0  0  0
  1 21  1  0  0  0  0
  1 22  1  0  0  0  0
  1 23  1  0  0  0  0
  2  3  1  0  0  0  0
  2 16  1  0  0  0  0
  2 24  1  0  0  0  0
  3  4  1  0  0  0  0
  3 25  1  0  0  0  0
  4  5  2  0  0  0  0
  4  6  1  0  0  0  0
  6  7  1  0  0  0  0
  6 26  1  0  0  0  0
  6 27  1  0  0  0  0
  7 14  1  0  0  0  0
  7  8  1  0  0  0  0
  8  9  2  0  0  0  0
  8 28  1  0  0  0  0
  9 10  1  0  0  0  0
  9 29  1  0  0  0  0
 10 11  2  0  0  0  0
 10 12  1  0  0  0  0
 12 13  1  0  0  0  0
 12 14  1  0  0  0  0
 13 30  1  0  0  0  0
 13 31  1  0  0  0  0
 13 32  1  0  0  0  0
 14 15  2  0  0  0  0
 16 20  1  0  0  0  0
 16 17  1  0  0  0  0
 16 33  1  0  0  0  0
 17 18  1  0  0  0  0
 17 34  1  0  0  0  0
 17 35  1  0  0  0  0
 18 19  1  0  0  0  0
 18 36  1  0  0  0  0
 18 37  1  0  0  0  0
 19 20  1  0  0  0  0
 19 38  1  0  0  0  0
 19 39  1  0  0  0  0
M  END
> <s_m_source_file>
AV-unprocessed.smi

> <i_m_source_file_index>
2025

> <i_lp_mmshare_version>
43012

> <i_f3d_flags>
0

> <s_epik_input>
TzFbQ0gyXVtDSDJdW0NIMl1bQ0BIXTFbQ0BIXShbQ0gzXSlbTkhdQyg9TylbQ0gyXW4yW2NIXVtjSF1jKD1PKW4oW0NIM10pYzI9Tw==

> <s_epik_cmdline>
J2VwaWtfcHl0aG9uJywgJy1waCcsICc3LjAnLCAnLXRuJywgJzgnLCAnLW1hJywgJzIwMCcsICctbWV0YWxfYmluZGluZycsICctaW1hZScsICc8aW5maWxlLm1hZT4nLCAnLW9tYWUnLCAnPG91dGZpbGUubWFlPic=

> <r_lp_tautomer_probability>
1

> <r_epik_Ionization_Penalty>
3.54787e-08

> <r_epik_Ionization_Penalty_Charging>
1.24654e-08

> <r_epik_Ionization_Penalty_Neutral>
2.30132e-08

> <r_epik_State_Penalty>
-0

> <r_epik_Charging_Adjusted_Penalty>
1.24654e-08

> <i_epik_Tot_Q>
0

> <i_epik_Tot_abs_Q>
0

> <r_epik_Metal_State_Penalty>
-0

> <b_epik_Metal_Only>
0

> <s_lp_Force_Field>
OPLS_2005

> <r_lp_Energy>
25.1152

> <b_lp_Chiralities_Consistent>
1

> <s_lp_Variant>
AV-unprocessed.smi:2025-3

> <Gold.Version>
5.8.1

> <Gold.Id.Protein>
6NUR|6NUR_protein|mol2

> <Gold.PLP.Fitness>
43.6314

> <Gold.PLP.PLP>
-41.0124

> <Gold.PLP.part.hbond>
0.0000

> <Gold.PLP.part.metal>
0.0000

> <Gold.PLP.part.buried>
-5.9030

> <Gold.PLP.part.nonpolar>
-36.4873

> <Gold.PLP.part.repulsive>
1.1912

> <Gold.PLP.ligand.clash>
0.0000

> <Gold.PLP.ligand.torsion>
0.1771

> <Gold.PLP.Chemscore.Hbond>
0.0000

> <Gold.PLP.Chemscore.CHOScore>
0.9872

> <Gold.PLP.Chemscore.Metal>
0.0000

> <Gold.Chemscore.Hbonds>
donor molecule, donor type, donor heavy atom, donor atom, acceptor molecule, acceptor atom, score
      L1  C     8    28       P1  8028  1.00

> <Gold.PLP.Chemscore.Internal.Correction>
0.0114

> <Gold.Rescore>
     Score         DG    S(hbond)    S(metal)    S(lipo)     H(rot)  DE(clash)    DE(int)     intcor
      6.30      -9.44       0.00        0.00      73.72       1.82       0.01       3.12       ----

> <Gold.Chemscore.Fitness>
6.3047

> <Gold.Chemscore.DG>
-9.4383

> <Gold.Chemscore.ZeroCoef>
-5.4800

> <Gold.Chemscore.Hbond>
0.0000

> <Gold.Chemscore.Metal>
0.0000

> <Gold.Chemscore.Lipo>
73.7162

> <Gold.Chemscore.Internal_Hbond>
0.0000

> <Gold.Chemscore.DEClash>
0.0136

> <Gold.Chemscore.DEInternal>
3.1201

> <Gold.Chemscore.Rot>
1.8228

> <Gold.Chemscore.Internal.Correction>
   9.000000E+99

> <Gold.Chemscore.Hbond.Weighted>
-0.0000

> <Gold.Chemscore.Metal.Weighted>
-0.0000

> <Gold.Chemscore.Lipo.Weighted>
-8.6248

> <Gold.Chemscore.Internal_Hbond.Weighted>
0.0000

> <Gold.Chemscore.DEClash.Weighted>
0.0136

> <Gold.Chemscore.DEInternal.Weighted>
3.1201

> <Gold.Chemscore.Rot.Weighted>
4.6665

> <Gold.Chemscore.Internal.Correction.Weighted>
   9.000000E+99

> <Gold.Protein.RotatedTorsions>
[ 6907 6896 6895 6894 ] final  124.03 input  -60.11 | X-H torsion
[ 7974 7965 7964 7962 ] final  108.35 input  175.53 | X-H torsion
[ 8008 7997 7996 7995 ] final -159.67 input   59.86 | X-H torsion
[ 10167 10162 10161 10158 ] final  -45.12 input  -65.29 | X-H torsion
[ 10718 10713 10712 10709 ] final -117.46 input   66.30 | X-H torsion
[ 10763 10752 10751 10750 ] final   48.07 input  -60.55 | X-H torsion
[ 11005 11000 10999 10996 ] final  -88.21 input  -57.11 | X-H torsion

> <Gold.Protein.ActiveResidues>
 VAL166  LYS551  ARG553  GLY616  TRP617  ASP618  TYR619  PRO620  LYS621  CYS622 
 ASP623  PHE694  ASN695  SER759  ASP760  ASP761  ALA762  ILE779  LEU786  VAL792 
 PHE793  MET794  SER795  GLU796  ALA797  LYS798  CYS799  TRP800  GLU811  SER814 

> <Gold.Protein.RotatedAtoms>
  152.4112  133.6967  159.6399 H   0  0  0  0  0  0  0  0  0  0  0  0  # atno 6907 bound_to 6896
  150.7992  133.8620  159.3243 H   0  0  0  0  0  0  0  0  0  0  0  0  # atno 6908 bound_to 6896
  151.6362  135.1019  160.0183 H   0  0  0  0  0  0  0  0  0  0  0  0  # atno 6909 bound_to 6896
  145.2818  139.2630  143.3911 H   0  0  0  0  0  0  0  0  0  0  0  0  # atno 7974 bound_to 7965
  155.7660  140.0845  157.2132 H   0  0  0  0  0  0  0  0  0  0  0  0  # atno 8008 bound_to 7997
  154.4000  140.1534  156.2944 H   0  0  0  0  0  0  0  0  0  0  0  0  # atno 8009 bound_to 7997
  155.8793  140.3421  155.5879 H   0  0  0  0  0  0  0  0  0  0  0  0  # atno 8010 bound_to 7997
  140.6870  143.2895  151.3593 H   0  0  0  0  0  0  0  0  0  0  0  0  # atno 10167 bound_to 10162
  156.1036  130.6192  150.9167 H   0  0  0  0  0  0  0  0  0  0  0  0  # atno 10718 bound_to 10713
  152.9794  135.5956  154.3866 H   0  0  0  0  0  0  0  0  0  0  0  0  # atno 10763 bound_to 10752
  154.3525  135.2767  155.2366 H   0  0  0  0  0  0  0  0  0  0  0  0  # atno 10764 bound_to 10752
  154.4399  135.6016  153.6177 H   0  0  0  0  0  0  0  0  0  0  0  0  # atno 10765 bound_to 10752
  141.1605  133.7556  156.9418 H   0  0  0  0  0  0  0  0  0  0  0  0  # atno 11005 bound_to 11000
  146.3214  140.3288  142.8639 LP  0  0  0  0  0  0  0  0  0  0  0  0  # atno 17320 bound_to 7965
  144.9246  140.7907  143.5727 LP  0  0  0  0  0  0  0  0  0  0  0  0  # atno 17321 bound_to 7965
  139.6238  144.0854  152.2416 LP  0  0  0  0  0  0  0  0  0  0  0  0  # atno 17342 bound_to 10162
  140.0307  144.6083  150.7490 LP  0  0  0  0  0  0  0  0  0  0  0  0  # atno 17343 bound_to 10162
  157.6209  131.0929  150.8623 LP  0  0  0  0  0  0  0  0  0  0  0  0  # atno 17370 bound_to 10713
  156.8747  130.5158  149.5294 LP  0  0  0  0  0  0  0  0  0  0  0  0  # atno 17371 bound_to 10713
  140.1316  134.9352  157.2345 LP  0  0  0  0  0  0  0  0  0  0  0  0  # atno 17394 bound_to 11000
  140.2946  134.3201  155.7306 LP  0  0  0  0  0  0  0  0  0  0  0  0  # atno 17395 bound_to 11000

$$$$
