AV-unprocessed.smi:550|AV-procd|sdf|2895|dock1
  -GOLD-   2262023393D 1   1.00000     0.00000
 Structure written by MMmdl.
 45 47  0  0  0  0  0  0  0  0  1 V2000
  146.9610  140.1801  153.9478 O   0  0  0  0  0  0  0  0  0  0  0  0
  147.7851  139.3751  153.5139 C   0  0  0  0  0  0  0  0  0  0  0  0
  147.4915  138.4392  152.6015 N   0  0  0  0  0  0  0  0  0  0  0  0
  146.1696  138.2445  152.0173 C   0  0  0  0  0  0  0  0  0  0  0  0
  145.6027  136.8573  152.3647 C   0  0  1  0  0  0  0  0  0  0  0  0
  144.0682  136.8722  152.5101 C   0  0  0  0  0  0  0  0  0  0  0  0
  143.5712  135.4257  152.5844 C   0  0  0  0  0  0  0  0  0  0  0  0
  144.6774  134.4722  151.4808 S   0  0  0  0  0  0  0  0  0  0  0  0
  145.2129  133.3176  152.2179 O   0  0  0  0  0  0  0  0  0  0  0  0
  144.0323  134.3012  150.1703 O   0  0  0  0  0  0  0  0  0  0  0  0
  145.9693  135.7674  151.3411 C   0  0  0  0  0  0  0  0  0  0  0  0
  149.0820  139.3293  153.8642 N   0  0  0  0  0  0  0  0  0  0  0  0
  149.7510  140.1071  154.8475 C   0  0  0  0  0  0  0  0  0  0  0  0
  151.0249  139.7903  155.3730 C   0  0  0  0  0  0  0  0  0  0  0  0
  151.6032  140.6505  156.3255 C   0  0  0  0  0  0  0  0  0  0  0  0
  150.9001  141.8119  156.7240 C   0  0  0  0  0  0  0  0  0  0  0  0
  151.4436  142.6940  157.6790 N   0  0  0  0  0  0  0  0  0  0  0  0
  151.6342  144.1083  157.3981 C   0  0  0  0  0  0  0  0  0  0  0  0
  152.3611  144.6506  158.6278 C   0  0  0  0  0  0  0  0  0  0  0  0
  153.2124  143.4636  159.0785 C   0  0  0  0  0  0  0  0  0  0  0  0
  152.3753  142.2358  158.7004 C   0  0  0  0  0  0  0  0  0  0  0  0
  149.6825  142.1166  156.2145 N   0  0  0  0  0  0  0  0  0  0  0  0
  149.1337  141.2906  155.2992 C   0  0  0  0  0  0  0  0  0  0  0  0
  148.2271  137.8213  152.2917 H   0  0  0  0  0  0  0  0  0  0  0  0
  145.4880  139.0157  152.3806 H   0  0  0  0  0  0  0  0  0  0  0  0
  146.2404  138.3671  150.9357 H   0  0  0  0  0  0  0  0  0  0  0  0
  146.0111  136.5509  153.3292 H   0  0  0  0  0  0  0  0  0  0  0  0
  143.7499  137.4470  153.3802 H   0  0  0  0  0  0  0  0  0  0  0  0
  143.6286  137.3506  151.6338 H   0  0  0  0  0  0  0  0  0  0  0  0
  143.6797  135.0315  153.5951 H   0  0  0  0  0  0  0  0  0  0  0  0
  142.5331  135.3113  152.2725 H   0  0  0  0  0  0  0  0  0  0  0  0
  145.9390  136.1572  150.3232 H   0  0  0  0  0  0  0  0  0  0  0  0
  146.9536  135.3333  151.5165 H   0  0  0  0  0  0  0  0  0  0  0  0
  149.6657  138.6908  153.3436 H   0  0  0  0  0  0  0  0  0  0  0  0
  151.5734  138.9170  155.0555 H   0  0  0  0  0  0  0  0  0  0  0  0
  152.5717  140.4071  156.7359 H   0  0  0  0  0  0  0  0  0  0  0  0
  152.2498  144.2227  156.5049 H   0  0  0  0  0  0  0  0  0  0  0  0
  150.6844  144.6181  157.2330 H   0  0  0  0  0  0  0  0  0  0  0  0
  152.9494  145.5433  158.4140 H   0  0  0  0  0  0  0  0  0  0  0  0
  151.6375  144.9006  159.4050 H   0  0  0  0  0  0  0  0  0  0  0  0
  154.1479  143.4545  158.5176 H   0  0  0  0  0  0  0  0  0  0  0  0
  153.4597  143.4955  160.1398 H   0  0  0  0  0  0  0  0  0  0  0  0
  151.8078  141.8745  159.5585 H   0  0  0  0  0  0  0  0  0  0  0  0
  153.0125  141.4260  158.3429 H   0  0  0  0  0  0  0  0  0  0  0  0
  148.1657  141.5837  154.9200 H   0  0  0  0  0  0  0  0  0  0  0  0
  1  2  2  0  0  0  0
  2  3  1  0  0  0  0
  2 12  1  0  0  0  0
  3  4  1  0  0  0  0
  3 24  1  0  0  0  0
  4  5  1  0  0  0  0
  4 25  1  0  0  0  0
  4 26  1  0  0  0  0
  5 11  1  0  0  0  0
  5  6  1  0  0  0  0
  5 27  1  0  0  0  0
  6  7  1  0  0  0  0
  6 28  1  0  0  0  0
  6 29  1  0  0  0  0
  7  8  1  0  0  0  0
  7 30  1  0  0  0  0
  7 31  1  0  0  0  0
  8  9  2  0  0  0  0
  8 10  2  0  0  0  0
  8 11  1  0  0  0  0
 11 32  1  0  0  0  0
 11 33  1  0  0  0  0
 12 13  1  0  0  0  0
 12 34  1  0  0  0  0
 13 23  1  0  0  0  0
 13 14  2  0  0  0  0
 14 15  1  0  0  0  0
 14 35  1  0  0  0  0
 15 16  2  0  0  0  0
 15 36  1  0  0  0  0
 16 17  1  0  0  0  0
 16 22  1  0  0  0  0
 17 21  1  0  0  0  0
 17 18  1  0  0  0  0
 18 19  1  0  0  0  0
 18 37  1  0  0  0  0
 18 38  1  0  0  0  0
 19 20  1  0  0  0  0
 19 39  1  0  0  0  0
 19 40  1  0  0  0  0
 20 21  1  0  0  0  0
 20 41  1  0  0  0  0
 20 42  1  0  0  0  0
 21 43  1  0  0  0  0
 21 44  1  0  0  0  0
 22 23  2  0  0  0  0
 23 45  1  0  0  0  0
M  END
> <s_m_source_file>
AV-unprocessed.smi

> <i_m_source_file_index>
550

> <i_lp_mmshare_version>
43012

> <i_f3d_flags>
0

> <s_epik_input>
Tz1TMSg9TylbQ0gyXVtDSDJdW0NASF0oW0NIMl0xKVtDSDJdW05IXUMoPU8pW05IXWMyW2NIXVtjSF1jKG5bY0hdMilOM1tDSDJdW0NIMl1bQ0gyXVtDSDJdMw==

> <s_epik_cmdline>
J2VwaWtfcHl0aG9uJywgJy1waCcsICc3LjAnLCAnLXRuJywgJzgnLCAnLW1hJywgJzIwMCcsICctbWV0YWxfYmluZGluZycsICctaW1hZScsICc8aW5maWxlLm1hZT4nLCAnLW9tYWUnLCAnPG91dGZpbGUubWFlPic=

> <r_lp_tautomer_probability>
1

> <r_epik_Ionization_Penalty>
0.0965651

> <r_epik_Ionization_Penalty_Charging>
0

> <r_epik_Ionization_Penalty_Neutral>
0.0965651

> <r_epik_State_Penalty>
0.0861592

> <r_epik_Charging_Adjusted_Penalty>
0.0861592

> <i_epik_Tot_Q>
0

> <i_epik_Tot_abs_Q>
0

> <r_epik_Metal_State_Penalty>
0.0740405

> <b_epik_Metal_Only>
0

> <s_lp_Force_Field>
OPLS_2005

> <r_lp_Energy>
33.1318

> <b_lp_Chiralities_Consistent>
1

> <s_lp_Variant>
AV-unprocessed.smi:550-2

> <Gold.Version>
5.8.1

> <Gold.Id.Protein>
6NUR|6NUR_protein|mol2

> <Gold.PLP.Fitness>
45.3813

> <Gold.PLP.PLP>
-44.4757

> <Gold.PLP.part.hbond>
-3.0000

> <Gold.PLP.part.metal>
0.0000

> <Gold.PLP.part.buried>
-2.2098

> <Gold.PLP.part.nonpolar>
-42.7640

> <Gold.PLP.part.repulsive>
2.8095

> <Gold.PLP.ligand.clash>
0.0000

> <Gold.PLP.ligand.torsion>
1.1498

> <Gold.PLP.Chemscore.Hbond>
1.0000

> <Gold.PLP.Chemscore.CHOScore>
0.0000

> <Gold.PLP.Chemscore.Metal>
0.0000

> <Gold.Chemscore.Hbonds>
donor molecule, donor type, donor heavy atom, donor atom, acceptor molecule, acceptor atom, score
      L1  H     3    24       P1  7948  1.00

> <Gold.PLP.Chemscore.Internal.Correction>
0.2052

> <Gold.Rescore>
     Score         DG    S(hbond)    S(metal)    S(lipo)     H(rot)  DE(clash)    DE(int)     intcor
     14.09     -18.00       0.99        0.00     105.99       1.25       1.58       2.33       ----

> <Gold.Chemscore.Fitness>
14.0875

> <Gold.Chemscore.DG>
-17.9984

> <Gold.Chemscore.ZeroCoef>
-5.4800

> <Gold.Chemscore.Hbond>
0.9937

> <Gold.Chemscore.Metal>
0.0000

> <Gold.Chemscore.Lipo>
105.9911

> <Gold.Chemscore.Internal_Hbond>
0.0000

> <Gold.Chemscore.DEClash>
1.5846

> <Gold.Chemscore.DEInternal>
2.3262

> <Gold.Chemscore.Rot>
1.2506

> <Gold.Chemscore.Internal.Correction>
   9.000000E+99

> <Gold.Chemscore.Hbonds>
donor molecule, donor type, donor heavy atom, donor atom, acceptor molecule, acceptor atom, score
      L1  H     3    24       P1  7948  0.99

> <Gold.Chemscore.Hbond.Weighted>
-3.3190

> <Gold.Chemscore.Metal.Weighted>
-0.0000

> <Gold.Chemscore.Lipo.Weighted>
-12.4010

> <Gold.Chemscore.Internal_Hbond.Weighted>
0.0000

> <Gold.Chemscore.DEClash.Weighted>
1.5846

> <Gold.Chemscore.DEInternal.Weighted>
2.3262

> <Gold.Chemscore.Rot.Weighted>
3.2016

> <Gold.Chemscore.Internal.Correction.Weighted>
   9.000000E+99

> <Gold.Protein.RotatedTorsions>
[ 6907 6896 6895 6894 ] final   87.50 input  -60.11 | X-H torsion
[ 7974 7965 7964 7962 ] final   45.08 input  175.53 | X-H torsion
[ 8008 7997 7996 7995 ] final  140.40 input   59.86 | X-H torsion
[ 10167 10162 10161 10158 ] final  -97.33 input  -65.29 | X-H torsion
[ 10718 10713 10712 10709 ] final    8.72 input   66.30 | X-H torsion
[ 10763 10752 10751 10750 ] final   -6.15 input  -60.55 | X-H torsion
[ 11005 11000 10999 10996 ] final -163.80 input  -57.11 | X-H torsion

> <Gold.Protein.ActiveResidues>
 VAL166  LYS551  ARG553  GLY616  TRP617  ASP618  TYR619  PRO620  LYS621  CYS622 
 ASP623  PHE694  ASN695  SER759  ASP760  ASP761  ALA762  ILE779  LEU786  VAL792 
 PHE793  MET794  SER795  GLU796  ALA797  LYS798  CYS799  TRP800  GLU811  SER814 

> <Gold.Protein.RotatedAtoms>
  152.5412  134.2266  159.8808 H   0  0  0  0  0  0  0  0  0  0  0  0  # atno 6907 bound_to 6896
  151.2240  133.4480  159.2609 H   0  0  0  0  0  0  0  0  0  0  0  0  # atno 6908 bound_to 6896
  151.0778  134.9852  159.8397 H   0  0  0  0  0  0  0  0  0  0  0  0  # atno 6909 bound_to 6896
  146.0511  139.5003  142.9717 H   0  0  0  0  0  0  0  0  0  0  0  0  # atno 7974 bound_to 7965
  156.2979  140.2342  156.4395 H   0  0  0  0  0  0  0  0  0  0  0  0  # atno 8008 bound_to 7997
  154.8199  140.0438  157.1423 H   0  0  0  0  0  0  0  0  0  0  0  0  # atno 8009 bound_to 7997
  154.9327  140.3019  155.5163 H   0  0  0  0  0  0  0  0  0  0  0  0  # atno 8010 bound_to 7997
  140.2845  143.3260  152.0407 H   0  0  0  0  0  0  0  0  0  0  0  0  # atno 10167 bound_to 10162
  156.9557  130.5914  149.5659 H   0  0  0  0  0  0  0  0  0  0  0  0  # atno 10718 bound_to 10713
  153.4084  135.7007  153.6376 H   0  0  0  0  0  0  0  0  0  0  0  0  # atno 10763 bound_to 10752
  153.4880  135.3679  155.2477 H   0  0  0  0  0  0  0  0  0  0  0  0  # atno 10764 bound_to 10752
  154.8715  135.4082  154.3432 H   0  0  0  0  0  0  0  0  0  0  0  0  # atno 10765 bound_to 10752
  140.5940  134.5015  157.5197 H   0  0  0  0  0  0  0  0  0  0  0  0  # atno 11005 bound_to 11000
  145.6722  141.0213  143.1651 LP  0  0  0  0  0  0  0  0  0  0  0  0  # atno 17320 bound_to 7965
  144.7123  139.8324  143.7410 LP  0  0  0  0  0  0  0  0  0  0  0  0  # atno 17321 bound_to 7965
  139.4954  144.6568  151.6554 LP  0  0  0  0  0  0  0  0  0  0  0  0  # atno 17342 bound_to 10162
  140.5784  143.9989  150.6254 LP  0  0  0  0  0  0  0  0  0  0  0  0  # atno 17343 bound_to 10162
  156.0343  130.5432  150.8615 LP  0  0  0  0  0  0  0  0  0  0  0  0  # atno 17370 bound_to 10713
  157.5691  131.0946  150.9444 LP  0  0  0  0  0  0  0  0  0  0  0  0  # atno 17371 bound_to 10713
  139.9261  134.8053  156.1064 LP  0  0  0  0  0  0  0  0  0  0  0  0  # atno 17394 bound_to 11000
  141.0916  133.6712  156.2553 LP  0  0  0  0  0  0  0  0  0  0  0  0  # atno 17395 bound_to 11000

$$$$
