AV-unprocessed.smi:1980|AV-procd|sdf|8018|dock1
  -GOLD-   2272010213D 1   1.00000     0.00000
 Structure written by MMmdl.
 44 45  0  0  0  0  0  0  0  0  1 V2000
  148.0493  135.7966  156.0783 C   0  0  0  0  0  0  0  0  0  0  0  0
  149.3649  135.1239  155.6609 C   0  0  1  0  0  0  0  0  0  0  0  0
  149.0915  134.3256  154.5116 O   0  0  0  0  0  0  0  0  0  0  0  0
  149.7788  133.0794  154.4489 C   0  0  0  0  0  0  0  0  0  0  0  0
  148.7586  131.9429  154.3147 C   0  0  0  0  0  0  0  0  0  0  0  0
  149.4058  130.7837  154.2002 F   0  0  0  0  0  0  0  0  0  0  0  0
  147.9793  131.8926  155.3949 F   0  0  0  0  0  0  0  0  0  0  0  0
  148.0084  132.1232  153.2281 F   0  0  0  0  0  0  0  0  0  0  0  0
  150.4472  136.1675  155.3434 C   0  0  0  0  0  0  0  0  0  0  0  0
  151.4840  136.2080  156.0063 O   0  0  0  0  0  0  0  0  0  0  0  0
  150.1781  137.0223  154.3444 N   0  0  0  0  0  0  0  0  0  0  0  0
  151.0443  138.1216  153.9326 C   0  0  0  0  0  0  0  0  0  0  0  0
  151.2601  139.1690  155.0147 C   0  0  0  0  0  0  0  0  0  0  0  0
  150.4479  140.3179  155.1079 C   0  0  0  0  0  0  0  0  0  0  0  0
  150.6987  141.2513  156.1313 C   0  0  0  0  0  0  0  0  0  0  0  0
  151.7627  141.0169  157.0348 C   0  0  0  0  0  0  0  0  0  0  0  0
  152.0336  141.9403  158.0679 N   0  0  0  0  0  0  0  0  0  0  0  0
  151.4049  143.2582  157.9918 C   0  0  0  0  0  0  0  0  0  0  0  0
  152.0319  144.2116  159.0228 C   0  0  0  0  0  0  0  0  0  0  0  0
  151.9446  143.6361  160.3222 O   0  0  0  0  0  0  0  0  0  0  0  0
  152.6583  142.4070  160.4049 C   0  0  0  0  0  0  0  0  0  0  0  0
  152.0589  141.3881  159.4202 C   0  0  0  0  0  0  0  0  0  0  0  0
  152.5418  139.9109  156.9399 N   0  0  0  0  0  0  0  0  0  0  0  0
  152.2968  139.0190  155.9572 C   0  0  0  0  0  0  0  0  0  0  0  0
  148.1888  136.4309  156.9544 H   0  0  0  0  0  0  0  0  0  0  0  0
  147.2967  135.0492  156.3304 H   0  0  0  0  0  0  0  0  0  0  0  0
  147.6423  136.4150  155.2771 H   0  0  0  0  0  0  0  0  0  0  0  0
  149.6969  134.4795  156.4772 H   0  0  0  0  0  0  0  0  0  0  0  0
  150.4616  133.0522  153.5991 H   0  0  0  0  0  0  0  0  0  0  0  0
  150.3745  132.9362  155.3516 H   0  0  0  0  0  0  0  0  0  0  0  0
  149.3041  136.9170  153.8500 H   0  0  0  0  0  0  0  0  0  0  0  0
  152.0045  137.7293  153.5929 H   0  0  0  0  0  0  0  0  0  0  0  0
  150.5889  138.6097  153.0707 H   0  0  0  0  0  0  0  0  0  0  0  0
  149.6408  140.4858  154.4102 H   0  0  0  0  0  0  0  0  0  0  0  0
  150.0672  142.1228  156.2192 H   0  0  0  0  0  0  0  0  0  0  0  0
  151.5260  143.6774  156.9920 H   0  0  0  0  0  0  0  0  0  0  0  0
  150.3345  143.1593  158.1781 H   0  0  0  0  0  0  0  0  0  0  0  0
  153.0737  144.4227  158.7752 H   0  0  0  0  0  0  0  0  0  0  0  0
  151.5050  145.1656  159.0207 H   0  0  0  0  0  0  0  0  0  0  0  0
  153.7163  142.5739  160.1954 H   0  0  0  0  0  0  0  0  0  0  0  0
  152.5926  142.0266  161.4243 H   0  0  0  0  0  0  0  0  0  0  0  0
  151.0393  141.1388  159.7165 H   0  0  0  0  0  0  0  0  0  0  0  0
  152.6373  140.4667  159.4699 H   0  0  0  0  0  0  0  0  0  0  0  0
  152.9482  138.1580  155.9268 H   0  0  0  0  0  0  0  0  0  0  0  0
  1  2  1  0  0  0  0
  1 25  1  0  0  0  0
  1 26  1  0  0  0  0
  1 27  1  0  0  0  0
  2  3  1  0  0  0  0
  2  9  1  0  0  0  0
  2 28  1  0  0  0  0
  3  4  1  0  0  0  0
  4  5  1  0  0  0  0
  4 29  1  0  0  0  0
  4 30  1  0  0  0  0
  5  6  1  0  0  0  0
  5  7  1  0  0  0  0
  5  8  1  0  0  0  0
  9 10  2  0  0  0  0
  9 11  1  0  0  0  0
 11 12  1  0  0  0  0
 11 31  1  0  0  0  0
 12 13  1  0  0  0  0
 12 32  1  0  0  0  0
 12 33  1  0  0  0  0
 13 24  1  0  0  0  0
 13 14  2  0  0  0  0
 14 15  1  0  0  0  0
 14 34  1  0  0  0  0
 15 16  2  0  0  0  0
 15 35  1  0  0  0  0
 16 17  1  0  0  0  0
 16 23  1  0  0  0  0
 17 22  1  0  0  0  0
 17 18  1  0  0  0  0
 18 19  1  0  0  0  0
 18 36  1  0  0  0  0
 18 37  1  0  0  0  0
 19 20  1  0  0  0  0
 19 38  1  0  0  0  0
 19 39  1  0  0  0  0
 20 21  1  0  0  0  0
 21 22  1  0  0  0  0
 21 40  1  0  0  0  0
 21 41  1  0  0  0  0
 22 42  1  0  0  0  0
 22 43  1  0  0  0  0
 23 24  2  0  0  0  0
 24 44  1  0  0  0  0
M  END
> <s_m_source_file>
AV-unprocessed.smi

> <i_m_source_file_index>
1980

> <i_lp_mmshare_version>
43012

> <i_f3d_flags>
0

> <s_epik_input>
RkMoRikoRilbQ0gyXU9bQ0BASF0oW0NIM10pQyg9TylbTkhdW0NIMl1jMVtjSF1bY0hdYyhuW2NIXTEpTjJbQ0gyXVtDSDJdT1tDSDJdW0NIMl0y

> <s_epik_cmdline>
J2VwaWtfcHl0aG9uJywgJy1waCcsICc3LjAnLCAnLXRuJywgJzgnLCAnLW1hJywgJzIwMCcsICctbWV0YWxfYmluZGluZycsICctaW1hZScsICc8aW5maWxlLm1hZT4nLCAnLW9tYWUnLCAnPG91dGZpbGUubWFlPic=

> <r_lp_tautomer_probability>
1

> <r_epik_Ionization_Penalty>
0.00436425

> <r_epik_Ionization_Penalty_Charging>
0

> <r_epik_Ionization_Penalty_Neutral>
0.00436425

> <r_epik_State_Penalty>
0.00314317

> <r_epik_Charging_Adjusted_Penalty>
0.00314317

> <i_epik_Tot_Q>
0

> <i_epik_Tot_abs_Q>
0

> <r_epik_Metal_State_Penalty>
-0

> <b_epik_Metal_Only>
0

> <s_lp_Force_Field>
OPLS_2005

> <r_lp_Energy>
18.0454

> <b_lp_Chiralities_Consistent>
1

> <s_lp_Variant>
AV-unprocessed.smi:1980-2

> <Gold.Version>
5.8.1

> <Gold.Id.Protein>
6NUR|6NUR_protein|mol2

> <Gold.PLP.Fitness>
48.7580

> <Gold.PLP.PLP>
-43.9484

> <Gold.PLP.part.hbond>
-3.5227

> <Gold.PLP.part.metal>
0.0000

> <Gold.PLP.part.buried>
-3.6352

> <Gold.PLP.part.nonpolar>
-36.8035

> <Gold.PLP.part.repulsive>
0.2967

> <Gold.PLP.ligand.clash>
0.0000

> <Gold.PLP.ligand.torsion>
1.4519

> <Gold.PLP.Chemscore.Hbond>
2.4134

> <Gold.PLP.Chemscore.CHOScore>
0.0000

> <Gold.PLP.Chemscore.Metal>
0.0000

> <Gold.Chemscore.Hbonds>
donor molecule, donor type, donor heavy atom, donor atom, acceptor molecule, acceptor atom, score
      L1  H    11    31       P1  7948  0.45
      P1  H  7997  8009       L1    23  0.85
      P1  H 10752 10765       L1    10  1.00

> <Gold.PLP.Chemscore.Internal.Correction>
0.4733

> <Gold.Rescore>
     Score         DG    S(hbond)    S(metal)    S(lipo)     H(rot)  DE(clash)    DE(int)     intcor
     13.68     -16.66       1.90        0.00      95.88       2.49       0.38       2.60       ----

> <Gold.Chemscore.Fitness>
13.6794

> <Gold.Chemscore.DG>
-16.6646

> <Gold.Chemscore.ZeroCoef>
-5.4800

> <Gold.Chemscore.Hbond>
1.8983

> <Gold.Chemscore.Metal>
0.0000

> <Gold.Chemscore.Lipo>
95.8822

> <Gold.Chemscore.Internal_Hbond>
0.0000

> <Gold.Chemscore.DEClash>
0.3840

> <Gold.Chemscore.DEInternal>
2.6011

> <Gold.Chemscore.Rot>
2.4899

> <Gold.Chemscore.Internal.Correction>
   9.000000E+99

> <Gold.Chemscore.Hbonds>
donor molecule, donor type, donor heavy atom, donor atom, acceptor molecule, acceptor atom, score
      L1  H    11    31       P1  7948  0.43
      P1  H  7997  8009       L1    23  0.14
      P1  H 10752 10765       L1    10  0.65

> <Gold.Chemscore.Hbond.Weighted>
-6.3405

> <Gold.Chemscore.Metal.Weighted>
-0.0000

> <Gold.Chemscore.Lipo.Weighted>
-11.2182

> <Gold.Chemscore.Internal_Hbond.Weighted>
0.0000

> <Gold.Chemscore.DEClash.Weighted>
0.3840

> <Gold.Chemscore.DEInternal.Weighted>
2.6011

> <Gold.Chemscore.Rot.Weighted>
6.3741

> <Gold.Chemscore.Internal.Correction.Weighted>
   9.000000E+99

> <Gold.Protein.RotatedTorsions>
[ 6907 6896 6895 6894 ] final -177.19 input  -60.11 | X-H torsion
[ 7974 7965 7964 7962 ] final  -98.28 input  175.53 | X-H torsion
[ 8008 7997 7996 7995 ] final -179.20 input   59.86 | X-H torsion
[ 10167 10162 10161 10158 ] final   27.08 input  -65.29 | X-H torsion
[ 10718 10713 10712 10709 ] final   27.99 input   66.30 | X-H torsion
[ 10763 10752 10751 10750 ] final -163.17 input  -60.55 | X-H torsion
[ 11005 11000 10999 10996 ] final  -41.47 input  -57.11 | X-H torsion

> <Gold.Protein.ActiveResidues>
 VAL166  LYS551  ARG553  GLY616  TRP617  ASP618  TYR619  PRO620  LYS621  CYS622 
 ASP623  PHE694  ASN695  SER759  ASP760  ASP761  ALA762  ILE779  LEU786  VAL792 
 PHE793  MET794  SER795  GLU796  ALA797  LYS798  CYS799  TRP800  GLU811  SER814 

> <Gold.Protein.RotatedAtoms>
  151.6170  133.3342  159.3079 H   0  0  0  0  0  0  0  0  0  0  0  0  # atno 6907 bound_to 6896
  150.8126  134.7293  159.6713 H   0  0  0  0  0  0  0  0  0  0  0  0  # atno 6908 bound_to 6896
  152.4222  134.5939  160.0033 H   0  0  0  0  0  0  0  0  0  0  0  0  # atno 6909 bound_to 6896
  145.3227  140.9425  143.2706 H   0  0  0  0  0  0  0  0  0  0  0  0  # atno 7974 bound_to 7965
  156.0277  140.1275  157.0291 H   0  0  0  0  0  0  0  0  0  0  0  0  # atno 8008 bound_to 7997
  154.4337  140.1056  156.6124 H   0  0  0  0  0  0  0  0  0  0  0  0  # atno 8009 bound_to 7997
  155.5853  140.3468  155.4553 H   0  0  0  0  0  0  0  0  0  0  0  0  # atno 8010 bound_to 7997
  140.4968  144.0379  150.6317 H   0  0  0  0  0  0  0  0  0  0  0  0  # atno 10167 bound_to 10162
  157.2275  130.7008  149.6298 H   0  0  0  0  0  0  0  0  0  0  0  0  # atno 10718 bound_to 10713
  154.7147  135.3013  154.9142 H   0  0  0  0  0  0  0  0  0  0  0  0  # atno 10763 bound_to 10752
  154.0033  135.6704  153.4764 H   0  0  0  0  0  0  0  0  0  0  0  0  # atno 10764 bound_to 10752
  153.0783  135.5022  154.8366 H   0  0  0  0  0  0  0  0  0  0  0  0  # atno 10765 bound_to 10752
  141.0248  133.6846  156.2461 H   0  0  0  0  0  0  0  0  0  0  0  0  # atno 11005 bound_to 11000
  144.8926  139.4754  143.6670 LP  0  0  0  0  0  0  0  0  0  0  0  0  # atno 17320 bound_to 7965
  146.3076  139.7634  142.9044 LP  0  0  0  0  0  0  0  0  0  0  0  0  # atno 17321 bound_to 7965
  140.3664  143.2879  152.0327 LP  0  0  0  0  0  0  0  0  0  0  0  0  # atno 17342 bound_to 10162
  139.4863  144.6264  151.7156 LP  0  0  0  0  0  0  0  0  0  0  0  0  # atno 17343 bound_to 10162
  155.9678  130.4500  150.5679 LP  0  0  0  0  0  0  0  0  0  0  0  0  # atno 17370 bound_to 10713
  157.3513  131.0734  151.1711 LP  0  0  0  0  0  0  0  0  0  0  0  0  # atno 17371 bound_to 10713
  140.6511  134.5066  157.5577 LP  0  0  0  0  0  0  0  0  0  0  0  0  # atno 17394 bound_to 11000
  139.9169  134.8228  156.1338 LP  0  0  0  0  0  0  0  0  0  0  0  0  # atno 17395 bound_to 11000

$$$$
