AV-unprocessed.smi:1386|AV-procd|sdf|5638|dock9
  -GOLD-   22720 5253D 1   1.00000     0.00000
 Structure written by MMmdl.
 35 36  0  0  0  0  0  0  0  0  1 V2000
  151.3220  139.8913  155.5837 C   0  0  0  0  0  0  0  0  0  0  0  0
  150.4921  140.8471  156.4537 C   0  0  2  0  0  0  0  0  0  0  0  0
  149.6804  141.8356  155.5950 C   0  0  0  0  0  0  0  0  0  0  0  0
  148.5849  141.1857  154.8990 N   0  0  0  0  0  0  0  0  0  0  0  0
  147.3035  141.6831  154.7034 C   0  0  0  0  0  0  0  0  0  0  0  0
  146.6177  140.7301  153.9847 C   0  0  0  0  0  0  0  0  0  0  0  0
  147.4518  139.6441  153.7301 N   0  0  0  0  0  0  0  0  0  0  0  0
  148.5985  139.9851  154.3034 C   0  0  0  0  0  0  0  0  0  0  0  0
  151.3712  141.5823  157.3604 N   0  0  0  0  0  0  0  0  0  0  0  0
  150.9770  142.3929  158.3572 C   0  0  0  0  0  0  0  0  0  0  0  0
  149.7891  142.5585  158.6374 O   0  0  0  0  0  0  0  0  0  0  0  0
  151.9891  143.0174  159.0116 N   0  0  0  0  0  0  0  0  0  0  0  0
  153.3557  142.4991  159.1906 C   0  0  0  0  0  0  0  0  0  0  0  0
  153.4678  141.8493  160.5795 C   0  0  0  0  0  0  0  0  0  0  0  0
  153.1940  143.0769  161.8952 S   0  0  0  0  0  0  0  0  0  0  0  0
  151.6472  143.8282  161.2978 C   0  0  0  0  0  0  0  0  0  0  0  0
  151.7593  144.2236  159.8156 C   0  0  0  0  0  0  0  0  0  0  0  0
  150.6824  139.3165  154.9137 H   0  0  0  0  0  0  0  0  0  0  0  0
  151.8767  139.1803  156.1969 H   0  0  0  0  0  0  0  0  0  0  0  0
  152.0417  140.4353  154.9708 H   0  0  0  0  0  0  0  0  0  0  0  0
  149.7863  140.2498  157.0344 H   0  0  0  0  0  0  0  0  0  0  0  0
  149.2783  142.6424  156.2096 H   0  0  0  0  0  0  0  0  0  0  0  0
  150.3240  142.3022  154.8483 H   0  0  0  0  0  0  0  0  0  0  0  0
  146.9956  142.6481  155.0781 H   0  0  0  0  0  0  0  0  0  0  0  0
  145.5965  140.7427  153.6337 H   0  0  0  0  0  0  0  0  0  0  0  0
  149.4719  139.3499  154.2831 H   0  0  0  0  0  0  0  0  0  0  0  0
  152.3632  141.4960  157.1949 H   0  0  0  0  0  0  0  0  0  0  0  0
  153.6494  141.7866  158.4195 H   0  0  0  0  0  0  0  0  0  0  0  0
  154.0755  143.3142  159.1034 H   0  0  0  0  0  0  0  0  0  0  0  0
  152.7391  141.0446  160.6839 H   0  0  0  0  0  0  0  0  0  0  0  0
  154.4548  141.4069  160.7148 H   0  0  0  0  0  0  0  0  0  0  0  0
  150.8291  143.1215  161.4421 H   0  0  0  0  0  0  0  0  0  0  0  0
  151.4247  144.7032  161.9086 H   0  0  0  0  0  0  0  0  0  0  0  0
  152.5773  144.9314  159.6752 H   0  0  0  0  0  0  0  0  0  0  0  0
  150.8600  144.7575  159.5046 H   0  0  0  0  0  0  0  0  0  0  0  0
  1  2  1  0  0  0  0
  1 18  1  0  0  0  0
  1 19  1  0  0  0  0
  1 20  1  0  0  0  0
  2  3  1  0  0  0  0
  2  9  1  0  0  0  0
  2 21  1  0  0  0  0
  3  4  1  0  0  0  0
  3 22  1  0  0  0  0
  3 23  1  0  0  0  0
  4  8  1  0  0  0  0
  4  5  1  0  0  0  0
  5  6  2  0  0  0  0
  5 24  1  0  0  0  0
  6  7  1  0  0  0  0
  6 25  1  0  0  0  0
  7  8  2  0  0  0  0
  8 26  1  0  0  0  0
  9 10  1  0  0  0  0
  9 27  1  0  0  0  0
 10 11  2  0  0  0  0
 10 12  1  0  0  0  0
 12 17  1  0  0  0  0
 12 13  1  0  0  0  0
 13 14  1  0  0  0  0
 13 28  1  0  0  0  0
 13 29  1  0  0  0  0
 14 15  1  0  0  0  0
 14 30  1  0  0  0  0
 14 31  1  0  0  0  0
 15 16  1  0  0  0  0
 16 17  1  0  0  0  0
 16 32  1  0  0  0  0
 16 33  1  0  0  0  0
 17 34  1  0  0  0  0
 17 35  1  0  0  0  0
M  END
> <s_m_source_file>
AV-unprocessed.smi

> <i_m_source_file_index>
1386

> <i_lp_mmshare_version>
43012

> <i_f3d_flags>
0

> <s_epik_input>
W2NIXTFuW2NIXVtjSF1uMVtDSDJdW0NAQEhdKFtDSDNdKVtOSF1DKD1PKU4yW0NIMl1bQ0gyXVNbQ0gyXVtDSDJdMg==

> <s_epik_cmdline>
J2VwaWtfcHl0aG9uJywgJy1waCcsICc3LjAnLCAnLXRuJywgJzgnLCAnLW1hJywgJzIwMCcsICctbWV0YWxfYmluZGluZycsICctaW1hZScsICc8aW5maWxlLm1hZT4nLCAnLW9tYWUnLCAnPG91dGZpbGUubWFlPic=

> <r_lp_tautomer_probability>
1

> <r_epik_Ionization_Penalty>
0.622677

> <r_epik_Ionization_Penalty_Charging>
0.62263

> <r_epik_Ionization_Penalty_Neutral>
4.67019e-05

> <r_epik_State_Penalty>
0.63879

> <r_epik_Charging_Adjusted_Penalty>
1.26142

> <i_epik_Tot_Q>
0

> <i_epik_Tot_abs_Q>
0

> <r_epik_Metal_State_Penalty>
0.307117

> <b_epik_Metal_Only>
0

> <s_lp_Force_Field>
OPLS_2005

> <r_lp_Energy>
25.5009

> <b_lp_Chiralities_Consistent>
1

> <s_lp_Variant>
AV-unprocessed.smi:1386-3

> <Gold.Version>
5.8.1

> <Gold.Id.Protein>
6NUR|6NUR_protein|mol2

> <Gold.PLP.Fitness>
45.4740

> <Gold.PLP.PLP>
-40.7409

> <Gold.PLP.part.hbond>
0.0000

> <Gold.PLP.part.metal>
0.0000

> <Gold.PLP.part.buried>
-3.8350

> <Gold.PLP.part.nonpolar>
-37.9192

> <Gold.PLP.part.repulsive>
1.0100

> <Gold.PLP.ligand.clash>
0.0000

> <Gold.PLP.ligand.torsion>
0.6504

> <Gold.PLP.Chemscore.Hbond>
0.0000

> <Gold.PLP.Chemscore.CHOScore>
1.9992

> <Gold.PLP.Chemscore.Metal>
0.0000

> <Gold.Chemscore.Hbonds>
donor molecule, donor type, donor heavy atom, donor atom, acceptor molecule, acceptor atom, score
      L1  C     5    24       P1  8028  0.22
      L1  C     6    25       P1 10175  1.00

> <Gold.PLP.Chemscore.Internal.Correction>
0.0366

> <Gold.Rescore>
     Score         DG    S(hbond)    S(metal)    S(lipo)     H(rot)  DE(clash)    DE(int)     intcor
     11.58     -12.25       0.00        0.00      92.67       1.59       0.03       0.64       ----

> <Gold.Chemscore.Fitness>
11.5840

> <Gold.Chemscore.DG>
-12.2520

> <Gold.Chemscore.ZeroCoef>
-5.4800

> <Gold.Chemscore.Hbond>
0.0000

> <Gold.Chemscore.Metal>
0.0000

> <Gold.Chemscore.Lipo>
92.6714

> <Gold.Chemscore.Internal_Hbond>
0.0000

> <Gold.Chemscore.DEClash>
0.0274

> <Gold.Chemscore.DEInternal>
0.6406

> <Gold.Chemscore.Rot>
1.5901

> <Gold.Chemscore.Internal.Correction>
   9.000000E+99

> <Gold.Chemscore.Hbond.Weighted>
-0.0000

> <Gold.Chemscore.Metal.Weighted>
-0.0000

> <Gold.Chemscore.Lipo.Weighted>
-10.8426

> <Gold.Chemscore.Internal_Hbond.Weighted>
0.0000

> <Gold.Chemscore.DEClash.Weighted>
0.0274

> <Gold.Chemscore.DEInternal.Weighted>
0.6406

> <Gold.Chemscore.Rot.Weighted>
4.0706

> <Gold.Chemscore.Internal.Correction.Weighted>
   9.000000E+99

> <Gold.Protein.RotatedTorsions>
[ 6907 6896 6895 6894 ] final  169.64 input  -60.11 | X-H torsion
[ 7974 7965 7964 7962 ] final -114.30 input  175.53 | X-H torsion
[ 8008 7997 7996 7995 ] final  -76.66 input   59.86 | X-H torsion
[ 10167 10162 10161 10158 ] final  103.38 input  -65.29 | X-H torsion
[ 10718 10713 10712 10709 ] final   87.97 input   66.30 | X-H torsion
[ 10763 10752 10751 10750 ] final  -92.42 input  -60.55 | X-H torsion
[ 11005 11000 10999 10996 ] final  108.97 input  -57.11 | X-H torsion

> <Gold.Protein.ActiveResidues>
 VAL166  LYS551  ARG553  GLY616  TRP617  ASP618  TYR619  PRO620  LYS621  CYS622 
 ASP623  PHE694  ASN695  SER759  ASP760  ASP761  ALA762  ILE779  LEU786  VAL792 
 PHE793  MET794  SER795  GLU796  ALA797  LYS798  CYS799  TRP800  GLU811  SER814 

> <Gold.Protein.RotatedAtoms>
  151.8286  133.3405  159.3606 H   0  0  0  0  0  0  0  0  0  0  0  0  # atno 6907 bound_to 6896
  150.7271  134.5504  159.5801 H   0  0  0  0  0  0  0  0  0  0  0  0  # atno 6908 bound_to 6896
  152.2952  134.7676  160.0420 H   0  0  0  0  0  0  0  0  0  0  0  0  # atno 6909 bound_to 6896
  145.1217  140.8673  143.3810 H   0  0  0  0  0  0  0  0  0  0  0  0  # atno 7974 bound_to 7965
  154.5525  140.0723  156.8691 H   0  0  0  0  0  0  0  0  0  0  0  0  # atno 8008 bound_to 7997
  155.2965  140.3381  155.4231 H   0  0  0  0  0  0  0  0  0  0  0  0  # atno 8009 bound_to 7997
  156.1974  140.1708  156.7956 H   0  0  0  0  0  0  0  0  0  0  0  0  # atno 8010 bound_to 7997
  139.7268  144.7045  151.0785 H   0  0  0  0  0  0  0  0  0  0  0  0  # atno 10167 bound_to 10162
  157.6945  131.0276  150.3204 H   0  0  0  0  0  0  0  0  0  0  0  0  # atno 10718 bound_to 10713
  154.6859  135.5232  153.8326 H   0  0  0  0  0  0  0  0  0  0  0  0  # atno 10763 bound_to 10752
  153.0597  135.6564  154.0501 H   0  0  0  0  0  0  0  0  0  0  0  0  # atno 10764 bound_to 10752
  154.0382  135.2979  155.3338 H   0  0  0  0  0  0  0  0  0  0  0  0  # atno 10765 bound_to 10752
  139.8853  134.9445  156.6053 H   0  0  0  0  0  0  0  0  0  0  0  0  # atno 11005 bound_to 11000
  145.0733  139.3015  143.5821 LP  0  0  0  0  0  0  0  0  0  0  0  0  # atno 17320 bound_to 7965
  146.3520  140.0214  142.8658 LP  0  0  0  0  0  0  0  0  0  0  0  0  # atno 17321 bound_to 7965
  140.7764  143.5094  150.9671 LP  0  0  0  0  0  0  0  0  0  0  0  0  # atno 17342 bound_to 10162
  139.8782  143.7105  152.3160 LP  0  0  0  0  0  0  0  0  0  0  0  0  # atno 17343 bound_to 10162
  156.3693  130.3860  149.7189 LP  0  0  0  0  0  0  0  0  0  0  0  0  # atno 17370 bound_to 10713
  156.4609  130.7951  151.2971 LP  0  0  0  0  0  0  0  0  0  0  0  0  # atno 17371 bound_to 10713
  140.7852  133.8627  155.8600 LP  0  0  0  0  0  0  0  0  0  0  0  0  # atno 17394 bound_to 11000
  140.9725  134.1512  157.4564 LP  0  0  0  0  0  0  0  0  0  0  0  0  # atno 17395 bound_to 11000

$$$$
