AV-unprocessed.smi:221|AV-procd|sdf|1698|dock2
  -GOLD-   2262020153D 1   1.00000     0.00000
 Structure written by MMmdl.
 50 53  0  0  0  0  0  0  0  0  1 V2000
  143.0257  133.3463  150.9818 N   0  0  0  0  0  0  0  0  0  0  0  0
  143.9920  132.5041  150.6086 C   0  0  0  0  0  0  0  0  0  0  0  0
  143.8909  131.7951  149.6088 O   0  0  0  0  0  0  0  0  0  0  0  0
  145.2565  132.4735  151.4794 C   0  0  2  0  0  0  0  0  0  0  0  0
  145.5303  131.0732  152.0443 C   0  0  0  0  0  0  0  0  0  0  0  0
  146.3737  131.3606  153.2812 C   0  0  1  0  0  0  0  0  0  0  0  0
  147.6428  131.5581  152.9208 F   0  0  0  0  0  0  0  0  0  0  0  0
  145.7830  132.6692  153.8090 C   0  0  0  0  0  0  0  0  0  0  0  0
  145.1312  133.3153  152.6718 N   0  0  0  0  0  0  0  0  0  0  0  0
  145.4125  134.6259  152.4951 C   0  0  0  0  0  0  0  0  0  0  0  0
  145.3940  135.1635  151.2469 N   0  0  0  0  0  0  0  0  0  0  0  0
  145.6650  136.4614  151.0772 C   0  0  0  0  0  0  0  0  0  0  0  0
  145.9725  137.3777  151.9981 N   0  0  0  0  0  0  0  0  0  0  0  0
  145.9915  136.8364  153.2504 C   0  0  0  0  0  0  0  0  0  0  0  0
  145.7243  135.4799  153.5842 C   0  0  0  0  0  0  0  0  0  0  0  0
  145.8348  135.2936  154.9561 N   0  0  0  0  0  0  0  0  0  0  0  0
  146.1512  136.4758  155.4100 C   0  0  0  0  0  0  0  0  0  0  0  0
  146.2747  137.4587  154.4536 N   0  0  0  0  0  0  0  0  0  0  0  0
  146.6240  138.8501  154.6818 C   0  0  0  0  0  0  0  0  0  0  0  0
  147.9647  139.2580  154.0217 C   0  0  1  0  0  0  0  0  0  0  0  0
  148.2255  140.7831  154.0863 C   0  0  0  0  0  0  0  0  0  0  0  0
  149.1406  141.1935  153.0909 O   0  0  0  0  0  0  0  0  0  0  0  0
  149.1529  138.4382  154.5850 C   0  0  1  0  0  0  0  0  0  0  0  0
  150.4592  138.6001  153.8278 C   0  0  0  0  0  0  0  0  0  0  0  0
  151.4775  138.0889  154.8401 C   0  0  0  0  0  0  0  0  0  0  0  0
  150.9657  138.4624  156.1140 O   0  0  0  0  0  0  0  0  0  0  0  0
  149.5963  138.8381  155.9971 C   0  0  0  0  0  0  0  0  0  0  0  0
  146.1161  132.7917  150.8853 H   0  0  0  0  0  0  0  0  0  0  0  0
  146.3611  130.5534  154.0140 H   0  0  0  0  0  0  0  0  0  0  0  0
  142.1743  133.4015  150.4419 H   0  0  0  0  0  0  0  0  0  0  0  0
  143.1476  133.9233  151.8013 H   0  0  0  0  0  0  0  0  0  0  0  0
  144.6011  130.5846  152.3438 H   0  0  0  0  0  0  0  0  0  0  0  0
  146.0366  130.4211  151.3319 H   0  0  0  0  0  0  0  0  0  0  0  0
  145.0110  132.4563  154.5490 H   0  0  0  0  0  0  0  0  0  0  0  0
  146.5379  133.2855  154.3012 H   0  0  0  0  0  0  0  0  0  0  0  0
  145.6296  136.8165  150.0580 H   0  0  0  0  0  0  0  0  0  0  0  0
  146.3109  136.6641  156.4619 H   0  0  0  0  0  0  0  0  0  0  0  0
  145.8135  139.4795  154.3124 H   0  0  0  0  0  0  0  0  0  0  0  0
  146.6653  139.0042  155.7602 H   0  0  0  0  0  0  0  0  0  0  0  0
  147.8788  139.0094  152.9628 H   0  0  0  0  0  0  0  0  0  0  0  0
  147.2985  141.3415  153.9572 H   0  0  0  0  0  0  0  0  0  0  0  0
  148.6152  141.0745  155.0615 H   0  0  0  0  0  0  0  0  0  0  0  0
  149.2768  140.4753  152.4920 H   0  0  0  0  0  0  0  0  0  0  0  0
  148.8944  137.3777  154.5901 H   0  0  0  0  0  0  0  0  0  0  0  0
  150.4880  138.0413  152.8921 H   0  0  0  0  0  0  0  0  0  0  0  0
  150.6464  139.6519  153.6062 H   0  0  0  0  0  0  0  0  0  0  0  0
  151.5420  137.0010  154.7975 H   0  0  0  0  0  0  0  0  0  0  0  0
  152.4754  138.4949  154.6734 H   0  0  0  0  0  0  0  0  0  0  0  0
  149.5290  139.9182  156.1340 H   0  0  0  0  0  0  0  0  0  0  0  0
  148.9935  138.3632  156.7713 H   0  0  0  0  0  0  0  0  0  0  0  0
  1  2  1  0  0  0  0
  1 30  1  0  0  0  0
  1 31  1  0  0  0  0
  2  3  2  0  0  0  0
  2  4  1  0  0  0  0
  4 28  1  0  0  0  0
  4  9  1  0  0  0  0
  4  5  1  0  0  0  0
  5  6  1  0  0  0  0
  5 32  1  0  0  0  0
  5 33  1  0  0  0  0
  6 29  1  0  0  0  0
  6  7  1  0  0  0  0
  6  8  1  0  0  0  0
  8  9  1  0  0  0  0
  8 34  1  0  0  0  0
  8 35  1  0  0  0  0
  9 10  1  0  0  0  0
 10 15  1  0  0  0  0
 10 11  2  0  0  0  0
 11 12  1  0  0  0  0
 12 13  2  0  0  0  0
 12 36  1  0  0  0  0
 13 14  1  0  0  0  0
 14 18  1  0  0  0  0
 14 15  2  0  0  0  0
 15 16  1  0  0  0  0
 16 17  2  0  0  0  0
 17 18  1  0  0  0  0
 17 37  1  0  0  0  0
 18 19  1  0  0  0  0
 19 20  1  0  0  0  0
 19 38  1  0  0  0  0
 19 39  1  0  0  0  0
 20 21  1  0  0  0  0
 20 23  1  0  0  0  0
 20 40  1  0  0  0  0
 21 22  1  0  0  0  0
 21 41  1  0  0  0  0
 21 42  1  0  0  0  0
 22 43  1  0  0  0  0
 23 27  1  0  0  0  0
 23 24  1  0  0  0  0
 23 44  1  0  0  0  0
 24 25  1  0  0  0  0
 24 45  1  0  0  0  0
 24 46  1  0  0  0  0
 25 26  1  0  0  0  0
 25 47  1  0  0  0  0
 25 48  1  0  0  0  0
 26 27  1  0  0  0  0
 27 49  1  0  0  0  0
 27 50  1  0  0  0  0
M  END
> <s_m_source_file>
AV-unprocessed.smi

> <i_m_source_file_index>
221

> <i_lp_mmshare_version>
43012

> <i_f3d_flags>
0

> <s_epik_input>
W05IMl1DKD1PKVtDQEBIXTFbQ0gyXVtDQEBIXShGKVtDSDJdTjFjKG5bY0hdbjIpYyhjMjMpbltjSF1uM1tDSDJdW0NASF0oW0NIMl1bT0hdKVtDQEBIXTRbQ0gyXVtDSDJdT1tDSDJdNA==

> <s_epik_cmdline>
J2VwaWtfcHl0aG9uJywgJy1waCcsICc3LjAnLCAnLXRuJywgJzgnLCAnLW1hJywgJzIwMCcsICctbWV0YWxfYmluZGluZycsICctaW1hZScsICc8aW5maWxlLm1hZT4nLCAnLW9tYWUnLCAnPG91dGZpbGUubWFlPic=

> <r_lp_tautomer_probability>
1

> <r_epik_Ionization_Penalty>
0.000818822

> <r_epik_Ionization_Penalty_Charging>
0

> <r_epik_Ionization_Penalty_Neutral>
0.000818822

> <r_epik_State_Penalty>
0.000440551

> <r_epik_Charging_Adjusted_Penalty>
0.000440551

> <i_epik_Tot_Q>
0

> <i_epik_Tot_abs_Q>
0

> <r_epik_Metal_State_Penalty>
-0

> <b_epik_Metal_Only>
0

> <s_lp_Force_Field>
OPLS_2005

> <r_lp_Energy>
50.4935

> <b_lp_Chiralities_Consistent>
1

> <s_lp_Variant>
AV-unprocessed.smi:221-13

> <Gold.Version>
5.8.1

> <Gold.Id.Protein>
6NUR|6NUR_protein|mol2

> <Gold.PLP.Fitness>
43.3087

> <Gold.PLP.PLP>
-31.3349

> <Gold.PLP.part.hbond>
-4.4854

> <Gold.PLP.part.metal>
0.0000

> <Gold.PLP.part.buried>
-6.3924

> <Gold.PLP.part.nonpolar>
-23.2765

> <Gold.PLP.part.repulsive>
0.7793

> <Gold.PLP.ligand.clash>
0.0000

> <Gold.PLP.ligand.torsion>
0.9585

> <Gold.PLP.Chemscore.Hbond>
3.7533

> <Gold.PLP.Chemscore.CHOScore>
0.7250

> <Gold.PLP.Chemscore.Metal>
0.0000

> <Gold.Chemscore.Hbonds>
donor molecule, donor type, donor heavy atom, donor atom, acceptor molecule, acceptor atom, score
      L1  H     1    30       P1 10186  0.96
      L1  H    22    43       P1  7957  0.72
      P1  H  8011  8017       L1    22  1.00
      P1  H 10785 10796       L1     3  0.80
      L1  C    12    36       P1 10171  0.63

> <Gold.PLP.Chemscore.Internal.Correction>
0.4562

> <Gold.Rescore>
     Score         DG    S(hbond)    S(metal)    S(lipo)     H(rot)  DE(clash)    DE(int)     intcor
      9.23     -12.53       2.88        0.00      59.39       3.72       0.21       3.09       ----

> <Gold.Chemscore.Fitness>
9.2271

> <Gold.Chemscore.DG>
-12.5258

> <Gold.Chemscore.ZeroCoef>
-5.4800

> <Gold.Chemscore.Hbond>
2.8806

> <Gold.Chemscore.Metal>
0.0000

> <Gold.Chemscore.Lipo>
59.3869

> <Gold.Chemscore.Internal_Hbond>
0.0000

> <Gold.Chemscore.DEClash>
0.2063

> <Gold.Chemscore.DEInternal>
3.0924

> <Gold.Chemscore.Rot>
3.7202

> <Gold.Chemscore.Internal.Correction>
   9.000000E+99

> <Gold.Chemscore.Hbonds>
donor molecule, donor type, donor heavy atom, donor atom, acceptor molecule, acceptor atom, score
      L1  H     1    30       P1 10186  0.92
      L1  H    22    43       P1  7957  0.70
      P1  H  8011  8017       L1    22  0.34
      P1  H 10785 10796       L1     3  0.77

> <Gold.Chemscore.Hbond.Weighted>
-9.6213

> <Gold.Chemscore.Metal.Weighted>
-0.0000

> <Gold.Chemscore.Lipo.Weighted>
-6.9483

> <Gold.Chemscore.Internal_Hbond.Weighted>
0.0000

> <Gold.Chemscore.DEClash.Weighted>
0.2063

> <Gold.Chemscore.DEInternal.Weighted>
3.0924

> <Gold.Chemscore.Rot.Weighted>
9.5237

> <Gold.Chemscore.Internal.Correction.Weighted>
   9.000000E+99

> <Gold.Protein.RotatedTorsions>
[ 6907 6896 6895 6894 ] final  108.87 input  -60.11 | X-H torsion
[ 7974 7965 7964 7962 ] final -110.44 input  175.53 | X-H torsion
[ 8008 7997 7996 7995 ] final    6.31 input   59.86 | X-H torsion
[ 10167 10162 10161 10158 ] final  -82.28 input  -65.29 | X-H torsion
[ 10718 10713 10712 10709 ] final  -40.29 input   66.30 | X-H torsion
[ 10763 10752 10751 10750 ] final -105.14 input  -60.55 | X-H torsion
[ 11005 11000 10999 10996 ] final   -3.72 input  -57.11 | X-H torsion

> <Gold.Protein.ActiveResidues>
 VAL166  LYS551  ARG553  GLY616  TRP617  ASP618  TYR619  PRO620  LYS621  CYS622 
 ASP623  PHE694  ASN695  SER759  ASP760  ASP761  ALA762  ILE779  LEU786  VAL792 
 PHE793  MET794  SER795  GLU796  ALA797  LYS798  CYS799  TRP800  GLU811  SER814 

> <Gold.Protein.RotatedAtoms>
  152.5093  133.9025  159.7447 H   0  0  0  0  0  0  0  0  0  0  0  0  # atno 6907 bound_to 6896
  150.9438  133.6618  159.2792 H   0  0  0  0  0  0  0  0  0  0  0  0  # atno 6908 bound_to 6896
  151.3920  135.0962  159.9582 H   0  0  0  0  0  0  0  0  0  0  0  0  # atno 6909 bound_to 6896
  145.1683  140.8913  143.3550 H   0  0  0  0  0  0  0  0  0  0  0  0  # atno 7974 bound_to 7965
  154.7393  140.2746  155.6387 H   0  0  0  0  0  0  0  0  0  0  0  0  # atno 8008 bound_to 7997
  156.2870  140.2700  156.2042 H   0  0  0  0  0  0  0  0  0  0  0  0  # atno 8009 bound_to 7997
  155.0279  140.0371  157.2452 H   0  0  0  0  0  0  0  0  0  0  0  0  # atno 8010 bound_to 7997
  140.4335  143.2540  151.8727 H   0  0  0  0  0  0  0  0  0  0  0  0  # atno 10167 bound_to 10162
  156.2830  130.4219  149.8317 H   0  0  0  0  0  0  0  0  0  0  0  0  # atno 10718 bound_to 10713
  154.7927  135.4760  154.0088 H   0  0  0  0  0  0  0  0  0  0  0  0  # atno 10763 bound_to 10752
  153.1655  135.6816  153.8689 H   0  0  0  0  0  0  0  0  0  0  0  0  # atno 10764 bound_to 10752
  153.8288  135.3194  155.3395 H   0  0  0  0  0  0  0  0  0  0  0  0  # atno 10765 bound_to 10752
  140.6725  133.9224  155.8503 H   0  0  0  0  0  0  0  0  0  0  0  0  # atno 11005 bound_to 11000
  145.0260  139.3383  143.6049 LP  0  0  0  0  0  0  0  0  0  0  0  0  # atno 17320 bound_to 7965
  146.3472  139.9578  142.8721 LP  0  0  0  0  0  0  0  0  0  0  0  0  # atno 17321 bound_to 7965
  139.4786  144.5309  151.8668 LP  0  0  0  0  0  0  0  0  0  0  0  0  # atno 17342 bound_to 10162
  140.4400  144.1999  150.5891 LP  0  0  0  0  0  0  0  0  0  0  0  0  # atno 17343 bound_to 10162
  156.5758  130.8444  151.3369 LP  0  0  0  0  0  0  0  0  0  0  0  0  # atno 17370 bound_to 10713
  157.7320  130.9708  150.1907 LP  0  0  0  0  0  0  0  0  0  0  0  0  # atno 17371 bound_to 10713
  141.0381  134.0660  157.3935 LP  0  0  0  0  0  0  0  0  0  0  0  0  # atno 17394 bound_to 11000
  139.8977  135.0151  156.7113 LP  0  0  0  0  0  0  0  0  0  0  0  0  # atno 17395 bound_to 11000

$$$$
