AV-unprocessed.smi:69|AV-procd|sdf|652|dock9
  -GOLD-   2262016553D 1   1.00000     0.00000
 Structure written by MMmdl.
 32 34  0  0  0  0  0  0  0  0  1 V2000
  148.9873  136.6281  160.0257 N   0  0  0  0  0  0  0  0  0  0  0  0
  149.3559  136.8958  158.7654 C   0  0  0  0  0  0  0  0  0  0  0  0
  150.2474  136.0711  158.1667 N   0  0  0  0  0  0  0  0  0  0  0  0
  150.6289  136.3151  156.9082 C   0  0  0  0  0  0  0  0  0  0  0  0
  150.2493  137.3061  156.0962 N   0  0  0  0  0  0  0  0  0  0  0  0
  149.3530  138.1368  156.7055 C   0  0  0  0  0  0  0  0  0  0  0  0
  148.8550  137.9994  158.0298 C   0  0  0  0  0  0  0  0  0  0  0  0
  147.9530  139.0189  158.3019 N   0  0  0  0  0  0  0  0  0  0  0  0
  147.9203  139.7142  157.1958 C   0  0  0  0  0  0  0  0  0  0  0  0
  148.7496  139.2629  156.1884 N   0  0  0  0  0  0  0  0  0  0  0  0
  148.9495  139.7981  154.8021 C   0  0  1  0  0  0  0  0  0  0  0  0
  148.3607  138.9205  153.8935 O   0  0  0  0  0  0  0  0  0  0  0  0
  147.0143  139.3158  153.6666 C   0  0  2  0  0  0  0  0  0  0  0  0
  146.4999  138.6956  152.3591 C   0  0  0  0  0  0  0  0  0  0  0  0
  147.5682  138.5258  151.4520 O   0  0  0  0  0  0  0  0  0  0  0  0
  147.1341  140.8418  153.6181 C   0  0  1  0  0  0  0  0  0  0  0  0
  145.9117  141.4418  153.9980 O   0  0  0  0  0  0  0  0  0  0  0  0
  148.2278  141.1509  154.6400 C   0  0  2  0  0  0  0  0  0  0  0  0
  149.0970  142.1501  154.1472 O   0  0  0  0  0  0  0  0  0  0  0  0
  150.0332  139.8328  154.6805 H   0  0  0  0  0  0  0  0  0  0  0  0
  146.3915  139.0189  154.5129 H   0  0  0  0  0  0  0  0  0  0  0  0
  147.4263  141.1671  152.6180 H   0  0  0  0  0  0  0  0  0  0  0  0
  147.8093  141.4715  155.5957 H   0  0  0  0  0  0  0  0  0  0  0  0
  148.3223  137.2287  160.4917 H   0  0  0  0  0  0  0  0  0  0  0  0
  149.3756  135.8298  160.5066 H   0  0  0  0  0  0  0  0  0  0  0  0
  151.3401  135.6166  156.4924 H   0  0  0  0  0  0  0  0  0  0  0  0
  147.2829  140.5800  157.0910 H   0  0  0  0  0  0  0  0  0  0  0  0
  146.0761  137.7099  152.5532 H   0  0  0  0  0  0  0  0  0  0  0  0
  145.7136  139.3048  151.9123 H   0  0  0  0  0  0  0  0  0  0  0  0
  148.2460  139.1484  151.6665 H   0  0  0  0  0  0  0  0  0  0  0  0
  145.2031  140.9076  153.6723 H   0  0  0  0  0  0  0  0  0  0  0  0
  149.0051  142.9184  154.6903 H   0  0  0  0  0  0  0  0  0  0  0  0
  1  2  1  0  0  0  0
  1 24  1  0  0  0  0
  1 25  1  0  0  0  0
  2  7  1  0  0  0  0
  2  3  2  0  0  0  0
  3  4  1  0  0  0  0
  4  5  2  0  0  0  0
  4 26  1  0  0  0  0
  5  6  1  0  0  0  0
  6 10  1  0  0  0  0
  6  7  2  0  0  0  0
  7  8  1  0  0  0  0
  8  9  2  0  0  0  0
  9 10  1  0  0  0  0
  9 27  1  0  0  0  0
 10 11  1  0  0  0  0
 11 20  1  0  0  0  0
 11 18  1  0  0  0  0
 11 12  1  0  0  0  0
 12 13  1  0  0  0  0
 13 21  1  0  0  0  0
 13 14  1  0  0  0  0
 13 16  1  0  0  0  0
 14 15  1  0  0  0  0
 14 28  1  0  0  0  0
 14 29  1  0  0  0  0
 15 30  1  0  0  0  0
 16 22  1  0  0  0  0
 16 17  1  0  0  0  0
 16 18  1  0  0  0  0
 17 31  1  0  0  0  0
 18 23  1  0  0  0  0
 18 19  1  0  0  0  0
 19 32  1  0  0  0  0
M  END
> <s_m_source_file>
AV-unprocessed.smi

> <i_m_source_file_index>
69

> <i_lp_mmshare_version>
43012

> <i_f3d_flags>
0

> <s_epik_input>
bjFbY0hdbmMoW05IMl0pYyhjMTIpbltjSF1uMltDQEBIXTNPW0NASF0oW0NIMl1bT0hdKVtDQEBIXShbT0hdKVtDQEhdM1tPSF0=

> <s_epik_cmdline>
J2VwaWtfcHl0aG9uJywgJy1waCcsICc3LjAnLCAnLXRuJywgJzgnLCAnLW1hJywgJzIwMCcsICctbWV0YWxfYmluZGluZycsICctaW1hZScsICc8aW5maWxlLm1hZT4nLCAnLW9tYWUnLCAnPG91dGZpbGUubWFlPic=

> <r_lp_tautomer_probability>
1

> <r_epik_Ionization_Penalty>
0.000428445

> <r_epik_Ionization_Penalty_Charging>
0

> <r_epik_Ionization_Penalty_Neutral>
0.000428445

> <r_epik_State_Penalty>
-0

> <r_epik_Charging_Adjusted_Penalty>
0

> <i_epik_Tot_Q>
0

> <i_epik_Tot_abs_Q>
0

> <r_epik_Metal_State_Penalty>
-0

> <b_epik_Metal_Only>
0

> <s_epik_Chemistry_Notes>
This compound contains an acetal/aminal-like group ( X-CH(R)-Y where X, Y are N, S, or O) that may be acid/base labile, releasing an aldehyde.

> <s_lp_Force_Field>
OPLS_2005

> <r_lp_Energy>
31.7018

> <b_lp_Chiralities_Consistent>
1

> <s_lp_Variant>
AV-unprocessed.smi:69-10

> <Gold.Version>
5.8.1

> <Gold.Id.Protein>
6NUR|6NUR_protein|mol2

> <Gold.PLP.Fitness>
38.1028

> <Gold.PLP.PLP>
-23.6884

> <Gold.PLP.part.hbond>
-8.1947

> <Gold.PLP.part.metal>
0.0000

> <Gold.PLP.part.buried>
-3.0366

> <Gold.PLP.part.nonpolar>
-13.1915

> <Gold.PLP.part.repulsive>
0.4551

> <Gold.PLP.ligand.clash>
0.0000

> <Gold.PLP.ligand.torsion>
0.4759

> <Gold.PLP.Chemscore.Hbond>
5.1120

> <Gold.PLP.Chemscore.CHOScore>
0.0000

> <Gold.PLP.Chemscore.Metal>
0.0000

> <Gold.Chemscore.Hbonds>
donor molecule, donor type, donor heavy atom, donor atom, acceptor molecule, acceptor atom, score
      L1  H    15    30       P1  7957  0.93
      L1  H    17    31       P1 10175  1.00
      L1  H    19    32       P1  8028  1.00
      P1  H  6896  6909       L1     3  0.86
      P1  H  7954  7966       L1    15  1.00
      P1  H  8011  8017       L1    19  0.32

> <Gold.PLP.Chemscore.Internal.Correction>
0.0304

> <Gold.Rescore>
     Score         DG    S(hbond)    S(metal)    S(lipo)     H(rot)  DE(clash)    DE(int)     intcor
      9.56      -9.92       3.41        0.00      28.63       4.03       0.06       0.30       ----

> <Gold.Chemscore.Fitness>
9.5633

> <Gold.Chemscore.DG>
-9.9167

> <Gold.Chemscore.ZeroCoef>
-5.4800

> <Gold.Chemscore.Hbond>
3.4125

> <Gold.Chemscore.Metal>
0.0000

> <Gold.Chemscore.Lipo>
28.6318

> <Gold.Chemscore.Internal_Hbond>
0.0000

> <Gold.Chemscore.DEClash>
0.0580

> <Gold.Chemscore.DEInternal>
0.2954

> <Gold.Chemscore.Rot>
4.0277

> <Gold.Chemscore.Internal.Correction>
   9.000000E+99

> <Gold.Chemscore.Hbonds>
donor molecule, donor type, donor heavy atom, donor atom, acceptor molecule, acceptor atom, score
      L1  H    15    30       P1  7957  0.84
      L1  H    17    31       P1 10175  0.78
      L1  H    19    32       P1  8028  0.93
      P1  H  6896  6909       L1     3  0.36
      P1  H  7954  7966       L1    15  0.24
      P1  H  8011  8017       L1    19  0.29

> <Gold.Chemscore.Hbond.Weighted>
-11.3978

> <Gold.Chemscore.Metal.Weighted>
-0.0000

> <Gold.Chemscore.Lipo.Weighted>
-3.3499

> <Gold.Chemscore.Internal_Hbond.Weighted>
0.0000

> <Gold.Chemscore.DEClash.Weighted>
0.0580

> <Gold.Chemscore.DEInternal.Weighted>
0.2954

> <Gold.Chemscore.Rot.Weighted>
10.3110

> <Gold.Chemscore.Internal.Correction.Weighted>
   9.000000E+99

> <Gold.Protein.RotatedTorsions>
[ 6907 6896 6895 6894 ] final   62.74 input  -60.11 | X-H torsion
[ 7974 7965 7964 7962 ] final  163.28 input  175.53 | X-H torsion
[ 8008 7997 7996 7995 ] final  -92.77 input   59.86 | X-H torsion
[ 10167 10162 10161 10158 ] final  134.59 input  -65.29 | X-H torsion
[ 10718 10713 10712 10709 ] final   13.22 input   66.30 | X-H torsion
[ 10763 10752 10751 10750 ] final -160.42 input  -60.55 | X-H torsion
[ 11005 11000 10999 10996 ] final -161.34 input  -57.11 | X-H torsion

> <Gold.Protein.ActiveResidues>
 VAL166  LYS551  ARG553  GLY616  TRP617  ASP618  TYR619  PRO620  LYS621  CYS622 
 ASP623  PHE694  ASN695  SER759  ASP760  ASP761  ALA762  ILE779  LEU786  VAL792 
 PHE793  MET794  SER795  GLU796  ALA797  LYS798  CYS799  TRP800  GLU811  SER814 

> <Gold.Protein.RotatedAtoms>
  152.4197  134.5978  159.9991 H   0  0  0  0  0  0  0  0  0  0  0  0  # atno 6907 bound_to 6896
  151.6131  133.3340  159.3080 H   0  0  0  0  0  0  0  0  0  0  0  0  # atno 6908 bound_to 6896
  150.8085  134.7264  159.6732 H   0  0  0  0  0  0  0  0  0  0  0  0  # atno 6909 bound_to 6896
  144.7597  139.8160  143.6337 H   0  0  0  0  0  0  0  0  0  0  0  0  # atno 7974 bound_to 7965
  154.7273  140.0505  157.0694 H   0  0  0  0  0  0  0  0  0  0  0  0  # atno 8008 bound_to 7997
  155.0348  140.3162  155.4726 H   0  0  0  0  0  0  0  0  0  0  0  0  # atno 8009 bound_to 7997
  156.2832  140.2143  156.5470 H   0  0  0  0  0  0  0  0  0  0  0  0  # atno 8010 bound_to 7997
  139.5250  144.6560  151.5161 H   0  0  0  0  0  0  0  0  0  0  0  0  # atno 10167 bound_to 10162
  157.0214  130.6156  149.5722 H   0  0  0  0  0  0  0  0  0  0  0  0  # atno 10718 bound_to 10713
  154.7392  135.3064  154.8758 H   0  0  0  0  0  0  0  0  0  0  0  0  # atno 10763 bound_to 10752
  153.9578  135.6756  153.4749 H   0  0  0  0  0  0  0  0  0  0  0  0  # atno 10764 bound_to 10752
  153.0992  135.4920  154.8759 H   0  0  0  0  0  0  0  0  0  0  0  0  # atno 10765 bound_to 10752
  140.6215  134.4746  157.5224 H   0  0  0  0  0  0  0  0  0  0  0  0  # atno 11005 bound_to 11000
  146.1647  139.4774  142.9966 LP  0  0  0  0  0  0  0  0  0  0  0  0  # atno 17320 bound_to 7965
  145.6660  141.0228  143.1683 LP  0  0  0  0  0  0  0  0  0  0  0  0  # atno 17321 bound_to 7965
  140.6385  143.8935  150.6670 LP  0  0  0  0  0  0  0  0  0  0  0  0  # atno 17342 bound_to 10162
  140.2262  143.3770  152.1603 LP  0  0  0  0  0  0  0  0  0  0  0  0  # atno 17343 bound_to 10162
  156.0101  130.5191  150.7959 LP  0  0  0  0  0  0  0  0  0  0  0  0  # atno 17370 bound_to 10713
  157.5246  131.0933  151.0034 LP  0  0  0  0  0  0  0  0  0  0  0  0  # atno 17371 bound_to 10713
  139.9152  134.8262  156.1392 LP  0  0  0  0  0  0  0  0  0  0  0  0  # atno 17394 bound_to 11000
  141.0739  133.6784  156.2197 LP  0  0  0  0  0  0  0  0  0  0  0  0  # atno 17395 bound_to 11000

$$$$
