AV-unprocessed.smi:2027|AV-procd|sdf|8214|dock9
  -GOLD-   2272010483D 1   1.00000     0.00000
 Structure written by MMmdl.
 50 52  0  0  0  0  0  0  0  0  2 V2000
  151.5621  143.8458  159.4649 C   0  0  0  0  0  0  0  0  0  0  0  0
  151.5108  142.5888  158.6141 C   0  0  0  0  0  0  0  0  0  0  0  0
  150.6650  142.5591  157.4826 C   0  0  0  0  0  0  0  0  0  0  0  0
  150.5904  141.4111  156.6640 C   0  0  0  0  0  0  0  0  0  0  0  0
  149.8449  141.1674  155.5232 N   0  0  0  0  0  0  0  0  0  0  0  0
  150.2108  139.9245  155.2240 C   0  0  0  0  0  0  0  0  0  0  0  0
  151.1070  139.3327  156.0368 N   0  0  0  0  0  0  0  0  0  0  0  0
  151.6521  137.9932  155.9079 C   0  0  0  0  0  0  0  0  0  0  0  0
  151.1209  137.2557  154.6635 C   0  0  1  0  0  0  0  0  0  0  0  0
  152.0550  137.3758  153.6066 O   0  0  0  0  0  0  0  0  0  0  0  0
  150.8866  135.7597  154.9419 C   0  0  0  0  0  0  0  0  0  0  0  0
  149.4705  135.3707  154.7061 N   0  3  2  0  0  0  0  0  0  0  0  0
  148.5369  136.0098  155.6619 C   0  0  0  0  0  0  0  0  0  0  0  0
  149.2625  133.9039  154.6176 C   0  0  0  0  0  0  0  0  0  0  0  0
  148.1732  133.5682  153.6336 C   0  0  0  0  0  0  0  0  0  0  0  0
  146.8194  134.0117  153.6395 C   0  0  0  0  0  0  0  0  0  0  0  0
  146.1105  133.5140  152.6403 N   0  0  0  0  0  0  0  0  0  0  0  0
  146.9848  132.7480  151.9561 N   0  0  0  0  0  0  0  0  0  0  0  0
  146.5399  132.0354  150.7777 C   0  0  0  0  0  0  0  0  0  0  0  0
  148.2379  132.7651  152.5293 C   0  0  0  0  0  0  0  0  0  0  0  0
  151.3897  140.2833  157.0125 C   0  0  0  0  0  0  0  0  0  0  0  0
  152.2341  140.3002  158.1369 C   0  0  0  0  0  0  0  0  0  0  0  0
  152.2988  141.4564  158.9423 C   0  0  0  0  0  0  0  0  0  0  0  0
  153.2174  141.4669  160.1513 C   0  0  0  0  0  0  0  0  0  0  0  0
  150.8800  144.6089  159.0891 H   0  0  0  0  0  0  0  0  0  0  0  0
  152.5679  144.2663  159.4645 H   0  0  0  0  0  0  0  0  0  0  0  0
  151.2790  143.6233  160.4940 H   0  0  0  0  0  0  0  0  0  0  0  0
  150.0654  143.4218  157.2318 H   0  0  0  0  0  0  0  0  0  0  0  0
  149.8051  139.4142  154.3627 H   0  0  0  0  0  0  0  0  0  0  0  0
  152.7405  138.0621  155.8786 H   0  0  0  0  0  0  0  0  0  0  0  0
  151.4016  137.4351  156.8110 H   0  0  0  0  0  0  0  0  0  0  0  0
  150.1898  137.7269  154.3472 H   0  0  0  0  0  0  0  0  0  0  0  0
  151.6014  137.2624  152.7848 H   0  0  0  0  0  0  0  0  0  0  0  0
  151.5619  135.1838  154.3088 H   0  0  0  0  0  0  0  0  0  0  0  0
  151.1648  135.5112  155.9672 H   0  0  0  0  0  0  0  0  0  0  0  0
  148.7024  135.6408  156.6750 H   0  0  0  0  0  0  0  0  0  0  0  0
  147.5020  135.8008  155.3884 H   0  0  0  0  0  0  0  0  0  0  0  0
  148.6595  137.0927  155.6689 H   0  0  0  0  0  0  0  0  0  0  0  0
  150.2051  133.4211  154.3552 H   0  0  0  0  0  0  0  0  0  0  0  0
  148.9934  133.5199  155.6025 H   0  0  0  0  0  0  0  0  0  0  0  0
  146.3315  134.6695  154.3438 H   0  0  0  0  0  0  0  0  0  0  0  0
  147.3983  131.6390  150.2343 H   0  0  0  0  0  0  0  0  0  0  0  0
  145.9869  132.7083  150.1214 H   0  0  0  0  0  0  0  0  0  0  0  0
  145.8926  131.2088  151.0712 H   0  0  0  0  0  0  0  0  0  0  0  0
  149.0613  132.2032  152.1132 H   0  0  0  0  0  0  0  0  0  0  0  0
  152.8296  139.4318  158.3760 H   0  0  0  0  0  0  0  0  0  0  0  0
  153.7478  140.5200  160.2567 H   0  0  0  0  0  0  0  0  0  0  0  0
  152.6458  141.6334  161.0646 H   0  0  0  0  0  0  0  0  0  0  0  0
  153.9614  142.2584  160.0586 H   0  0  0  0  0  0  0  0  0  0  0  0
  149.2326  135.7314  153.7927 H   0  0  0  0  0  0  0  0  0  0  0  0
  1  2  1  0  0  0  0
  1 25  1  0  0  0  0
  1 26  1  0  0  0  0
  1 27  1  0  0  0  0
  2 23  1  0  0  0  0
  2  3  2  0  0  0  0
  3  4  1  0  0  0  0
  3 28  1  0  0  0  0
  4 21  2  0  0  0  0
  4  5  1  0  0  0  0
  5  6  2  0  0  0  0
  6  7  1  0  0  0  0
  6 29  1  0  0  0  0
  7  8  1  0  0  0  0
  7 21  1  0  0  0  0
  8  9  1  0  0  0  0
  8 30  1  0  0  0  0
  8 31  1  0  0  0  0
  9 10  1  0  0  0  0
  9 11  1  0  0  0  0
  9 32  1  0  0  0  0
 10 33  1  0  0  0  0
 11 12  1  0  0  0  0
 11 34  1  0  0  0  0
 11 35  1  0  0  0  0
 12 13  1  0  0  0  0
 12 14  1  0  0  0  0
 12 50  1  0  0  0  0
 13 36  1  0  0  0  0
 13 37  1  0  0  0  0
 13 38  1  0  0  0  0
 14 15  1  0  0  0  0
 14 39  1  0  0  0  0
 14 40  1  0  0  0  0
 15 20  2  0  0  0  0
 15 16  1  0  0  0  0
 16 17  2  0  0  0  0
 16 41  1  0  0  0  0
 17 18  1  0  0  0  0
 18 19  1  0  0  0  0
 18 20  1  0  0  0  0
 19 42  1  0  0  0  0
 19 43  1  0  0  0  0
 19 44  1  0  0  0  0
 20 45  1  0  0  0  0
 21 22  1  0  0  0  0
 22 23  2  0  0  0  0
 22 46  1  0  0  0  0
 23 24  1  0  0  0  0
 24 47  1  0  0  0  0
 24 48  1  0  0  0  0
 24 49  1  0  0  0  0
M  CHG  1  12   1
M  END
> <s_m_source_file>
AV-unprocessed.smi

> <i_m_source_file_index>
2027

> <i_lp_mmshare_version>
43012

> <i_f3d_flags>
0

> <s_epik_input>
W0NIM11jKFtjSF0xKWMoW0NIM10pW2NIXWMoYzEyKW4oW2NIXW4yKVtDSDJdW0NASF0oW09IXSlbQ0gyXU4oW0NIM10pW0NIMl1jM1tjSF1ubihbQ0gzXSlbY0hdMw==

> <s_epik_cmdline>
J2VwaWtfcHl0aG9uJywgJy1waCcsICc3LjAnLCAnLXRuJywgJzgnLCAnLW1hJywgJzIwMCcsICctbWV0YWxfYmluZGluZycsICctaW1hZScsICc8aW5maWxlLm1hZT4nLCAnLW9tYWUnLCAnPG91dGZpbGUubWFlPic=

> <r_lp_tautomer_probability>
1

> <r_epik_Ionization_Penalty>
0.646578

> <r_epik_Ionization_Penalty_Charging>
0.559419

> <r_epik_Ionization_Penalty_Neutral>
0.087159

> <r_epik_State_Penalty>
0.661677

> <r_epik_Charging_Adjusted_Penalty>
1.2211

> <i_epik_Tot_Q>
1

> <i_epik_Tot_abs_Q>
1

> <r_epik_Metal_State_Penalty>
0.649174

> <b_epik_Metal_Only>
0

> <s_lp_Force_Field>
OPLS_2005

> <r_lp_Energy>
10.2185

> <b_lp_Chiralities_Consistent>
1

> <s_lp_Variant>
AV-unprocessed.smi:2027-6

> <Gold.Version>
5.8.1

> <Gold.Id.Protein>
6NUR|6NUR_protein|mol2

> <Gold.PLP.Fitness>
58.1199

> <Gold.PLP.PLP>
-46.3575

> <Gold.PLP.part.hbond>
-4.0000

> <Gold.PLP.part.metal>
0.0000

> <Gold.PLP.part.buried>
-1.7556

> <Gold.PLP.part.nonpolar>
-40.5136

> <Gold.PLP.part.repulsive>
0.2080

> <Gold.PLP.ligand.clash>
0.0000

> <Gold.PLP.ligand.torsion>
1.7062

> <Gold.PLP.Chemscore.Hbond>
4.0000

> <Gold.PLP.Chemscore.CHOScore>
1.0000

> <Gold.PLP.Chemscore.Metal>
0.0000

> <Gold.Chemscore.Hbonds>
donor molecule, donor type, donor heavy atom, donor atom, acceptor molecule, acceptor atom, score
      L1  H    10    33       P1  7949  0.86
      L1  H    12    50       P1  7948  2.00
      P1  H 10752 10763       L1    10  0.90
      L1  C    20    45       P1 10747  0.95

> <Gold.PLP.Chemscore.Internal.Correction>
0.1748

> <Gold.Rescore>
     Score         DG    S(hbond)    S(metal)    S(lipo)     H(rot)  DE(clash)    DE(int)     intcor
     19.14     -21.14       2.58        0.00     115.13       2.50       0.13       1.87       ----

> <Gold.Chemscore.Fitness>
19.1361

> <Gold.Chemscore.DG>
-21.1403

> <Gold.Chemscore.ZeroCoef>
-5.4800

> <Gold.Chemscore.Hbond>
2.5755

> <Gold.Chemscore.Metal>
0.0000

> <Gold.Chemscore.Lipo>
115.1287

> <Gold.Chemscore.Internal_Hbond>
0.0000

> <Gold.Chemscore.DEClash>
0.1349

> <Gold.Chemscore.DEInternal>
1.8693

> <Gold.Chemscore.Rot>
2.5047

> <Gold.Chemscore.Internal.Correction>
   9.000000E+99

> <Gold.Chemscore.Hbonds>
donor molecule, donor type, donor heavy atom, donor atom, acceptor molecule, acceptor atom, score
      L1  H    10    33       P1  7949  0.81
      L1  H    12    50       P1  7948  0.68
      P1  H 10752 10763       L1    10  0.10

> <Gold.Chemscore.Hbond.Weighted>
-8.6023

> <Gold.Chemscore.Metal.Weighted>
-0.0000

> <Gold.Chemscore.Lipo.Weighted>
-13.4701

> <Gold.Chemscore.Internal_Hbond.Weighted>
0.0000

> <Gold.Chemscore.DEClash.Weighted>
0.1349

> <Gold.Chemscore.DEInternal.Weighted>
1.8693

> <Gold.Chemscore.Rot.Weighted>
6.4120

> <Gold.Chemscore.Internal.Correction.Weighted>
   9.000000E+99

> <Gold.Protein.RotatedTorsions>
[ 6907 6896 6895 6894 ] final  102.64 input  -60.11 | X-H torsion
[ 7974 7965 7964 7962 ] final   -7.31 input  175.53 | X-H torsion
[ 8008 7997 7996 7995 ] final  169.33 input   59.86 | X-H torsion
[ 10167 10162 10161 10158 ] final -147.51 input  -65.29 | X-H torsion
[ 10718 10713 10712 10709 ] final   -0.64 input   66.30 | X-H torsion
[ 10763 10752 10751 10750 ] final   20.31 input  -60.55 | X-H torsion
[ 11005 11000 10999 10996 ] final  142.70 input  -57.11 | X-H torsion

> <Gold.Protein.ActiveResidues>
 VAL166  LYS551  ARG553  GLY616  TRP617  ASP618  TYR619  PRO620  LYS621  CYS622 
 ASP623  PHE694  ASN695  SER759  ASP760  ASP761  ALA762  ILE779  LEU786  VAL792 
 PHE793  MET794  SER795  GLU796  ALA797  LYS798  CYS799  TRP800  GLU811  SER814 

> <Gold.Protein.RotatedAtoms>
  152.5318  133.9946  159.7866 H   0  0  0  0  0  0  0  0  0  0  0  0  # atno 6907 bound_to 6896
  151.0175  133.5899  159.2682 H   0  0  0  0  0  0  0  0  0  0  0  0  # atno 6908 bound_to 6896
  151.2951  135.0759  159.9271 H   0  0  0  0  0  0  0  0  0  0  0  0  # atno 6909 bound_to 6896
  146.2310  140.2300  142.8340 H   0  0  0  0  0  0  0  0  0  0  0  0  # atno 7974 bound_to 7965
  156.1467  140.1567  156.8836 H   0  0  0  0  0  0  0  0  0  0  0  0  # atno 8008 bound_to 7997
  154.5034  140.0819  156.7883 H   0  0  0  0  0  0  0  0  0  0  0  0  # atno 8009 bound_to 7997
  155.3975  140.3413  155.4257 H   0  0  0  0  0  0  0  0  0  0  0  0  # atno 8010 bound_to 7997
  139.7615  143.8370  152.2608 H   0  0  0  0  0  0  0  0  0  0  0  0  # atno 10167 bound_to 10162
  156.8174  130.5445  149.5701 H   0  0  0  0  0  0  0  0  0  0  0  0  # atno 10718 bound_to 10713
  153.1088  135.6691  153.9538 H   0  0  0  0  0  0  0  0  0  0  0  0  # atno 10763 bound_to 10752
  153.9088  135.3027  155.3450 H   0  0  0  0  0  0  0  0  0  0  0  0  # atno 10764 bound_to 10752
  154.7508  135.5035  153.9362 H   0  0  0  0  0  0  0  0  0  0  0  0  # atno 10765 bound_to 10752
  140.0497  134.9262  157.0995 H   0  0  0  0  0  0  0  0  0  0  0  0  # atno 11005 bound_to 11000
  144.9565  140.8232  143.5539 LP  0  0  0  0  0  0  0  0  0  0  0  0  # atno 17320 bound_to 7965
  145.2266  139.2134  143.5065 LP  0  0  0  0  0  0  0  0  0  0  0  0  # atno 17321 bound_to 7965
  139.8377  144.7224  150.9370 LP  0  0  0  0  0  0  0  0  0  0  0  0  # atno 17342 bound_to 10162
  140.7807  143.4011  151.1147 LP  0  0  0  0  0  0  0  0  0  0  0  0  # atno 17343 bound_to 10162
  156.1009  130.5968  150.9892 LP  0  0  0  0  0  0  0  0  0  0  0  0  # atno 17370 bound_to 10713
  157.6475  131.0902  150.8123 LP  0  0  0  0  0  0  0  0  0  0  0  0  # atno 17371 bound_to 10713
  140.3937  134.2157  155.7165 LP  0  0  0  0  0  0  0  0  0  0  0  0  # atno 17394 bound_to 11000
  141.1924  133.8173  157.0840 LP  0  0  0  0  0  0  0  0  0  0  0  0  # atno 17395 bound_to 11000

$$$$
