AV-unprocessed.smi:2732|AV-procd|sdf|10534|dock3
  -GOLD-   2272014583D 1   1.00000     0.00000
 Structure written by MMmdl.
 35 36  0  0  0  0  0  0  0  0  2 V2000
  152.5200  140.0628  157.9350 C   0  0  0  0  0  0  0  0  0  0  0  0
  151.7727  141.1544  157.1556 C   0  0  2  0  0  0  0  0  0  0  0  0
  150.8022  141.7161  158.0342 O   0  0  0  0  0  0  0  0  0  0  0  0
  151.3035  142.6485  158.9871 C   0  0  0  0  0  0  0  0  0  0  0  0
  151.3550  144.0495  158.4057 C   0  0  0  0  0  0  0  0  0  0  0  0
  152.6769  144.7372  158.1313 C   0  0  0  0  0  0  0  0  0  0  0  0
  151.7990  145.2244  159.2522 C   0  0  0  0  0  0  0  0  0  0  0  0
  151.0866  140.5760  155.9077 C   0  0  0  0  0  0  0  0  0  0  0  0
  151.7643  140.0244  155.0408 O   0  0  0  0  0  0  0  0  0  0  0  0
  149.7500  140.7243  155.8520 N   0  0  0  0  0  0  0  0  0  0  0  0
  148.8521  140.2720  154.8479 C   0  0  0  0  0  0  0  0  0  0  0  0
  147.6869  141.0342  154.6126 C   0  0  0  0  0  0  0  0  0  0  0  0
  146.7576  140.6101  153.6403 C   0  0  0  0  0  0  0  0  0  0  0  0
  147.0060  139.4209  152.9252 C   0  0  0  0  0  0  0  0  0  0  0  0
  146.1285  138.9446  151.9533 N   0  0  0  0  0  0  0  0  0  0  0  0
  148.1232  138.7077  153.1839 N   0  3  0  0  0  0  0  0  0  0  0  0
  149.0392  139.0801  154.1048 C   0  0  0  0  0  0  0  0  0  0  0  0
  153.2794  139.5830  157.3166 H   0  0  0  0  0  0  0  0  0  0  0  0
  151.8412  139.2883  158.2946 H   0  0  0  0  0  0  0  0  0  0  0  0
  153.0238  140.4861  158.8041 H   0  0  0  0  0  0  0  0  0  0  0  0
  152.4907  141.9247  156.8672 H   0  0  0  0  0  0  0  0  0  0  0  0
  150.6618  142.6612  159.8691 H   0  0  0  0  0  0  0  0  0  0  0  0
  152.3081  142.3776  159.3132 H   0  0  0  0  0  0  0  0  0  0  0  0
  150.5573  144.2544  157.6944 H   0  0  0  0  0  0  0  0  0  0  0  0
  153.5933  144.2170  158.4024 H   0  0  0  0  0  0  0  0  0  0  0  0
  152.7429  145.3572  157.2396 H   0  0  0  0  0  0  0  0  0  0  0  0
  151.2788  146.1693  159.1090 H   0  0  0  0  0  0  0  0  0  0  0  0
  152.1290  145.0269  160.2702 H   0  0  0  0  0  0  0  0  0  0  0  0
  149.3361  141.2705  156.5938 H   0  0  0  0  0  0  0  0  0  0  0  0
  147.5049  141.9420  155.1694 H   0  0  0  0  0  0  0  0  0  0  0  0
  145.8670  141.1919  153.4512 H   0  0  0  0  0  0  0  0  0  0  0  0
  145.2768  139.4372  151.7240 H   0  0  0  0  0  0  0  0  0  0  0  0
  146.3137  138.0926  151.4435 H   0  0  0  0  0  0  0  0  0  0  0  0
  149.8719  138.4022  154.2168 H   0  0  0  0  0  0  0  0  0  0  0  0
  148.2845  137.8446  152.6640 H   0  0  0  0  0  0  0  0  0  0  0  0
  1  2  1  0  0  0  0
  1 18  1  0  0  0  0
  1 19  1  0  0  0  0
  1 20  1  0  0  0  0
  2  3  1  0  0  0  0
  2  8  1  0  0  0  0
  2 21  1  0  0  0  0
  3  4  1  0  0  0  0
  4  5  1  0  0  0  0
  4 22  1  0  0  0  0
  4 23  1  0  0  0  0
  5  7  1  0  0  0  0
  5  6  1  0  0  0  0
  5 24  1  0  0  0  0
  6  7  1  0  0  0  0
  6 25  1  0  0  0  0
  6 26  1  0  0  0  0
  7 27  1  0  0  0  0
  7 28  1  0  0  0  0
  8  9  2  0  0  0  0
  8 10  1  0  0  0  0
 10 11  1  0  0  0  0
 10 29  1  0  0  0  0
 11 17  1  0  0  0  0
 11 12  2  0  0  0  0
 12 13  1  0  0  0  0
 12 30  1  0  0  0  0
 13 14  2  0  0  0  0
 13 31  1  0  0  0  0
 14 15  1  0  0  0  0
 14 16  1  0  0  0  0
 15 32  1  0  0  0  0
 15 33  1  0  0  0  0
 16 17  2  0  0  0  0
 16 35  1  0  0  0  0
 17 34  1  0  0  0  0
M  CHG  1  16   1
M  END
> <s_m_source_file>
AV-unprocessed.smi

> <i_m_source_file_index>
2732

> <i_lp_mmshare_version>
43012

> <i_f3d_flags>
0

> <s_epik_input>
W0NIMl0xW0NIMl1bQ0hdMVtDSDJdT1tDQEBIXShbQ0gzXSlDKD1PKVtOSF1jMltjSF1bY0hdYyhbTkgyXSluW2NIXTI=

> <s_epik_cmdline>
J2VwaWtfcHl0aG9uJywgJy1waCcsICc3LjAnLCAnLXRuJywgJzgnLCAnLW1hJywgJzIwMCcsICctbWV0YWxfYmluZGluZycsICctaW1hZScsICc8aW5maWxlLm1hZT4nLCAnLW9tYWUnLCAnPG91dGZpbGUubWFlPic=

> <r_lp_tautomer_probability>
0.999994

> <r_epik_Ionization_Penalty>
1.25173

> <r_epik_Ionization_Penalty_Charging>
1.25172

> <r_epik_Ionization_Penalty_Neutral>
2.35798e-06

> <r_epik_State_Penalty>
1.32157

> <r_epik_Charging_Adjusted_Penalty>
2.5733

> <i_epik_Tot_Q>
1

> <i_epik_Tot_abs_Q>
1

> <r_epik_Metal_State_Penalty>
1.39188

> <b_epik_Metal_Only>
0

> <s_lp_Force_Field>
OPLS_2005

> <r_lp_Energy>
25.4145

> <b_lp_Chiralities_Consistent>
1

> <s_lp_Variant>
AV-unprocessed.smi:2732-3

> <Gold.Version>
5.8.1

> <Gold.Id.Protein>
6NUR|6NUR_protein|mol2

> <Gold.PLP.Fitness>
50.6262

> <Gold.PLP.PLP>
-37.5162

> <Gold.PLP.part.hbond>
-4.7200

> <Gold.PLP.part.metal>
0.0000

> <Gold.PLP.part.buried>
-4.9227

> <Gold.PLP.part.nonpolar>
-28.4476

> <Gold.PLP.part.repulsive>
0.2463

> <Gold.PLP.ligand.clash>
0.0000

> <Gold.PLP.ligand.torsion>
0.8929

> <Gold.PLP.Chemscore.Hbond>
4.7680

> <Gold.PLP.Chemscore.CHOScore>
0.0000

> <Gold.PLP.Chemscore.Metal>
0.0000

> <Gold.Chemscore.Hbonds>
donor molecule, donor type, donor heavy atom, donor atom, acceptor molecule, acceptor atom, score
      L1  H    15    32       P1 10175  1.86
      L1  H    16    35       P1  7948  2.00
      P1  H  7989  7998       L1     9  0.96

> <Gold.PLP.Chemscore.Internal.Correction>
0.5917

> <Gold.Rescore>
     Score         DG    S(hbond)    S(metal)    S(lipo)     H(rot)  DE(clash)    DE(int)     intcor
     18.41     -20.10       2.83        0.00      82.80       1.76       0.04       1.66       ----

> <Gold.Chemscore.Fitness>
18.4072

> <Gold.Chemscore.DG>
-20.1050

> <Gold.Chemscore.ZeroCoef>
-5.4800

> <Gold.Chemscore.Hbond>
2.8274

> <Gold.Chemscore.Metal>
0.0000

> <Gold.Chemscore.Lipo>
82.8036

> <Gold.Chemscore.Internal_Hbond>
0.0000

> <Gold.Chemscore.DEClash>
0.0396

> <Gold.Chemscore.DEInternal>
1.6582

> <Gold.Chemscore.Rot>
1.7604

> <Gold.Chemscore.Internal.Correction>
   9.000000E+99

> <Gold.Chemscore.Hbonds>
donor molecule, donor type, donor heavy atom, donor atom, acceptor molecule, acceptor atom, score
      L1  H    15    32       P1 10175  0.73
      L1  H    16    35       P1  7948  1.00
      P1  H  7989  7998       L1     9  0.76

> <Gold.Chemscore.Hbond.Weighted>
-9.4435

> <Gold.Chemscore.Metal.Weighted>
-0.0000

> <Gold.Chemscore.Lipo.Weighted>
-9.6880

> <Gold.Chemscore.Internal_Hbond.Weighted>
0.0000

> <Gold.Chemscore.DEClash.Weighted>
0.0396

> <Gold.Chemscore.DEInternal.Weighted>
1.6582

> <Gold.Chemscore.Rot.Weighted>
4.5065

> <Gold.Chemscore.Internal.Correction.Weighted>
   9.000000E+99

> <Gold.Protein.RotatedTorsions>
[ 6907 6896 6895 6894 ] final   84.90 input  -60.11 | X-H torsion
[ 7974 7965 7964 7962 ] final -175.26 input  175.53 | X-H torsion
[ 8008 7997 7996 7995 ] final  169.80 input   59.86 | X-H torsion
[ 10167 10162 10161 10158 ] final   11.48 input  -65.29 | X-H torsion
[ 10718 10713 10712 10709 ] final   77.37 input   66.30 | X-H torsion
[ 10763 10752 10751 10750 ] final  -55.69 input  -60.55 | X-H torsion
[ 11005 11000 10999 10996 ] final  -89.44 input  -57.11 | X-H torsion

> <Gold.Protein.ActiveResidues>
 VAL166  LYS551  ARG553  GLY616  TRP617  ASP618  TYR619  PRO620  LYS621  CYS622 
 ASP623  PHE694  ASN695  SER759  ASP760  ASP761  ALA762  ILE779  LEU786  VAL792 
 PHE793  MET794  SER795  GLU796  ALA797  LYS798  CYS799  TRP800  GLU811  SER814 

> <Gold.Protein.RotatedAtoms>
  152.5363  134.2669  159.8956 H   0  0  0  0  0  0  0  0  0  0  0  0  # atno 6907 bound_to 6896
  151.2627  133.4287  159.2624 H   0  0  0  0  0  0  0  0  0  0  0  0  # atno 6908 bound_to 6896
  151.0438  134.9640  159.8232 H   0  0  0  0  0  0  0  0  0  0  0  0  # atno 6909 bound_to 6896
  144.7129  140.1348  143.6396 H   0  0  0  0  0  0  0  0  0  0  0  0  # atno 7974 bound_to 7965
  156.1425  140.1555  156.8899 H   0  0  0  0  0  0  0  0  0  0  0  0  # atno 8008 bound_to 7997
  154.4999  140.0828  156.7814 H   0  0  0  0  0  0  0  0  0  0  0  0  # atno 8009 bound_to 7997
  155.4052  140.3416  155.4262 H   0  0  0  0  0  0  0  0  0  0  0  0  # atno 8010 bound_to 7997
  140.6129  143.8369  150.7086 H   0  0  0  0  0  0  0  0  0  0  0  0  # atno 10167 bound_to 10162
  157.6708  130.9818  150.1631 H   0  0  0  0  0  0  0  0  0  0  0  0  # atno 10718 bound_to 10713
  154.1949  135.6421  153.5070 H   0  0  0  0  0  0  0  0  0  0  0  0  # atno 10763 bound_to 10752
  153.0026  135.5437  154.6377 H   0  0  0  0  0  0  0  0  0  0  0  0  # atno 10764 bound_to 10752
  154.5775  135.2922  155.0739 H   0  0  0  0  0  0  0  0  0  0  0  0  # atno 10765 bound_to 10752
  141.1584  133.7630  156.9595 H   0  0  0  0  0  0  0  0  0  0  0  0  # atno 11005 bound_to 11000
  145.9254  139.2572  143.1356 LP  0  0  0  0  0  0  0  0  0  0  0  0  # atno 17320 bound_to 7965
  145.9577  140.8860  143.0226 LP  0  0  0  0  0  0  0  0  0  0  0  0  # atno 17321 bound_to 7965
  140.1941  143.4012  152.1841 LP  0  0  0  0  0  0  0  0  0  0  0  0  # atno 17342 bound_to 10162
  139.5376  144.7225  151.4842 LP  0  0  0  0  0  0  0  0  0  0  0  0  # atno 17343 bound_to 10162
  156.2403  130.3690  149.8345 LP  0  0  0  0  0  0  0  0  0  0  0  0  # atno 17370 bound_to 10713
  156.6147  130.8601  151.3462 LP  0  0  0  0  0  0  0  0  0  0  0  0  # atno 17371 bound_to 10713
  140.1203  134.9421  157.2193 LP  0  0  0  0  0  0  0  0  0  0  0  0  # atno 17394 bound_to 11000
  140.3081  134.3055  155.7273 LP  0  0  0  0  0  0  0  0  0  0  0  0  # atno 17395 bound_to 11000

$$$$
