AV-unprocessed.smi:749|AV-procd|sdf|3586|dock4
  -GOLD-   22720 0583D 1   1.00000     0.00000
 Structure written by MMmdl.
 42 43  0  0  0  0  0  0  0  0  2 V2000
  151.5733  145.5676  160.0615 C   0  0  0  0  0  0  0  0  0  0  0  0
  152.0134  144.1864  160.2654 N   0  0  0  0  0  0  0  0  0  0  0  0
  152.0051  143.3504  159.0549 C   0  0  0  0  0  0  0  0  0  0  0  0
  152.1062  141.8408  159.3319 C   0  0  1  0  0  0  0  0  0  0  0  0
  152.3967  141.1313  158.0896 N   0  0  0  0  0  0  0  0  0  0  0  0
  152.4904  139.7962  157.9325 C   0  0  0  0  0  0  0  0  0  0  0  0
  152.3244  139.0684  158.9107 O   0  0  0  0  0  0  0  0  0  0  0  0
  152.7671  139.3210  156.6889 N   0  5  0  0  0  0  0  0  0  0  0  0
  152.2548  138.1699  156.2195 C   0  0  0  0  0  0  0  0  0  0  0  0
  151.5140  137.2192  156.9724 C   0  0  0  0  0  0  0  0  0  0  0  0
  151.2206  136.2463  156.0564 C   0  0  0  0  0  0  0  0  0  0  0  0
  150.4597  134.9524  156.1294 C   0  0  0  0  0  0  0  0  0  0  0  0
  151.2843  133.8725  156.8582 C   0  0  0  0  0  0  0  0  0  0  0  0
  150.1421  134.4469  154.7096 C   0  0  0  0  0  0  0  0  0  0  0  0
  149.1424  135.1599  156.9002 C   0  0  0  0  0  0  0  0  0  0  0  0
  151.7519  136.5763  154.8461 O   0  0  0  0  0  0  0  0  0  0  0  0
  152.4163  137.8025  154.9601 N   0  0  0  0  0  0  0  0  0  0  0  0
  153.1979  141.5822  160.3750 C   0  0  0  0  0  0  0  0  0  0  0  0
  152.8741  142.3165  161.6816 C   0  0  0  0  0  0  0  0  0  0  0  0
  152.4540  143.7809  161.4811 C   0  0  0  0  0  0  0  0  0  0  0  0
  152.5032  144.5362  162.4526 O   0  0  0  0  0  0  0  0  0  0  0  0
  150.6755  145.7717  160.6461 H   0  0  0  0  0  0  0  0  0  0  0  0
  151.3427  145.7766  159.0161 H   0  0  0  0  0  0  0  0  0  0  0  0
  152.3484  146.2714  160.3683 H   0  0  0  0  0  0  0  0  0  0  0  0
  151.1016  143.5455  158.4751 H   0  0  0  0  0  0  0  0  0  0  0  0
  152.8458  143.6687  158.4361 H   0  0  0  0  0  0  0  0  0  0  0  0
  151.1473  141.5000  159.7275 H   0  0  0  0  0  0  0  0  0  0  0  0
  152.5435  141.7013  157.2694 H   0  0  0  0  0  0  0  0  0  0  0  0
  151.2378  137.2531  158.0156 H   0  0  0  0  0  0  0  0  0  0  0  0
  150.7412  132.9287  156.9176 H   0  0  0  0  0  0  0  0  0  0  0  0
  151.5242  134.1755  157.8784 H   0  0  0  0  0  0  0  0  0  0  0  0
  152.2256  133.6757  156.3434 H   0  0  0  0  0  0  0  0  0  0  0  0
  151.0545  134.2842  154.1349 H   0  0  0  0  0  0  0  0  0  0  0  0
  149.5305  135.1619  154.1583 H   0  0  0  0  0  0  0  0  0  0  0  0
  149.5967  133.5028  154.7347 H   0  0  0  0  0  0  0  0  0  0  0  0
  148.5750  134.2319  156.9777 H   0  0  0  0  0  0  0  0  0  0  0  0
  148.5021  135.8927  156.4076 H   0  0  0  0  0  0  0  0  0  0  0  0
  149.3295  135.5173  157.9137 H   0  0  0  0  0  0  0  0  0  0  0  0
  153.2902  140.5136  160.5724 H   0  0  0  0  0  0  0  0  0  0  0  0
  154.1661  141.9115  159.9946 H   0  0  0  0  0  0  0  0  0  0  0  0
  152.0551  141.8062  162.1899 H   0  0  0  0  0  0  0  0  0  0  0  0
  153.7320  142.2733  162.3534 H   0  0  0  0  0  0  0  0  0  0  0  0
  1  2  1  0  0  0  0
  1 22  1  0  0  0  0
  1 23  1  0  0  0  0
  1 24  1  0  0  0  0
  2 20  1  0  0  0  0
  2  3  1  0  0  0  0
  3  4  1  0  0  0  0
  3 25  1  0  0  0  0
  3 26  1  0  0  0  0
  4  5  1  0  0  0  0
  4 18  1  0  0  0  0
  4 27  1  0  0  0  0
  5  6  1  0  0  0  0
  5 28  1  0  0  0  0
  6  7  2  0  0  0  0
  6  8  1  0  0  0  0
  8  9  1  0  0  0  0
  9 17  2  0  0  0  0
  9 10  1  0  0  0  0
 10 11  2  0  0  0  0
 10 29  1  0  0  0  0
 11 12  1  0  0  0  0
 11 16  1  0  0  0  0
 12 13  1  0  0  0  0
 12 14  1  0  0  0  0
 12 15  1  0  0  0  0
 13 30  1  0  0  0  0
 13 31  1  0  0  0  0
 13 32  1  0  0  0  0
 14 33  1  0  0  0  0
 14 34  1  0  0  0  0
 14 35  1  0  0  0  0
 15 36  1  0  0  0  0
 15 37  1  0  0  0  0
 15 38  1  0  0  0  0
 16 17  1  0  0  0  0
 18 19  1  0  0  0  0
 18 39  1  0  0  0  0
 18 40  1  0  0  0  0
 19 20  1  0  0  0  0
 19 41  1  0  0  0  0
 19 42  1  0  0  0  0
 20 21  2  0  0  0  0
M  CHG  1   8  -1
M  END
> <s_m_source_file>
AV-unprocessed.smi

> <i_m_source_file_index>
749

> <i_lp_mmshare_version>
43012

> <i_f3d_flags>
0

> <s_epik_input>
Tz1DMVtDSDJdW0NIMl1bQ0BASF0oW0NIMl1OMVtDSDNdKVtOSF1DKD1PKVtOSF1jMltjSF1jKG9uMilDKFtDSDNdKShbQ0gzXSlbQ0gzXQ==

> <s_epik_cmdline>
J2VwaWtfcHl0aG9uJywgJy1waCcsICc3LjAnLCAnLXRuJywgJzgnLCAnLW1hJywgJzIwMCcsICctbWV0YWxfYmluZGluZycsICctaW1hZScsICc8aW5maWxlLm1hZT4nLCAnLW9tYWUnLCAnPG91dGZpbGUubWFlPic=

> <r_lp_tautomer_probability>
1

> <r_epik_Ionization_Penalty>
6.47858

> <r_epik_Ionization_Penalty_Charging>
6.47844

> <r_epik_Ionization_Penalty_Neutral>
0.000138814

> <r_epik_State_Penalty>
6.47843

> <r_epik_Charging_Adjusted_Penalty>
12.9569

> <i_epik_Tot_Q>
-1

> <i_epik_Tot_abs_Q>
1

> <r_epik_Metal_State_Penalty>
2.40644

> <b_epik_Metal_Only>
1

> <s_lp_Force_Field>
OPLS_2005

> <r_lp_Energy>
10.0232

> <b_lp_Chiralities_Consistent>
1

> <s_lp_Variant>
AV-unprocessed.smi:749-3

> <Gold.Version>
5.8.1

> <Gold.Id.Protein>
6NUR|6NUR_protein|mol2

> <Gold.PLP.Fitness>
43.4524

> <Gold.PLP.PLP>
-36.0550

> <Gold.PLP.part.hbond>
-2.8606

> <Gold.PLP.part.metal>
0.0000

> <Gold.PLP.part.buried>
-2.8945

> <Gold.PLP.part.nonpolar>
-31.2471

> <Gold.PLP.part.repulsive>
1.9626

> <Gold.PLP.ligand.clash>
0.0000

> <Gold.PLP.ligand.torsion>
0.8223

> <Gold.PLP.Chemscore.Hbond>
3.0000

> <Gold.PLP.Chemscore.CHOScore>
0.0000

> <Gold.PLP.Chemscore.Metal>
0.0000

> <Gold.Chemscore.Hbonds>
donor molecule, donor type, donor heavy atom, donor atom, acceptor molecule, acceptor atom, score
      P1  H  7997  8008       L1     8  1.90
      P1  H 10752 10765       L1    16  1.00

> <Gold.PLP.Chemscore.Internal.Correction>
0.0419

> <Gold.Rescore>
     Score         DG    S(hbond)    S(metal)    S(lipo)     H(rot)  DE(clash)    DE(int)     intcor
     13.00     -16.85       1.52        0.00      80.41       1.22       1.64       2.21       ----

> <Gold.Chemscore.Fitness>
12.9989

> <Gold.Chemscore.DG>
-16.8493

> <Gold.Chemscore.ZeroCoef>
-5.4800

> <Gold.Chemscore.Hbond>
1.5222

> <Gold.Chemscore.Metal>
0.0000

> <Gold.Chemscore.Lipo>
80.4101

> <Gold.Chemscore.Internal_Hbond>
0.0000

> <Gold.Chemscore.DEClash>
1.6369

> <Gold.Chemscore.DEInternal>
2.2135

> <Gold.Chemscore.Rot>
1.2198

> <Gold.Chemscore.Internal.Correction>
   9.000000E+99

> <Gold.Chemscore.Hbonds>
donor molecule, donor type, donor heavy atom, donor atom, acceptor molecule, acceptor atom, score
      P1  H  7997  8008       L1     8  0.22
      P1  H 10752 10765       L1    16  0.25

> <Gold.Chemscore.Hbond.Weighted>
-5.0840

> <Gold.Chemscore.Metal.Weighted>
-0.0000

> <Gold.Chemscore.Lipo.Weighted>
-9.4080

> <Gold.Chemscore.Internal_Hbond.Weighted>
0.0000

> <Gold.Chemscore.DEClash.Weighted>
1.6369

> <Gold.Chemscore.DEInternal.Weighted>
2.2135

> <Gold.Chemscore.Rot.Weighted>
3.1228

> <Gold.Chemscore.Internal.Correction.Weighted>
   9.000000E+99

> <Gold.Protein.RotatedTorsions>
[ 6907 6896 6895 6894 ] final   85.49 input  -60.11 | X-H torsion
[ 7974 7965 7964 7962 ] final  -42.22 input  175.53 | X-H torsion
[ 8008 7997 7996 7995 ] final  -47.42 input   59.86 | X-H torsion
[ 10167 10162 10161 10158 ] final -131.44 input  -65.29 | X-H torsion
[ 10718 10713 10712 10709 ] final   19.81 input   66.30 | X-H torsion
[ 10763 10752 10751 10750 ] final  168.52 input  -60.55 | X-H torsion
[ 11005 11000 10999 10996 ] final   52.26 input  -57.11 | X-H torsion

> <Gold.Protein.ActiveResidues>
 VAL166  LYS551  ARG553  GLY616  TRP617  ASP618  TYR619  PRO620  LYS621  CYS622 
 ASP623  PHE694  ASN695  SER759  ASP760  ASP761  ALA762  ILE779  LEU786  VAL792 
 PHE793  MET794  SER795  GLU796  ALA797  LYS798  CYS799  TRP800  GLU811  SER814 

> <Gold.Protein.RotatedAtoms>
  152.5376  134.2577  159.8923 H   0  0  0  0  0  0  0  0  0  0  0  0  # atno 6907 bound_to 6896
  151.2538  133.4330  159.2620 H   0  0  0  0  0  0  0  0  0  0  0  0  # atno 6908 bound_to 6896
  151.0515  134.9690  159.8270 H   0  0  0  0  0  0  0  0  0  0  0  0  # atno 6909 bound_to 6896
  146.0136  140.6934  142.9212 H   0  0  0  0  0  0  0  0  0  0  0  0  # atno 7974 bound_to 7965
  154.4016  140.1347  156.4172 H   0  0  0  0  0  0  0  0  0  0  0  0  # atno 8008 bound_to 7997
  155.7677  140.3484  155.5210 H   0  0  0  0  0  0  0  0  0  0  0  0  # atno 8009 bound_to 7997
  155.8797  140.0985  157.1484 H   0  0  0  0  0  0  0  0  0  0  0  0  # atno 8010 bound_to 7997
  139.9189  143.6406  152.2558 H   0  0  0  0  0  0  0  0  0  0  0  0  # atno 10167 bound_to 10162
  157.1157  130.6528  149.5910 H   0  0  0  0  0  0  0  0  0  0  0  0  # atno 10718 bound_to 10713
  154.3697  135.2753  155.2273 H   0  0  0  0  0  0  0  0  0  0  0  0  # atno 10763 bound_to 10752
  154.4426  135.5950  153.6142 H   0  0  0  0  0  0  0  0  0  0  0  0  # atno 10764 bound_to 10752
  152.9839  135.6022  154.3927 H   0  0  0  0  0  0  0  0  0  0  0  0  # atno 10765 bound_to 10752
  140.0864  134.5268  155.8895 H   0  0  0  0  0  0  0  0  0  0  0  0  # atno 11005 bound_to 11000
  144.6962  140.3442  143.7193 LP  0  0  0  0  0  0  0  0  0  0  0  0  # atno 17320 bound_to 7965
  145.7303  139.1734  143.2434 LP  0  0  0  0  0  0  0  0  0  0  0  0  # atno 17321 bound_to 7965
  139.6879  144.7650  151.1492 LP  0  0  0  0  0  0  0  0  0  0  0  0  # atno 17342 bound_to 10162
  140.7667  143.5631  150.9077 LP  0  0  0  0  0  0  0  0  0  0  0  0  # atno 17343 bound_to 10162
  155.9840  130.4862  150.6961 LP  0  0  0  0  0  0  0  0  0  0  0  0  # atno 17370 bound_to 10713
  157.4520  131.0873  151.0836 LP  0  0  0  0  0  0  0  0  0  0  0  0  # atno 17371 bound_to 10713
  141.2064  133.6655  156.6239 LP  0  0  0  0  0  0  0  0  0  0  0  0  # atno 17394 bound_to 11000
  140.3414  134.7846  157.4400 LP  0  0  0  0  0  0  0  0  0  0  0  0  # atno 17395 bound_to 11000

$$$$
