AV-unprocessed.smi:240|AV-procd|sdf|1828|dock1
  -GOLD-   2262020423D 1   1.00000     0.00000
 Structure written by MMmdl.
 55 59  0  0  0  0  0  0  0  0  1 V2000
  146.9660  135.1595  152.7933 O   0  0  0  0  0  0  0  0  0  0  0  0
  145.8431  134.5460  152.1951 C   0  0  2  0  0  0  0  0  0  0  0  0
  146.2634  133.6968  150.9970 C   0  0  0  0  0  0  0  0  0  0  0  0
  144.9724  133.5391  150.1973 C   0  0  0  0  0  0  0  0  0  0  0  0
  144.2046  134.8531  150.3962 C   0  0  0  0  0  0  0  0  0  0  0  0
  144.8492  135.5679  151.6040 C   0  0  1  0  0  0  0  0  0  0  0  0
  143.8256  136.2121  152.5938 C   0  0  1  0  0  0  0  0  0  0  0  0
  142.6896  135.2421  153.0135 C   0  0  0  0  0  0  0  0  0  0  0  0
  141.7784  135.8983  153.8853 O   0  0  0  0  0  0  0  0  0  0  0  0
  142.4106  136.2968  155.0935 C   0  0  0  0  0  0  0  0  0  0  0  0
  143.5072  137.3179  154.7660 C   0  0  0  0  0  0  0  0  0  0  0  0
  144.4564  136.7705  153.8010 N   0  0  0  0  0  0  0  0  0  0  0  0
  145.4768  137.6442  153.6286 C   0  0  0  0  0  0  0  0  0  0  0  0
  145.7407  138.1601  152.3982 N   0  0  0  0  0  0  0  0  0  0  0  0
  146.7485  139.0228  152.2376 C   0  0  0  0  0  0  0  0  0  0  0  0
  147.5943  139.4986  153.1545 N   0  0  0  0  0  0  0  0  0  0  0  0
  147.3188  138.9962  154.3926 C   0  0  0  0  0  0  0  0  0  0  0  0
  146.2831  138.0759  154.7145 C   0  0  0  0  0  0  0  0  0  0  0  0
  146.3036  137.7892  156.0730 N   0  0  0  0  0  0  0  0  0  0  0  0
  147.3035  138.4935  156.5286 C   0  0  0  0  0  0  0  0  0  0  0  0
  147.9653  139.2534  155.5893 N   0  0  0  0  0  0  0  0  0  0  0  0
  149.1110  140.1209  155.8183 C   0  0  0  0  0  0  0  0  0  0  0  0
  150.4679  139.3797  155.7798 C   0  0  1  0  0  0  0  0  0  0  0  0
  150.5074  138.4414  156.8415 O   0  0  0  0  0  0  0  0  0  0  0  0
  150.6996  138.6328  154.4726 C   0  0  0  0  0  0  0  0  0  0  0  0
  152.2177  138.6255  154.3558 C   0  0  0  0  0  0  0  0  0  0  0  0
  152.5786  139.9165  154.8168 O   0  0  0  0  0  0  0  0  0  0  0  0
  151.7103  140.2889  155.8835 C   0  0  0  0  0  0  0  0  0  0  0  0
  147.5005  135.5382  152.1122 H   0  0  0  0  0  0  0  0  0  0  0  0
  145.3646  133.8970  152.9263 H   0  0  0  0  0  0  0  0  0  0  0  0
  147.0012  134.2286  150.3940 H   0  0  0  0  0  0  0  0  0  0  0  0
  146.6971  132.7399  151.2890 H   0  0  0  0  0  0  0  0  0  0  0  0
  145.1584  133.3182  149.1458 H   0  0  0  0  0  0  0  0  0  0  0  0
  144.3906  132.7134  150.6092 H   0  0  0  0  0  0  0  0  0  0  0  0
  144.2922  135.4809  149.5085 H   0  0  0  0  0  0  0  0  0  0  0  0
  143.1419  134.6556  150.5276 H   0  0  0  0  0  0  0  0  0  0  0  0
  145.4497  136.3597  151.1556 H   0  0  0  0  0  0  0  0  0  0  0  0
  143.3516  137.0448  152.0719 H   0  0  0  0  0  0  0  0  0  0  0  0
  142.1275  134.8932  152.1490 H   0  0  0  0  0  0  0  0  0  0  0  0
  143.0729  134.3546  153.5161 H   0  0  0  0  0  0  0  0  0  0  0  0
  141.6674  136.7428  155.7544 H   0  0  0  0  0  0  0  0  0  0  0  0
  142.8227  135.4301  155.6135 H   0  0  0  0  0  0  0  0  0  0  0  0
  143.0564  138.2242  154.3581 H   0  0  0  0  0  0  0  0  0  0  0  0
  144.0250  137.6018  155.6836 H   0  0  0  0  0  0  0  0  0  0  0  0
  146.8992  139.3822  151.2305 H   0  0  0  0  0  0  0  0  0  0  0  0
  147.5866  138.4796  157.5712 H   0  0  0  0  0  0  0  0  0  0  0  0
  149.0931  140.9151  155.0708 H   0  0  0  0  0  0  0  0  0  0  0  0
  148.9793  140.6097  156.7843 H   0  0  0  0  0  0  0  0  0  0  0  0
  149.6780  137.9894  156.8716 H   0  0  0  0  0  0  0  0  0  0  0  0
  150.2618  137.6338  154.4521 H   0  0  0  0  0  0  0  0  0  0  0  0
  150.2826  139.1949  153.6359 H   0  0  0  0  0  0  0  0  0  0  0  0
  152.6575  137.8673  155.0052 H   0  0  0  0  0  0  0  0  0  0  0  0
  152.5631  138.4504  153.3368 H   0  0  0  0  0  0  0  0  0  0  0  0
  151.4636  141.3427  155.7597 H   0  0  0  0  0  0  0  0  0  0  0  0
  152.2224  140.1841  156.8413 H   0  0  0  0  0  0  0  0  0  0  0  0
  1  2  1  0  0  0  0
  1 29  1  0  0  0  0
  2  6  1  0  0  0  0
  2  3  1  0  0  0  0
  2 30  1  0  0  0  0
  3  4  1  0  0  0  0
  3 31  1  0  0  0  0
  3 32  1  0  0  0  0
  4  5  1  0  0  0  0
  4 33  1  0  0  0  0
  4 34  1  0  0  0  0
  5  6  1  0  0  0  0
  5 35  1  0  0  0  0
  5 36  1  0  0  0  0
  6  7  1  0  0  0  0
  6 37  1  0  0  0  0
  7 12  1  0  0  0  0
  7  8  1  0  0  0  0
  7 38  1  0  0  0  0
  8  9  1  0  0  0  0
  8 39  1  0  0  0  0
  8 40  1  0  0  0  0
  9 10  1  0  0  0  0
 10 11  1  0  0  0  0
 10 41  1  0  0  0  0
 10 42  1  0  0  0  0
 11 12  1  0  0  0  0
 11 43  1  0  0  0  0
 11 44  1  0  0  0  0
 12 13  1  0  0  0  0
 13 18  1  0  0  0  0
 13 14  2  0  0  0  0
 14 15  1  0  0  0  0
 15 16  2  0  0  0  0
 15 45  1  0  0  0  0
 16 17  1  0  0  0  0
 17 21  1  0  0  0  0
 17 18  2  0  0  0  0
 18 19  1  0  0  0  0
 19 20  2  0  0  0  0
 20 21  1  0  0  0  0
 20 46  1  0  0  0  0
 21 22  1  0  0  0  0
 22 23  1  0  0  0  0
 22 47  1  0  0  0  0
 22 48  1  0  0  0  0
 23 28  1  0  0  0  0
 23 24  1  0  0  0  0
 23 25  1  0  0  0  0
 24 49  1  0  0  0  0
 25 26  1  0  0  0  0
 25 50  1  0  0  0  0
 25 51  1  0  0  0  0
 26 27  1  0  0  0  0
 26 52  1  0  0  0  0
 26 53  1  0  0  0  0
 27 28  1  0  0  0  0
 28 54  1  0  0  0  0
 28 55  1  0  0  0  0
M  END
> <s_m_source_file>
AV-unprocessed.smi

> <i_m_source_file_index>
240

> <i_lp_mmshare_version>
43012

> <i_f3d_flags>
0

> <s_epik_input>
W09IXVtDQEBIXTFbQ0gyXVtDSDJdW0NIMl1bQ0BIXTFbQ0BASF0yW0NIMl1PW0NIMl1bQ0gyXU4yYyhuW2NIXW4zKWMoYzM0KW5bY0hdbjRbQ0gyXVtDQEBdNShbT0hdKVtDSDJdW0NIMl1PW0NIMl01

> <s_epik_cmdline>
J2VwaWtfcHl0aG9uJywgJy1waCcsICc3LjAnLCAnLXRuJywgJzgnLCAnLW1hJywgJzIwMCcsICctbWV0YWxfYmluZGluZycsICctaW1hZScsICc8aW5maWxlLm1hZT4nLCAnLW9tYWUnLCAnPG91dGZpbGUubWFlPic=

> <r_lp_tautomer_probability>
1

> <r_epik_Ionization_Penalty>
0.000130618

> <r_epik_Ionization_Penalty_Charging>
0

> <r_epik_Ionization_Penalty_Neutral>
0.000130618

> <r_epik_State_Penalty>
-0

> <r_epik_Charging_Adjusted_Penalty>
0

> <i_epik_Tot_Q>
0

> <i_epik_Tot_abs_Q>
0

> <r_epik_Metal_State_Penalty>
-0

> <b_epik_Metal_Only>
0

> <s_lp_Force_Field>
OPLS_2005

> <r_lp_Energy>
59.9569

> <b_lp_Chiralities_Consistent>
1

> <s_lp_Variant>
AV-unprocessed.smi:240-5

> <Gold.Version>
5.8.1

> <Gold.Id.Protein>
6NUR|6NUR_protein|mol2

> <Gold.PLP.Fitness>
41.0574

> <Gold.PLP.PLP>
-33.5292

> <Gold.PLP.part.hbond>
-2.7641

> <Gold.PLP.part.metal>
0.0000

> <Gold.PLP.part.buried>
-6.6094

> <Gold.PLP.part.nonpolar>
-26.8471

> <Gold.PLP.part.repulsive>
2.7200

> <Gold.PLP.ligand.clash>
0.0000

> <Gold.PLP.ligand.torsion>
0.5813

> <Gold.PLP.Chemscore.Hbond>
2.3350

> <Gold.PLP.Chemscore.CHOScore>
0.4860

> <Gold.PLP.Chemscore.Metal>
0.0000

> <Gold.Chemscore.Hbonds>
donor molecule, donor type, donor heavy atom, donor atom, acceptor molecule, acceptor atom, score
      L1  H     1    29       P1  7948  0.86
      P1  H  7989  7998       L1    27  0.36
      P1  H  7997  8009       L1    27  0.51
      L1  C    15    45       P1  7957  0.24

> <Gold.PLP.Chemscore.Internal.Correction>
0.2276

> <Gold.Rescore>
     Score         DG    S(hbond)    S(metal)    S(lipo)     H(rot)  DE(clash)    DE(int)     intcor
      9.24     -11.77       1.83        0.00      67.23       3.00       0.01       2.52       ----

> <Gold.Chemscore.Fitness>
9.2425

> <Gold.Chemscore.DG>
-11.7708

> <Gold.Chemscore.ZeroCoef>
-5.4800

> <Gold.Chemscore.Hbond>
1.8309

> <Gold.Chemscore.Metal>
0.0000

> <Gold.Chemscore.Lipo>
67.2277

> <Gold.Chemscore.Internal_Hbond>
0.0000

> <Gold.Chemscore.DEClash>
0.0077

> <Gold.Chemscore.DEInternal>
2.5206

> <Gold.Chemscore.Rot>
3.0039

> <Gold.Chemscore.Internal.Correction>
   9.000000E+99

> <Gold.Chemscore.Hbonds>
donor molecule, donor type, donor heavy atom, donor atom, acceptor molecule, acceptor atom, score
      L1  H     1    29       P1  7948  0.84
      P1  H  7989  7998       L1    27  0.01
      P1  H  7997  8009       L1    27  0.07

> <Gold.Chemscore.Hbond.Weighted>
-6.1151

> <Gold.Chemscore.Metal.Weighted>
-0.0000

> <Gold.Chemscore.Lipo.Weighted>
-7.8656

> <Gold.Chemscore.Internal_Hbond.Weighted>
0.0000

> <Gold.Chemscore.DEClash.Weighted>
0.0077

> <Gold.Chemscore.DEInternal.Weighted>
2.5206

> <Gold.Chemscore.Rot.Weighted>
7.6899

> <Gold.Chemscore.Internal.Correction.Weighted>
   9.000000E+99

> <Gold.Protein.RotatedTorsions>
[ 6907 6896 6895 6894 ] final  108.81 input  -60.11 | X-H torsion
[ 7974 7965 7964 7962 ] final  -30.89 input  175.53 | X-H torsion
[ 8008 7997 7996 7995 ] final -138.46 input   59.86 | X-H torsion
[ 10167 10162 10161 10158 ] final  -41.61 input  -65.29 | X-H torsion
[ 10718 10713 10712 10709 ] final  137.14 input   66.30 | X-H torsion
[ 10763 10752 10751 10750 ] final  155.55 input  -60.55 | X-H torsion
[ 11005 11000 10999 10996 ] final  -93.72 input  -57.11 | X-H torsion

> <Gold.Protein.ActiveResidues>
 VAL166  LYS551  ARG553  GLY616  TRP617  ASP618  TYR619  PRO620  LYS621  CYS622 
 ASP623  PHE694  ASN695  SER759  ASP760  ASP761  ALA762  ILE779  LEU786  VAL792 
 PHE793  MET794  SER795  GLU796  ALA797  LYS798  CYS799  TRP800  GLU811  SER814 

> <Gold.Protein.RotatedAtoms>
  152.5095  133.9034  159.7452 H   0  0  0  0  0  0  0  0  0  0  0  0  # atno 6907 bound_to 6896
  150.9445  133.6610  159.2791 H   0  0  0  0  0  0  0  0  0  0  0  0  # atno 6908 bound_to 6896
  151.3911  135.0961  159.9579 H   0  0  0  0  0  0  0  0  0  0  0  0  # atno 6909 bound_to 6896
  146.1108  140.5598  142.8778 H   0  0  0  0  0  0  0  0  0  0  0  0  # atno 7974 bound_to 7965
  155.4287  140.0523  157.3020 H   0  0  0  0  0  0  0  0  0  0  0  0  # atno 8008 bound_to 7997
  154.4869  140.2104  155.9593 H   0  0  0  0  0  0  0  0  0  0  0  0  # atno 8009 bound_to 7997
  156.1288  140.3175  155.8322 H   0  0  0  0  0  0  0  0  0  0  0  0  # atno 8010 bound_to 7997
  140.6997  143.3084  151.3091 H   0  0  0  0  0  0  0  0  0  0  0  0  # atno 10167 bound_to 10162
  157.4392  131.1056  151.0163 H   0  0  0  0  0  0  0  0  0  0  0  0  # atno 10718 bound_to 10713
  154.1701  135.2805  155.3083 H   0  0  0  0  0  0  0  0  0  0  0  0  # atno 10763 bound_to 10752
  154.6081  135.5507  153.7448 H   0  0  0  0  0  0  0  0  0  0  0  0  # atno 10764 bound_to 10752
  153.0167  135.6408  154.1842 H   0  0  0  0  0  0  0  0  0  0  0  0  # atno 10765 bound_to 10752
  141.1489  133.7907  157.0199 H   0  0  0  0  0  0  0  0  0  0  0  0  # atno 11005 bound_to 11000
  144.7510  140.5191  143.6802 LP  0  0  0  0  0  0  0  0  0  0  0  0  # atno 17320 bound_to 7965
  145.5666  139.1481  143.3311 LP  0  0  0  0  0  0  0  0  0  0  0  0  # atno 17321 bound_to 7965
  139.6499  144.0382  152.2618 LP  0  0  0  0  0  0  0  0  0  0  0  0  # atno 17342 bound_to 10162
  139.9915  144.6358  150.7810 LP  0  0  0  0  0  0  0  0  0  0  0  0  # atno 17343 bound_to 10162
  157.1032  130.5990  149.5465 LP  0  0  0  0  0  0  0  0  0  0  0  0  # atno 17370 bound_to 10713
  155.9942  130.5005  150.7411 LP  0  0  0  0  0  0  0  0  0  0  0  0  # atno 17371 bound_to 10713
  140.0822  134.9641  157.1643 LP  0  0  0  0  0  0  0  0  0  0  0  0  # atno 17394 bound_to 11000
  140.3560  134.2546  155.7192 LP  0  0  0  0  0  0  0  0  0  0  0  0  # atno 17395 bound_to 11000

$$$$
