AV-unprocessed.smi:1898|AV-procd|sdf|7700|dock6
  -GOLD-   22720 9433D 1   1.00000     0.00000
 Structure written by MMmdl.
 46 47  0  0  0  0  0  0  0  0  1 V2000
  146.0586  134.9774  152.3034 C   0  0  0  0  0  0  0  0  0  0  0  0
  146.5354  136.3318  152.0714 N   0  0  0  0  0  0  0  0  0  0  0  0
  145.8373  137.4383  152.3653 C   0  0  0  0  0  0  0  0  0  0  0  0
  144.7183  137.4163  152.8772 O   0  0  0  0  0  0  0  0  0  0  0  0
  146.5045  138.7790  152.0358 C   0  0  0  0  0  0  0  0  0  0  0  0
  147.1440  139.4568  153.1884 N   0  0  0  0  0  0  0  0  0  0  0  0
  147.0331  140.9091  153.0134 C   0  0  0  0  0  0  0  0  0  0  0  0
  147.5783  141.6517  154.2463 C   0  0  0  0  0  0  0  0  0  0  0  0
  149.0419  141.2764  154.5166 C   0  0  0  0  0  0  0  0  0  0  0  0
  149.4989  141.9056  155.7524 N   0  0  0  0  0  0  0  0  0  0  0  0
  150.5537  141.5071  156.4775 C   0  0  0  0  0  0  0  0  0  0  0  0
  151.2659  140.5513  156.1704 O   0  0  0  0  0  0  0  0  0  0  0  0
  150.7049  142.2707  157.5727 N   0  0  0  0  0  0  0  0  0  0  0  0
  151.6764  142.1608  158.6061 C   0  0  0  0  0  0  0  0  0  0  0  0
  152.3663  140.9628  158.9132 C   0  0  0  0  0  0  0  0  0  0  0  0
  153.3216  140.9701  159.9463 C   0  0  0  0  0  0  0  0  0  0  0  0
  153.5603  142.1761  160.6298 C   0  0  0  0  0  0  0  0  0  0  0  0
  152.9223  143.3283  160.3393 N   0  0  0  0  0  0  0  0  0  0  0  0
  152.0002  143.3237  159.3438 C   0  0  0  0  0  0  0  0  0  0  0  0
  151.3509  144.5065  159.0445 O   0  0  0  0  0  0  0  0  0  0  0  0
  151.5200  145.6156  159.9206 C   0  0  0  0  0  0  0  0  0  0  0  0
  149.1531  139.7456  154.6036 C   0  0  0  0  0  0  0  0  0  0  0  0
  148.5529  139.0706  153.3581 C   0  0  0  0  0  0  0  0  0  0  0  0
  146.8074  134.2571  151.9745 H   0  0  0  0  0  0  0  0  0  0  0  0
  145.1392  134.7905  151.7473 H   0  0  0  0  0  0  0  0  0  0  0  0
  145.8648  134.8091  153.3635 H   0  0  0  0  0  0  0  0  0  0  0  0
  147.4471  136.4385  151.6499 H   0  0  0  0  0  0  0  0  0  0  0  0
  147.2425  138.6210  151.2470 H   0  0  0  0  0  0  0  0  0  0  0  0
  145.7354  139.4278  151.6140 H   0  0  0  0  0  0  0  0  0  0  0  0
  147.5680  141.2258  152.1159 H   0  0  0  0  0  0  0  0  0  0  0  0
  145.9870  141.1843  152.8718 H   0  0  0  0  0  0  0  0  0  0  0  0
  147.4915  142.7284  154.0948 H   0  0  0  0  0  0  0  0  0  0  0  0
  146.9634  141.4112  155.1150 H   0  0  0  0  0  0  0  0  0  0  0  0
  149.6501  141.6344  153.6835 H   0  0  0  0  0  0  0  0  0  0  0  0
  148.9677  142.6983  156.0820 H   0  0  0  0  0  0  0  0  0  0  0  0
  149.9935  142.9703  157.7271 H   0  0  0  0  0  0  0  0  0  0  0  0
  152.1947  140.0456  158.3720 H   0  0  0  0  0  0  0  0  0  0  0  0
  153.8630  140.0720  160.2044 H   0  0  0  0  0  0  0  0  0  0  0  0
  154.2876  142.2182  161.4269 H   0  0  0  0  0  0  0  0  0  0  0  0
  150.9546  146.4655  159.5388 H   0  0  0  0  0  0  0  0  0  0  0  0
  152.5662  145.9177  159.9853 H   0  0  0  0  0  0  0  0  0  0  0  0
  151.1480  145.3936  160.9218 H   0  0  0  0  0  0  0  0  0  0  0  0
  150.1970  139.4489  154.7109 H   0  0  0  0  0  0  0  0  0  0  0  0
  148.6371  139.3840  155.4946 H   0  0  0  0  0  0  0  0  0  0  0  0
  148.6508  137.9923  153.4824 H   0  0  0  0  0  0  0  0  0  0  0  0
  149.1262  139.3384  152.4687 H   0  0  0  0  0  0  0  0  0  0  0  0
  1  2  1  0  0  0  0
  1 24  1  0  0  0  0
  1 25  1  0  0  0  0
  1 26  1  0  0  0  0
  2  3  1  0  0  0  0
  2 27  1  0  0  0  0
  3  4  2  0  0  0  0
  3  5  1  0  0  0  0
  5  6  1  0  0  0  0
  5 28  1  0  0  0  0
  5 29  1  0  0  0  0
  6 23  1  0  0  0  0
  6  7  1  0  0  0  0
  7  8  1  0  0  0  0
  7 30  1  0  0  0  0
  7 31  1  0  0  0  0
  8  9  1  0  0  0  0
  8 32  1  0  0  0  0
  8 33  1  0  0  0  0
  9 10  1  0  0  0  0
  9 22  1  0  0  0  0
  9 34  1  0  0  0  0
 10 11  1  0  0  0  0
 10 35  1  0  0  0  0
 11 12  2  0  0  0  0
 11 13  1  0  0  0  0
 13 14  1  0  0  0  0
 13 36  1  0  0  0  0
 14 19  1  0  0  0  0
 14 15  2  0  0  0  0
 15 16  1  0  0  0  0
 15 37  1  0  0  0  0
 16 17  2  0  0  0  0
 16 38  1  0  0  0  0
 17 18  1  0  0  0  0
 17 39  1  0  0  0  0
 18 19  2  0  0  0  0
 19 20  1  0  0  0  0
 20 21  1  0  0  0  0
 21 40  1  0  0  0  0
 21 41  1  0  0  0  0
 21 42  1  0  0  0  0
 22 23  1  0  0  0  0
 22 43  1  0  0  0  0
 22 44  1  0  0  0  0
 23 45  1  0  0  0  0
 23 46  1  0  0  0  0
M  END
> <s_m_source_file>
AV-unprocessed.smi

> <i_m_source_file_index>
1898

> <i_lp_mmshare_version>
43012

> <i_f3d_flags>
0

> <s_epik_input>
W0NIM11bTkhdQyg9TylbQ0gyXU4xW0NIMl1bQ0gyXVtDSF0oW0NIMl1bQ0gyXTEpW05IXUMoPU8pW05IXWMyW2NIXVtjSF1bY0hdbmMyT1tDSDNd

> <s_epik_cmdline>
J2VwaWtfcHl0aG9uJywgJy1waCcsICc3LjAnLCAnLXRuJywgJzgnLCAnLW1hJywgJzIwMCcsICctbWV0YWxfYmluZGluZycsICctaW1hZScsICc8aW5maWxlLm1hZT4nLCAnLW9tYWUnLCAnPG91dGZpbGUubWFlPic=

> <r_lp_tautomer_probability>
1

> <r_epik_Ionization_Penalty>
0.16483

> <r_epik_Ionization_Penalty_Charging>
0

> <r_epik_Ionization_Penalty_Neutral>
0.16483

> <r_epik_State_Penalty>
0.154069

> <r_epik_Charging_Adjusted_Penalty>
0.154069

> <i_epik_Tot_Q>
0

> <i_epik_Tot_abs_Q>
0

> <r_epik_Metal_State_Penalty>
0.158584

> <b_epik_Metal_Only>
0

> <s_lp_Force_Field>
OPLS_2005

> <r_lp_Energy>
15.9116

> <b_lp_Chiralities_Consistent>
1

> <s_lp_Variant>
AV-unprocessed.smi:1898-1

> <Gold.Version>
5.8.1

> <Gold.Id.Protein>
6NUR|6NUR_protein|mol2

> <Gold.PLP.Fitness>
46.2912

> <Gold.PLP.PLP>
-43.3068

> <Gold.PLP.part.hbond>
-1.8786

> <Gold.PLP.part.metal>
0.0000

> <Gold.PLP.part.buried>
-3.5721

> <Gold.PLP.part.nonpolar>
-39.5211

> <Gold.PLP.part.repulsive>
0.7890

> <Gold.PLP.ligand.clash>
0.0000

> <Gold.PLP.ligand.torsion>
1.1991

> <Gold.PLP.Chemscore.Hbond>
1.7912

> <Gold.PLP.Chemscore.CHOScore>
0.0000

> <Gold.PLP.Chemscore.Metal>
0.0000

> <Gold.Chemscore.Hbonds>
donor molecule, donor type, donor heavy atom, donor atom, acceptor molecule, acceptor atom, score
      L1  H     2    27       P1  7948  0.86
      L1  H    10    35       P1  8028  0.67

> <Gold.PLP.Chemscore.Internal.Correction>
0.0089

> <Gold.Rescore>
     Score         DG    S(hbond)    S(metal)    S(lipo)     H(rot)  DE(clash)    DE(int)     intcor
     12.42     -18.20       1.85        0.00      98.92       1.96       2.26       3.52       ----

> <Gold.Chemscore.Fitness>
12.4233

> <Gold.Chemscore.DG>
-18.2004

> <Gold.Chemscore.ZeroCoef>
-5.4800

> <Gold.Chemscore.Hbond>
1.8490

> <Gold.Chemscore.Metal>
0.0000

> <Gold.Chemscore.Lipo>
98.9219

> <Gold.Chemscore.Internal_Hbond>
0.0000

> <Gold.Chemscore.DEClash>
2.2559

> <Gold.Chemscore.DEInternal>
3.5212

> <Gold.Chemscore.Rot>
1.9645

> <Gold.Chemscore.Internal.Correction>
   9.000000E+99

> <Gold.Chemscore.Hbonds>
donor molecule, donor type, donor heavy atom, donor atom, acceptor molecule, acceptor atom, score
      L1  H     2    27       P1  7948  0.79
      L1  H    10    35       P1  8028  0.65

> <Gold.Chemscore.Hbond.Weighted>
-6.1755

> <Gold.Chemscore.Metal.Weighted>
-0.0000

> <Gold.Chemscore.Lipo.Weighted>
-11.5739

> <Gold.Chemscore.Internal_Hbond.Weighted>
0.0000

> <Gold.Chemscore.DEClash.Weighted>
2.2559

> <Gold.Chemscore.DEInternal.Weighted>
3.5212

> <Gold.Chemscore.Rot.Weighted>
5.0290

> <Gold.Chemscore.Internal.Correction.Weighted>
   9.000000E+99

> <Gold.Protein.RotatedTorsions>
[ 6907 6896 6895 6894 ] final  -45.50 input  -60.11 | X-H torsion
[ 7974 7965 7964 7962 ] final   38.46 input  175.53 | X-H torsion
[ 8008 7997 7996 7995 ] final -126.97 input   59.86 | X-H torsion
[ 10167 10162 10161 10158 ] final -150.17 input  -65.29 | X-H torsion
[ 10718 10713 10712 10709 ] final   -6.11 input   66.30 | X-H torsion
[ 10763 10752 10751 10750 ] final  -11.28 input  -60.55 | X-H torsion
[ 11005 11000 10999 10996 ] final  133.77 input  -57.11 | X-H torsion

> <Gold.Protein.ActiveResidues>
 VAL166  LYS551  ARG553  GLY616  TRP617  ASP618  TYR619  PRO620  LYS621  CYS622 
 ASP623  PHE694  ASN695  SER759  ASP760  ASP761  ALA762  ILE779  LEU786  VAL792 
 PHE793  MET794  SER795  GLU796  ALA797  LYS798  CYS799  TRP800  GLU811  SER814 

> <Gold.Protein.RotatedAtoms>
  150.9213  134.8631  159.7490 H   0  0  0  0  0  0  0  0  0  0  0  0  # atno 6907 bound_to 6896
  152.4994  134.4214  159.9492 H   0  0  0  0  0  0  0  0  0  0  0  0  # atno 6908 bound_to 6896
  151.4248  133.3648  159.2796 H   0  0  0  0  0  0  0  0  0  0  0  0  # atno 6909 bound_to 6896
  146.1060  139.5770  142.9383 H   0  0  0  0  0  0  0  0  0  0  0  0  # atno 7974 bound_to 7965
  155.2384  140.0428  157.2971 H   0  0  0  0  0  0  0  0  0  0  0  0  # atno 8008 bound_to 7997
  154.5844  140.2409  155.7978 H   0  0  0  0  0  0  0  0  0  0  0  0  # atno 8009 bound_to 7997
  156.2216  140.2968  155.9973 H   0  0  0  0  0  0  0  0  0  0  0  0  # atno 8010 bound_to 7997
  139.7378  143.8708  152.2554 H   0  0  0  0  0  0  0  0  0  0  0  0  # atno 10167 bound_to 10162
  156.7366  130.5196  149.5833 H   0  0  0  0  0  0  0  0  0  0  0  0  # atno 10718 bound_to 10713
  153.4815  135.7017  153.5936 H   0  0  0  0  0  0  0  0  0  0  0  0  # atno 10763 bound_to 10752
  153.4147  135.3840  155.2073 H   0  0  0  0  0  0  0  0  0  0  0  0  # atno 10764 bound_to 10752
  154.8721  135.3913  154.4264 H   0  0  0  0  0  0  0  0  0  0  0  0  # atno 10765 bound_to 10752
  139.9872  134.9528  156.9772 H   0  0  0  0  0  0  0  0  0  0  0  0  # atno 11005 bound_to 11000
  145.5759  141.0388  143.2148 LP  0  0  0  0  0  0  0  0  0  0  0  0  # atno 17320 bound_to 7965
  144.7471  139.7290  143.7288 LP  0  0  0  0  0  0  0  0  0  0  0  0  # atno 17321 bound_to 7965
  139.8650  144.7097  150.9054 LP  0  0  0  0  0  0  0  0  0  0  0  0  # atno 17342 bound_to 10162
  140.7781  143.3785  151.1519 LP  0  0  0  0  0  0  0  0  0  0  0  0  # atno 17343 bound_to 10162
  156.1492  130.6298  151.0573 LP  0  0  0  0  0  0  0  0  0  0  0  0  # atno 17370 bound_to 10713
  157.6836  131.0831  150.7303 LP  0  0  0  0  0  0  0  0  0  0  0  0  # atno 17371 bound_to 10713
  140.4978  134.1128  155.7244 LP  0  0  0  0  0  0  0  0  0  0  0  0  # atno 17394 bound_to 11000
  141.1535  133.8925  157.2037 LP  0  0  0  0  0  0  0  0  0  0  0  0  # atno 17395 bound_to 11000

$$$$
