AV-unprocessed.smi:112|AV-procd|sdf|1086|dock3
  -GOLD-   2262018183D 1   1.00000     0.00000
 Structure written by MMmdl.
 54 57  0  0  0  0  0  0  0  0  3 V2000
  148.1834  136.3271  156.2515 C   0  0  0  0  0  0  0  0  0  0  0  0
  148.4008  134.9360  155.6785 C   0  0  0  0  0  0  0  0  0  0  0  0
  147.9637  134.5894  154.4465 C   0  0  0  0  0  0  0  0  0  0  0  0
  148.1457  133.3351  153.8963 N   0  0  0  0  0  0  0  0  0  0  0  0
  147.6366  133.0336  152.5080 C   0  0  1  0  0  0  0  0  0  0  0  0
  146.7198  131.8135  152.5077 C   0  0  0  0  0  0  0  0  0  0  0  0
  145.8284  132.0990  151.3121 C   0  0  2  0  0  0  0  0  0  0  0  0
  146.3677  131.5047  150.1468 O   0  0  0  0  0  0  0  0  0  0  0  0
  145.8578  133.6371  151.1923 C   0  0  1  0  0  0  0  0  0  0  0  0
  144.5370  134.3547  151.5265 C   0  0  0  0  0  0  0  0  0  0  0  0
  143.4207  133.6891  150.9707 O   0  0  0  0  0  0  0  0  0  0  0  0
  146.8743  134.1123  152.0716 O   0  0  0  0  0  0  0  0  0  0  0  0
  148.8036  132.3330  154.6378 C   0  0  0  0  0  0  0  0  0  0  0  0
  148.9695  131.2033  154.1724 O   0  0  0  0  0  0  0  0  0  0  0  0
  149.2632  132.6593  155.9341 N   0  0  0  0  0  0  0  0  0  0  0  0
  149.9506  131.6158  156.7292 C   0  0  0  0  0  0  0  0  0  0  0  0
  151.4729  131.8343  156.8724 C   0  0  0  0  0  0  0  0  0  0  0  0
  151.8781  132.7552  157.5825 O   0  0  0  0  0  0  0  0  0  0  0  0
  152.2986  130.9941  156.1993 N   0  0  0  0  0  0  0  0  0  0  0  0
  151.8174  129.8925  155.3472 C   0  0  0  0  0  0  0  0  0  0  0  0
  153.0755  129.1993  154.7810 C   0  0  0  0  0  0  0  0  0  0  0  0
  154.1984  129.9931  155.3797 C   0  0  0  0  0  0  0  0  0  0  0  0
  155.5733  129.7786  155.1852 C   0  0  0  0  0  0  0  0  0  0  0  0
  156.4979  130.6341  155.8341 C   0  0  0  0  0  0  0  0  0  0  0  0
  157.9501  130.4395  155.6522 N   0  3  0  0  0  0  0  0  0  0  0  0
  158.3275  129.5697  154.8736 O   0  0  0  0  0  0  0  0  0  0  0  0
  158.7161  131.1564  156.2881 O   0  5  0  0  0  0  0  0  0  0  0  0
  156.0077  131.6799  156.6609 C   0  0  0  0  0  0  0  0  0  0  0  0
  154.6221  131.8801  156.8463 C   0  0  0  0  0  0  0  0  0  0  0  0
  153.7190  131.0166  156.1892 C   0  0  0  0  0  0  0  0  0  0  0  0
  149.1040  133.9486  156.5010 C   0  0  0  0  0  0  0  0  0  0  0  0
  149.5446  134.1988  157.6246 O   0  0  0  0  0  0  0  0  0  0  0  0
  147.6480  136.9730  155.5550 H   0  0  0  0  0  0  0  0  0  0  0  0
  149.1396  136.8003  156.4774 H   0  0  0  0  0  0  0  0  0  0  0  0
  147.6006  136.2738  157.1717 H   0  0  0  0  0  0  0  0  0  0  0  0
  147.4412  135.3321  153.8604 H   0  0  0  0  0  0  0  0  0  0  0  0
  148.4912  132.9274  151.8387 H   0  0  0  0  0  0  0  0  0  0  0  0
  147.2880  130.8845  152.4465 H   0  0  0  0  0  0  0  0  0  0  0  0
  146.1230  131.8045  153.4208 H   0  0  0  0  0  0  0  0  0  0  0  0
  144.8230  131.7022  151.4580 H   0  0  0  0  0  0  0  0  0  0  0  0
  147.3099  131.5002  150.2183 H   0  0  0  0  0  0  0  0  0  0  0  0
  146.1512  133.9286  150.1822 H   0  0  0  0  0  0  0  0  0  0  0  0
  144.4096  134.4442  152.6056 H   0  0  0  0  0  0  0  0  0  0  0  0
  144.5568  135.3670  151.1222 H   0  0  0  0  0  0  0  0  0  0  0  0
  142.8870  134.3245  150.5184 H   0  0  0  0  0  0  0  0  0  0  0  0
  149.5040  131.5515  157.7220 H   0  0  0  0  0  0  0  0  0  0  0  0
  149.7786  130.6292  156.2969 H   0  0  0  0  0  0  0  0  0  0  0  0
  151.2268  129.1827  155.9280 H   0  0  0  0  0  0  0  0  0  0  0  0
  151.1958  130.2735  154.5357 H   0  0  0  0  0  0  0  0  0  0  0  0
  153.1389  128.1561  155.0917 H   0  0  0  0  0  0  0  0  0  0  0  0
  153.1119  129.2470  153.6922 H   0  0  0  0  0  0  0  0  0  0  0  0
  155.9046  128.9712  154.5486 H   0  0  0  0  0  0  0  0  0  0  0  0
  156.6944  132.3440  157.1649 H   0  0  0  0  0  0  0  0  0  0  0  0
  154.2922  132.6854  157.4831 H   0  0  0  0  0  0  0  0  0  0  0  0
  1  2  1  0  0  0  0
  1 33  1  0  0  0  0
  1 34  1  0  0  0  0
  1 35  1  0  0  0  0
  2 31  1  0  0  0  0
  2  3  2  0  0  0  0
  3  4  1  0  0  0  0
  3 36  1  0  0  0  0
  4  5  1  0  0  0  0
  4 13  1  0  0  0  0
  5 12  1  0  0  0  0
  5  6  1  0  0  0  0
  5 37  1  0  0  0  0
  6  7  1  0  0  0  0
  6 38  1  0  0  0  0
  6 39  1  0  0  0  0
  7  8  1  0  0  0  0
  7  9  1  0  0  0  0
  7 40  1  0  0  0  0
  8 41  1  0  0  0  0
  9 10  1  0  0  0  0
  9 12  1  0  0  0  0
  9 42  1  0  0  0  0
 10 11  1  0  0  0  0
 10 43  1  0  0  0  0
 10 44  1  0  0  0  0
 11 45  1  0  0  0  0
 13 14  2  0  0  0  0
 13 15  1  0  0  0  0
 15 16  1  0  0  0  0
 15 31  1  0  0  0  0
 16 17  1  0  0  0  0
 16 46  1  0  0  0  0
 16 47  1  0  0  0  0
 17 18  2  0  0  0  0
 17 19  1  0  0  0  0
 19 30  1  0  0  0  0
 19 20  1  0  0  0  0
 20 21  1  0  0  0  0
 20 48  1  0  0  0  0
 20 49  1  0  0  0  0
 21 22  1  0  0  0  0
 21 50  1  0  0  0  0
 21 51  1  0  0  0  0
 22 30  2  0  0  0  0
 22 23  1  0  0  0  0
 23 24  2  0  0  0  0
 23 52  1  0  0  0  0
 24 25  1  0  0  0  0
 24 28  1  0  0  0  0
 25 26  2  0  0  0  0
 25 27  1  0  0  0  0
 28 29  2  0  0  0  0
 28 53  1  0  0  0  0
 29 30  1  0  0  0  0
 29 54  1  0  0  0  0
 31 32  2  0  0  0  0
M  CHG  1  25   1
M  CHG  1  27  -1
M  END
> <s_m_source_file>
AV-unprocessed.smi

> <i_m_source_file_index>
112

> <i_lp_mmshare_version>
43012

> <i_f3d_flags>
0

> <s_epik_input>
W09IXVtDSDJdW0NAQEhdKE8xKVtDQEhdKFtPSF0pW0NIMl1bQ0BIXTFuKFtjSF1jMltDSDNdKWMoPU8pbihjMj1PKVtDSDJdQyg9TylOKFtDSDJdW0NIMl0zKWMoYzM0KVtjSF1bY0hdYyhbY0hdNClbTitdKD1PKVtPLV0=

> <s_epik_cmdline>
J2VwaWtfcHl0aG9uJywgJy1waCcsICc3LjAnLCAnLXRuJywgJzgnLCAnLW1hJywgJzIwMCcsICctbWV0YWxfYmluZGluZycsICctaW1hZScsICc8aW5maWxlLm1hZT4nLCAnLW9tYWUnLCAnPG91dGZpbGUubWFlPic=

> <r_lp_tautomer_probability>
1

> <r_epik_Ionization_Penalty>
2.5696e-07

> <r_epik_Ionization_Penalty_Charging>
1.04886e-08

> <r_epik_Ionization_Penalty_Neutral>
2.46472e-07

> <r_epik_State_Penalty>
-0

> <r_epik_Charging_Adjusted_Penalty>
1.04886e-08

> <i_epik_Tot_Q>
0

> <i_epik_Tot_abs_Q>
2

> <r_epik_Metal_State_Penalty>
-0

> <b_epik_Metal_Only>
0

> <s_epik_Chemistry_Notes>
This compound contains an acetal/aminal-like group ( X-CH(R)-Y where X, Y are N, S, or O) that may be acid/base labile, releasing an aldehyde.

> <s_lp_Force_Field>
OPLS_2005

> <r_lp_Energy>
61.0713

> <b_lp_Chiralities_Consistent>
1

> <s_lp_Variant>
AV-unprocessed.smi:112-4

> <Gold.Version>
5.8.1

> <Gold.Id.Protein>
6NUR|6NUR_protein|mol2

> <Gold.PLP.Fitness>
48.4391

> <Gold.PLP.PLP>
-38.9270

> <Gold.PLP.part.hbond>
-4.0000

> <Gold.PLP.part.metal>
0.0000

> <Gold.PLP.part.buried>
-6.2962

> <Gold.PLP.part.nonpolar>
-30.3165

> <Gold.PLP.part.repulsive>
1.1362

> <Gold.PLP.ligand.clash>
0.0000

> <Gold.PLP.ligand.torsion>
0.4755

> <Gold.PLP.Chemscore.Hbond>
3.2441

> <Gold.PLP.Chemscore.CHOScore>
0.2221

> <Gold.PLP.Chemscore.Metal>
0.0000

> <Gold.Chemscore.Hbonds>
donor molecule, donor type, donor heavy atom, donor atom, acceptor molecule, acceptor atom, score
      L1  H     8    41       P1 10747  1.00
      L1  H    11    45       P1 10186  0.62
      P1  H  6896  6907       L1    18  0.53
      P1  H  6896  6908       L1    32  0.88
      L1  C     3    36       P1  7948  0.43

> <Gold.PLP.Chemscore.Internal.Correction>
0.0646

> <Gold.Rescore>
     Score         DG    S(hbond)    S(metal)    S(lipo)     H(rot)  DE(clash)    DE(int)     intcor
     11.50     -15.57       3.00        0.00      72.67       3.29       0.01       4.07       ----

> <Gold.Chemscore.Fitness>
11.4958

> <Gold.Chemscore.DG>
-15.5712

> <Gold.Chemscore.ZeroCoef>
-5.4800

> <Gold.Chemscore.Hbond>
2.9986

> <Gold.Chemscore.Metal>
0.0000

> <Gold.Chemscore.Lipo>
72.6709

> <Gold.Chemscore.Internal_Hbond>
0.0000

> <Gold.Chemscore.DEClash>
0.0093

> <Gold.Chemscore.DEInternal>
4.0661

> <Gold.Chemscore.Rot>
3.2916

> <Gold.Chemscore.Internal.Correction>
   9.000000E+99

> <Gold.Chemscore.Hbonds>
donor molecule, donor type, donor heavy atom, donor atom, acceptor molecule, acceptor atom, score
      L1  H     8    41       P1 10747  0.99
      L1  H    11    45       P1 10186  0.40
      P1  H  6896  6907       L1    18  0.51
      P1  H  6896  6908       L1    32  0.83

> <Gold.Chemscore.Hbond.Weighted>
-10.0152

> <Gold.Chemscore.Metal.Weighted>
-0.0000

> <Gold.Chemscore.Lipo.Weighted>
-8.5025

> <Gold.Chemscore.Internal_Hbond.Weighted>
0.0000

> <Gold.Chemscore.DEClash.Weighted>
0.0093

> <Gold.Chemscore.DEInternal.Weighted>
4.0661

> <Gold.Chemscore.Rot.Weighted>
8.4265

> <Gold.Chemscore.Internal.Correction.Weighted>
   9.000000E+99

> <Gold.Protein.RotatedTorsions>
[ 6907 6896 6895 6894 ] final  148.13 input  -60.11 | X-H torsion
[ 7974 7965 7964 7962 ] final  127.33 input  175.53 | X-H torsion
[ 8008 7997 7996 7995 ] final -130.91 input   59.86 | X-H torsion
[ 10167 10162 10161 10158 ] final  112.60 input  -65.29 | X-H torsion
[ 10718 10713 10712 10709 ] final -129.07 input   66.30 | X-H torsion
[ 10763 10752 10751 10750 ] final   95.62 input  -60.55 | X-H torsion
[ 11005 11000 10999 10996 ] final   57.05 input  -57.11 | X-H torsion

> <Gold.Protein.ActiveResidues>
 VAL166  LYS551  ARG553  GLY616  TRP617  ASP618  TYR619  PRO620  LYS621  CYS622 
 ASP623  PHE694  ASN695  SER759  ASP760  ASP761  ALA762  ILE779  LEU786  VAL792 
 PHE793  MET794  SER795  GLU796  ALA797  LYS798  CYS799  TRP800  GLU811  SER814 

> <Gold.Protein.RotatedAtoms>
  152.1455  133.4490  159.4787 H   0  0  0  0  0  0  0  0  0  0  0  0  # atno 6907 bound_to 6896
  150.6890  134.2253  159.4422 H   0  0  0  0  0  0  0  0  0  0  0  0  # atno 6908 bound_to 6896
  152.0146  134.9857  160.0619 H   0  0  0  0  0  0  0  0  0  0  0  0  # atno 6909 bound_to 6896
  145.0517  139.3877  143.5050 H   0  0  0  0  0  0  0  0  0  0  0  0  # atno 7974 bound_to 7965
  155.3036  140.0454  157.3031 H   0  0  0  0  0  0  0  0  0  0  0  0  # atno 8008 bound_to 7997
  154.5472  140.2306  155.8510 H   0  0  0  0  0  0  0  0  0  0  0  0  # atno 8009 bound_to 7997
  156.1935  140.3044  155.9387 H   0  0  0  0  0  0  0  0  0  0  0  0  # atno 8010 bound_to 7997
  139.6524  144.7128  151.2023 H   0  0  0  0  0  0  0  0  0  0  0  0  # atno 10167 bound_to 10162
  156.2011  130.6858  151.0540 H   0  0  0  0  0  0  0  0  0  0  0  0  # atno 10718 bound_to 10713
  153.2553  135.4247  155.0839 H   0  0  0  0  0  0  0  0  0  0  0  0  # atno 10763 bound_to 10752
  154.8398  135.3436  154.6454 H   0  0  0  0  0  0  0  0  0  0  0  0  # atno 10764 bound_to 10752
  153.6875  135.7035  153.5156 H   0  0  0  0  0  0  0  0  0  0  0  0  # atno 10765 bound_to 10752
  140.0482  134.5774  155.9296 H   0  0  0  0  0  0  0  0  0  0  0  0  # atno 11005 bound_to 11000
  146.3518  140.0171  142.8662 LP  0  0  0  0  0  0  0  0  0  0  0  0  # atno 17320 bound_to 7965
  145.1518  140.9627  143.4428 LP  0  0  0  0  0  0  0  0  0  0  0  0  # atno 17321 bound_to 7965
  140.7543  143.6128  150.8588 LP  0  0  0  0  0  0  0  0  0  0  0  0  # atno 17342 bound_to 10162
  139.9778  143.5985  152.2953 LP  0  0  0  0  0  0  0  0  0  0  0  0  # atno 17343 bound_to 10162
  157.6986  131.0784  150.6892 LP  0  0  0  0  0  0  0  0  0  0  0  0  # atno 17370 bound_to 10713
  156.6949  130.4606  149.5589 LP  0  0  0  0  0  0  0  0  0  0  0  0  # atno 17371 bound_to 10713
  141.1917  133.6573  156.5470 LP  0  0  0  0  0  0  0  0  0  0  0  0  # atno 17394 bound_to 11000
  140.3959  134.7399  157.4750 LP  0  0  0  0  0  0  0  0  0  0  0  0  # atno 17395 bound_to 11000

$$$$
