AV-unprocessed.smi:33|AV-procd|sdf|205|dock2
  -GOLD-   2262015493D 1   1.00000     0.00000
 Structure written by MMmdl.
 67 72  0  0  0  0  0  0  0  0  1 V2000
  154.0721  142.0114  162.2532 O   0  0  0  0  0  0  0  0  0  0  0  0
  153.6048  141.9054  161.1176 C   0  0  0  0  0  0  0  0  0  0  0  0
  153.6806  140.7801  160.3815 O   0  0  0  0  0  0  0  0  0  0  0  0
  154.6939  139.8227  160.6441 C   0  0  0  0  0  0  0  0  0  0  0  0
  154.0583  138.4292  160.7681 C   0  0  2  0  0  0  0  0  0  0  0  0
  155.1111  137.4657  160.7398 O   0  0  0  0  0  0  0  0  0  0  0  0
  154.9120  136.5402  159.7128 C   0  0  2  0  0  0  0  0  0  0  0  0
  156.2363  136.0943  159.1638 N   0  0  0  0  0  0  0  0  0  0  0  0
  157.4908  136.5792  159.4729 C   0  0  0  0  0  0  0  0  0  0  0  0
  158.4803  136.0517  158.8044 N   0  0  0  0  0  0  0  0  0  0  0  0
  157.8610  135.1581  157.9420 C   0  0  0  0  0  0  0  0  0  0  0  0
  158.3302  134.2759  156.9314 C   0  0  0  0  0  0  0  0  0  0  0  0
  159.6401  134.1502  156.6129 N   0  0  0  0  0  0  0  0  0  0  0  0
  160.0203  134.4092  155.2159 C   0  0  0  0  0  0  0  0  0  0  0  0
  161.0374  133.8858  154.7566 O   0  0  0  0  0  0  0  0  0  0  0  0
  159.1508  135.2573  154.3313 C   0  0  0  0  0  0  0  0  0  0  0  0
  159.0010  134.9292  152.9659 C   0  0  0  0  0  0  0  0  0  0  0  0
  158.2004  135.7284  152.1271 C   0  0  0  0  0  0  0  0  0  0  0  0
  157.5592  136.8706  152.6434 C   0  0  0  0  0  0  0  0  0  0  0  0
  157.7266  137.2191  153.9972 C   0  0  0  0  0  0  0  0  0  0  0  0
  158.5272  136.4207  154.8365 C   0  0  0  0  0  0  0  0  0  0  0  0
  160.5592  133.7597  157.6918 C   0  0  0  0  0  0  0  0  0  0  0  0
  160.1277  133.1370  158.6638 O   0  0  0  0  0  0  0  0  0  0  0  0
  162.0248  134.0750  157.5934 C   0  0  0  0  0  0  0  0  0  0  0  0
  162.4654  135.1485  156.7887 C   0  0  0  0  0  0  0  0  0  0  0  0
  163.8393  135.4419  156.6869 C   0  0  0  0  0  0  0  0  0  0  0  0
  164.7818  134.6511  157.3715 C   0  0  0  0  0  0  0  0  0  0  0  0
  164.3511  133.5606  158.1509 C   0  0  0  0  0  0  0  0  0  0  0  0
  162.9776  133.2684  158.2558 C   0  0  0  0  0  0  0  0  0  0  0  0
  157.4138  133.5411  156.2498 N   0  0  0  0  0  0  0  0  0  0  0  0
  156.1158  133.6671  156.5386 C   0  0  0  0  0  0  0  0  0  0  0  0
  155.5360  134.4494  157.4515 N   0  0  0  0  0  0  0  0  0  0  0  0
  156.4534  135.1847  158.1464 C   0  0  0  0  0  0  0  0  0  0  0  0
  154.0213  137.2419  158.6788 C   0  0  2  0  0  0  0  0  0  0  0  0
  154.7478  138.0788  157.7945 O   0  0  0  0  0  0  0  0  0  0  0  0
  153.1287  138.0378  159.6112 C   0  0  2  0  0  0  0  0  0  0  0  0
  152.5005  139.0518  159.0128 F   0  0  0  0  0  0  0  0  0  0  0  0
  152.8960  143.0121  160.4122 C   0  0  0  0  0  0  0  0  0  0  0  0
  152.7998  142.9858  159.0013 C   0  0  0  0  0  0  0  0  0  0  0  0
  152.1366  144.0171  158.3082 C   0  0  0  0  0  0  0  0  0  0  0  0
  151.5623  145.0879  159.0173 C   0  0  0  0  0  0  0  0  0  0  0  0
  151.6515  145.1260  160.4210 C   0  0  0  0  0  0  0  0  0  0  0  0
  152.3135  144.0952  161.1160 C   0  0  0  0  0  0  0  0  0  0  0  0
  155.4552  139.8345  159.8635 H   0  0  0  0  0  0  0  0  0  0  0  0
  155.1850  140.0893  161.5808 H   0  0  0  0  0  0  0  0  0  0  0  0
  153.5355  138.3485  161.7218 H   0  0  0  0  0  0  0  0  0  0  0  0
  154.4587  135.6334  160.1160 H   0  0  0  0  0  0  0  0  0  0  0  0
  157.6533  137.3431  160.2194 H   0  0  0  0  0  0  0  0  0  0  0  0
  159.4887  134.0552  152.5588 H   0  0  0  0  0  0  0  0  0  0  0  0
  158.0794  135.4651  151.0867 H   0  0  0  0  0  0  0  0  0  0  0  0
  156.9453  137.4829  151.9995 H   0  0  0  0  0  0  0  0  0  0  0  0
  157.2418  138.0999  154.3920 H   0  0  0  0  0  0  0  0  0  0  0  0
  158.6521  136.7014  155.8725 H   0  0  0  0  0  0  0  0  0  0  0  0
  161.7506  135.7627  156.2601 H   0  0  0  0  0  0  0  0  0  0  0  0
  164.1704  136.2738  156.0830 H   0  0  0  0  0  0  0  0  0  0  0  0
  165.8351  134.8766  157.2932 H   0  0  0  0  0  0  0  0  0  0  0  0
  165.0740  132.9469  158.6679 H   0  0  0  0  0  0  0  0  0  0  0  0
  162.6584  132.4265  158.8535 H   0  0  0  0  0  0  0  0  0  0  0  0
  155.4452  133.0557  155.9533 H   0  0  0  0  0  0  0  0  0  0  0  0
  153.4638  136.5063  158.0983 H   0  0  0  0  0  0  0  0  0  0  0  0
  155.2609  137.5328  157.2184 H   0  0  0  0  0  0  0  0  0  0  0  0
  152.3468  137.3813  159.9956 H   0  0  0  0  0  0  0  0  0  0  0  0
  153.2330  142.1738  158.4348 H   0  0  0  0  0  0  0  0  0  0  0  0
  152.0691  143.9856  157.2308 H   0  0  0  0  0  0  0  0  0  0  0  0
  151.0541  145.8788  158.4857 H   0  0  0  0  0  0  0  0  0  0  0  0
  151.2113  145.9477  160.9666 H   0  0  0  0  0  0  0  0  0  0  0  0
  152.3638  144.1557  162.1933 H   0  0  0  0  0  0  0  0  0  0  0  0
  1  2  2  0  0  0  0
  2  3  1  0  0  0  0
  2 38  1  0  0  0  0
  3  4  1  0  0  0  0
  4  5  1  0  0  0  0
  4 44  1  0  0  0  0
  4 45  1  0  0  0  0
  5 36  1  0  0  0  0
  5  6  1  0  0  0  0
  5 46  1  0  0  0  0
  6  7  1  0  0  0  0
  7  8  1  0  0  0  0
  7 34  1  0  0  0  0
  7 47  1  0  0  0  0
  8 33  1  0  0  0  0
  8  9  1  0  0  0  0
  9 10  2  0  0  0  0
  9 48  1  0  0  0  0
 10 11  1  0  0  0  0
 11 33  2  0  0  0  0
 11 12  1  0  0  0  0
 12 13  1  0  0  0  0
 12 30  2  0  0  0  0
 13 14  1  0  0  0  0
 13 22  1  0  0  0  0
 14 15  2  0  0  0  0
 14 16  1  0  0  0  0
 16 21  1  0  0  0  0
 16 17  2  0  0  0  0
 17 18  1  0  0  0  0
 17 49  1  0  0  0  0
 18 19  2  0  0  0  0
 18 50  1  0  0  0  0
 19 20  1  0  0  0  0
 19 51  1  0  0  0  0
 20 21  2  0  0  0  0
 20 52  1  0  0  0  0
 21 53  1  0  0  0  0
 22 23  2  0  0  0  0
 22 24  1  0  0  0  0
 24 29  1  0  0  0  0
 24 25  2  0  0  0  0
 25 26  1  0  0  0  0
 25 54  1  0  0  0  0
 26 27  2  0  0  0  0
 26 55  1  0  0  0  0
 27 28  1  0  0  0  0
 27 56  1  0  0  0  0
 28 29  2  0  0  0  0
 28 57  1  0  0  0  0
 29 58  1  0  0  0  0
 30 31  1  0  0  0  0
 31 32  2  0  0  0  0
 31 59  1  0  0  0  0
 32 33  1  0  0  0  0
 34 35  1  0  0  0  0
 34 36  1  0  0  0  0
 34 60  1  0  0  0  0
 35 61  1  0  0  0  0
 36 37  1  0  0  0  0
 36 62  1  0  0  0  0
 38 43  1  0  0  0  0
 38 39  2  0  0  0  0
 39 40  1  0  0  0  0
 39 63  1  0  0  0  0
 40 41  2  0  0  0  0
 40 64  1  0  0  0  0
 41 42  1  0  0  0  0
 41 65  1  0  0  0  0
 42 43  2  0  0  0  0
 42 66  1  0  0  0  0
 43 67  1  0  0  0  0
M  END
> <s_m_source_file>
AV-unprocessed.smi

> <i_m_source_file_index>
33

> <i_lp_mmshare_version>
43012

> <i_f3d_flags>
0

> <s_epik_input>
W2NIXTFbY0hdW2NIXVtjSF1bY0hdYzFDKD1PKU9bQ0gyXVtDQEBIXTJPW0NASF0oW0NAQEhdKFtPSF0pW0NAQEhdMkYpbihbY0hdbjMpYyhjMzQpbltjSF1uYzROKEMoPU8pYzVbY0hdW2NIXVtjSF1bY0hdW2NIXTUpQyg9TyljNltjSF1bY0hdW2NIXVtjSF1bY0hdNg==

> <s_epik_cmdline>
J2VwaWtfcHl0aG9uJywgJy1waCcsICc3LjAnLCAnLXRuJywgJzgnLCAnLW1hJywgJzIwMCcsICctbWV0YWxfYmluZGluZycsICctaW1hZScsICc8aW5maWxlLm1hZT4nLCAnLW9tYWUnLCAnPG91dGZpbGUubWFlPic=

> <r_lp_tautomer_probability>
1

> <r_epik_Ionization_Penalty>
0.00067664

> <r_epik_Ionization_Penalty_Charging>
0

> <r_epik_Ionization_Penalty_Neutral>
0.00067664

> <r_epik_State_Penalty>
0.000428095

> <r_epik_Charging_Adjusted_Penalty>
0.000428095

> <i_epik_Tot_Q>
0

> <i_epik_Tot_abs_Q>
0

> <r_epik_Metal_State_Penalty>
-0

> <b_epik_Metal_Only>
0

> <s_epik_Chemistry_Notes>
This compound has an ester and may undergo hydrolysis at high or low pH. This compound contains an acetal/aminal-like group ( X-CH(R)-Y where X, Y are N, S, or O) that may be acid/base labile, releasing an aldehyde.

> <s_lp_Force_Field>
OPLS_2005

> <r_lp_Energy>
85.1188

> <b_lp_Chiralities_Consistent>
1

> <s_lp_Variant>
AV-unprocessed.smi:33-7

> <Gold.Version>
5.8.1

> <Gold.Id.Protein>
6NUR|6NUR_protein|mol2

> <Gold.PLP.Fitness>
61.2601

> <Gold.PLP.PLP>
-61.7080

> <Gold.PLP.part.hbond>
-2.0000

> <Gold.PLP.part.metal>
0.0000

> <Gold.PLP.part.buried>
-10.9577

> <Gold.PLP.part.nonpolar>
-50.8623

> <Gold.PLP.part.repulsive>
0.4381

> <Gold.PLP.ligand.clash>
0.0049

> <Gold.PLP.ligand.torsion>
3.3456

> <Gold.PLP.Chemscore.Hbond>
0.7200

> <Gold.PLP.Chemscore.CHOScore>
0.0000

> <Gold.PLP.Chemscore.Metal>
0.0000

> <Gold.Chemscore.Hbonds>
donor molecule, donor type, donor heavy atom, donor atom, acceptor molecule, acceptor atom, score
      P1  H  7997  8010       L1    35  0.72

> <Gold.PLP.Chemscore.Internal.Correction>
4.0882

> <Gold.Rescore>
     Score         DG    S(hbond)    S(metal)    S(lipo)     H(rot)  DE(clash)    DE(int)     intcor
     11.57     -20.88       0.52        0.00     171.90       2.52       1.00       8.31       ----

> <Gold.Chemscore.Fitness>
11.5699

> <Gold.Chemscore.DG>
-20.8814

> <Gold.Chemscore.ZeroCoef>
-5.4800

> <Gold.Chemscore.Hbond>
0.5246

> <Gold.Chemscore.Metal>
0.0000

> <Gold.Chemscore.Lipo>
171.9020

> <Gold.Chemscore.Internal_Hbond>
0.0000

> <Gold.Chemscore.DEClash>
0.9966

> <Gold.Chemscore.DEInternal>
8.3148

> <Gold.Chemscore.Rot>
2.5247

> <Gold.Chemscore.Internal.Correction>
   9.000000E+99

> <Gold.Chemscore.Hbonds>
donor molecule, donor type, donor heavy atom, donor atom, acceptor molecule, acceptor atom, score
      P1  H  7997  8010       L1    35  0.49

> <Gold.Chemscore.Hbond.Weighted>
-1.7521

> <Gold.Chemscore.Metal.Weighted>
-0.0000

> <Gold.Chemscore.Lipo.Weighted>
-20.1125

> <Gold.Chemscore.Internal_Hbond.Weighted>
0.0000

> <Gold.Chemscore.DEClash.Weighted>
0.9966

> <Gold.Chemscore.DEInternal.Weighted>
8.3148

> <Gold.Chemscore.Rot.Weighted>
6.4633

> <Gold.Chemscore.Internal.Correction.Weighted>
   9.000000E+99

> <Gold.Protein.RotatedTorsions>
[ 6907 6896 6895 6894 ] final  142.28 input  -60.11 | X-H torsion
[ 7974 7965 7964 7962 ] final  121.28 input  175.53 | X-H torsion
[ 8008 7997 7996 7995 ] final    8.08 input   59.86 | X-H torsion
[ 10167 10162 10161 10158 ] final  -11.64 input  -65.29 | X-H torsion
[ 10718 10713 10712 10709 ] final  -38.95 input   66.30 | X-H torsion
[ 10763 10752 10751 10750 ] final  -51.39 input  -60.55 | X-H torsion
[ 11005 11000 10999 10996 ] final   36.15 input  -57.11 | X-H torsion

> <Gold.Protein.ActiveResidues>
 VAL166  LYS551  ARG553  GLY616  TRP617  ASP618  TYR619  PRO620  LYS621  CYS622 
 ASP623  PHE694  ASN695  SER759  ASP760  ASP761  ALA762  ILE779  LEU786  VAL792 
 PHE793  MET794  SER795  GLU796  ALA797  LYS798  CYS799  TRP800  GLU811  SER814 

> <Gold.Protein.RotatedAtoms>
  152.2206  133.4981  159.5160 H   0  0  0  0  0  0  0  0  0  0  0  0  # atno 6907 bound_to 6896
  150.7012  134.1347  159.4092 H   0  0  0  0  0  0  0  0  0  0  0  0  # atno 6908 bound_to 6896
  151.9268  135.0274  160.0577 H   0  0  0  0  0  0  0  0  0  0  0  0  # atno 6909 bound_to 6896
  145.1211  139.3388  143.4713 H   0  0  0  0  0  0  0  0  0  0  0  0  # atno 7974 bound_to 7965
  154.7621  140.2786  155.6206 H   0  0  0  0  0  0  0  0  0  0  0  0  # atno 8008 bound_to 7997
  156.2917  140.2658  156.2329 H   0  0  0  0  0  0  0  0  0  0  0  0  # atno 8009 bound_to 7997
  155.0004  140.0373  157.2347 H   0  0  0  0  0  0  0  0  0  0  0  0  # atno 8010 bound_to 7997
  140.7143  143.5618  150.9187 H   0  0  0  0  0  0  0  0  0  0  0  0  # atno 10167 bound_to 10162
  156.2979  130.4236  149.8172 H   0  0  0  0  0  0  0  0  0  0  0  0  # atno 10718 bound_to 10713
  154.1258  135.6527  153.4912 H   0  0  0  0  0  0  0  0  0  0  0  0  # atno 10763 bound_to 10752
  153.0210  135.5281  154.7050 H   0  0  0  0  0  0  0  0  0  0  0  0  # atno 10764 bound_to 10752
  154.6271  135.2971  155.0230 H   0  0  0  0  0  0  0  0  0  0  0  0  # atno 10765 bound_to 10752
  140.2355  134.3477  155.7946 H   0  0  0  0  0  0  0  0  0  0  0  0  # atno 11005 bound_to 11000
  146.3521  140.1171  142.8601 LP  0  0  0  0  0  0  0  0  0  0  0  0  # atno 17320 bound_to 7965
  145.0739  140.9174  143.4865 LP  0  0  0  0  0  0  0  0  0  0  0  0  # atno 17321 bound_to 7965
  139.9344  143.6456  152.3069 LP  0  0  0  0  0  0  0  0  0  0  0  0  # atno 17342 bound_to 10162
  139.6918  144.7646  151.1426 LP  0  0  0  0  0  0  0  0  0  0  0  0  # atno 17343 bound_to 10162
  156.5561  130.8363  151.3314 LP  0  0  0  0  0  0  0  0  0  0  0  0  # atno 17370 bound_to 10713
  157.7360  130.9772  150.2114 LP  0  0  0  0  0  0  0  0  0  0  0  0  # atno 17371 bound_to 10713
  141.2214  133.7269  156.8801 LP  0  0  0  0  0  0  0  0  0  0  0  0  # atno 17394 bound_to 11000
  140.1706  134.9102  157.2829 LP  0  0  0  0  0  0  0  0  0  0  0  0  # atno 17395 bound_to 11000

$$$$
