AV-unprocessed.smi:1573|AV-procd|sdf|6333|dock6
  -GOLD-   22720 6543D 1   1.00000     0.00000
 Structure written by MMmdl.
 41 41  0  0  0  0  0  0  0  0  1 V2000
  145.7818  134.4276  151.8174 C   0  0  0  0  0  0  0  0  0  0  0  0
  146.2610  135.0448  153.1390 C   0  0  0  0  0  0  0  0  0  0  0  0
  146.8190  136.3764  152.9369 N   0  0  0  0  0  0  0  0  0  0  0  0
  146.3839  137.4921  153.5415 C   0  0  0  0  0  0  0  0  0  0  0  0
  145.4726  137.4980  154.3710 O   0  0  0  0  0  0  0  0  0  0  0  0
  147.0778  138.8025  153.1380 C   0  0  2  0  0  0  0  0  0  0  0  0
  146.8596  139.0286  151.6321 C   0  0  0  0  0  0  0  0  0  0  0  0
  148.5121  138.6638  153.3748 N   0  0  0  0  0  0  0  0  0  0  0  0
  149.2563  139.5041  154.1113 C   0  0  0  0  0  0  0  0  0  0  0  0
  148.8229  140.5507  154.5931 O   0  0  0  0  0  0  0  0  0  0  0  0
  150.7015  139.0826  154.3736 C   0  0  0  0  0  0  0  0  0  0  0  0
  151.0147  139.2809  155.8354 C   0  0  0  0  0  0  0  0  0  0  0  0
  151.4169  138.2876  156.7756 C   0  0  0  0  0  0  0  0  0  0  0  0
  151.6151  136.8172  156.5422 C   0  0  0  0  0  0  0  0  0  0  0  0
  151.6331  138.7894  157.9801 N   0  0  0  0  0  0  0  0  0  0  0  0
  151.3848  140.1083  157.8529 N   0  0  0  0  0  0  0  0  0  0  0  0
  151.5374  140.9735  159.0063 C   0  0  0  0  0  0  0  0  0  0  0  0
  151.0010  140.4387  156.5680 C   0  0  0  0  0  0  0  0  0  0  0  0
  150.6701  141.8418  156.1729 C   0  0  0  0  0  0  0  0  0  0  0  0
  145.4027  133.4183  151.9770 H   0  0  0  0  0  0  0  0  0  0  0  0
  146.5945  134.3675  151.0930 H   0  0  0  0  0  0  0  0  0  0  0  0
  144.9789  135.0145  151.3702 H   0  0  0  0  0  0  0  0  0  0  0  0
  145.4431  135.0833  153.8602 H   0  0  0  0  0  0  0  0  0  0  0  0
  147.0346  134.4153  153.5786 H   0  0  0  0  0  0  0  0  0  0  0  0
  147.5695  136.4614  152.2665 H   0  0  0  0  0  0  0  0  0  0  0  0
  146.6709  139.6466  153.6985 H   0  0  0  0  0  0  0  0  0  0  0  0
  145.7985  139.1193  151.3963 H   0  0  0  0  0  0  0  0  0  0  0  0
  147.2666  138.2148  151.0298 H   0  0  0  0  0  0  0  0  0  0  0  0
  147.3430  139.9497  151.3056 H   0  0  0  0  0  0  0  0  0  0  0  0
  148.9517  137.8262  153.0219 H   0  0  0  0  0  0  0  0  0  0  0  0
  150.8506  138.0451  154.0720 H   0  0  0  0  0  0  0  0  0  0  0  0
  151.3569  139.6790  153.7384 H   0  0  0  0  0  0  0  0  0  0  0  0
  152.3408  136.6450  155.7473 H   0  0  0  0  0  0  0  0  0  0  0  0
  150.6804  136.3406  156.2473 H   0  0  0  0  0  0  0  0  0  0  0  0
  151.9776  136.3094  157.4366 H   0  0  0  0  0  0  0  0  0  0  0  0
  150.5548  141.2381  159.3971 H   0  0  0  0  0  0  0  0  0  0  0  0
  152.0639  141.8837  158.7184 H   0  0  0  0  0  0  0  0  0  0  0  0
  152.1090  140.4729  159.7889 H   0  0  0  0  0  0  0  0  0  0  0  0
  150.2525  141.8824  155.1673 H   0  0  0  0  0  0  0  0  0  0  0  0
  151.5627  142.4670  156.1895 H   0  0  0  0  0  0  0  0  0  0  0  0
  149.9387  142.2763  156.8545 H   0  0  0  0  0  0  0  0  0  0  0  0
  1  2  1  0  0  0  0
  1 20  1  0  0  0  0
  1 21  1  0  0  0  0
  1 22  1  0  0  0  0
  2  3  1  0  0  0  0
  2 23  1  0  0  0  0
  2 24  1  0  0  0  0
  3  4  1  0  0  0  0
  3 25  1  0  0  0  0
  4  5  2  0  0  0  0
  4  6  1  0  0  0  0
  6  7  1  0  0  0  0
  6  8  1  0  0  0  0
  6 26  1  0  0  0  0
  7 27  1  0  0  0  0
  7 28  1  0  0  0  0
  7 29  1  0  0  0  0
  8  9  1  0  0  0  0
  8 30  1  0  0  0  0
  9 10  2  0  0  0  0
  9 11  1  0  0  0  0
 11 12  1  0  0  0  0
 11 31  1  0  0  0  0
 11 32  1  0  0  0  0
 12 18  2  0  0  0  0
 12 13  1  0  0  0  0
 13 14  1  0  0  0  0
 13 15  2  0  0  0  0
 14 33  1  0  0  0  0
 14 34  1  0  0  0  0
 14 35  1  0  0  0  0
 15 16  1  0  0  0  0
 16 17  1  0  0  0  0
 16 18  1  0  0  0  0
 17 36  1  0  0  0  0
 17 37  1  0  0  0  0
 17 38  1  0  0  0  0
 18 19  1  0  0  0  0
 19 39  1  0  0  0  0
 19 40  1  0  0  0  0
 19 41  1  0  0  0  0
M  END
> <s_m_source_file>
AV-unprocessed.smi

> <i_m_source_file_index>
1573

> <i_lp_mmshare_version>
43012

> <i_f3d_flags>
0

> <s_epik_input>
W0NIM11bQ0gyXVtOSF1DKD1PKVtDQEhdKFtDSDNdKVtOSF1DKD1PKVtDSDJdYzFjKFtDSDNdKW5uKFtDSDNdKWMxW0NIM10=

> <s_epik_cmdline>
J2VwaWtfcHl0aG9uJywgJy1waCcsICc3LjAnLCAnLXRuJywgJzgnLCAnLW1hJywgJzIwMCcsICctbWV0YWxfYmluZGluZycsICctaW1hZScsICc8aW5maWxlLm1hZT4nLCAnLW9tYWUnLCAnPG91dGZpbGUubWFlPic=

> <r_lp_tautomer_probability>
1

> <r_epik_Ionization_Penalty>
0.00278414

> <r_epik_Ionization_Penalty_Charging>
0

> <r_epik_Ionization_Penalty_Neutral>
0.00278414

> <r_epik_State_Penalty>
0.00194489

> <r_epik_Charging_Adjusted_Penalty>
0.00194489

> <i_epik_Tot_Q>
0

> <i_epik_Tot_abs_Q>
0

> <r_epik_Metal_State_Penalty>
-0

> <b_epik_Metal_Only>
0

> <s_lp_Force_Field>
OPLS_2005

> <r_lp_Energy>
-3.80626

> <b_lp_Chiralities_Consistent>
1

> <s_lp_Variant>
AV-unprocessed.smi:1573-1

> <Gold.Version>
5.8.1

> <Gold.Id.Protein>
6NUR|6NUR_protein|mol2

> <Gold.PLP.Fitness>
34.4307

> <Gold.PLP.PLP>
-28.8356

> <Gold.PLP.part.hbond>
-2.8794

> <Gold.PLP.part.metal>
0.0000

> <Gold.PLP.part.buried>
-1.6088

> <Gold.PLP.part.nonpolar>
-25.0165

> <Gold.PLP.part.repulsive>
0.2582

> <Gold.PLP.ligand.clash>
0.0000

> <Gold.PLP.ligand.torsion>
0.2218

> <Gold.PLP.Chemscore.Hbond>
2.0000

> <Gold.PLP.Chemscore.CHOScore>
0.0000

> <Gold.PLP.Chemscore.Metal>
0.0000

> <Gold.Chemscore.Hbonds>
donor molecule, donor type, donor heavy atom, donor atom, acceptor molecule, acceptor atom, score
      L1  H     3    25       P1  7948  0.80
      L1  H     8    30       P1  7948  1.00

> <Gold.PLP.Chemscore.Internal.Correction>
0.0387

> <Gold.Rescore>
     Score         DG    S(hbond)    S(metal)    S(lipo)     H(rot)  DE(clash)    DE(int)     intcor
     11.90     -14.95       1.97        0.00      66.40       1.91       0.13       2.93       ----

> <Gold.Chemscore.Fitness>
11.8980

> <Gold.Chemscore.DG>
-14.9542

> <Gold.Chemscore.ZeroCoef>
-5.4800

> <Gold.Chemscore.Hbond>
1.9745

> <Gold.Chemscore.Metal>
0.0000

> <Gold.Chemscore.Lipo>
66.4007

> <Gold.Chemscore.Internal_Hbond>
0.0000

> <Gold.Chemscore.DEClash>
0.1261

> <Gold.Chemscore.DEInternal>
2.9302

> <Gold.Chemscore.Rot>
1.9100

> <Gold.Chemscore.Internal.Correction>
   9.000000E+99

> <Gold.Chemscore.Hbonds>
donor molecule, donor type, donor heavy atom, donor atom, acceptor molecule, acceptor atom, score
      L1  H     3    25       P1  7948  0.76
      L1  H     8    30       P1  7948  0.95

> <Gold.Chemscore.Hbond.Weighted>
-6.5949

> <Gold.Chemscore.Metal.Weighted>
-0.0000

> <Gold.Chemscore.Lipo.Weighted>
-7.7689

> <Gold.Chemscore.Internal_Hbond.Weighted>
0.0000

> <Gold.Chemscore.DEClash.Weighted>
0.1261

> <Gold.Chemscore.DEInternal.Weighted>
2.9302

> <Gold.Chemscore.Rot.Weighted>
4.8896

> <Gold.Chemscore.Internal.Correction.Weighted>
   9.000000E+99

> <Gold.Protein.RotatedTorsions>
[ 6907 6896 6895 6894 ] final -144.20 input  -60.11 | X-H torsion
[ 7974 7965 7964 7962 ] final  158.02 input  175.53 | X-H torsion
[ 8008 7997 7996 7995 ] final  -58.80 input   59.86 | X-H torsion
[ 10167 10162 10161 10158 ] final  -10.41 input  -65.29 | X-H torsion
[ 10718 10713 10712 10709 ] final  -24.62 input   66.30 | X-H torsion
[ 10763 10752 10751 10750 ] final  140.47 input  -60.55 | X-H torsion
[ 11005 11000 10999 10996 ] final -105.83 input  -57.11 | X-H torsion

> <Gold.Protein.ActiveResidues>
 VAL166  LYS551  ARG553  GLY616  TRP617  ASP618  TYR619  PRO620  LYS621  CYS622 
 ASP623  PHE694  ASN695  SER759  ASP760  ASP761  ALA762  ILE779  LEU786  VAL792 
 PHE793  MET794  SER795  GLU796  ALA797  LYS798  CYS799  TRP800  GLU811  SER814 

> <Gold.Protein.RotatedAtoms>
  151.1108  133.5174  159.2605 H   0  0  0  0  0  0  0  0  0  0  0  0  # atno 6907 bound_to 6896
  151.1969  135.0426  159.8866 H   0  0  0  0  0  0  0  0  0  0  0  0  # atno 6908 bound_to 6896
  152.5450  134.0941  159.8343 H   0  0  0  0  0  0  0  0  0  0  0  0  # atno 6909 bound_to 6896
  144.7869  139.7421  143.6237 H   0  0  0  0  0  0  0  0  0  0  0  0  # atno 7974 bound_to 7965
  154.4324  140.1076  156.6014 H   0  0  0  0  0  0  0  0  0  0  0  0  # atno 8008 bound_to 7997
  155.5907  140.3492  155.4547 H   0  0  0  0  0  0  0  0  0  0  0  0  # atno 8009 bound_to 7997
  156.0249  140.1247  157.0309 H   0  0  0  0  0  0  0  0  0  0  0  0  # atno 8010 bound_to 7997
  140.7113  143.5751  150.9051 H   0  0  0  0  0  0  0  0  0  0  0  0  # atno 10167 bound_to 10162
  156.4753  130.4533  149.6844 H   0  0  0  0  0  0  0  0  0  0  0  0  # atno 10718 bound_to 10713
  153.9233  135.2998  155.3447 H   0  0  0  0  0  0  0  0  0  0  0  0  # atno 10763 bound_to 10752
  154.7564  135.4955  153.9386 H   0  0  0  0  0  0  0  0  0  0  0  0  # atno 10764 bound_to 10752
  153.1130  135.6764  153.9570 H   0  0  0  0  0  0  0  0  0  0  0  0  # atno 10765 bound_to 10752
  141.1034  133.8841  157.1781 H   0  0  0  0  0  0  0  0  0  0  0  0  # atno 11005 bound_to 11000
  146.2105  139.5458  142.9684 LP  0  0  0  0  0  0  0  0  0  0  0  0  # atno 17320 bound_to 7965
  145.5897  141.0371  143.2077 LP  0  0  0  0  0  0  0  0  0  0  0  0  # atno 17321 bound_to 7965
  139.9477  143.6309  152.3037 LP  0  0  0  0  0  0  0  0  0  0  0  0  # atno 17342 bound_to 10162
  139.6816  144.7655  151.1598 LP  0  0  0  0  0  0  0  0  0  0  0  0  # atno 17343 bound_to 10162
  156.3577  130.7465  151.2433 LP  0  0  0  0  0  0  0  0  0  0  0  0  # atno 17370 bound_to 10713
  157.7488  131.0359  150.4385 LP  0  0  0  0  0  0  0  0  0  0  0  0  # atno 17371 bound_to 10713
  139.9895  135.0070  156.9941 LP  0  0  0  0  0  0  0  0  0  0  0  0  # atno 17394 bound_to 11000
  140.4963  134.1142  155.7242 LP  0  0  0  0  0  0  0  0  0  0  0  0  # atno 17395 bound_to 11000

$$$$
