AV-unprocessed.smi:1853|AV-procd|sdf|7527|dock3
  -GOLD-   22720 9233D 1   1.00000     0.00000
 Structure written by MMmdl.
 42 44  0  0  0  0  0  0  0  0  1 V2000
  144.8592  143.9910  154.3216 C   0  0  0  0  0  0  0  0  0  0  0  0
  146.0738  143.1571  154.6736 C   0  0  0  0  0  0  0  0  0  0  0  0
  146.9033  142.6403  153.6588 C   0  0  0  0  0  0  0  0  0  0  0  0
  148.0322  141.8686  153.9944 C   0  0  0  0  0  0  0  0  0  0  0  0
  148.3520  141.6031  155.3419 C   0  0  0  0  0  0  0  0  0  0  0  0
  149.4757  140.8410  155.5795 O   0  0  0  0  0  0  0  0  0  0  0  0
  149.8870  140.6566  156.9263 C   0  0  0  0  0  0  0  0  0  0  0  0
  151.4107  140.8116  156.9992 C   0  0  0  0  0  0  0  0  0  0  0  0
  151.8361  141.3616  158.2771 N   0  0  0  0  0  0  0  0  0  0  0  0
  152.3726  140.7132  159.3432 C   0  0  0  0  0  0  0  0  0  0  0  0
  152.6114  139.2252  159.3457 C   0  0  0  0  0  0  0  0  0  0  0  0
  153.2979  138.8271  160.5721 N   0  0  0  0  0  0  0  0  0  0  0  0
  153.3978  137.5696  161.0264 C   0  0  0  0  0  0  0  0  0  0  0  0
  152.9226  136.5854  160.4623 O   0  0  0  0  0  0  0  0  0  0  0  0
  152.6933  141.4870  160.3840 N   0  0  0  0  0  0  0  0  0  0  0  0
  152.3063  142.7440  159.9647 C   0  0  0  0  0  0  0  0  0  0  0  0
  152.3730  143.9932  160.6228 C   0  0  0  0  0  0  0  0  0  0  0  0
  151.9094  145.1620  159.9840 C   0  0  0  0  0  0  0  0  0  0  0  0
  151.3735  145.0985  158.6815 C   0  0  0  0  0  0  0  0  0  0  0  0
  151.2988  143.8641  158.0083 C   0  0  0  0  0  0  0  0  0  0  0  0
  151.7635  142.7002  158.6501 C   0  0  0  0  0  0  0  0  0  0  0  0
  147.5133  142.1267  156.3582 C   0  0  0  0  0  0  0  0  0  0  0  0
  146.3833  142.8981  156.0231 C   0  0  0  0  0  0  0  0  0  0  0  0
  144.5882  143.8713  153.2722 H   0  0  0  0  0  0  0  0  0  0  0  0
  145.0619  145.0463  154.5053 H   0  0  0  0  0  0  0  0  0  0  0  0
  144.0031  143.6945  154.9280 H   0  0  0  0  0  0  0  0  0  0  0  0
  146.6787  142.8337  152.6201 H   0  0  0  0  0  0  0  0  0  0  0  0
  148.6616  141.4777  153.2083 H   0  0  0  0  0  0  0  0  0  0  0  0
  149.4095  141.3978  157.5695 H   0  0  0  0  0  0  0  0  0  0  0  0
  149.5971  139.6650  157.2740 H   0  0  0  0  0  0  0  0  0  0  0  0
  151.9104  139.8585  156.8271 H   0  0  0  0  0  0  0  0  0  0  0  0
  151.7520  141.4776  156.2061 H   0  0  0  0  0  0  0  0  0  0  0  0
  151.6815  138.6656  159.2493 H   0  0  0  0  0  0  0  0  0  0  0  0
  153.2330  138.9668  158.4885 H   0  0  0  0  0  0  0  0  0  0  0  0
  153.7179  139.5649  161.1186 H   0  0  0  0  0  0  0  0  0  0  0  0
  153.9602  137.5381  161.9723 H   0  0  0  0  0  0  0  0  0  0  0  0
  152.7807  144.0525  161.6211 H   0  0  0  0  0  0  0  0  0  0  0  0
  151.9647  146.1117  160.4959 H   0  0  0  0  0  0  0  0  0  0  0  0
  151.0198  145.9982  158.1993 H   0  0  0  0  0  0  0  0  0  0  0  0
  150.8881  143.8134  157.0109 H   0  0  0  0  0  0  0  0  0  0  0  0
  147.7143  141.9515  157.4043 H   0  0  0  0  0  0  0  0  0  0  0  0
  145.7538  143.2915  156.8079 H   0  0  0  0  0  0  0  0  0  0  0  0
  1  2  1  0  0  0  0
  1 24  1  0  0  0  0
  1 25  1  0  0  0  0
  1 26  1  0  0  0  0
  2 23  1  0  0  0  0
  2  3  2  0  0  0  0
  3  4  1  0  0  0  0
  3 27  1  0  0  0  0
  4  5  2  0  0  0  0
  4 28  1  0  0  0  0
  5  6  1  0  0  0  0
  5 22  1  0  0  0  0
  6  7  1  0  0  0  0
  7  8  1  0  0  0  0
  7 29  1  0  0  0  0
  7 30  1  0  0  0  0
  8  9  1  0  0  0  0
  8 31  1  0  0  0  0
  8 32  1  0  0  0  0
  9 21  1  0  0  0  0
  9 10  1  0  0  0  0
 10 11  1  0  0  0  0
 10 15  2  0  0  0  0
 11 12  1  0  0  0  0
 11 33  1  0  0  0  0
 11 34  1  0  0  0  0
 12 13  1  0  0  0  0
 12 35  1  0  0  0  0
 13 14  2  0  0  0  0
 13 36  1  0  0  0  0
 15 16  1  0  0  0  0
 16 21  2  0  0  0  0
 16 17  1  0  0  0  0
 17 18  2  0  0  0  0
 17 37  1  0  0  0  0
 18 19  1  0  0  0  0
 18 38  1  0  0  0  0
 19 20  2  0  0  0  0
 19 39  1  0  0  0  0
 20 21  1  0  0  0  0
 20 40  1  0  0  0  0
 22 23  2  0  0  0  0
 22 41  1  0  0  0  0
 23 42  1  0  0  0  0
M  END
> <s_m_source_file>
AV-unprocessed.smi

> <i_m_source_file_index>
1853

> <i_lp_mmshare_version>
43012

> <i_f3d_flags>
0

> <s_epik_input>
W0NIM11jMVtjSF1bY0hdYyhbY0hdW2NIXTEpT1tDSDJdW0NIMl1uKGMobjIpW0NIMl1bTkhdW0NIXT1PKWMoYzIzKVtjSF1bY0hdW2NIXVtjSF0z

> <s_epik_cmdline>
J2VwaWtfcHl0aG9uJywgJy1waCcsICc3LjAnLCAnLXRuJywgJzgnLCAnLW1hJywgJzIwMCcsICctbWV0YWxfYmluZGluZycsICctaW1hZScsICc8aW5maWxlLm1hZT4nLCAnLW9tYWUnLCAnPG91dGZpbGUubWFlPic=

> <r_lp_tautomer_probability>
1

> <r_epik_Ionization_Penalty>
0.0586177

> <r_epik_Ionization_Penalty_Charging>
0

> <r_epik_Ionization_Penalty_Neutral>
0.0586177

> <r_epik_State_Penalty>
0.0507031

> <r_epik_Charging_Adjusted_Penalty>
0.0507031

> <i_epik_Tot_Q>
0

> <i_epik_Tot_abs_Q>
0

> <r_epik_Metal_State_Penalty>
0.0461069

> <b_epik_Metal_Only>
0

> <s_lp_Force_Field>
OPLS_2005

> <r_lp_Energy>
12.744

> <b_lp_Chiralities_Consistent>
1

> <s_lp_Variant>
AV-unprocessed.smi:1853-1

> <Gold.Version>
5.8.1

> <Gold.Id.Protein>
6NUR|6NUR_protein|mol2

> <Gold.PLP.Fitness>
50.4417

> <Gold.PLP.PLP>
-49.0536

> <Gold.PLP.part.hbond>
-1.0000

> <Gold.PLP.part.metal>
0.0000

> <Gold.PLP.part.buried>
-8.0619

> <Gold.PLP.part.nonpolar>
-40.2356

> <Gold.PLP.part.repulsive>
0.1186

> <Gold.PLP.ligand.clash>
0.0000

> <Gold.PLP.ligand.torsion>
0.8980

> <Gold.PLP.Chemscore.Hbond>
1.0000

> <Gold.PLP.Chemscore.CHOScore>
0.0000

> <Gold.PLP.Chemscore.Metal>
0.0000

> <Gold.Chemscore.Hbonds>
donor molecule, donor type, donor heavy atom, donor atom, acceptor molecule, acceptor atom, score
      P1  H  6896  6908       L1    14  1.00

> <Gold.PLP.Chemscore.Internal.Correction>
0.1840

> <Gold.Rescore>
     Score         DG    S(hbond)    S(metal)    S(lipo)     H(rot)  DE(clash)    DE(int)     intcor
     16.19     -17.02       1.00        0.00     122.57       2.40       0.04       0.80       ----

> <Gold.Chemscore.Fitness>
16.1852

> <Gold.Chemscore.DG>
-17.0159

> <Gold.Chemscore.ZeroCoef>
-5.4800

> <Gold.Chemscore.Hbond>
0.9975

> <Gold.Chemscore.Metal>
0.0000

> <Gold.Chemscore.Lipo>
122.5659

> <Gold.Chemscore.Internal_Hbond>
0.0000

> <Gold.Chemscore.DEClash>
0.0354

> <Gold.Chemscore.DEInternal>
0.7953

> <Gold.Chemscore.Rot>
2.3969

> <Gold.Chemscore.Internal.Correction>
   9.000000E+99

> <Gold.Chemscore.Hbonds>
donor molecule, donor type, donor heavy atom, donor atom, acceptor molecule, acceptor atom, score
      P1  H  6896  6908       L1    14  1.00

> <Gold.Chemscore.Hbond.Weighted>
-3.3318

> <Gold.Chemscore.Metal.Weighted>
-0.0000

> <Gold.Chemscore.Lipo.Weighted>
-14.3402

> <Gold.Chemscore.Internal_Hbond.Weighted>
0.0000

> <Gold.Chemscore.DEClash.Weighted>
0.0354

> <Gold.Chemscore.DEInternal.Weighted>
0.7953

> <Gold.Chemscore.Rot.Weighted>
6.1361

> <Gold.Chemscore.Internal.Correction.Weighted>
   9.000000E+99

> <Gold.Protein.RotatedTorsions>
[ 6907 6896 6895 6894 ] final  -89.81 input  -60.11 | X-H torsion
[ 7974 7965 7964 7962 ] final   27.62 input  175.53 | X-H torsion
[ 8008 7997 7996 7995 ] final   86.29 input   59.86 | X-H torsion
[ 10167 10162 10161 10158 ] final  -82.94 input  -65.29 | X-H torsion
[ 10718 10713 10712 10709 ] final  -19.49 input   66.30 | X-H torsion
[ 10763 10752 10751 10750 ] final   83.02 input  -60.55 | X-H torsion
[ 11005 11000 10999 10996 ] final  -45.26 input  -57.11 | X-H torsion

> <Gold.Protein.ActiveResidues>
 VAL166  LYS551  ARG553  GLY616  TRP617  ASP618  TYR619  PRO620  LYS621  CYS622 
 ASP623  PHE694  ASN695  SER759  ASP760  ASP761  ALA762  ILE779  LEU786  VAL792 
 PHE793  MET794  SER795  GLU796  ALA797  LYS798  CYS799  TRP800  GLU811  SER814 

> <Gold.Protein.RotatedAtoms>
  150.6876  134.2529  159.4517 H   0  0  0  0  0  0  0  0  0  0  0  0  # atno 6907 bound_to 6896
  152.0465  134.9677  160.0583 H   0  0  0  0  0  0  0  0  0  0  0  0  # atno 6908 bound_to 6896
  152.1158  133.4291  159.4689 H   0  0  0  0  0  0  0  0  0  0  0  0  # atno 6909 bound_to 6896
  146.1774  139.7167  142.8924 H   0  0  0  0  0  0  0  0  0  0  0  0  # atno 7974 bound_to 7965
  155.9610  140.3393  155.6490 H   0  0  0  0  0  0  0  0  0  0  0  0  # atno 8008 bound_to 7997
  155.6799  140.0736  157.2507 H   0  0  0  0  0  0  0  0  0  0  0  0  # atno 8009 bound_to 7997
  154.4143  140.1676  156.1958 H   0  0  0  0  0  0  0  0  0  0  0  0  # atno 8010 bound_to 7997
  140.4273  143.2562  151.8808 H   0  0  0  0  0  0  0  0  0  0  0  0  # atno 10167 bound_to 10162
  156.5449  130.4687  149.6480 H   0  0  0  0  0  0  0  0  0  0  0  0  # atno 10718 bound_to 10713
  153.1254  135.4707  154.9263 H   0  0  0  0  0  0  0  0  0  0  0  0  # atno 10763 bound_to 10752
  154.7615  135.3133  154.8372 H   0  0  0  0  0  0  0  0  0  0  0  0  # atno 10764 bound_to 10752
  153.8926  135.6883  153.4813 H   0  0  0  0  0  0  0  0  0  0  0  0  # atno 10765 bound_to 10752
  141.0504  133.6745  156.2988 H   0  0  0  0  0  0  0  0  0  0  0  0  # atno 11005 bound_to 11000
  145.4172  141.0403  143.2984 LP  0  0  0  0  0  0  0  0  0  0  0  0  # atno 17320 bound_to 7965
  144.8259  139.5711  143.6966 LP  0  0  0  0  0  0  0  0  0  0  0  0  # atno 17321 bound_to 7965
  139.4784  144.5373  151.8579 LP  0  0  0  0  0  0  0  0  0  0  0  0  # atno 17342 bound_to 10162
  140.4467  144.1911  150.5894 LP  0  0  0  0  0  0  0  0  0  0  0  0  # atno 17343 bound_to 10162
  156.2937  130.7138  151.1993 LP  0  0  0  0  0  0  0  0  0  0  0  0  # atno 17370 bound_to 10713
  157.7398  131.0524  150.5206 LP  0  0  0  0  0  0  0  0  0  0  0  0  # atno 17371 bound_to 10713
  140.6066  134.5500  157.5527 LP  0  0  0  0  0  0  0  0  0  0  0  0  # atno 17394 bound_to 11000
  139.9346  134.7900  156.0839 LP  0  0  0  0  0  0  0  0  0  0  0  0  # atno 17395 bound_to 11000

$$$$
