AV-unprocessed.smi:1406|AV-procd|sdf|5719|dock1
  -GOLD-   22720 5353D 1   1.00000     0.00000
 Structure written by MMmdl.
 41 43  0  0  0  0  0  0  0  0  2 V2000
  147.9019  136.4389  156.8828 C   0  0  0  0  0  0  0  0  0  0  0  0
  148.4146  136.2179  155.4452 C   0  0  2  0  0  0  0  0  0  0  0  0
  148.2808  134.7571  154.9884 C   0  0  0  0  0  0  0  0  0  0  0  0
  147.8091  133.9031  155.7399 O   0  0  0  0  0  0  0  0  0  0  0  0
  148.7107  134.4789  153.7478 N   0  0  0  0  0  0  0  0  0  0  0  0
  148.7128  133.1477  153.1511 C   0  0  1  0  0  0  0  0  0  0  0  0
  149.1479  132.0237  154.1116 C   0  0  0  0  0  0  0  0  0  0  0  0
  148.2615  130.8146  153.7531 C   0  0  0  0  0  0  0  0  0  0  0  0
  147.4503  131.2525  152.6006 N   0  3  1  0  0  0  0  0  0  0  0  0
  146.1574  130.5675  152.3848 C   0  0  0  0  0  0  0  0  0  0  0  0
  145.5068  131.1063  151.0945 C   0  0  0  0  0  0  0  0  0  0  0  0
  145.3974  132.6454  151.1058 C   0  0  0  0  0  0  0  0  0  0  0  0
  146.7554  133.2991  151.4282 C   0  0  0  0  0  0  0  0  0  0  0  0
  147.3093  132.7101  152.7356 C   0  0  2  0  0  0  0  0  0  0  0  0
  149.7897  136.6700  155.2743 N   0  0  0  0  0  0  0  0  0  0  0  0
  150.9117  136.2423  155.8576 C   0  0  0  0  0  0  0  0  0  0  0  0
  151.9949  136.9196  155.5046 N   0  0  0  0  0  0  0  0  0  0  0  0
  151.4308  137.8207  154.6469 C   0  0  0  0  0  0  0  0  0  0  0  0
  150.1121  137.7230  154.4821 N   0  0  0  0  0  0  0  0  0  0  0  0
  146.8538  136.1520  156.9742 H   0  0  0  0  0  0  0  0  0  0  0  0
  147.9777  137.4897  157.1642 H   0  0  0  0  0  0  0  0  0  0  0  0
  148.4669  135.8610  157.6151 H   0  0  0  0  0  0  0  0  0  0  0  0
  147.7938  136.8273  154.7859 H   0  0  0  0  0  0  0  0  0  0  0  0
  149.0850  135.2348  153.1925 H   0  0  0  0  0  0  0  0  0  0  0  0
  149.3621  133.1420  152.2729 H   0  0  0  0  0  0  0  0  0  0  0  0
  150.2090  131.7988  153.9980 H   0  0  0  0  0  0  0  0  0  0  0  0
  148.9825  132.3048  155.1527 H   0  0  0  0  0  0  0  0  0  0  0  0
  148.8473  129.9312  153.4971 H   0  0  0  0  0  0  0  0  0  0  0  0
  147.6156  130.5616  154.5954 H   0  0  0  0  0  0  0  0  0  0  0  0
  146.3215  129.4924  152.3039 H   0  0  0  0  0  0  0  0  0  0  0  0
  145.5017  130.7311  153.2414 H   0  0  0  0  0  0  0  0  0  0  0  0
  146.1028  130.7956  150.2354 H   0  0  0  0  0  0  0  0  0  0  0  0
  144.5200  130.6621  150.9600 H   0  0  0  0  0  0  0  0  0  0  0  0
  145.0272  133.0022  150.1444 H   0  0  0  0  0  0  0  0  0  0  0  0
  144.6623  132.9499  151.8521 H   0  0  0  0  0  0  0  0  0  0  0  0
  147.4552  133.1244  150.6098 H   0  0  0  0  0  0  0  0  0  0  0  0
  146.6401  134.3798  151.5175 H   0  0  0  0  0  0  0  0  0  0  0  0
  146.6126  132.9174  153.5514 H   0  0  0  0  0  0  0  0  0  0  0  0
  150.9361  135.4218  156.5596 H   0  0  0  0  0  0  0  0  0  0  0  0
  152.0083  138.5758  154.1341 H   0  0  0  0  0  0  0  0  0  0  0  0
  148.0146  131.0964  151.7776 H   0  0  0  0  0  0  0  0  0  0  0  0
  1  2  1  0  0  0  0
  1 20  1  0  0  0  0
  1 21  1  0  0  0  0
  1 22  1  0  0  0  0
  2  3  1  0  0  0  0
  2 15  1  0  0  0  0
  2 23  1  0  0  0  0
  3  4  2  0  0  0  0
  3  5  1  0  0  0  0
  5  6  1  0  0  0  0
  5 24  1  0  0  0  0
  6 14  1  0  0  0  0
  6  7  1  0  0  0  0
  6 25  1  0  0  0  0
  7  8  1  0  0  0  0
  7 26  1  0  0  0  0
  7 27  1  0  0  0  0
  8  9  1  0  0  0  0
  8 28  1  0  0  0  0
  8 29  1  0  0  0  0
  9 14  1  0  0  0  0
  9 10  1  0  0  0  0
  9 41  1  0  0  0  0
 10 11  1  0  0  0  0
 10 30  1  0  0  0  0
 10 31  1  0  0  0  0
 11 12  1  0  0  0  0
 11 32  1  0  0  0  0
 11 33  1  0  0  0  0
 12 13  1  0  0  0  0
 12 34  1  0  0  0  0
 12 35  1  0  0  0  0
 13 14  1  0  0  0  0
 13 36  1  0  0  0  0
 13 37  1  0  0  0  0
 14 38  1  0  0  0  0
 15 19  1  0  0  0  0
 15 16  1  0  0  0  0
 16 17  2  0  0  0  0
 16 39  1  0  0  0  0
 17 18  1  0  0  0  0
 18 19  2  0  0  0  0
 18 40  1  0  0  0  0
M  CHG  1   9   1
M  END
> <s_m_source_file>
AV-unprocessed.smi

> <i_m_source_file_index>
1406

> <i_lp_mmshare_version>
43012

> <i_f3d_flags>
0

> <s_epik_input>
bjFbY0hdbltjSF1uMVtDQEhdKFtDSDNdKUMoPU8pW05IXVtDQEhdKFtDSDJdW0NIMl0yKVtDQEBIXShOMjMpW0NIMl1bQ0gyXVtDSDJdW0NIMl0z

> <s_epik_cmdline>
J2VwaWtfcHl0aG9uJywgJy1waCcsICc3LjAnLCAnLXRuJywgJzgnLCAnLW1hJywgJzIwMCcsICctbWV0YWxfYmluZGluZycsICctaW1hZScsICc8aW5maWxlLm1hZT4nLCAnLW9tYWUnLCAnPG91dGZpbGUubWFlPic=

> <r_lp_tautomer_probability>
1

> <r_epik_Ionization_Penalty>
0.00197066

> <r_epik_Ionization_Penalty_Charging>
0.00196223

> <r_epik_Ionization_Penalty_Neutral>
8.43107e-06

> <r_epik_State_Penalty>
0.00133866

> <r_epik_Charging_Adjusted_Penalty>
0.00330089

> <i_epik_Tot_Q>
1

> <i_epik_Tot_abs_Q>
1

> <r_epik_Metal_State_Penalty>
-0

> <b_epik_Metal_Only>
0

> <s_lp_Force_Field>
OPLS_2005

> <r_lp_Energy>
39.7149

> <b_lp_Chiralities_Consistent>
1

> <s_lp_Variant>
AV-unprocessed.smi:1406-11

> <Gold.Version>
5.8.1

> <Gold.Id.Protein>
6NUR|6NUR_protein|mol2

> <Gold.PLP.Fitness>
38.4345

> <Gold.PLP.PLP>
-29.9579

> <Gold.PLP.part.hbond>
-3.0000

> <Gold.PLP.part.metal>
0.0000

> <Gold.PLP.part.buried>
-4.2163

> <Gold.PLP.part.nonpolar>
-23.4581

> <Gold.PLP.part.repulsive>
0.2837

> <Gold.PLP.ligand.clash>
0.0000

> <Gold.PLP.ligand.torsion>
0.3000

> <Gold.PLP.Chemscore.Hbond>
2.9920

> <Gold.PLP.Chemscore.CHOScore>
0.0000

> <Gold.PLP.Chemscore.Metal>
0.0000

> <Gold.Chemscore.Hbonds>
donor molecule, donor type, donor heavy atom, donor atom, acceptor molecule, acceptor atom, score
      L1  H     5    24       P1  7948  0.99
      L1  H     9    41       P1 10747  1.00
      P1  H 10752 10765       L1    17  1.00

> <Gold.PLP.Chemscore.Internal.Correction>
0.1007

> <Gold.Rescore>
     Score         DG    S(hbond)    S(metal)    S(lipo)     H(rot)  DE(clash)    DE(int)     intcor
     14.67     -16.23       2.64        0.00      57.90       1.89       0.05       1.51       ----

> <Gold.Chemscore.Fitness>
14.6653

> <Gold.Chemscore.DG>
-16.2258

> <Gold.Chemscore.ZeroCoef>
-5.4800

> <Gold.Chemscore.Hbond>
2.6351

> <Gold.Chemscore.Metal>
0.0000

> <Gold.Chemscore.Lipo>
57.8990

> <Gold.Chemscore.Internal_Hbond>
0.0000

> <Gold.Chemscore.DEClash>
0.0504

> <Gold.Chemscore.DEInternal>
1.5101

> <Gold.Chemscore.Rot>
1.8865

> <Gold.Chemscore.Internal.Correction>
   9.000000E+99

> <Gold.Chemscore.Hbonds>
donor molecule, donor type, donor heavy atom, donor atom, acceptor molecule, acceptor atom, score
      L1  H     5    24       P1  7948  0.24
      L1  H     9    41       P1 10747  1.00
      P1  H 10752 10765       L1    17  0.23

> <Gold.Chemscore.Hbond.Weighted>
-8.8012

> <Gold.Chemscore.Metal.Weighted>
-0.0000

> <Gold.Chemscore.Lipo.Weighted>
-6.7742

> <Gold.Chemscore.Internal_Hbond.Weighted>
0.0000

> <Gold.Chemscore.DEClash.Weighted>
0.0504

> <Gold.Chemscore.DEInternal.Weighted>
1.5101

> <Gold.Chemscore.Rot.Weighted>
4.8295

> <Gold.Chemscore.Internal.Correction.Weighted>
   9.000000E+99

> <Gold.Protein.RotatedTorsions>
[ 6907 6896 6895 6894 ] final    4.98 input  -60.11 | X-H torsion
[ 7974 7965 7964 7962 ] final  -16.43 input  175.53 | X-H torsion
[ 8008 7997 7996 7995 ] final  142.01 input   59.86 | X-H torsion
[ 10167 10162 10161 10158 ] final  -50.60 input  -65.29 | X-H torsion
[ 10718 10713 10712 10709 ] final   77.01 input   66.30 | X-H torsion
[ 10763 10752 10751 10750 ] final -170.20 input  -60.55 | X-H torsion
[ 11005 11000 10999 10996 ] final   71.59 input  -57.11 | X-H torsion

> <Gold.Protein.ActiveResidues>
 VAL166  LYS551  ARG553  GLY616  TRP617  ASP618  TYR619  PRO620  LYS621  CYS622 
 ASP623  PHE694  ASN695  SER759  ASP760  ASP761  ALA762  ILE779  LEU786  VAL792 
 PHE793  MET794  SER795  GLU796  ALA797  LYS798  CYS799  TRP800  GLU811  SER814 

> <Gold.Protein.RotatedAtoms>
  151.6501  135.1002  160.0158 H   0  0  0  0  0  0  0  0  0  0  0  0  # atno 6907 bound_to 6896
  152.4006  133.6807  159.6321 H   0  0  0  0  0  0  0  0  0  0  0  0  # atno 6908 bound_to 6896
  150.7906  133.8715  159.3301 H   0  0  0  0  0  0  0  0  0  0  0  0  # atno 6909 bound_to 6896
  146.1988  140.3635  142.8431 H   0  0  0  0  0  0  0  0  0  0  0  0  # atno 7974 bound_to 7965
  156.2956  140.2300  156.4659 H   0  0  0  0  0  0  0  0  0  0  0  0  # atno 8008 bound_to 7997
  154.7978  140.0450  157.1270 H   0  0  0  0  0  0  0  0  0  0  0  0  # atno 8009 bound_to 7997
  154.9569  140.3049  155.5052 H   0  0  0  0  0  0  0  0  0  0  0  0  # atno 8010 bound_to 7997
  140.6629  143.2651  151.4383 H   0  0  0  0  0  0  0  0  0  0  0  0  # atno 10167 bound_to 10162
  157.6695  130.9801  150.1580 H   0  0  0  0  0  0  0  0  0  0  0  0  # atno 10718 bound_to 10713
  154.6441  135.2902  155.0067 H   0  0  0  0  0  0  0  0  0  0  0  0  # atno 10763 bound_to 10752
  154.1183  135.6552  153.4902 H   0  0  0  0  0  0  0  0  0  0  0  0  # atno 10764 bound_to 10752
  153.0342  135.5281  154.7321 H   0  0  0  0  0  0  0  0  0  0  0  0  # atno 10765 bound_to 10752
  139.9535  134.7185  156.0807 H   0  0  0  0  0  0  0  0  0  0  0  0  # atno 11005 bound_to 11000
  144.8637  140.7176  143.6091 LP  0  0  0  0  0  0  0  0  0  0  0  0  # atno 17320 bound_to 7965
  145.3555  139.1695  143.4411 LP  0  0  0  0  0  0  0  0  0  0  0  0  # atno 17321 bound_to 7965
  139.5869  144.1585  152.2040 LP  0  0  0  0  0  0  0  0  0  0  0  0  # atno 17342 bound_to 10162
  140.0927  144.5607  150.7043 LP  0  0  0  0  0  0  0  0  0  0  0  0  # atno 17343 bound_to 10162
  156.2363  130.3686  149.8387 LP  0  0  0  0  0  0  0  0  0  0  0  0  # atno 17370 bound_to 10713
  156.6200  130.8622  151.3473 LP  0  0  0  0  0  0  0  0  0  0  0  0  # atno 17371 bound_to 10713
  141.1202  133.6615  156.3197 LP  0  0  0  0  0  0  0  0  0  0  0  0  # atno 17394 bound_to 11000
  140.5663  134.5884  157.5446 LP  0  0  0  0  0  0  0  0  0  0  0  0  # atno 17395 bound_to 11000

$$$$
