AV-unprocessed.smi:2166|AV-procd|sdf|8814|dock9
  -GOLD-   2272012 03D 1   1.00000     0.00000
 Structure written by MMmdl.
 38 39  0  0  0  0  0  0  0  0  1 V2000
  154.8313  136.6520  164.1610 C   0  0  0  0  0  0  0  0  0  0  0  0
  154.3582  135.1092  163.3319 S   0  0  0  0  0  0  0  0  0  0  0  0
  154.9349  135.4321  161.6380 C   0  0  2  0  0  0  0  0  0  0  0  0
  156.4603  135.6222  161.6222 C   0  0  0  0  0  0  0  0  0  0  0  0
  154.2182  136.6333  161.0076 C   0  0  0  0  0  0  0  0  0  0  0  0
  153.3230  136.4482  160.1823 O   0  0  0  0  0  0  0  0  0  0  0  0
  154.6443  137.8448  161.4130 N   0  0  0  0  0  0  0  0  0  0  0  0
  154.1919  139.1245  160.9970 C   0  0  0  0  0  0  0  0  0  0  0  0
  154.6602  140.2044  161.7775 C   0  0  0  0  0  0  0  0  0  0  0  0
  154.2758  141.5175  161.4460 C   0  0  0  0  0  0  0  0  0  0  0  0
  153.4301  141.7237  160.3395 C   0  0  0  0  0  0  0  0  0  0  0  0
  153.0406  143.0254  159.9935 N   0  0  0  0  0  0  0  0  0  0  0  0
  152.3614  143.1066  158.7063 C   0  0  0  0  0  0  0  0  0  0  0  0
  152.0771  144.5772  158.3527 C   0  0  0  0  0  0  0  0  0  0  0  0
  151.3265  145.1844  159.4008 O   0  0  0  0  0  0  0  0  0  0  0  0
  152.0288  145.1665  160.6406 C   0  0  0  0  0  0  0  0  0  0  0  0
  152.3118  143.7110  161.0531 C   0  0  0  0  0  0  0  0  0  0  0  0
  153.0061  140.5862  159.6172 C   0  0  0  0  0  0  0  0  0  0  0  0
  153.3742  139.3270  159.9346 N   0  0  0  0  0  0  0  0  0  0  0  0
  154.5024  136.6332  165.1999 H   0  0  0  0  0  0  0  0  0  0  0  0
  154.3700  137.5079  163.6686 H   0  0  0  0  0  0  0  0  0  0  0  0
  155.9133  136.7821  164.1486 H   0  0  0  0  0  0  0  0  0  0  0  0
  154.7113  134.5418  161.0480 H   0  0  0  0  0  0  0  0  0  0  0  0
  156.8248  135.8249  160.6144 H   0  0  0  0  0  0  0  0  0  0  0  0
  156.9667  134.7246  161.9780 H   0  0  0  0  0  0  0  0  0  0  0  0
  156.7701  136.4496  162.2621 H   0  0  0  0  0  0  0  0  0  0  0  0
  155.3893  137.8480  162.0940 H   0  0  0  0  0  0  0  0  0  0  0  0
  155.3110  140.0338  162.6229 H   0  0  0  0  0  0  0  0  0  0  0  0
  154.6286  142.3526  162.0334 H   0  0  0  0  0  0  0  0  0  0  0  0
  152.9794  142.6488  157.9330 H   0  0  0  0  0  0  0  0  0  0  0  0
  151.4242  142.5498  158.7442 H   0  0  0  0  0  0  0  0  0  0  0  0
  153.0066  145.1258  158.1921 H   0  0  0  0  0  0  0  0  0  0  0  0
  151.5072  144.6377  157.4255 H   0  0  0  0  0  0  0  0  0  0  0  0
  152.9570  145.7335  160.5527 H   0  0  0  0  0  0  0  0  0  0  0  0
  151.4236  145.6620  161.3998 H   0  0  0  0  0  0  0  0  0  0  0  0
  151.3716  143.1945  161.2512 H   0  0  0  0  0  0  0  0  0  0  0  0
  152.8934  143.6903  161.9756 H   0  0  0  0  0  0  0  0  0  0  0  0
  152.3547  140.6840  158.7612 H   0  0  0  0  0  0  0  0  0  0  0  0
  1  2  1  0  0  0  0
  1 20  1  0  0  0  0
  1 21  1  0  0  0  0
  1 22  1  0  0  0  0
  2  3  1  0  0  0  0
  3  4  1  0  0  0  0
  3  5  1  0  0  0  0
  3 23  1  0  0  0  0
  4 24  1  0  0  0  0
  4 25  1  0  0  0  0
  4 26  1  0  0  0  0
  5  6  2  0  0  0  0
  5  7  1  0  0  0  0
  7  8  1  0  0  0  0
  7 27  1  0  0  0  0
  8 19  1  0  0  0  0
  8  9  2  0  0  0  0
  9 10  1  0  0  0  0
  9 28  1  0  0  0  0
 10 11  2  0  0  0  0
 10 29  1  0  0  0  0
 11 12  1  0  0  0  0
 11 18  1  0  0  0  0
 12 17  1  0  0  0  0
 12 13  1  0  0  0  0
 13 14  1  0  0  0  0
 13 30  1  0  0  0  0
 13 31  1  0  0  0  0
 14 15  1  0  0  0  0
 14 32  1  0  0  0  0
 14 33  1  0  0  0  0
 15 16  1  0  0  0  0
 16 17  1  0  0  0  0
 16 34  1  0  0  0  0
 16 35  1  0  0  0  0
 17 36  1  0  0  0  0
 17 37  1  0  0  0  0
 18 19  2  0  0  0  0
 18 38  1  0  0  0  0
M  END
> <s_m_source_file>
AV-unprocessed.smi

> <i_m_source_file_index>
2166

> <i_lp_mmshare_version>
43012

> <i_f3d_flags>
0

> <s_epik_input>
W0NIM11TW0NASF0oW0NIM10pQyg9TylbTkhdYzFbY0hdW2NIXWMoW2NIXW4xKU4yW0NIMl1bQ0gyXU9bQ0gyXVtDSDJdMg==

> <s_epik_cmdline>
J2VwaWtfcHl0aG9uJywgJy1waCcsICc3LjAnLCAnLXRuJywgJzgnLCAnLW1hJywgJzIwMCcsICctbWV0YWxfYmluZGluZycsICctaW1hZScsICc8aW5maWxlLm1hZT4nLCAnLW9tYWUnLCAnPG91dGZpbGUubWFlPic=

> <r_lp_tautomer_probability>
1

> <r_epik_Ionization_Penalty>
0.0038652

> <r_epik_Ionization_Penalty_Charging>
0

> <r_epik_Ionization_Penalty_Neutral>
0.0038652

> <r_epik_State_Penalty>
0.00681294

> <r_epik_Charging_Adjusted_Penalty>
0.00681294

> <i_epik_Tot_Q>
0

> <i_epik_Tot_abs_Q>
0

> <r_epik_Metal_State_Penalty>
-0

> <b_epik_Metal_Only>
0

> <s_lp_Force_Field>
OPLS_2005

> <r_lp_Energy>
27.7309

> <b_lp_Chiralities_Consistent>
1

> <s_lp_Variant>
AV-unprocessed.smi:2166-1

> <Gold.Version>
5.8.1

> <Gold.Id.Protein>
6NUR|6NUR_protein|mol2

> <Gold.PLP.Fitness>
42.1458

> <Gold.PLP.PLP>
-40.0401

> <Gold.PLP.part.hbond>
-0.9924

> <Gold.PLP.part.metal>
0.0000

> <Gold.PLP.part.buried>
-4.8527

> <Gold.PLP.part.nonpolar>
-33.9650

> <Gold.PLP.part.repulsive>
0.1142

> <Gold.PLP.ligand.clash>
0.0000

> <Gold.PLP.ligand.torsion>
0.5127

> <Gold.PLP.Chemscore.Hbond>
1.0000

> <Gold.PLP.Chemscore.CHOScore>
0.0000

> <Gold.PLP.Chemscore.Metal>
0.0000

> <Gold.Chemscore.Hbonds>
donor molecule, donor type, donor heavy atom, donor atom, acceptor molecule, acceptor atom, score
      P1  H  6896  6907       L1     6  1.00

> <Gold.PLP.Chemscore.Internal.Correction>
0.1311

> <Gold.Rescore>
     Score         DG    S(hbond)    S(metal)    S(lipo)     H(rot)  DE(clash)    DE(int)     intcor
     15.91     -17.84       1.00        0.00     105.80       1.31       0.05       1.89       ----

> <Gold.Chemscore.Fitness>
15.9116

> <Gold.Chemscore.DG>
-17.8441

> <Gold.Chemscore.ZeroCoef>
-5.4800

> <Gold.Chemscore.Hbond>
1.0000

> <Gold.Chemscore.Metal>
0.0000

> <Gold.Chemscore.Lipo>
105.8038

> <Gold.Chemscore.Internal_Hbond>
0.0000

> <Gold.Chemscore.DEClash>
0.0458

> <Gold.Chemscore.DEInternal>
1.8867

> <Gold.Chemscore.Rot>
1.3105

> <Gold.Chemscore.Internal.Correction>
   9.000000E+99

> <Gold.Chemscore.Hbonds>
donor molecule, donor type, donor heavy atom, donor atom, acceptor molecule, acceptor atom, score
      P1  H  6896  6907       L1     6  1.00

> <Gold.Chemscore.Hbond.Weighted>
-3.3400

> <Gold.Chemscore.Metal.Weighted>
-0.0000

> <Gold.Chemscore.Lipo.Weighted>
-12.3790

> <Gold.Chemscore.Internal_Hbond.Weighted>
0.0000

> <Gold.Chemscore.DEClash.Weighted>
0.0458

> <Gold.Chemscore.DEInternal.Weighted>
1.8867

> <Gold.Chemscore.Rot.Weighted>
3.3549

> <Gold.Chemscore.Internal.Correction.Weighted>
   9.000000E+99

> <Gold.Protein.RotatedTorsions>
[ 6907 6896 6895 6894 ] final   42.21 input  -60.11 | X-H torsion
[ 7974 7965 7964 7962 ] final -153.27 input  175.53 | X-H torsion
[ 8008 7997 7996 7995 ] final  -21.70 input   59.86 | X-H torsion
[ 10167 10162 10161 10158 ] final  -20.02 input  -65.29 | X-H torsion
[ 10718 10713 10712 10709 ] final  145.14 input   66.30 | X-H torsion
[ 10763 10752 10751 10750 ] final  122.41 input  -60.55 | X-H torsion
[ 11005 11000 10999 10996 ] final    8.84 input  -57.11 | X-H torsion

> <Gold.Protein.ActiveResidues>
 VAL166  LYS551  ARG553  GLY616  TRP617  ASP618  TYR619  PRO620  LYS621  CYS622 
 ASP623  PHE694  ASN695  SER759  ASP760  ASP761  ALA762  ILE779  LEU786  VAL792 
 PHE793  MET794  SER795  GLU796  ALA797  LYS798  CYS799  TRP800  GLU811  SER814 

> <Gold.Protein.RotatedAtoms>
  152.2050  134.8554  160.0503 H   0  0  0  0  0  0  0  0  0  0  0  0  # atno 6907 bound_to 6896
  151.9393  133.3628  159.3967 H   0  0  0  0  0  0  0  0  0  0  0  0  # atno 6908 bound_to 6896
  150.6963  134.4380  159.5323 H   0  0  0  0  0  0  0  0  0  0  0  0  # atno 6909 bound_to 6896
  144.7749  140.4548  143.5880 H   0  0  0  0  0  0  0  0  0  0  0  0  # atno 7974 bound_to 7965
  154.4689  140.2028  156.0045 H   0  0  0  0  0  0  0  0  0  0  0  0  # atno 8008 bound_to 7997
  156.0977  140.3248  155.7870 H   0  0  0  0  0  0  0  0  0  0  0  0  # atno 8009 bound_to 7997
  155.4851  140.0541  157.2952 H   0  0  0  0  0  0  0  0  0  0  0  0  # atno 8010 bound_to 7997
  140.7273  143.4762  151.0179 H   0  0  0  0  0  0  0  0  0  0  0  0  # atno 10167 bound_to 10162
  157.3488  131.0947  151.1018 H   0  0  0  0  0  0  0  0  0  0  0  0  # atno 10718 bound_to 10713
  153.6294  135.3399  155.3037 H   0  0  0  0  0  0  0  0  0  0  0  0  # atno 10763 bound_to 10752
  154.8583  135.4292  154.2122 H   0  0  0  0  0  0  0  0  0  0  0  0  # atno 10764 bound_to 10752
  153.3014  135.7025  153.7273 H   0  0  0  0  0  0  0  0  0  0  0  0  # atno 10765 bound_to 10752
  140.5325  134.0453  155.7878 H   0  0  0  0  0  0  0  0  0  0  0  0  # atno 11005 bound_to 11000
  145.6214  139.1524  143.3020 LP  0  0  0  0  0  0  0  0  0  0  0  0  # atno 17320 bound_to 7965
  146.1922  140.6324  142.9140 LP  0  0  0  0  0  0  0  0  0  0  0  0  # atno 17321 bound_to 7965
  139.8458  143.7504  152.3179 LP  0  0  0  0  0  0  0  0  0  0  0  0  # atno 17342 bound_to 10162
  139.7668  144.7489  151.0282 LP  0  0  0  0  0  0  0  0  0  0  0  0  # atno 17343 bound_to 10162
  157.2202  130.6478  149.5808 LP  0  0  0  0  0  0  0  0  0  0  0  0  # atno 17370 bound_to 10713
  155.9718  130.4631  150.6171 LP  0  0  0  0  0  0  0  0  0  0  0  0  # atno 17371 bound_to 10713
  141.1273  133.9361  157.2608 LP  0  0  0  0  0  0  0  0  0  0  0  0  # atno 17394 bound_to 11000
  139.9547  135.0168  156.9093 LP  0  0  0  0  0  0  0  0  0  0  0  0  # atno 17395 bound_to 11000

$$$$
