AV-unprocessed.smi:598|AV-procd|sdf|3028|dock7
  -GOLD-   2262023543D 1   1.00000     0.00000
 Structure written by MMmdl.
 43 44  0  0  0  0  0  0  0  0  3 V2000
  145.6810  143.4915  153.4399 C   0  0  0  0  0  0  0  0  0  0  0  0
  146.0238  143.3218  154.9311 C   0  0  1  0  0  0  0  0  0  0  0  0
  144.7628  143.5689  155.7850 C   0  0  0  0  0  0  0  0  0  0  0  0
  145.0415  143.4249  157.2872 C   0  0  0  0  0  0  0  0  0  0  0  0
  145.6443  142.0487  157.6054 C   0  0  0  0  0  0  0  0  0  0  0  0
  146.9139  141.7729  156.7788 C   0  0  2  0  0  0  0  0  0  0  0  0
  147.9998  142.6407  157.2416 N   0  0  0  0  0  0  0  0  0  0  0  0
  148.3505  142.8634  158.5179 C   0  0  0  0  0  0  0  0  0  0  0  0
  147.7963  142.3246  159.4771 O   0  0  0  0  0  0  0  0  0  0  0  0
  149.5193  143.8381  158.7231 C   0  0  0  0  0  0  0  0  0  0  0  0
  150.7807  143.1780  159.1014 N   0  0  0  0  0  0  0  0  0  0  0  0
  151.0883  141.9677  158.4491 C   0  0  0  0  0  0  0  0  0  0  0  0
  152.2126  141.2751  158.7176 C   0  0  0  0  0  0  0  0  0  0  0  0
  152.5112  140.0328  158.0394 N   0  3  0  0  0  0  0  0  0  0  0  0
  153.4551  139.3574  158.4368 O   0  0  0  0  0  0  0  0  0  0  0  0
  151.8152  139.6919  157.0874 O   0  5  0  0  0  0  0  0  0  0  0  0
  153.1163  141.8165  159.7142 C   0  0  0  0  0  0  0  0  0  0  0  0
  152.8261  142.9718  160.3442 C   0  0  0  0  0  0  0  0  0  0  0  0
  151.6006  143.7226  160.0522 C   0  0  0  0  0  0  0  0  0  0  0  0
  151.3278  144.7764  160.6273 O   0  0  0  0  0  0  0  0  0  0  0  0
  146.6436  141.9342  155.2579 C   0  0  2  0  0  0  0  0  0  0  0  0
  147.8988  141.6186  154.4194 C   0  0  0  0  0  0  0  0  0  0  0  0
  145.0035  142.7089  153.0968 H   0  0  0  0  0  0  0  0  0  0  0  0
  146.5723  143.4636  152.8137 H   0  0  0  0  0  0  0  0  0  0  0  0
  145.1974  144.4517  153.2563 H   0  0  0  0  0  0  0  0  0  0  0  0
  146.7539  144.0917  155.1849 H   0  0  0  0  0  0  0  0  0  0  0  0
  144.3673  144.5658  155.5864 H   0  0  0  0  0  0  0  0  0  0  0  0
  143.9800  142.8664  155.4955 H   0  0  0  0  0  0  0  0  0  0  0  0
  145.7195  144.2145  157.6132 H   0  0  0  0  0  0  0  0  0  0  0  0
  144.1176  143.5629  157.8497 H   0  0  0  0  0  0  0  0  0  0  0  0
  145.8634  141.9735  158.6713 H   0  0  0  0  0  0  0  0  0  0  0  0
  144.9031  141.2769  157.3936 H   0  0  0  0  0  0  0  0  0  0  0  0
  147.1889  140.7329  156.9631 H   0  0  0  0  0  0  0  0  0  0  0  0
  148.5211  143.1234  156.5240 H   0  0  0  0  0  0  0  0  0  0  0  0
  149.6517  144.4120  157.8044 H   0  0  0  0  0  0  0  0  0  0  0  0
  149.2365  144.5744  159.4780 H   0  0  0  0  0  0  0  0  0  0  0  0
  150.3486  141.6460  157.7300 H   0  0  0  0  0  0  0  0  0  0  0  0
  154.0318  141.2995  159.9626 H   0  0  0  0  0  0  0  0  0  0  0  0
  153.5129  143.3568  161.0838 H   0  0  0  0  0  0  0  0  0  0  0  0
  145.9004  141.1800  154.9939 H   0  0  0  0  0  0  0  0  0  0  0  0
  148.6516  142.4018  154.5100 H   0  0  0  0  0  0  0  0  0  0  0  0
  147.6589  141.5090  153.3622 H   0  0  0  0  0  0  0  0  0  0  0  0
  148.3544  140.6805  154.7375 H   0  0  0  0  0  0  0  0  0  0  0  0
  1  2  1  0  0  0  0
  1 23  1  0  0  0  0
  1 24  1  0  0  0  0
  1 25  1  0  0  0  0
  2 21  1  0  0  0  0
  2  3  1  0  0  0  0
  2 26  1  0  0  0  0
  3  4  1  0  0  0  0
  3 27  1  0  0  0  0
  3 28  1  0  0  0  0
  4  5  1  0  0  0  0
  4 29  1  0  0  0  0
  4 30  1  0  0  0  0
  5  6  1  0  0  0  0
  5 31  1  0  0  0  0
  5 32  1  0  0  0  0
  6  7  1  0  0  0  0
  6 21  1  0  0  0  0
  6 33  1  0  0  0  0
  7  8  1  0  0  0  0
  7 34  1  0  0  0  0
  8  9  2  0  0  0  0
  8 10  1  0  0  0  0
 10 11  1  0  0  0  0
 10 35  1  0  0  0  0
 10 36  1  0  0  0  0
 11 19  1  0  0  0  0
 11 12  1  0  0  0  0
 12 13  2  0  0  0  0
 12 37  1  0  0  0  0
 13 14  1  0  0  0  0
 13 17  1  0  0  0  0
 14 15  2  0  0  0  0
 14 16  1  0  0  0  0
 17 18  2  0  0  0  0
 17 38  1  0  0  0  0
 18 19  1  0  0  0  0
 18 39  1  0  0  0  0
 19 20  2  0  0  0  0
 21 22  1  0  0  0  0
 21 40  1  0  0  0  0
 22 41  1  0  0  0  0
 22 42  1  0  0  0  0
 22 43  1  0  0  0  0
M  CHG  1  14   1
M  CHG  1  16  -1
M  END
> <s_m_source_file>
AV-unprocessed.smi

> <i_m_source_file_index>
598

> <i_lp_mmshare_version>
43012

> <i_f3d_flags>
0

> <s_epik_input>
W0NIM11bQ0BASF0xW0NIMl1bQ0gyXVtDSDJdW0NASF0oW0NASF0xW0NIM10pW05IXUMoPU8pW0NIMl1uMltjSF1jKFtOK10oPU8pW08tXSlbY0hdW2NIXWMyPU8=

> <s_epik_cmdline>
J2VwaWtfcHl0aG9uJywgJy1waCcsICc3LjAnLCAnLXRuJywgJzgnLCAnLW1hJywgJzIwMCcsICctbWV0YWxfYmluZGluZycsICctaW1hZScsICc8aW5maWxlLm1hZT4nLCAnLW9tYWUnLCAnPG91dGZpbGUubWFlPic=

> <r_lp_tautomer_probability>
1

> <r_epik_Ionization_Penalty>
1.91291e-08

> <r_epik_Ionization_Penalty_Charging>
8.21931e-11

> <r_epik_Ionization_Penalty_Neutral>
1.90469e-08

> <r_epik_State_Penalty>
-0

> <r_epik_Charging_Adjusted_Penalty>
8.21931e-11

> <i_epik_Tot_Q>
0

> <i_epik_Tot_abs_Q>
2

> <r_epik_Metal_State_Penalty>
-0

> <b_epik_Metal_Only>
0

> <s_lp_Force_Field>
OPLS_2005

> <r_lp_Energy>
23.1067

> <b_lp_Chiralities_Consistent>
1

> <s_lp_Variant>
AV-unprocessed.smi:598-8

> <Gold.Version>
5.8.1

> <Gold.Id.Protein>
6NUR|6NUR_protein|mol2

> <Gold.PLP.Fitness>
41.1525

> <Gold.PLP.PLP>
-34.2434

> <Gold.PLP.part.hbond>
-4.1812

> <Gold.PLP.part.metal>
0.0000

> <Gold.PLP.part.buried>
-1.3652

> <Gold.PLP.part.nonpolar>
-29.0091

> <Gold.PLP.part.repulsive>
0.2534

> <Gold.PLP.ligand.clash>
0.0000

> <Gold.PLP.ligand.torsion>
0.6029

> <Gold.PLP.Chemscore.Hbond>
2.6995

> <Gold.PLP.Chemscore.CHOScore>
0.0000

> <Gold.PLP.Chemscore.Metal>
0.0000

> <Gold.Chemscore.Hbonds>
donor molecule, donor type, donor heavy atom, donor atom, acceptor molecule, acceptor atom, score
      L1  H     7    34       P1  8028  0.93
      P1  H  6933  6944       L1     9  0.37
      P1  H  6934  6946       L1     9  0.34
      P1  H  7997  8008       L1    15  1.00

> <Gold.PLP.Chemscore.Internal.Correction>
0.0164

> <Gold.Rescore>
     Score         DG    S(hbond)    S(metal)    S(lipo)     H(rot)  DE(clash)    DE(int)     intcor
     13.60     -16.09       1.76        0.00      73.95       1.54       0.64       1.85       ----

> <Gold.Chemscore.Fitness>
13.5976

> <Gold.Chemscore.DG>
-16.0863

> <Gold.Chemscore.ZeroCoef>
-5.4800

> <Gold.Chemscore.Hbond>
1.7649

> <Gold.Chemscore.Metal>
0.0000

> <Gold.Chemscore.Lipo>
73.9525

> <Gold.Chemscore.Internal_Hbond>
0.0000

> <Gold.Chemscore.DEClash>
0.6366

> <Gold.Chemscore.DEInternal>
1.8522

> <Gold.Chemscore.Rot>
1.5393

> <Gold.Chemscore.Internal.Correction>
   9.000000E+99

> <Gold.Chemscore.Hbonds>
donor molecule, donor type, donor heavy atom, donor atom, acceptor molecule, acceptor atom, score
      L1  H     7    34       P1  8028  0.71
      P1  H  6933  6944       L1     9  0.35
      P1  H  6934  6946       L1     9  0.34
      P1  H  7997  8008       L1    15  0.32

> <Gold.Chemscore.Hbond.Weighted>
-5.8946

> <Gold.Chemscore.Metal.Weighted>
-0.0000

> <Gold.Chemscore.Lipo.Weighted>
-8.6524

> <Gold.Chemscore.Internal_Hbond.Weighted>
0.0000

> <Gold.Chemscore.DEClash.Weighted>
0.6366

> <Gold.Chemscore.DEInternal.Weighted>
1.8522

> <Gold.Chemscore.Rot.Weighted>
3.9407

> <Gold.Chemscore.Internal.Correction.Weighted>
   9.000000E+99

> <Gold.Protein.RotatedTorsions>
[ 6907 6896 6895 6894 ] final   92.46 input  -60.11 | X-H torsion
[ 7974 7965 7964 7962 ] final  106.26 input  175.53 | X-H torsion
[ 8008 7997 7996 7995 ] final -112.44 input   59.86 | X-H torsion
[ 10167 10162 10161 10158 ] final   86.52 input  -65.29 | X-H torsion
[ 10718 10713 10712 10709 ] final  143.70 input   66.30 | X-H torsion
[ 10763 10752 10751 10750 ] final  -76.14 input  -60.55 | X-H torsion
[ 11005 11000 10999 10996 ] final   76.75 input  -57.11 | X-H torsion

> <Gold.Protein.ActiveResidues>
 VAL166  LYS551  ARG553  GLY616  TRP617  ASP618  TYR619  PRO620  LYS621  CYS622 
 ASP623  PHE694  ASN695  SER759  ASP760  ASP761  ALA762  ILE779  LEU786  VAL792 
 PHE793  MET794  SER795  GLU796  ALA797  LYS798  CYS799  TRP800  GLU811  SER814 

> <Gold.Protein.RotatedAtoms>
  152.5452  134.1499  159.8513 H   0  0  0  0  0  0  0  0  0  0  0  0  # atno 6907 bound_to 6896
  151.1527  133.4890  159.2602 H   0  0  0  0  0  0  0  0  0  0  0  0  # atno 6908 bound_to 6896
  151.1455  135.0212  159.8700 H   0  0  0  0  0  0  0  0  0  0  0  0  # atno 6909 bound_to 6896
  145.3089  139.2546  143.3774 H   0  0  0  0  0  0  0  0  0  0  0  0  # atno 7974 bound_to 7965
  155.0052  140.0394  157.2377 H   0  0  0  0  0  0  0  0  0  0  0  0  # atno 8008 bound_to 7997
  154.7508  140.2766  155.6271 H   0  0  0  0  0  0  0  0  0  0  0  0  # atno 8009 bound_to 7997
  156.2884  140.2647  156.2261 H   0  0  0  0  0  0  0  0  0  0  0  0  # atno 8010 bound_to 7997
  139.8867  144.6409  150.8784 H   0  0  0  0  0  0  0  0  0  0  0  0  # atno 10167 bound_to 10162
  157.3659  131.0972  151.0873 H   0  0  0  0  0  0  0  0  0  0  0  0  # atno 10718 bound_to 10713
  154.4959  135.5808  153.6494 H   0  0  0  0  0  0  0  0  0  0  0  0  # atno 10763 bound_to 10752
  152.9870  135.6124  154.3065 H   0  0  0  0  0  0  0  0  0  0  0  0  # atno 10764 bound_to 10752
  154.2969  135.2847  155.2608 H   0  0  0  0  0  0  0  0  0  0  0  0  # atno 10765 bound_to 10752
  139.9284  134.7627  156.1435 H   0  0  0  0  0  0  0  0  0  0  0  0  # atno 11005 bound_to 11000
  146.3125  140.3620  142.8666 LP  0  0  0  0  0  0  0  0  0  0  0  0  # atno 17320 bound_to 7965
  144.9032  140.7668  143.5854 LP  0  0  0  0  0  0  0  0  0  0  0  0  # atno 17321 bound_to 7965
  140.7734  143.3543  151.1953 LP  0  0  0  0  0  0  0  0  0  0  0  0  # atno 17342 bound_to 10162
  139.7147  143.9320  152.2962 LP  0  0  0  0  0  0  0  0  0  0  0  0  # atno 17343 bound_to 10162
  157.1995  130.6388  149.5733 LP  0  0  0  0  0  0  0  0  0  0  0  0  # atno 17370 bound_to 10713
  155.9746  130.4695  150.6399 LP  0  0  0  0  0  0  0  0  0  0  0  0  # atno 17371 bound_to 10713
  141.0858  133.6735  156.2432 LP  0  0  0  0  0  0  0  0  0  0  0  0  # atno 17394 bound_to 11000
  140.6270  134.5303  157.5555 LP  0  0  0  0  0  0  0  0  0  0  0  0  # atno 17395 bound_to 11000

$$$$
