AV-unprocessed.smi:1884|AV-procd|sdf|7646|dock9
  -GOLD-   22720 9373D 1   1.00000     0.00000
 Structure written by MMmdl.
 40 42  0  0  0  0  0  0  0  0  1 V2000
  152.1481  139.2992  157.3949 C   0  0  0  0  0  0  0  0  0  0  0  0
  151.9691  140.6508  158.0096 C   0  0  0  0  0  0  0  0  0  0  0  0
  152.3164  140.9106  159.2702 N   0  0  0  0  0  0  0  0  0  0  0  0
  151.9742  142.2419  159.4103 C   0  0  0  0  0  0  0  0  0  0  0  0
  152.0930  143.1089  160.5201 C   0  0  0  0  0  0  0  0  0  0  0  0
  151.6691  144.4507  160.4264 C   0  0  0  0  0  0  0  0  0  0  0  0
  151.1220  144.9442  159.2242 C   0  0  0  0  0  0  0  0  0  0  0  0
  150.9957  144.0977  158.1061 C   0  0  0  0  0  0  0  0  0  0  0  0
  151.4197  142.7588  158.2049 C   0  0  0  0  0  0  0  0  0  0  0  0
  151.4388  141.6879  157.3161 N   0  0  0  0  0  0  0  0  0  0  0  0
  150.9769  141.6988  155.9345 C   0  0  0  0  0  0  0  0  0  0  0  0
  150.0654  140.5003  155.6000 C   0  0  2  0  0  0  0  0  0  0  0  0
  150.7492  139.5944  154.7571 O   0  0  0  0  0  0  0  0  0  0  0  0
  148.7690  140.9270  154.8963 C   0  0  0  0  0  0  0  0  0  0  0  0
  147.8996  141.5292  155.8463 O   0  0  0  0  0  0  0  0  0  0  0  0
  146.8908  142.3451  155.3808 C   0  0  0  0  0  0  0  0  0  0  0  0
  146.0161  142.8935  156.3413 C   0  0  0  0  0  0  0  0  0  0  0  0
  144.9563  143.7366  155.9553 C   0  0  0  0  0  0  0  0  0  0  0  0
  144.7582  144.0416  154.5943 C   0  0  0  0  0  0  0  0  0  0  0  0
  143.6637  144.9087  154.1915 C   0  0  0  0  0  0  0  0  0  0  0  0
  142.7924  145.5993  153.8711 N   0  0  0  0  0  0  0  0  0  0  0  0
  145.6260  143.5013  153.6249 C   0  0  0  0  0  0  0  0  0  0  0  0
  146.6856  142.6584  154.0131 C   0  0  0  0  0  0  0  0  0  0  0  0
  152.6140  138.6154  158.1053 H   0  0  0  0  0  0  0  0  0  0  0  0
  152.7855  139.3632  156.5133 H   0  0  0  0  0  0  0  0  0  0  0  0
  151.1822  138.8855  157.1050 H   0  0  0  0  0  0  0  0  0  0  0  0
  152.5112  142.7409  161.4454 H   0  0  0  0  0  0  0  0  0  0  0  0
  151.7639  145.1044  161.2812 H   0  0  0  0  0  0  0  0  0  0  0  0
  150.7998  145.9733  159.1610 H   0  0  0  0  0  0  0  0  0  0  0  0
  150.5799  144.4741  157.1833 H   0  0  0  0  0  0  0  0  0  0  0  0
  150.4553  142.6375  155.7469 H   0  0  0  0  0  0  0  0  0  0  0  0
  151.8483  141.7046  155.2786 H   0  0  0  0  0  0  0  0  0  0  0  0
  149.8103  139.9636  156.5141 H   0  0  0  0  0  0  0  0  0  0  0  0
  150.1089  139.0802  154.2891 H   0  0  0  0  0  0  0  0  0  0  0  0
  148.9940  141.6211  154.0846 H   0  0  0  0  0  0  0  0  0  0  0  0
  148.2817  140.0499  154.4667 H   0  0  0  0  0  0  0  0  0  0  0  0
  146.1597  142.6653  157.3872 H   0  0  0  0  0  0  0  0  0  0  0  0
  144.2987  144.1457  156.7091 H   0  0  0  0  0  0  0  0  0  0  0  0
  145.4844  143.7290  152.5779 H   0  0  0  0  0  0  0  0  0  0  0  0
  147.3267  142.2636  153.2397 H   0  0  0  0  0  0  0  0  0  0  0  0
  1  2  1  0  0  0  0
  1 24  1  0  0  0  0
  1 25  1  0  0  0  0
  1 26  1  0  0  0  0
  2 10  1  0  0  0  0
  2  3  2  0  0  0  0
  3  4  1  0  0  0  0
  4  9  2  0  0  0  0
  4  5  1  0  0  0  0
  5  6  2  0  0  0  0
  5 27  1  0  0  0  0
  6  7  1  0  0  0  0
  6 28  1  0  0  0  0
  7  8  2  0  0  0  0
  7 29  1  0  0  0  0
  8  9  1  0  0  0  0
  8 30  1  0  0  0  0
  9 10  1  0  0  0  0
 10 11  1  0  0  0  0
 11 12  1  0  0  0  0
 11 31  1  0  0  0  0
 11 32  1  0  0  0  0
 12 13  1  0  0  0  0
 12 14  1  0  0  0  0
 12 33  1  0  0  0  0
 13 34  1  0  0  0  0
 14 15  1  0  0  0  0
 14 35  1  0  0  0  0
 14 36  1  0  0  0  0
 15 16  1  0  0  0  0
 16 23  1  0  0  0  0
 16 17  2  0  0  0  0
 17 18  1  0  0  0  0
 17 37  1  0  0  0  0
 18 19  2  0  0  0  0
 18 38  1  0  0  0  0
 19 20  1  0  0  0  0
 19 22  1  0  0  0  0
 20 21  3  0  0  0  0
 22 23  2  0  0  0  0
 22 39  1  0  0  0  0
 23 40  1  0  0  0  0
M  END
> <s_m_source_file>
AV-unprocessed.smi

> <i_m_source_file_index>
1884

> <i_lp_mmshare_version>
43012

> <i_f3d_flags>
0

> <s_epik_input>
W2NIXTFbY0hdW2NIXVtjSF1jKGMxMiluKGMobjIpW0NIM10pW0NIMl1bQ0BIXShbT0hdKVtDSDJdT2MzW2NIXVtjSF1jKEMjTilbY0hdW2NIXTM=

> <s_epik_cmdline>
J2VwaWtfcHl0aG9uJywgJy1waCcsICc3LjAnLCAnLXRuJywgJzgnLCAnLW1hJywgJzIwMCcsICctbWV0YWxfYmluZGluZycsICctaW1hZScsICc8aW5maWxlLm1hZT4nLCAnLW9tYWUnLCAnPG91dGZpbGUubWFlPic=

> <r_epik_Ionization_Penalty>
0.110799

> <r_epik_Ionization_Penalty_Charging>
0

> <r_epik_Ionization_Penalty_Neutral>
0.110799

> <r_epik_State_Penalty>
0.100537

> <r_epik_Charging_Adjusted_Penalty>
0.100537

> <i_epik_Tot_Q>
0

> <i_epik_Tot_abs_Q>
0

> <r_epik_Metal_State_Penalty>
0.000109561

> <b_epik_Metal_Only>
0

> <s_lp_Force_Field>
OPLS_2005

> <r_lp_Energy>
14.1942

> <b_lp_Chiralities_Consistent>
1

> <s_lp_Variant>
AV-unprocessed.smi:1884-1

> <Gold.Version>
5.8.1

> <Gold.Id.Protein>
6NUR|6NUR_protein|mol2

> <Gold.PLP.Fitness>
48.4142

> <Gold.PLP.PLP>
-47.4284

> <Gold.PLP.part.hbond>
-2.0000

> <Gold.PLP.part.metal>
0.0000

> <Gold.PLP.part.buried>
-6.7680

> <Gold.PLP.part.nonpolar>
-38.9046

> <Gold.PLP.part.repulsive>
0.1924

> <Gold.PLP.ligand.clash>
0.0000

> <Gold.PLP.ligand.torsion>
1.0322

> <Gold.PLP.Chemscore.Hbond>
1.0000

> <Gold.PLP.Chemscore.CHOScore>
0.0000

> <Gold.PLP.Chemscore.Metal>
0.0000

> <Gold.Chemscore.Hbonds>
donor molecule, donor type, donor heavy atom, donor atom, acceptor molecule, acceptor atom, score
      P1  H  7989  7998       L1    13  1.00

> <Gold.PLP.Chemscore.Internal.Correction>
0.0500

> <Gold.Rescore>
     Score         DG    S(hbond)    S(metal)    S(lipo)     H(rot)  DE(clash)    DE(int)     intcor
     12.98     -14.11       0.35        0.00     114.26       2.31       0.15       0.98       ----

> <Gold.Chemscore.Fitness>
12.9837

> <Gold.Chemscore.DG>
-14.1076

> <Gold.Chemscore.ZeroCoef>
-5.4800

> <Gold.Chemscore.Hbond>
0.3512

> <Gold.Chemscore.Metal>
0.0000

> <Gold.Chemscore.Lipo>
114.2627

> <Gold.Chemscore.Internal_Hbond>
0.0000

> <Gold.Chemscore.DEClash>
0.1470

> <Gold.Chemscore.DEInternal>
0.9769

> <Gold.Chemscore.Rot>
2.3102

> <Gold.Chemscore.Internal.Correction>
   9.000000E+99

> <Gold.Chemscore.Hbonds>
donor molecule, donor type, donor heavy atom, donor atom, acceptor molecule, acceptor atom, score
      P1  H  7989  7998       L1    13  0.20

> <Gold.Chemscore.Hbond.Weighted>
-1.1730

> <Gold.Chemscore.Metal.Weighted>
-0.0000

> <Gold.Chemscore.Lipo.Weighted>
-13.3687

> <Gold.Chemscore.Internal_Hbond.Weighted>
0.0000

> <Gold.Chemscore.DEClash.Weighted>
0.1470

> <Gold.Chemscore.DEInternal.Weighted>
0.9769

> <Gold.Chemscore.Rot.Weighted>
5.9141

> <Gold.Chemscore.Internal.Correction.Weighted>
   9.000000E+99

> <Gold.Protein.RotatedTorsions>
[ 6907 6896 6895 6894 ] final -124.69 input  -60.11 | X-H torsion
[ 7974 7965 7964 7962 ] final  -29.76 input  175.53 | X-H torsion
[ 8008 7997 7996 7995 ] final -128.75 input   59.86 | X-H torsion
[ 10167 10162 10161 10158 ] final  -68.94 input  -65.29 | X-H torsion
[ 10718 10713 10712 10709 ] final  -49.88 input   66.30 | X-H torsion
[ 10763 10752 10751 10750 ] final   49.26 input  -60.55 | X-H torsion
[ 11005 11000 10999 10996 ] final  134.23 input  -57.11 | X-H torsion

> <Gold.Protein.ActiveResidues>
 VAL166  LYS551  ARG553  GLY616  TRP617  ASP618  TYR619  PRO620  LYS621  CYS622 
 ASP623  PHE694  ASN695  SER759  ASP760  ASP761  ALA762  ILE779  LEU786  VAL792 
 PHE793  MET794  SER795  GLU796  ALA797  LYS798  CYS799  TRP800  GLU811  SER814 

> <Gold.Protein.RotatedAtoms>
  150.8793  133.7394  159.2936 H   0  0  0  0  0  0  0  0  0  0  0  0  # atno 6907 bound_to 6896
  151.4980  135.1059  159.9831 H   0  0  0  0  0  0  0  0  0  0  0  0  # atno 6908 bound_to 6896
  152.4749  133.8069  159.7038 H   0  0  0  0  0  0  0  0  0  0  0  0  # atno 6909 bound_to 6896
  146.1193  140.5454  142.8743 H   0  0  0  0  0  0  0  0  0  0  0  0  # atno 7974 bound_to 7965
  155.2678  140.0438  157.3004 H   0  0  0  0  0  0  0  0  0  0  0  0  # atno 8008 bound_to 7997
  154.5672  140.2363  155.8215 H   0  0  0  0  0  0  0  0  0  0  0  0  # atno 8009 bound_to 7997
  156.2094  140.3003  155.9706 H   0  0  0  0  0  0  0  0  0  0  0  0  # atno 8010 bound_to 7997
  140.5469  143.2313  151.6985 H   0  0  0  0  0  0  0  0  0  0  0  0  # atno 10167 bound_to 10162
  156.1852  130.4151  149.9449 H   0  0  0  0  0  0  0  0  0  0  0  0  # atno 10718 bound_to 10713
  152.9787  135.5917  154.4060 H   0  0  0  0  0  0  0  0  0  0  0  0  # atno 10763 bound_to 10752
  154.3701  135.2767  155.2273 H   0  0  0  0  0  0  0  0  0  0  0  0  # atno 10764 bound_to 10752
  154.4232  135.6054  153.6078 H   0  0  0  0  0  0  0  0  0  0  0  0  # atno 10765 bound_to 10752
  139.9901  134.9518  156.9837 H   0  0  0  0  0  0  0  0  0  0  0  0  # atno 11005 bound_to 11000
  144.7582  140.5358  143.6754 LP  0  0  0  0  0  0  0  0  0  0  0  0  # atno 17320 bound_to 7965
  145.5500  139.1476  143.3399 LP  0  0  0  0  0  0  0  0  0  0  0  0  # atno 17321 bound_to 7965
  139.5011  144.3880  152.0308 LP  0  0  0  0  0  0  0  0  0  0  0  0  # atno 17342 bound_to 10162
  140.2994  144.3664  150.6065 LP  0  0  0  0  0  0  0  0  0  0  0  0  # atno 17343 bound_to 10162
  156.7207  130.9005  151.3618 LP  0  0  0  0  0  0  0  0  0  0  0  0  # atno 17370 bound_to 10713
  157.6894  130.9218  150.0473 LP  0  0  0  0  0  0  0  0  0  0  0  0  # atno 17371 bound_to 10713
  140.4924  134.1179  155.7235 LP  0  0  0  0  0  0  0  0  0  0  0  0  # atno 17394 bound_to 11000
  141.1559  133.8884  157.1979 LP  0  0  0  0  0  0  0  0  0  0  0  0  # atno 17395 bound_to 11000

$$$$
