AV-unprocessed.smi:1239|AV-procd|sdf|5194|dock3
  -GOLD-   22720 4283D 1   1.00000     0.00000
 Structure written by MMmdl.
 48 49  0  0  0  0  0  0  0  0  4 V2000
  150.3605  134.9890  155.2379 C   0  0  0  0  0  0  0  0  0  0  0  0
  148.9198  135.5106  155.0082 C   0  0  1  0  0  0  0  0  0  0  0  0
  148.8279  137.0327  154.7113 C   0  0  0  0  0  0  0  0  0  0  0  0
  150.1289  137.6985  154.8401 N   0  5  0  0  0  0  0  0  0  0  0  0
  150.3104  139.0340  155.0254 C   0  0  0  0  0  0  0  0  0  0  0  0
  150.2098  139.9287  154.1781 O   0  0  0  0  0  0  0  0  0  0  0  0
  150.6820  139.3248  156.2845 N   0  0  0  0  0  0  0  0  0  0  0  0
  150.9281  140.5902  156.8831 C   0  0  0  0  0  0  0  0  0  0  0  0
  151.6397  140.6130  158.0999 C   0  0  0  0  0  0  0  0  0  0  0  0
  151.8910  141.8420  158.7435 C   0  0  0  0  0  0  0  0  0  0  0  0
  151.4169  143.0475  158.1702 C   0  0  0  0  0  0  0  0  0  0  0  0
  151.6263  144.3160  158.7536 N   0  0  0  0  0  0  0  0  0  0  0  0
  152.4858  145.2868  158.0850 C   0  0  0  0  0  0  0  0  0  0  0  0
  150.8762  144.6970  159.9432 C   0  0  0  0  0  0  0  0  0  0  0  0
  150.7256  142.9732  157.0067 N   0  3  0  0  0  0  0  0  0  0  0  0
  150.4629  141.8185  156.3574 C   0  0  0  0  0  0  0  0  0  0  0  0
  148.1214  134.7171  154.0201 N   0  3  0  0  0  0  0  0  0  0  0  0
  148.3431  133.2461  154.0027 C   0  0  0  0  0  0  0  0  0  0  0  0
  147.6113  132.6231  152.8045 C   0  0  0  0  0  0  0  0  0  0  0  0
  146.2235  132.9232  152.8924 O   0  0  0  0  0  0  0  0  0  0  0  0
  145.9761  134.3236  152.8478 C   0  0  0  0  0  0  0  0  0  0  0  0
  146.6693  135.0173  154.0330 C   0  0  0  0  0  0  0  0  0  0  0  0
  150.8555  135.5194  156.0534 H   0  0  0  0  0  0  0  0  0  0  0  0
  150.9947  135.0900  154.3557 H   0  0  0  0  0  0  0  0  0  0  0  0
  150.3498  133.9350  155.5169 H   0  0  0  0  0  0  0  0  0  0  0  0
  148.4277  135.3977  155.9753 H   0  0  0  0  0  0  0  0  0  0  0  0
  148.3983  137.1674  153.7172 H   0  0  0  0  0  0  0  0  0  0  0  0
  148.1001  137.4747  155.3917 H   0  0  0  0  0  0  0  0  0  0  0  0
  150.8382  138.5251  156.8810 H   0  0  0  0  0  0  0  0  0  0  0  0
  151.9977  139.6933  158.5395 H   0  0  0  0  0  0  0  0  0  0  0  0
  152.4444  141.8373  159.6703 H   0  0  0  0  0  0  0  0  0  0  0  0
  152.0881  145.5348  157.1002 H   0  0  0  0  0  0  0  0  0  0  0  0
  153.4932  144.8876  157.9623 H   0  0  0  0  0  0  0  0  0  0  0  0
  152.5623  146.2110  158.6580 H   0  0  0  0  0  0  0  0  0  0  0  0
  151.1026  144.0250  160.7714 H   0  0  0  0  0  0  0  0  0  0  0  0
  149.8040  144.6619  159.7471 H   0  0  0  0  0  0  0  0  0  0  0  0
  151.1242  145.7099  160.2602 H   0  0  0  0  0  0  0  0  0  0  0  0
  149.8802  141.9282  155.4553 H   0  0  0  0  0  0  0  0  0  0  0  0
  149.4070  133.0203  153.9322 H   0  0  0  0  0  0  0  0  0  0  0  0
  147.9761  132.7963  154.9260 H   0  0  0  0  0  0  0  0  0  0  0  0
  148.0207  132.9924  151.8626 H   0  0  0  0  0  0  0  0  0  0  0  0
  147.7399  131.5406  152.8064 H   0  0  0  0  0  0  0  0  0  0  0  0
  146.3269  134.7345  151.8997 H   0  0  0  0  0  0  0  0  0  0  0  0
  144.9003  134.4938  152.8900 H   0  0  0  0  0  0  0  0  0  0  0  0
  146.2347  134.6861  154.9773 H   0  0  0  0  0  0  0  0  0  0  0  0
  146.5091  136.0939  153.9614 H   0  0  0  0  0  0  0  0  0  0  0  0
  150.3764  143.8402  156.5984 H   0  0  0  0  0  0  0  0  0  0  0  0
  148.4519  135.0472  153.1234 H   0  0  0  0  0  0  0  0  0  0  0  0
  1  2  1  0  0  0  0
  1 23  1  0  0  0  0
  1 24  1  0  0  0  0
  1 25  1  0  0  0  0
  2  3  1  0  0  0  0
  2 17  1  0  0  0  0
  2 26  1  0  0  0  0
  3  4  1  0  0  0  0
  3 27  1  0  0  0  0
  3 28  1  0  0  0  0
  4  5  1  0  0  0  0
  5  6  2  0  0  0  0
  5  7  1  0  0  0  0
  7  8  1  0  0  0  0
  7 29  1  0  0  0  0
  8 16  1  0  0  0  0
  8  9  2  0  0  0  0
  9 10  1  0  0  0  0
  9 30  1  0  0  0  0
 10 11  2  0  0  0  0
 10 31  1  0  0  0  0
 11 12  1  0  0  0  0
 11 15  1  0  0  0  0
 12 13  1  0  0  0  0
 12 14  1  0  0  0  0
 13 32  1  0  0  0  0
 13 33  1  0  0  0  0
 13 34  1  0  0  0  0
 14 35  1  0  0  0  0
 14 36  1  0  0  0  0
 14 37  1  0  0  0  0
 15 16  2  0  0  0  0
 15 47  1  0  0  0  0
 16 38  1  0  0  0  0
 17 22  1  0  0  0  0
 17 18  1  0  0  0  0
 17 48  1  0  0  0  0
 18 19  1  0  0  0  0
 18 39  1  0  0  0  0
 18 40  1  0  0  0  0
 19 20  1  0  0  0  0
 19 41  1  0  0  0  0
 19 42  1  0  0  0  0
 20 21  1  0  0  0  0
 21 22  1  0  0  0  0
 21 43  1  0  0  0  0
 21 44  1  0  0  0  0
 22 45  1  0  0  0  0
 22 46  1  0  0  0  0
M  CHG  1   4  -1
M  CHG  1  15   1
M  CHG  1  17   1
M  END
> <s_m_source_file>
AV-unprocessed.smi

> <i_m_source_file_index>
1239

> <i_lp_mmshare_version>
43012

> <i_f3d_flags>
0

> <s_epik_input>
W0NIMl0xW0NIMl1PW0NIMl1bQ0gyXU4xW0NASF0oW0NIM10pW0NIMl1bTkhdQyg9TylbTkhdYzJbY0hdW2NIXWMoTihbQ0gzXSlbQ0gzXSluW2NIXTI=

> <s_epik_cmdline>
J2VwaWtfcHl0aG9uJywgJy1waCcsICc3LjAnLCAnLXRuJywgJzgnLCAnLW1hJywgJzIwMCcsICctbWV0YWxfYmluZGluZycsICctaW1hZScsICc8aW5maWxlLm1hZT4nLCAnLW9tYWUnLCAnPG91dGZpbGUubWFlPic=

> <r_lp_tautomer_probability>
0.999994

> <r_epik_Ionization_Penalty>
7.43905

> <r_epik_Ionization_Penalty_Charging>
7.43905

> <r_epik_Ionization_Penalty_Neutral>
3.43851e-06

> <r_epik_State_Penalty>
7.63789

> <r_epik_Charging_Adjusted_Penalty>
15.0769

> <i_epik_Tot_Q>
1

> <i_epik_Tot_abs_Q>
3

> <r_epik_Metal_State_Penalty>
3.83826

> <b_epik_Metal_Only>
1

> <s_lp_Force_Field>
OPLS_2005

> <r_lp_Energy>
25.3923

> <b_lp_Chiralities_Consistent>
1

> <s_lp_Variant>
AV-unprocessed.smi:1239-10

> <Gold.Version>
5.8.1

> <Gold.Id.Protein>
6NUR|6NUR_protein|mol2

> <Gold.PLP.Fitness>
45.4964

> <Gold.PLP.PLP>
-36.5392

> <Gold.PLP.part.hbond>
-3.0000

> <Gold.PLP.part.metal>
0.0000

> <Gold.PLP.part.buried>
-4.6622

> <Gold.PLP.part.nonpolar>
-29.5133

> <Gold.PLP.part.repulsive>
0.5921

> <Gold.PLP.ligand.clash>
0.0618

> <Gold.PLP.ligand.torsion>
3.1256

> <Gold.PLP.Chemscore.Hbond>
5.0000

> <Gold.PLP.Chemscore.CHOScore>
0.0000

> <Gold.PLP.Chemscore.Metal>
0.0000

> <Gold.Chemscore.Hbonds>
donor molecule, donor type, donor heavy atom, donor atom, acceptor molecule, acceptor atom, score
      L1  H    15    47       P1  8028  1.89
      L1  H    17    48       P1  7948  2.00
      P1  H  7989  7998       L1     6  1.00

> <Gold.PLP.Chemscore.Internal.Correction>
0.2702

> <Gold.Rescore>
     Score         DG    S(hbond)    S(metal)    S(lipo)     H(rot)  DE(clash)    DE(int)     intcor
     15.51     -20.55       2.81        0.00      81.00       1.48       0.61       4.42       ----

> <Gold.Chemscore.Fitness>
15.5080

> <Gold.Chemscore.DG>
-20.5458

> <Gold.Chemscore.ZeroCoef>
-5.4800

> <Gold.Chemscore.Hbond>
2.8099

> <Gold.Chemscore.Metal>
0.0000

> <Gold.Chemscore.Lipo>
81.0001

> <Gold.Chemscore.Internal_Hbond>
0.0000

> <Gold.Chemscore.DEClash>
0.6148

> <Gold.Chemscore.DEInternal>
4.4230

> <Gold.Chemscore.Rot>
1.4830

> <Gold.Chemscore.Internal.Correction>
   9.000000E+99

> <Gold.Chemscore.Hbonds>
donor molecule, donor type, donor heavy atom, donor atom, acceptor molecule, acceptor atom, score
      L1  H    15    47       P1  8028  0.90
      L1  H    17    48       P1  7948  0.82
      P1  H  7989  7998       L1     6  0.97

> <Gold.Chemscore.Hbond.Weighted>
-9.3852

> <Gold.Chemscore.Metal.Weighted>
-0.0000

> <Gold.Chemscore.Lipo.Weighted>
-9.4770

> <Gold.Chemscore.Internal_Hbond.Weighted>
0.0000

> <Gold.Chemscore.DEClash.Weighted>
0.6148

> <Gold.Chemscore.DEInternal.Weighted>
4.4230

> <Gold.Chemscore.Rot.Weighted>
3.7964

> <Gold.Chemscore.Internal.Correction.Weighted>
   9.000000E+99

> <Gold.Protein.RotatedTorsions>
[ 6907 6896 6895 6894 ] final   87.10 input  -60.11 | X-H torsion
[ 7974 7965 7964 7962 ] final   19.77 input  175.53 | X-H torsion
[ 8008 7997 7996 7995 ] final  137.98 input   59.86 | X-H torsion
[ 10167 10162 10161 10158 ] final   96.28 input  -65.29 | X-H torsion
[ 10718 10713 10712 10709 ] final  -58.16 input   66.30 | X-H torsion
[ 10763 10752 10751 10750 ] final   74.85 input  -60.55 | X-H torsion
[ 11005 11000 10999 10996 ] final   42.08 input  -57.11 | X-H torsion

> <Gold.Protein.ActiveResidues>
 VAL166  LYS551  ARG553  GLY616  TRP617  ASP618  TYR619  PRO620  LYS621  CYS622 
 ASP623  PHE694  ASN695  SER759  ASP760  ASP761  ALA762  ILE779  LEU786  VAL792 
 PHE793  MET794  SER795  GLU796  ALA797  LYS798  CYS799  TRP800  GLU811  SER814 

> <Gold.Protein.RotatedAtoms>
  152.5406  134.2328  159.8831 H   0  0  0  0  0  0  0  0  0  0  0  0  # atno 6907 bound_to 6896
  151.2299  133.4449  159.2611 H   0  0  0  0  0  0  0  0  0  0  0  0  # atno 6908 bound_to 6896
  151.0725  134.9821  159.8372 H   0  0  0  0  0  0  0  0  0  0  0  0  # atno 6909 bound_to 6896
  146.2137  139.8266  142.8669 H   0  0  0  0  0  0  0  0  0  0  0  0  # atno 7974 bound_to 7965
  156.3000  140.2405  156.3999 H   0  0  0  0  0  0  0  0  0  0  0  0  # atno 8008 bound_to 7997
  154.8536  140.0423  157.1640 H   0  0  0  0  0  0  0  0  0  0  0  0  # atno 8009 bound_to 7997
  154.8971  140.2971  155.5342 H   0  0  0  0  0  0  0  0  0  0  0  0  # atno 8010 bound_to 7997
  139.7909  144.6852  150.9893 H   0  0  0  0  0  0  0  0  0  0  0  0  # atno 10167 bound_to 10162
  156.1156  130.4171  150.0539 H   0  0  0  0  0  0  0  0  0  0  0  0  # atno 10718 bound_to 10713
  153.0614  135.5010  154.8102 H   0  0  0  0  0  0  0  0  0  0  0  0  # atno 10763 bound_to 10752
  154.6889  135.2981  154.9511 H   0  0  0  0  0  0  0  0  0  0  0  0  # atno 10764 bound_to 10752
  154.0272  135.6734  153.4830 H   0  0  0  0  0  0  0  0  0  0  0  0  # atno 10765 bound_to 10752
  140.1773  134.4147  155.8221 H   0  0  0  0  0  0  0  0  0  0  0  0  # atno 11005 bound_to 11000
  145.3041  141.0202  143.3592 LP  0  0  0  0  0  0  0  0  0  0  0  0  # atno 17320 bound_to 7965
  144.8984  139.4681  143.6644 LP  0  0  0  0  0  0  0  0  0  0  0  0  # atno 17321 bound_to 7965
  140.7820  143.4381  151.0592 LP  0  0  0  0  0  0  0  0  0  0  0  0  # atno 17342 bound_to 10162
  139.8058  143.8020  152.3167 LP  0  0  0  0  0  0  0  0  0  0  0  0  # atno 17343 bound_to 10162
  156.8491  130.9452  151.3627 LP  0  0  0  0  0  0  0  0  0  0  0  0  # atno 17370 bound_to 10713
  157.6339  130.8751  149.9323 LP  0  0  0  0  0  0  0  0  0  0  0  0  # atno 17371 bound_to 10713
  141.2221  133.6984  156.7869 LP  0  0  0  0  0  0  0  0  0  0  0  0  # atno 17394 bound_to 11000
  140.2308  134.8687  157.3474 LP  0  0  0  0  0  0  0  0  0  0  0  0  # atno 17395 bound_to 11000

$$$$
