AV-unprocessed.smi:2069|AV-procd|sdf|8438|dock8
  -GOLD-   2272011133D 1   1.00000     0.00000
 Structure written by MMmdl.
 38 39  0  0  0  0  0  0  0  0  3 V2000
  146.9102  136.4310  162.9375 C   0  0  0  0  0  0  0  0  0  0  0  0
  147.5395  136.2660  161.5967 C   0  0  0  0  0  0  0  0  0  0  0  0
  147.7502  137.2899  160.7661 N   0  0  0  0  0  0  0  0  0  0  0  0
  148.3486  136.8869  159.5806 N   0  0  0  0  0  0  0  0  0  0  0  0
  148.5914  135.5693  159.5358 C   0  0  0  0  0  0  0  0  0  0  0  0
  149.1626  134.9766  158.4743 N   0  5  0  0  0  0  0  0  0  0  0  0
  149.0788  135.5513  157.2539 C   0  0  0  0  0  0  0  0  0  0  0  0
  149.6067  136.6100  156.9054 O   0  0  0  0  0  0  0  0  0  0  0  0
  148.3441  134.8517  156.3778 N   0  0  0  0  0  0  0  0  0  0  0  0
  148.1039  135.2189  154.9854 C   0  0  0  0  0  0  0  0  0  0  0  0
  147.5526  134.0435  154.1332 C   0  0  1  0  0  0  0  0  0  0  0  0
  146.5599  133.2005  154.9711 C   0  0  0  0  0  0  0  0  0  0  0  0
  146.9638  134.5525  152.8513 N   0  3  0  0  0  0  0  0  0  0  0  0
  146.4749  133.4557  151.9701 C   0  0  0  0  0  0  0  0  0  0  0  0
  145.9423  134.0061  150.6376 C   0  0  0  0  0  0  0  0  0  0  0  0
  144.8989  134.9343  150.8913 O   0  0  0  0  0  0  0  0  0  0  0  0
  145.3662  136.0462  151.6398 C   0  0  0  0  0  0  0  0  0  0  0  0
  145.8929  135.5763  153.0066 C   0  0  0  0  0  0  0  0  0  0  0  0
  148.0675  134.7084  160.9830 S   0  0  0  0  0  0  0  0  0  0  0  0
  147.6455  136.8039  163.6505 H   0  0  0  0  0  0  0  0  0  0  0  0
  146.5275  135.4755  163.2965 H   0  0  0  0  0  0  0  0  0  0  0  0
  146.0826  137.1386  162.8821 H   0  0  0  0  0  0  0  0  0  0  0  0
  147.9257  133.9930  156.7052 H   0  0  0  0  0  0  0  0  0  0  0  0
  147.3925  136.0452  154.9771 H   0  0  0  0  0  0  0  0  0  0  0  0
  149.0342  135.6196  154.5861 H   0  0  0  0  0  0  0  0  0  0  0  0
  148.3790  133.3820  153.8685 H   0  0  0  0  0  0  0  0  0  0  0  0
  147.0007  132.8732  155.9127 H   0  0  0  0  0  0  0  0  0  0  0  0
  146.2626  132.2864  154.4575 H   0  0  0  0  0  0  0  0  0  0  0  0
  145.6602  133.7675  155.2124 H   0  0  0  0  0  0  0  0  0  0  0  0
  147.2655  132.7418  151.7486 H   0  0  0  0  0  0  0  0  0  0  0  0
  145.6855  132.9020  152.4810 H   0  0  0  0  0  0  0  0  0  0  0  0
  146.7400  134.4787  150.0621 H   0  0  0  0  0  0  0  0  0  0  0  0
  145.5486  133.1929  150.0274 H   0  0  0  0  0  0  0  0  0  0  0  0
  146.1426  136.5743  151.0838 H   0  0  0  0  0  0  0  0  0  0  0  0
  144.5430  136.7475  151.7772 H   0  0  0  0  0  0  0  0  0  0  0  0
  145.0764  135.1640  153.6016 H   0  0  0  0  0  0  0  0  0  0  0  0
  146.2678  136.4561  153.5284 H   0  0  0  0  0  0  0  0  0  0  0  0
  147.7163  135.0126  152.3590 H   0  0  0  0  0  0  0  0  0  0  0  0
  1  2  1  0  0  0  0
  1 20  1  0  0  0  0
  1 21  1  0  0  0  0
  1 22  1  0  0  0  0
  2 19  1  0  0  0  0
  2  3  2  0  0  0  0
  3  4  1  0  0  0  0
  4  5  2  0  0  0  0
  5  6  1  0  0  0  0
  5 19  1  0  0  0  0
  6  7  1  0  0  0  0
  7  8  2  0  0  0  0
  7  9  1  0  0  0  0
  9 10  1  0  0  0  0
  9 23  1  0  0  0  0
 10 11  1  0  0  0  0
 10 24  1  0  0  0  0
 10 25  1  0  0  0  0
 11 12  1  0  0  0  0
 11 13  1  0  0  0  0
 11 26  1  0  0  0  0
 12 27  1  0  0  0  0
 12 28  1  0  0  0  0
 12 29  1  0  0  0  0
 13 18  1  0  0  0  0
 13 14  1  0  0  0  0
 13 38  1  0  0  0  0
 14 15  1  0  0  0  0
 14 30  1  0  0  0  0
 14 31  1  0  0  0  0
 15 16  1  0  0  0  0
 15 32  1  0  0  0  0
 15 33  1  0  0  0  0
 16 17  1  0  0  0  0
 17 18  1  0  0  0  0
 17 34  1  0  0  0  0
 17 35  1  0  0  0  0
 18 36  1  0  0  0  0
 18 37  1  0  0  0  0
M  CHG  1   6  -1
M  CHG  1  13   1
M  END
> <s_m_source_file>
AV-unprocessed.smi

> <i_m_source_file_index>
2069

> <i_lp_mmshare_version>
43012

> <i_f3d_flags>
0

> <s_epik_input>
W0NIM11jMW5uYyhzMSlbTkhdQyg9TylbTkhdW0NIMl1bQ0BIXShbQ0gzXSlOMltDSDJdW0NIMl1PW0NIMl1bQ0gyXTI=

> <s_epik_cmdline>
J2VwaWtfcHl0aG9uJywgJy1waCcsICc3LjAnLCAnLXRuJywgJzgnLCAnLW1hJywgJzIwMCcsICctbWV0YWxfYmluZGluZycsICctaW1hZScsICc8aW5maWxlLm1hZT4nLCAnLW9tYWUnLCAnPG91dGZpbGUubWFlPic=

> <r_lp_tautomer_probability>
1

> <r_epik_Ionization_Penalty>
3.53072

> <r_epik_Ionization_Penalty_Charging>
3.4216

> <r_epik_Ionization_Penalty_Neutral>
0.109115

> <r_epik_State_Penalty>
3.61496

> <r_epik_Charging_Adjusted_Penalty>
7.03656

> <i_epik_Tot_Q>
0

> <i_epik_Tot_abs_Q>
2

> <r_epik_Metal_State_Penalty>
1.13918

> <b_epik_Metal_Only>
1

> <s_lp_Force_Field>
OPLS_2005

> <r_lp_Energy>
13.0561

> <b_lp_Chiralities_Consistent>
1

> <s_lp_Variant>
AV-unprocessed.smi:2069-8

> <Gold.Version>
5.8.1

> <Gold.Id.Protein>
6NUR|6NUR_protein|mol2

> <Gold.PLP.Fitness>
37.5280

> <Gold.PLP.PLP>
-22.3898

> <Gold.PLP.part.hbond>
-4.0000

> <Gold.PLP.part.metal>
0.0000

> <Gold.PLP.part.buried>
-2.9063

> <Gold.PLP.part.nonpolar>
-15.5117

> <Gold.PLP.part.repulsive>
0.2249

> <Gold.PLP.ligand.clash>
0.0000

> <Gold.PLP.ligand.torsion>
1.0602

> <Gold.PLP.Chemscore.Hbond>
5.7280

> <Gold.PLP.Chemscore.CHOScore>
0.0000

> <Gold.PLP.Chemscore.Metal>
0.0000

> <Gold.Chemscore.Hbonds>
donor molecule, donor type, donor heavy atom, donor atom, acceptor molecule, acceptor atom, score
      L1  H    13    38       P1  7948  2.00
      P1  H  6896  6909       L1     6  2.00
      P1  H  6931  6943       L1     3  0.67
      P1  H  6934  6947       L1     3  0.86

> <Gold.PLP.Chemscore.Internal.Correction>
0.0747

> <Gold.Rescore>
     Score         DG    S(hbond)    S(metal)    S(lipo)     H(rot)  DE(clash)    DE(int)     intcor
     13.68     -16.27       2.63        0.00      52.51       1.62       0.30       2.28       ----

> <Gold.Chemscore.Fitness>
13.6812

> <Gold.Chemscore.DG>
-16.2655

> <Gold.Chemscore.ZeroCoef>
-5.4800

> <Gold.Chemscore.Hbond>
2.6308

> <Gold.Chemscore.Metal>
0.0000

> <Gold.Chemscore.Lipo>
52.5113

> <Gold.Chemscore.Internal_Hbond>
0.0000

> <Gold.Chemscore.DEClash>
0.3043

> <Gold.Chemscore.DEInternal>
2.2799

> <Gold.Chemscore.Rot>
1.6192

> <Gold.Chemscore.Internal.Correction>
   9.000000E+99

> <Gold.Chemscore.Hbonds>
donor molecule, donor type, donor heavy atom, donor atom, acceptor molecule, acceptor atom, score
      L1  H    13    38       P1  7948  0.94
      P1  H  6896  6909       L1     6  0.24
      P1  H  6931  6943       L1     3  0.09
      P1  H  6934  6947       L1     3  0.84

> <Gold.Chemscore.Hbond.Weighted>
-8.7869

> <Gold.Chemscore.Metal.Weighted>
-0.0000

> <Gold.Chemscore.Lipo.Weighted>
-6.1438

> <Gold.Chemscore.Internal_Hbond.Weighted>
0.0000

> <Gold.Chemscore.DEClash.Weighted>
0.3043

> <Gold.Chemscore.DEInternal.Weighted>
2.2799

> <Gold.Chemscore.Rot.Weighted>
4.1452

> <Gold.Chemscore.Internal.Correction.Weighted>
   9.000000E+99

> <Gold.Protein.RotatedTorsions>
[ 6907 6896 6895 6894 ] final   17.29 input  -60.11 | X-H torsion
[ 7974 7965 7964 7962 ] final  -46.62 input  175.53 | X-H torsion
[ 8008 7997 7996 7995 ] final  166.02 input   59.86 | X-H torsion
[ 10167 10162 10161 10158 ] final  -43.58 input  -65.29 | X-H torsion
[ 10718 10713 10712 10709 ] final  -66.76 input   66.30 | X-H torsion
[ 10763 10752 10751 10750 ] final -113.54 input  -60.55 | X-H torsion
[ 11005 11000 10999 10996 ] final -127.90 input  -57.11 | X-H torsion

> <Gold.Protein.ActiveResidues>
 VAL166  LYS551  ARG553  GLY616  TRP617  ASP618  TYR619  PRO620  LYS621  CYS622 
 ASP623  PHE694  ASN695  SER759  ASP760  ASP761  ALA762  ILE779  LEU786  VAL792 
 PHE793  MET794  SER795  GLU796  ALA797  LYS798  CYS799  TRP800  GLU811  SER814 

> <Gold.Protein.RotatedAtoms>
  151.8473  135.0570  160.0454 H   0  0  0  0  0  0  0  0  0  0  0  0  # atno 6907 bound_to 6896
  152.2763  133.5424  159.5478 H   0  0  0  0  0  0  0  0  0  0  0  0  # atno 6908 bound_to 6896
  150.7171  134.0543  159.3851 H   0  0  0  0  0  0  0  0  0  0  0  0  # atno 6909 bound_to 6896
  145.9701  140.7392  142.9415 H   0  0  0  0  0  0  0  0  0  0  0  0  # atno 7974 bound_to 7965
  156.1753  140.1654  156.8374 H   0  0  0  0  0  0  0  0  0  0  0  0  # atno 8008 bound_to 7997
  154.5300  140.0759  156.8361 H   0  0  0  0  0  0  0  0  0  0  0  0  # atno 8009 bound_to 7997
  155.3427  140.3385  155.4241 H   0  0  0  0  0  0  0  0  0  0  0  0  # atno 8010 bound_to 7997
  140.6929  143.2975  151.3372 H   0  0  0  0  0  0  0  0  0  0  0  0  # atno 10167 bound_to 10162
  156.0595  130.4267  150.1755 H   0  0  0  0  0  0  0  0  0  0  0  0  # atno 10718 bound_to 10713
  154.8401  135.4450  154.1365 H   0  0  0  0  0  0  0  0  0  0  0  0  # atno 10763 bound_to 10752
  153.2562  135.6931  153.7633 H   0  0  0  0  0  0  0  0  0  0  0  0  # atno 10764 bound_to 10752
  153.6927  135.3384  155.3181 H   0  0  0  0  0  0  0  0  0  0  0  0  # atno 10765 bound_to 10752
  140.9561  134.1000  157.4015 H   0  0  0  0  0  0  0  0  0  0  0  0  # atno 11005 bound_to 11000
  144.6835  140.2734  143.7302 LP  0  0  0  0  0  0  0  0  0  0  0  0  # atno 17320 bound_to 7965
  145.7918  139.1930  143.2098 LP  0  0  0  0  0  0  0  0  0  0  0  0  # atno 17321 bound_to 7965
  139.6350  144.0647  152.2508 LP  0  0  0  0  0  0  0  0  0  0  0  0  # atno 17342 bound_to 10162
  140.0134  144.6207  150.7628 LP  0  0  0  0  0  0  0  0  0  0  0  0  # atno 17343 bound_to 10162
  156.9826  130.9869  151.3434 LP  0  0  0  0  0  0  0  0  0  0  0  0  # atno 17370 bound_to 10713
  157.5592  130.8234  149.8243 LP  0  0  0  0  0  0  0  0  0  0  0  0  # atno 17371 bound_to 10713
  139.8862  135.0080  156.6487 LP  0  0  0  0  0  0  0  0  0  0  0  0  # atno 17394 bound_to 11000
  140.7534  133.8878  155.8364 LP  0  0  0  0  0  0  0  0  0  0  0  0  # atno 17395 bound_to 11000

$$$$
