AV-unprocessed.smi:2156|AV-procd|sdf|8780|dock7
  -GOLD-   2272011563D 1   1.00000     0.00000
 Structure written by MMmdl.
 34 34  0  0  0  0  0  0  0  0  1 V2000
  153.1464  142.6056  162.5936 C   0  0  0  0  0  0  0  0  0  0  0  0
  152.3431  143.4977  161.6411 C   0  0  0  0  0  0  0  0  0  0  0  0
  152.4265  143.0245  160.1794 C   0  0  0  0  0  0  0  0  0  0  0  0
  151.3369  143.6167  159.2630 C   0  0  1  0  0  0  0  0  0  0  0  0
  151.4540  145.1437  159.1616 C   0  0  0  0  0  0  0  0  0  0  0  0
  151.4173  143.0430  157.9206 N   0  0  0  0  0  0  0  0  0  0  0  0
  150.4893  142.2692  157.3355 C   0  0  0  0  0  0  0  0  0  0  0  0
  149.4440  141.9278  157.8906 O   0  0  0  0  0  0  0  0  0  0  0  0
  150.8150  141.7884  155.9144 C   0  0  0  0  0  0  0  0  0  0  0  0
  149.6850  141.1071  155.2661 N   0  0  0  0  0  0  0  0  0  0  0  0
  148.4062  141.6400  155.3465 C   0  0  0  0  0  0  0  0  0  0  0  0
  147.3241  141.0733  154.7619 C   0  0  0  0  0  0  0  0  0  0  0  0
  147.4598  139.8384  153.9969 C   0  0  0  0  0  0  0  0  0  0  0  0
  146.5408  139.2487  153.4329 O   0  0  0  0  0  0  0  0  0  0  0  0
  148.7621  139.3351  153.9371 N   0  0  0  0  0  0  0  0  0  0  0  0
  149.8818  139.9150  154.5356 C   0  0  0  0  0  0  0  0  0  0  0  0
  150.9884  139.3900  154.4161 O   0  0  0  0  0  0  0  0  0  0  0  0
  148.9059  138.4828  153.4154 H   0  0  0  0  0  0  0  0  0  0  0  0
  153.0671  142.9637  163.6202 H   0  0  0  0  0  0  0  0  0  0  0  0
  154.2034  142.5944  162.3261 H   0  0  0  0  0  0  0  0  0  0  0  0
  152.7829  141.5780  162.5705 H   0  0  0  0  0  0  0  0  0  0  0  0
  151.3039  143.5166  161.9701 H   0  0  0  0  0  0  0  0  0  0  0  0
  152.7088  144.5225  161.7150 H   0  0  0  0  0  0  0  0  0  0  0  0
  153.4050  143.2964  159.7812 H   0  0  0  0  0  0  0  0  0  0  0  0
  152.3802  141.9350  160.1473 H   0  0  0  0  0  0  0  0  0  0  0  0
  150.3640  143.3980  159.7069 H   0  0  0  0  0  0  0  0  0  0  0  0
  151.3650  145.6100  160.1431 H   0  0  0  0  0  0  0  0  0  0  0  0
  150.6668  145.5568  158.5301 H   0  0  0  0  0  0  0  0  0  0  0  0
  152.4131  145.4424  158.7370 H   0  0  0  0  0  0  0  0  0  0  0  0
  152.2472  143.2605  157.3880 H   0  0  0  0  0  0  0  0  0  0  0  0
  151.1459  142.6315  155.3044 H   0  0  0  0  0  0  0  0  0  0  0  0
  151.6758  141.1206  155.9722 H   0  0  0  0  0  0  0  0  0  0  0  0
  148.2593  142.5573  155.8988 H   0  0  0  0  0  0  0  0  0  0  0  0
  146.3533  141.5374  154.8594 H   0  0  0  0  0  0  0  0  0  0  0  0
  1  2  1  0  0  0  0
  1 19  1  0  0  0  0
  1 20  1  0  0  0  0
  1 21  1  0  0  0  0
  2  3  1  0  0  0  0
  2 22  1  0  0  0  0
  2 23  1  0  0  0  0
  3  4  1  0  0  0  0
  3 24  1  0  0  0  0
  3 25  1  0  0  0  0
  4  5  1  0  0  0  0
  4  6  1  0  0  0  0
  4 26  1  0  0  0  0
  5 27  1  0  0  0  0
  5 28  1  0  0  0  0
  5 29  1  0  0  0  0
  6  7  1  0  0  0  0
  6 30  1  0  0  0  0
  7  8  2  0  0  0  0
  7  9  1  0  0  0  0
  9 10  1  0  0  0  0
  9 31  1  0  0  0  0
  9 32  1  0  0  0  0
 10 16  1  0  0  0  0
 10 11  1  0  0  0  0
 11 12  2  0  0  0  0
 11 33  1  0  0  0  0
 12 13  1  0  0  0  0
 12 34  1  0  0  0  0
 13 14  2  0  0  0  0
 13 15  1  0  0  0  0
 15 18  1  0  0  0  0
 15 16  1  0  0  0  0
 16 17  2  0  0  0  0
M  END
> <s_m_source_file>
AV-unprocessed.smi

> <i_m_source_file_index>
2156

> <i_lp_mmshare_version>
43012

> <i_f3d_flags>
0

> <s_epik_input>
W0NIM11bQ0gyXVtDSDJdW0NASF0oW0NIM10pW05IXUMoPU8pW0NIMl1uMVtjSF1bY0hdYyg9TylbbkhdYzE9Tw==

> <s_epik_cmdline>
J2VwaWtfcHl0aG9uJywgJy1waCcsICc3LjAnLCAnLXRuJywgJzgnLCAnLW1hJywgJzIwMCcsICctbWV0YWxfYmluZGluZycsICctaW1hZScsICc8aW5maWxlLm1hZT4nLCAnLW9tYWUnLCAnPG91dGZpbGUubWFlPic=

> <r_lp_tautomer_probability>
0.999537

> <r_epik_Ionization_Penalty>
0.00324917

> <r_epik_Ionization_Penalty_Charging>
0.00324916

> <r_epik_Ionization_Penalty_Neutral>
1.93017e-08

> <r_epik_State_Penalty>
0.00229371

> <r_epik_Charging_Adjusted_Penalty>
0.00554286

> <i_epik_Tot_Q>
0

> <i_epik_Tot_abs_Q>
0

> <r_epik_Metal_State_Penalty>
0.364744

> <b_epik_Metal_Only>
0

> <s_lp_Force_Field>
OPLS_2005

> <r_lp_Energy>
3.29576

> <b_lp_Chiralities_Consistent>
1

> <s_lp_Variant>
AV-unprocessed.smi:2156-2

> <Gold.Version>
5.8.1

> <Gold.Id.Protein>
6NUR|6NUR_protein|mol2

> <Gold.PLP.Fitness>
41.2900

> <Gold.PLP.PLP>
-37.0623

> <Gold.PLP.part.hbond>
-2.0000

> <Gold.PLP.part.metal>
0.0000

> <Gold.PLP.part.buried>
-4.2110

> <Gold.PLP.part.nonpolar>
-31.2695

> <Gold.PLP.part.repulsive>
0.5506

> <Gold.PLP.ligand.clash>
0.0000

> <Gold.PLP.ligand.torsion>
0.3690

> <Gold.PLP.Chemscore.Hbond>
0.6500

> <Gold.PLP.Chemscore.CHOScore>
1.0000

> <Gold.PLP.Chemscore.Metal>
0.0000

> <Gold.Chemscore.Hbonds>
donor molecule, donor type, donor heavy atom, donor atom, acceptor molecule, acceptor atom, score
      P1  H  7989  7998       L1    17  0.60
      L1  C    11    33       P1  8028  1.00

> <Gold.PLP.Chemscore.Internal.Correction>
0.0157

> <Gold.Rescore>
     Score         DG    S(hbond)    S(metal)    S(lipo)     H(rot)  DE(clash)    DE(int)     intcor
      9.05      -9.28       0.00        0.00      80.46       2.19       0.02       0.21       ----

> <Gold.Chemscore.Fitness>
9.0458

> <Gold.Chemscore.DG>
-9.2755

> <Gold.Chemscore.ZeroCoef>
-5.4800

> <Gold.Chemscore.Hbond>
0.0000

> <Gold.Chemscore.Metal>
0.0000

> <Gold.Chemscore.Lipo>
80.4639

> <Gold.Chemscore.Internal_Hbond>
0.0000

> <Gold.Chemscore.DEClash>
0.0237

> <Gold.Chemscore.DEInternal>
0.2059

> <Gold.Chemscore.Rot>
2.1949

> <Gold.Chemscore.Internal.Correction>
   9.000000E+99

> <Gold.Chemscore.Hbonds>
donor molecule, donor type, donor heavy atom, donor atom, acceptor molecule, acceptor atom, score
      P1  H  7989  7998       L1    17  0.04

> <Gold.Chemscore.Hbond.Weighted>
-0.0000

> <Gold.Chemscore.Metal.Weighted>
-0.0000

> <Gold.Chemscore.Lipo.Weighted>
-9.4143

> <Gold.Chemscore.Internal_Hbond.Weighted>
0.0000

> <Gold.Chemscore.DEClash.Weighted>
0.0237

> <Gold.Chemscore.DEInternal.Weighted>
0.2059

> <Gold.Chemscore.Rot.Weighted>
5.6188

> <Gold.Chemscore.Internal.Correction.Weighted>
   9.000000E+99

> <Gold.Protein.RotatedTorsions>
[ 6907 6896 6895 6894 ] final  126.45 input  -60.11 | X-H torsion
[ 7974 7965 7964 7962 ] final   11.23 input  175.53 | X-H torsion
[ 8008 7997 7996 7995 ] final   86.96 input   59.86 | X-H torsion
[ 10167 10162 10161 10158 ] final   31.80 input  -65.29 | X-H torsion
[ 10718 10713 10712 10709 ] final -111.81 input   66.30 | X-H torsion
[ 10763 10752 10751 10750 ] final -144.14 input  -60.55 | X-H torsion
[ 11005 11000 10999 10996 ] final -168.10 input  -57.11 | X-H torsion

> <Gold.Protein.ActiveResidues>
 VAL166  LYS551  ARG553  GLY616  TRP617  ASP618  TYR619  PRO620  LYS621  CYS622 
 ASP623  PHE694  ASN695  SER759  ASP760  ASP761  ALA762  ILE779  LEU786  VAL792 
 PHE793  MET794  SER795  GLU796  ALA797  LYS798  CYS799  TRP800  GLU811  SER814 

> <Gold.Protein.RotatedAtoms>
  152.3902  133.6668  159.6231 H   0  0  0  0  0  0  0  0  0  0  0  0  # atno 6907 bound_to 6896
  150.7812  133.8967  159.3338 H   0  0  0  0  0  0  0  0  0  0  0  0  # atno 6908 bound_to 6896
  151.6755  135.0971  160.0257 H   0  0  0  0  0  0  0  0  0  0  0  0  # atno 6909 bound_to 6896
  146.2375  139.9516  142.8470 H   0  0  0  0  0  0  0  0  0  0  0  0  # atno 7974 bound_to 7965
  155.9694  140.3387  155.6562 H   0  0  0  0  0  0  0  0  0  0  0  0  # atno 8008 bound_to 7997
  155.6694  140.0725  157.2544 H   0  0  0  0  0  0  0  0  0  0  0  0  # atno 8009 bound_to 7997
  154.4163  140.1694  156.1850 H   0  0  0  0  0  0  0  0  0  0  0  0  # atno 8010 bound_to 7997
  140.4556  144.0983  150.6201 H   0  0  0  0  0  0  0  0  0  0  0  0  # atno 10167 bound_to 10162
  156.0668  130.5887  150.8423 H   0  0  0  0  0  0  0  0  0  0  0  0  # atno 10718 bound_to 10713
  154.8440  135.3448  154.6299 H   0  0  0  0  0  0  0  0  0  0  0  0  # atno 10763 bound_to 10752
  153.6909  135.6975  153.5095 H   0  0  0  0  0  0  0  0  0  0  0  0  # atno 10764 bound_to 10752
  153.2596  135.4327  155.0836 H   0  0  0  0  0  0  0  0  0  0  0  0  # atno 10765 bound_to 10752
  140.5457  134.5478  157.5110 H   0  0  0  0  0  0  0  0  0  0  0  0  # atno 11005 bound_to 11000
  145.1856  140.9787  143.4241 LP  0  0  0  0  0  0  0  0  0  0  0  0  # atno 17320 bound_to 7965
  144.9903  139.3696  143.6218 LP  0  0  0  0  0  0  0  0  0  0  0  0  # atno 17321 bound_to 7965
  140.4155  143.2636  151.9780 LP  0  0  0  0  0  0  0  0  0  0  0  0  # atno 17342 bound_to 10162
  139.4801  144.5878  151.7824 LP  0  0  0  0  0  0  0  0  0  0  0  0  # atno 17343 bound_to 10162
  157.5715  131.0946  150.9410 LP  0  0  0  0  0  0  0  0  0  0  0  0  # atno 17370 bound_to 10713
  156.9625  130.5460  149.5286 LP  0  0  0  0  0  0  0  0  0  0  0  0  # atno 17371 bound_to 10713
  139.9481  134.7666  156.0514 LP  0  0  0  0  0  0  0  0  0  0  0  0  # atno 17394 bound_to 11000
  141.1201  133.6615  156.3193 LP  0  0  0  0  0  0  0  0  0  0  0  0  # atno 17395 bound_to 11000

$$$$
