AV-unprocessed.smi:1334|AV-procd|sdf|5492|dock4
  -GOLD-   22720 5 73D 1   1.00000     0.00000
 Structure written by MMmdl.
 38 39  0  0  0  0  0  0  0  0  1 V2000
  150.0269  138.9087  158.5243 C   0  0  0  0  0  0  0  0  0  0  0  0
  151.2572  138.4312  157.7269 C   0  0  2  0  0  0  0  0  0  0  0  0
  152.5426  139.1515  158.1581 C   0  0  0  0  0  0  0  0  0  0  0  0
  153.4361  139.3719  157.3397 O   0  0  0  0  0  0  0  0  0  0  0  0
  152.6262  139.4946  159.4538 N   0  0  0  0  0  0  0  0  0  0  0  0
  153.7863  140.1052  160.0983 C   0  0  0  0  0  0  0  0  0  0  0  0
  153.3815  141.2673  161.0259 C   0  0  0  0  0  0  0  0  0  0  0  0
  152.8235  142.4872  160.3043 C   0  0  0  0  0  0  0  0  0  0  0  0
  152.7343  142.5368  158.9604 C   0  0  0  0  0  0  0  0  0  0  0  0
  152.2349  143.7390  158.1785 C   0  0  0  0  0  0  0  0  0  0  0  0
  152.1405  145.0071  159.0431 C   0  0  0  0  0  0  0  0  0  0  0  0
  151.5556  144.6971  160.4260 C   0  0  0  0  0  0  0  0  0  0  0  0
  152.4147  143.6669  161.1798 C   0  0  0  0  0  0  0  0  0  0  0  0
  151.0722  138.5641  156.2867 N   0  0  0  0  0  0  0  0  0  0  0  0
  150.9474  139.6612  155.5371 C   0  0  0  0  0  0  0  0  0  0  0  0
  150.7486  139.4154  154.2498 N   0  0  0  0  0  0  0  0  0  0  0  0
  150.7428  138.0500  154.2767 C   0  0  0  0  0  0  0  0  0  0  0  0
  150.9211  137.4893  155.4723 N   0  0  0  0  0  0  0  0  0  0  0  0
  150.1664  138.7469  159.5936 H   0  0  0  0  0  0  0  0  0  0  0  0
  149.1341  138.3588  158.2253 H   0  0  0  0  0  0  0  0  0  0  0  0
  149.8257  139.9704  158.3761 H   0  0  0  0  0  0  0  0  0  0  0  0
  151.3819  137.3669  157.9348 H   0  0  0  0  0  0  0  0  0  0  0  0
  151.8406  139.2785  160.0500 H   0  0  0  0  0  0  0  0  0  0  0  0
  154.3600  139.3701  160.6645 H   0  0  0  0  0  0  0  0  0  0  0  0
  154.4580  140.4727  159.3222 H   0  0  0  0  0  0  0  0  0  0  0  0
  152.6443  140.9209  161.7508 H   0  0  0  0  0  0  0  0  0  0  0  0
  154.2537  141.5709  161.6064 H   0  0  0  0  0  0  0  0  0  0  0  0
  153.0273  141.6804  158.3708 H   0  0  0  0  0  0  0  0  0  0  0  0
  152.8991  143.9181  157.3329 H   0  0  0  0  0  0  0  0  0  0  0  0
  151.2588  143.4909  157.7635 H   0  0  0  0  0  0  0  0  0  0  0  0
  153.1350  145.4379  159.1661 H   0  0  0  0  0  0  0  0  0  0  0  0
  151.5382  145.7605  158.5347 H   0  0  0  0  0  0  0  0  0  0  0  0
  151.4679  145.6106  161.0146 H   0  0  0  0  0  0  0  0  0  0  0  0
  150.5435  144.3078  160.3089 H   0  0  0  0  0  0  0  0  0  0  0  0
  151.8618  143.3178  162.0512 H   0  0  0  0  0  0  0  0  0  0  0  0
  153.3234  144.1392  161.5544 H   0  0  0  0  0  0  0  0  0  0  0  0
  150.9998  140.6612  155.9423 H   0  0  0  0  0  0  0  0  0  0  0  0
  150.5943  137.4519  153.3900 H   0  0  0  0  0  0  0  0  0  0  0  0
  1  2  1  0  0  0  0
  1 19  1  0  0  0  0
  1 20  1  0  0  0  0
  1 21  1  0  0  0  0
  2  3  1  0  0  0  0
  2 14  1  0  0  0  0
  2 22  1  0  0  0  0
  3  4  2  0  0  0  0
  3  5  1  0  0  0  0
  5  6  1  0  0  0  0
  5 23  1  0  0  0  0
  6  7  1  0  0  0  0
  6 24  1  0  0  0  0
  6 25  1  0  0  0  0
  7  8  1  0  0  0  0
  7 26  1  0  0  0  0
  7 27  1  0  0  0  0
  8 13  1  0  0  0  0
  8  9  2  0  0  0  0
  9 10  1  0  0  0  0
  9 28  1  0  0  0  0
 10 11  1  0  0  0  0
 10 29  1  0  0  0  0
 10 30  1  0  0  0  0
 11 12  1  0  0  0  0
 11 31  1  0  0  0  0
 11 32  1  0  0  0  0
 12 13  1  0  0  0  0
 12 33  1  0  0  0  0
 12 34  1  0  0  0  0
 13 35  1  0  0  0  0
 13 36  1  0  0  0  0
 14 18  1  0  0  0  0
 14 15  1  0  0  0  0
 15 16  2  0  0  0  0
 15 37  1  0  0  0  0
 16 17  1  0  0  0  0
 17 18  2  0  0  0  0
 17 38  1  0  0  0  0
M  END
> <s_m_source_file>
AV-unprocessed.smi

> <i_m_source_file_index>
1334

> <i_lp_mmshare_version>
43012

> <i_f3d_flags>
0

> <s_epik_input>
bjFbY0hdbltjSF1uMVtDQEhdKFtDSDNdKUMoPU8pW05IXVtDSDJdW0NIMl1DMj1bQ0hdW0NIMl1bQ0gyXVtDSDJdW0NIMl0y

> <s_epik_cmdline>
J2VwaWtfcHl0aG9uJywgJy1waCcsICc3LjAnLCAnLXRuJywgJzgnLCAnLW1hJywgJzIwMCcsICctbWV0YWxfYmluZGluZycsICctaW1hZScsICc8aW5maWxlLm1hZT4nLCAnLW9tYWUnLCAnPG91dGZpbGUubWFlPic=

> <r_lp_tautomer_probability>
1

> <r_epik_Ionization_Penalty>
1.26383e-05

> <r_epik_Ionization_Penalty_Charging>
0

> <r_epik_Ionization_Penalty_Neutral>
1.26383e-05

> <r_epik_State_Penalty>
-0

> <r_epik_Charging_Adjusted_Penalty>
0

> <i_epik_Tot_Q>
0

> <i_epik_Tot_abs_Q>
0

> <r_epik_Metal_State_Penalty>
-0

> <b_epik_Metal_Only>
0

> <s_lp_Force_Field>
OPLS_2005

> <r_lp_Energy>
12.0281

> <b_lp_Chiralities_Consistent>
1

> <s_lp_Variant>
AV-unprocessed.smi:1334-1

> <Gold.Version>
5.8.1

> <Gold.Id.Protein>
6NUR|6NUR_protein|mol2

> <Gold.PLP.Fitness>
47.5315

> <Gold.PLP.PLP>
-40.2565

> <Gold.PLP.part.hbond>
-1.4589

> <Gold.PLP.part.metal>
0.0000

> <Gold.PLP.part.buried>
-5.1079

> <Gold.PLP.part.nonpolar>
-34.8886

> <Gold.PLP.part.repulsive>
0.3362

> <Gold.PLP.ligand.clash>
0.0000

> <Gold.PLP.ligand.torsion>
0.8721

> <Gold.PLP.Chemscore.Hbond>
1.7722

> <Gold.PLP.Chemscore.CHOScore>
1.1935

> <Gold.PLP.Chemscore.Metal>
0.0000

> <Gold.Chemscore.Hbonds>
donor molecule, donor type, donor heavy atom, donor atom, acceptor molecule, acceptor atom, score
      P1  H  7989  7998       L1    16  1.00
      P1  H  7997  8008       L1     4  0.68
      L1  C    17    38       P1  7948  0.54
      L1  C    17    38       P1  7949  0.61

> <Gold.PLP.Chemscore.Internal.Correction>
0.1221

> <Gold.Rescore>
     Score         DG    S(hbond)    S(metal)    S(lipo)     H(rot)  DE(clash)    DE(int)     intcor
     16.28     -17.25       1.92        0.00      98.31       2.40       0.01       0.96       ----

> <Gold.Chemscore.Fitness>
16.2756

> <Gold.Chemscore.DG>
-17.2468

> <Gold.Chemscore.ZeroCoef>
-5.4800

> <Gold.Chemscore.Hbond>
1.9196

> <Gold.Chemscore.Metal>
0.0000

> <Gold.Chemscore.Lipo>
98.3084

> <Gold.Chemscore.Internal_Hbond>
0.0000

> <Gold.Chemscore.DEClash>
0.0119

> <Gold.Chemscore.DEInternal>
0.9593

> <Gold.Chemscore.Rot>
2.4011

> <Gold.Chemscore.Internal.Correction>
   9.000000E+99

> <Gold.Chemscore.Hbonds>
donor molecule, donor type, donor heavy atom, donor atom, acceptor molecule, acceptor atom, score
      P1  H  7989  7998       L1    16  0.30
      P1  H  7997  8008       L1     4  0.68

> <Gold.Chemscore.Hbond.Weighted>
-6.4116

> <Gold.Chemscore.Metal.Weighted>
-0.0000

> <Gold.Chemscore.Lipo.Weighted>
-11.5021

> <Gold.Chemscore.Internal_Hbond.Weighted>
0.0000

> <Gold.Chemscore.DEClash.Weighted>
0.0119

> <Gold.Chemscore.DEInternal.Weighted>
0.9593

> <Gold.Chemscore.Rot.Weighted>
6.1469

> <Gold.Chemscore.Internal.Correction.Weighted>
   9.000000E+99

> <Gold.Protein.RotatedTorsions>
[ 6907 6896 6895 6894 ] final  136.41 input  -60.11 | X-H torsion
[ 7974 7965 7964 7962 ] final  -57.60 input  175.53 | X-H torsion
[ 8008 7997 7996 7995 ] final  -50.48 input   59.86 | X-H torsion
[ 10167 10162 10161 10158 ] final   98.37 input  -65.29 | X-H torsion
[ 10718 10713 10712 10709 ] final   46.76 input   66.30 | X-H torsion
[ 10763 10752 10751 10750 ] final  115.37 input  -60.55 | X-H torsion
[ 11005 11000 10999 10996 ] final   53.59 input  -57.11 | X-H torsion

> <Gold.Protein.ActiveResidues>
 VAL166  LYS551  ARG553  GLY616  TRP617  ASP618  TYR619  PRO620  LYS621  CYS622 
 ASP623  PHE694  ASN695  SER759  ASP760  ASP761  ALA762  ILE779  LEU786  VAL792 
 PHE793  MET794  SER795  GLU796  ALA797  LYS798  CYS799  TRP800  GLU811  SER814 

> <Gold.Protein.RotatedAtoms>
  152.2897  133.5549  159.5549 H   0  0  0  0  0  0  0  0  0  0  0  0  # atno 6907 bound_to 6896
  150.7230  134.0446  159.3786 H   0  0  0  0  0  0  0  0  0  0  0  0  # atno 6908 bound_to 6896
  151.8353  135.0608  160.0492 H   0  0  0  0  0  0  0  0  0  0  0  0  # atno 6909 bound_to 6896
  145.8492  140.8364  142.9994 H   0  0  0  0  0  0  0  0  0  0  0  0  # atno 7974 bound_to 7965
  154.4063  140.1271  156.4673 H   0  0  0  0  0  0  0  0  0  0  0  0  # atno 8008 bound_to 7997
  155.7213  140.3492  155.4998 H   0  0  0  0  0  0  0  0  0  0  0  0  # atno 8009 bound_to 7997
  155.9211  140.1053  157.1196 H   0  0  0  0  0  0  0  0  0  0  0  0  # atno 8010 bound_to 7997
  139.7715  144.6921  151.0150 H   0  0  0  0  0  0  0  0  0  0  0  0  # atno 10167 bound_to 10162
  157.4515  130.8141  149.7793 H   0  0  0  0  0  0  0  0  0  0  0  0  # atno 10718 bound_to 10713
  153.5212  135.3597  155.2633 H   0  0  0  0  0  0  0  0  0  0  0  0  # atno 10763 bound_to 10752
  154.8735  135.4046  154.3258 H   0  0  0  0  0  0  0  0  0  0  0  0  # atno 10764 bound_to 10752
  153.3929  135.7072  153.6549 H   0  0  0  0  0  0  0  0  0  0  0  0  # atno 10765 bound_to 10752
  140.0755  134.5410  155.9001 H   0  0  0  0  0  0  0  0  0  0  0  0  # atno 11005 bound_to 11000
  144.6730  140.0927  143.7464 LP  0  0  0  0  0  0  0  0  0  0  0  0  # atno 17320 bound_to 7965
  145.9377  139.2648  143.1287 LP  0  0  0  0  0  0  0  0  0  0  0  0  # atno 17321 bound_to 7965
  140.7814  143.4583  151.0313 LP  0  0  0  0  0  0  0  0  0  0  0  0  # atno 17342 bound_to 10162
  139.8267  143.7746  152.3179 LP  0  0  0  0  0  0  0  0  0  0  0  0  # atno 17343 bound_to 10162
  155.9989  130.3892  150.2684 LP  0  0  0  0  0  0  0  0  0  0  0  0  # atno 17370 bound_to 10713
  157.0856  131.0155  151.3140 LP  0  0  0  0  0  0  0  0  0  0  0  0  # atno 17371 bound_to 10713
  141.2028  133.6627  156.6026 LP  0  0  0  0  0  0  0  0  0  0  0  0  # atno 17394 bound_to 11000
  140.3564  134.7725  157.4503 LP  0  0  0  0  0  0  0  0  0  0  0  0  # atno 17395 bound_to 11000

$$$$
