AV-unprocessed.smi:1958|AV-procd|sdf|7906|dock4
  -GOLD-   2272010 63D 1   1.00000     0.00000
 Structure written by MMmdl.
 47 48  0  0  0  0  0  0  0  0  1 V2000
  146.1845  142.2489  155.2524 C   0  0  0  0  0  0  0  0  0  0  0  0
  146.8601  141.2048  154.5742 O   0  0  0  0  0  0  0  0  0  0  0  0
  148.1641  141.5794  154.1605 C   0  0  0  0  0  0  0  0  0  0  0  0
  149.1856  141.1291  155.2178 C   0  0  0  0  0  0  0  0  0  0  0  0
  149.5773  139.7270  155.0350 N   0  0  0  0  0  0  0  0  0  0  0  0
  148.5091  138.8490  154.9635 N   0  0  0  0  0  0  0  0  0  0  0  0
  148.7180  137.5798  154.8221 C   0  0  0  0  0  0  0  0  0  0  0  0
  147.5966  136.6033  154.7467 C   0  0  0  0  0  0  0  0  0  0  0  0
  146.6808  136.5983  155.5710 O   0  0  0  0  0  0  0  0  0  0  0  0
  147.6661  135.7315  153.7250 N   0  0  0  0  0  0  0  0  0  0  0  0
  146.7243  134.6484  153.4521 C   0  0  0  0  0  0  0  0  0  0  0  0
  146.0641  134.7775  152.0538 C   0  0  2  0  0  0  0  0  0  0  0  0
  145.2736  136.1045  152.0047 C   0  0  0  0  0  0  0  0  0  0  0  0
  145.2630  133.5986  151.6570 N   0  0  0  0  0  0  0  0  0  0  0  0
  146.0748  132.3844  151.5306 C   0  0  0  0  0  0  0  0  0  0  0  0
  145.2438  131.1606  151.1091 C   0  0  0  0  0  0  0  0  0  0  0  0
  144.5768  131.4352  149.8843 O   0  0  0  0  0  0  0  0  0  0  0  0
  143.7248  132.5695  149.9779 C   0  0  0  0  0  0  0  0  0  0  0  0
  144.5455  133.8021  150.3954 C   0  0  0  0  0  0  0  0  0  0  0  0
  150.0696  137.0544  154.7294 C   0  0  0  0  0  0  0  0  0  0  0  0
  151.1018  137.9233  154.8005 C   0  0  0  0  0  0  0  0  0  0  0  0
  150.8933  139.3624  154.9672 C   0  0  0  0  0  0  0  0  0  0  0  0
  151.8171  140.1719  155.0441 O   0  0  0  0  0  0  0  0  0  0  0  0
  145.1896  141.9125  155.5446 H   0  0  0  0  0  0  0  0  0  0  0  0
  146.0690  143.1249  154.6128 H   0  0  0  0  0  0  0  0  0  0  0  0
  146.7192  142.5431  156.1565 H   0  0  0  0  0  0  0  0  0  0  0  0
  148.3932  141.1016  153.2071 H   0  0  0  0  0  0  0  0  0  0  0  0
  148.2209  142.6575  154.0031 H   0  0  0  0  0  0  0  0  0  0  0  0
  150.0627  141.7777  155.1789 H   0  0  0  0  0  0  0  0  0  0  0  0
  148.7678  141.2714  156.2161 H   0  0  0  0  0  0  0  0  0  0  0  0
  148.4559  135.8081  153.1001 H   0  0  0  0  0  0  0  0  0  0  0  0
  147.2105  133.6769  153.5549 H   0  0  0  0  0  0  0  0  0  0  0  0
  145.9674  134.6572  154.2358 H   0  0  0  0  0  0  0  0  0  0  0  0
  146.8817  134.8833  151.3389 H   0  0  0  0  0  0  0  0  0  0  0  0
  145.8570  136.9280  152.4167 H   0  0  0  0  0  0  0  0  0  0  0  0
  144.3467  136.0402  152.5756 H   0  0  0  0  0  0  0  0  0  0  0  0
  145.0211  136.3926  150.9848 H   0  0  0  0  0  0  0  0  0  0  0  0
  146.8726  132.5470  150.8043 H   0  0  0  0  0  0  0  0  0  0  0  0
  146.5550  132.1438  152.4776 H   0  0  0  0  0  0  0  0  0  0  0  0
  145.8893  130.2923  150.9756 H   0  0  0  0  0  0  0  0  0  0  0  0
  144.5161  130.9033  151.8803 H   0  0  0  0  0  0  0  0  0  0  0  0
  143.2514  132.7400  149.0109 H   0  0  0  0  0  0  0  0  0  0  0  0
  142.9264  132.3760  150.6962 H   0  0  0  0  0  0  0  0  0  0  0  0
  143.8556  134.6405  150.4793 H   0  0  0  0  0  0  0  0  0  0  0  0
  145.2529  134.0525  149.6033 H   0  0  0  0  0  0  0  0  0  0  0  0
  150.2534  135.9968  154.6064 H   0  0  0  0  0  0  0  0  0  0  0  0
  152.1120  137.5464  154.7336 H   0  0  0  0  0  0  0  0  0  0  0  0
  1  2  1  0  0  0  0
  1 24  1  0  0  0  0
  1 25  1  0  0  0  0
  1 26  1  0  0  0  0
  2  3  1  0  0  0  0
  3  4  1  0  0  0  0
  3 27  1  0  0  0  0
  3 28  1  0  0  0  0
  4  5  1  0  0  0  0
  4 29  1  0  0  0  0
  4 30  1  0  0  0  0
  5 22  1  0  0  0  0
  5  6  1  0  0  0  0
  6  7  2  0  0  0  0
  7  8  1  0  0  0  0
  7 20  1  0  0  0  0
  8  9  2  0  0  0  0
  8 10  1  0  0  0  0
 10 11  1  0  0  0  0
 10 31  1  0  0  0  0
 11 12  1  0  0  0  0
 11 32  1  0  0  0  0
 11 33  1  0  0  0  0
 12 13  1  0  0  0  0
 12 14  1  0  0  0  0
 12 34  1  0  0  0  0
 13 35  1  0  0  0  0
 13 36  1  0  0  0  0
 13 37  1  0  0  0  0
 14 19  1  0  0  0  0
 14 15  1  0  0  0  0
 15 16  1  0  0  0  0
 15 38  1  0  0  0  0
 15 39  1  0  0  0  0
 16 17  1  0  0  0  0
 16 40  1  0  0  0  0
 16 41  1  0  0  0  0
 17 18  1  0  0  0  0
 18 19  1  0  0  0  0
 18 42  1  0  0  0  0
 18 43  1  0  0  0  0
 19 44  1  0  0  0  0
 19 45  1  0  0  0  0
 20 21  2  0  0  0  0
 20 46  1  0  0  0  0
 21 22  1  0  0  0  0
 21 47  1  0  0  0  0
 22 23  2  0  0  0  0
M  END
> <s_m_source_file>
AV-unprocessed.smi

> <i_m_source_file_index>
1958

> <i_lp_mmshare_version>
43012

> <i_f3d_flags>
0

> <s_epik_input>
W0NIM11PW0NIMl1bQ0gyXW4xbmMoW2NIXVtjSF1jMT1PKUMoPU8pW05IXVtDSDJdW0NASF0oW0NIM10pTjJbQ0gyXVtDSDJdT1tDSDJdW0NIMl0y

> <s_epik_cmdline>
J2VwaWtfcHl0aG9uJywgJy1waCcsICc3LjAnLCAnLXRuJywgJzgnLCAnLW1hJywgJzIwMCcsICctbWV0YWxfYmluZGluZycsICctaW1hZScsICc8aW5maWxlLm1hZT4nLCAnLW9tYWUnLCAnPG91dGZpbGUubWFlPic=

> <r_lp_tautomer_probability>
1

> <r_epik_Ionization_Penalty>
0.206669

> <r_epik_Ionization_Penalty_Charging>
5.75808e-09

> <r_epik_Ionization_Penalty_Neutral>
0.206669

> <r_epik_State_Penalty>
0.196651

> <r_epik_Charging_Adjusted_Penalty>
0.196651

> <i_epik_Tot_Q>
0

> <i_epik_Tot_abs_Q>
0

> <r_epik_Metal_State_Penalty>
0.198415

> <b_epik_Metal_Only>
0

> <s_lp_Force_Field>
OPLS_2005

> <r_lp_Energy>
53.7992

> <b_lp_Chiralities_Consistent>
1

> <s_lp_Variant>
AV-unprocessed.smi:1958-1

> <Gold.Version>
5.8.1

> <Gold.Id.Protein>
6NUR|6NUR_protein|mol2

> <Gold.PLP.Fitness>
38.8990

> <Gold.PLP.PLP>
-34.8489

> <Gold.PLP.part.hbond>
-2.7666

> <Gold.PLP.part.metal>
0.0000

> <Gold.PLP.part.buried>
-2.5508

> <Gold.PLP.part.nonpolar>
-30.2869

> <Gold.PLP.part.repulsive>
0.5434

> <Gold.PLP.ligand.clash>
0.0000

> <Gold.PLP.ligand.torsion>
1.3607

> <Gold.PLP.Chemscore.Hbond>
2.2140

> <Gold.PLP.Chemscore.CHOScore>
0.0000

> <Gold.PLP.Chemscore.Metal>
0.0000

> <Gold.Chemscore.Hbonds>
donor molecule, donor type, donor heavy atom, donor atom, acceptor molecule, acceptor atom, score
      L1  H    10    31       P1  7948  0.63
      P1  H  7989  7998       L1    23  0.84
      P1  H 10785 10796       L1    17  0.23

> <Gold.PLP.Chemscore.Internal.Correction>
0.1294

> <Gold.Rescore>
     Score         DG    S(hbond)    S(metal)    S(lipo)     H(rot)  DE(clash)    DE(int)     intcor
     10.90     -13.67       1.26        0.00      78.77       2.04       0.28       2.50       ----

> <Gold.Chemscore.Fitness>
10.8950

> <Gold.Chemscore.DG>
-13.6729

> <Gold.Chemscore.ZeroCoef>
-5.4800

> <Gold.Chemscore.Hbond>
1.2581

> <Gold.Chemscore.Metal>
0.0000

> <Gold.Chemscore.Lipo>
78.7729

> <Gold.Chemscore.Internal_Hbond>
0.0000

> <Gold.Chemscore.DEClash>
0.2806

> <Gold.Chemscore.DEInternal>
2.4973

> <Gold.Chemscore.Rot>
2.0413

> <Gold.Chemscore.Internal.Correction>
   9.000000E+99

> <Gold.Chemscore.Hbonds>
donor molecule, donor type, donor heavy atom, donor atom, acceptor molecule, acceptor atom, score
      L1  H    10    31       P1  7948  0.60
      P1  H  7989  7998       L1    23  0.19
      P1  H 10785 10796       L1    17  0.05

> <Gold.Chemscore.Hbond.Weighted>
-4.2022

> <Gold.Chemscore.Metal.Weighted>
-0.0000

> <Gold.Chemscore.Lipo.Weighted>
-9.2164

> <Gold.Chemscore.Internal_Hbond.Weighted>
0.0000

> <Gold.Chemscore.DEClash.Weighted>
0.2806

> <Gold.Chemscore.DEInternal.Weighted>
2.4973

> <Gold.Chemscore.Rot.Weighted>
5.2257

> <Gold.Chemscore.Internal.Correction.Weighted>
   9.000000E+99

> <Gold.Protein.RotatedTorsions>
[ 6907 6896 6895 6894 ] final -139.38 input  -60.11 | X-H torsion
[ 7974 7965 7964 7962 ] final  -66.24 input  175.53 | X-H torsion
[ 8008 7997 7996 7995 ] final   59.93 input   59.86 | X-H torsion
[ 10167 10162 10161 10158 ] final -168.76 input  -65.29 | X-H torsion
[ 10718 10713 10712 10709 ] final  171.10 input   66.30 | X-H torsion
[ 10763 10752 10751 10750 ] final   49.37 input  -60.55 | X-H torsion
[ 11005 11000 10999 10996 ] final   70.76 input  -57.11 | X-H torsion

> <Gold.Protein.ActiveResidues>
 VAL166  LYS551  ARG553  GLY616  TRP617  ASP618  TYR619  PRO620  LYS621  CYS622 
 ASP623  PHE694  ASN695  SER759  ASP760  ASP761  ALA762  ILE779  LEU786  VAL792 
 PHE793  MET794  SER795  GLU796  ALA797  LYS798  CYS799  TRP800  GLU811  SER814 

> <Gold.Protein.RotatedAtoms>
  151.0471  133.5656  159.2645 H   0  0  0  0  0  0  0  0  0  0  0  0  # atno 6907 bound_to 6896
  151.2681  135.0675  159.9133 H   0  0  0  0  0  0  0  0  0  0  0  0  # atno 6908 bound_to 6896
  152.5375  134.0206  159.8034 H   0  0  0  0  0  0  0  0  0  0  0  0  # atno 6909 bound_to 6896
  145.7443  140.8939  143.0513 H   0  0  0  0  0  0  0  0  0  0  0  0  # atno 7974 bound_to 7965
  155.5741  140.3490  155.4523 H   0  0  0  0  0  0  0  0  0  0  0  0  # atno 8008 bound_to 7997
  156.0422  140.1298  157.0168 H   0  0  0  0  0  0  0  0  0  0  0  0  # atno 8009 bound_to 7997
  154.4397  140.1022  156.6239 H   0  0  0  0  0  0  0  0  0  0  0  0  # atno 8010 bound_to 7997
  139.5965  144.1101  152.1695 H   0  0  0  0  0  0  0  0  0  0  0  0  # atno 10167 bound_to 10162
  156.9985  131.0169  151.2837 H   0  0  0  0  0  0  0  0  0  0  0  0  # atno 10718 bound_to 10713
  152.9787  135.5914  154.4078 H   0  0  0  0  0  0  0  0  0  0  0  0  # atno 10763 bound_to 10752
  154.3716  135.2767  155.2265 H   0  0  0  0  0  0  0  0  0  0  0  0  # atno 10764 bound_to 10752
  154.4217  135.6057  153.6069 H   0  0  0  0  0  0  0  0  0  0  0  0  # atno 10765 bound_to 10752
  139.9580  134.7110  156.0709 H   0  0  0  0  0  0  0  0  0  0  0  0  # atno 11005 bound_to 11000
  144.6864  139.9503  143.7478 LP  0  0  0  0  0  0  0  0  0  0  0  0  # atno 17320 bound_to 7965
  146.0418  139.3429  143.0692 LP  0  0  0  0  0  0  0  0  0  0  0  0  # atno 17321 bound_to 7965
  140.0688  144.5796  150.7207 LP  0  0  0  0  0  0  0  0  0  0  0  0  # atno 17342 bound_to 10162
  140.7216  143.2594  151.4260 LP  0  0  0  0  0  0  0  0  0  0  0  0  # atno 17343 bound_to 10162
  157.5408  130.8118  149.8026 LP  0  0  0  0  0  0  0  0  0  0  0  0  # atno 17370 bound_to 10713
  156.0180  130.3806  150.2050 LP  0  0  0  0  0  0  0  0  0  0  0  0  # atno 17371 bound_to 10713
  141.1254  133.6601  156.3322 LP  0  0  0  0  0  0  0  0  0  0  0  0  # atno 17394 bound_to 11000
  140.5565  134.5976  157.5422 LP  0  0  0  0  0  0  0  0  0  0  0  0  # atno 17395 bound_to 11000

$$$$
