AV-unprocessed.smi:3194|AV-procd|sdf|12212|dock1
  -GOLD-   2272018 53D 1   1.00000     0.00000
 Structure written by MMmdl.
 27 27  0  0  0  0  0  0  0  0  2 V2000
  153.8067  138.1367  154.6455 C   0  0  0  0  0  0  0  0  0  0  0  0
  152.5381  138.2184  155.5070 C   0  0  2  0  0  0  0  0  0  0  0  0
  151.2954  137.7674  154.7143 C   0  0  0  0  0  0  0  0  0  0  0  0
  151.4243  136.4306  154.2707 O   0  0  0  0  0  0  0  0  0  0  0  0
  152.3613  139.6023  155.9518 N   0  5  0  0  0  0  0  0  0  0  0  0
  151.1553  140.2342  156.0473 C   0  0  0  0  0  0  0  0  0  0  0  0
  150.4524  140.7377  155.1634 O   0  0  0  0  0  0  0  0  0  0  0  0
  150.6619  140.3046  157.5079 C   0  0  0  0  0  0  0  0  0  0  0  0
  149.4109  140.7731  157.5257 F   0  0  0  0  0  0  0  0  0  0  0  0
  150.6319  139.0734  158.0285 F   0  0  0  0  0  0  0  0  0  0  0  0
  151.5607  141.2195  158.3399 C   0  0  0  0  0  0  0  0  0  0  0  0
  151.6309  142.6072  158.0768 C   0  0  0  0  0  0  0  0  0  0  0  0
  152.4594  143.4080  158.8853 C   0  0  0  0  0  0  0  0  0  0  0  0
  153.1886  142.7987  159.9237 C   0  0  0  0  0  0  0  0  0  0  0  0
  153.0537  141.4088  160.1086 C   0  0  0  0  0  0  0  0  0  0  0  0
  152.2624  140.6316  159.3394 N   0  0  0  0  0  0  0  0  0  0  0  0
  152.6713  137.5263  156.3404 H   0  0  0  0  0  0  0  0  0  0  0  0
  153.9799  137.1166  154.3019 H   0  0  0  0  0  0  0  0  0  0  0  0
  154.6871  138.4449  155.2108 H   0  0  0  0  0  0  0  0  0  0  0  0
  153.7342  138.7758  153.7646 H   0  0  0  0  0  0  0  0  0  0  0  0
  150.3921  137.8587  155.3191 H   0  0  0  0  0  0  0  0  0  0  0  0
  151.1571  138.4007  153.8378 H   0  0  0  0  0  0  0  0  0  0  0  0
  150.7563  136.2641  153.6245 H   0  0  0  0  0  0  0  0  0  0  0  0
  151.0514  143.0521  157.2816 H   0  0  0  0  0  0  0  0  0  0  0  0
  152.5315  144.4718  158.7135 H   0  0  0  0  0  0  0  0  0  0  0  0
  153.8327  143.3817  160.5647 H   0  0  0  0  0  0  0  0  0  0  0  0
  153.5968  140.9072  160.8959 H   0  0  0  0  0  0  0  0  0  0  0  0
  1  2  1  0  0  0  0
  1 18  1  0  0  0  0
  1 19  1  0  0  0  0
  1 20  1  0  0  0  0
  2 17  1  0  0  0  0
  2  3  1  0  0  0  0
  2  5  1  0  0  0  0
  3  4  1  0  0  0  0
  3 21  1  0  0  0  0
  3 22  1  0  0  0  0
  4 23  1  0  0  0  0
  5  6  1  0  0  0  0
  6  7  2  0  0  0  0
  6  8  1  0  0  0  0
  8  9  1  0  0  0  0
  8 10  1  0  0  0  0
  8 11  1  0  0  0  0
 11 16  1  0  0  0  0
 11 12  2  0  0  0  0
 12 13  1  0  0  0  0
 12 24  1  0  0  0  0
 13 14  2  0  0  0  0
 13 25  1  0  0  0  0
 14 15  1  0  0  0  0
 14 26  1  0  0  0  0
 15 16  2  0  0  0  0
 15 27  1  0  0  0  0
M  CHG  1   5  -1
M  END
> <s_m_source_file>
AV-unprocessed.smi

> <i_m_source_file_index>
3194

> <i_lp_mmshare_version>
43012

> <i_f3d_flags>
0

> <s_epik_input>
W09IXVtDSDJdW0NASF0oW0NIM10pW05IXUMoPU8pQyhGKShGKWMxW2NIXVtjSF1bY0hdW2NIXW4x

> <s_epik_cmdline>
J2VwaWtfcHl0aG9uJywgJy1waCcsICc3LjAnLCAnLXRuJywgJzgnLCAnLW1hJywgJzIwMCcsICctbWV0YWxfYmluZGluZycsICctaW1hZScsICc8aW5maWxlLm1hZT4nLCAnLW9tYWUnLCAnPG91dGZpbGUubWFlPic=

> <r_lp_tautomer_probability>
1

> <r_epik_Ionization_Penalty>
5.78943

> <r_epik_Ionization_Penalty_Charging>
5.78942

> <r_epik_Ionization_Penalty_Neutral>
4.0054e-06

> <r_epik_State_Penalty>
5.78939

> <r_epik_Charging_Adjusted_Penalty>
11.5788

> <i_epik_Tot_Q>
-1

> <i_epik_Tot_abs_Q>
1

> <r_epik_Metal_State_Penalty>
1.76064

> <b_epik_Metal_Only>
1

> <s_lp_Force_Field>
OPLS_2005

> <r_lp_Energy>
16.8834

> <b_lp_Chiralities_Consistent>
1

> <s_lp_Variant>
AV-unprocessed.smi:3194-4

> <Gold.Version>
5.8.1

> <Gold.Id.Protein>
6NUR|6NUR_protein|mol2

> <Gold.PLP.Fitness>
44.1127

> <Gold.PLP.PLP>
-33.4814

> <Gold.PLP.part.hbond>
-3.9964

> <Gold.PLP.part.metal>
0.0000

> <Gold.PLP.part.buried>
-2.7801

> <Gold.PLP.part.nonpolar>
-27.2233

> <Gold.PLP.part.repulsive>
0.0834

> <Gold.PLP.ligand.clash>
0.0000

> <Gold.PLP.ligand.torsion>
1.2581

> <Gold.PLP.Chemscore.Hbond>
4.3400

> <Gold.PLP.Chemscore.CHOScore>
0.0000

> <Gold.PLP.Chemscore.Metal>
0.0000

> <Gold.Chemscore.Hbonds>
donor molecule, donor type, donor heavy atom, donor atom, acceptor molecule, acceptor atom, score
      L1  H     4    23       P1  7949  0.19
      P1  H  7989  7998       L1     7  0.84
      P1  H  7997  8008       L1     5  1.76
      P1  H 10752 10764       L1     4  1.00

> <Gold.PLP.Chemscore.Internal.Correction>
0.1275

> <Gold.Rescore>
     Score         DG    S(hbond)    S(metal)    S(lipo)     H(rot)  DE(clash)    DE(int)     intcor
     13.46     -15.02       1.94        0.00      79.13       2.43       0.25       1.31       ----

> <Gold.Chemscore.Fitness>
13.4612

> <Gold.Chemscore.DG>
-15.0164

> <Gold.Chemscore.ZeroCoef>
-5.4800

> <Gold.Chemscore.Hbond>
1.9439

> <Gold.Chemscore.Metal>
0.0000

> <Gold.Chemscore.Lipo>
79.1346

> <Gold.Chemscore.Internal_Hbond>
0.0000

> <Gold.Chemscore.DEClash>
0.2450

> <Gold.Chemscore.DEInternal>
1.3102

> <Gold.Chemscore.Rot>
2.4277

> <Gold.Chemscore.Internal.Correction>
   9.000000E+99

> <Gold.Chemscore.Hbonds>
donor molecule, donor type, donor heavy atom, donor atom, acceptor molecule, acceptor atom, score
      L1  H     4    23       P1  7949  0.02
      P1  H  7989  7998       L1     7  0.47
      P1  H  7997  8008       L1     5  0.22
      P1  H 10752 10764       L1     4  0.91

> <Gold.Chemscore.Hbond.Weighted>
-6.4925

> <Gold.Chemscore.Metal.Weighted>
-0.0000

> <Gold.Chemscore.Lipo.Weighted>
-9.2587

> <Gold.Chemscore.Internal_Hbond.Weighted>
0.0000

> <Gold.Chemscore.DEClash.Weighted>
0.2450

> <Gold.Chemscore.DEInternal.Weighted>
1.3102

> <Gold.Chemscore.Rot.Weighted>
6.2149

> <Gold.Chemscore.Internal.Correction.Weighted>
   9.000000E+99

> <Gold.Protein.RotatedTorsions>
[ 6907 6896 6895 6894 ] final  127.81 input  -60.11 | X-H torsion
[ 7974 7965 7964 7962 ] final -112.50 input  175.53 | X-H torsion
[ 8008 7997 7996 7995 ] final  -43.72 input   59.86 | X-H torsion
[ 10167 10162 10161 10158 ] final -110.06 input  -65.29 | X-H torsion
[ 10718 10713 10712 10709 ] final -112.92 input   66.30 | X-H torsion
[ 10763 10752 10751 10750 ] final  -94.81 input  -60.55 | X-H torsion
[ 11005 11000 10999 10996 ] final  -62.56 input  -57.11 | X-H torsion

> <Gold.Protein.ActiveResidues>
 VAL166  LYS551  ARG553  GLY616  TRP617  ASP618  TYR619  PRO620  LYS621  CYS622 
 ASP623  PHE694  ASN695  SER759  ASP760  ASP761  ALA762  ILE779  LEU786  VAL792 
 PHE793  MET794  SER795  GLU796  ALA797  LYS798  CYS799  TRP800  GLU811  SER814 

> <Gold.Protein.RotatedAtoms>
  152.3778  133.6504  159.6136 H   0  0  0  0  0  0  0  0  0  0  0  0  # atno 6907 bound_to 6896
  150.7717  133.9164  159.3394 H   0  0  0  0  0  0  0  0  0  0  0  0  # atno 6908 bound_to 6896
  151.6976  135.0937  160.0296 H   0  0  0  0  0  0  0  0  0  0  0  0  # atno 6909 bound_to 6896
  145.1433  140.8789  143.3689 H   0  0  0  0  0  0  0  0  0  0  0  0  # atno 7974 bound_to 7965
  154.3997  140.1440  156.3566 H   0  0  0  0  0  0  0  0  0  0  0  0  # atno 8008 bound_to 7997
  155.8220  140.3469  155.5499 H   0  0  0  0  0  0  0  0  0  0  0  0  # atno 8009 bound_to 7997
  155.8278  140.0907  157.1801 H   0  0  0  0  0  0  0  0  0  0  0  0  # atno 8010 bound_to 7997
  140.1486  143.4218  152.1511 H   0  0  0  0  0  0  0  0  0  0  0  0  # atno 10167 bound_to 10162
  156.0735  130.5945  150.8573 H   0  0  0  0  0  0  0  0  0  0  0  0  # atno 10718 bound_to 10713
  154.7090  135.5144  153.8638 H   0  0  0  0  0  0  0  0  0  0  0  0  # atno 10763 bound_to 10752
  153.0765  135.6618  154.0144 H   0  0  0  0  0  0  0  0  0  0  0  0  # atno 10764 bound_to 10752
  153.9990  135.3012  155.3384 H   0  0  0  0  0  0  0  0  0  0  0  0  # atno 10765 bound_to 10752
  141.1364  133.6641  156.5547 H   0  0  0  0  0  0  0  0  0  0  0  0  # atno 11005 bound_to 11000
  145.0509  139.3182  143.5929 LP  0  0  0  0  0  0  0  0  0  0  0  0  # atno 17320 bound_to 7965
  146.3503  139.9917  142.8685 LP  0  0  0  0  0  0  0  0  0  0  0  0  # atno 17321 bound_to 7965
  139.5437  144.7279  151.4652 LP  0  0  0  0  0  0  0  0  0  0  0  0  # atno 17342 bound_to 10162
  140.6716  143.8280  150.7007 LP  0  0  0  0  0  0  0  0  0  0  0  0  # atno 17343 bound_to 10162
  157.5818  131.0946  150.9259 LP  0  0  0  0  0  0  0  0  0  0  0  0  # atno 17370 bound_to 10713
  156.9453  130.5399  149.5281 LP  0  0  0  0  0  0  0  0  0  0  0  0  # atno 17371 bound_to 10713
  140.4036  134.7335  157.4794 LP  0  0  0  0  0  0  0  0  0  0  0  0  # atno 17394 bound_to 11000
  140.0478  134.6174  155.8899 LP  0  0  0  0  0  0  0  0  0  0  0  0  # atno 17395 bound_to 11000

$$$$
