AV-unprocessed.smi:592|AV-procd|sdf|3012|dock7
  -GOLD-   2262023523D 1   1.00000     0.00000
 Structure written by MMmdl.
 27 28  0  0  0  0  0  0  0  0  1 V2000
  150.4367  143.2121  157.9523 O   0  0  0  0  0  0  0  0  0  0  0  0
  151.3595  142.4518  157.6477 C   0  0  0  0  0  0  0  0  0  0  0  0
  152.7621  142.7510  158.1906 C   0  0  0  0  0  0  0  0  0  0  0  0
  152.7630  142.8469  159.6588 N   0  0  0  0  0  0  0  0  0  0  0  0
  152.0630  143.9320  160.2233 C   0  0  0  0  0  0  0  0  0  0  0  0
  152.0040  144.1276  161.5499 C   0  0  0  0  0  0  0  0  0  0  0  0
  152.6838  143.1875  162.4088 C   0  0  0  0  0  0  0  0  0  0  0  0
  153.3555  142.1454  161.8802 C   0  0  0  0  0  0  0  0  0  0  0  0
  153.4215  141.9270  160.4303 C   0  0  0  0  0  0  0  0  0  0  0  0
  154.0334  140.9766  159.9428 O   0  0  0  0  0  0  0  0  0  0  0  0
  151.3364  141.3149  156.8471 N   0  0  0  0  0  0  0  0  0  0  0  0
  150.4423  141.1582  155.9182 C   0  0  0  0  0  0  0  0  0  0  0  0
  149.4059  142.0118  155.5522 N   0  0  0  0  0  0  0  0  0  0  0  0
  148.7712  141.7805  154.2677 C   0  0  0  0  0  0  0  0  0  0  0  0
  148.8421  140.2820  153.9881 C   0  0  0  0  0  0  0  0  0  0  0  0
  150.3362  139.7182  154.8222 S   0  0  0  0  0  0  0  0  0  0  0  0
  153.4393  141.9567  157.8721 H   0  0  0  0  0  0  0  0  0  0  0  0
  153.1566  143.6563  157.7246 H   0  0  0  0  0  0  0  0  0  0  0  0
  151.5873  144.5907  159.5109 H   0  0  0  0  0  0  0  0  0  0  0  0
  151.4649  144.9674  161.9633 H   0  0  0  0  0  0  0  0  0  0  0  0
  152.6551  143.3211  163.4802 H   0  0  0  0  0  0  0  0  0  0  0  0
  153.8597  141.4531  162.5383 H   0  0  0  0  0  0  0  0  0  0  0  0
  147.7416  142.1386  154.2714 H   0  0  0  0  0  0  0  0  0  0  0  0
  149.3164  142.3387  153.5057 H   0  0  0  0  0  0  0  0  0  0  0  0
  147.9876  139.7717  154.4331 H   0  0  0  0  0  0  0  0  0  0  0  0
  148.8617  140.0548  152.9222 H   0  0  0  0  0  0  0  0  0  0  0  0
  149.2408  142.9067  155.9908 H   0  0  0  0  0  0  0  0  0  0  0  0
  1  2  2  0  0  0  0
  2  3  1  0  0  0  0
  2 11  1  0  0  0  0
  3  4  1  0  0  0  0
  3 17  1  0  0  0  0
  3 18  1  0  0  0  0
  4  9  1  0  0  0  0
  4  5  1  0  0  0  0
  5  6  2  0  0  0  0
  5 19  1  0  0  0  0
  6  7  1  0  0  0  0
  6 20  1  0  0  0  0
  7  8  2  0  0  0  0
  7 21  1  0  0  0  0
  8  9  1  0  0  0  0
  8 22  1  0  0  0  0
  9 10  2  0  0  0  0
 11 12  2  0  0  0  0
 12 16  1  0  0  0  0
 12 13  1  0  0  0  0
 13 14  1  0  0  0  0
 13 27  1  0  0  0  0
 14 15  1  0  0  0  0
 14 23  1  0  0  0  0
 14 24  1  0  0  0  0
 15 16  1  0  0  0  0
 15 25  1  0  0  0  0
 15 26  1  0  0  0  0
M  END
> <s_m_source_file>
AV-unprocessed.smi

> <i_m_source_file_index>
592

> <i_lp_mmshare_version>
43012

> <i_f3d_flags>
0

> <s_epik_input>
UzFbQ0gyXVtDSDJdTj1DMVtOSF1DKD1PKVtDSDJdbjJbY0hdW2NIXVtjSF1bY0hdYzI9Tw==

> <s_epik_cmdline>
J2VwaWtfcHl0aG9uJywgJy1waCcsICc3LjAnLCAnLXRuJywgJzgnLCAnLW1hJywgJzIwMCcsICctbWV0YWxfYmluZGluZycsICctaW1hZScsICc8aW5maWxlLm1hZT4nLCAnLW9tYWUnLCAnPG91dGZpbGUubWFlPic=

> <r_lp_tautomer_probability>
1

> <r_epik_Ionization_Penalty>
2.71369

> <r_epik_Ionization_Penalty_Charging>
3.63323e-07

> <r_epik_Ionization_Penalty_Neutral>
2.71369

> <r_epik_State_Penalty>
1.599

> <r_epik_Charging_Adjusted_Penalty>
1.599

> <i_epik_Tot_Q>
0

> <i_epik_Tot_abs_Q>
0

> <r_epik_Metal_State_Penalty>
1.59596

> <b_epik_Metal_Only>
1

> <s_epik_Chemistry_Notes>
This compound has an imine and may undergo hydrolysis.

> <s_lp_Force_Field>
OPLS_2005

> <r_lp_Energy>
29.0057

> <b_lp_Chiralities_Consistent>
1

> <s_lp_Variant>
AV-unprocessed.smi:592-3

> <Gold.Version>
5.8.1

> <Gold.Id.Protein>
6NUR|6NUR_protein|mol2

> <Gold.PLP.Fitness>
39.7657

> <Gold.PLP.PLP>
-37.7767

> <Gold.PLP.part.hbond>
-1.0000

> <Gold.PLP.part.metal>
0.0000

> <Gold.PLP.part.buried>
-3.2294

> <Gold.PLP.part.nonpolar>
-32.6770

> <Gold.PLP.part.repulsive>
0.3200

> <Gold.PLP.ligand.clash>
0.0000

> <Gold.PLP.ligand.torsion>
0.2068

> <Gold.PLP.Chemscore.Hbond>
0.8000

> <Gold.PLP.Chemscore.CHOScore>
0.0000

> <Gold.PLP.Chemscore.Metal>
0.0000

> <Gold.Chemscore.Hbonds>
donor molecule, donor type, donor heavy atom, donor atom, acceptor molecule, acceptor atom, score
      L1  H    13    27       P1  8028  0.88

> <Gold.PLP.Chemscore.Internal.Correction>
0.0027

> <Gold.Rescore>
     Score         DG    S(hbond)    S(metal)    S(lipo)     H(rot)  DE(clash)    DE(int)     intcor
     12.35     -14.38       0.98        0.00      77.26       1.33       0.57       1.46       ----

> <Gold.Chemscore.Fitness>
12.3476

> <Gold.Chemscore.DG>
-14.3841

> <Gold.Chemscore.ZeroCoef>
-5.4800

> <Gold.Chemscore.Hbond>
0.9795

> <Gold.Chemscore.Metal>
0.0000

> <Gold.Chemscore.Lipo>
77.2610

> <Gold.Chemscore.Internal_Hbond>
0.0000

> <Gold.Chemscore.DEClash>
0.5730

> <Gold.Chemscore.DEInternal>
1.4636

> <Gold.Chemscore.Rot>
1.3309

> <Gold.Chemscore.Internal.Correction>
   9.000000E+99

> <Gold.Chemscore.Hbonds>
donor molecule, donor type, donor heavy atom, donor atom, acceptor molecule, acceptor atom, score
      L1  H    13    27       P1  8028  0.86

> <Gold.Chemscore.Hbond.Weighted>
-3.2717

> <Gold.Chemscore.Metal.Weighted>
-0.0000

> <Gold.Chemscore.Lipo.Weighted>
-9.0395

> <Gold.Chemscore.Internal_Hbond.Weighted>
0.0000

> <Gold.Chemscore.DEClash.Weighted>
0.5730

> <Gold.Chemscore.DEInternal.Weighted>
1.4636

> <Gold.Chemscore.Rot.Weighted>
3.4071

> <Gold.Chemscore.Internal.Correction.Weighted>
   9.000000E+99

> <Gold.Protein.RotatedTorsions>
[ 6907 6896 6895 6894 ] final  -70.59 input  -60.11 | X-H torsion
[ 7974 7965 7964 7962 ] final   98.61 input  175.53 | X-H torsion
[ 8008 7997 7996 7995 ] final   33.43 input   59.86 | X-H torsion
[ 10167 10162 10161 10158 ] final   26.10 input  -65.29 | X-H torsion
[ 10718 10713 10712 10709 ] final  169.03 input   66.30 | X-H torsion
[ 10763 10752 10751 10750 ] final  112.02 input  -60.55 | X-H torsion
[ 11005 11000 10999 10996 ] final -141.23 input  -57.11 | X-H torsion

> <Gold.Protein.ActiveResidues>
 VAL166  LYS551  ARG553  GLY616  TRP617  ASP618  TYR619  PRO620  LYS621  CYS622 
 ASP623  PHE694  ASN695  SER759  ASP760  ASP761  ALA762  ILE779  LEU786  VAL792 
 PHE793  MET794  SER795  GLU796  ALA797  LYS798  CYS799  TRP800  GLU811  SER814 

> <Gold.Protein.RotatedAtoms>
  150.7251  134.5431  159.5757 H   0  0  0  0  0  0  0  0  0  0  0  0  # atno 6907 bound_to 6896
  152.2937  134.7689  160.0381 H   0  0  0  0  0  0  0  0  0  0  0  0  # atno 6908 bound_to 6896
  151.8293  133.3371  159.3645 H   0  0  0  0  0  0  0  0  0  0  0  0  # atno 6909 bound_to 6896
  145.4099  139.2335  143.3254 H   0  0  0  0  0  0  0  0  0  0  0  0  # atno 7974 bound_to 7965
  155.1386  140.3264  155.4457 H   0  0  0  0  0  0  0  0  0  0  0  0  # atno 8008 bound_to 7997
  156.2612  140.1998  156.6452 H   0  0  0  0  0  0  0  0  0  0  0  0  # atno 8009 bound_to 7997
  154.6559  140.0553  156.9995 H   0  0  0  0  0  0  0  0  0  0  0  0  # atno 8010 bound_to 7997
  140.5051  144.0251  150.6349 H   0  0  0  0  0  0  0  0  0  0  0  0  # atno 10167 bound_to 10162
  157.0285  131.0252  151.2752 H   0  0  0  0  0  0  0  0  0  0  0  0  # atno 10718 bound_to 10713
  153.4718  135.3699  155.2395 H   0  0  0  0  0  0  0  0  0  0  0  0  # atno 10763 bound_to 10752
  154.8757  135.3933  154.3803 H   0  0  0  0  0  0  0  0  0  0  0  0  # atno 10764 bound_to 10752
  153.4392  135.7084  153.6244 H   0  0  0  0  0  0  0  0  0  0  0  0  # atno 10765 bound_to 10752
  140.8344  134.2477  157.4841 H   0  0  0  0  0  0  0  0  0  0  0  0  # atno 11005 bound_to 11000
  146.2710  140.4809  142.8814 LP  0  0  0  0  0  0  0  0  0  0  0  0  # atno 17320 bound_to 7965
  144.8316  140.6716  143.6287 LP  0  0  0  0  0  0  0  0  0  0  0  0  # atno 17321 bound_to 7965
  140.3558  143.2936  152.0437 LP  0  0  0  0  0  0  0  0  0  0  0  0  # atno 17342 bound_to 10162
  139.4881  144.6340  151.7013 LP  0  0  0  0  0  0  0  0  0  0  0  0  # atno 17343 bound_to 10162
  157.5196  130.7989  149.7794 LP  0  0  0  0  0  0  0  0  0  0  0  0  # atno 17370 bound_to 10713
  156.0078  130.3847  150.2371 LP  0  0  0  0  0  0  0  0  0  0  0  0  # atno 17371 bound_to 10713
  139.8704  134.9603  156.4360 LP  0  0  0  0  0  0  0  0  0  0  0  0  # atno 17394 bound_to 11000
  140.8963  133.7812  155.9629 LP  0  0  0  0  0  0  0  0  0  0  0  0  # atno 17395 bound_to 11000

$$$$
