AV-unprocessed.smi:447|AV-procd|sdf|2604|dock8
  -GOLD-   2262023 03D 1   1.00000     0.00000
 Structure written by MMmdl.
 46 48  0  0  0  0  0  0  0  0  2 V2000
  149.7461  133.9618  154.1100 C   0  0  0  0  0  0  0  0  0  0  0  0
  149.9255  135.2755  154.8621 C   0  0  0  0  0  0  0  0  0  0  0  0
  149.3620  135.4502  155.9405 O   0  0  0  0  0  0  0  0  0  0  0  0
  150.7059  136.1943  154.2721 N   0  0  0  0  0  0  0  0  0  0  0  0
  151.0780  137.4990  154.8212 C   0  0  1  0  0  0  0  0  0  0  0  0
  152.4234  137.9173  154.2094 C   0  0  0  0  0  0  0  0  0  0  0  0
  150.0451  138.5715  154.5977 C   0  0  0  0  0  0  0  0  0  0  0  0
  148.9511  138.4705  153.7880 N   0  3  0  0  0  0  0  0  0  0  0  0
  148.2402  139.6682  153.7917 C   0  0  0  0  0  0  0  0  0  0  0  0
  147.0717  140.0331  153.1304 C   0  0  0  0  0  0  0  0  0  0  0  0
  146.6126  141.3501  153.3371 C   0  0  0  0  0  0  0  0  0  0  0  0
  147.3114  142.2472  154.1700 C   0  0  0  0  0  0  0  0  0  0  0  0
  148.4950  141.8638  154.8342 C   0  0  0  0  0  0  0  0  0  0  0  0
  148.9387  140.5561  154.6335 C   0  0  0  0  0  0  0  0  0  0  0  0
  150.0394  139.8363  155.1207 N   0  0  0  0  0  0  0  0  0  0  0  0
  150.9947  140.5113  156.0238 C   0  0  0  0  0  0  0  0  0  0  0  0
  150.6279  140.4627  157.5260 C   0  0  1  0  0  0  0  0  0  0  0  0
  150.6793  139.1382  158.0190 O   0  0  0  0  0  0  0  0  0  0  0  0
  151.4291  141.4480  158.3672 C   0  0  0  0  0  0  0  0  0  0  0  0
  152.2007  141.0199  159.4714 C   0  0  0  0  0  0  0  0  0  0  0  0
  152.9190  141.9557  160.2409 C   0  0  0  0  0  0  0  0  0  0  0  0
  152.8841  143.3220  159.9052 C   0  0  0  0  0  0  0  0  0  0  0  0
  152.1233  143.7545  158.8030 C   0  0  0  0  0  0  0  0  0  0  0  0
  151.3962  142.8210  158.0395 C   0  0  0  0  0  0  0  0  0  0  0  0
  149.2684  134.1374  153.1458 H   0  0  0  0  0  0  0  0  0  0  0  0
  149.1235  133.2706  154.6790 H   0  0  0  0  0  0  0  0  0  0  0  0
  150.7123  133.4867  153.9371 H   0  0  0  0  0  0  0  0  0  0  0  0
  151.1158  135.9512  153.3818 H   0  0  0  0  0  0  0  0  0  0  0  0
  151.2140  137.3731  155.8945 H   0  0  0  0  0  0  0  0  0  0  0  0
  152.7835  138.8563  154.6282 H   0  0  0  0  0  0  0  0  0  0  0  0
  152.3429  138.0492  153.1296 H   0  0  0  0  0  0  0  0  0  0  0  0
  153.1900  137.1643  154.3956 H   0  0  0  0  0  0  0  0  0  0  0  0
  146.5385  139.3481  152.4877 H   0  0  0  0  0  0  0  0  0  0  0  0
  145.7086  141.6795  152.8455 H   0  0  0  0  0  0  0  0  0  0  0  0
  146.9322  143.2500  154.3041 H   0  0  0  0  0  0  0  0  0  0  0  0
  149.0186  142.5600  155.4723 H   0  0  0  0  0  0  0  0  0  0  0  0
  151.9767  140.0654  155.8711 H   0  0  0  0  0  0  0  0  0  0  0  0
  151.0940  141.5464  155.6960 H   0  0  0  0  0  0  0  0  0  0  0  0
  149.5830  140.7631  157.6142 H   0  0  0  0  0  0  0  0  0  0  0  0
  151.4763  138.7358  157.7087 H   0  0  0  0  0  0  0  0  0  0  0  0
  152.2516  139.9740  159.7359 H   0  0  0  0  0  0  0  0  0  0  0  0
  153.5070  141.6225  161.0834 H   0  0  0  0  0  0  0  0  0  0  0  0
  153.4411  144.0370  160.4925 H   0  0  0  0  0  0  0  0  0  0  0  0
  152.0948  144.8027  158.5447 H   0  0  0  0  0  0  0  0  0  0  0  0
  150.8130  143.1627  157.1970 H   0  0  0  0  0  0  0  0  0  0  0  0
  148.7106  137.6333  153.2735 H   0  0  0  0  0  0  0  0  0  0  0  0
  1  2  1  0  0  0  0
  1 25  1  0  0  0  0
  1 26  1  0  0  0  0
  1 27  1  0  0  0  0
  2  3  2  0  0  0  0
  2  4  1  0  0  0  0
  4  5  1  0  0  0  0
  4 28  1  0  0  0  0
  5  6  1  0  0  0  0
  5  7  1  0  0  0  0
  5 29  1  0  0  0  0
  6 30  1  0  0  0  0
  6 31  1  0  0  0  0
  6 32  1  0  0  0  0
  7 15  1  0  0  0  0
  7  8  2  0  0  0  0
  8  9  1  0  0  0  0
  8 46  1  0  0  0  0
  9 14  2  0  0  0  0
  9 10  1  0  0  0  0
 10 11  2  0  0  0  0
 10 33  1  0  0  0  0
 11 12  1  0  0  0  0
 11 34  1  0  0  0  0
 12 13  2  0  0  0  0
 12 35  1  0  0  0  0
 13 14  1  0  0  0  0
 13 36  1  0  0  0  0
 14 15  1  0  0  0  0
 15 16  1  0  0  0  0
 16 17  1  0  0  0  0
 16 37  1  0  0  0  0
 16 38  1  0  0  0  0
 17 18  1  0  0  0  0
 17 19  1  0  0  0  0
 17 39  1  0  0  0  0
 18 40  1  0  0  0  0
 19 24  1  0  0  0  0
 19 20  2  0  0  0  0
 20 21  1  0  0  0  0
 20 41  1  0  0  0  0
 21 22  2  0  0  0  0
 21 42  1  0  0  0  0
 22 23  1  0  0  0  0
 22 43  1  0  0  0  0
 23 24  2  0  0  0  0
 23 44  1  0  0  0  0
 24 45  1  0  0  0  0
M  CHG  1   8   1
M  END
> <s_m_source_file>
AV-unprocessed.smi

> <i_m_source_file_index>
447

> <i_lp_mmshare_version>
43012

> <i_f3d_flags>
0

> <s_epik_input>
W0NIM11DKD1PKVtOSF1bQ0BIXShbQ0gzXSljKG4xKW4oYyhjMTIpW2NIXVtjSF1bY0hdW2NIXTIpW0NIMl1bQ0BIXShbT0hdKWMzW2NIXVtjSF1bY0hdW2NIXVtjSF0z

> <s_epik_cmdline>
J2VwaWtfcHl0aG9uJywgJy1waCcsICc3LjAnLCAnLXRuJywgJzgnLCAnLW1hJywgJzIwMCcsICctbWV0YWxfYmluZGluZycsICctaW1hZScsICc8aW5maWxlLm1hZT4nLCAnLW9tYWUnLCAnPG91dGZpbGUubWFlPic=

> <r_epik_Ionization_Penalty>
0.950381

> <r_epik_Ionization_Penalty_Charging>
0.950379

> <r_epik_Ionization_Penalty_Neutral>
1.42115e-06

> <r_epik_State_Penalty>
0.994584

> <r_epik_Charging_Adjusted_Penalty>
1.94496

> <i_epik_Tot_Q>
1

> <i_epik_Tot_abs_Q>
1

> <r_epik_Metal_State_Penalty>
1.10485

> <b_epik_Metal_Only>
0

> <s_lp_Force_Field>
OPLS_2005

> <r_lp_Energy>
11.8

> <b_lp_Chiralities_Consistent>
1

> <s_lp_Variant>
AV-unprocessed.smi:447-8

> <Gold.Version>
5.8.1

> <Gold.Id.Protein>
6NUR|6NUR_protein|mol2

> <Gold.PLP.Fitness>
58.8000

> <Gold.PLP.PLP>
-51.4961

> <Gold.PLP.part.hbond>
-3.5938

> <Gold.PLP.part.metal>
0.0000

> <Gold.PLP.part.buried>
-0.9450

> <Gold.PLP.part.nonpolar>
-48.2832

> <Gold.PLP.part.repulsive>
0.1707

> <Gold.PLP.ligand.clash>
0.0000

> <Gold.PLP.ligand.torsion>
0.9178

> <Gold.PLP.Chemscore.Hbond>
3.0000

> <Gold.PLP.Chemscore.CHOScore>
0.0000

> <Gold.PLP.Chemscore.Metal>
0.0000

> <Gold.Chemscore.Hbonds>
donor molecule, donor type, donor heavy atom, donor atom, acceptor molecule, acceptor atom, score
      L1  H     4    28       P1  7949  1.00
      L1  H     8    46       P1  7948  2.00

> <Gold.PLP.Chemscore.Internal.Correction>
0.1395

> <Gold.Rescore>
     Score         DG    S(hbond)    S(metal)    S(lipo)     H(rot)  DE(clash)    DE(int)     intcor
     17.61     -19.72       1.46        0.00     132.68       2.41       1.02       1.08       ----

> <Gold.Chemscore.Fitness>
17.6136

> <Gold.Chemscore.DG>
-19.7167

> <Gold.Chemscore.ZeroCoef>
-5.4800

> <Gold.Chemscore.Hbond>
1.4629

> <Gold.Chemscore.Metal>
0.0000

> <Gold.Chemscore.Lipo>
132.6777

> <Gold.Chemscore.Internal_Hbond>
0.0000

> <Gold.Chemscore.DEClash>
1.0209

> <Gold.Chemscore.DEInternal>
1.0821

> <Gold.Chemscore.Rot>
2.4112

> <Gold.Chemscore.Internal.Correction>
   9.000000E+99

> <Gold.Chemscore.Hbonds>
donor molecule, donor type, donor heavy atom, donor atom, acceptor molecule, acceptor atom, score
      L1  H     4    28       P1  7949  0.29
      L1  H     8    46       P1  7948  0.95

> <Gold.Chemscore.Hbond.Weighted>
-4.8860

> <Gold.Chemscore.Metal.Weighted>
-0.0000

> <Gold.Chemscore.Lipo.Weighted>
-15.5233

> <Gold.Chemscore.Internal_Hbond.Weighted>
0.0000

> <Gold.Chemscore.DEClash.Weighted>
1.0209

> <Gold.Chemscore.DEInternal.Weighted>
1.0821

> <Gold.Chemscore.Rot.Weighted>
6.1727

> <Gold.Chemscore.Internal.Correction.Weighted>
   9.000000E+99

> <Gold.Protein.RotatedTorsions>
[ 6907 6896 6895 6894 ] final  -29.12 input  -60.11 | X-H torsion
[ 7974 7965 7964 7962 ] final  -74.84 input  175.53 | X-H torsion
[ 8008 7997 7996 7995 ] final  147.66 input   59.86 | X-H torsion
[ 10167 10162 10161 10158 ] final  -44.34 input  -65.29 | X-H torsion
[ 10718 10713 10712 10709 ] final  147.68 input   66.30 | X-H torsion
[ 10763 10752 10751 10750 ] final -151.36 input  -60.55 | X-H torsion
[ 11005 11000 10999 10996 ] final   66.82 input  -57.11 | X-H torsion

> <Gold.Protein.ActiveResidues>
 VAL166  LYS551  ARG553  GLY616  TRP617  ASP618  TYR619  PRO620  LYS621  CYS622 
 ASP623  PHE694  ASN695  SER759  ASP760  ASP761  ALA762  ILE779  LEU786  VAL792 
 PHE793  MET794  SER795  GLU796  ALA797  LYS798  CYS799  TRP800  GLU811  SER814 

> <Gold.Protein.RotatedAtoms>
  151.1235  135.0092  159.8549 H   0  0  0  0  0  0  0  0  0  0  0  0  # atno 6907 bound_to 6896
  152.5448  134.1695  159.8601 H   0  0  0  0  0  0  0  0  0  0  0  0  # atno 6908 bound_to 6896
  151.1755  133.4712  159.2627 H   0  0  0  0  0  0  0  0  0  0  0  0  # atno 6909 bound_to 6896
  145.6338  140.9330  143.1072 H   0  0  0  0  0  0  0  0  0  0  0  0  # atno 7974 bound_to 7965
  156.2817  140.2149  156.5573 H   0  0  0  0  0  0  0  0  0  0  0  0  # atno 8008 bound_to 7997
  154.7242  140.0501  157.0690 H   0  0  0  0  0  0  0  0  0  0  0  0  # atno 8009 bound_to 7997
  155.0439  140.3148  155.4718 H   0  0  0  0  0  0  0  0  0  0  0  0  # atno 8010 bound_to 7997
  140.6900  143.2935  151.3482 H   0  0  0  0  0  0  0  0  0  0  0  0  # atno 10167 bound_to 10162
  157.3180  131.0899  151.1263 H   0  0  0  0  0  0  0  0  0  0  0  0  # atno 10718 bound_to 10713
  154.8062  135.3262  154.7424 H   0  0  0  0  0  0  0  0  0  0  0  0  # atno 10763 bound_to 10752
  153.8082  135.6898  153.4849 H   0  0  0  0  0  0  0  0  0  0  0  0  # atno 10764 bound_to 10752
  153.1810  135.4587  154.9972 H   0  0  0  0  0  0  0  0  0  0  0  0  # atno 10765 bound_to 10752
  139.9808  134.6747  156.0266 H   0  0  0  0  0  0  0  0  0  0  0  0  # atno 11005 bound_to 11000
  144.7183  139.8118  143.7391 LP  0  0  0  0  0  0  0  0  0  0  0  0  # atno 17320 bound_to 7965
  146.1335  139.4375  143.0154 LP  0  0  0  0  0  0  0  0  0  0  0  0  # atno 17321 bound_to 7965
  139.6294  144.0750  152.2463 LP  0  0  0  0  0  0  0  0  0  0  0  0  # atno 17342 bound_to 10162
  140.0220  144.6146  150.7559 LP  0  0  0  0  0  0  0  0  0  0  0  0  # atno 17343 bound_to 10162
  157.2560  130.6636  149.5952 LP  0  0  0  0  0  0  0  0  0  0  0  0  # atno 17370 bound_to 10713
  155.9683  130.4523  150.5771 LP  0  0  0  0  0  0  0  0  0  0  0  0  # atno 17371 bound_to 10713
  141.1480  133.6553  156.3927 LP  0  0  0  0  0  0  0  0  0  0  0  0  # atno 17394 bound_to 11000
  140.5100  134.6404  157.5281 LP  0  0  0  0  0  0  0  0  0  0  0  0  # atno 17395 bound_to 11000

$$$$
