AV-unprocessed.smi:2190|AV-procd|sdf|8890|dock2
  -GOLD-   2272012 93D 1   1.00000     0.00000
 Structure written by MMmdl.
 47 49  0  0  0  0  0  0  0  0  2 V2000
  151.4769  145.5295  159.1554 C   0  0  0  0  0  0  0  0  0  0  0  0
  151.8197  144.0541  159.1785 C   0  0  0  0  0  0  0  0  0  0  0  0
  152.5534  143.5098  160.2503 C   0  0  0  0  0  0  0  0  0  0  0  0
  152.8691  142.1392  160.2609 C   0  0  0  0  0  0  0  0  0  0  0  0
  152.4536  141.3050  159.2024 C   0  0  0  0  0  0  0  0  0  0  0  0
  152.8036  139.8286  159.2281 C   0  0  0  0  0  0  0  0  0  0  0  0
  151.7143  141.8385  158.1215 C   0  0  0  0  0  0  0  0  0  0  0  0
  151.3398  140.9680  157.1195 O   0  0  0  0  0  0  0  0  0  0  0  0
  150.5807  141.4708  156.0287 C   0  0  0  0  0  0  0  0  0  0  0  0
  150.0112  140.2800  155.2449 C   0  0  2  0  0  0  0  0  0  0  0  0
  151.0370  139.7351  154.4397 O   0  0  0  0  0  0  0  0  0  0  0  0
  148.8043  140.6756  154.3704 C   0  0  0  0  0  0  0  0  0  0  0  0
  147.5611  140.8103  155.1451 N   0  0  0  0  0  0  0  0  0  0  0  0
  147.1448  140.1281  156.2506 C   0  0  0  0  0  0  0  0  0  0  0  0
  147.8816  139.0416  156.9627 C   0  0  0  0  0  0  0  0  0  0  0  0
  148.2300  139.4040  158.2805 O   0  0  0  0  0  0  0  0  0  0  0  0
  145.9260  140.6284  156.5987 N   0  3  0  0  0  0  0  0  0  0  0  0
  145.5567  141.6360  155.7067 C   0  0  0  0  0  0  0  0  0  0  0  0
  144.4150  142.4296  155.6522 C   0  0  0  0  0  0  0  0  0  0  0  0
  144.3473  143.3703  154.6037 C   0  0  0  0  0  0  0  0  0  0  0  0
  145.3890  143.4956  153.6619 C   0  0  0  0  0  0  0  0  0  0  0  0
  146.5430  142.6873  153.7290 C   0  0  0  0  0  0  0  0  0  0  0  0
  146.6026  141.7587  154.7685 C   0  0  0  0  0  0  0  0  0  0  0  0
  151.4022  143.2219  158.1204 C   0  0  0  0  0  0  0  0  0  0  0  0
  151.8827  146.0470  160.0253 H   0  0  0  0  0  0  0  0  0  0  0  0
  150.3952  145.6660  159.1522 H   0  0  0  0  0  0  0  0  0  0  0  0
  151.8853  145.9982  158.2596 H   0  0  0  0  0  0  0  0  0  0  0  0
  152.8776  144.1390  161.0664 H   0  0  0  0  0  0  0  0  0  0  0  0
  153.4332  141.7314  161.0867 H   0  0  0  0  0  0  0  0  0  0  0  0
  151.9013  139.2218  159.1419 H   0  0  0  0  0  0  0  0  0  0  0  0
  153.3086  139.5532  160.1547 H   0  0  0  0  0  0  0  0  0  0  0  0
  153.4635  139.5835  158.3954 H   0  0  0  0  0  0  0  0  0  0  0  0
  149.7696  142.1106  156.3816 H   0  0  0  0  0  0  0  0  0  0  0  0
  151.2263  142.0649  155.3795 H   0  0  0  0  0  0  0  0  0  0  0  0
  149.7105  139.5074  155.9533 H   0  0  0  0  0  0  0  0  0  0  0  0
  151.3343  138.9309  154.8363 H   0  0  0  0  0  0  0  0  0  0  0  0
  148.9872  141.6411  153.8973 H   0  0  0  0  0  0  0  0  0  0  0  0
  148.6525  139.9677  153.5557 H   0  0  0  0  0  0  0  0  0  0  0  0
  147.2656  138.1425  156.9910 H   0  0  0  0  0  0  0  0  0  0  0  0
  148.7876  138.7916  156.4108 H   0  0  0  0  0  0  0  0  0  0  0  0
  148.7054  140.2205  158.2524 H   0  0  0  0  0  0  0  0  0  0  0  0
  143.6158  142.3358  156.3727 H   0  0  0  0  0  0  0  0  0  0  0  0
  143.4794  144.0082  154.5200 H   0  0  0  0  0  0  0  0  0  0  0  0
  145.3018  144.2268  152.8713 H   0  0  0  0  0  0  0  0  0  0  0  0
  147.3324  142.7917  152.9999 H   0  0  0  0  0  0  0  0  0  0  0  0
  150.8431  143.6702  157.3131 H   0  0  0  0  0  0  0  0  0  0  0  0
  145.3894  140.3030  157.3925 H   0  0  0  0  0  0  0  0  0  0  0  0
  1  2  1  0  0  0  0
  1 25  1  0  0  0  0
  1 26  1  0  0  0  0
  1 27  1  0  0  0  0
  2 24  1  0  0  0  0
  2  3  2  0  0  0  0
  3  4  1  0  0  0  0
  3 28  1  0  0  0  0
  4  5  2  0  0  0  0
  4 29  1  0  0  0  0
  5  6  1  0  0  0  0
  5  7  1  0  0  0  0
  6 30  1  0  0  0  0
  6 31  1  0  0  0  0
  6 32  1  0  0  0  0
  7  8  1  0  0  0  0
  7 24  2  0  0  0  0
  8  9  1  0  0  0  0
  9 10  1  0  0  0  0
  9 33  1  0  0  0  0
  9 34  1  0  0  0  0
 10 11  1  0  0  0  0
 10 12  1  0  0  0  0
 10 35  1  0  0  0  0
 11 36  1  0  0  0  0
 12 13  1  0  0  0  0
 12 37  1  0  0  0  0
 12 38  1  0  0  0  0
 13 23  1  0  0  0  0
 13 14  1  0  0  0  0
 14 15  1  0  0  0  0
 14 17  2  0  0  0  0
 15 16  1  0  0  0  0
 15 39  1  0  0  0  0
 15 40  1  0  0  0  0
 16 41  1  0  0  0  0
 17 18  1  0  0  0  0
 17 47  1  0  0  0  0
 18 23  2  0  0  0  0
 18 19  1  0  0  0  0
 19 20  2  0  0  0  0
 19 42  1  0  0  0  0
 20 21  1  0  0  0  0
 20 43  1  0  0  0  0
 21 22  2  0  0  0  0
 21 44  1  0  0  0  0
 22 23  1  0  0  0  0
 22 45  1  0  0  0  0
 24 46  1  0  0  0  0
M  CHG  1  17   1
M  END
> <s_m_source_file>
AV-unprocessed.smi

> <i_m_source_file_index>
2190

> <i_lp_mmshare_version>
43012

> <i_f3d_flags>
0

> <s_epik_input>
W0NIM11jMVtjSF1bY0hdYyhbQ0gzXSljKFtjSF0xKU9bQ0gyXVtDQEhdKFtPSF0pW0NIMl1uKGMobjIpW0NIMl1bT0hdKWMoYzIzKVtjSF1bY0hdW2NIXVtjSF0z

> <s_epik_cmdline>
J2VwaWtfcHl0aG9uJywgJy1waCcsICc3LjAnLCAnLXRuJywgJzgnLCAnLW1hJywgJzIwMCcsICctbWV0YWxfYmluZGluZycsICctaW1hZScsICc8aW5maWxlLm1hZT4nLCAnLW9tYWUnLCAnPG91dGZpbGUubWFlPic=

> <r_lp_tautomer_probability>
1

> <r_epik_Ionization_Penalty>
1.43125

> <r_epik_Ionization_Penalty_Charging>
1.43039

> <r_epik_Ionization_Penalty_Neutral>
0.000858184

> <r_epik_State_Penalty>
1.51493

> <r_epik_Charging_Adjusted_Penalty>
2.94531

> <i_epik_Tot_Q>
1

> <i_epik_Tot_abs_Q>
1

> <r_epik_Metal_State_Penalty>
5.5599

> <b_epik_Metal_Only>
0

> <s_lp_Force_Field>
OPLS_2005

> <r_lp_Energy>
17.5717

> <b_lp_Chiralities_Consistent>
1

> <s_lp_Variant>
AV-unprocessed.smi:2190-3

> <Gold.Version>
5.8.1

> <Gold.Id.Protein>
6NUR|6NUR_protein|mol2

> <Gold.PLP.Fitness>
52.6888

> <Gold.PLP.PLP>
-51.0650

> <Gold.PLP.part.hbond>
-2.0000

> <Gold.PLP.part.metal>
0.0000

> <Gold.PLP.part.buried>
-6.9214

> <Gold.PLP.part.nonpolar>
-41.8790

> <Gold.PLP.part.repulsive>
0.0210

> <Gold.PLP.ligand.clash>
0.0000

> <Gold.PLP.ligand.torsion>
0.7659

> <Gold.PLP.Chemscore.Hbond>
1.0000

> <Gold.PLP.Chemscore.CHOScore>
0.0000

> <Gold.PLP.Chemscore.Metal>
0.0000

> <Gold.Chemscore.Hbonds>
donor molecule, donor type, donor heavy atom, donor atom, acceptor molecule, acceptor atom, score
      P1  H  7989  7998       L1    11  1.00

> <Gold.PLP.Chemscore.Internal.Correction>
0.1556

> <Gold.Rescore>
     Score         DG    S(hbond)    S(metal)    S(lipo)     H(rot)  DE(clash)    DE(int)     intcor
     13.89     -16.30       0.95        0.00     131.98       3.05       0.07       2.35       ----

> <Gold.Chemscore.Fitness>
13.8854

> <Gold.Chemscore.DG>
-16.2969

> <Gold.Chemscore.ZeroCoef>
-5.4800

> <Gold.Chemscore.Hbond>
0.9512

> <Gold.Chemscore.Metal>
0.0000

> <Gold.Chemscore.Lipo>
131.9805

> <Gold.Chemscore.Internal_Hbond>
0.0000

> <Gold.Chemscore.DEClash>
0.0650

> <Gold.Chemscore.DEInternal>
2.3465

> <Gold.Chemscore.Rot>
3.0476

> <Gold.Chemscore.Internal.Correction>
   9.000000E+99

> <Gold.Chemscore.Hbonds>
donor molecule, donor type, donor heavy atom, donor atom, acceptor molecule, acceptor atom, score
      P1  H  7989  7998       L1    11  0.73

> <Gold.Chemscore.Hbond.Weighted>
-3.1770

> <Gold.Chemscore.Metal.Weighted>
-0.0000

> <Gold.Chemscore.Lipo.Weighted>
-15.4417

> <Gold.Chemscore.Internal_Hbond.Weighted>
0.0000

> <Gold.Chemscore.DEClash.Weighted>
0.0650

> <Gold.Chemscore.DEInternal.Weighted>
2.3465

> <Gold.Chemscore.Rot.Weighted>
7.8018

> <Gold.Chemscore.Internal.Correction.Weighted>
   9.000000E+99

> <Gold.Protein.RotatedTorsions>
[ 6907 6896 6895 6894 ] final    6.41 input  -60.11 | X-H torsion
[ 7974 7965 7964 7962 ] final  -41.12 input  175.53 | X-H torsion
[ 8008 7997 7996 7995 ] final -135.99 input   59.86 | X-H torsion
[ 10167 10162 10161 10158 ] final   98.46 input  -65.29 | X-H torsion
[ 10718 10713 10712 10709 ] final   89.19 input   66.30 | X-H torsion
[ 10763 10752 10751 10750 ] final  116.55 input  -60.55 | X-H torsion
[ 11005 11000 10999 10996 ] final  -84.49 input  -57.11 | X-H torsion

> <Gold.Protein.ActiveResidues>
 VAL166  LYS551  ARG553  GLY616  TRP617  ASP618  TYR619  PRO620  LYS621  CYS622 
 ASP623  PHE694  ASN695  SER759  ASP760  ASP761  ALA762  ILE779  LEU786  VAL792 
 PHE793  MET794  SER795  GLU796  ALA797  LYS798  CYS799  TRP800  GLU811  SER814 

> <Gold.Protein.RotatedAtoms>
  151.6733  135.0973  160.0201 H   0  0  0  0  0  0  0  0  0  0  0  0  # atno 6907 bound_to 6896
  152.3879  133.6632  159.6222 H   0  0  0  0  0  0  0  0  0  0  0  0  # atno 6908 bound_to 6896
  150.7800  133.8921  159.3357 H   0  0  0  0  0  0  0  0  0  0  0  0  # atno 6909 bound_to 6896
  146.0240  140.6814  142.9164 H   0  0  0  0  0  0  0  0  0  0  0  0  # atno 7974 bound_to 7965
  155.3879  140.0498  157.3041 H   0  0  0  0  0  0  0  0  0  0  0  0  # atno 8008 bound_to 7997
  154.5050  140.2171  155.9230 H   0  0  0  0  0  0  0  0  0  0  0  0  # atno 8009 bound_to 7997
  156.1515  140.3135  155.8661 H   0  0  0  0  0  0  0  0  0  0  0  0  # atno 8010 bound_to 7997
  139.7706  144.6923  151.0161 H   0  0  0  0  0  0  0  0  0  0  0  0  # atno 10167 bound_to 10162
  157.6954  131.0324  150.3389 H   0  0  0  0  0  0  0  0  0  0  0  0  # atno 10718 bound_to 10713
  153.5389  135.3563  155.2709 H   0  0  0  0  0  0  0  0  0  0  0  0  # atno 10763 bound_to 10752
  154.8719  135.4086  154.3067 H   0  0  0  0  0  0  0  0  0  0  0  0  # atno 10764 bound_to 10752
  153.3770  135.7066  153.6662 H   0  0  0  0  0  0  0  0  0  0  0  0  # atno 10765 bound_to 10752
  141.1650  133.7349  156.8875 H   0  0  0  0  0  0  0  0  0  0  0  0  # atno 11005 bound_to 11000
  144.7002  140.3617  143.7162 LP  0  0  0  0  0  0  0  0  0  0  0  0  # atno 17320 bound_to 7965
  145.7147  139.1694  143.2519 LP  0  0  0  0  0  0  0  0  0  0  0  0  # atno 17321 bound_to 7965
  140.7813  143.4592  151.0302 LP  0  0  0  0  0  0  0  0  0  0  0  0  # atno 17342 bound_to 10162
  139.8276  143.7735  152.3179 LP  0  0  0  0  0  0  0  0  0  0  0  0  # atno 17343 bound_to 10162
  156.3852  130.3888  149.7071 LP  0  0  0  0  0  0  0  0  0  0  0  0  # atno 17370 bound_to 10713
  156.4440  130.7874  151.2896 LP  0  0  0  0  0  0  0  0  0  0  0  0  # atno 17371 bound_to 10713
  140.1671  134.9125  157.2788 LP  0  0  0  0  0  0  0  0  0  0  0  0  # atno 17394 bound_to 11000
  140.2544  134.3645  155.7430 LP  0  0  0  0  0  0  0  0  0  0  0  0  # atno 17395 bound_to 11000

$$$$
