AV-unprocessed.smi:314|AV-procd|sdf|2313|dock6
  -GOLD-   2262022213D 1   1.00000     0.00000
 Structure written by MMmdl.
 48 49  0  0  0  0  0  0  0  0  1 V2000
  146.5882  132.2638  149.0347 C   0  0  0  0  0  0  0  0  0  0  0  0
  145.4090  132.6963  149.7044 O   0  0  0  0  0  0  0  0  0  0  0  0
  145.4061  133.9495  150.2817 C   0  0  0  0  0  0  0  0  0  0  0  0
  144.2629  134.3611  150.9948 C   0  0  0  0  0  0  0  0  0  0  0  0
  144.2508  135.6385  151.5868 C   0  0  0  0  0  0  0  0  0  0  0  0
  145.3909  136.4675  151.4508 C   0  0  0  0  0  0  0  0  0  0  0  0
  145.5149  137.7791  151.9886 N   0  0  0  0  0  0  0  0  0  0  0  0
  146.6150  138.4346  152.3980 C   0  0  0  0  0  0  0  0  0  0  0  0
  147.7636  137.9943  152.3754 O   0  0  0  0  0  0  0  0  0  0  0  0
  146.3070  139.6628  152.8378 N   0  0  0  0  0  0  0  0  0  0  0  0
  147.2634  140.6300  153.3645 C   0  0  0  0  0  0  0  0  0  0  0  0
  148.2420  139.9800  154.3649 C   0  0  0  0  0  0  0  0  0  0  0  0
  148.5900  140.8788  155.5645 C   0  0  0  0  0  0  0  0  0  0  0  0
  147.6756  141.4020  156.2035 O   0  0  0  0  0  0  0  0  0  0  0  0
  149.8925  141.0719  155.8835 N   0  0  0  0  0  0  0  0  0  0  0  0
  151.0453  140.4398  155.2355 C   0  0  0  0  0  0  0  0  0  0  0  0
  151.7191  139.5020  156.2572 C   0  0  1  0  0  0  0  0  0  0  0  0
  152.9747  138.8306  155.6909 C   0  0  0  0  0  0  0  0  0  0  0  0
  152.1003  140.2602  157.4047 O   0  0  0  0  0  0  0  0  0  0  0  0
  151.0107  140.9226  158.0457 C   0  0  1  0  0  0  0  0  0  0  0  0
  151.5594  141.6762  159.2621 C   0  0  0  0  0  0  0  0  0  0  0  0
  150.3272  141.8658  157.0355 C   0  0  0  0  0  0  0  0  0  0  0  0
  146.4807  135.9623  150.7116 C   0  0  0  0  0  0  0  0  0  0  0  0
  146.4988  134.7395  150.1411 N   0  0  0  0  0  0  0  0  0  0  0  0
  146.4312  131.2600  148.6402 H   0  0  0  0  0  0  0  0  0  0  0  0
  147.4405  132.2223  149.7143 H   0  0  0  0  0  0  0  0  0  0  0  0
  146.8321  132.9151  148.1941 H   0  0  0  0  0  0  0  0  0  0  0  0
  143.4071  133.7084  151.0843 H   0  0  0  0  0  0  0  0  0  0  0  0
  143.3667  135.9471  152.1203 H   0  0  0  0  0  0  0  0  0  0  0  0
  144.6509  138.2980  152.0465 H   0  0  0  0  0  0  0  0  0  0  0  0
  145.3382  139.9460  152.8197 H   0  0  0  0  0  0  0  0  0  0  0  0
  147.8098  141.0446  152.5164 H   0  0  0  0  0  0  0  0  0  0  0  0
  146.7296  141.4609  153.8294 H   0  0  0  0  0  0  0  0  0  0  0  0
  147.8099  139.0516  154.7404 H   0  0  0  0  0  0  0  0  0  0  0  0
  149.1659  139.7219  153.8459 H   0  0  0  0  0  0  0  0  0  0  0  0
  150.7921  139.8847  154.3339 H   0  0  0  0  0  0  0  0  0  0  0  0
  151.7446  141.2147  154.9170 H   0  0  0  0  0  0  0  0  0  0  0  0
  151.0156  138.7250  156.5620 H   0  0  0  0  0  0  0  0  0  0  0  0
  152.7362  138.2240  154.8169 H   0  0  0  0  0  0  0  0  0  0  0  0
  153.4348  138.1776  156.4329 H   0  0  0  0  0  0  0  0  0  0  0  0
  153.7182  139.5703  155.3926 H   0  0  0  0  0  0  0  0  0  0  0  0
  150.2951  140.1745  158.3919 H   0  0  0  0  0  0  0  0  0  0  0  0
  150.7616  142.1913  159.7976 H   0  0  0  0  0  0  0  0  0  0  0  0
  152.2983  142.4205  158.9641 H   0  0  0  0  0  0  0  0  0  0  0  0
  152.0402  140.9910  159.9605 H   0  0  0  0  0  0  0  0  0  0  0  0
  151.0244  142.6352  156.7004 H   0  0  0  0  0  0  0  0  0  0  0  0
  149.5051  142.3950  157.5192 H   0  0  0  0  0  0  0  0  0  0  0  0
  147.3714  136.5576  150.5732 H   0  0  0  0  0  0  0  0  0  0  0  0
  1  2  1  0  0  0  0
  1 25  1  0  0  0  0
  1 26  1  0  0  0  0
  1 27  1  0  0  0  0
  2  3  1  0  0  0  0
  3 24  1  0  0  0  0
  3  4  2  0  0  0  0
  4  5  1  0  0  0  0
  4 28  1  0  0  0  0
  5  6  2  0  0  0  0
  5 29  1  0  0  0  0
  6  7  1  0  0  0  0
  6 23  1  0  0  0  0
  7  8  1  0  0  0  0
  7 30  1  0  0  0  0
  8  9  2  0  0  0  0
  8 10  1  0  0  0  0
 10 11  1  0  0  0  0
 10 31  1  0  0  0  0
 11 12  1  0  0  0  0
 11 32  1  0  0  0  0
 11 33  1  0  0  0  0
 12 13  1  0  0  0  0
 12 34  1  0  0  0  0
 12 35  1  0  0  0  0
 13 14  2  0  0  0  0
 13 15  1  0  0  0  0
 15 22  1  0  0  0  0
 15 16  1  0  0  0  0
 16 17  1  0  0  0  0
 16 36  1  0  0  0  0
 16 37  1  0  0  0  0
 17 18  1  0  0  0  0
 17 19  1  0  0  0  0
 17 38  1  0  0  0  0
 18 39  1  0  0  0  0
 18 40  1  0  0  0  0
 18 41  1  0  0  0  0
 19 20  1  0  0  0  0
 20 21  1  0  0  0  0
 20 22  1  0  0  0  0
 20 42  1  0  0  0  0
 21 43  1  0  0  0  0
 21 44  1  0  0  0  0
 21 45  1  0  0  0  0
 22 46  1  0  0  0  0
 22 47  1  0  0  0  0
 23 24  2  0  0  0  0
 23 48  1  0  0  0  0
M  END
> <s_m_source_file>
AV-unprocessed.smi

> <i_m_source_file_index>
314

> <i_lp_mmshare_version>
43012

> <i_f3d_flags>
0

> <s_epik_input>
W0NIM11PYzFbY0hdW2NIXWMoW2NIXW4xKVtOSF1DKD1PKVtOSF1bQ0gyXVtDSDJdQyg9TylOMltDSDJdW0NAQEhdKFtDSDNdKU9bQ0BASF0oW0NIM10pW0NIMl0y

> <s_epik_cmdline>
J2VwaWtfcHl0aG9uJywgJy1waCcsICc3LjAnLCAnLXRuJywgJzgnLCAnLW1hJywgJzIwMCcsICctbWV0YWxfYmluZGluZycsICctaW1hZScsICc8aW5maWxlLm1hZT4nLCAnLW9tYWUnLCAnPG91dGZpbGUubWFlPic=

> <r_lp_tautomer_probability>
1

> <r_epik_Ionization_Penalty>
8.55977e-05

> <r_epik_Ionization_Penalty_Charging>
0

> <r_epik_Ionization_Penalty_Neutral>
8.55977e-05

> <r_epik_State_Penalty>
-0

> <r_epik_Charging_Adjusted_Penalty>
0

> <i_epik_Tot_Q>
0

> <i_epik_Tot_abs_Q>
0

> <r_epik_Metal_State_Penalty>
-0

> <b_epik_Metal_Only>
0

> <s_lp_Force_Field>
OPLS_2005

> <r_lp_Energy>
24.2957

> <b_lp_Chiralities_Consistent>
1

> <s_lp_Variant>
AV-unprocessed.smi:314-1

> <Gold.Version>
5.8.1

> <Gold.Id.Protein>
6NUR|6NUR_protein|mol2

> <Gold.PLP.Fitness>
47.5566

> <Gold.PLP.PLP>
-37.1992

> <Gold.PLP.part.hbond>
-4.0000

> <Gold.PLP.part.metal>
0.0000

> <Gold.PLP.part.buried>
-1.8767

> <Gold.PLP.part.nonpolar>
-36.5424

> <Gold.PLP.part.repulsive>
4.8764

> <Gold.PLP.ligand.clash>
0.0000

> <Gold.PLP.ligand.torsion>
0.6384

> <Gold.PLP.Chemscore.Hbond>
2.8720

> <Gold.PLP.Chemscore.CHOScore>
0.9991

> <Gold.PLP.Chemscore.Metal>
0.0000

> <Gold.Chemscore.Hbonds>
donor molecule, donor type, donor heavy atom, donor atom, acceptor molecule, acceptor atom, score
      L1  H     7    30       P1 10175  0.09
      L1  H    10    31       P1 10175  1.00
      L1  C    23    48       P1  7948  0.71

> <Gold.PLP.Chemscore.Internal.Correction>
0.0210

> <Gold.Rescore>
     Score         DG    S(hbond)    S(metal)    S(lipo)     H(rot)  DE(clash)    DE(int)     intcor
     11.83     -16.55       1.88        0.00      80.49       1.81       1.59       3.13       ----

> <Gold.Chemscore.Fitness>
11.8296

> <Gold.Chemscore.DG>
-16.5504

> <Gold.Chemscore.ZeroCoef>
-5.4800

> <Gold.Chemscore.Hbond>
1.8796

> <Gold.Chemscore.Metal>
0.0000

> <Gold.Chemscore.Lipo>
80.4926

> <Gold.Chemscore.Internal_Hbond>
0.0000

> <Gold.Chemscore.DEClash>
1.5949

> <Gold.Chemscore.DEInternal>
3.1259

> <Gold.Chemscore.Rot>
1.8067

> <Gold.Chemscore.Internal.Correction>
   9.000000E+99

> <Gold.Chemscore.Hbonds>
donor molecule, donor type, donor heavy atom, donor atom, acceptor molecule, acceptor atom, score
      L1  H     7    30       P1 10175  0.11
      L1  H    10    31       P1 10175  1.00

> <Gold.Chemscore.Hbond.Weighted>
-6.2779

> <Gold.Chemscore.Metal.Weighted>
-0.0000

> <Gold.Chemscore.Lipo.Weighted>
-9.4176

> <Gold.Chemscore.Internal_Hbond.Weighted>
0.0000

> <Gold.Chemscore.DEClash.Weighted>
1.5949

> <Gold.Chemscore.DEInternal.Weighted>
3.1259

> <Gold.Chemscore.Rot.Weighted>
4.6252

> <Gold.Chemscore.Internal.Correction.Weighted>
   9.000000E+99

> <Gold.Protein.RotatedTorsions>
[ 6907 6896 6895 6894 ] final   24.29 input  -60.11 | X-H torsion
[ 7974 7965 7964 7962 ] final -139.33 input  175.53 | X-H torsion
[ 8008 7997 7996 7995 ] final -159.13 input   59.86 | X-H torsion
[ 10167 10162 10161 10158 ] final   52.27 input  -65.29 | X-H torsion
[ 10718 10713 10712 10709 ] final -159.29 input   66.30 | X-H torsion
[ 10763 10752 10751 10750 ] final   38.66 input  -60.55 | X-H torsion
[ 11005 11000 10999 10996 ] final  -20.56 input  -57.11 | X-H torsion

> <Gold.Protein.ActiveResidues>
 VAL166  LYS551  ARG553  GLY616  TRP617  ASP618  TYR619  PRO620  LYS621  CYS622 
 ASP623  PHE694  ASN695  SER759  ASP760  ASP761  ALA762  ILE779  LEU786  VAL792 
 PHE793  MET794  SER795  GLU796  ALA797  LYS798  CYS799  TRP800  GLU811  SER814 

> <Gold.Protein.RotatedAtoms>
  151.9552  135.0150  160.0544 H   0  0  0  0  0  0  0  0  0  0  0  0  # atno 6907 bound_to 6896
  152.1917  133.4773  159.5020 H   0  0  0  0  0  0  0  0  0  0  0  0  # atno 6908 bound_to 6896
  150.6936  134.1621  159.4223 H   0  0  0  0  0  0  0  0  0  0  0  0  # atno 6909 bound_to 6896
  144.8685  140.6330  143.5282 H   0  0  0  0  0  0  0  0  0  0  0  0  # atno 7974 bound_to 7965
  155.7580  140.0835  157.2169 H   0  0  0  0  0  0  0  0  0  0  0  0  # atno 8008 bound_to 7997
  154.4006  140.1548  156.2856 H   0  0  0  0  0  0  0  0  0  0  0  0  # atno 8009 bound_to 7997
  155.8867  140.3417  155.5929 H   0  0  0  0  0  0  0  0  0  0  0  0  # atno 8010 bound_to 7997
  140.2532  144.3456  150.6341 H   0  0  0  0  0  0  0  0  0  0  0  0  # atno 10167 bound_to 10162
  156.5661  130.8668  151.2824 H   0  0  0  0  0  0  0  0  0  0  0  0  # atno 10718 bound_to 10713
  152.9993  135.6243  154.2340 H   0  0  0  0  0  0  0  0  0  0  0  0  # atno 10763 bound_to 10752
  154.2082  135.2801  155.2969 H   0  0  0  0  0  0  0  0  0  0  0  0  # atno 10764 bound_to 10752
  154.5628  135.5700  153.7082 H   0  0  0  0  0  0  0  0  0  0  0  0  # atno 10765 bound_to 10752
  140.8476  133.7880  155.9929 H   0  0  0  0  0  0  0  0  0  0  0  0  # atno 11005 bound_to 11000
  145.4175  139.1569  143.4092 LP  0  0  0  0  0  0  0  0  0  0  0  0  # atno 17320 bound_to 7965
  146.2913  140.4283  142.8738 LP  0  0  0  0  0  0  0  0  0  0  0  0  # atno 17321 bound_to 7965
  140.6024  143.2167  151.7046 LP  0  0  0  0  0  0  0  0  0  0  0  0  # atno 17342 bound_to 10162
  139.5040  144.3771  152.0413 LP  0  0  0  0  0  0  0  0  0  0  0  0  # atno 17343 bound_to 10162
  157.7358  130.9768  150.2103 LP  0  0  0  0  0  0  0  0  0  0  0  0  # atno 17370 bound_to 10713
  156.2756  130.3727  149.7987 LP  0  0  0  0  0  0  0  0  0  0  0  0  # atno 17371 bound_to 10713
  140.8826  134.2592  157.5136 LP  0  0  0  0  0  0  0  0  0  0  0  0  # atno 17394 bound_to 11000
  139.8703  134.9622  156.4423 LP  0  0  0  0  0  0  0  0  0  0  0  0  # atno 17395 bound_to 11000

$$$$
