AV-unprocessed.smi:218|AV-procd|sdf|1662|dock6
  -GOLD-   2262020 63D 1   1.00000     0.00000
 Structure written by MMmdl.
 54 57  0  0  0  0  0  0  0  0  1 V2000
  145.0071  127.1375  155.6831 C   0  0  0  0  0  0  0  0  0  0  0  0
  146.3670  126.4501  155.8548 C   0  0  0  0  0  0  0  0  0  0  0  0
  146.6785  126.1960  157.3399 C   0  0  0  0  0  0  0  0  0  0  0  0
  147.3459  127.3200  155.2826 O   0  0  0  0  0  0  0  0  0  0  0  0
  147.3321  127.5858  153.9268 C   0  0  0  0  0  0  0  0  0  0  0  0
  146.5226  128.6423  153.4617 C   0  0  0  0  0  0  0  0  0  0  0  0
  146.4926  128.9253  152.0810 C   0  0  0  0  0  0  0  0  0  0  0  0
  145.6187  130.0475  151.5517 C   0  0  0  0  0  0  0  0  0  0  0  0
  146.3643  131.1956  151.0516 N   0  0  0  0  0  0  0  0  0  0  0  0
  145.7294  132.3643  150.8203 C   0  0  0  0  0  0  0  0  0  0  0  0
  144.7815  132.4671  149.8519 N   0  0  0  0  0  0  0  0  0  0  0  0
  144.1688  133.6359  149.6374 C   0  0  0  0  0  0  0  0  0  0  0  0
  144.3517  134.8015  150.2626 N   0  0  0  0  0  0  0  0  0  0  0  0
  145.3041  134.7005  151.2343 C   0  0  0  0  0  0  0  0  0  0  0  0
  146.0301  133.5266  151.5758 C   0  0  0  0  0  0  0  0  0  0  0  0
  146.9071  133.8031  152.6167 N   0  0  0  0  0  0  0  0  0  0  0  0
  146.7084  135.0694  152.8699 C   0  0  0  0  0  0  0  0  0  0  0  0
  145.7622  135.6866  152.0791 N   0  0  0  0  0  0  0  0  0  0  0  0
  145.2948  137.1058  152.0958 C   0  0  2  0  0  0  0  0  0  0  0  0
  146.4156  137.9256  151.9313 O   0  0  0  0  0  0  0  0  0  0  0  0
  146.5840  138.7933  153.0515 C   0  0  2  0  0  0  0  0  0  0  0  0
  148.0797  139.0214  153.3188 C   0  0  0  0  0  0  0  0  0  0  0  0
  148.5389  140.1329  152.5803 O   0  0  0  0  0  0  0  0  0  0  0  0
  145.8665  138.0572  154.1833 C   0  0  1  0  0  0  0  0  0  0  0  0
  145.4721  138.9043  155.2454 O   0  0  0  0  0  0  0  0  0  0  0  0
  144.6837  137.4247  153.4654 C   0  0  1  0  0  0  0  0  0  0  0  0
  143.5790  138.3013  153.3337 O   0  0  0  0  0  0  0  0  0  0  0  0
  147.2704  128.1282  151.2146 C   0  0  0  0  0  0  0  0  0  0  0  0
  148.0474  127.0943  151.7716 C   0  0  0  0  0  0  0  0  0  0  0  0
  148.0829  126.8234  153.0933 N   0  0  0  0  0  0  0  0  0  0  0  0
  144.6025  137.1808  151.2561 H   0  0  0  0  0  0  0  0  0  0  0  0
  146.0708  139.7353  152.8485 H   0  0  0  0  0  0  0  0  0  0  0  0
  146.5117  137.2699  154.5766 H   0  0  0  0  0  0  0  0  0  0  0  0
  144.3390  136.5180  153.9650 H   0  0  0  0  0  0  0  0  0  0  0  0
  144.2027  126.5271  156.0944 H   0  0  0  0  0  0  0  0  0  0  0  0
  144.7874  127.3074  154.6288 H   0  0  0  0  0  0  0  0  0  0  0  0
  144.9857  128.1039  156.1876 H   0  0  0  0  0  0  0  0  0  0  0  0
  146.3192  125.5026  155.3161 H   0  0  0  0  0  0  0  0  0  0  0  0
  145.9163  125.5634  157.7953 H   0  0  0  0  0  0  0  0  0  0  0  0
  146.7122  127.1310  157.8999 H   0  0  0  0  0  0  0  0  0  0  0  0
  147.6377  125.6963  157.4732 H   0  0  0  0  0  0  0  0  0  0  0  0
  145.9344  129.2236  154.1568 H   0  0  0  0  0  0  0  0  0  0  0  0
  144.9973  129.6429  150.7516 H   0  0  0  0  0  0  0  0  0  0  0  0
  144.9475  130.3793  152.3451 H   0  0  0  0  0  0  0  0  0  0  0  0
  147.3437  131.0430  150.8583 H   0  0  0  0  0  0  0  0  0  0  0  0
  143.4276  133.6376  148.8517 H   0  0  0  0  0  0  0  0  0  0  0  0
  147.2541  135.5873  153.6447 H   0  0  0  0  0  0  0  0  0  0  0  0
  148.2424  139.2413  154.3744 H   0  0  0  0  0  0  0  0  0  0  0  0
  148.6684  138.1359  153.0784 H   0  0  0  0  0  0  0  0  0  0  0  0
  148.8938  139.8238  151.7610 H   0  0  0  0  0  0  0  0  0  0  0  0
  146.0751  138.7790  155.9627 H   0  0  0  0  0  0  0  0  0  0  0  0
  143.7394  138.8777  152.6020 H   0  0  0  0  0  0  0  0  0  0  0  0
  147.2721  128.2953  150.1475 H   0  0  0  0  0  0  0  0  0  0  0  0
  148.6541  126.4648  151.1374 H   0  0  0  0  0  0  0  0  0  0  0  0
  1  2  1  0  0  0  0
  1 35  1  0  0  0  0
  1 36  1  0  0  0  0
  1 37  1  0  0  0  0
  2  3  1  0  0  0  0
  2  4  1  0  0  0  0
  2 38  1  0  0  0  0
  3 39  1  0  0  0  0
  3 40  1  0  0  0  0
  3 41  1  0  0  0  0
  4  5  1  0  0  0  0
  5 30  1  0  0  0  0
  5  6  2  0  0  0  0
  6  7  1  0  0  0  0
  6 42  1  0  0  0  0
  7  8  1  0  0  0  0
  7 28  2  0  0  0  0
  8  9  1  0  0  0  0
  8 43  1  0  0  0  0
  8 44  1  0  0  0  0
  9 10  1  0  0  0  0
  9 45  1  0  0  0  0
 10 15  1  0  0  0  0
 10 11  2  0  0  0  0
 11 12  1  0  0  0  0
 12 13  2  0  0  0  0
 12 46  1  0  0  0  0
 13 14  1  0  0  0  0
 14 18  1  0  0  0  0
 14 15  2  0  0  0  0
 15 16  1  0  0  0  0
 16 17  2  0  0  0  0
 17 18  1  0  0  0  0
 17 47  1  0  0  0  0
 18 19  1  0  0  0  0
 19 31  1  0  0  0  0
 19 26  1  0  0  0  0
 19 20  1  0  0  0  0
 20 21  1  0  0  0  0
 21 32  1  0  0  0  0
 21 22  1  0  0  0  0
 21 24  1  0  0  0  0
 22 23  1  0  0  0  0
 22 48  1  0  0  0  0
 22 49  1  0  0  0  0
 23 50  1  0  0  0  0
 24 33  1  0  0  0  0
 24 25  1  0  0  0  0
 24 26  1  0  0  0  0
 25 51  1  0  0  0  0
 26 34  1  0  0  0  0
 26 27  1  0  0  0  0
 27 52  1  0  0  0  0
 28 29  1  0  0  0  0
 28 53  1  0  0  0  0
 29 30  2  0  0  0  0
 29 54  1  0  0  0  0
M  END
> <s_m_source_file>
AV-unprocessed.smi

> <i_m_source_file_index>
218

> <i_lp_mmshare_version>
43012

> <i_f3d_flags>
0

> <s_epik_input>
W0NIM11bQ0hdKFtDSDNdKU9jMVtjSF1jKFtjSF1bY0hdbjEpW0NIMl1bTkhdYyhuW2NIXW4yKWMoYzIzKW5bY0hdbjNbQ0BASF00T1tDQEhdKFtDSDJdW09IXSlbQ0BASF0oW09IXSlbQ0BIXTRbT0hd

> <s_epik_cmdline>
J2VwaWtfcHl0aG9uJywgJy1waCcsICc3LjAnLCAnLXRuJywgJzgnLCAnLW1hJywgJzIwMCcsICctbWV0YWxfYmluZGluZycsICctaW1hZScsICc8aW5maWxlLm1hZT4nLCAnLW9tYWUnLCAnPG91dGZpbGUubWFlPic=

> <r_lp_tautomer_probability>
1

> <r_epik_Ionization_Penalty>
0.00457014

> <r_epik_Ionization_Penalty_Charging>
0

> <r_epik_Ionization_Penalty_Neutral>
0.00457014

> <r_epik_State_Penalty>
-0

> <r_epik_Charging_Adjusted_Penalty>
0

> <i_epik_Tot_Q>
0

> <i_epik_Tot_abs_Q>
0

> <r_epik_Metal_State_Penalty>
-0

> <b_epik_Metal_Only>
0

> <s_epik_Chemistry_Notes>
This compound contains an acetal/aminal-like group ( X-CH(R)-Y where X, Y are N, S, or O) that may be acid/base labile, releasing an aldehyde.

> <s_lp_Force_Field>
OPLS_2005

> <r_lp_Energy>
38.2737

> <b_lp_Chiralities_Consistent>
1

> <s_lp_Variant>
AV-unprocessed.smi:218-1

> <Gold.Version>
5.8.1

> <Gold.Id.Protein>
6NUR|6NUR_protein|mol2

> <Gold.PLP.Fitness>
48.3333

> <Gold.PLP.PLP>
-40.0402

> <Gold.PLP.part.hbond>
-2.8154

> <Gold.PLP.part.metal>
0.0000

> <Gold.PLP.part.buried>
-7.4104

> <Gold.PLP.part.nonpolar>
-31.1970

> <Gold.PLP.part.repulsive>
0.8938

> <Gold.PLP.ligand.clash>
0.0000

> <Gold.PLP.ligand.torsion>
1.5118

> <Gold.PLP.Chemscore.Hbond>
2.9920

> <Gold.PLP.Chemscore.CHOScore>
0.7160

> <Gold.PLP.Chemscore.Metal>
0.0000

> <Gold.Chemscore.Hbonds>
donor molecule, donor type, donor heavy atom, donor atom, acceptor molecule, acceptor atom, score
      L1  H     9    45       P1 10747  1.00
      L1  H    27    52       P1 10175  0.64
      L1  C    12    46       P1 10186  0.55
      L1  C    17    47       P1  7948  0.14

> <Gold.PLP.Chemscore.Internal.Correction>
0.1927

> <Gold.Rescore>
     Score         DG    S(hbond)    S(metal)    S(lipo)     H(rot)  DE(clash)    DE(int)     intcor
      8.72     -10.90       2.95        0.00      69.33       4.90       0.62       1.55       ----

> <Gold.Chemscore.Fitness>
8.7201

> <Gold.Chemscore.DG>
-10.8955

> <Gold.Chemscore.ZeroCoef>
-5.4800

> <Gold.Chemscore.Hbond>
2.9507

> <Gold.Chemscore.Metal>
0.0000

> <Gold.Chemscore.Lipo>
69.3297

> <Gold.Chemscore.Internal_Hbond>
0.0000

> <Gold.Chemscore.DEClash>
0.6213

> <Gold.Chemscore.DEInternal>
1.5541

> <Gold.Chemscore.Rot>
4.9029

> <Gold.Chemscore.Internal.Correction>
   9.000000E+99

> <Gold.Chemscore.Hbonds>
donor molecule, donor type, donor heavy atom, donor atom, acceptor molecule, acceptor atom, score
      L1  H     9    45       P1 10747  1.00
      L1  H    27    52       P1 10175  0.62

> <Gold.Chemscore.Hbond.Weighted>
-9.8554

> <Gold.Chemscore.Metal.Weighted>
-0.0000

> <Gold.Chemscore.Lipo.Weighted>
-8.1116

> <Gold.Chemscore.Internal_Hbond.Weighted>
0.0000

> <Gold.Chemscore.DEClash.Weighted>
0.6213

> <Gold.Chemscore.DEInternal.Weighted>
1.5541

> <Gold.Chemscore.Rot.Weighted>
12.5515

> <Gold.Chemscore.Internal.Correction.Weighted>
   9.000000E+99

> <Gold.Protein.RotatedTorsions>
[ 6907 6896 6895 6894 ] final  -63.50 input  -60.11 | X-H torsion
[ 7974 7965 7964 7962 ] final   80.92 input  175.53 | X-H torsion
[ 8008 7997 7996 7995 ] final   60.24 input   59.86 | X-H torsion
[ 10167 10162 10161 10158 ] final -111.25 input  -65.29 | X-H torsion
[ 10718 10713 10712 10709 ] final   -3.28 input   66.30 | X-H torsion
[ 10763 10752 10751 10750 ] final -136.91 input  -60.55 | X-H torsion
[ 11005 11000 10999 10996 ] final  100.07 input  -57.11 | X-H torsion

> <Gold.Protein.ActiveResidues>
 VAL166  LYS551  ARG553  GLY616  TRP617  ASP618  TYR619  PRO620  LYS621  CYS622 
 ASP623  PHE694  ASN695  SER759  ASP760  ASP761  ALA762  ILE779  LEU786  VAL792 
 PHE793  MET794  SER795  GLU796  ALA797  LYS798  CYS799  TRP800  GLU811  SER814 

> <Gold.Protein.RotatedAtoms>
  150.7645  134.6426  159.6244 H   0  0  0  0  0  0  0  0  0  0  0  0  # atno 6907 bound_to 6896
  152.3669  134.6787  160.0198 H   0  0  0  0  0  0  0  0  0  0  0  0  # atno 6908 bound_to 6896
  151.7160  133.3277  159.3339 H   0  0  0  0  0  0  0  0  0  0  0  0  # atno 6909 bound_to 6896
  145.6450  139.2434  143.2009 H   0  0  0  0  0  0  0  0  0  0  0  0  # atno 7974 bound_to 7965
  155.5792  140.3491  155.4536 H   0  0  0  0  0  0  0  0  0  0  0  0  # atno 8008 bound_to 7997
  156.0386  140.1291  157.0205 H   0  0  0  0  0  0  0  0  0  0  0  0  # atno 8009 bound_to 7997
  154.4382  140.1028  156.6189 H   0  0  0  0  0  0  0  0  0  0  0  0  # atno 8010 bound_to 7997
  140.1356  143.4323  152.1597 H   0  0  0  0  0  0  0  0  0  0  0  0  # atno 10167 bound_to 10162
  156.7783  130.5322  149.5755 H   0  0  0  0  0  0  0  0  0  0  0  0  # atno 10718 bound_to 10713
  154.8673  135.3658  154.5137 H   0  0  0  0  0  0  0  0  0  0  0  0  # atno 10763 bound_to 10752
  153.5771  135.7019  153.5484 H   0  0  0  0  0  0  0  0  0  0  0  0  # atno 10764 bound_to 10752
  153.3490  135.4077  155.1594 H   0  0  0  0  0  0  0  0  0  0  0  0  # atno 10765 bound_to 10752
  139.8771  134.9124  156.4701 H   0  0  0  0  0  0  0  0  0  0  0  0  # atno 11005 bound_to 11000
  146.1250  140.7259  142.9439 LP  0  0  0  0  0  0  0  0  0  0  0  0  # atno 17320 bound_to 7965
  144.7143  140.4155  143.7056 LP  0  0  0  0  0  0  0  0  0  0  0  0  # atno 17321 bound_to 7965
  139.5497  144.7328  151.4472 LP  0  0  0  0  0  0  0  0  0  0  0  0  # atno 17342 bound_to 10162
  140.6791  143.8123  150.7097 LP  0  0  0  0  0  0  0  0  0  0  0  0  # atno 17343 bound_to 10162
  156.1234  130.6126  151.0227 LP  0  0  0  0  0  0  0  0  0  0  0  0  # atno 17370 bound_to 10713
  157.6658  131.0872  150.7731 LP  0  0  0  0  0  0  0  0  0  0  0  0  # atno 17371 bound_to 10713
  140.8802  133.7923  155.9458 LP  0  0  0  0  0  0  0  0  0  0  0  0  # atno 17394 bound_to 11000
  140.8862  134.2551  157.5118 LP  0  0  0  0  0  0  0  0  0  0  0  0  # atno 17395 bound_to 11000

$$$$
