AV-unprocessed.smi:2758|AV-procd|sdf|10622|dock2
  -GOLD-   2272015 63D 1   1.00000     0.00000
 Structure written by MMmdl.
 32 33  0  0  0  0  0  0  0  0  1 V2000
  154.1008  137.4812  162.4803 C   0  0  0  0  0  0  0  0  0  0  0  0
  154.4166  138.1947  161.2976 O   0  0  0  0  0  0  0  0  0  0  0  0
  154.5732  139.5853  161.5281 C   0  0  0  0  0  0  0  0  0  0  0  0
  154.2356  140.3525  160.2403 C   0  0  1  0  0  0  0  0  0  0  0  0
  155.1010  139.9040  159.2158 O   0  0  0  0  0  0  0  0  0  0  0  0
  152.7745  140.1244  159.8035 C   0  0  0  0  0  0  0  0  0  0  0  0
  152.2678  141.1949  158.9545 N   0  0  0  0  0  0  0  0  0  0  0  0
  151.8214  141.1169  157.6760 C   0  0  0  0  0  0  0  0  0  0  0  0
  151.7906  139.8243  156.9242 C   0  0  0  0  0  0  0  0  0  0  0  0
  151.4085  142.2626  157.1332 N   0  0  0  0  0  0  0  0  0  0  0  0
  151.6018  143.1697  158.1570 C   0  0  0  0  0  0  0  0  0  0  0  0
  151.3530  144.5599  158.2115 C   0  0  0  0  0  0  0  0  0  0  0  0
  151.6300  145.2889  159.3866 C   0  0  0  0  0  0  0  0  0  0  0  0
  152.1597  144.6403  160.5212 C   0  0  0  0  0  0  0  0  0  0  0  0
  152.4161  143.2561  160.4878 C   0  0  0  0  0  0  0  0  0  0  0  0
  152.1371  142.5330  159.3126 C   0  0  0  0  0  0  0  0  0  0  0  0
  154.3983  141.4196  160.3975 H   0  0  0  0  0  0  0  0  0  0  0  0
  154.0034  136.4198  162.2532 H   0  0  0  0  0  0  0  0  0  0  0  0
  153.1556  137.8223  162.9047 H   0  0  0  0  0  0  0  0  0  0  0  0
  154.8831  137.5939  163.2318 H   0  0  0  0  0  0  0  0  0  0  0  0
  153.9548  139.9246  162.3612 H   0  0  0  0  0  0  0  0  0  0  0  0
  155.6133  139.7689  161.8029 H   0  0  0  0  0  0  0  0  0  0  0  0
  155.9211  139.6484  159.6102 H   0  0  0  0  0  0  0  0  0  0  0  0
  152.6746  139.1684  159.2892 H   0  0  0  0  0  0  0  0  0  0  0  0
  152.1302  140.0628  160.6815 H   0  0  0  0  0  0  0  0  0  0  0  0
  151.4663  139.9873  155.8959 H   0  0  0  0  0  0  0  0  0  0  0  0
  151.0947  139.1311  157.3970 H   0  0  0  0  0  0  0  0  0  0  0  0
  152.7821  139.3725  156.9026 H   0  0  0  0  0  0  0  0  0  0  0  0
  150.9464  145.0653  157.3481 H   0  0  0  0  0  0  0  0  0  0  0  0
  151.4346  146.3510  159.4177 H   0  0  0  0  0  0  0  0  0  0  0  0
  152.3685  145.2063  161.4173 H   0  0  0  0  0  0  0  0  0  0  0  0
  152.8215  142.7558  161.3546 H   0  0  0  0  0  0  0  0  0  0  0  0
  1  2  1  0  0  0  0
  1 18  1  0  0  0  0
  1 19  1  0  0  0  0
  1 20  1  0  0  0  0
  2  3  1  0  0  0  0
  3  4  1  0  0  0  0
  3 21  1  0  0  0  0
  3 22  1  0  0  0  0
  4 17  1  0  0  0  0
  4  5  1  0  0  0  0
  4  6  1  0  0  0  0
  5 23  1  0  0  0  0
  6  7  1  0  0  0  0
  6 24  1  0  0  0  0
  6 25  1  0  0  0  0
  7 16  1  0  0  0  0
  7  8  1  0  0  0  0
  8  9  1  0  0  0  0
  8 10  2  0  0  0  0
  9 26  1  0  0  0  0
  9 27  1  0  0  0  0
  9 28  1  0  0  0  0
 10 11  1  0  0  0  0
 11 16  2  0  0  0  0
 11 12  1  0  0  0  0
 12 13  2  0  0  0  0
 12 29  1  0  0  0  0
 13 14  1  0  0  0  0
 13 30  1  0  0  0  0
 14 15  2  0  0  0  0
 14 31  1  0  0  0  0
 15 16  1  0  0  0  0
 15 32  1  0  0  0  0
M  END
> <s_m_source_file>
AV-unprocessed.smi

> <i_m_source_file_index>
2758

> <i_lp_mmshare_version>
43012

> <i_f3d_flags>
0

> <s_epik_input>
W0NIM11PW0NIMl1bQ0BASF0oW09IXSlbQ0gyXW4oYyhuMSlbQ0gzXSljKGMxMilbY0hdW2NIXVtjSF1bY0hdMg==

> <s_epik_cmdline>
J2VwaWtfcHl0aG9uJywgJy1waCcsICc3LjAnLCAnLXRuJywgJzgnLCAnLW1hJywgJzIwMCcsICctbWV0YWxfYmluZGluZycsICctaW1hZScsICc8aW5maWxlLm1hZT4nLCAnLW9tYWUnLCAnPG91dGZpbGUubWFlPic=

> <r_epik_Ionization_Penalty>
0.126985

> <r_epik_Ionization_Penalty_Charging>
0

> <r_epik_Ionization_Penalty_Neutral>
0.126985

> <r_epik_State_Penalty>
0.116428

> <r_epik_Charging_Adjusted_Penalty>
0.116428

> <i_epik_Tot_Q>
0

> <i_epik_Tot_abs_Q>
0

> <r_epik_Metal_State_Penalty>
0.000128642

> <b_epik_Metal_Only>
0

> <s_lp_Force_Field>
OPLS_2005

> <r_lp_Energy>
8.80871

> <b_lp_Chiralities_Consistent>
1

> <s_lp_Variant>
AV-unprocessed.smi:2758-1

> <Gold.Version>
5.8.1

> <Gold.Id.Protein>
6NUR|6NUR_protein|mol2

> <Gold.PLP.Fitness>
38.6499

> <Gold.PLP.PLP>
-36.4579

> <Gold.PLP.part.hbond>
-1.0000

> <Gold.PLP.part.metal>
0.0000

> <Gold.PLP.part.buried>
-3.3264

> <Gold.PLP.part.nonpolar>
-31.3499

> <Gold.PLP.part.repulsive>
0.0624

> <Gold.PLP.ligand.clash>
0.0000

> <Gold.PLP.ligand.torsion>
0.4065

> <Gold.PLP.Chemscore.Hbond>
1.0000

> <Gold.PLP.Chemscore.CHOScore>
0.0000

> <Gold.PLP.Chemscore.Metal>
0.0000

> <Gold.Chemscore.Hbonds>
donor molecule, donor type, donor heavy atom, donor atom, acceptor molecule, acceptor atom, score
      P1  H  7997  8009       L1     5  1.00

> <Gold.PLP.Chemscore.Internal.Correction>
0.0050

> <Gold.Rescore>
     Score         DG    S(hbond)    S(metal)    S(lipo)     H(rot)  DE(clash)    DE(int)     intcor
     15.25     -15.87       0.94        0.00     106.87       2.05       0.20       0.42       ----

> <Gold.Chemscore.Fitness>
15.2521

> <Gold.Chemscore.DG>
-15.8682

> <Gold.Chemscore.ZeroCoef>
-5.4800

> <Gold.Chemscore.Hbond>
0.9389

> <Gold.Chemscore.Metal>
0.0000

> <Gold.Chemscore.Lipo>
106.8683

> <Gold.Chemscore.Internal_Hbond>
0.0000

> <Gold.Chemscore.DEClash>
0.1953

> <Gold.Chemscore.DEInternal>
0.4207

> <Gold.Chemscore.Rot>
2.0513

> <Gold.Chemscore.Internal.Correction>
   9.000000E+99

> <Gold.Chemscore.Hbonds>
donor molecule, donor type, donor heavy atom, donor atom, acceptor molecule, acceptor atom, score
      P1  H  7997  8009       L1     5  0.77

> <Gold.Chemscore.Hbond.Weighted>
-3.1360

> <Gold.Chemscore.Metal.Weighted>
-0.0000

> <Gold.Chemscore.Lipo.Weighted>
-12.5036

> <Gold.Chemscore.Internal_Hbond.Weighted>
0.0000

> <Gold.Chemscore.DEClash.Weighted>
0.1953

> <Gold.Chemscore.DEInternal.Weighted>
0.4207

> <Gold.Chemscore.Rot.Weighted>
5.2514

> <Gold.Chemscore.Internal.Correction.Weighted>
   9.000000E+99

> <Gold.Protein.RotatedTorsions>
[ 6907 6896 6895 6894 ] final   44.83 input  -60.11 | X-H torsion
[ 7974 7965 7964 7962 ] final  -37.41 input  175.53 | X-H torsion
[ 8008 7997 7996 7995 ] final  112.30 input   59.86 | X-H torsion
[ 10167 10162 10161 10158 ] final   20.50 input  -65.29 | X-H torsion
[ 10718 10713 10712 10709 ] final   15.56 input   66.30 | X-H torsion
[ 10763 10752 10751 10750 ] final  -67.11 input  -60.55 | X-H torsion
[ 11005 11000 10999 10996 ] final  105.08 input  -57.11 | X-H torsion

> <Gold.Protein.ActiveResidues>
 VAL166  LYS551  ARG553  GLY616  TRP617  ASP618  TYR619  PRO620  LYS621  CYS622 
 ASP623  PHE694  ASN695  SER759  ASP760  ASP761  ALA762  ILE779  LEU786  VAL792 
 PHE793  MET794  SER795  GLU796  ALA797  LYS798  CYS799  TRP800  GLU811  SER814 

> <Gold.Protein.RotatedAtoms>
  152.2373  134.8263  160.0465 H   0  0  0  0  0  0  0  0  0  0  0  0  # atno 6907 bound_to 6896
  151.8990  133.3528  159.3832 H   0  0  0  0  0  0  0  0  0  0  0  0  # atno 6908 bound_to 6896
  150.7043  134.4773  159.5498 H   0  0  0  0  0  0  0  0  0  0  0  0  # atno 6909 bound_to 6896
  146.0577  140.6393  142.9012 H   0  0  0  0  0  0  0  0  0  0  0  0  # atno 7974 bound_to 7965
  156.2183  140.3002  155.9892 H   0  0  0  0  0  0  0  0  0  0  0  0  # atno 8008 bound_to 7997
  155.2548  140.0427  157.3008 H   0  0  0  0  0  0  0  0  0  0  0  0  # atno 8009 bound_to 7997
  154.5801  140.2373  155.8074 H   0  0  0  0  0  0  0  0  0  0  0  0  # atno 8010 bound_to 7997
  140.5499  143.9528  150.6571 H   0  0  0  0  0  0  0  0  0  0  0  0  # atno 10167 bound_to 10162
  157.0553  130.6286  149.5775 H   0  0  0  0  0  0  0  0  0  0  0  0  # atno 10718 bound_to 10713
  154.3696  135.6098  153.5733 H   0  0  0  0  0  0  0  0  0  0  0  0  # atno 10763 bound_to 10752
  152.9790  135.5835  154.4537 H   0  0  0  0  0  0  0  0  0  0  0  0  # atno 10764 bound_to 10752
  154.4289  135.2847  155.1903 H   0  0  0  0  0  0  0  0  0  0  0  0  # atno 10765 bound_to 10752
  139.8798  134.9323  156.5460 H   0  0  0  0  0  0  0  0  0  0  0  0  # atno 11005 bound_to 11000
  144.7157  140.4201  143.7046 LP  0  0  0  0  0  0  0  0  0  0  0  0  # atno 17320 bound_to 7965
  145.6615  139.1582  143.2806 LP  0  0  0  0  0  0  0  0  0  0  0  0  # atno 17321 bound_to 7965
  140.2951  143.3298  152.1026 LP  0  0  0  0  0  0  0  0  0  0  0  0  # atno 17342 bound_to 10162
  139.5023  144.6731  151.6193 LP  0  0  0  0  0  0  0  0  0  0  0  0  # atno 17343 bound_to 10162
  155.9995  130.5071  150.7609 LP  0  0  0  0  0  0  0  0  0  0  0  0  # atno 17370 bound_to 10713
  157.4998  131.0917  151.0328 LP  0  0  0  0  0  0  0  0  0  0  0  0  # atno 17371 bound_to 10713
  140.8275  133.8305  155.8953 LP  0  0  0  0  0  0  0  0  0  0  0  0  # atno 17394 bound_to 11000
  140.9360  134.1962  157.4831 LP  0  0  0  0  0  0  0  0  0  0  0  0  # atno 17395 bound_to 11000

$$$$
