AV-unprocessed.smi:1075|AV-procd|sdf|4694|dock7
  -GOLD-   22720 3213D 1   1.00000     0.00000
 Structure written by MMmdl.
 50 51  0  0  0  0  0  0  0  0  1 V2000
  151.6632  145.7744  159.9890 C   0  0  0  0  0  0  0  0  0  0  0  0
  152.0767  144.3322  160.0649 C   0  0  0  0  0  0  0  0  0  0  0  0
  152.6108  143.8712  161.1826 N   0  0  0  0  0  0  0  0  0  0  0  0
  152.8549  142.5697  160.9356 N   0  0  0  0  0  0  0  0  0  0  0  0
  153.4494  141.7517  161.9751 C   0  0  0  0  0  0  0  0  0  0  0  0
  152.4688  142.2047  159.6600 C   0  0  0  0  0  0  0  0  0  0  0  0
  152.6253  140.8040  159.1574 C   0  0  0  0  0  0  0  0  0  0  0  0
  151.9640  143.3294  159.0568 C   0  0  0  0  0  0  0  0  0  0  0  0
  151.3924  143.5112  157.6642 C   0  0  1  0  0  0  0  0  0  0  0  0
  152.4035  144.1787  156.7123 C   0  0  0  0  0  0  0  0  0  0  0  0
  150.8553  142.1686  157.1392 C   0  0  0  0  0  0  0  0  0  0  0  0
  151.6178  141.3339  156.6515 O   0  0  0  0  0  0  0  0  0  0  0  0
  149.5259  141.9900  157.2464 N   0  0  0  0  0  0  0  0  0  0  0  0
  148.7135  140.8299  156.8577 C   0  0  1  0  0  0  0  0  0  0  0  0
  149.0732  139.6163  157.7421 C   0  0  0  0  0  0  0  0  0  0  0  0
  147.2305  141.2011  157.0978 C   0  0  0  0  0  0  0  0  0  0  0  0
  146.7363  142.3278  156.1707 C   0  0  0  0  0  0  0  0  0  0  0  0
  146.9452  141.9746  154.6869 C   0  0  1  0  0  0  0  0  0  0  0  0
  146.4730  143.1096  153.7675 C   0  0  0  0  0  0  0  0  0  0  0  0
  148.4176  141.6100  154.4226 C   0  0  0  0  0  0  0  0  0  0  0  0
  148.8979  140.4843  155.3571 C   0  0  0  0  0  0  0  0  0  0  0  0
  150.5952  145.8618  159.7884 H   0  0  0  0  0  0  0  0  0  0  0  0
  152.1950  146.2899  159.1892 H   0  0  0  0  0  0  0  0  0  0  0  0
  151.8693  146.3053  160.9192 H   0  0  0  0  0  0  0  0  0  0  0  0
  152.7061  141.0531  162.3597 H   0  0  0  0  0  0  0  0  0  0  0  0
  153.8095  142.3731  162.7963 H   0  0  0  0  0  0  0  0  0  0  0  0
  154.2899  141.1903  161.5669 H   0  0  0  0  0  0  0  0  0  0  0  0
  151.9433  140.5993  158.3329 H   0  0  0  0  0  0  0  0  0  0  0  0
  152.4122  140.0769  159.9410 H   0  0  0  0  0  0  0  0  0  0  0  0
  153.6421  140.6339  158.8035 H   0  0  0  0  0  0  0  0  0  0  0  0
  150.5268  144.1732  157.7065 H   0  0  0  0  0  0  0  0  0  0  0  0
  153.3007  143.5753  156.5770 H   0  0  0  0  0  0  0  0  0  0  0  0
  152.7150  145.1491  157.0995 H   0  0  0  0  0  0  0  0  0  0  0  0
  151.9675  144.3487  155.7270 H   0  0  0  0  0  0  0  0  0  0  0  0
  149.0108  142.7517  157.6637 H   0  0  0  0  0  0  0  0  0  0  0  0
  148.4117  138.7728  157.5414 H   0  0  0  0  0  0  0  0  0  0  0  0
  148.9832  139.8577  158.8020 H   0  0  0  0  0  0  0  0  0  0  0  0
  150.0914  139.2689  157.5682 H   0  0  0  0  0  0  0  0  0  0  0  0
  146.6041  140.3217  156.9411 H   0  0  0  0  0  0  0  0  0  0  0  0
  147.0799  141.4943  158.1380 H   0  0  0  0  0  0  0  0  0  0  0  0
  145.6789  142.5144  156.3609 H   0  0  0  0  0  0  0  0  0  0  0  0
  147.2548  143.2579  156.4075 H   0  0  0  0  0  0  0  0  0  0  0  0
  146.3374  141.0966  154.4635 H   0  0  0  0  0  0  0  0  0  0  0  0
  147.0446  144.0224  153.9380 H   0  0  0  0  0  0  0  0  0  0  0  0
  145.4209  143.3392  153.9370 H   0  0  0  0  0  0  0  0  0  0  0  0
  146.5857  142.8371  152.7178 H   0  0  0  0  0  0  0  0  0  0  0  0
  148.5398  141.2959  153.3857 H   0  0  0  0  0  0  0  0  0  0  0  0
  149.0484  142.4907  154.5499 H   0  0  0  0  0  0  0  0  0  0  0  0
  149.9378  140.2445  155.1357 H   0  0  0  0  0  0  0  0  0  0  0  0
  148.3357  139.5782  155.1266 H   0  0  0  0  0  0  0  0  0  0  0  0
  1  2  1  0  0  0  0
  1 22  1  0  0  0  0
  1 23  1  0  0  0  0
  1 24  1  0  0  0  0
  2  8  1  0  0  0  0
  2  3  2  0  0  0  0
  3  4  1  0  0  0  0
  4  5  1  0  0  0  0
  4  6  1  0  0  0  0
  5 25  1  0  0  0  0
  5 26  1  0  0  0  0
  5 27  1  0  0  0  0
  6  7  1  0  0  0  0
  6  8  2  0  0  0  0
  7 28  1  0  0  0  0
  7 29  1  0  0  0  0
  7 30  1  0  0  0  0
  8  9  1  0  0  0  0
  9 10  1  0  0  0  0
  9 11  1  0  0  0  0
  9 31  1  0  0  0  0
 10 32  1  0  0  0  0
 10 33  1  0  0  0  0
 10 34  1  0  0  0  0
 11 12  2  0  0  0  0
 11 13  1  0  0  0  0
 13 14  1  0  0  0  0
 13 35  1  0  0  0  0
 14 21  1  0  0  0  0
 14 15  1  0  0  0  0
 14 16  1  0  0  0  0
 15 36  1  0  0  0  0
 15 37  1  0  0  0  0
 15 38  1  0  0  0  0
 16 17  1  0  0  0  0
 16 39  1  0  0  0  0
 16 40  1  0  0  0  0
 17 18  1  0  0  0  0
 17 41  1  0  0  0  0
 17 42  1  0  0  0  0
 18 19  1  0  0  0  0
 18 20  1  0  0  0  0
 18 43  1  0  0  0  0
 19 44  1  0  0  0  0
 19 45  1  0  0  0  0
 19 46  1  0  0  0  0
 20 21  1  0  0  0  0
 20 47  1  0  0  0  0
 20 48  1  0  0  0  0
 21 49  1  0  0  0  0
 21 50  1  0  0  0  0
M  END
> <s_m_source_file>
AV-unprocessed.smi

> <i_m_source_file_index>
1075

> <i_lp_mmshare_version>
43012

> <i_f3d_flags>
0

> <s_epik_input>
W0NIM11jMW5uKFtDSDNdKWMoW0NIM10pYzFbQ0BIXShbQ0gzXSlDKD1PKVtOSF1bQ0BAXTIoW0NIM10pW0NIMl1bQ0gyXVtDQEBIXShbQ0gzXSlbQ0gyXVtDSDJdMg==

> <s_epik_cmdline>
J2VwaWtfcHl0aG9uJywgJy1waCcsICc3LjAnLCAnLXRuJywgJzgnLCAnLW1hJywgJzIwMCcsICctbWV0YWxfYmluZGluZycsICctaW1hZScsICc8aW5maWxlLm1hZT4nLCAnLW9tYWUnLCAnPG91dGZpbGUubWFlPic=

> <r_lp_tautomer_probability>
1

> <r_epik_Ionization_Penalty>
0.00502928

> <r_epik_Ionization_Penalty_Charging>
0

> <r_epik_Ionization_Penalty_Neutral>
0.00502928

> <r_epik_State_Penalty>
0.0036576

> <r_epik_Charging_Adjusted_Penalty>
0.0036576

> <i_epik_Tot_Q>
0

> <i_epik_Tot_abs_Q>
0

> <r_epik_Metal_State_Penalty>
-0

> <b_epik_Metal_Only>
0

> <s_lp_Force_Field>
OPLS_2005

> <r_lp_Energy>
4.5461

> <b_lp_Chiralities_Consistent>
1

> <s_lp_Variant>
AV-unprocessed.smi:1075-2

> <Gold.Version>
5.8.1

> <Gold.Id.Protein>
6NUR|6NUR_protein|mol2

> <Gold.PLP.Fitness>
41.0222

> <Gold.PLP.PLP>
-43.1851

> <Gold.PLP.part.hbond>
-0.3633

> <Gold.PLP.part.metal>
0.0000

> <Gold.PLP.part.buried>
-3.2316

> <Gold.PLP.part.nonpolar>
-39.7466

> <Gold.PLP.part.repulsive>
0.1719

> <Gold.PLP.ligand.clash>
0.0000

> <Gold.PLP.ligand.torsion>
1.1279

> <Gold.PLP.Chemscore.Hbond>
0.0000

> <Gold.PLP.Chemscore.CHOScore>
0.0000

> <Gold.PLP.Chemscore.Metal>
0.0000

> <Gold.PLP.Chemscore.Internal.Correction>
0.0930

> <Gold.Rescore>
     Score         DG    S(hbond)    S(metal)    S(lipo)     H(rot)  DE(clash)    DE(int)     intcor
      9.63     -17.10       0.00        0.00     126.31       1.23       3.07       4.40       ----

> <Gold.Chemscore.Fitness>
9.6334

> <Gold.Chemscore.DG>
-17.1047

> <Gold.Chemscore.ZeroCoef>
-5.4800

> <Gold.Chemscore.Hbond>
0.0000

> <Gold.Chemscore.Metal>
0.0000

> <Gold.Chemscore.Lipo>
126.3145

> <Gold.Chemscore.Internal_Hbond>
0.0000

> <Gold.Chemscore.DEClash>
3.0742

> <Gold.Chemscore.DEInternal>
4.3971

> <Gold.Chemscore.Rot>
1.2321

> <Gold.Chemscore.Internal.Correction>
   9.000000E+99

> <Gold.Chemscore.Hbond.Weighted>
-0.0000

> <Gold.Chemscore.Metal.Weighted>
-0.0000

> <Gold.Chemscore.Lipo.Weighted>
-14.7788

> <Gold.Chemscore.Internal_Hbond.Weighted>
0.0000

> <Gold.Chemscore.DEClash.Weighted>
3.0742

> <Gold.Chemscore.DEInternal.Weighted>
4.3971

> <Gold.Chemscore.Rot.Weighted>
3.1541

> <Gold.Chemscore.Internal.Correction.Weighted>
   9.000000E+99

> <Gold.Protein.RotatedTorsions>
[ 6907 6896 6895 6894 ] final  -38.02 input  -60.11 | X-H torsion
[ 7974 7965 7964 7962 ] final -147.84 input  175.53 | X-H torsion
[ 8008 7997 7996 7995 ] final   53.30 input   59.86 | X-H torsion
[ 10167 10162 10161 10158 ] final  -21.43 input  -65.29 | X-H torsion
[ 10718 10713 10712 10709 ] final  102.11 input   66.30 | X-H torsion
[ 10763 10752 10751 10750 ] final   40.65 input  -60.55 | X-H torsion
[ 11005 11000 10999 10996 ] final  -26.25 input  -57.11 | X-H torsion

> <Gold.Protein.ActiveResidues>
 VAL166  LYS551  ARG553  GLY616  TRP617  ASP618  TYR619  PRO620  LYS621  CYS622 
 ASP623  PHE694  ASN695  SER759  ASP760  ASP761  ALA762  ILE779  LEU786  VAL792 
 PHE793  MET794  SER795  GLU796  ALA797  LYS798  CYS799  TRP800  GLU811  SER814 

> <Gold.Protein.RotatedAtoms>
  151.0075  134.9371  159.7988 H   0  0  0  0  0  0  0  0  0  0  0  0  # atno 6907 bound_to 6896
  152.5294  134.3072  159.9110 H   0  0  0  0  0  0  0  0  0  0  0  0  # atno 6908 bound_to 6896
  151.3078  133.4052  159.2679 H   0  0  0  0  0  0  0  0  0  0  0  0  # atno 6909 bound_to 6896
  144.8067  140.5274  143.5670 H   0  0  0  0  0  0  0  0  0  0  0  0  # atno 7974 bound_to 7965
  155.4659  140.3463  155.4319 H   0  0  0  0  0  0  0  0  0  0  0  0  # atno 8008 bound_to 7997
  156.1131  140.1466  156.9340 H   0  0  0  0  0  0  0  0  0  0  0  0  # atno 8009 bound_to 7997
  154.4770  140.0882  156.7265 H   0  0  0  0  0  0  0  0  0  0  0  0  # atno 8010 bound_to 7997
  140.7282  143.4629  151.0355 H   0  0  0  0  0  0  0  0  0  0  0  0  # atno 10167 bound_to 10162
  157.6811  131.0744  150.5355 H   0  0  0  0  0  0  0  0  0  0  0  0  # atno 10718 bound_to 10713
  152.9930  135.6185  154.2661 H   0  0  0  0  0  0  0  0  0  0  0  0  # atno 10763 bound_to 10752
  154.2395  135.2789  155.2861 H   0  0  0  0  0  0  0  0  0  0  0  0  # atno 10764 bound_to 10752
  154.5381  135.5769  153.6874 H   0  0  0  0  0  0  0  0  0  0  0  0  # atno 10765 bound_to 10752
  140.9012  133.7523  156.0546 H   0  0  0  0  0  0  0  0  0  0  0  0  # atno 11005 bound_to 11000
  145.5421  139.1475  143.3441 LP  0  0  0  0  0  0  0  0  0  0  0  0  # atno 17320 bound_to 7965
  146.2360  140.5560  142.8955 LP  0  0  0  0  0  0  0  0  0  0  0  0  # atno 17321 bound_to 7965
  139.8314  143.7685  152.3180 LP  0  0  0  0  0  0  0  0  0  0  0  0  # atno 17342 bound_to 10162
  139.7802  144.7447  151.0099 LP  0  0  0  0  0  0  0  0  0  0  0  0  # atno 17343 bound_to 10162
  156.5663  130.4268  149.6040 LP  0  0  0  0  0  0  0  0  0  0  0  0  # atno 17370 bound_to 10713
  156.2778  130.7054  151.1869 LP  0  0  0  0  0  0  0  0  0  0  0  0  # atno 17371 bound_to 10713
  140.8227  134.3270  157.5376 LP  0  0  0  0  0  0  0  0  0  0  0  0  # atno 17394 bound_to 11000
  139.8742  134.9319  156.3539 LP  0  0  0  0  0  0  0  0  0  0  0  0  # atno 17395 bound_to 11000

$$$$
