AV-unprocessed.smi:1054|AV-procd|sdf|4623|dock9
  -GOLD-   22720 3123D 1   1.00000     0.00000
 Structure written by MMmdl.
 35 36  0  0  0  0  0  0  0  0  1 V2000
  149.9151  138.0260  159.4283 O   0  0  0  0  0  0  0  0  0  0  0  0
  149.5921  137.0526  158.7473 C   0  0  0  0  0  0  0  0  0  0  0  0
  148.7544  136.0772  159.1406 N   0  0  0  0  0  0  0  0  0  0  0  0
  148.0774  135.9463  160.3824 C   0  0  0  0  0  0  0  0  0  0  0  0
  147.6717  134.6317  160.7060 C   0  0  0  0  0  0  0  0  0  0  0  0
  146.9920  134.3941  161.9164 C   0  0  0  0  0  0  0  0  0  0  0  0
  146.7350  135.4788  162.7735 C   0  0  0  0  0  0  0  0  0  0  0  0
  147.1733  136.7555  162.3768 C   0  0  0  0  0  0  0  0  0  0  0  0
  147.8246  136.9856  161.2169 N   0  0  0  0  0  0  0  0  0  0  0  0
  150.0394  136.8256  157.5002 N   0  0  0  0  0  0  0  0  0  0  0  0
  150.9840  137.6263  156.7062 C   0  0  0  0  0  0  0  0  0  0  0  0
  152.4471  137.2994  157.1193 C   0  0  0  0  0  0  0  0  0  0  0  0
  152.8111  135.9762  156.7784 O   0  0  0  0  0  0  0  0  0  0  0  0
  150.7162  137.2890  155.2182 C   0  0  0  0  0  0  0  0  0  0  0  0
  151.3964  138.2717  154.2497 C   0  0  0  0  0  0  0  0  0  0  0  0
  150.9742  139.5986  154.5315 O   0  0  0  0  0  0  0  0  0  0  0  0
  151.3467  140.0237  155.8351 C   0  0  0  0  0  0  0  0  0  0  0  0
  150.6759  139.1349  156.8980 C   0  0  0  0  0  0  0  0  0  0  0  0
  148.5834  135.3392  158.4742 H   0  0  0  0  0  0  0  0  0  0  0  0
  147.8773  133.8097  160.0357 H   0  0  0  0  0  0  0  0  0  0  0  0
  146.6735  133.3967  162.1812 H   0  0  0  0  0  0  0  0  0  0  0  0
  146.2159  135.3366  163.7098 H   0  0  0  0  0  0  0  0  0  0  0  0
  146.9965  137.6149  163.0065 H   0  0  0  0  0  0  0  0  0  0  0  0
  149.7028  135.9888  157.0473 H   0  0  0  0  0  0  0  0  0  0  0  0
  153.1523  137.9711  156.6314 H   0  0  0  0  0  0  0  0  0  0  0  0
  152.5980  137.4350  158.1901 H   0  0  0  0  0  0  0  0  0  0  0  0
  152.5525  135.4033  157.4839 H   0  0  0  0  0  0  0  0  0  0  0  0
  151.0209  136.2681  154.9858 H   0  0  0  0  0  0  0  0  0  0  0  0
  149.6422  137.3260  155.0281 H   0  0  0  0  0  0  0  0  0  0  0  0
  152.4831  138.1991  154.3056 H   0  0  0  0  0  0  0  0  0  0  0  0
  151.1198  138.0307  153.2233 H   0  0  0  0  0  0  0  0  0  0  0  0
  152.4323  140.0150  155.9375 H   0  0  0  0  0  0  0  0  0  0  0  0
  151.0311  141.0588  155.9665 H   0  0  0  0  0  0  0  0  0  0  0  0
  149.5982  139.2957  156.8391 H   0  0  0  0  0  0  0  0  0  0  0  0
  150.9784  139.4727  157.8893 H   0  0  0  0  0  0  0  0  0  0  0  0
  1  2  2  0  0  0  0
  2  3  1  0  0  0  0
  2 10  1  0  0  0  0
  3  4  1  0  0  0  0
  3 19  1  0  0  0  0
  4  9  1  0  0  0  0
  4  5  2  0  0  0  0
  5  6  1  0  0  0  0
  5 20  1  0  0  0  0
  6  7  2  0  0  0  0
  6 21  1  0  0  0  0
  7  8  1  0  0  0  0
  7 22  1  0  0  0  0
  8  9  2  0  0  0  0
  8 23  1  0  0  0  0
 10 11  1  0  0  0  0
 10 24  1  0  0  0  0
 11 18  1  0  0  0  0
 11 12  1  0  0  0  0
 11 14  1  0  0  0  0
 12 13  1  0  0  0  0
 12 25  1  0  0  0  0
 12 26  1  0  0  0  0
 13 27  1  0  0  0  0
 14 15  1  0  0  0  0
 14 28  1  0  0  0  0
 14 29  1  0  0  0  0
 15 16  1  0  0  0  0
 15 30  1  0  0  0  0
 15 31  1  0  0  0  0
 16 17  1  0  0  0  0
 17 18  1  0  0  0  0
 17 32  1  0  0  0  0
 17 33  1  0  0  0  0
 18 34  1  0  0  0  0
 18 35  1  0  0  0  0
M  END
> <s_m_source_file>
AV-unprocessed.smi

> <i_m_source_file_index>
1054

> <i_lp_mmshare_version>
43012

> <i_f3d_flags>
0

> <s_epik_input>
W0NIMl0xW0NIMl1PW0NIMl1bQ0gyXUMxKFtDSDJdW09IXSlbTkhdQyg9TylbTkhdYzJbY0hdW2NIXVtjSF1bY0hdbjI=

> <s_epik_cmdline>
J2VwaWtfcHl0aG9uJywgJy1waCcsICc3LjAnLCAnLXRuJywgJzgnLCAnLW1hJywgJzIwMCcsICctbWV0YWxfYmluZGluZycsICctaW1hZScsICc8aW5maWxlLm1hZT4nLCAnLW9tYWUnLCAnPG91dGZpbGUubWFlPic=

> <r_lp_tautomer_probability>
1

> <r_epik_Ionization_Penalty>
4.33411e-05

> <r_epik_Ionization_Penalty_Charging>
0

> <r_epik_Ionization_Penalty_Neutral>
4.33411e-05

> <r_epik_State_Penalty>
-0

> <r_epik_Charging_Adjusted_Penalty>
0

> <i_epik_Tot_Q>
0

> <i_epik_Tot_abs_Q>
0

> <r_epik_Metal_State_Penalty>
-0

> <b_epik_Metal_Only>
0

> <s_lp_Force_Field>
OPLS_2005

> <r_lp_Energy>
17.545

> <b_lp_Chiralities_Consistent>
1

> <s_lp_Variant>
AV-unprocessed.smi:1054-1

> <Gold.Version>
5.8.1

> <Gold.Id.Protein>
6NUR|6NUR_protein|mol2

> <Gold.PLP.Fitness>
40.0453

> <Gold.PLP.PLP>
-31.4467

> <Gold.PLP.part.hbond>
-4.8229

> <Gold.PLP.part.metal>
0.0000

> <Gold.PLP.part.buried>
-5.8861

> <Gold.PLP.part.nonpolar>
-22.6392

> <Gold.PLP.part.repulsive>
0.3076

> <Gold.PLP.ligand.clash>
0.0000

> <Gold.PLP.ligand.torsion>
0.5930

> <Gold.PLP.Chemscore.Hbond>
3.2582

> <Gold.PLP.Chemscore.CHOScore>
0.0000

> <Gold.PLP.Chemscore.Metal>
0.0000

> <Gold.Chemscore.Hbonds>
donor molecule, donor type, donor heavy atom, donor atom, acceptor molecule, acceptor atom, score
      P1  H  6931  6943       L1     9  0.80
      P1  H  6934  6947       L1     9  0.51
      P1  H  7989  7998       L1    16  1.00
      P1  H 10752 10764       L1    13  1.00

> <Gold.PLP.Chemscore.Internal.Correction>
0.0100

> <Gold.Rescore>
     Score         DG    S(hbond)    S(metal)    S(lipo)     H(rot)  DE(clash)    DE(int)     intcor
     14.00     -17.26       2.69        0.00      65.06       1.88       0.23       3.04       ----

> <Gold.Chemscore.Fitness>
13.9972

> <Gold.Chemscore.DG>
-17.2643

> <Gold.Chemscore.ZeroCoef>
-5.4800

> <Gold.Chemscore.Hbond>
2.6876

> <Gold.Chemscore.Metal>
0.0000

> <Gold.Chemscore.Lipo>
65.0631

> <Gold.Chemscore.Internal_Hbond>
0.0000

> <Gold.Chemscore.DEClash>
0.2291

> <Gold.Chemscore.DEInternal>
3.0380

> <Gold.Chemscore.Rot>
1.8769

> <Gold.Chemscore.Internal.Correction>
   9.000000E+99

> <Gold.Chemscore.Hbonds>
donor molecule, donor type, donor heavy atom, donor atom, acceptor molecule, acceptor atom, score
      P1  H  6931  6943       L1     9  0.12
      P1  H  6934  6947       L1     9  0.10
      P1  H  7989  7998       L1    16  0.37
      P1  H 10752 10764       L1    13  0.99

> <Gold.Chemscore.Hbond.Weighted>
-8.9767

> <Gold.Chemscore.Metal.Weighted>
-0.0000

> <Gold.Chemscore.Lipo.Weighted>
-7.6124

> <Gold.Chemscore.Internal_Hbond.Weighted>
0.0000

> <Gold.Chemscore.DEClash.Weighted>
0.2291

> <Gold.Chemscore.DEInternal.Weighted>
3.0380

> <Gold.Chemscore.Rot.Weighted>
4.8048

> <Gold.Chemscore.Internal.Correction.Weighted>
   9.000000E+99

> <Gold.Protein.RotatedTorsions>
[ 6907 6896 6895 6894 ] final  177.81 input  -60.11 | X-H torsion
[ 7974 7965 7964 7962 ] final  -69.29 input  175.53 | X-H torsion
[ 8008 7997 7996 7995 ] final  107.52 input   59.86 | X-H torsion
[ 10167 10162 10161 10158 ] final  172.06 input  -65.29 | X-H torsion
[ 10718 10713 10712 10709 ] final  159.07 input   66.30 | X-H torsion
[ 10763 10752 10751 10750 ] final   -5.36 input  -60.55 | X-H torsion
[ 11005 11000 10999 10996 ] final -146.95 input  -57.11 | X-H torsion

> <Gold.Protein.ActiveResidues>
 VAL166  LYS551  ARG553  GLY616  TRP617  ASP618  TYR619  PRO620  LYS621  CYS622 
 ASP623  PHE694  ASN695  SER759  ASP760  ASP761  ALA762  ILE779  LEU786  VAL792 
 PHE793  MET794  SER795  GLU796  ALA797  LYS798  CYS799  TRP800  GLU811  SER814 

> <Gold.Protein.RotatedAtoms>
  151.6980  133.3311  159.3259 H   0  0  0  0  0  0  0  0  0  0  0  0  # atno 6907 bound_to 6896
  150.7749  134.6641  159.6365 H   0  0  0  0  0  0  0  0  0  0  0  0  # atno 6908 bound_to 6896
  152.3787  134.6626  160.0202 H   0  0  0  0  0  0  0  0  0  0  0  0  # atno 6909 bound_to 6896
  145.7056  140.9099  143.0708 H   0  0  0  0  0  0  0  0  0  0  0  0  # atno 7974 bound_to 7965
  156.1831  140.3093  155.9186 H   0  0  0  0  0  0  0  0  0  0  0  0  # atno 8008 bound_to 7997
  155.3341  140.0462  157.3060 H   0  0  0  0  0  0  0  0  0  0  0  0  # atno 8009 bound_to 7997
  154.5365  140.2247  155.8724 H   0  0  0  0  0  0  0  0  0  0  0  0  # atno 8010 bound_to 7997
  139.5065  144.3416  152.0012 H   0  0  0  0  0  0  0  0  0  0  0  0  # atno 10167 bound_to 10162
  157.1692  131.0606  151.2192 H   0  0  0  0  0  0  0  0  0  0  0  0  # atno 10718 bound_to 10713
  153.3975  135.7004  153.6450 H   0  0  0  0  0  0  0  0  0  0  0  0  # atno 10763 bound_to 10752
  153.4997  135.3655  155.2534 H   0  0  0  0  0  0  0  0  0  0  0  0  # atno 10764 bound_to 10752
  154.8708  135.4109  154.3304 H   0  0  0  0  0  0  0  0  0  0  0  0  # atno 10765 bound_to 10752
  140.7767  134.3126  157.5058 H   0  0  0  0  0  0  0  0  0  0  0  0  # atno 11005 bound_to 11000
  144.6956  139.9006  143.7458 LP  0  0  0  0  0  0  0  0  0  0  0  0  # atno 17320 bound_to 7965
  146.0759  139.3747  143.0494 LP  0  0  0  0  0  0  0  0  0  0  0  0  # atno 17321 bound_to 7965
  140.2854  144.3813  150.6105 LP  0  0  0  0  0  0  0  0  0  0  0  0  # atno 17342 bound_to 10162
  140.5987  143.2167  151.7115 LP  0  0  0  0  0  0  0  0  0  0  0  0  # atno 17343 bound_to 10162
  157.4059  130.7359  149.6802 LP  0  0  0  0  0  0  0  0  0  0  0  0  # atno 17370 bound_to 10713
  155.9741  130.4108  150.3949 LP  0  0  0  0  0  0  0  0  0  0  0  0  # atno 17371 bound_to 10713
  139.8748  134.9294  156.3474 LP  0  0  0  0  0  0  0  0  0  0  0  0  # atno 17394 bound_to 11000
  140.9522  133.7443  156.0287 LP  0  0  0  0  0  0  0  0  0  0  0  0  # atno 17395 bound_to 11000

$$$$
