AV-unprocessed.smi:2999|AV-procd|sdf|11426|dock8
  -GOLD-   2272016353D 1   1.00000     0.00000
 Structure written by MMmdl.
 37 39  0  0  0  0  0  0  0  0  3 V2000
  148.6648  136.7274  158.3907 O   0  0  0  0  0  0  0  0  0  0  0  0
  147.7867  137.1458  159.1483 C   0  0  0  0  0  0  0  0  0  0  0  0
  146.6453  137.6360  158.6464 N   0  0  0  0  0  0  0  0  0  0  0  0
  146.3242  137.7943  157.2308 C   0  0  0  0  0  0  0  0  0  0  0  0
  145.8659  139.2236  156.8714 C   0  0  1  0  0  0  0  0  0  0  0  0
  145.6536  139.4481  155.3546 C   0  0  0  0  0  0  0  0  0  0  0  0
  145.1520  140.8131  155.0712 N   0  3  2  0  0  0  0  0  0  0  0  0
  146.2029  141.8548  155.1441 C   0  0  0  0  0  0  0  0  0  0  0  0
  146.0854  142.9086  154.0680 C   0  0  0  0  0  0  0  0  0  0  0  0
  147.1510  141.8401  153.9681 C   0  0  0  0  0  0  0  0  0  0  0  0
  143.9582  141.1201  155.8938 C   0  0  0  0  0  0  0  0  0  0  0  0
  144.2257  140.8574  157.3865 C   0  0  0  0  0  0  0  0  0  0  0  0
  144.6583  139.5159  157.5676 O   0  0  0  0  0  0  0  0  0  0  0  0
  147.8408  137.1804  160.4984 N   0  5  0  0  0  0  0  0  0  0  0  0
  147.6063  136.0648  161.2084 C   0  0  0  0  0  0  0  0  0  0  0  0
  147.6533  134.8388  160.6745 N   0  0  0  0  0  0  0  0  0  0  0  0
  147.3830  133.8229  161.5933 C   0  0  0  0  0  0  0  0  0  0  0  0
  147.1313  134.2858  162.8575 C   0  0  0  0  0  0  0  0  0  0  0  0
  147.2282  136.0221  162.9327 S   0  0  0  0  0  0  0  0  0  0  0  0
  145.9526  137.9532  159.3088 H   0  0  0  0  0  0  0  0  0  0  0  0
  147.1692  137.4940  156.6093 H   0  0  0  0  0  0  0  0  0  0  0  0
  145.5196  137.0940  157.0063 H   0  0  0  0  0  0  0  0  0  0  0  0
  146.6351  139.9067  157.2348 H   0  0  0  0  0  0  0  0  0  0  0  0
  146.5750  139.2616  154.8020 H   0  0  0  0  0  0  0  0  0  0  0  0
  144.9137  138.7457  154.9687 H   0  0  0  0  0  0  0  0  0  0  0  0
  146.5640  142.1221  156.1352 H   0  0  0  0  0  0  0  0  0  0  0  0
  145.2471  142.8480  153.3763 H   0  0  0  0  0  0  0  0  0  0  0  0
  146.4123  143.9167  154.3145 H   0  0  0  0  0  0  0  0  0  0  0  0
  148.1802  142.1432  154.1498 H   0  0  0  0  0  0  0  0  0  0  0  0
  147.0201  141.0703  153.2095 H   0  0  0  0  0  0  0  0  0  0  0  0
  143.6414  142.1510  155.7327 H   0  0  0  0  0  0  0  0  0  0  0  0
  143.1368  140.4858  155.5580 H   0  0  0  0  0  0  0  0  0  0  0  0
  144.9676  141.5502  157.7859 H   0  0  0  0  0  0  0  0  0  0  0  0
  143.3119  141.0095  157.9610 H   0  0  0  0  0  0  0  0  0  0  0  0
  147.3919  132.7959  161.2599 H   0  0  0  0  0  0  0  0  0  0  0  0
  146.8976  133.7162  163.7441 H   0  0  0  0  0  0  0  0  0  0  0  0
  144.8432  140.8089  154.1095 H   0  0  0  0  0  0  0  0  0  0  0  0
  1  2  2  0  0  0  0
  2  3  1  0  0  0  0
  2 14  1  0  0  0  0
  3  4  1  0  0  0  0
  3 20  1  0  0  0  0
  4  5  1  0  0  0  0
  4 21  1  0  0  0  0
  4 22  1  0  0  0  0
  5 13  1  0  0  0  0
  5  6  1  0  0  0  0
  5 23  1  0  0  0  0
  6  7  1  0  0  0  0
  6 24  1  0  0  0  0
  6 25  1  0  0  0  0
  7  8  1  0  0  0  0
  7 11  1  0  0  0  0
  7 37  1  0  0  0  0
  8 10  1  0  0  0  0
  8  9  1  0  0  0  0
  8 26  1  0  0  0  0
  9 10  1  0  0  0  0
  9 27  1  0  0  0  0
  9 28  1  0  0  0  0
 10 29  1  0  0  0  0
 10 30  1  0  0  0  0
 11 12  1  0  0  0  0
 11 31  1  0  0  0  0
 11 32  1  0  0  0  0
 12 13  1  0  0  0  0
 12 33  1  0  0  0  0
 12 34  1  0  0  0  0
 14 15  1  0  0  0  0
 15 19  1  0  0  0  0
 15 16  2  0  0  0  0
 16 17  1  0  0  0  0
 17 18  2  0  0  0  0
 17 35  1  0  0  0  0
 18 19  1  0  0  0  0
 18 36  1  0  0  0  0
M  CHG  1   7   1
M  CHG  1  14  -1
M  END
> <s_m_source_file>
AV-unprocessed.smi

> <i_m_source_file_index>
2999

> <i_lp_mmshare_version>
43012

> <i_f3d_flags>
0

> <s_epik_input>
czFbY0hdW2NIXW5jMVtOSF1DKD1PKVtOSF1bQ0gyXVtDQEBIXTJbQ0gyXU4oW0NIMl1bQ0gyXU8yKVtDSF0zW0NIMl1bQ0gyXTM=

> <s_epik_cmdline>
J2VwaWtfcHl0aG9uJywgJy1waCcsICc3LjAnLCAnLXRuJywgJzgnLCAnLW1hJywgJzIwMCcsICctbWV0YWxfYmluZGluZycsICctaW1hZScsICc8aW5maWxlLm1hZT4nLCAnLW9tYWUnLCAnPG91dGZpbGUubWFlPic=

> <r_lp_tautomer_probability>
0.999

> <r_epik_Ionization_Penalty>
7.79196

> <r_epik_Ionization_Penalty_Charging>
6.93299

> <r_epik_Ionization_Penalty_Neutral>
0.858963

> <r_epik_State_Penalty>
7.05108

> <r_epik_Charging_Adjusted_Penalty>
13.9841

> <i_epik_Tot_Q>
0

> <i_epik_Tot_abs_Q>
2

> <r_epik_Metal_State_Penalty>
3.05936

> <b_epik_Metal_Only>
1

> <s_lp_Force_Field>
OPLS_2005

> <r_lp_Energy>
16.0159

> <b_lp_Chiralities_Consistent>
1

> <s_lp_Variant>
AV-unprocessed.smi:2999-10

> <Gold.Version>
5.8.1

> <Gold.Id.Protein>
6NUR|6NUR_protein|mol2

> <Gold.PLP.Fitness>
42.2422

> <Gold.PLP.PLP>
-29.0965

> <Gold.PLP.part.hbond>
-3.0000

> <Gold.PLP.part.metal>
0.0000

> <Gold.PLP.part.buried>
-4.6714

> <Gold.PLP.part.nonpolar>
-22.8223

> <Gold.PLP.part.repulsive>
0.1046

> <Gold.PLP.ligand.clash>
0.0000

> <Gold.PLP.ligand.torsion>
1.4675

> <Gold.PLP.Chemscore.Hbond>
4.9379

> <Gold.PLP.Chemscore.CHOScore>
0.0000

> <Gold.PLP.Chemscore.Metal>
0.0000

> <Gold.Chemscore.Hbonds>
donor molecule, donor type, donor heavy atom, donor atom, acceptor molecule, acceptor atom, score
      L1  H     7    37       P1 10175  2.00
      P1  H  6931  6943       L1    14  1.17
      P1  H  6934  6947       L1    14  1.70

> <Gold.PLP.Chemscore.Internal.Correction>
1.2670

> <Gold.Rescore>
     Score         DG    S(hbond)    S(metal)    S(lipo)     H(rot)  DE(clash)    DE(int)     intcor
     11.49     -13.06       1.68        0.00      50.72       1.55       0.11       1.46       ----

> <Gold.Chemscore.Fitness>
11.4903

> <Gold.Chemscore.DG>
-13.0618

> <Gold.Chemscore.ZeroCoef>
-5.4800

> <Gold.Chemscore.Hbond>
1.6816

> <Gold.Chemscore.Metal>
0.0000

> <Gold.Chemscore.Lipo>
50.7219

> <Gold.Chemscore.Internal_Hbond>
0.0000

> <Gold.Chemscore.DEClash>
0.1123

> <Gold.Chemscore.DEInternal>
1.4591

> <Gold.Chemscore.Rot>
1.5504

> <Gold.Chemscore.Internal.Correction>
   9.000000E+99

> <Gold.Chemscore.Hbonds>
donor molecule, donor type, donor heavy atom, donor atom, acceptor molecule, acceptor atom, score
      L1  H     7    37       P1 10175  0.91
      P1  H  6931  6943       L1    14  0.15
      P1  H  6934  6947       L1    14  0.32

> <Gold.Chemscore.Hbond.Weighted>
-5.6164

> <Gold.Chemscore.Metal.Weighted>
-0.0000

> <Gold.Chemscore.Lipo.Weighted>
-5.9345

> <Gold.Chemscore.Internal_Hbond.Weighted>
0.0000

> <Gold.Chemscore.DEClash.Weighted>
0.1123

> <Gold.Chemscore.DEInternal.Weighted>
1.4591

> <Gold.Chemscore.Rot.Weighted>
3.9690

> <Gold.Chemscore.Internal.Correction.Weighted>
   9.000000E+99

> <Gold.Protein.RotatedTorsions>
[ 6907 6896 6895 6894 ] final -131.86 input  -60.11 | X-H torsion
[ 7974 7965 7964 7962 ] final   23.60 input  175.53 | X-H torsion
[ 8008 7997 7996 7995 ] final -173.50 input   59.86 | X-H torsion
[ 10167 10162 10161 10158 ] final   74.10 input  -65.29 | X-H torsion
[ 10718 10713 10712 10709 ] final   67.04 input   66.30 | X-H torsion
[ 10763 10752 10751 10750 ] final  -30.94 input  -60.55 | X-H torsion
[ 11005 11000 10999 10996 ] final  -33.80 input  -57.11 | X-H torsion

> <Gold.Protein.ActiveResidues>
 VAL166  LYS551  ARG553  GLY616  TRP617  ASP618  TYR619  PRO620  LYS621  CYS622 
 ASP623  PHE694  ASN695  SER759  ASP760  ASP761  ALA762  ILE779  LEU786  VAL792 
 PHE793  MET794  SER795  GLU796  ALA797  LYS798  CYS799  TRP800  GLU811  SER814 

> <Gold.Protein.RotatedAtoms>
  150.9558  133.6499  159.2763 H   0  0  0  0  0  0  0  0  0  0  0  0  # atno 6907 bound_to 6896
  151.3839  135.0943  159.9514 H   0  0  0  0  0  0  0  0  0  0  0  0  # atno 6908 bound_to 6896
  152.5128  133.9087  159.7532 H   0  0  0  0  0  0  0  0  0  0  0  0  # atno 6909 bound_to 6896
  146.1977  139.7722  142.8785 H   0  0  0  0  0  0  0  0  0  0  0  0  # atno 7974 bound_to 7965
  155.9582  140.1139  157.0919 H   0  0  0  0  0  0  0  0  0  0  0  0  # atno 8008 bound_to 7997
  154.4125  140.1187  156.5210 H   0  0  0  0  0  0  0  0  0  0  0  0  # atno 8009 bound_to 7997
  155.6755  140.3473  155.4837 H   0  0  0  0  0  0  0  0  0  0  0  0  # atno 8010 bound_to 7997
  140.0174  144.5567  150.7609 H   0  0  0  0  0  0  0  0  0  0  0  0  # atno 10167 bound_to 10162
  157.6206  130.9300  150.0189 H   0  0  0  0  0  0  0  0  0  0  0  0  # atno 10718 bound_to 10713
  153.7891  135.6899  153.4874 H   0  0  0  0  0  0  0  0  0  0  0  0  # atno 10763 bound_to 10752
  153.1761  135.4524  154.9965 H   0  0  0  0  0  0  0  0  0  0  0  0  # atno 10764 bound_to 10752
  154.8051  135.3354  154.7389 H   0  0  0  0  0  0  0  0  0  0  0  0  # atno 10765 bound_to 10752
  140.9664  133.7134  156.1453 H   0  0  0  0  0  0  0  0  0  0  0  0  # atno 11005 bound_to 11000
  145.3590  141.0322  143.3295 LP  0  0  0  0  0  0  0  0  0  0  0  0  # atno 17320 bound_to 7965
  144.8615  139.5171  143.6810 LP  0  0  0  0  0  0  0  0  0  0  0  0  # atno 17321 bound_to 7965
  140.7356  143.2743  151.3789 LP  0  0  0  0  0  0  0  0  0  0  0  0  # atno 17342 bound_to 10162
  139.6163  144.0996  152.2349 LP  0  0  0  0  0  0  0  0  0  0  0  0  # atno 17343 bound_to 10162
  156.1350  130.3643  149.9672 LP  0  0  0  0  0  0  0  0  0  0  0  0  # atno 17370 bound_to 10713
  156.7725  130.9191  151.3644 LP  0  0  0  0  0  0  0  0  0  0  0  0  # atno 17371 bound_to 10713
  140.7392  134.4168  157.5557 LP  0  0  0  0  0  0  0  0  0  0  0  0  # atno 17394 bound_to 11000
  139.8896  134.8826  156.2412 LP  0  0  0  0  0  0  0  0  0  0  0  0  # atno 17395 bound_to 11000

$$$$
