AV-unprocessed.smi:3189|AV-procd|sdf|12188|dock4
  -GOLD-   2272018 33D 1   1.00000     0.00000
 Structure written by MMmdl.
 30 31  0  0  0  0  0  0  0  0  1 V2000
  152.8167  143.5166  160.7242 C   0  0  0  0  0  0  0  0  0  0  0  0
  152.2912  142.5061  159.7217 C   0  0  0  0  0  0  0  0  0  0  0  0
  152.7353  141.2399  159.8800 N   0  0  0  0  0  0  0  0  0  0  0  0
  152.3040  140.3028  159.0111 C   0  0  0  0  0  0  0  0  0  0  0  0
  151.4131  140.5762  157.9557 C   0  0  0  0  0  0  0  0  0  0  0  0
  150.9337  141.8983  157.7969 C   0  0  0  0  0  0  0  0  0  0  0  0
  150.0494  142.2894  156.7543 N   0  0  0  0  0  0  0  0  0  0  0  0
  149.4753  141.5294  155.8010 C   0  0  0  0  0  0  0  0  0  0  0  0
  149.6025  140.3104  155.7057 O   0  0  0  0  0  0  0  0  0  0  0  0
  148.6633  142.2105  154.9737 N   0  0  0  0  0  0  0  0  0  0  0  0
  147.9130  141.6920  153.8688 C   0  0  1  0  0  0  0  0  0  0  0  0
  146.7748  140.7492  154.1920 C   0  0  0  0  0  0  0  0  0  0  0  0
  146.4744  142.1315  153.6732 C   0  0  1  0  0  0  0  0  0  0  0  0
  145.8242  143.1713  154.5646 C   0  0  0  0  0  0  0  0  0  0  0  0
  151.3958  142.8884  158.6953 C   0  0  0  0  0  0  0  0  0  0  0  0
  150.8706  144.5325  158.5470 Cl  0  0  0  0  0  0  0  0  0  0  0  0
  151.9916  143.9615  161.2810 H   0  0  0  0  0  0  0  0  0  0  0  0
  153.3571  144.3135  160.2122 H   0  0  0  0  0  0  0  0  0  0  0  0
  153.4971  143.0547  161.4411 H   0  0  0  0  0  0  0  0  0  0  0  0
  152.6868  139.3035  159.1569 H   0  0  0  0  0  0  0  0  0  0  0  0
  151.1285  139.7777  157.2883 H   0  0  0  0  0  0  0  0  0  0  0  0
  149.7625  143.2572  156.7755 H   0  0  0  0  0  0  0  0  0  0  0  0
  148.4851  143.1758  155.2108 H   0  0  0  0  0  0  0  0  0  0  0  0
  148.4717  141.4380  152.9690 H   0  0  0  0  0  0  0  0  0  0  0  0
  146.6074  139.9134  153.5156 H   0  0  0  0  0  0  0  0  0  0  0  0
  146.5652  140.5451  155.2406 H   0  0  0  0  0  0  0  0  0  0  0  0
  146.1462  142.1915  152.6373 H   0  0  0  0  0  0  0  0  0  0  0  0
  146.1049  143.0270  155.6084 H   0  0  0  0  0  0  0  0  0  0  0  0
  144.7390  143.1013  154.4885 H   0  0  0  0  0  0  0  0  0  0  0  0
  146.1305  144.1711  154.2563 H   0  0  0  0  0  0  0  0  0  0  0  0
  1  2  1  0  0  0  0
  1 17  1  0  0  0  0
  1 18  1  0  0  0  0
  1 19  1  0  0  0  0
  2 15  1  0  0  0  0
  2  3  2  0  0  0  0
  3  4  1  0  0  0  0
  4  5  2  0  0  0  0
  4 20  1  0  0  0  0
  5  6  1  0  0  0  0
  5 21  1  0  0  0  0
  6  7  1  0  0  0  0
  6 15  2  0  0  0  0
  7  8  1  0  0  0  0
  7 22  1  0  0  0  0
  8  9  2  0  0  0  0
  8 10  1  0  0  0  0
 10 11  1  0  0  0  0
 10 23  1  0  0  0  0
 11 13  1  0  0  0  0
 11 12  1  0  0  0  0
 11 24  1  0  0  0  0
 12 13  1  0  0  0  0
 12 25  1  0  0  0  0
 12 26  1  0  0  0  0
 13 14  1  0  0  0  0
 13 27  1  0  0  0  0
 14 28  1  0  0  0  0
 14 29  1  0  0  0  0
 14 30  1  0  0  0  0
 15 16  1  0  0  0  0
M  END
> <s_m_source_file>
AV-unprocessed.smi

> <i_m_source_file_index>
3189

> <i_lp_mmshare_version>
43012

> <i_f3d_flags>
0

> <s_epik_input>
W0NIM11jMW5bY0hdW2NIXWMoYzFDbClbTkhdQyg9TylbTkhdW0NAQEhdMltDSDJdW0NASF0yW0NIM10=

> <s_epik_cmdline>
J2VwaWtfcHl0aG9uJywgJy1waCcsICc3LjAnLCAnLXRuJywgJzgnLCAnLW1hJywgJzIwMCcsICctbWV0YWxfYmluZGluZycsICctaW1hZScsICc8aW5maWxlLm1hZT4nLCAnLW9tYWUnLCAnPG91dGZpbGUubWFlPic=

> <r_epik_Ionization_Penalty>
0.00994309

> <r_epik_Ionization_Penalty_Charging>
0

> <r_epik_Ionization_Penalty_Neutral>
0.00994309

> <r_epik_State_Penalty>
0.00754503

> <r_epik_Charging_Adjusted_Penalty>
0.00754503

> <i_epik_Tot_Q>
0

> <i_epik_Tot_abs_Q>
0

> <r_epik_Metal_State_Penalty>
0.00742071

> <b_epik_Metal_Only>
0

> <s_lp_Force_Field>
OPLS_2005

> <r_lp_Energy>
34.6575

> <b_lp_Chiralities_Consistent>
1

> <s_lp_Variant>
AV-unprocessed.smi:3189-2

> <Gold.Version>
5.8.1

> <Gold.Id.Protein>
6NUR|6NUR_protein|mol2

> <Gold.PLP.Fitness>
38.8044

> <Gold.PLP.PLP>
-33.4182

> <Gold.PLP.part.hbond>
-2.0000

> <Gold.PLP.part.metal>
0.0000

> <Gold.PLP.part.buried>
-5.8208

> <Gold.PLP.part.nonpolar>
-25.2934

> <Gold.PLP.part.repulsive>
0.2819

> <Gold.PLP.ligand.clash>
0.0000

> <Gold.PLP.ligand.torsion>
0.1349

> <Gold.PLP.Chemscore.Hbond>
1.8723

> <Gold.PLP.Chemscore.CHOScore>
0.0000

> <Gold.PLP.Chemscore.Metal>
0.0000

> <Gold.Chemscore.Hbonds>
donor molecule, donor type, donor heavy atom, donor atom, acceptor molecule, acceptor atom, score
      L1  H     7    22       P1  8028  0.87
      L1  H    10    23       P1  8028  1.00

> <Gold.PLP.Chemscore.Internal.Correction>
0.0390

> <Gold.Rescore>
     Score         DG    S(hbond)    S(metal)    S(lipo)     H(rot)  DE(clash)    DE(int)     intcor
     18.32     -19.73       1.91        0.00      89.26       1.00       0.02       1.39       ----

> <Gold.Chemscore.Fitness>
18.3159

> <Gold.Chemscore.DG>
-19.7296

> <Gold.Chemscore.ZeroCoef>
-5.4800

> <Gold.Chemscore.Hbond>
1.9060

> <Gold.Chemscore.Metal>
0.0000

> <Gold.Chemscore.Lipo>
89.2624

> <Gold.Chemscore.Internal_Hbond>
0.0000

> <Gold.Chemscore.DEClash>
0.0233

> <Gold.Chemscore.DEInternal>
1.3904

> <Gold.Chemscore.Rot>
1.0000

> <Gold.Chemscore.Internal.Correction>
   9.000000E+99

> <Gold.Chemscore.Hbonds>
donor molecule, donor type, donor heavy atom, donor atom, acceptor molecule, acceptor atom, score
      L1  H     7    22       P1  8028  0.80
      L1  H    10    23       P1  8028  0.98

> <Gold.Chemscore.Hbond.Weighted>
-6.3659

> <Gold.Chemscore.Metal.Weighted>
-0.0000

> <Gold.Chemscore.Lipo.Weighted>
-10.4437

> <Gold.Chemscore.Internal_Hbond.Weighted>
0.0000

> <Gold.Chemscore.DEClash.Weighted>
0.0233

> <Gold.Chemscore.DEInternal.Weighted>
1.3904

> <Gold.Chemscore.Rot.Weighted>
2.5600

> <Gold.Chemscore.Internal.Correction.Weighted>
   9.000000E+99

> <Gold.Protein.RotatedTorsions>
[ 6907 6896 6895 6894 ] final   30.18 input  -60.11 | X-H torsion
[ 7974 7965 7964 7962 ] final -158.63 input  175.53 | X-H torsion
[ 8008 7997 7996 7995 ] final -111.68 input   59.86 | X-H torsion
[ 10167 10162 10161 10158 ] final   39.39 input  -65.29 | X-H torsion
[ 10718 10713 10712 10709 ] final  171.58 input   66.30 | X-H torsion
[ 10763 10752 10751 10750 ] final  178.83 input  -60.55 | X-H torsion
[ 11005 11000 10999 10996 ] final  117.62 input  -57.11 | X-H torsion

> <Gold.Protein.ActiveResidues>
 VAL166  LYS551  ARG553  GLY616  TRP617  ASP618  TYR619  PRO620  LYS621  CYS622 
 ASP623  PHE694  ASN695  SER759  ASP760  ASP761  ALA762  ILE779  LEU786  VAL792 
 PHE793  MET794  SER795  GLU796  ALA797  LYS798  CYS799  TRP800  GLU811  SER814 

> <Gold.Protein.RotatedAtoms>
  152.0422  134.9704  160.0573 H   0  0  0  0  0  0  0  0  0  0  0  0  # atno 6907 bound_to 6896
  152.1139  133.4311  159.4652 H   0  0  0  0  0  0  0  0  0  0  0  0  # atno 6908 bound_to 6896
  150.6845  134.2535  159.4563 H   0  0  0  0  0  0  0  0  0  0  0  0  # atno 6909 bound_to 6896
  144.7498  140.3801  143.6057 H   0  0  0  0  0  0  0  0  0  0  0  0  # atno 7974 bound_to 7965
  154.9936  140.0395  157.2330 H   0  0  0  0  0  0  0  0  0  0  0  0  # atno 8008 bound_to 7997
  154.7607  140.2784  155.6194 H   0  0  0  0  0  0  0  0  0  0  0  0  # atno 8009 bound_to 7997
  156.2903  140.2629  156.2384 H   0  0  0  0  0  0  0  0  0  0  0  0  # atno 8010 bound_to 7997
  140.3845  144.1936  150.6130 H   0  0  0  0  0  0  0  0  0  0  0  0  # atno 10167 bound_to 10162
  156.9915  131.0149  151.2855 H   0  0  0  0  0  0  0  0  0  0  0  0  # atno 10718 bound_to 10713
  154.5127  135.2789  155.1329 H   0  0  0  0  0  0  0  0  0  0  0  0  # atno 10763 bound_to 10752
  154.2918  135.6265  153.5392 H   0  0  0  0  0  0  0  0  0  0  0  0  # atno 10764 bound_to 10752
  152.9922  135.5676  154.5597 H   0  0  0  0  0  0  0  0  0  0  0  0  # atno 10765 bound_to 10752
  139.9081  134.9612  156.7379 H   0  0  0  0  0  0  0  0  0  0  0  0  # atno 11005 bound_to 11000
  145.6987  139.1656  143.2605 LP  0  0  0  0  0  0  0  0  0  0  0  0  # atno 17320 bound_to 7965
  146.1431  140.7030  142.9357 LP  0  0  0  0  0  0  0  0  0  0  0  0  # atno 17321 bound_to 7965
  140.4904  143.2349  151.8827 LP  0  0  0  0  0  0  0  0  0  0  0  0  # atno 17342 bound_to 10162
  139.4793  144.5172  151.8851 LP  0  0  0  0  0  0  0  0  0  0  0  0  # atno 17343 bound_to 10162
  157.5455  130.8148  149.8081 LP  0  0  0  0  0  0  0  0  0  0  0  0  # atno 17370 bound_to 10713
  156.0205  130.3797  150.1976 LP  0  0  0  0  0  0  0  0  0  0  0  0  # atno 17371 bound_to 10713
  140.6873  133.9421  155.7945 LP  0  0  0  0  0  0  0  0  0  0  0  0  # atno 17394 bound_to 11000
  141.0467  134.0544  157.3835 LP  0  0  0  0  0  0  0  0  0  0  0  0  # atno 17395 bound_to 11000

$$$$
