AV-unprocessed.smi:2884|AV-procd|sdf|11084|dock9
  -GOLD-   2272015553D 1   1.00000     0.00000
 Structure written by MMmdl.
 42 43  0  0  0  0  0  0  0  0  3 V2000
  152.2814  143.5331  158.8740 C   0  0  0  0  0  0  0  0  0  0  0  0
  151.3303  142.3372  158.7390 C   0  0  0  0  0  0  0  0  0  0  0  0
  150.2104  142.5808  157.7203 C   0  0  0  0  0  0  0  0  0  0  0  0
  149.5238  141.3508  157.5128 O   0  0  0  0  0  0  0  0  0  0  0  0
  148.4669  141.2762  156.5476 C   0  0  0  0  0  0  0  0  0  0  0  0
  148.0724  139.7789  156.6069 C   0  0  0  0  0  0  0  0  0  0  0  0
  149.1897  138.8985  156.2863 N   0  0  0  0  0  0  0  0  0  0  0  0
  150.0431  138.1995  157.1314 C   0  0  0  0  0  0  0  0  0  0  0  0
  149.9317  138.2511  158.5493 C   0  0  0  0  0  0  0  0  0  0  0  0
  150.7769  137.5637  159.3107 N   0  3  0  0  0  0  0  0  0  0  0  0
  151.7419  136.8109  158.8314 N   0  5  0  0  0  0  0  0  0  0  0  0
  151.9527  136.6752  157.4883 C   0  0  0  0  0  0  0  0  0  0  0  0
  152.8472  135.9780  157.0136 O   0  0  0  0  0  0  0  0  0  0  0  0
  151.0357  137.4231  156.6084 C   0  0  0  0  0  0  0  0  0  0  0  0
  151.2555  137.3003  154.8937 Cl  0  0  0  0  0  0  0  0  0  0  0  0
  147.2722  142.2075  156.8984 C   0  0  0  0  0  0  0  0  0  0  0  0
  146.1639  142.1681  155.8311 C   0  0  0  0  0  0  0  0  0  0  0  0
  146.7204  142.5183  154.4421 C   0  0  0  0  0  0  0  0  0  0  0  0
  147.8974  141.6070  154.0594 C   0  0  0  0  0  0  0  0  0  0  0  0
  149.0002  141.6318  155.1346 C   0  0  0  0  0  0  0  0  0  0  0  0
  150.6358  137.6496  160.3293 H   0  0  0  0  0  0  0  0  0  0  0  0
  153.0757  143.3188  159.5891 H   0  0  0  0  0  0  0  0  0  0  0  0
  151.7534  144.4218  159.2214 H   0  0  0  0  0  0  0  0  0  0  0  0
  152.7494  143.7738  157.9191 H   0  0  0  0  0  0  0  0  0  0  0  0
  151.9043  141.4612  158.4359 H   0  0  0  0  0  0  0  0  0  0  0  0
  150.8975  142.0994  159.7112 H   0  0  0  0  0  0  0  0  0  0  0  0
  149.5494  143.3573  158.1019 H   0  0  0  0  0  0  0  0  0  0  0  0
  150.6493  142.9427  156.7915 H   0  0  0  0  0  0  0  0  0  0  0  0
  147.6467  139.5242  157.5743 H   0  0  0  0  0  0  0  0  0  0  0  0
  147.2854  139.5825  155.8781 H   0  0  0  0  0  0  0  0  0  0  0  0
  149.4588  138.9245  155.3125 H   0  0  0  0  0  0  0  0  0  0  0  0
  149.1764  138.8322  159.0615 H   0  0  0  0  0  0  0  0  0  0  0  0
  146.8597  141.9607  157.8769 H   0  0  0  0  0  0  0  0  0  0  0  0
  147.6055  143.2420  156.9666 H   0  0  0  0  0  0  0  0  0  0  0  0
  145.6978  141.1839  155.8046 H   0  0  0  0  0  0  0  0  0  0  0  0
  145.3730  142.8697  156.0976 H   0  0  0  0  0  0  0  0  0  0  0  0
  145.9308  142.4410  153.6941 H   0  0  0  0  0  0  0  0  0  0  0  0
  147.0502  143.5580  154.4354 H   0  0  0  0  0  0  0  0  0  0  0  0
  147.5410  140.5886  153.9050 H   0  0  0  0  0  0  0  0  0  0  0  0
  148.3117  141.9273  153.1030 H   0  0  0  0  0  0  0  0  0  0  0  0
  149.4291  142.6329  155.1328 H   0  0  0  0  0  0  0  0  0  0  0  0
  149.8081  140.9550  154.8546 H   0  0  0  0  0  0  0  0  0  0  0  0
  1  2  1  0  0  0  0
  1 22  1  0  0  0  0
  1 23  1  0  0  0  0
  1 24  1  0  0  0  0
  2  3  1  0  0  0  0
  2 25  1  0  0  0  0
  2 26  1  0  0  0  0
  3  4  1  0  0  0  0
  3 27  1  0  0  0  0
  3 28  1  0  0  0  0
  4  5  1  0  0  0  0
  5 20  1  0  0  0  0
  5  6  1  0  0  0  0
  5 16  1  0  0  0  0
  6 29  1  0  0  0  0
  6 30  1  0  0  0  0
  6  7  1  0  0  0  0
  7  8  1  0  0  0  0
  7 31  1  0  0  0  0
  8 14  2  0  0  0  0
  8  9  1  0  0  0  0
  9 32  1  0  0  0  0
  9 10  2  0  0  0  0
 10 11  1  0  0  0  0
 10 21  1  0  0  0  0
 11 12  1  0  0  0  0
 12 13  2  0  0  0  0
 12 14  1  0  0  0  0
 14 15  1  0  0  0  0
 16 17  1  0  0  0  0
 16 33  1  0  0  0  0
 16 34  1  0  0  0  0
 17 18  1  0  0  0  0
 17 35  1  0  0  0  0
 17 36  1  0  0  0  0
 18 19  1  0  0  0  0
 18 37  1  0  0  0  0
 18 38  1  0  0  0  0
 19 20  1  0  0  0  0
 19 39  1  0  0  0  0
 19 40  1  0  0  0  0
 20 41  1  0  0  0  0
 20 42  1  0  0  0  0
M  CHG  1  10   1
M  CHG  1  11  -1
M  END
> <s_m_source_file>
AV-unprocessed.smi

> <i_m_source_file_index>
2884

> <i_lp_mmshare_version>
43012

> <i_f3d_flags>
0

> <s_epik_input>
W0NIMl0xW0NIMl1bQ0gyXVtDSDJdW0NIMl1DMShPW0NIMl1bQ0gyXVtDSDNdKVtDSDJdW05IXWMyW2NIXW5bbkhdYyg9TyljMkNs

> <s_epik_cmdline>
J2VwaWtfcHl0aG9uJywgJy1waCcsICc3LjAnLCAnLXRuJywgJzgnLCAnLW1hJywgJzIwMCcsICctbWV0YWxfYmluZGluZycsICctaW1hZScsICc8aW5maWxlLm1hZT4nLCAnLW9tYWUnLCAnPG91dGZpbGUubWFlPic=

> <r_lp_tautomer_probability>
0.0138196

> <r_epik_Ionization_Penalty>
2.73941

> <r_epik_Ionization_Penalty_Charging>
2.73941

> <r_epik_Ionization_Penalty_Neutral>
1.09968e-06

> <r_epik_State_Penalty>
2.7044

> <r_epik_Charging_Adjusted_Penalty>
5.44381

> <i_epik_Tot_Q>
0

> <i_epik_Tot_abs_Q>
2

> <r_epik_Metal_State_Penalty>
2.9982

> <b_epik_Metal_Only>
0

> <s_lp_Force_Field>
OPLS_2005

> <r_lp_Energy>
38.2513

> <b_lp_Chiralities_Consistent>
1

> <s_lp_Variant>
AV-unprocessed.smi:2884-2

> <Gold.Version>
5.8.1

> <Gold.Id.Protein>
6NUR|6NUR_protein|mol2

> <Gold.PLP.Fitness>
34.8564

> <Gold.PLP.PLP>
-26.9168

> <Gold.PLP.part.hbond>
-2.0000

> <Gold.PLP.part.metal>
0.0000

> <Gold.PLP.part.buried>
-3.0024

> <Gold.PLP.part.nonpolar>
-22.7671

> <Gold.PLP.part.repulsive>
0.2487

> <Gold.PLP.ligand.clash>
0.0000

> <Gold.PLP.ligand.torsion>
0.1783

> <Gold.PLP.Chemscore.Hbond>
2.7600

> <Gold.PLP.Chemscore.CHOScore>
0.0000

> <Gold.PLP.Chemscore.Metal>
0.0000

> <Gold.Chemscore.Hbonds>
donor molecule, donor type, donor heavy atom, donor atom, acceptor molecule, acceptor atom, score
      P1  H  6896  6907       L1    11  1.76
      P1  H 10752 10764       L1    13  1.00

> <Gold.PLP.Chemscore.Internal.Correction>
0.0163

> <Gold.Rescore>
     Score         DG    S(hbond)    S(metal)    S(lipo)     H(rot)  DE(clash)    DE(int)     intcor
     14.61     -14.94       1.50        0.00      76.77       1.77       0.16       0.17       ----

> <Gold.Chemscore.Fitness>
14.6077

> <Gold.Chemscore.DG>
-14.9392

> <Gold.Chemscore.ZeroCoef>
-5.4800

> <Gold.Chemscore.Hbond>
1.4967

> <Gold.Chemscore.Metal>
0.0000

> <Gold.Chemscore.Lipo>
76.7673

> <Gold.Chemscore.Internal_Hbond>
0.0000

> <Gold.Chemscore.DEClash>
0.1642

> <Gold.Chemscore.DEInternal>
0.1673

> <Gold.Chemscore.Rot>
1.7663

> <Gold.Chemscore.Internal.Correction>
   9.000000E+99

> <Gold.Chemscore.Hbonds>
donor molecule, donor type, donor heavy atom, donor atom, acceptor molecule, acceptor atom, score
      P1  H  6896  6907       L1    11  0.24
      P1  H 10752 10764       L1    13  1.00

> <Gold.Chemscore.Hbond.Weighted>
-4.9991

> <Gold.Chemscore.Metal.Weighted>
-0.0000

> <Gold.Chemscore.Lipo.Weighted>
-8.9818

> <Gold.Chemscore.Internal_Hbond.Weighted>
0.0000

> <Gold.Chemscore.DEClash.Weighted>
0.1642

> <Gold.Chemscore.DEInternal.Weighted>
0.1673

> <Gold.Chemscore.Rot.Weighted>
4.5216

> <Gold.Chemscore.Internal.Correction.Weighted>
   9.000000E+99

> <Gold.Protein.RotatedTorsions>
[ 6907 6896 6895 6894 ] final   -3.00 input  -60.11 | X-H torsion
[ 7974 7965 7964 7962 ] final   38.01 input  175.53 | X-H torsion
[ 8008 7997 7996 7995 ] final  103.92 input   59.86 | X-H torsion
[ 10167 10162 10161 10158 ] final  -51.20 input  -65.29 | X-H torsion
[ 10718 10713 10712 10709 ] final  122.09 input   66.30 | X-H torsion
[ 10763 10752 10751 10750 ] final   -9.75 input  -60.55 | X-H torsion
[ 11005 11000 10999 10996 ] final   57.58 input  -57.11 | X-H torsion

> <Gold.Protein.ActiveResidues>
 VAL166  LYS551  ARG553  GLY616  TRP617  ASP618  TYR619  PRO620  LYS621  CYS622 
 ASP623  PHE694  ASN695  SER759  ASP760  ASP761  ALA762  ILE779  LEU786  VAL792 
 PHE793  MET794  SER795  GLU796  ALA797  LYS798  CYS799  TRP800  GLU811  SER814 

> <Gold.Protein.RotatedAtoms>
  151.5208  135.1067  159.9877 H   0  0  0  0  0  0  0  0  0  0  0  0  # atno 6907 bound_to 6896
  152.4621  133.7841  159.6877 H   0  0  0  0  0  0  0  0  0  0  0  0  # atno 6908 bound_to 6896
  150.8588  133.7610  159.3024 H   0  0  0  0  0  0  0  0  0  0  0  0  # atno 6909 bound_to 6896
  146.1094  139.5824  142.9362 H   0  0  0  0  0  0  0  0  0  0  0  0  # atno 7974 bound_to 7965
  156.1527  140.3156  155.8675 H   0  0  0  0  0  0  0  0  0  0  0  0  # atno 8008 bound_to 7997
  155.3939  140.0495  157.3056 H   0  0  0  0  0  0  0  0  0  0  0  0  # atno 8009 bound_to 7997
  154.5073  140.2151  155.9237 H   0  0  0  0  0  0  0  0  0  0  0  0  # atno 8010 bound_to 7997
  140.6600  143.2628  151.4469 H   0  0  0  0  0  0  0  0  0  0  0  0  # atno 10167 bound_to 10162
  157.5768  131.1078  150.8263 H   0  0  0  0  0  0  0  0  0  0  0  0  # atno 10718 bound_to 10713
  153.4592  135.7016  153.6061 H   0  0  0  0  0  0  0  0  0  0  0  0  # atno 10763 bound_to 10752
  153.4362  135.3791  155.2201 H   0  0  0  0  0  0  0  0  0  0  0  0  # atno 10764 bound_to 10752
  154.8727  135.3963  154.4015 H   0  0  0  0  0  0  0  0  0  0  0  0  # atno 10765 bound_to 10752
  140.0442  134.5830  155.9344 H   0  0  0  0  0  0  0  0  0  0  0  0  # atno 11005 bound_to 11000
  145.5695  141.0396  143.2182 LP  0  0  0  0  0  0  0  0  0  0  0  0  # atno 17320 bound_to 7965
  144.7498  139.7223  143.7277 LP  0  0  0  0  0  0  0  0  0  0  0  0  # atno 17321 bound_to 7965
  139.5831  144.1664  152.1995 LP  0  0  0  0  0  0  0  0  0  0  0  0  # atno 17342 bound_to 10162
  140.0995  144.5551  150.6998 LP  0  0  0  0  0  0  0  0  0  0  0  0  # atno 17343 bound_to 10162
  156.8720  130.5149  149.5296 LP  0  0  0  0  0  0  0  0  0  0  0  0  # atno 17370 bound_to 10713
  156.0813  130.5823  150.9568 LP  0  0  0  0  0  0  0  0  0  0  0  0  # atno 17371 bound_to 10713
  141.1898  133.6566  156.5385 LP  0  0  0  0  0  0  0  0  0  0  0  0  # atno 17394 bound_to 11000
  140.4021  134.7348  157.4786 LP  0  0  0  0  0  0  0  0  0  0  0  0  # atno 17395 bound_to 11000

$$$$
