AV-unprocessed.smi:148|AV-procd|sdf|1207|dock3
  -GOLD-   2262018373D 1   1.00000     0.00000
 Structure written by MMmdl.
 63 67  0  0  0  0  0  0  0  0  1 V2000
  144.6956  134.2433  160.0527 O   0  0  0  0  0  0  0  0  0  0  0  0
  145.6033  134.4106  158.9829 C   0  0  0  0  0  0  0  0  0  0  0  0
  147.0783  134.2790  159.4438 C   0  0  1  0  0  0  0  0  0  0  0  0
  148.0626  134.2006  158.2449 C   0  0  0  0  0  0  0  0  0  0  0  0
  147.7341  133.1596  157.2886 N   0  0  0  0  0  0  0  0  0  0  0  0
  146.9572  132.0446  157.5098 C   0  0  0  0  0  0  0  0  0  0  0  0
  146.8319  131.2430  156.4872 N   0  0  0  0  0  0  0  0  0  0  0  0
  147.5722  131.8580  155.4845 C   0  0  0  0  0  0  0  0  0  0  0  0
  147.8914  131.5283  154.1371 C   0  0  0  0  0  0  0  0  0  0  0  0
  147.4886  130.4055  153.5047 N   0  0  0  0  0  0  0  0  0  0  0  0
  148.4671  129.3427  153.7422 C   0  0  0  0  0  0  0  0  0  0  0  0
  147.9271  127.9771  153.3072 C   0  0  0  0  0  0  0  0  0  0  0  0
  147.4974  128.0325  151.8408 C   0  0  0  0  0  0  0  0  0  0  0  0
  146.4795  129.1616  151.6367 C   0  0  0  0  0  0  0  0  0  0  0  0
  147.0063  130.5437  152.1132 C   0  0  1  0  0  0  0  0  0  0  0  0
  145.8982  131.6396  151.9259 C   0  0  1  0  0  0  0  0  0  0  0  0
  146.3190  133.1121  152.1317 C   0  0  0  0  0  0  0  0  0  0  0  0
  145.3320  133.9820  151.3406 C   0  0  0  0  0  0  0  0  0  0  0  0
  144.4662  133.0138  150.5308 C   0  0  0  0  0  0  0  0  0  0  0  0
  145.2327  131.6905  150.5338 C   0  0  1  0  0  0  0  0  0  0  0  0
  146.2005  131.7298  149.5000 O   0  0  0  0  0  0  0  0  0  0  0  0
  148.6506  132.3998  153.4282 N   0  0  0  0  0  0  0  0  0  0  0  0
  149.0980  133.5177  154.0085 C   0  0  0  0  0  0  0  0  0  0  0  0
  148.9070  133.9444  155.2590 N   0  0  0  0  0  0  0  0  0  0  0  0
  148.1307  133.0740  155.9668 C   0  0  0  0  0  0  0  0  0  0  0  0
  147.4827  135.4378  160.3932 C   0  0  2  0  0  0  0  0  0  0  0  0
  146.8966  135.3375  161.8017 C   0  0  0  0  0  0  0  0  0  0  0  0
  146.6246  136.7847  162.2234 C   0  0  0  0  0  0  0  0  0  0  0  0
  147.1102  137.5883  161.1595 O   0  0  0  0  0  0  0  0  0  0  0  0
  147.0064  136.8297  159.9681 C   0  0  0  0  0  0  0  0  0  0  0  0
  145.0399  133.5873  160.6396 H   0  0  0  0  0  0  0  0  0  0  0  0
  145.3775  133.6914  158.1949 H   0  0  0  0  0  0  0  0  0  0  0  0
  145.4002  135.3976  158.5720 H   0  0  0  0  0  0  0  0  0  0  0  0
  147.1652  133.3555  160.0188 H   0  0  0  0  0  0  0  0  0  0  0  0
  148.0909  135.1565  157.7202 H   0  0  0  0  0  0  0  0  0  0  0  0
  149.0797  134.0098  158.5869 H   0  0  0  0  0  0  0  0  0  0  0  0
  146.4970  131.8347  158.4643 H   0  0  0  0  0  0  0  0  0  0  0  0
  149.3843  129.5626  153.1941 H   0  0  0  0  0  0  0  0  0  0  0  0
  148.7317  129.3046  154.8004 H   0  0  0  0  0  0  0  0  0  0  0  0
  148.6883  127.2094  153.4481 H   0  0  0  0  0  0  0  0  0  0  0  0
  147.0789  127.6982  153.9336 H   0  0  0  0  0  0  0  0  0  0  0  0
  148.3675  128.1994  151.2047 H   0  0  0  0  0  0  0  0  0  0  0  0
  147.0658  127.0777  151.5387 H   0  0  0  0  0  0  0  0  0  0  0  0
  146.2193  129.1840  150.5795 H   0  0  0  0  0  0  0  0  0  0  0  0
  145.5616  128.9176  152.1734 H   0  0  0  0  0  0  0  0  0  0  0  0
  147.8609  130.8050  151.4879 H   0  0  0  0  0  0  0  0  0  0  0  0
  145.1018  131.4268  152.6416 H   0  0  0  0  0  0  0  0  0  0  0  0
  146.3198  133.4057  153.1804 H   0  0  0  0  0  0  0  0  0  0  0  0
  147.3255  133.2722  151.7436 H   0  0  0  0  0  0  0  0  0  0  0  0
  144.7164  134.5932  152.0015 H   0  0  0  0  0  0  0  0  0  0  0  0
  145.8763  134.6600  150.6821 H   0  0  0  0  0  0  0  0  0  0  0  0
  143.5127  132.8753  151.0429 H   0  0  0  0  0  0  0  0  0  0  0  0
  144.2438  133.3812  149.5281 H   0  0  0  0  0  0  0  0  0  0  0  0
  144.5602  130.8491  150.3633 H   0  0  0  0  0  0  0  0  0  0  0  0
  147.0129  131.3858  149.8386 H   0  0  0  0  0  0  0  0  0  0  0  0
  149.7017  134.1586  153.3831 H   0  0  0  0  0  0  0  0  0  0  0  0
  148.5701  135.4697  160.4785 H   0  0  0  0  0  0  0  0  0  0  0  0
  145.9611  134.7761  161.8073 H   0  0  0  0  0  0  0  0  0  0  0  0
  147.5868  134.8392  162.4830 H   0  0  0  0  0  0  0  0  0  0  0  0
  145.5537  136.9539  162.3447 H   0  0  0  0  0  0  0  0  0  0  0  0
  147.1181  137.0466  163.1594 H   0  0  0  0  0  0  0  0  0  0  0  0
  147.6191  137.2704  159.1816 H   0  0  0  0  0  0  0  0  0  0  0  0
  145.9682  136.8114  159.6318 H   0  0  0  0  0  0  0  0  0  0  0  0
  1  2  1  0  0  0  0
  1 31  1  0  0  0  0
  2  3  1  0  0  0  0
  2 32  1  0  0  0  0
  2 33  1  0  0  0  0
  3  4  1  0  0  0  0
  3 26  1  0  0  0  0
  3 34  1  0  0  0  0
  4  5  1  0  0  0  0
  4 35  1  0  0  0  0
  4 36  1  0  0  0  0
  5 25  1  0  0  0  0
  5  6  1  0  0  0  0
  6  7  2  0  0  0  0
  6 37  1  0  0  0  0
  7  8  1  0  0  0  0
  8 25  2  0  0  0  0
  8  9  1  0  0  0  0
  9 10  1  0  0  0  0
  9 22  2  0  0  0  0
 10 15  1  0  0  0  0
 10 11  1  0  0  0  0
 11 12  1  0  0  0  0
 11 38  1  0  0  0  0
 11 39  1  0  0  0  0
 12 13  1  0  0  0  0
 12 40  1  0  0  0  0
 12 41  1  0  0  0  0
 13 14  1  0  0  0  0
 13 42  1  0  0  0  0
 13 43  1  0  0  0  0
 14 15  1  0  0  0  0
 14 44  1  0  0  0  0
 14 45  1  0  0  0  0
 15 16  1  0  0  0  0
 15 46  1  0  0  0  0
 16 20  1  0  0  0  0
 16 17  1  0  0  0  0
 16 47  1  0  0  0  0
 17 18  1  0  0  0  0
 17 48  1  0  0  0  0
 17 49  1  0  0  0  0
 18 19  1  0  0  0  0
 18 50  1  0  0  0  0
 18 51  1  0  0  0  0
 19 20  1  0  0  0  0
 19 52  1  0  0  0  0
 19 53  1  0  0  0  0
 20 21  1  0  0  0  0
 20 54  1  0  0  0  0
 21 55  1  0  0  0  0
 22 23  1  0  0  0  0
 23 24  2  0  0  0  0
 23 56  1  0  0  0  0
 24 25  1  0  0  0  0
 26 30  1  0  0  0  0
 26 27  1  0  0  0  0
 26 57  1  0  0  0  0
 27 28  1  0  0  0  0
 27 58  1  0  0  0  0
 27 59  1  0  0  0  0
 28 29  1  0  0  0  0
 28 60  1  0  0  0  0
 28 61  1  0  0  0  0
 29 30  1  0  0  0  0
 30 62  1  0  0  0  0
 30 63  1  0  0  0  0
M  END
> <s_m_source_file>
AV-unprocessed.smi

> <i_m_source_file_index>
148

> <i_lp_mmshare_version>
43012

> <i_f3d_flags>
0

> <s_epik_input>
W0NIMl0xT1tDSDJdW0NIMl1bQ0BIXTFbQ0BIXShbQ0gyXVtPSF0pW0NIMl1uKFtjSF1uMiljKGMyMyluW2NIXW5jM040W0NIMl1bQ0gyXVtDSDJdW0NIMl1bQ0BIXTRbQ0BASF01W0NIMl1bQ0gyXVtDSDJdW0NASF01W09IXQ==

> <s_epik_cmdline>
J2VwaWtfcHl0aG9uJywgJy1waCcsICc3LjAnLCAnLXRuJywgJzgnLCAnLW1hJywgJzIwMCcsICctbWV0YWxfYmluZGluZycsICctaW1hZScsICc8aW5maWxlLm1hZT4nLCAnLW9tYWUnLCAnPG91dGZpbGUubWFlPic=

> <r_lp_tautomer_probability>
1

> <r_epik_Ionization_Penalty>
0.00556303

> <r_epik_Ionization_Penalty_Charging>
0

> <r_epik_Ionization_Penalty_Neutral>
0.00556303

> <r_epik_State_Penalty>
0.00401767

> <r_epik_Charging_Adjusted_Penalty>
0.00401767

> <i_epik_Tot_Q>
0

> <i_epik_Tot_abs_Q>
0

> <r_epik_Metal_State_Penalty>
-0

> <b_epik_Metal_Only>
0

> <s_lp_Force_Field>
OPLS_2005

> <r_lp_Energy>
70.4735

> <b_lp_Chiralities_Consistent>
1

> <s_lp_Variant>
AV-unprocessed.smi:148-6

> <Gold.Version>
5.8.1

> <Gold.Id.Protein>
6NUR|6NUR_protein|mol2

> <Gold.PLP.Fitness>
49.1562

> <Gold.PLP.PLP>
-42.8687

> <Gold.PLP.part.hbond>
-3.0000

> <Gold.PLP.part.metal>
0.0000

> <Gold.PLP.part.buried>
-4.8618

> <Gold.PLP.part.nonpolar>
-34.9695

> <Gold.PLP.part.repulsive>
0.3024

> <Gold.PLP.ligand.clash>
0.0000

> <Gold.PLP.ligand.torsion>
1.3301

> <Gold.PLP.Chemscore.Hbond>
2.8160

> <Gold.PLP.Chemscore.CHOScore>
0.0000

> <Gold.PLP.Chemscore.Metal>
0.0000

> <Gold.Chemscore.Hbonds>
donor molecule, donor type, donor heavy atom, donor atom, acceptor molecule, acceptor atom, score
      L1  H    21    55       P1 10747  0.93
      P1  H  6931  6943       L1    29  0.43
      P1  H  6934  6947       L1    29  0.80

> <Gold.PLP.Chemscore.Internal.Correction>
0.4997

> <Gold.Rescore>
     Score         DG    S(hbond)    S(metal)    S(lipo)     H(rot)  DE(clash)    DE(int)     intcor
     13.06     -18.21       2.55        0.00     108.68       3.32       1.63       3.52       ----

> <Gold.Chemscore.Fitness>
13.0596

> <Gold.Chemscore.DG>
-18.2090

> <Gold.Chemscore.ZeroCoef>
-5.4800

> <Gold.Chemscore.Hbond>
2.5489

> <Gold.Chemscore.Metal>
0.0000

> <Gold.Chemscore.Lipo>
108.6796

> <Gold.Chemscore.Internal_Hbond>
0.0000

> <Gold.Chemscore.DEClash>
1.6271

> <Gold.Chemscore.DEInternal>
3.5223

> <Gold.Chemscore.Rot>
3.3203

> <Gold.Chemscore.Internal.Correction>
   9.000000E+99

> <Gold.Chemscore.Hbonds>
donor molecule, donor type, donor heavy atom, donor atom, acceptor molecule, acceptor atom, score
      L1  H    21    55       P1 10747  0.89
      P1  H  6931  6943       L1    29  0.17
      P1  H  6934  6947       L1    29  0.69

> <Gold.Chemscore.Hbond.Weighted>
-8.5135

> <Gold.Chemscore.Metal.Weighted>
-0.0000

> <Gold.Chemscore.Lipo.Weighted>
-12.7155

> <Gold.Chemscore.Internal_Hbond.Weighted>
0.0000

> <Gold.Chemscore.DEClash.Weighted>
1.6271

> <Gold.Chemscore.DEInternal.Weighted>
3.5223

> <Gold.Chemscore.Rot.Weighted>
8.5000

> <Gold.Chemscore.Internal.Correction.Weighted>
   9.000000E+99

> <Gold.Protein.RotatedTorsions>
[ 6907 6896 6895 6894 ] final -127.43 input  -60.11 | X-H torsion
[ 7974 7965 7964 7962 ] final   72.61 input  175.53 | X-H torsion
[ 8008 7997 7996 7995 ] final  126.54 input   59.86 | X-H torsion
[ 10167 10162 10161 10158 ] final -104.77 input  -65.29 | X-H torsion
[ 10718 10713 10712 10709 ] final   22.85 input   66.30 | X-H torsion
[ 10763 10752 10751 10750 ] final  -35.87 input  -60.55 | X-H torsion
[ 11005 11000 10999 10996 ] final -171.64 input  -57.11 | X-H torsion

> <Gold.Protein.ActiveResidues>
 VAL166  LYS551  ARG553  GLY616  TRP617  ASP618  TYR619  PRO620  LYS621  CYS622 
 ASP623  PHE694  ASN695  SER759  ASP760  ASP761  ALA762  ILE779  LEU786  VAL792 
 PHE793  MET794  SER795  GLU796  ALA797  LYS798  CYS799  TRP800  GLU811  SER814 

> <Gold.Protein.RotatedAtoms>
  150.9072  133.7043  159.2863 H   0  0  0  0  0  0  0  0  0  0  0  0  # atno 6907 bound_to 6896
  151.4542  135.1031  159.9716 H   0  0  0  0  0  0  0  0  0  0  0  0  # atno 6908 bound_to 6896
  152.4910  133.8451  159.7228 H   0  0  0  0  0  0  0  0  0  0  0  0  # atno 6909 bound_to 6896
  145.7512  139.2760  143.1430 H   0  0  0  0  0  0  0  0  0  0  0  0  # atno 7974 bound_to 7965
  156.2866  140.2690  156.2127 H   0  0  0  0  0  0  0  0  0  0  0  0  # atno 8008 bound_to 7997
  155.0247  140.0386  157.2469 H   0  0  0  0  0  0  0  0  0  0  0  0  # atno 8009 bound_to 7997
  154.7405  140.2724  155.6382 H   0  0  0  0  0  0  0  0  0  0  0  0  # atno 8010 bound_to 7997
  140.2057  143.3785  152.1093 H   0  0  0  0  0  0  0  0  0  0  0  0  # atno 10167 bound_to 10162
  157.1580  130.6704  149.6034 H   0  0  0  0  0  0  0  0  0  0  0  0  # atno 10718 bound_to 10713
  153.8704  135.6831  153.4775 H   0  0  0  0  0  0  0  0  0  0  0  0  # atno 10763 bound_to 10752
  153.1291  135.4706  154.9317 H   0  0  0  0  0  0  0  0  0  0  0  0  # atno 10764 bound_to 10752
  154.7717  135.3240  154.8126 H   0  0  0  0  0  0  0  0  0  0  0  0  # atno 10765 bound_to 10752
  140.5059  134.5848  157.5003 H   0  0  0  0  0  0  0  0  0  0  0  0  # atno 11005 bound_to 11000
  146.0355  140.8216  142.9854 LP  0  0  0  0  0  0  0  0  0  0  0  0  # atno 17320 bound_to 7965
  144.6849  140.2832  143.7289 LP  0  0  0  0  0  0  0  0  0  0  0  0  # atno 17321 bound_to 7965
  139.5199  144.7026  151.5448 LP  0  0  0  0  0  0  0  0  0  0  0  0  # atno 17342 bound_to 10162
  140.6359  143.8985  150.6647 LP  0  0  0  0  0  0  0  0  0  0  0  0  # atno 17343 bound_to 10162
  155.9758  130.4721  150.6489 LP  0  0  0  0  0  0  0  0  0  0  0  0  # atno 17370 bound_to 10713
  157.4159  131.0830  151.1177 LP  0  0  0  0  0  0  0  0  0  0  0  0  # atno 17371 bound_to 10713
  139.9686  134.7331  156.0087 LP  0  0  0  0  0  0  0  0  0  0  0  0  # atno 17394 bound_to 11000
  141.1411  133.6564  156.3732 LP  0  0  0  0  0  0  0  0  0  0  0  0  # atno 17395 bound_to 11000

$$$$
