AV-unprocessed.smi:356|AV-procd|sdf|2413|dock4
  -GOLD-   2262022343D 1   1.00000     0.00000
 Structure written by MMmdl.
 42 44  0  0  0  0  0  0  0  0  2 V2000
  149.5780  141.2824  154.9513 C   0  0  0  0  0  0  0  0  0  0  0  0
  150.3695  141.6684  156.1554 C   0  0  0  0  0  0  0  0  0  0  0  0
  150.3494  142.8838  156.7722 N   0  3  0  0  0  0  0  0  0  0  0  0
  151.2189  142.8738  157.8641 C   0  0  0  0  0  0  0  0  0  0  0  0
  151.5357  143.8657  158.7873 C   0  0  0  0  0  0  0  0  0  0  0  0
  152.4702  143.5242  159.7872 C   0  0  0  0  0  0  0  0  0  0  0  0
  153.0506  142.2401  159.8427 C   0  0  0  0  0  0  0  0  0  0  0  0
  152.7218  141.2428  158.9008 C   0  0  0  0  0  0  0  0  0  0  0  0
  151.7970  141.5890  157.9163 C   0  0  0  0  0  0  0  0  0  0  0  0
  151.2429  140.8802  156.8455 N   0  0  0  0  0  0  0  0  0  0  0  0
  151.6437  139.4822  156.6245 C   0  0  0  0  0  0  0  0  0  0  0  0
  151.8461  139.1434  155.1343 C   0  0  1  0  0  0  0  0  0  0  0  0
  153.0963  139.6485  154.7090 O   0  0  0  0  0  0  0  0  0  0  0  0
  151.8259  137.6209  154.8956 C   0  0  0  0  0  0  0  0  0  0  0  0
  150.6354  136.9202  155.3811 N   0  0  0  0  0  0  0  0  0  0  0  0
  150.6023  135.5127  154.9859 C   0  0  0  0  0  0  0  0  0  0  0  0
  149.3265  134.8069  155.4784 C   0  0  0  0  0  0  0  0  0  0  0  0
  148.1790  135.4969  154.9950 O   0  0  0  0  0  0  0  0  0  0  0  0
  148.1495  136.8613  155.4001 C   0  0  0  0  0  0  0  0  0  0  0  0
  149.4200  137.5720  154.9032 C   0  0  0  0  0  0  0  0  0  0  0  0
  148.9452  142.1087  154.6269 H   0  0  0  0  0  0  0  0  0  0  0  0
  148.9418  140.4265  155.1763 H   0  0  0  0  0  0  0  0  0  0  0  0
  150.2457  141.0144  154.1322 H   0  0  0  0  0  0  0  0  0  0  0  0
  151.0925  144.8499  158.7469 H   0  0  0  0  0  0  0  0  0  0  0  0
  152.7474  144.2617  160.5265 H   0  0  0  0  0  0  0  0  0  0  0  0
  153.7627  142.0154  160.6236 H   0  0  0  0  0  0  0  0  0  0  0  0
  153.1711  140.2620  158.9514 H   0  0  0  0  0  0  0  0  0  0  0  0
  152.5658  139.3095  157.1808 H   0  0  0  0  0  0  0  0  0  0  0  0
  150.8904  138.8332  157.0731 H   0  0  0  0  0  0  0  0  0  0  0  0
  151.0639  139.6347  154.5577 H   0  0  0  0  0  0  0  0  0  0  0  0
  153.0855  139.7089  153.7656 H   0  0  0  0  0  0  0  0  0  0  0  0
  151.9312  137.4486  153.8232 H   0  0  0  0  0  0  0  0  0  0  0  0
  152.7111  137.1762  155.3531 H   0  0  0  0  0  0  0  0  0  0  0  0
  150.6618  135.4315  153.8995 H   0  0  0  0  0  0  0  0  0  0  0  0
  151.4645  134.9825  155.3875 H   0  0  0  0  0  0  0  0  0  0  0  0
  149.3004  133.7776  155.1207 H   0  0  0  0  0  0  0  0  0  0  0  0
  149.3030  134.7678  156.5687 H   0  0  0  0  0  0  0  0  0  0  0  0
  147.2612  137.3375  154.9848 H   0  0  0  0  0  0  0  0  0  0  0  0
  148.0703  136.9252  156.4864 H   0  0  0  0  0  0  0  0  0  0  0  0
  149.4017  138.6105  155.2353 H   0  0  0  0  0  0  0  0  0  0  0  0
  149.4162  137.5937  153.8122 H   0  0  0  0  0  0  0  0  0  0  0  0
  149.7798  143.6623  156.4663 H   0  0  0  0  0  0  0  0  0  0  0  0
  1  2  1  0  0  0  0
  1 21  1  0  0  0  0
  1 22  1  0  0  0  0
  1 23  1  0  0  0  0
  2 10  1  0  0  0  0
  2  3  2  0  0  0  0
  3  4  1  0  0  0  0
  3 42  1  0  0  0  0
  4  9  2  0  0  0  0
  4  5  1  0  0  0  0
  5  6  2  0  0  0  0
  5 24  1  0  0  0  0
  6  7  1  0  0  0  0
  6 25  1  0  0  0  0
  7  8  2  0  0  0  0
  7 26  1  0  0  0  0
  8  9  1  0  0  0  0
  8 27  1  0  0  0  0
  9 10  1  0  0  0  0
 10 11  1  0  0  0  0
 11 12  1  0  0  0  0
 11 28  1  0  0  0  0
 11 29  1  0  0  0  0
 12 13  1  0  0  0  0
 12 14  1  0  0  0  0
 12 30  1  0  0  0  0
 13 31  1  0  0  0  0
 14 15  1  0  0  0  0
 14 32  1  0  0  0  0
 14 33  1  0  0  0  0
 15 20  1  0  0  0  0
 15 16  1  0  0  0  0
 16 17  1  0  0  0  0
 16 34  1  0  0  0  0
 16 35  1  0  0  0  0
 17 18  1  0  0  0  0
 17 36  1  0  0  0  0
 17 37  1  0  0  0  0
 18 19  1  0  0  0  0
 19 20  1  0  0  0  0
 19 38  1  0  0  0  0
 19 39  1  0  0  0  0
 20 40  1  0  0  0  0
 20 41  1  0  0  0  0
M  CHG  1   3   1
M  END
> <s_m_source_file>
AV-unprocessed.smi

> <i_m_source_file_index>
356

> <i_lp_mmshare_version>
43012

> <i_f3d_flags>
0

> <s_epik_input>
W2NIXTFbY0hdW2NIXVtjSF1jKGMxMiluKGMobjIpW0NIM10pW0NIMl1bQ0BIXShbT0hdKVtDSDJdTjNbQ0gyXVtDSDJdT1tDSDJdW0NIMl0z

> <s_epik_cmdline>
J2VwaWtfcHl0aG9uJywgJy1waCcsICc3LjAnLCAnLXRuJywgJzgnLCAnLW1hJywgJzIwMCcsICctbWV0YWxfYmluZGluZycsICctaW1hZScsICc8aW5maWxlLm1hZT4nLCAnLW9tYWUnLCAnPG91dGZpbGUubWFlPic=

> <r_epik_Ionization_Penalty>
1.35865

> <r_epik_Ionization_Penalty_Charging>
1.14429

> <r_epik_Ionization_Penalty_Neutral>
0.214359

> <r_epik_State_Penalty>
1.39809

> <r_epik_Charging_Adjusted_Penalty>
2.54238

> <i_epik_Tot_Q>
1

> <i_epik_Tot_abs_Q>
1

> <r_epik_Metal_State_Penalty>
5.40564

> <b_epik_Metal_Only>
0

> <s_lp_Force_Field>
OPLS_2005

> <r_lp_Energy>
32.3817

> <b_lp_Chiralities_Consistent>
1

> <s_lp_Variant>
AV-unprocessed.smi:356-6

> <Gold.Version>
5.8.1

> <Gold.Id.Protein>
6NUR|6NUR_protein|mol2

> <Gold.PLP.Fitness>
48.6738

> <Gold.PLP.PLP>
-40.5907

> <Gold.PLP.part.hbond>
-3.0000

> <Gold.PLP.part.metal>
0.0000

> <Gold.PLP.part.buried>
-4.8352

> <Gold.PLP.part.nonpolar>
-33.7117

> <Gold.PLP.part.repulsive>
0.2468

> <Gold.PLP.ligand.clash>
0.0000

> <Gold.PLP.ligand.torsion>
0.4650

> <Gold.PLP.Chemscore.Hbond>
3.0000

> <Gold.PLP.Chemscore.CHOScore>
0.0000

> <Gold.PLP.Chemscore.Metal>
0.0000

> <Gold.Chemscore.Hbonds>
donor molecule, donor type, donor heavy atom, donor atom, acceptor molecule, acceptor atom, score
      L1  H     3    42       P1  8028  2.00
      P1  H  7997  8009       L1    13  1.00

> <Gold.PLP.Chemscore.Internal.Correction>
0.0132

> <Gold.Rescore>
     Score         DG    S(hbond)    S(metal)    S(lipo)     H(rot)  DE(clash)    DE(int)     intcor
     19.09     -19.68       2.00        0.00     109.29       2.05       0.22       0.37       ----

> <Gold.Chemscore.Fitness>
19.0863

> <Gold.Chemscore.DG>
-19.6755

> <Gold.Chemscore.ZeroCoef>
-5.4800

> <Gold.Chemscore.Hbond>
1.9959

> <Gold.Chemscore.Metal>
0.0000

> <Gold.Chemscore.Lipo>
109.2899

> <Gold.Chemscore.Internal_Hbond>
0.0000

> <Gold.Chemscore.DEClash>
0.2163

> <Gold.Chemscore.DEInternal>
0.3728

> <Gold.Chemscore.Rot>
2.0539

> <Gold.Chemscore.Internal.Correction>
   9.000000E+99

> <Gold.Chemscore.Hbonds>
donor molecule, donor type, donor heavy atom, donor atom, acceptor molecule, acceptor atom, score
      L1  H     3    42       P1  8028  0.98
      P1  H  7997  8009       L1    13  0.98

> <Gold.Chemscore.Hbond.Weighted>
-6.6664

> <Gold.Chemscore.Metal.Weighted>
-0.0000

> <Gold.Chemscore.Lipo.Weighted>
-12.7869

> <Gold.Chemscore.Internal_Hbond.Weighted>
0.0000

> <Gold.Chemscore.DEClash.Weighted>
0.2163

> <Gold.Chemscore.DEInternal.Weighted>
0.3728

> <Gold.Chemscore.Rot.Weighted>
5.2579

> <Gold.Chemscore.Internal.Correction.Weighted>
   9.000000E+99

> <Gold.Protein.RotatedTorsions>
[ 6907 6896 6895 6894 ] final  -93.87 input  -60.11 | X-H torsion
[ 7974 7965 7964 7962 ] final -162.36 input  175.53 | X-H torsion
[ 8008 7997 7996 7995 ] final -120.59 input   59.86 | X-H torsion
[ 10167 10162 10161 10158 ] final  -37.69 input  -65.29 | X-H torsion
[ 10718 10713 10712 10709 ] final -124.13 input   66.30 | X-H torsion
[ 10763 10752 10751 10750 ] final   32.96 input  -60.55 | X-H torsion
[ 11005 11000 10999 10996 ] final  160.10 input  -57.11 | X-H torsion

> <Gold.Protein.ActiveResidues>
 VAL166  LYS551  ARG553  GLY616  TRP617  ASP618  TYR619  PRO620  LYS621  CYS622 
 ASP623  PHE694  ASN695  SER759  ASP760  ASP761  ALA762  ILE779  LEU786  VAL792 
 PHE793  MET794  SER795  GLU796  ALA797  LYS798  CYS799  TRP800  GLU811  SER814 

> <Gold.Protein.RotatedAtoms>
  150.6930  134.1901  159.4281 H   0  0  0  0  0  0  0  0  0  0  0  0  # atno 6907 bound_to 6896
  151.9872  134.9996  160.0569 H   0  0  0  0  0  0  0  0  0  0  0  0  # atno 6908 bound_to 6896
  152.1701  133.4603  159.4941 H   0  0  0  0  0  0  0  0  0  0  0  0  # atno 6909 bound_to 6896
  144.7360  140.3264  143.6161 H   0  0  0  0  0  0  0  0  0  0  0  0  # atno 7974 bound_to 7965
  155.1343  140.0400  157.2783 H   0  0  0  0  0  0  0  0  0  0  0  0  # atno 8008 bound_to 7997
  154.6519  140.2571  155.7178 H   0  0  0  0  0  0  0  0  0  0  0  0  # atno 8009 bound_to 7997
  156.2581  140.2834  156.0957 H   0  0  0  0  0  0  0  0  0  0  0  0  # atno 8010 bound_to 7997
  140.7112  143.3325  151.2536 H   0  0  0  0  0  0  0  0  0  0  0  0  # atno 10167 bound_to 10162
  156.1561  130.6569  150.9983 H   0  0  0  0  0  0  0  0  0  0  0  0  # atno 10718 bound_to 10713
  153.0236  135.6399  154.1436 H   0  0  0  0  0  0  0  0  0  0  0  0  # atno 10763 bound_to 10752
  154.1168  135.2849  155.3219 H   0  0  0  0  0  0  0  0  0  0  0  0  # atno 10764 bound_to 10752
  154.6292  135.5498  153.7724 H   0  0  0  0  0  0  0  0  0  0  0  0  # atno 10765 bound_to 10752
  140.2027  134.8326  157.3035 H   0  0  0  0  0  0  0  0  0  0  0  0  # atno 11005 bound_to 11000
  145.7517  139.1796  143.2318 LP  0  0  0  0  0  0  0  0  0  0  0  0  # atno 17320 bound_to 7965
  146.1056  140.7491  142.9528 LP  0  0  0  0  0  0  0  0  0  0  0  0  # atno 17321 bound_to 7965
  139.6811  143.9853  152.2809 LP  0  0  0  0  0  0  0  0  0  0  0  0  # atno 17342 bound_to 10162
  139.9483  144.6637  150.8197 LP  0  0  0  0  0  0  0  0  0  0  0  0  # atno 17343 bound_to 10162
  157.6696  131.0864  150.7645 LP  0  0  0  0  0  0  0  0  0  0  0  0  # atno 17370 bound_to 10713
  156.7710  130.4829  149.5418 LP  0  0  0  0  0  0  0  0  0  0  0  0  # atno 17371 bound_to 10713
  140.2037  134.4223  155.7649 LP  0  0  0  0  0  0  0  0  0  0  0  0  # atno 17394 bound_to 11000
  141.2227  133.7084  156.8225 LP  0  0  0  0  0  0  0  0  0  0  0  0  # atno 17395 bound_to 11000

$$$$
