AV-unprocessed.smi:3249|AV-procd|sdf|12424|dock4
  -GOLD-   2272018313D 1   1.00000     0.00000
 Structure written by MMmdl.
 44 45  0  0  0  0  0  0  0  0  2 V2000
  153.3999  139.0936  159.2495 C   0  0  0  0  0  0  0  0  0  0  0  0
  153.1868  140.5692  159.4277 C   0  0  0  0  0  0  0  0  0  0  0  0
  154.1651  141.5686  159.6940 C   0  0  0  0  0  0  0  0  0  0  0  0
  153.6457  142.7810  159.7963 N   0  0  0  0  0  0  0  0  0  0  0  0
  152.3208  142.6018  159.5971 N   0  0  0  0  0  0  0  0  0  0  0  0
  151.4113  143.7398  159.6432 C   0  0  1  0  0  0  0  0  0  0  0  0
  151.8748  144.7388  160.7207 C   0  0  0  0  0  0  0  0  0  0  0  0
  151.2260  144.3972  158.2487 C   0  0  1  0  0  0  0  0  0  0  0  0
  152.5554  144.8279  157.6026 C   0  0  0  0  0  0  0  0  0  0  0  0
  150.5278  143.4706  157.3295 N   0  3  0  0  0  0  0  0  0  0  0  0
  151.4099  142.5395  156.5961 C   0  0  0  0  0  0  0  0  0  0  0  0
  150.6231  141.3300  156.0729 C   0  0  1  0  0  0  0  0  0  0  0  0
  149.5421  141.7452  155.0561 C   0  0  0  0  0  0  0  0  0  0  0  0
  148.8360  140.5102  154.4850 C   0  0  0  0  0  0  0  0  0  0  0  0
  149.8763  139.5316  153.9296 C   0  0  0  0  0  0  0  0  0  0  0  0
  150.9463  139.2306  154.9909 C   0  0  0  0  0  0  0  0  0  0  0  0
  151.5433  140.4449  155.4370 O   0  0  0  0  0  0  0  0  0  0  0  0
  152.0180  141.2744  159.3747 C   0  0  0  0  0  0  0  0  0  0  0  0
  154.3893  138.7831  159.5867 H   0  0  0  0  0  0  0  0  0  0  0  0
  153.3095  138.7985  158.2042 H   0  0  0  0  0  0  0  0  0  0  0  0
  152.6719  138.5101  159.8134 H   0  0  0  0  0  0  0  0  0  0  0  0
  155.2315  141.4493  159.8159 H   0  0  0  0  0  0  0  0  0  0  0  0
  150.4425  143.3481  159.9575 H   0  0  0  0  0  0  0  0  0  0  0  0
  151.1377  145.5251  160.8824 H   0  0  0  0  0  0  0  0  0  0  0  0
  152.8156  145.2169  160.4455 H   0  0  0  0  0  0  0  0  0  0  0  0
  152.0253  144.2386  161.6781 H   0  0  0  0  0  0  0  0  0  0  0  0
  150.6237  145.2996  158.3683 H   0  0  0  0  0  0  0  0  0  0  0  0
  153.0634  145.5927  158.1904 H   0  0  0  0  0  0  0  0  0  0  0  0
  152.3891  145.2485  156.6104 H   0  0  0  0  0  0  0  0  0  0  0  0
  153.2365  143.9830  157.4956 H   0  0  0  0  0  0  0  0  0  0  0  0
  149.8770  142.9185  157.8701 H   0  0  0  0  0  0  0  0  0  0  0  0
  151.8645  143.0711  155.7594 H   0  0  0  0  0  0  0  0  0  0  0  0
  152.2208  142.2120  157.2483 H   0  0  0  0  0  0  0  0  0  0  0  0
  150.1504  140.8209  156.9151 H   0  0  0  0  0  0  0  0  0  0  0  0
  148.8124  142.4057  155.5257 H   0  0  0  0  0  0  0  0  0  0  0  0
  149.9986  142.3118  154.2432 H   0  0  0  0  0  0  0  0  0  0  0  0
  148.2549  140.0234  155.2691 H   0  0  0  0  0  0  0  0  0  0  0  0
  148.1314  140.8003  153.7051 H   0  0  0  0  0  0  0  0  0  0  0  0
  149.3928  138.6091  153.6068 H   0  0  0  0  0  0  0  0  0  0  0  0
  150.3501  139.9623  153.0465 H   0  0  0  0  0  0  0  0  0  0  0  0
  150.5158  138.6922  155.8368 H   0  0  0  0  0  0  0  0  0  0  0  0
  151.7220  138.5912  154.5692 H   0  0  0  0  0  0  0  0  0  0  0  0
  151.0051  140.9431  159.1985 H   0  0  0  0  0  0  0  0  0  0  0  0
  150.0041  144.0176  156.6614 H   0  0  0  0  0  0  0  0  0  0  0  0
  1  2  1  0  0  0  0
  1 19  1  0  0  0  0
  1 20  1  0  0  0  0
  1 21  1  0  0  0  0
  2 18  2  0  0  0  0
  2  3  1  0  0  0  0
  3  4  2  0  0  0  0
  3 22  1  0  0  0  0
  4  5  1  0  0  0  0
  5  6  1  0  0  0  0
  5 18  1  0  0  0  0
  6  7  1  0  0  0  0
  6  8  1  0  0  0  0
  6 23  1  0  0  0  0
  7 24  1  0  0  0  0
  7 25  1  0  0  0  0
  7 26  1  0  0  0  0
  8  9  1  0  0  0  0
  8 10  1  0  0  0  0
  8 27  1  0  0  0  0
  9 28  1  0  0  0  0
  9 29  1  0  0  0  0
  9 30  1  0  0  0  0
 10 11  1  0  0  0  0
 10 31  1  0  0  0  0
 10 44  1  0  0  0  0
 11 12  1  0  0  0  0
 11 32  1  0  0  0  0
 11 33  1  0  0  0  0
 12 17  1  0  0  0  0
 12 13  1  0  0  0  0
 12 34  1  0  0  0  0
 13 14  1  0  0  0  0
 13 35  1  0  0  0  0
 13 36  1  0  0  0  0
 14 15  1  0  0  0  0
 14 37  1  0  0  0  0
 14 38  1  0  0  0  0
 15 16  1  0  0  0  0
 15 39  1  0  0  0  0
 15 40  1  0  0  0  0
 16 17  1  0  0  0  0
 16 41  1  0  0  0  0
 16 42  1  0  0  0  0
 18 43  1  0  0  0  0
M  CHG  1  10   1
M  END
> <s_m_source_file>
AV-unprocessed.smi

> <i_m_source_file_index>
3249

> <i_lp_mmshare_version>
43012

> <i_f3d_flags>
0

> <s_epik_input>
W0NIM11jMVtjSF1ubihbY0hdMSlbQ0BIXShbQ0gzXSlbQ0BIXShbQ0gzXSlbTkhdW0NIMl1bQ0BASF0yW0NIMl1bQ0gyXVtDSDJdW0NIMl1PMg==

> <s_epik_cmdline>
J2VwaWtfcHl0aG9uJywgJy1waCcsICc3LjAnLCAnLXRuJywgJzgnLCAnLW1hJywgJzIwMCcsICctbWV0YWxfYmluZGluZycsICctaW1hZScsICc8aW5maWxlLm1hZT4nLCAnLW9tYWUnLCAnPG91dGZpbGUubWFlPic=

> <r_lp_tautomer_probability>
1

> <r_epik_Ionization_Penalty>
0.00659207

> <r_epik_Ionization_Penalty_Charging>
0.00656881

> <r_epik_Ionization_Penalty_Neutral>
2.32662e-05

> <r_epik_State_Penalty>
0.0048654

> <r_epik_Charging_Adjusted_Penalty>
0.0114342

> <i_epik_Tot_Q>
1

> <i_epik_Tot_abs_Q>
1

> <r_epik_Metal_State_Penalty>
-0

> <b_epik_Metal_Only>
0

> <s_lp_Force_Field>
OPLS_2005

> <r_lp_Energy>
18.7987

> <b_lp_Chiralities_Consistent>
1

> <s_lp_Variant>
AV-unprocessed.smi:3249-8

> <Gold.Version>
5.8.1

> <Gold.Id.Protein>
6NUR|6NUR_protein|mol2

> <Gold.PLP.Fitness>
46.3347

> <Gold.PLP.PLP>
-41.4304

> <Gold.PLP.part.hbond>
-2.0000

> <Gold.PLP.part.metal>
0.0000

> <Gold.PLP.part.buried>
-4.0250

> <Gold.PLP.part.nonpolar>
-35.5297

> <Gold.PLP.part.repulsive>
0.0110

> <Gold.PLP.ligand.clash>
0.0009

> <Gold.PLP.ligand.torsion>
1.1589

> <Gold.PLP.Chemscore.Hbond>
2.3779

> <Gold.PLP.Chemscore.CHOScore>
0.0000

> <Gold.PLP.Chemscore.Metal>
0.0000

> <Gold.Chemscore.Hbonds>
donor molecule, donor type, donor heavy atom, donor atom, acceptor molecule, acceptor atom, score
      L1  H    10    44       P1  8028  2.00
      P1  H  7989  7998       L1    17  0.21

> <Gold.PLP.Chemscore.Internal.Correction>
0.0893

> <Gold.Rescore>
     Score         DG    S(hbond)    S(metal)    S(lipo)     H(rot)  DE(clash)    DE(int)     intcor
     17.67     -19.10       0.98        0.00     121.93       1.53       0.16       1.26       ----

> <Gold.Chemscore.Fitness>
17.6730

> <Gold.Chemscore.DG>
-19.0951

> <Gold.Chemscore.ZeroCoef>
-5.4800

> <Gold.Chemscore.Hbond>
0.9803

> <Gold.Chemscore.Metal>
0.0000

> <Gold.Chemscore.Lipo>
121.9313

> <Gold.Chemscore.Internal_Hbond>
0.0000

> <Gold.Chemscore.DEClash>
0.1606

> <Gold.Chemscore.DEInternal>
1.2615

> <Gold.Chemscore.Rot>
1.5333

> <Gold.Chemscore.Internal.Correction>
   9.000000E+99

> <Gold.Chemscore.Hbonds>
donor molecule, donor type, donor heavy atom, donor atom, acceptor molecule, acceptor atom, score
      L1  H    10    44       P1  8028  0.99

> <Gold.Chemscore.Hbond.Weighted>
-3.2744

> <Gold.Chemscore.Metal.Weighted>
-0.0000

> <Gold.Chemscore.Lipo.Weighted>
-14.2660

> <Gold.Chemscore.Internal_Hbond.Weighted>
0.0000

> <Gold.Chemscore.DEClash.Weighted>
0.1606

> <Gold.Chemscore.DEInternal.Weighted>
1.2615

> <Gold.Chemscore.Rot.Weighted>
3.9252

> <Gold.Chemscore.Internal.Correction.Weighted>
   9.000000E+99

> <Gold.Protein.RotatedTorsions>
[ 6907 6896 6895 6894 ] final  -25.76 input  -60.11 | X-H torsion
[ 7974 7965 7964 7962 ] final   65.90 input  175.53 | X-H torsion
[ 8008 7997 7996 7995 ] final   66.07 input   59.86 | X-H torsion
[ 10167 10162 10161 10158 ] final  -71.71 input  -65.29 | X-H torsion
[ 10718 10713 10712 10709 ] final -124.94 input   66.30 | X-H torsion
[ 10763 10752 10751 10750 ] final   52.21 input  -60.55 | X-H torsion
[ 11005 11000 10999 10996 ] final -120.25 input  -57.11 | X-H torsion

> <Gold.Protein.ActiveResidues>
 VAL166  LYS551  ARG553  GLY616  TRP617  ASP618  TYR619  PRO620  LYS621  CYS622 
 ASP623  PHE694  ASN695  SER759  ASP760  ASP761  ALA762  ILE779  LEU786  VAL792 
 PHE793  MET794  SER795  GLU796  ALA797  LYS798  CYS799  TRP800  GLU811  SER814 

> <Gold.Protein.RotatedAtoms>
  151.1706  135.0316  159.8749 H   0  0  0  0  0  0  0  0  0  0  0  0  # atno 6907 bound_to 6896
  152.5449  134.1175  159.8395 H   0  0  0  0  0  0  0  0  0  0  0  0  # atno 6908 bound_to 6896
  151.1281  133.5010  159.2632 H   0  0  0  0  0  0  0  0  0  0  0  0  # atno 6909 bound_to 6896
  145.8330  139.3150  143.0976 H   0  0  0  0  0  0  0  0  0  0  0  0  # atno 7974 bound_to 7965
  155.6716  140.3497  155.4820 H   0  0  0  0  0  0  0  0  0  0  0  0  # atno 8008 bound_to 7997
  155.9683  140.1151  157.0857 H   0  0  0  0  0  0  0  0  0  0  0  0  # atno 8009 bound_to 7997
  154.4160  140.1162  156.5258 H   0  0  0  0  0  0  0  0  0  0  0  0  # atno 8010 bound_to 7997
  140.5251  143.2327  151.7362 H   0  0  0  0  0  0  0  0  0  0  0  0  # atno 10167 bound_to 10162
  156.1632  130.6616  151.0078 H   0  0  0  0  0  0  0  0  0  0  0  0  # atno 10718 bound_to 10713
  152.9788  135.5820  154.4542 H   0  0  0  0  0  0  0  0  0  0  0  0  # atno 10763 bound_to 10752
  154.4126  135.2770  155.2029 H   0  0  0  0  0  0  0  0  0  0  0  0  # atno 10764 bound_to 10752
  154.3812  135.6146  153.5846 H   0  0  0  0  0  0  0  0  0  0  0  0  # atno 10765 bound_to 10752
  141.0157  134.0199  157.3353 H   0  0  0  0  0  0  0  0  0  0  0  0  # atno 11005 bound_to 11000
  145.9550  140.8880  143.0240 LP  0  0  0  0  0  0  0  0  0  0  0  0  # atno 17320 bound_to 7965
  144.6738  140.1733  143.7412 LP  0  0  0  0  0  0  0  0  0  0  0  0  # atno 17321 bound_to 7965
  139.4935  144.4198  151.9990 LP  0  0  0  0  0  0  0  0  0  0  0  0  # atno 17342 bound_to 10162
  140.3297  144.3331  150.5990 LP  0  0  0  0  0  0  0  0  0  0  0  0  # atno 17343 bound_to 10162
  157.6748  131.0853  150.7522 LP  0  0  0  0  0  0  0  0  0  0  0  0  # atno 17370 bound_to 10713
  156.7584  130.4791  149.5442 LP  0  0  0  0  0  0  0  0  0  0  0  0  # atno 17371 bound_to 10713
  139.9116  135.0191  156.7713 LP  0  0  0  0  0  0  0  0  0  0  0  0  # atno 17394 bound_to 11000
  140.6658  133.9603  155.7829 LP  0  0  0  0  0  0  0  0  0  0  0  0  # atno 17395 bound_to 11000

$$$$
