AV-unprocessed.smi:1244|AV-procd|sdf|5227|dock9
  -GOLD-   22720 4323D 1   1.00000     0.00000
 Structure written by MMmdl.
 55 57  0  0  0  0  0  0  0  0  2 V2000
  141.9285  142.7790  156.4580 C   0  0  0  0  0  0  0  0  0  0  0  0
  143.0000  141.8443  155.8855 C   0  0  1  0  0  0  0  0  0  0  0  0
  144.1728  142.6238  155.2646 C   0  0  0  0  0  0  0  0  0  0  0  0
  145.2290  141.6942  154.8015 N   0  3  1  0  0  0  0  0  0  0  0  0
  146.3335  142.3988  154.1043 C   0  0  0  0  0  0  0  0  0  0  0  0
  147.6350  141.5747  154.0782 C   0  0  0  0  0  0  0  0  0  0  0  0
  148.4942  141.8997  155.2105 N   0  0  0  0  0  0  0  0  0  0  0  0
  149.4530  141.0990  155.6966 C   0  0  0  0  0  0  0  0  0  0  0  0
  149.7158  139.9922  155.2255 O   0  0  0  0  0  0  0  0  0  0  0  0
  150.0899  141.6712  156.7315 N   0  0  0  0  0  0  0  0  0  0  0  0
  151.1831  141.1491  157.4782 C   0  0  0  0  0  0  0  0  0  0  0  0
  151.5905  139.7996  157.3417 C   0  0  0  0  0  0  0  0  0  0  0  0
  152.6280  139.3068  158.1514 C   0  0  0  0  0  0  0  0  0  0  0  0
  153.2132  140.1784  159.0847 C   0  0  0  0  0  0  0  0  0  0  0  0
  152.8283  141.4613  159.2362 N   0  0  0  0  0  0  0  0  0  0  0  0
  151.8390  141.9561  158.4518 C   0  0  0  0  0  0  0  0  0  0  0  0
  151.4915  143.3136  158.6410 N   0  0  0  0  0  0  0  0  0  0  0  0
  150.1634  143.6768  159.1248 C   0  0  0  0  0  0  0  0  0  0  0  0
  150.2901  145.1287  159.5769 C   0  0  0  0  0  0  0  0  0  0  0  0
  151.7064  145.1718  160.1419 C   0  0  0  0  0  0  0  0  0  0  0  0
  152.4825  144.1947  159.2526 C   0  0  0  0  0  0  0  0  0  0  0  0
  145.6848  140.8337  155.9213 C   0  0  0  0  0  0  0  0  0  0  0  0
  144.4995  140.0978  156.5772 C   0  0  2  0  0  0  0  0  0  0  0  0
  143.9465  138.9411  155.7255 C   0  0  0  0  0  0  0  0  0  0  0  0
  143.4839  141.0291  156.9496 O   0  0  0  0  0  0  0  0  0  0  0  0
  141.5111  143.4210  155.6819 H   0  0  0  0  0  0  0  0  0  0  0  0
  142.3398  143.4206  157.2380 H   0  0  0  0  0  0  0  0  0  0  0  0
  141.1072  142.2100  156.8944 H   0  0  0  0  0  0  0  0  0  0  0  0
  142.5309  141.2195  155.1251 H   0  0  0  0  0  0  0  0  0  0  0  0
  143.8096  143.2172  154.4246 H   0  0  0  0  0  0  0  0  0  0  0  0
  144.5942  143.3210  155.9909 H   0  0  0  0  0  0  0  0  0  0  0  0
  146.0281  142.5937  153.0752 H   0  0  0  0  0  0  0  0  0  0  0  0
  146.5013  143.3736  154.5649 H   0  0  0  0  0  0  0  0  0  0  0  0
  147.4211  140.5080  154.1318 H   0  0  0  0  0  0  0  0  0  0  0  0
  148.1731  141.7380  153.1427 H   0  0  0  0  0  0  0  0  0  0  0  0
  148.3468  142.7935  155.6569 H   0  0  0  0  0  0  0  0  0  0  0  0
  149.8374  142.6255  156.9438 H   0  0  0  0  0  0  0  0  0  0  0  0
  151.1082  139.1294  156.6465 H   0  0  0  0  0  0  0  0  0  0  0  0
  152.9573  138.2817  158.0679 H   0  0  0  0  0  0  0  0  0  0  0  0
  154.0072  139.8356  159.7313 H   0  0  0  0  0  0  0  0  0  0  0  0
  149.4107  143.5591  158.3447 H   0  0  0  0  0  0  0  0  0  0  0  0
  149.8765  143.0572  159.9756 H   0  0  0  0  0  0  0  0  0  0  0  0
  150.2108  145.7968  158.7181 H   0  0  0  0  0  0  0  0  0  0  0  0
  149.5301  145.4155  160.3038 H   0  0  0  0  0  0  0  0  0  0  0  0
  152.1343  146.1746  160.1440 H   0  0  0  0  0  0  0  0  0  0  0  0
  151.7007  144.8067  161.1700 H   0  0  0  0  0  0  0  0  0  0  0  0
  153.2280  143.6414  159.8256 H   0  0  0  0  0  0  0  0  0  0  0  0
  152.9995  144.7422  158.4641 H   0  0  0  0  0  0  0  0  0  0  0  0
  146.4187  140.1051  155.5787 H   0  0  0  0  0  0  0  0  0  0  0  0
  146.1843  141.4556  156.6659 H   0  0  0  0  0  0  0  0  0  0  0  0
  144.8584  139.6575  157.5081 H   0  0  0  0  0  0  0  0  0  0  0  0
  144.7079  138.1760  155.5727 H   0  0  0  0  0  0  0  0  0  0  0  0
  143.6179  139.2711  154.7403 H   0  0  0  0  0  0  0  0  0  0  0  0
  143.0987  138.4661  156.2198 H   0  0  0  0  0  0  0  0  0  0  0  0
  144.7946  141.0905  154.1178 H   0  0  0  0  0  0  0  0  0  0  0  0
  1  2  1  0  0  0  0
  1 26  1  0  0  0  0
  1 27  1  0  0  0  0
  1 28  1  0  0  0  0
  2 25  1  0  0  0  0
  2  3  1  0  0  0  0
  2 29  1  0  0  0  0
  3  4  1  0  0  0  0
  3 30  1  0  0  0  0
  3 31  1  0  0  0  0
  4  5  1  0  0  0  0
  4 22  1  0  0  0  0
  4 55  1  0  0  0  0
  5  6  1  0  0  0  0
  5 32  1  0  0  0  0
  5 33  1  0  0  0  0
  6  7  1  0  0  0  0
  6 34  1  0  0  0  0
  6 35  1  0  0  0  0
  7  8  1  0  0  0  0
  7 36  1  0  0  0  0
  8  9  2  0  0  0  0
  8 10  1  0  0  0  0
 10 11  1  0  0  0  0
 10 37  1  0  0  0  0
 11 16  1  0  0  0  0
 11 12  2  0  0  0  0
 12 13  1  0  0  0  0
 12 38  1  0  0  0  0
 13 14  2  0  0  0  0
 13 39  1  0  0  0  0
 14 15  1  0  0  0  0
 14 40  1  0  0  0  0
 15 16  2  0  0  0  0
 16 17  1  0  0  0  0
 17 21  1  0  0  0  0
 17 18  1  0  0  0  0
 18 19  1  0  0  0  0
 18 41  1  0  0  0  0
 18 42  1  0  0  0  0
 19 20  1  0  0  0  0
 19 43  1  0  0  0  0
 19 44  1  0  0  0  0
 20 21  1  0  0  0  0
 20 45  1  0  0  0  0
 20 46  1  0  0  0  0
 21 47  1  0  0  0  0
 21 48  1  0  0  0  0
 22 23  1  0  0  0  0
 22 49  1  0  0  0  0
 22 50  1  0  0  0  0
 23 24  1  0  0  0  0
 23 25  1  0  0  0  0
 23 51  1  0  0  0  0
 24 52  1  0  0  0  0
 24 53  1  0  0  0  0
 24 54  1  0  0  0  0
M  CHG  1   4   1
M  END
> <s_m_source_file>
AV-unprocessed.smi

> <i_m_source_file_index>
1244

> <i_lp_mmshare_version>
43012

> <i_f3d_flags>
0

> <s_epik_input>
W0NIM11bQ0BASF0xW0NIMl1OKFtDSDJdW0NASF0oTzEpW0NIM10pW0NIMl1bQ0gyXVtOSF1DKD1PKVtOSF1jMltjSF1bY0hdW2NIXW5jMk4zW0NIMl1bQ0gyXVtDSDJdW0NIMl0z

> <s_epik_cmdline>
J2VwaWtfcHl0aG9uJywgJy1waCcsICc3LjAnLCAnLXRuJywgJzgnLCAnLW1hJywgJzIwMCcsICctbWV0YWxfYmluZGluZycsICctaW1hZScsICc8aW5maWxlLm1hZT4nLCAnLW9tYWUnLCAnPG91dGZpbGUubWFlPic=

> <r_lp_tautomer_probability>
1

> <r_epik_Ionization_Penalty>
0.684913

> <r_epik_Ionization_Penalty_Charging>
0.602531

> <r_epik_Ionization_Penalty_Neutral>
0.0823829

> <r_epik_State_Penalty>
0.678827

> <r_epik_Charging_Adjusted_Penalty>
1.28136

> <i_epik_Tot_Q>
1

> <i_epik_Tot_abs_Q>
1

> <r_epik_Metal_State_Penalty>
0.67806

> <b_epik_Metal_Only>
0

> <s_lp_Force_Field>
OPLS_2005

> <r_lp_Energy>
45.4089

> <b_lp_Chiralities_Consistent>
1

> <s_lp_Variant>
AV-unprocessed.smi:1244-7

> <Gold.Version>
5.8.1

> <Gold.Id.Protein>
6NUR|6NUR_protein|mol2

> <Gold.PLP.Fitness>
46.3490

> <Gold.PLP.PLP>
-39.0454

> <Gold.PLP.part.hbond>
-2.0000

> <Gold.PLP.part.metal>
0.0000

> <Gold.PLP.part.buried>
-8.5713

> <Gold.PLP.part.nonpolar>
-29.5992

> <Gold.PLP.part.repulsive>
0.3891

> <Gold.PLP.ligand.clash>
0.0000

> <Gold.PLP.ligand.torsion>
0.9866

> <Gold.PLP.Chemscore.Hbond>
2.9825

> <Gold.PLP.Chemscore.CHOScore>
0.0000

> <Gold.PLP.Chemscore.Metal>
0.0000

> <Gold.Chemscore.Hbonds>
donor molecule, donor type, donor heavy atom, donor atom, acceptor molecule, acceptor atom, score
      L1  H     4    55       P1 10175  1.85
      L1  H     7    36       P1  8028  0.90

> <Gold.PLP.Chemscore.Internal.Correction>
0.3294

> <Gold.Rescore>
     Score         DG    S(hbond)    S(metal)    S(lipo)     H(rot)  DE(clash)    DE(int)     intcor
     15.65     -18.06       1.76        0.00      92.28       1.60       0.04       2.38       ----

> <Gold.Chemscore.Fitness>
15.6459

> <Gold.Chemscore.DG>
-18.0649

> <Gold.Chemscore.ZeroCoef>
-5.4800

> <Gold.Chemscore.Hbond>
1.7600

> <Gold.Chemscore.Metal>
0.0000

> <Gold.Chemscore.Lipo>
92.2810

> <Gold.Chemscore.Internal_Hbond>
0.0000

> <Gold.Chemscore.DEClash>
0.0352

> <Gold.Chemscore.DEInternal>
2.3838

> <Gold.Chemscore.Rot>
1.5978

> <Gold.Chemscore.Internal.Correction>
   9.000000E+99

> <Gold.Chemscore.Hbonds>
donor molecule, donor type, donor heavy atom, donor atom, acceptor molecule, acceptor atom, score
      L1  H     4    55       P1 10175  0.72
      L1  H     7    36       P1  8028  0.84

> <Gold.Chemscore.Hbond.Weighted>
-5.8785

> <Gold.Chemscore.Metal.Weighted>
-0.0000

> <Gold.Chemscore.Lipo.Weighted>
-10.7969

> <Gold.Chemscore.Internal_Hbond.Weighted>
0.0000

> <Gold.Chemscore.DEClash.Weighted>
0.0352

> <Gold.Chemscore.DEInternal.Weighted>
2.3838

> <Gold.Chemscore.Rot.Weighted>
4.0905

> <Gold.Chemscore.Internal.Correction.Weighted>
   9.000000E+99

> <Gold.Protein.RotatedTorsions>
[ 6907 6896 6895 6894 ] final  107.79 input  -60.11 | X-H torsion
[ 7974 7965 7964 7962 ] final -155.65 input  175.53 | X-H torsion
[ 8008 7997 7996 7995 ] final  -76.06 input   59.86 | X-H torsion
[ 10167 10162 10161 10158 ] final  -36.85 input  -65.29 | X-H torsion
[ 10718 10713 10712 10709 ] final  148.01 input   66.30 | X-H torsion
[ 10763 10752 10751 10750 ] final  -11.89 input  -60.55 | X-H torsion
[ 11005 11000 10999 10996 ] final   -4.07 input  -57.11 | X-H torsion

> <Gold.Protein.ActiveResidues>
 VAL166  LYS551  ARG553  GLY616  TRP617  ASP618  TYR619  PRO620  LYS621  CYS622 
 ASP623  PHE694  ASN695  SER759  ASP760  ASP761  ALA762  ILE779  LEU786  VAL792 
 PHE793  MET794  SER795  GLU796  ALA797  LYS798  CYS799  TRP800  GLU811  SER814 

> <Gold.Protein.RotatedAtoms>
  152.5140  133.9183  159.7521 H   0  0  0  0  0  0  0  0  0  0  0  0  # atno 6907 bound_to 6896
  150.9561  133.6488  159.2770 H   0  0  0  0  0  0  0  0  0  0  0  0  # atno 6908 bound_to 6896
  151.3749  135.0934  159.9530 H   0  0  0  0  0  0  0  0  0  0  0  0  # atno 6909 bound_to 6896
  144.7630  140.4219  143.5963 H   0  0  0  0  0  0  0  0  0  0  0  0  # atno 7974 bound_to 7965
  154.5471  140.0733  156.8607 H   0  0  0  0  0  0  0  0  0  0  0  0  # atno 8008 bound_to 7997
  155.3065  140.3387  155.4227 H   0  0  0  0  0  0  0  0  0  0  0  0  # atno 8009 bound_to 7997
  156.1928  140.1692  156.8044 H   0  0  0  0  0  0  0  0  0  0  0  0  # atno 8010 bound_to 7997
  140.7133  143.3381  151.2417 H   0  0  0  0  0  0  0  0  0  0  0  0  # atno 10167 bound_to 10162
  157.3139  131.0892  151.1294 H   0  0  0  0  0  0  0  0  0  0  0  0  # atno 10718 bound_to 10713
  153.4903  135.7017  153.5888 H   0  0  0  0  0  0  0  0  0  0  0  0  # atno 10763 bound_to 10752
  153.4063  135.3859  155.2021 H   0  0  0  0  0  0  0  0  0  0  0  0  # atno 10764 bound_to 10752
  154.8717  135.3893  154.4363 H   0  0  0  0  0  0  0  0  0  0  0  0  # atno 10765 bound_to 10752
  140.6762  133.9193  155.8526 H   0  0  0  0  0  0  0  0  0  0  0  0  # atno 11005 bound_to 11000
  145.6559  139.1573  143.2835 LP  0  0  0  0  0  0  0  0  0  0  0  0  # atno 17320 bound_to 7965
  146.1711  140.6644  142.9233 LP  0  0  0  0  0  0  0  0  0  0  0  0  # atno 17321 bound_to 7965
  139.6882  143.9738  152.2845 LP  0  0  0  0  0  0  0  0  0  0  0  0  # atno 17342 bound_to 10162
  139.9390  144.6693  150.8285 LP  0  0  0  0  0  0  0  0  0  0  0  0  # atno 17343 bound_to 10162
  157.2605  130.6657  149.5972 LP  0  0  0  0  0  0  0  0  0  0  0  0  # atno 17370 bound_to 10713
  155.9680  130.4510  150.5719 LP  0  0  0  0  0  0  0  0  0  0  0  0  # atno 17371 bound_to 10713
  141.0353  134.0698  157.3966 LP  0  0  0  0  0  0  0  0  0  0  0  0  # atno 17394 bound_to 11000
  139.8966  135.0146  156.7058 LP  0  0  0  0  0  0  0  0  0  0  0  0  # atno 17395 bound_to 11000

$$$$
