AV-unprocessed.smi:662|AV-procd|sdf|3246|dock2
  -GOLD-   22720 0193D 1   1.00000     0.00000
 Structure written by MMmdl.
 33 34  0  0  0  0  0  0  0  0  1 V2000
  151.3755  139.4486  153.9619 O   0  0  0  0  0  0  0  0  0  0  0  0
  150.5462  139.5195  154.8697 C   0  0  0  0  0  0  0  0  0  0  0  0
  150.8746  139.7120  156.1572 N   0  0  0  0  0  0  0  0  0  0  0  0
  152.2308  139.8816  156.6723 C   0  0  0  0  0  0  0  0  0  0  0  0
  152.3053  139.7273  158.2038 C   0  0  0  0  0  0  0  0  0  0  0  0
  152.5450  141.0084  158.9363 C   0  0  0  0  0  0  0  0  0  0  0  0
  151.7623  142.0826  158.8092 N   0  0  0  0  0  0  0  0  0  0  0  0
  152.1573  143.1421  159.6333 C   0  0  0  0  0  0  0  0  0  0  0  0
  151.3803  144.4269  159.6201 C   0  0  0  0  0  0  0  0  0  0  0  0
  151.3870  144.9920  158.4126 F   0  0  0  0  0  0  0  0  0  0  0  0
  150.1081  144.2232  159.9604 F   0  0  0  0  0  0  0  0  0  0  0  0
  151.8946  145.3078  160.4778 F   0  0  0  0  0  0  0  0  0  0  0  0
  153.2651  142.8485  160.3911 C   0  0  0  0  0  0  0  0  0  0  0  0
  153.8462  141.2326  160.1005 S   0  0  0  0  0  0  0  0  0  0  0  0
  149.0501  139.3964  154.5610 C   0  0  1  0  0  0  0  0  0  0  0  0
  148.2650  140.6761  154.8957 C   0  0  0  0  0  0  0  0  0  0  0  0
  147.4669  140.9641  153.6300 C   0  0  0  0  0  0  0  0  0  0  0  0
  147.4815  139.6364  152.8760 C   0  0  0  0  0  0  0  0  0  0  0  0
  148.8109  139.1127  153.1404 N   0  0  0  0  0  0  0  0  0  0  0  0
  150.1247  139.7551  156.8320 H   0  0  0  0  0  0  0  0  0  0  0  0
  152.8634  139.1286  156.2022 H   0  0  0  0  0  0  0  0  0  0  0  0
  152.6398  140.8483  156.3731 H   0  0  0  0  0  0  0  0  0  0  0  0
  151.3789  139.2875  158.5746 H   0  0  0  0  0  0  0  0  0  0  0  0
  153.1000  139.0269  158.4628 H   0  0  0  0  0  0  0  0  0  0  0  0
  153.7704  143.4832  161.1035 H   0  0  0  0  0  0  0  0  0  0  0  0
  148.6267  138.5727  155.1391 H   0  0  0  0  0  0  0  0  0  0  0  0
  147.5973  140.4945  155.7385 H   0  0  0  0  0  0  0  0  0  0  0  0
  148.8984  141.5252  155.1585 H   0  0  0  0  0  0  0  0  0  0  0  0
  146.4566  141.3159  153.8401 H   0  0  0  0  0  0  0  0  0  0  0  0
  147.9718  141.7303  153.0399 H   0  0  0  0  0  0  0  0  0  0  0  0
  146.7330  138.9533  153.2807 H   0  0  0  0  0  0  0  0  0  0  0  0
  147.2996  139.7541  151.8076 H   0  0  0  0  0  0  0  0  0  0  0  0
  148.8776  138.1298  152.9180 H   0  0  0  0  0  0  0  0  0  0  0  0
  1  2  2  0  0  0  0
  2  3  1  0  0  0  0
  2 15  1  0  0  0  0
  3  4  1  0  0  0  0
  3 20  1  0  0  0  0
  4  5  1  0  0  0  0
  4 21  1  0  0  0  0
  4 22  1  0  0  0  0
  5  6  1  0  0  0  0
  5 23  1  0  0  0  0
  5 24  1  0  0  0  0
  6 14  1  0  0  0  0
  6  7  2  0  0  0  0
  7  8  1  0  0  0  0
  8  9  1  0  0  0  0
  8 13  2  0  0  0  0
  9 10  1  0  0  0  0
  9 11  1  0  0  0  0
  9 12  1  0  0  0  0
 13 14  1  0  0  0  0
 13 25  1  0  0  0  0
 15 19  1  0  0  0  0
 15 16  1  0  0  0  0
 15 26  1  0  0  0  0
 16 17  1  0  0  0  0
 16 27  1  0  0  0  0
 16 28  1  0  0  0  0
 17 18  1  0  0  0  0
 17 29  1  0  0  0  0
 17 30  1  0  0  0  0
 18 19  1  0  0  0  0
 18 31  1  0  0  0  0
 18 32  1  0  0  0  0
 19 33  1  0  0  0  0
M  END
> <s_m_source_file>
AV-unprocessed.smi

> <i_m_source_file_index>
662

> <i_lp_mmshare_version>
43012

> <i_f3d_flags>
0

> <s_epik_input>
W05IXTFbQ0gyXVtDSDJdW0NIMl1bQ0BIXTFDKD1PKVtOSF1bQ0gyXVtDSDJdYzJuYyhDKEYpKEYpRilbY0hdczI=

> <s_epik_cmdline>
J2VwaWtfcHl0aG9uJywgJy1waCcsICc3LjAnLCAnLXRuJywgJzgnLCAnLW1hJywgJzIwMCcsICctbWV0YWxfYmluZGluZycsICctaW1hZScsICc8aW5maWxlLm1hZT4nLCAnLW9tYWUnLCAnPG91dGZpbGUubWFlPic=

> <r_epik_Ionization_Penalty>
1.64272

> <r_epik_Ionization_Penalty_Charging>
0

> <r_epik_Ionization_Penalty_Neutral>
1.64272

> <r_epik_State_Penalty>
1.74416

> <r_epik_Charging_Adjusted_Penalty>
1.74416

> <i_epik_Tot_Q>
0

> <i_epik_Tot_abs_Q>
0

> <r_epik_Metal_State_Penalty>
1.74416

> <b_epik_Metal_Only>
0

> <s_lp_Force_Field>
OPLS_2005

> <r_lp_Energy>
17.8155

> <b_lp_Chiralities_Consistent>
1

> <s_lp_Variant>
AV-unprocessed.smi:662-4

> <Gold.Version>
5.8.1

> <Gold.Id.Protein>
6NUR|6NUR_protein|mol2

> <Gold.PLP.Fitness>
46.4985

> <Gold.PLP.PLP>
-41.4443

> <Gold.PLP.part.hbond>
-2.8720

> <Gold.PLP.part.metal>
0.0000

> <Gold.PLP.part.buried>
-1.6408

> <Gold.PLP.part.nonpolar>
-36.7145

> <Gold.PLP.part.repulsive>
0.2296

> <Gold.PLP.ligand.clash>
0.0000

> <Gold.PLP.ligand.torsion>
0.4838

> <Gold.PLP.Chemscore.Hbond>
2.0000

> <Gold.PLP.Chemscore.CHOScore>
0.0000

> <Gold.PLP.Chemscore.Metal>
0.0000

> <Gold.Chemscore.Hbonds>
donor molecule, donor type, donor heavy atom, donor atom, acceptor molecule, acceptor atom, score
      L1  H    19    33       P1  7948  0.71
      P1  H  7989  7998       L1     1  0.93

> <Gold.PLP.Chemscore.Internal.Correction>
0.0217

> <Gold.Rescore>
     Score         DG    S(hbond)    S(metal)    S(lipo)     H(rot)  DE(clash)    DE(int)     intcor
     14.69     -15.53       1.48        0.00      85.34       1.91       0.26       0.58       ----

> <Gold.Chemscore.Fitness>
14.6908

> <Gold.Chemscore.DG>
-15.5286

> <Gold.Chemscore.ZeroCoef>
-5.4800

> <Gold.Chemscore.Hbond>
1.4828

> <Gold.Chemscore.Metal>
0.0000

> <Gold.Chemscore.Lipo>
85.3361

> <Gold.Chemscore.Internal_Hbond>
0.0000

> <Gold.Chemscore.DEClash>
0.2569

> <Gold.Chemscore.DEInternal>
0.5809

> <Gold.Chemscore.Rot>
1.9095

> <Gold.Chemscore.Internal.Correction>
   9.000000E+99

> <Gold.Chemscore.Hbonds>
donor molecule, donor type, donor heavy atom, donor atom, acceptor molecule, acceptor atom, score
      L1  H    19    33       P1  7948  0.71
      P1  H  7989  7998       L1     1  0.56

> <Gold.Chemscore.Hbond.Weighted>
-4.9526

> <Gold.Chemscore.Metal.Weighted>
-0.0000

> <Gold.Chemscore.Lipo.Weighted>
-9.9843

> <Gold.Chemscore.Internal_Hbond.Weighted>
0.0000

> <Gold.Chemscore.DEClash.Weighted>
0.2569

> <Gold.Chemscore.DEInternal.Weighted>
0.5809

> <Gold.Chemscore.Rot.Weighted>
4.8883

> <Gold.Chemscore.Internal.Correction.Weighted>
   9.000000E+99

> <Gold.Protein.RotatedTorsions>
[ 6907 6896 6895 6894 ] final  -92.27 input  -60.11 | X-H torsion
[ 7974 7965 7964 7962 ] final  134.90 input  175.53 | X-H torsion
[ 8008 7997 7996 7995 ] final -135.84 input   59.86 | X-H torsion
[ 10167 10162 10161 10158 ] final   67.15 input  -65.29 | X-H torsion
[ 10718 10713 10712 10709 ] final  110.99 input   66.30 | X-H torsion
[ 10763 10752 10751 10750 ] final   -6.31 input  -60.55 | X-H torsion
[ 11005 11000 10999 10996 ] final -105.88 input  -57.11 | X-H torsion

> <Gold.Protein.ActiveResidues>
 VAL166  LYS551  ARG553  GLY616  TRP617  ASP618  TYR619  PRO620  LYS621  CYS622 
 ASP623  PHE694  ASN695  SER759  ASP760  ASP761  ALA762  ILE779  LEU786  VAL792 
 PHE793  MET794  SER795  GLU796  ALA797  LYS798  CYS799  TRP800  GLU811  SER814 

> <Gold.Protein.RotatedAtoms>
  150.6904  134.2149  159.4373 H   0  0  0  0  0  0  0  0  0  0  0  0  # atno 6907 bound_to 6896
  152.0108  134.9874  160.0577 H   0  0  0  0  0  0  0  0  0  0  0  0  # atno 6908 bound_to 6896
  152.1490  133.4475  159.4841 H   0  0  0  0  0  0  0  0  0  0  0  0  # atno 6909 bound_to 6896
  144.9717  139.4598  143.5429 H   0  0  0  0  0  0  0  0  0  0  0  0  # atno 7974 bound_to 7965
  155.3853  140.0496  157.3042 H   0  0  0  0  0  0  0  0  0  0  0  0  # atno 8008 bound_to 7997
  154.5062  140.2175  155.9207 H   0  0  0  0  0  0  0  0  0  0  0  0  # atno 8009 bound_to 7997
  156.1529  140.3132  155.8682 H   0  0  0  0  0  0  0  0  0  0  0  0  # atno 8010 bound_to 7997
  140.0927  144.4974  150.7088 H   0  0  0  0  0  0  0  0  0  0  0  0  # atno 10167 bound_to 10162
  157.6467  131.0943  150.6683 H   0  0  0  0  0  0  0  0  0  0  0  0  # atno 10718 bound_to 10713
  153.4106  135.7007  153.6362 H   0  0  0  0  0  0  0  0  0  0  0  0  # atno 10763 bound_to 10752
  153.4857  135.3683  155.2466 H   0  0  0  0  0  0  0  0  0  0  0  0  # atno 10764 bound_to 10752
  154.8716  135.4077  154.3457 H   0  0  0  0  0  0  0  0  0  0  0  0  # atno 10765 bound_to 10752
  141.1032  133.8846  157.1788 H   0  0  0  0  0  0  0  0  0  0  0  0  # atno 11005 bound_to 11000
  146.3384  139.8934  142.8805 LP  0  0  0  0  0  0  0  0  0  0  0  0  # atno 17320 bound_to 7965
  145.2549  141.0057  143.3860 LP  0  0  0  0  0  0  0  0  0  0  0  0  # atno 17321 bound_to 7965
  140.7020  143.2441  151.4836 LP  0  0  0  0  0  0  0  0  0  0  0  0  # atno 17342 bound_to 10162
  139.5716  144.1916  152.1844 LP  0  0  0  0  0  0  0  0  0  0  0  0  # atno 17343 bound_to 10162
  156.6999  130.4620  149.5576 LP  0  0  0  0  0  0  0  0  0  0  0  0  # atno 17370 bound_to 10713
  156.1802  130.6494  151.0943 LP  0  0  0  0  0  0  0  0  0  0  0  0  # atno 17371 bound_to 10713
  139.9891  135.0071  156.9933 LP  0  0  0  0  0  0  0  0  0  0  0  0  # atno 17394 bound_to 11000
  140.4970  134.1136  155.7243 LP  0  0  0  0  0  0  0  0  0  0  0  0  # atno 17395 bound_to 11000

$$$$
