AV-unprocessed.smi:21|AV-procd|sdf|162|dock1
  -GOLD-   2262015403D 1   1.00000     0.00000
 Structure written by MMmdl.
 61 64  0  0  0  0  0  0  0  0  1 V2000
  142.0633  134.4552  163.6326 C   0  0  0  0  0  0  0  0  0  0  0  0
  143.3174  135.0395  163.3186 O   0  0  0  0  0  0  0  0  0  0  0  0
  144.3240  134.0853  163.0125 C   0  0  2  0  0  0  0  0  0  0  0  0
  145.6624  134.7313  162.6082 C   0  0  0  0  0  0  0  0  0  0  0  0
  145.9036  134.2567  161.1666 C   0  0  1  0  0  0  0  0  0  0  0  0
  147.3989  134.1328  160.7979 C   0  0  0  0  0  0  0  0  0  0  0  0
  148.0484  135.4256  160.5800 N   0  0  0  0  0  0  0  0  0  0  0  0
  147.9421  136.4312  161.6363 C   0  0  0  0  0  0  0  0  0  0  0  0
  148.4354  135.8183  159.3296 C   0  0  0  0  0  0  0  0  0  0  0  0
  149.2094  134.9680  158.6004 N   0  0  0  0  0  0  0  0  0  0  0  0
  149.6318  135.2952  157.3773 C   0  0  0  0  0  0  0  0  0  0  0  0
  149.3995  136.4111  156.6883 N   0  0  0  0  0  0  0  0  0  0  0  0
  148.6157  137.2711  157.3971 C   0  0  0  0  0  0  0  0  0  0  0  0
  148.0947  137.0618  158.7088 C   0  0  0  0  0  0  0  0  0  0  0  0
  147.3427  138.1723  159.0813 N   0  0  0  0  0  0  0  0  0  0  0  0
  147.4240  138.9858  158.0660 C   0  0  0  0  0  0  0  0  0  0  0  0
  148.1540  138.5143  157.0011 N   0  0  0  0  0  0  0  0  0  0  0  0
  148.4079  139.2044  155.7489 C   0  0  0  0  0  0  0  0  0  0  0  0
  148.8550  140.6819  155.9037 C   0  0  2  0  0  0  0  0  0  0  0  0
  148.6326  141.4244  154.5656 C   0  0  0  0  0  0  0  0  0  0  0  0
  149.4369  140.8920  153.5325 O   0  0  0  0  0  0  0  0  0  0  0  0
  150.3005  140.8616  156.4549 C   0  0  1  0  0  0  0  0  0  0  0  0
  150.5184  140.3176  157.8586 C   0  0  0  0  0  0  0  0  0  0  0  0
  152.0334  140.2007  157.9263 C   0  0  0  0  0  0  0  0  0  0  0  0
  152.4033  139.7404  156.6366 O   0  0  0  0  0  0  0  0  0  0  0  0
  151.4075  140.1162  155.6894 C   0  0  0  0  0  0  0  0  0  0  0  0
  145.1505  133.0185  161.0514 N   0  0  0  0  0  0  0  0  0  0  0  0
  144.9062  132.6039  159.6762 C   0  0  0  0  0  0  0  0  0  0  0  0
  143.9197  133.2947  161.7653 C   0  0  0  0  0  0  0  0  0  0  0  0
  144.4727  133.3936  163.8438 H   0  0  0  0  0  0  0  0  0  0  0  0
  145.4391  134.9924  160.5080 H   0  0  0  0  0  0  0  0  0  0  0  0
  141.3409  135.2412  163.8528 H   0  0  0  0  0  0  0  0  0  0  0  0
  142.1269  133.8060  164.5063 H   0  0  0  0  0  0  0  0  0  0  0  0
  141.6794  133.8739  162.7935 H   0  0  0  0  0  0  0  0  0  0  0  0
  145.6427  135.8203  162.6613 H   0  0  0  0  0  0  0  0  0  0  0  0
  146.4517  134.3812  163.2746 H   0  0  0  0  0  0  0  0  0  0  0  0
  147.9163  133.6059  161.6002 H   0  0  0  0  0  0  0  0  0  0  0  0
  147.5450  133.5033  159.9226 H   0  0  0  0  0  0  0  0  0  0  0  0
  148.8883  136.9584  161.7640 H   0  0  0  0  0  0  0  0  0  0  0  0
  147.6899  135.9762  162.5942 H   0  0  0  0  0  0  0  0  0  0  0  0
  147.1666  137.1604  161.3990 H   0  0  0  0  0  0  0  0  0  0  0  0
  150.2432  134.5563  156.8805 H   0  0  0  0  0  0  0  0  0  0  0  0
  146.9377  139.9505  158.0615 H   0  0  0  0  0  0  0  0  0  0  0  0
  149.1573  138.6410  155.1917 H   0  0  0  0  0  0  0  0  0  0  0  0
  147.4897  139.1536  155.1626 H   0  0  0  0  0  0  0  0  0  0  0  0
  148.1787  141.1554  156.6163 H   0  0  0  0  0  0  0  0  0  0  0  0
  147.5874  141.3557  154.2622 H   0  0  0  0  0  0  0  0  0  0  0  0
  148.8469  142.4885  154.6653 H   0  0  0  0  0  0  0  0  0  0  0  0
  148.9139  140.2927  153.0222 H   0  0  0  0  0  0  0  0  0  0  0  0
  150.5483  141.9244  156.4686 H   0  0  0  0  0  0  0  0  0  0  0  0
  150.1182  140.9658  158.6387 H   0  0  0  0  0  0  0  0  0  0  0  0
  150.0645  139.3310  157.9638 H   0  0  0  0  0  0  0  0  0  0  0  0
  152.4864  141.1780  158.0991 H   0  0  0  0  0  0  0  0  0  0  0  0
  152.3717  139.5216  158.7090 H   0  0  0  0  0  0  0  0  0  0  0  0
  151.0283  139.2064  155.2230 H   0  0  0  0  0  0  0  0  0  0  0  0
  151.8529  140.7348  154.9112 H   0  0  0  0  0  0  0  0  0  0  0  0
  144.2943  131.7018  159.6519 H   0  0  0  0  0  0  0  0  0  0  0  0
  145.8406  132.3807  159.1622 H   0  0  0  0  0  0  0  0  0  0  0  0
  144.3862  133.3810  159.1145 H   0  0  0  0  0  0  0  0  0  0  0  0
  143.3816  132.3786  162.0109 H   0  0  0  0  0  0  0  0  0  0  0  0
  143.2632  133.9073  161.1446 H   0  0  0  0  0  0  0  0  0  0  0  0
  1  2  1  0  0  0  0
  1 32  1  0  0  0  0
  1 33  1  0  0  0  0
  1 34  1  0  0  0  0
  2  3  1  0  0  0  0
  3 30  1  0  0  0  0
  3 29  1  0  0  0  0
  3  4  1  0  0  0  0
  4  5  1  0  0  0  0
  4 35  1  0  0  0  0
  4 36  1  0  0  0  0
  5 31  1  0  0  0  0
  5  6  1  0  0  0  0
  5 27  1  0  0  0  0
  6  7  1  0  0  0  0
  6 37  1  0  0  0  0
  6 38  1  0  0  0  0
  7  8  1  0  0  0  0
  7  9  1  0  0  0  0
  8 39  1  0  0  0  0
  8 40  1  0  0  0  0
  8 41  1  0  0  0  0
  9 14  1  0  0  0  0
  9 10  2  0  0  0  0
 10 11  1  0  0  0  0
 11 12  2  0  0  0  0
 11 42  1  0  0  0  0
 12 13  1  0  0  0  0
 13 17  1  0  0  0  0
 13 14  2  0  0  0  0
 14 15  1  0  0  0  0
 15 16  2  0  0  0  0
 16 17  1  0  0  0  0
 16 43  1  0  0  0  0
 17 18  1  0  0  0  0
 18 19  1  0  0  0  0
 18 44  1  0  0  0  0
 18 45  1  0  0  0  0
 19 20  1  0  0  0  0
 19 22  1  0  0  0  0
 19 46  1  0  0  0  0
 20 21  1  0  0  0  0
 20 47  1  0  0  0  0
 20 48  1  0  0  0  0
 21 49  1  0  0  0  0
 22 26  1  0  0  0  0
 22 23  1  0  0  0  0
 22 50  1  0  0  0  0
 23 24  1  0  0  0  0
 23 51  1  0  0  0  0
 23 52  1  0  0  0  0
 24 25  1  0  0  0  0
 24 53  1  0  0  0  0
 24 54  1  0  0  0  0
 25 26  1  0  0  0  0
 26 55  1  0  0  0  0
 26 56  1  0  0  0  0
 27 28  1  0  0  0  0
 27 29  1  0  0  0  0
 28 57  1  0  0  0  0
 28 58  1  0  0  0  0
 28 59  1  0  0  0  0
 29 60  1  0  0  0  0
 29 61  1  0  0  0  0
M  END
> <s_m_source_file>
AV-unprocessed.smi

> <i_m_source_file_index>
21

> <i_lp_mmshare_version>
43012

> <i_f3d_flags>
0

> <s_epik_input>
W0NIM11PW0NASF0xW0NIMl1bQ0BIXShOKFtDSDNdKVtDSDJdMSlbQ0gyXU4oW0NIM10pYyhuW2NIXW4yKWMoYzIzKW5bY0hdbjNbQ0gyXVtDQEhdKFtDSDJdW09IXSlbQ0BASF00W0NIMl1bQ0gyXU9bQ0gyXTQ=

> <s_epik_cmdline>
J2VwaWtfcHl0aG9uJywgJy1waCcsICc3LjAnLCAnLXRuJywgJzgnLCAnLW1hJywgJzIwMCcsICctbWV0YWxfYmluZGluZycsICctaW1hZScsICc8aW5maWxlLm1hZT4nLCAnLW9tYWUnLCAnPG91dGZpbGUubWFlPic=

> <r_lp_tautomer_probability>
1

> <r_epik_Ionization_Penalty>
2.17574

> <r_epik_Ionization_Penalty_Charging>
0

> <r_epik_Ionization_Penalty_Neutral>
2.17574

> <r_epik_State_Penalty>
2.31336

> <r_epik_Charging_Adjusted_Penalty>
2.31336

> <i_epik_Tot_Q>
0

> <i_epik_Tot_abs_Q>
0

> <r_epik_Metal_State_Penalty>
2.31025

> <b_epik_Metal_Only>
0

> <s_lp_Force_Field>
OPLS_2005

> <r_lp_Energy>
68.3176

> <b_lp_Chiralities_Consistent>
1

> <s_lp_Variant>
AV-unprocessed.smi:21-42

> <Gold.Version>
5.8.1

> <Gold.Id.Protein>
6NUR|6NUR_protein|mol2

> <Gold.PLP.Fitness>
49.3524

> <Gold.PLP.PLP>
-38.7474

> <Gold.PLP.part.hbond>
-5.8431

> <Gold.PLP.part.metal>
0.0000

> <Gold.PLP.part.buried>
-4.2949

> <Gold.PLP.part.nonpolar>
-29.2038

> <Gold.PLP.part.repulsive>
0.1502

> <Gold.PLP.ligand.clash>
0.0000

> <Gold.PLP.ligand.torsion>
1.2262

> <Gold.PLP.Chemscore.Hbond>
4.0550

> <Gold.PLP.Chemscore.CHOScore>
0.0000

> <Gold.PLP.Chemscore.Metal>
0.0000

> <Gold.Chemscore.Hbonds>
donor molecule, donor type, donor heavy atom, donor atom, acceptor molecule, acceptor atom, score
      L1  H    21    49       P1  7957  0.26
      P1  H  6896  6909       L1    10  1.00
      P1  H  6934  6947       L1    15  0.42
      P1  H  7989  7998       L1    21  0.22
      P1  H  7997  8008       L1    25  1.00
      P1  H  8011  8017       L1    21  1.00

> <Gold.PLP.Chemscore.Internal.Correction>
0.8925

> <Gold.Rescore>
     Score         DG    S(hbond)    S(metal)    S(lipo)     H(rot)  DE(clash)    DE(int)     intcor
     15.40     -16.98       2.73        0.00      86.00       3.00       0.08       1.50       ----

> <Gold.Chemscore.Fitness>
15.4046

> <Gold.Chemscore.DG>
-16.9827

> <Gold.Chemscore.ZeroCoef>
-5.4800

> <Gold.Chemscore.Hbond>
2.7330

> <Gold.Chemscore.Metal>
0.0000

> <Gold.Chemscore.Lipo>
86.0043

> <Gold.Chemscore.Internal_Hbond>
0.0000

> <Gold.Chemscore.DEClash>
0.0804

> <Gold.Chemscore.DEInternal>
1.4977

> <Gold.Chemscore.Rot>
3.0031

> <Gold.Chemscore.Internal.Correction>
   9.000000E+99

> <Gold.Chemscore.Hbonds>
donor molecule, donor type, donor heavy atom, donor atom, acceptor molecule, acceptor atom, score
      L1  H    21    49       P1  7957  0.25
      P1  H  6896  6909       L1    10  0.49
      P1  H  6934  6947       L1    15  0.37
      P1  H  7989  7998       L1    21  0.21
      P1  H  7997  8008       L1    25  0.63
      P1  H  8011  8017       L1    21  0.24

> <Gold.Chemscore.Hbond.Weighted>
-9.1282

> <Gold.Chemscore.Metal.Weighted>
-0.0000

> <Gold.Chemscore.Lipo.Weighted>
-10.0625

> <Gold.Chemscore.Internal_Hbond.Weighted>
0.0000

> <Gold.Chemscore.DEClash.Weighted>
0.0804

> <Gold.Chemscore.DEInternal.Weighted>
1.4977

> <Gold.Chemscore.Rot.Weighted>
7.6880

> <Gold.Chemscore.Internal.Correction.Weighted>
   9.000000E+99

> <Gold.Protein.RotatedTorsions>
[ 6907 6896 6895 6894 ] final   35.51 input  -60.11 | X-H torsion
[ 7974 7965 7964 7962 ] final  141.77 input  175.53 | X-H torsion
[ 8008 7997 7996 7995 ] final  -44.24 input   59.86 | X-H torsion
[ 10167 10162 10161 10158 ] final  161.06 input  -65.29 | X-H torsion
[ 10718 10713 10712 10709 ] final   85.22 input   66.30 | X-H torsion
[ 10763 10752 10751 10750 ] final  -35.81 input  -60.55 | X-H torsion
[ 11005 11000 10999 10996 ] final -116.55 input  -57.11 | X-H torsion

> <Gold.Protein.ActiveResidues>
 VAL166  LYS551  ARG553  GLY616  TRP617  ASP618  TYR619  PRO620  LYS621  CYS622 
 ASP623  PHE694  ASN695  SER759  ASP760  ASP761  ALA762  ILE779  LEU786  VAL792 
 PHE793  MET794  SER795  GLU796  ALA797  LYS798  CYS799  TRP800  GLU811  SER814 

> <Gold.Protein.RotatedAtoms>
  152.1172  134.9232  160.0564 H   0  0  0  0  0  0  0  0  0  0  0  0  # atno 6907 bound_to 6896
  152.0387  133.3963  159.4336 H   0  0  0  0  0  0  0  0  0  0  0  0  # atno 6908 bound_to 6896
  150.6847  134.3360  159.4891 H   0  0  0  0  0  0  0  0  0  0  0  0  # atno 6909 bound_to 6896
  144.9066  139.5349  143.5728 H   0  0  0  0  0  0  0  0  0  0  0  0  # atno 7974 bound_to 7965
  154.3997  140.1427  156.3650 H   0  0  0  0  0  0  0  0  0  0  0  0  # atno 8008 bound_to 7997
  155.8145  140.3471  155.5457 H   0  0  0  0  0  0  0  0  0  0  0  0  # atno 8009 bound_to 7997
  155.8351  140.0918  157.1759 H   0  0  0  0  0  0  0  0  0  0  0  0  # atno 8010 bound_to 7997
  139.4845  144.4574  151.8751 H   0  0  0  0  0  0  0  0  0  0  0  0  # atno 10167 bound_to 10162
  157.6911  131.0165  150.2789 H   0  0  0  0  0  0  0  0  0  0  0  0  # atno 10718 bound_to 10713
  153.8694  135.6832  153.4776 H   0  0  0  0  0  0  0  0  0  0  0  0  # atno 10763 bound_to 10752
  153.1296  135.4704  154.9326 H   0  0  0  0  0  0  0  0  0  0  0  0  # atno 10764 bound_to 10752
  154.7721  135.3242  154.8117 H   0  0  0  0  0  0  0  0  0  0  0  0  # atno 10765 bound_to 10752
  141.0414  133.9829  157.2988 H   0  0  0  0  0  0  0  0  0  0  0  0  # atno 11005 bound_to 11000
  146.3137  139.7839  142.9000 LP  0  0  0  0  0  0  0  0  0  0  0  0  # atno 17320 bound_to 7965
  145.3525  141.0310  143.3330 LP  0  0  0  0  0  0  0  0  0  0  0  0  # atno 17321 bound_to 7965
  140.4034  144.2464  150.5892 LP  0  0  0  0  0  0  0  0  0  0  0  0  # atno 17342 bound_to 10162
  140.5035  143.2311  151.8642 LP  0  0  0  0  0  0  0  0  0  0  0  0  # atno 17343 bound_to 10162
  156.3339  130.3805  149.7467 LP  0  0  0  0  0  0  0  0  0  0  0  0  # atno 17370 bound_to 10713
  156.4997  130.8123  151.3128 LP  0  0  0  0  0  0  0  0  0  0  0  0  # atno 17371 bound_to 10713
  139.9279  135.0201  156.8298 LP  0  0  0  0  0  0  0  0  0  0  0  0  # atno 17394 bound_to 11000
  140.6227  133.9979  155.7625 LP  0  0  0  0  0  0  0  0  0  0  0  0  # atno 17395 bound_to 11000

$$$$
