AV-unprocessed.smi:35|AV-procd|sdf|272|dock7
  -GOLD-   2262016 43D 1   1.00000     0.00000
 Structure written by MMmdl.
 28 29  0  0  0  0  0  0  0  0  2 V2000
  149.8148  135.2958  158.2786 O   0  0  0  0  0  0  0  0  0  0  0  0
  150.0058  136.3715  157.7147 C   0  0  0  0  0  0  0  0  0  0  0  0
  150.1758  137.5436  158.3912 N   0  5  0  0  0  0  0  0  0  0  0  0
  150.3668  138.7392  157.7598 C   0  0  0  0  0  0  0  0  0  0  0  0
  150.5763  139.7881  158.3687 O   0  0  0  0  0  0  0  0  0  0  0  0
  150.3351  138.7841  156.3363 N   0  0  0  0  0  0  0  0  0  0  0  0
  150.5662  140.1100  155.6263 C   0  0  1  0  0  0  0  0  0  0  0  0
  150.4020  139.9339  154.2449 O   0  0  0  0  0  0  0  0  0  0  0  0
  149.1718  140.4913  153.7826 C   0  0  1  0  0  0  0  0  0  0  0  0
  148.0264  139.4552  153.8664 C   0  0  0  0  0  0  0  0  0  0  0  0
  148.2128  138.4486  152.8944 O   0  0  0  0  0  0  0  0  0  0  0  0
  149.0218  141.7007  154.7116 C   0  0  1  0  0  0  0  0  0  0  0  0
  147.6904  142.1669  154.8139 O   0  0  0  0  0  0  0  0  0  0  0  0
  149.5470  141.1946  156.0483 C   0  0  2  0  0  0  0  0  0  0  0  0
  150.1668  142.2601  156.7398 O   0  0  0  0  0  0  0  0  0  0  0  0
  150.2353  137.5957  155.6276 C   0  0  0  0  0  0  0  0  0  0  0  0
  150.0645  136.4162  156.2574 C   0  0  0  0  0  0  0  0  0  0  0  0
  149.9143  134.8088  155.1086 Br  0  0  0  0  0  0  0  0  0  0  0  0
  151.6060  140.3603  155.8444 H   0  0  0  0  0  0  0  0  0  0  0  0
  149.2792  140.8272  152.7504 H   0  0  0  0  0  0  0  0  0  0  0  0
  147.9273  139.0184  154.8588 H   0  0  0  0  0  0  0  0  0  0  0  0
  147.0698  139.9242  153.6379 H   0  0  0  0  0  0  0  0  0  0  0  0
  148.8672  138.7436  152.2799 H   0  0  0  0  0  0  0  0  0  0  0  0
  149.6558  142.5066  154.3371 H   0  0  0  0  0  0  0  0  0  0  0  0
  147.7148  143.0754  155.0737 H   0  0  0  0  0  0  0  0  0  0  0  0
  148.7447  140.7505  156.6405 H   0  0  0  0  0  0  0  0  0  0  0  0
  149.6905  143.0529  156.5401 H   0  0  0  0  0  0  0  0  0  0  0  0
  150.2916  137.5918  154.5502 H   0  0  0  0  0  0  0  0  0  0  0  0
  1  2  2  0  0  0  0
  2 17  1  0  0  0  0
  2  3  1  0  0  0  0
  3  4  1  0  0  0  0
  4  5  2  0  0  0  0
  4  6  1  0  0  0  0
  6  7  1  0  0  0  0
  6 16  1  0  0  0  0
  7 14  1  0  0  0  0
  7  8  1  0  0  0  0
  7 19  1  0  0  0  0
  8  9  1  0  0  0  0
  9 10  1  0  0  0  0
  9 12  1  0  0  0  0
  9 20  1  0  0  0  0
 10 11  1  0  0  0  0
 10 21  1  0  0  0  0
 10 22  1  0  0  0  0
 11 23  1  0  0  0  0
 12 13  1  0  0  0  0
 12 14  1  0  0  0  0
 12 24  1  0  0  0  0
 13 25  1  0  0  0  0
 14 15  1  0  0  0  0
 14 26  1  0  0  0  0
 15 27  1  0  0  0  0
 16 17  2  0  0  0  0
 16 28  1  0  0  0  0
 17 18  1  0  0  0  0
M  CHG  1   3  -1
M  END
> <s_m_source_file>
AV-unprocessed.smi

> <i_m_source_file_index>
35

> <i_lp_mmshare_version>
43012

> <i_f3d_flags>
0

> <s_epik_input>
Tz1jMVtuSF1jKD1PKW4oW2NIXWMxQnIpW0NAQEhdMk9bQ0BASF0oW0NIMl1bT0hdKVtDQEBIXShbT0hdKVtDQEhdMltPSF0=

> <s_epik_cmdline>
J2VwaWtfcHl0aG9uJywgJy1waCcsICc3LjAnLCAnLXRuJywgJzgnLCAnLW1hJywgJzIwMCcsICctbWV0YWxfYmluZGluZycsICctaW1hZScsICc8aW5maWxlLm1hZT4nLCAnLW9tYWUnLCAnPG91dGZpbGUubWFlPic=

> <r_epik_Ionization_Penalty>
1.06112

> <r_epik_Ionization_Penalty_Charging>
2.1796e-09

> <r_epik_Ionization_Penalty_Neutral>
1.06112

> <r_epik_State_Penalty>
1.11484

> <r_epik_Charging_Adjusted_Penalty>
1.11484

> <i_epik_Tot_Q>
-1

> <i_epik_Tot_abs_Q>
1

> <r_epik_Metal_State_Penalty>
0.0032876

> <b_epik_Metal_Only>
0

> <s_epik_Chemistry_Notes>
This compound contains an acetal/aminal-like group ( X-CH(R)-Y where X, Y are N, S, or O) that may be acid/base labile, releasing an aldehyde.

> <s_lp_Force_Field>
OPLS_2005

> <r_lp_Energy>
39.1744

> <b_lp_Chiralities_Consistent>
1

> <s_lp_Variant>
AV-unprocessed.smi:35-26

> <Gold.Version>
5.8.1

> <Gold.Id.Protein>
6NUR|6NUR_protein|mol2

> <Gold.PLP.Fitness>
36.9563

> <Gold.PLP.PLP>
-22.1642

> <Gold.PLP.part.hbond>
-6.0000

> <Gold.PLP.part.metal>
0.0000

> <Gold.PLP.part.buried>
0.4922

> <Gold.PLP.part.nonpolar>
-16.3583

> <Gold.PLP.part.repulsive>
0.1810

> <Gold.PLP.ligand.clash>
0.0000

> <Gold.PLP.ligand.torsion>
0.1347

> <Gold.PLP.Chemscore.Hbond>
5.0000

> <Gold.PLP.Chemscore.CHOScore>
0.0000

> <Gold.PLP.Chemscore.Metal>
0.0000

> <Gold.Chemscore.Hbonds>
donor molecule, donor type, donor heavy atom, donor atom, acceptor molecule, acceptor atom, score
      L1  H    11    23       P1  7957  1.00
      L1  H    13    25       P1  8028  0.89
      L1  H    15    27       P1  8028  0.96
      P1  H  6896  6908       L1     1  1.00
      P1  H  7989  7998       L1     8  1.00

> <Gold.PLP.Chemscore.Internal.Correction>
0.0615

> <Gold.Rescore>
     Score         DG    S(hbond)    S(metal)    S(lipo)     H(rot)  DE(clash)    DE(int)     intcor
     10.29     -13.55       3.75        0.00      41.26       3.63       1.91       1.35       ----

> <Gold.Chemscore.Fitness>
10.2899

> <Gold.Chemscore.DG>
-13.5535

> <Gold.Chemscore.ZeroCoef>
-5.4800

> <Gold.Chemscore.Hbond>
3.7512

> <Gold.Chemscore.Metal>
0.0000

> <Gold.Chemscore.Lipo>
41.2597

> <Gold.Chemscore.Internal_Hbond>
0.0000

> <Gold.Chemscore.DEClash>
1.9095

> <Gold.Chemscore.DEInternal>
1.3540

> <Gold.Chemscore.Rot>
3.6261

> <Gold.Chemscore.Internal.Correction>
   9.000000E+99

> <Gold.Chemscore.Hbonds>
donor molecule, donor type, donor heavy atom, donor atom, acceptor molecule, acceptor atom, score
      L1  H    11    23       P1  7957  0.85
      L1  H    13    25       P1  8028  0.49
      L1  H    15    27       P1  8028  0.90
      P1  H  6896  6908       L1     1  0.96
      P1  H  7989  7998       L1     8  0.30

> <Gold.Chemscore.Hbond.Weighted>
-12.5289

> <Gold.Chemscore.Metal.Weighted>
-0.0000

> <Gold.Chemscore.Lipo.Weighted>
-4.8274

> <Gold.Chemscore.Internal_Hbond.Weighted>
0.0000

> <Gold.Chemscore.DEClash.Weighted>
1.9095

> <Gold.Chemscore.DEInternal.Weighted>
1.3540

> <Gold.Chemscore.Rot.Weighted>
9.2828

> <Gold.Chemscore.Internal.Correction.Weighted>
   9.000000E+99

> <Gold.Protein.RotatedTorsions>
[ 6907 6896 6895 6894 ] final  157.63 input  -60.11 | X-H torsion
[ 7974 7965 7964 7962 ] final  132.45 input  175.53 | X-H torsion
[ 8008 7997 7996 7995 ] final  -56.98 input   59.86 | X-H torsion
[ 10167 10162 10161 10158 ] final   69.02 input  -65.29 | X-H torsion
[ 10718 10713 10712 10709 ] final -178.63 input   66.30 | X-H torsion
[ 10763 10752 10751 10750 ] final -161.83 input  -60.55 | X-H torsion
[ 11005 11000 10999 10996 ] final  122.88 input  -57.11 | X-H torsion

> <Gold.Protein.ActiveResidues>
 VAL166  LYS551  ARG553  GLY616  TRP617  ASP618  TYR619  PRO620  LYS621  CYS622 
 ASP623  PHE694  ASN695  SER759  ASP760  ASP761  ALA762  ILE779  LEU786  VAL792 
 PHE793  MET794  SER795  GLU796  ALA797  LYS798  CYS799  TRP800  GLU811  SER814 

> <Gold.Protein.RotatedAtoms>
  152.0123  133.3866  159.4224 H   0  0  0  0  0  0  0  0  0  0  0  0  # atno 6907 bound_to 6896
  150.6898  134.3717  159.5004 H   0  0  0  0  0  0  0  0  0  0  0  0  # atno 6908 bound_to 6896
  152.1479  134.9011  160.0600 H   0  0  0  0  0  0  0  0  0  0  0  0  # atno 6909 bound_to 6896
  144.9967  139.4352  143.5312 H   0  0  0  0  0  0  0  0  0  0  0  0  # atno 7974 bound_to 7965
  154.4250  140.1117  156.5725 H   0  0  0  0  0  0  0  0  0  0  0  0  # atno 8008 bound_to 7997
  155.6197  140.3495  155.4629 H   0  0  0  0  0  0  0  0  0  0  0  0  # atno 8009 bound_to 7997
  156.0034  140.1204  157.0515 H   0  0  0  0  0  0  0  0  0  0  0  0  # atno 8010 bound_to 7997
  140.0723  144.5142  150.7218 H   0  0  0  0  0  0  0  0  0  0  0  0  # atno 10167 bound_to 10162
  156.8471  130.9706  151.3095 H   0  0  0  0  0  0  0  0  0  0  0  0  # atno 10718 bound_to 10713
  154.7268  135.3037  154.8957 H   0  0  0  0  0  0  0  0  0  0  0  0  # atno 10763 bound_to 10752
  153.9812  135.6730  153.4754 H   0  0  0  0  0  0  0  0  0  0  0  0  # atno 10764 bound_to 10752
  153.0882  135.4973  154.8558 H   0  0  0  0  0  0  0  0  0  0  0  0  # atno 10765 bound_to 10752
  139.9288  134.9641  156.8176 H   0  0  0  0  0  0  0  0  0  0  0  0  # atno 11005 bound_to 11000
  146.3443  139.9332  142.8751 LP  0  0  0  0  0  0  0  0  0  0  0  0  # atno 17320 bound_to 7965
  145.2209  140.9935  143.4046 LP  0  0  0  0  0  0  0  0  0  0  0  0  # atno 17321 bound_to 7965
  140.7119  143.2512  151.4554 LP  0  0  0  0  0  0  0  0  0  0  0  0  # atno 17342 bound_to 10162
  139.5828  144.1671  152.1991 LP  0  0  0  0  0  0  0  0  0  0  0  0  # atno 17343 bound_to 10162
  157.6324  130.8740  149.9297 LP  0  0  0  0  0  0  0  0  0  0  0  0  # atno 17370 bound_to 10713
  156.0849  130.3669  150.0508 LP  0  0  0  0  0  0  0  0  0  0  0  0  # atno 17371 bound_to 10713
  140.6261  133.9949  155.7640 LP  0  0  0  0  0  0  0  0  0  0  0  0  # atno 17394 bound_to 11000
  141.0863  133.9985  157.3308 LP  0  0  0  0  0  0  0  0  0  0  0  0  # atno 17395 bound_to 11000

$$$$
