AV-unprocessed.smi:193|AV-procd|sdf|1515|dock9
  -GOLD-   2262019353D 1   1.00000     0.00000
 Structure written by MMmdl.
 61 65  0  0  0  0  0  0  0  0  1 V2000
  153.8583  142.8893  164.1231 C   0  0  0  0  0  0  0  0  0  0  0  0
  153.7902  142.4171  162.6625 C   0  0  1  0  0  0  0  0  0  0  0  0
  153.8147  140.8739  162.6228 C   0  0  0  0  0  0  0  0  0  0  0  0
  154.1653  140.3019  161.3217 N   0  0  0  0  0  0  0  0  0  0  0  0
  154.8110  139.1041  161.2956 C   0  0  0  0  0  0  0  0  0  0  0  0
  155.0534  138.4630  162.4705 N   0  0  0  0  0  0  0  0  0  0  0  0
  155.6824  137.2849  162.4872 C   0  0  0  0  0  0  0  0  0  0  0  0
  156.1523  136.5760  161.4601 N   0  0  0  0  0  0  0  0  0  0  0  0
  155.9173  137.2092  160.2759 C   0  0  0  0  0  0  0  0  0  0  0  0
  155.2578  138.4605  160.1021 C   0  0  0  0  0  0  0  0  0  0  0  0
  155.2185  138.7809  158.7488 N   0  0  0  0  0  0  0  0  0  0  0  0
  155.8108  137.7788  158.1604 C   0  0  0  0  0  0  0  0  0  0  0  0
  156.2714  136.7945  159.0037 N   0  0  0  0  0  0  0  0  0  0  0  0
  156.9787  135.5817  158.6213 C   0  0  0  0  0  0  0  0  0  0  0  0
  156.1241  134.5987  157.7829 C   0  0  0  0  0  0  0  0  0  0  0  0
  155.8147  135.2382  156.5561 O   0  0  0  0  0  0  0  0  0  0  0  0
  156.8659  133.2798  157.4733 C   0  0  0  0  0  0  0  0  0  0  0  0
  155.9439  132.2379  156.8155 C   0  0  0  0  0  0  0  0  0  0  0  0
  154.7979  132.0141  157.6281 O   0  0  0  0  0  0  0  0  0  0  0  0
  153.9985  133.1801  157.7858 C   0  0  0  0  0  0  0  0  0  0  0  0
  154.8024  134.2762  158.5081 C   0  0  0  0  0  0  0  0  0  0  0  0
  153.9873  141.0561  160.0800 C   0  0  0  0  0  0  0  0  0  0  0  0
  152.5949  141.6920  159.9711 C   0  0  0  0  0  0  0  0  0  0  0  0
  152.5963  143.0380  160.5365 N   0  0  0  0  0  0  0  0  0  0  0  0
  151.4199  143.7418  160.0435 C   0  0  1  0  0  0  0  0  0  0  0  0
  151.3951  145.2489  160.1713 C   0  0  0  0  0  0  0  0  0  0  0  0
  151.5575  144.6160  158.8098 C   0  0  1  0  0  0  0  0  0  0  0  0
  152.8624  144.7643  158.0511 C   0  0  0  0  0  0  0  0  0  0  0  0
  152.5220  142.9952  161.9960 C   0  0  0  0  0  0  0  0  0  0  0  0
  153.0009  142.5330  164.6951 H   0  0  0  0  0  0  0  0  0  0  0  0
  153.8725  143.9778  164.1864 H   0  0  0  0  0  0  0  0  0  0  0  0
  154.7610  142.5246  164.6143 H   0  0  0  0  0  0  0  0  0  0  0  0
  154.6788  142.8123  162.1675 H   0  0  0  0  0  0  0  0  0  0  0  0
  154.5498  140.5290  163.3514 H   0  0  0  0  0  0  0  0  0  0  0  0
  152.8508  140.4763  162.9416 H   0  0  0  0  0  0  0  0  0  0  0  0
  155.8328  136.8494  163.4642 H   0  0  0  0  0  0  0  0  0  0  0  0
  155.9394  137.7344  157.0887 H   0  0  0  0  0  0  0  0  0  0  0  0
  157.8696  135.8717  158.0627 H   0  0  0  0  0  0  0  0  0  0  0  0
  157.3368  135.0945  159.5296 H   0  0  0  0  0  0  0  0  0  0  0  0
  156.5238  135.8229  156.3354 H   0  0  0  0  0  0  0  0  0  0  0  0
  157.7308  133.4579  156.8333 H   0  0  0  0  0  0  0  0  0  0  0  0
  157.2543  132.8601  158.4022 H   0  0  0  0  0  0  0  0  0  0  0  0
  155.6395  132.5573  155.8176 H   0  0  0  0  0  0  0  0  0  0  0  0
  156.4766  131.2947  156.6942 H   0  0  0  0  0  0  0  0  0  0  0  0
  153.6444  133.5260  156.8134 H   0  0  0  0  0  0  0  0  0  0  0  0
  153.1140  132.9220  158.3683 H   0  0  0  0  0  0  0  0  0  0  0  0
  155.0208  133.9326  159.5203 H   0  0  0  0  0  0  0  0  0  0  0  0
  154.1954  135.1760  158.6167 H   0  0  0  0  0  0  0  0  0  0  0  0
  154.7767  141.8011  159.9719 H   0  0  0  0  0  0  0  0  0  0  0  0
  154.0889  140.3828  159.2282 H   0  0  0  0  0  0  0  0  0  0  0  0
  152.3650  141.7758  158.9079 H   0  0  0  0  0  0  0  0  0  0  0  0
  151.8160  141.0621  160.4042 H   0  0  0  0  0  0  0  0  0  0  0  0
  150.4506  143.2586  160.1576 H   0  0  0  0  0  0  0  0  0  0  0  0
  150.4392  145.7171  160.3964 H   0  0  0  0  0  0  0  0  0  0  0  0
  152.2642  145.7369  160.6089 H   0  0  0  0  0  0  0  0  0  0  0  0
  150.6823  144.6477  158.1639 H   0  0  0  0  0  0  0  0  0  0  0  0
  153.7138  144.7831  158.7320 H   0  0  0  0  0  0  0  0  0  0  0  0
  152.8580  145.6939  157.4822 H   0  0  0  0  0  0  0  0  0  0  0  0
  152.9891  143.9330  157.3575 H   0  0  0  0  0  0  0  0  0  0  0  0
  151.6334  142.4514  162.3209 H   0  0  0  0  0  0  0  0  0  0  0  0
  152.3938  144.0216  162.3426 H   0  0  0  0  0  0  0  0  0  0  0  0
  1  2  1  0  0  0  0
  1 30  1  0  0  0  0
  1 31  1  0  0  0  0
  1 32  1  0  0  0  0
  2 29  1  0  0  0  0
  2  3  1  0  0  0  0
  2 33  1  0  0  0  0
  3  4  1  0  0  0  0
  3 34  1  0  0  0  0
  3 35  1  0  0  0  0
  4  5  1  0  0  0  0
  4 22  1  0  0  0  0
  5 10  1  0  0  0  0
  5  6  2  0  0  0  0
  6  7  1  0  0  0  0
  7  8  2  0  0  0  0
  7 36  1  0  0  0  0
  8  9  1  0  0  0  0
  9 13  1  0  0  0  0
  9 10  2  0  0  0  0
 10 11  1  0  0  0  0
 11 12  2  0  0  0  0
 12 13  1  0  0  0  0
 12 37  1  0  0  0  0
 13 14  1  0  0  0  0
 14 15  1  0  0  0  0
 14 38  1  0  0  0  0
 14 39  1  0  0  0  0
 15 21  1  0  0  0  0
 15 16  1  0  0  0  0
 15 17  1  0  0  0  0
 16 40  1  0  0  0  0
 17 18  1  0  0  0  0
 17 41  1  0  0  0  0
 17 42  1  0  0  0  0
 18 19  1  0  0  0  0
 18 43  1  0  0  0  0
 18 44  1  0  0  0  0
 19 20  1  0  0  0  0
 20 21  1  0  0  0  0
 20 45  1  0  0  0  0
 20 46  1  0  0  0  0
 21 47  1  0  0  0  0
 21 48  1  0  0  0  0
 22 23  1  0  0  0  0
 22 49  1  0  0  0  0
 22 50  1  0  0  0  0
 23 24  1  0  0  0  0
 23 51  1  0  0  0  0
 23 52  1  0  0  0  0
 24 25  1  0  0  0  0
 24 29  1  0  0  0  0
 25 27  1  0  0  0  0
 25 26  1  0  0  0  0
 25 53  1  0  0  0  0
 26 27  1  0  0  0  0
 26 54  1  0  0  0  0
 26 55  1  0  0  0  0
 27 28  1  0  0  0  0
 27 56  1  0  0  0  0
 28 57  1  0  0  0  0
 28 58  1  0  0  0  0
 28 59  1  0  0  0  0
 29 60  1  0  0  0  0
 29 61  1  0  0  0  0
M  END
> <s_m_source_file>
AV-unprocessed.smi

> <i_m_source_file_index>
193

> <i_lp_mmshare_version>
43012

> <i_f3d_flags>
0

> <s_epik_input>
W0NIM11bQ0BASF0xW0NIMl1bQ0BIXTFOKFtDSDJdMilbQ0gyXVtDSDJdTihbQ0gyXVtDQEhdMltDSDNdKWMobltjSF1uMyljKGMzNCluW2NIXW40W0NIMl1DNShbT0hdKVtDSDJdW0NIMl1PW0NIMl1bQ0gyXTU=

> <s_epik_cmdline>
J2VwaWtfcHl0aG9uJywgJy1waCcsICc3LjAnLCAnLXRuJywgJzgnLCAnLW1hJywgJzIwMCcsICctbWV0YWxfYmluZGluZycsICctaW1hZScsICc8aW5maWxlLm1hZT4nLCAnLW9tYWUnLCAnPG91dGZpbGUubWFlPic=

> <r_lp_tautomer_probability>
1

> <r_epik_Ionization_Penalty>
1.45227

> <r_epik_Ionization_Penalty_Charging>
0

> <r_epik_Ionization_Penalty_Neutral>
1.45227

> <r_epik_State_Penalty>
2.02377

> <r_epik_Charging_Adjusted_Penalty>
2.02377

> <i_epik_Tot_Q>
0

> <i_epik_Tot_abs_Q>
0

> <r_epik_Metal_State_Penalty>
2.01937

> <b_epik_Metal_Only>
0

> <s_lp_Force_Field>
OPLS_2005

> <r_lp_Energy>
52.058

> <b_lp_Chiralities_Consistent>
1

> <s_lp_Variant>
AV-unprocessed.smi:193-20

> <Gold.Version>
5.8.1

> <Gold.Id.Protein>
6NUR|6NUR_protein|mol2

> <Gold.PLP.Fitness>
48.9321

> <Gold.PLP.PLP>
-43.0427

> <Gold.PLP.part.hbond>
-2.0000

> <Gold.PLP.part.metal>
0.0000

> <Gold.PLP.part.buried>
-4.2533

> <Gold.PLP.part.nonpolar>
-36.2371

> <Gold.PLP.part.repulsive>
0.0130

> <Gold.PLP.ligand.clash>
0.0000

> <Gold.PLP.ligand.torsion>
0.6539

> <Gold.PLP.Chemscore.Hbond>
2.0000

> <Gold.PLP.Chemscore.CHOScore>
0.0000

> <Gold.PLP.Chemscore.Metal>
0.0000

> <Gold.Chemscore.Hbonds>
donor molecule, donor type, donor heavy atom, donor atom, acceptor molecule, acceptor atom, score
      P1  H  7997  8008       L1    11  0.90
      P1  H 10752 10765       L1    16  1.00

> <Gold.PLP.Chemscore.Internal.Correction>
1.1972

> <Gold.Rescore>
     Score         DG    S(hbond)    S(metal)    S(lipo)     H(rot)  DE(clash)    DE(int)     intcor
     19.80     -22.29       1.85        0.00     132.62       1.91       0.44       2.04       ----

> <Gold.Chemscore.Fitness>
19.8042

> <Gold.Chemscore.DG>
-22.2863

> <Gold.Chemscore.ZeroCoef>
-5.4800

> <Gold.Chemscore.Hbond>
1.8478

> <Gold.Chemscore.Metal>
0.0000

> <Gold.Chemscore.Lipo>
132.6157

> <Gold.Chemscore.Internal_Hbond>
0.0000

> <Gold.Chemscore.DEClash>
0.4421

> <Gold.Chemscore.DEInternal>
2.0400

> <Gold.Chemscore.Rot>
1.9068

> <Gold.Chemscore.Internal.Correction>
   9.000000E+99

> <Gold.Chemscore.Hbonds>
donor molecule, donor type, donor heavy atom, donor atom, acceptor molecule, acceptor atom, score
      P1  H  7997  8008       L1    11  0.18
      P1  H 10752 10765       L1    16  0.45

> <Gold.Chemscore.Hbond.Weighted>
-6.1717

> <Gold.Chemscore.Metal.Weighted>
-0.0000

> <Gold.Chemscore.Lipo.Weighted>
-15.5160

> <Gold.Chemscore.Internal_Hbond.Weighted>
0.0000

> <Gold.Chemscore.DEClash.Weighted>
0.4421

> <Gold.Chemscore.DEInternal.Weighted>
2.0400

> <Gold.Chemscore.Rot.Weighted>
4.8814

> <Gold.Chemscore.Internal.Correction.Weighted>
   9.000000E+99

> <Gold.Protein.RotatedTorsions>
[ 6907 6896 6895 6894 ] final  -39.74 input  -60.11 | X-H torsion
[ 7974 7965 7964 7962 ] final  -71.25 input  175.53 | X-H torsion
[ 8008 7997 7996 7995 ] final -133.55 input   59.86 | X-H torsion
[ 10167 10162 10161 10158 ] final   86.11 input  -65.29 | X-H torsion
[ 10718 10713 10712 10709 ] final -164.04 input   66.30 | X-H torsion
[ 10763 10752 10751 10750 ] final  -49.68 input  -60.55 | X-H torsion
[ 11005 11000 10999 10996 ] final -150.71 input  -57.11 | X-H torsion

> <Gold.Protein.ActiveResidues>
 VAL166  LYS551  ARG553  GLY616  TRP617  ASP618  TYR619  PRO620  LYS621  CYS622 
 ASP623  PHE694  ASN695  SER759  ASP760  ASP761  ALA762  ILE779  LEU786  VAL792 
 PHE793  MET794  SER795  GLU796  ALA797  LYS798  CYS799  TRP800  GLU811  SER814 

> <Gold.Protein.RotatedAtoms>
  150.9867  134.9211  159.7875 H   0  0  0  0  0  0  0  0  0  0  0  0  # atno 6907 bound_to 6896
  152.5239  134.3336  159.9202 H   0  0  0  0  0  0  0  0  0  0  0  0  # atno 6908 bound_to 6896
  151.3343  133.3947  159.2700 H   0  0  0  0  0  0  0  0  0  0  0  0  # atno 6909 bound_to 6896
  145.6805  140.9189  143.0835 H   0  0  0  0  0  0  0  0  0  0  0  0  # atno 7974 bound_to 7965
  155.3474  140.0475  157.3046 H   0  0  0  0  0  0  0  0  0  0  0  0  # atno 8008 bound_to 7997
  154.5245  140.2236  155.8880 H   0  0  0  0  0  0  0  0  0  0  0  0  # atno 8009 bound_to 7997
  156.1725  140.3092  155.9005 H   0  0  0  0  0  0  0  0  0  0  0  0  # atno 8010 bound_to 7997
  139.8908  144.6386  150.8740 H   0  0  0  0  0  0  0  0  0  0  0  0  # atno 10167 bound_to 10162
  156.6333  130.8938  151.2982 H   0  0  0  0  0  0  0  0  0  0  0  0  # atno 10718 bound_to 10713
  154.0981  135.6567  153.4863 H   0  0  0  0  0  0  0  0  0  0  0  0  # atno 10763 bound_to 10752
  153.0298  135.5218  154.7314 H   0  0  0  0  0  0  0  0  0  0  0  0  # atno 10764 bound_to 10752
  154.6458  135.2994  155.0017 H   0  0  0  0  0  0  0  0  0  0  0  0  # atno 10765 bound_to 10752
  140.7373  134.3554  157.5155 H   0  0  0  0  0  0  0  0  0  0  0  0  # atno 11005 bound_to 11000
  144.7027  139.8691  143.7439 LP  0  0  0  0  0  0  0  0  0  0  0  0  # atno 17320 bound_to 7965
  146.0968  139.3961  143.0371 LP  0  0  0  0  0  0  0  0  0  0  0  0  # atno 17321 bound_to 7965
  140.7727  143.3511  151.2012 LP  0  0  0  0  0  0  0  0  0  0  0  0  # atno 17342 bound_to 10162
  139.7111  143.9375  152.2948 LP  0  0  0  0  0  0  0  0  0  0  0  0  # atno 17343 bound_to 10162
  157.7193  130.9538  150.1376 LP  0  0  0  0  0  0  0  0  0  0  0  0  # atno 17370 bound_to 10713
  156.2217  130.3674  149.8548 LP  0  0  0  0  0  0  0  0  0  0  0  0  # atno 17371 bound_to 10713
  139.8813  134.9058  156.2907 LP  0  0  0  0  0  0  0  0  0  0  0  0  # atno 17394 bound_to 11000
  140.9868  133.7233  156.0754 LP  0  0  0  0  0  0  0  0  0  0  0  0  # atno 17395 bound_to 11000

$$$$
