AV-unprocessed.smi:254|AV-procd|sdf|1947|dock3
  -GOLD-   2262021 83D 1   1.00000     0.00000
 Structure written by MMmdl.
 50 53  0  0  0  0  0  0  0  0  1 V2000
  150.7700  139.6707  154.6059 O   0  0  0  0  0  0  0  0  0  0  0  0
  149.5752  139.8701  154.3932 C   0  0  0  0  0  0  0  0  0  0  0  0
  148.7726  139.0953  153.3669 C   0  0  0  0  0  0  0  0  0  0  0  0
  147.4390  139.6804  153.4910 N   0  0  0  0  0  0  0  0  0  0  0  0
  146.4317  138.7796  153.5063 C   0  0  0  0  0  0  0  0  0  0  0  0
  145.6065  138.6980  154.5831 N   0  0  0  0  0  0  0  0  0  0  0  0
  144.6196  137.7966  154.5989 C   0  0  0  0  0  0  0  0  0  0  0  0
  144.2927  136.8996  153.6655 N   0  0  0  0  0  0  0  0  0  0  0  0
  145.1274  136.9767  152.5890 C   0  0  0  0  0  0  0  0  0  0  0  0
  146.2151  137.8795  152.4313 C   0  0  0  0  0  0  0  0  0  0  0  0
  146.8401  137.6677  151.2095 N   0  0  0  0  0  0  0  0  0  0  0  0
  146.1563  136.6950  150.6705 C   0  0  0  0  0  0  0  0  0  0  0  0
  145.1199  136.2091  151.4372 N   0  0  0  0  0  0  0  0  0  0  0  0
  144.1961  135.1475  151.0773 C   0  0  0  0  0  0  0  0  0  0  0  0
  144.8536  133.9235  150.3880 C   0  0  2  0  0  0  0  0  0  0  0  0
  143.8835  133.4172  149.2924 C   0  0  0  0  0  0  0  0  0  0  0  0
  143.5474  134.4340  148.3713 O   0  0  0  0  0  0  0  0  0  0  0  0
  145.2449  132.7979  151.3949 C   0  0  1  0  0  0  0  0  0  0  0  0
  145.6628  131.4757  150.7702 C   0  0  0  0  0  0  0  0  0  0  0  0
  146.3795  130.7856  151.9207 C   0  0  0  0  0  0  0  0  0  0  0  0
  147.0898  131.8298  152.5669 O   0  0  0  0  0  0  0  0  0  0  0  0
  146.4704  133.0806  152.2803 C   0  0  0  0  0  0  0  0  0  0  0  0
  147.4231  140.7054  154.5364 C   0  0  0  0  0  0  0  0  0  0  0  0
  148.7962  140.7623  155.0077 N   0  0  0  0  0  0  0  0  0  0  0  0
  149.1890  141.6827  156.0728 C   0  0  0  0  0  0  0  0  0  0  0  0
  149.9856  140.9844  157.1892 C   0  0  0  0  0  0  0  0  0  0  0  0
  149.4069  139.8173  157.4685 F   0  0  0  0  0  0  0  0  0  0  0  0
  151.2430  140.7528  156.8127 F   0  0  0  0  0  0  0  0  0  0  0  0
  149.9891  141.7317  158.2932 F   0  0  0  0  0  0  0  0  0  0  0  0
  149.1701  139.2596  152.3652 H   0  0  0  0  0  0  0  0  0  0  0  0
  148.8018  138.0268  153.5887 H   0  0  0  0  0  0  0  0  0  0  0  0
  144.0047  137.7926  155.4868 H   0  0  0  0  0  0  0  0  0  0  0  0
  146.3949  136.2973  149.6947 H   0  0  0  0  0  0  0  0  0  0  0  0
  143.6563  134.8273  151.9692 H   0  0  0  0  0  0  0  0  0  0  0  0
  143.4521  135.5955  150.4177 H   0  0  0  0  0  0  0  0  0  0  0  0
  145.7573  134.2732  149.8865 H   0  0  0  0  0  0  0  0  0  0  0  0
  144.3050  132.5626  148.7626 H   0  0  0  0  0  0  0  0  0  0  0  0
  142.9439  133.0805  149.7310 H   0  0  0  0  0  0  0  0  0  0  0  0
  144.3424  134.8623  148.0927 H   0  0  0  0  0  0  0  0  0  0  0  0
  144.3924  132.5982  152.0464 H   0  0  0  0  0  0  0  0  0  0  0  0
  144.8220  130.8902  150.3978 H   0  0  0  0  0  0  0  0  0  0  0  0
  146.3595  131.6428  149.9475 H   0  0  0  0  0  0  0  0  0  0  0  0
  145.6596  130.3591  152.6205 H   0  0  0  0  0  0  0  0  0  0  0  0
  147.0467  129.9906  151.5875 H   0  0  0  0  0  0  0  0  0  0  0  0
  147.1988  133.7041  151.7612 H   0  0  0  0  0  0  0  0  0  0  0  0
  146.1978  133.5782  153.2101 H   0  0  0  0  0  0  0  0  0  0  0  0
  147.1316  141.6644  154.1068 H   0  0  0  0  0  0  0  0  0  0  0  0
  146.7457  140.4829  155.3624 H   0  0  0  0  0  0  0  0  0  0  0  0
  149.7889  142.4863  155.6434 H   0  0  0  0  0  0  0  0  0  0  0  0
  148.2998  142.1583  156.4895 H   0  0  0  0  0  0  0  0  0  0  0  0
  1  2  2  0  0  0  0
  2 24  1  0  0  0  0
  2  3  1  0  0  0  0
  3  4  1  0  0  0  0
  3 30  1  0  0  0  0
  3 31  1  0  0  0  0
  4  5  1  0  0  0  0
  4 23  1  0  0  0  0
  5 10  1  0  0  0  0
  5  6  2  0  0  0  0
  6  7  1  0  0  0  0
  7  8  2  0  0  0  0
  7 32  1  0  0  0  0
  8  9  1  0  0  0  0
  9 13  1  0  0  0  0
  9 10  2  0  0  0  0
 10 11  1  0  0  0  0
 11 12  2  0  0  0  0
 12 13  1  0  0  0  0
 12 33  1  0  0  0  0
 13 14  1  0  0  0  0
 14 15  1  0  0  0  0
 14 34  1  0  0  0  0
 14 35  1  0  0  0  0
 15 16  1  0  0  0  0
 15 18  1  0  0  0  0
 15 36  1  0  0  0  0
 16 17  1  0  0  0  0
 16 37  1  0  0  0  0
 16 38  1  0  0  0  0
 17 39  1  0  0  0  0
 18 22  1  0  0  0  0
 18 19  1  0  0  0  0
 18 40  1  0  0  0  0
 19 20  1  0  0  0  0
 19 41  1  0  0  0  0
 19 42  1  0  0  0  0
 20 21  1  0  0  0  0
 20 43  1  0  0  0  0
 20 44  1  0  0  0  0
 21 22  1  0  0  0  0
 22 45  1  0  0  0  0
 22 46  1  0  0  0  0
 23 24  1  0  0  0  0
 23 47  1  0  0  0  0
 23 48  1  0  0  0  0
 24 25  1  0  0  0  0
 25 26  1  0  0  0  0
 25 49  1  0  0  0  0
 25 50  1  0  0  0  0
 26 27  1  0  0  0  0
 26 28  1  0  0  0  0
 26 29  1  0  0  0  0
M  END
> <s_m_source_file>
AV-unprocessed.smi

> <i_m_source_file_index>
254

> <i_lp_mmshare_version>
43012

> <i_f3d_flags>
0

> <s_epik_input>
RkMoRikoRilbQ0gyXU4xW0NIMl1OKFtDSDJdQzE9TyljKG5bY0hdbjIpYyhjMjMpbltjSF1uM1tDSDJdW0NASF0oW0NIMl1bT0hdKVtDQEBIXTRbQ0gyXVtDSDJdT1tDSDJdNA==

> <s_epik_cmdline>
J2VwaWtfcHl0aG9uJywgJy1waCcsICc3LjAnLCAnLXRuJywgJzgnLCAnLW1hJywgJzIwMCcsICctbWV0YWxfYmluZGluZycsICctaW1hZScsICc8aW5maWxlLm1hZT4nLCAnLW9tYWUnLCAnPG91dGZpbGUubWFlPic=

> <r_lp_tautomer_probability>
1

> <r_epik_Ionization_Penalty>
0.000292924

> <r_epik_Ionization_Penalty_Charging>
0

> <r_epik_Ionization_Penalty_Neutral>
0.000292924

> <r_epik_State_Penalty>
-0

> <r_epik_Charging_Adjusted_Penalty>
0

> <i_epik_Tot_Q>
0

> <i_epik_Tot_abs_Q>
0

> <r_epik_Metal_State_Penalty>
-0

> <b_epik_Metal_Only>
0

> <s_epik_Chemistry_Notes>
This compound contains an acetal/aminal-like group ( X-CH(R)-Y where X, Y are N, S, or O) that may be acid/base labile, releasing an aldehyde.

> <s_lp_Force_Field>
OPLS_2005

> <r_lp_Energy>
43.3232

> <b_lp_Chiralities_Consistent>
1

> <s_lp_Variant>
AV-unprocessed.smi:254-3

> <Gold.Version>
5.8.1

> <Gold.Id.Protein>
6NUR|6NUR_protein|mol2

> <Gold.PLP.Fitness>
48.5136

> <Gold.PLP.PLP>
-35.7364

> <Gold.PLP.part.hbond>
-5.0000

> <Gold.PLP.part.metal>
0.0000

> <Gold.PLP.part.buried>
4.0312

> <Gold.PLP.part.nonpolar>
-39.1848

> <Gold.PLP.part.repulsive>
4.0673

> <Gold.PLP.ligand.clash>
0.0000

> <Gold.PLP.ligand.torsion>
1.3579

> <Gold.PLP.Chemscore.Hbond>
3.9913

> <Gold.PLP.Chemscore.CHOScore>
1.0000

> <Gold.PLP.Chemscore.Metal>
0.0000

> <Gold.Chemscore.Hbonds>
donor molecule, donor type, donor heavy atom, donor atom, acceptor molecule, acceptor atom, score
      L1  H    17    39       P1  7921  1.00
      P1  H  7954  7966       L1    11  0.95
      P1  H  7989  7998       L1     1  1.00
      P1  H 10192 10197       L1    17  0.86
      L1  C    12    33       P1  7921  1.00

> <Gold.PLP.Chemscore.Internal.Correction>
0.5193

> <Gold.Rescore>
     Score         DG    S(hbond)    S(metal)    S(lipo)     H(rot)  DE(clash)    DE(int)     intcor
      9.39     -16.59       3.38        0.00      81.39       3.78       4.34       2.86       ----

> <Gold.Chemscore.Fitness>
9.3873

> <Gold.Chemscore.DG>
-16.5902

> <Gold.Chemscore.ZeroCoef>
-5.4800

> <Gold.Chemscore.Hbond>
3.3756

> <Gold.Chemscore.Metal>
0.0000

> <Gold.Chemscore.Lipo>
81.3906

> <Gold.Chemscore.Internal_Hbond>
0.0000

> <Gold.Chemscore.DEClash>
4.3422

> <Gold.Chemscore.DEInternal>
2.8607

> <Gold.Chemscore.Rot>
3.7840

> <Gold.Chemscore.Internal.Correction>
   9.000000E+99

> <Gold.Chemscore.Hbonds>
donor molecule, donor type, donor heavy atom, donor atom, acceptor molecule, acceptor atom, score
      L1  H    17    39       P1  7921  0.96
      P1  H  7954  7966       L1    11  0.22
      P1  H  7989  7998       L1     1  0.45
      P1  H 10192 10197       L1    17  0.46

> <Gold.Chemscore.Hbond.Weighted>
-11.2745

> <Gold.Chemscore.Metal.Weighted>
-0.0000

> <Gold.Chemscore.Lipo.Weighted>
-9.5227

> <Gold.Chemscore.Internal_Hbond.Weighted>
0.0000

> <Gold.Chemscore.DEClash.Weighted>
4.3422

> <Gold.Chemscore.DEInternal.Weighted>
2.8607

> <Gold.Chemscore.Rot.Weighted>
9.6871

> <Gold.Chemscore.Internal.Correction.Weighted>
   9.000000E+99

> <Gold.Protein.RotatedTorsions>
[ 6907 6896 6895 6894 ] final  -45.86 input  -60.11 | X-H torsion
[ 7974 7965 7964 7962 ] final  124.72 input  175.53 | X-H torsion
[ 8008 7997 7996 7995 ] final  118.05 input   59.86 | X-H torsion
[ 10167 10162 10161 10158 ] final  133.73 input  -65.29 | X-H torsion
[ 10718 10713 10712 10709 ] final  100.48 input   66.30 | X-H torsion
[ 10763 10752 10751 10750 ] final  130.78 input  -60.55 | X-H torsion
[ 11005 11000 10999 10996 ] final -105.99 input  -57.11 | X-H torsion

> <Gold.Protein.ActiveResidues>
 VAL166  LYS551  ARG553  GLY616  TRP617  ASP618  TYR619  PRO620  LYS621  CYS622 
 ASP623  PHE694  ASN695  SER759  ASP760  ASP761  ALA762  ILE779  LEU786  VAL792 
 PHE793  MET794  SER795  GLU796  ALA797  LYS798  CYS799  TRP800  GLU811  SER814 

> <Gold.Protein.RotatedAtoms>
  150.9174  134.8592  159.7465 H   0  0  0  0  0  0  0  0  0  0  0  0  # atno 6907 bound_to 6896
  152.4975  134.4269  159.9509 H   0  0  0  0  0  0  0  0  0  0  0  0  # atno 6908 bound_to 6896
  151.4306  133.3632  159.2803 H   0  0  0  0  0  0  0  0  0  0  0  0  # atno 6909 bound_to 6896
  145.0812  139.3656  143.4908 H   0  0  0  0  0  0  0  0  0  0  0  0  # atno 7974 bound_to 7965
  156.2526  140.2883  156.0774 H   0  0  0  0  0  0  0  0  0  0  0  0  # atno 8008 bound_to 7997
  155.1604  140.0399  157.2858 H   0  0  0  0  0  0  0  0  0  0  0  0  # atno 8009 bound_to 7997
  154.6397  140.2519  155.7343 H   0  0  0  0  0  0  0  0  0  0  0  0  # atno 8010 bound_to 7997
  139.5285  144.6601  151.5038 H   0  0  0  0  0  0  0  0  0  0  0  0  # atno 10167 bound_to 10162
  157.6853  131.0699  150.5107 H   0  0  0  0  0  0  0  0  0  0  0  0  # atno 10718 bound_to 10713
  153.7637  135.3192  155.3341 H   0  0  0  0  0  0  0  0  0  0  0  0  # atno 10763 bound_to 10752
  154.8221  135.4596  154.0813 H   0  0  0  0  0  0  0  0  0  0  0  0  # atno 10764 bound_to 10752
  153.2051  135.6928  153.8266 H   0  0  0  0  0  0  0  0  0  0  0  0  # atno 10765 bound_to 10752
  141.1027  133.8855  157.1801 H   0  0  0  0  0  0  0  0  0  0  0  0  # atno 11005 bound_to 11000
  146.3531  140.0603  142.8630 LP  0  0  0  0  0  0  0  0  0  0  0  0  # atno 17320 bound_to 7965
  145.1176  140.9443  143.4619 LP  0  0  0  0  0  0  0  0  0  0  0  0  # atno 17321 bound_to 7965
  140.6446  143.8821  150.6724 LP  0  0  0  0  0  0  0  0  0  0  0  0  # atno 17342 bound_to 10162
  140.2166  143.3841  152.1676 LP  0  0  0  0  0  0  0  0  0  0  0  0  # atno 17343 bound_to 10162
  156.5425  130.4211  149.6147 LP  0  0  0  0  0  0  0  0  0  0  0  0  # atno 17370 bound_to 10713
  156.2973  130.7157  151.2021 LP  0  0  0  0  0  0  0  0  0  0  0  0  # atno 17371 bound_to 10713
  139.9884  135.0073  156.9917 LP  0  0  0  0  0  0  0  0  0  0  0  0  # atno 17394 bound_to 11000
  140.4982  134.1124  155.7245 LP  0  0  0  0  0  0  0  0  0  0  0  0  # atno 17395 bound_to 11000

$$$$
