AV-unprocessed.smi:804|AV-procd|sdf|3795|dock4
  -GOLD-   22720 1233D 1   1.00000     0.00000
 Structure written by MMmdl.
 38 39  0  0  0  0  0  0  0  0  2 V2000
  153.6495  136.6050  164.3093 C   0  0  0  0  0  0  0  0  0  0  0  0
  154.7318  136.9840  163.2828 C   0  0  0  0  0  0  0  0  0  0  0  0
  155.7204  137.9748  163.9326 C   0  0  0  0  0  0  0  0  0  0  0  0
  155.4620  135.7051  162.8219 C   0  0  0  0  0  0  0  0  0  0  0  0
  154.0473  137.6189  162.1459 N   0  5  0  0  0  0  0  0  0  0  0  0
  153.8662  137.0935  160.8963 C   0  0  0  0  0  0  0  0  0  0  0  0
  153.9617  135.9189  160.5269 O   0  0  0  0  0  0  0  0  0  0  0  0
  153.5021  138.1450  159.8725 C   0  0  0  0  0  0  0  0  0  0  0  0
  153.3520  139.4232  160.3056 N   0  0  0  0  0  0  0  0  0  0  0  0
  153.0195  140.3741  159.4269 C   0  0  0  0  0  0  0  0  0  0  0  0
  152.8790  141.6818  159.9103 N   0  0  0  0  0  0  0  0  0  0  0  0
  153.3478  142.0664  161.2443 C   0  0  0  0  0  0  0  0  0  0  0  0
  152.4794  143.1951  161.8248 C   0  0  0  0  0  0  0  0  0  0  0  0
  152.4497  144.2942  160.9225 O   0  0  0  0  0  0  0  0  0  0  0  0
  151.8749  143.9293  159.6738 C   0  0  0  0  0  0  0  0  0  0  0  0
  152.7190  142.8273  159.0114 C   0  0  0  0  0  0  0  0  0  0  0  0
  152.8095  140.1672  158.1219 N   0  0  0  0  0  0  0  0  0  0  0  0
  152.9514  138.9084  157.6596 C   0  0  0  0  0  0  0  0  0  0  0  0
  153.3043  137.8351  158.4998 C   0  0  0  0  0  0  0  0  0  0  0  0
  153.5041  136.2559  157.8188 Cl  0  0  0  0  0  0  0  0  0  0  0  0
  154.0868  136.1256  165.1856 H   0  0  0  0  0  0  0  0  0  0  0  0
  152.9225  135.9106  163.8859 H   0  0  0  0  0  0  0  0  0  0  0  0
  153.1022  137.4827  164.6562 H   0  0  0  0  0  0  0  0  0  0  0  0
  155.2212  138.8970  164.2335 H   0  0  0  0  0  0  0  0  0  0  0  0
  156.5342  138.2441  163.2592 H   0  0  0  0  0  0  0  0  0  0  0  0
  156.1751  137.5438  164.8249 H   0  0  0  0  0  0  0  0  0  0  0  0
  155.9000  135.1781  163.6700 H   0  0  0  0  0  0  0  0  0  0  0  0
  156.2749  135.9239  162.1295 H   0  0  0  0  0  0  0  0  0  0  0  0
  154.7807  135.0138  162.3244 H   0  0  0  0  0  0  0  0  0  0  0  0
  153.3306  141.2305  161.9438 H   0  0  0  0  0  0  0  0  0  0  0  0
  154.3855  142.3927  161.1683 H   0  0  0  0  0  0  0  0  0  0  0  0
  151.4656  142.8429  162.0222 H   0  0  0  0  0  0  0  0  0  0  0  0
  152.8901  143.5300  162.7773 H   0  0  0  0  0  0  0  0  0  0  0  0
  150.8452  143.5971  159.8166 H   0  0  0  0  0  0  0  0  0  0  0  0
  151.8384  144.8091  159.0313 H   0  0  0  0  0  0  0  0  0  0  0  0
  153.7072  143.2128  158.7587 H   0  0  0  0  0  0  0  0  0  0  0  0
  152.2390  142.5488  158.0738 H   0  0  0  0  0  0  0  0  0  0  0  0
  152.7881  138.7580  156.6027 H   0  0  0  0  0  0  0  0  0  0  0  0
  1  2  1  0  0  0  0
  1 21  1  0  0  0  0
  1 22  1  0  0  0  0
  1 23  1  0  0  0  0
  2  3  1  0  0  0  0
  2  4  1  0  0  0  0
  2  5  1  0  0  0  0
  3 24  1  0  0  0  0
  3 25  1  0  0  0  0
  3 26  1  0  0  0  0
  4 27  1  0  0  0  0
  4 28  1  0  0  0  0
  4 29  1  0  0  0  0
  5  6  1  0  0  0  0
  6  7  2  0  0  0  0
  6  8  1  0  0  0  0
  8 19  1  0  0  0  0
  8  9  2  0  0  0  0
  9 10  1  0  0  0  0
 10 11  1  0  0  0  0
 10 17  2  0  0  0  0
 11 16  1  0  0  0  0
 11 12  1  0  0  0  0
 12 13  1  0  0  0  0
 12 30  1  0  0  0  0
 12 31  1  0  0  0  0
 13 14  1  0  0  0  0
 13 32  1  0  0  0  0
 13 33  1  0  0  0  0
 14 15  1  0  0  0  0
 15 16  1  0  0  0  0
 15 34  1  0  0  0  0
 15 35  1  0  0  0  0
 16 36  1  0  0  0  0
 16 37  1  0  0  0  0
 17 18  1  0  0  0  0
 18 19  2  0  0  0  0
 18 38  1  0  0  0  0
 19 20  1  0  0  0  0
M  CHG  1   5  -1
M  END
> <s_m_source_file>
AV-unprocessed.smi

> <i_m_source_file_index>
804

> <i_lp_mmshare_version>
43012

> <i_f3d_flags>
0

> <s_epik_input>
W0NIM11DKFtDSDNdKShbQ0gzXSlbTkhdQyg9TyljMW5jKG5bY0hdYzFDbClOMltDSDJdW0NIMl1PW0NIMl1bQ0gyXTI=

> <s_epik_cmdline>
J2VwaWtfcHl0aG9uJywgJy1waCcsICc3LjAnLCAnLXRuJywgJzgnLCAnLW1hJywgJzIwMCcsICctbWV0YWxfYmluZGluZycsICctaW1hZScsICc8aW5maWxlLm1hZT4nLCAnLW9tYWUnLCAnPG91dGZpbGUubWFlPic=

> <r_lp_tautomer_probability>
1

> <r_epik_Ionization_Penalty>
6.49938

> <r_epik_Ionization_Penalty_Charging>
6.49935

> <r_epik_Ionization_Penalty_Neutral>
2.43511e-05

> <r_epik_State_Penalty>
6.49934

> <r_epik_Charging_Adjusted_Penalty>
12.9987

> <i_epik_Tot_Q>
-1

> <i_epik_Tot_abs_Q>
1

> <r_epik_Metal_State_Penalty>
2.42664

> <b_epik_Metal_Only>
1

> <s_lp_Force_Field>
OPLS_2005

> <r_lp_Energy>
19.224

> <b_lp_Chiralities_Consistent>
1

> <s_lp_Variant>
AV-unprocessed.smi:804-2

> <Gold.Version>
5.8.1

> <Gold.Id.Protein>
6NUR|6NUR_protein|mol2

> <Gold.PLP.Fitness>
40.6890

> <Gold.PLP.PLP>
-38.1624

> <Gold.PLP.part.hbond>
-2.0000

> <Gold.PLP.part.metal>
0.0000

> <Gold.PLP.part.buried>
-2.0019

> <Gold.PLP.part.nonpolar>
-32.8122

> <Gold.PLP.part.repulsive>
0.1108

> <Gold.PLP.ligand.clash>
0.0000

> <Gold.PLP.ligand.torsion>
0.3018

> <Gold.PLP.Chemscore.Hbond>
1.0000

> <Gold.PLP.Chemscore.CHOScore>
0.0000

> <Gold.PLP.Chemscore.Metal>
0.0000

> <Gold.Chemscore.Hbonds>
donor molecule, donor type, donor heavy atom, donor atom, acceptor molecule, acceptor atom, score
      P1  H  6896  6907       L1     7  1.00

> <Gold.PLP.Chemscore.Internal.Correction>
0.1300

> <Gold.Rescore>
     Score         DG    S(hbond)    S(metal)    S(lipo)     H(rot)  DE(clash)    DE(int)     intcor
     14.09     -17.29       0.99        0.00      94.40       1.00       0.05       3.14       ----

> <Gold.Chemscore.Fitness>
14.0949

> <Gold.Chemscore.DG>
-17.2856

> <Gold.Chemscore.ZeroCoef>
-5.4800

> <Gold.Chemscore.Hbond>
0.9942

> <Gold.Chemscore.Metal>
0.0000

> <Gold.Chemscore.Lipo>
94.4015

> <Gold.Chemscore.Internal_Hbond>
0.0000

> <Gold.Chemscore.DEClash>
0.0524

> <Gold.Chemscore.DEInternal>
3.1383

> <Gold.Chemscore.Rot>
1.0000

> <Gold.Chemscore.Internal.Correction>
   9.000000E+99

> <Gold.Chemscore.Hbonds>
donor molecule, donor type, donor heavy atom, donor atom, acceptor molecule, acceptor atom, score
      P1  H  6896  6907       L1     7  0.95

> <Gold.Chemscore.Hbond.Weighted>
-3.3206

> <Gold.Chemscore.Metal.Weighted>
-0.0000

> <Gold.Chemscore.Lipo.Weighted>
-11.0450

> <Gold.Chemscore.Internal_Hbond.Weighted>
0.0000

> <Gold.Chemscore.DEClash.Weighted>
0.0524

> <Gold.Chemscore.DEInternal.Weighted>
3.1383

> <Gold.Chemscore.Rot.Weighted>
2.5600

> <Gold.Chemscore.Internal.Correction.Weighted>
   9.000000E+99

> <Gold.Protein.RotatedTorsions>
[ 6907 6896 6895 6894 ] final   52.99 input  -60.11 | X-H torsion
[ 7974 7965 7964 7962 ] final -144.42 input  175.53 | X-H torsion
[ 8008 7997 7996 7995 ] final  -65.77 input   59.86 | X-H torsion
[ 10167 10162 10161 10158 ] final  -72.35 input  -65.29 | X-H torsion
[ 10718 10713 10712 10709 ] final  160.56 input   66.30 | X-H torsion
[ 10763 10752 10751 10750 ] final   31.75 input  -60.55 | X-H torsion
[ 11005 11000 10999 10996 ] final  -80.68 input  -57.11 | X-H torsion

> <Gold.Protein.ActiveResidues>
 VAL166  LYS551  ARG553  GLY616  TRP617  ASP618  TYR619  PRO620  LYS621  CYS622 
 ASP623  PHE694  ASN695  SER759  ASP760  ASP761  ALA762  ILE779  LEU786  VAL792 
 PHE793  MET794  SER795  GLU796  ALA797  LYS798  CYS799  TRP800  GLU811  SER814 

> <Gold.Protein.RotatedAtoms>
  152.3290  134.7283  160.0294 H   0  0  0  0  0  0  0  0  0  0  0  0  # atno 6907 bound_to 6896
  151.7706  133.3335  159.3451 H   0  0  0  0  0  0  0  0  0  0  0  0  # atno 6908 bound_to 6896
  150.7412  134.5954  159.6053 H   0  0  0  0  0  0  0  0  0  0  0  0  # atno 6909 bound_to 6896
  144.8299  140.5712  143.5522 H   0  0  0  0  0  0  0  0  0  0  0  0  # atno 7974 bound_to 7965
  154.4692  140.0926  156.7100 H   0  0  0  0  0  0  0  0  0  0  0  0  # atno 8008 bound_to 7997
  155.4771  140.3466  155.4316 H   0  0  0  0  0  0  0  0  0  0  0  0  # atno 8009 bound_to 7997
  156.1010  140.1422  156.9456 H   0  0  0  0  0  0  0  0  0  0  0  0  # atno 8010 bound_to 7997
  140.5199  143.2333  151.7448 H   0  0  0  0  0  0  0  0  0  0  0  0  # atno 10167 bound_to 10162
  157.1487  131.0558  151.2291 H   0  0  0  0  0  0  0  0  0  0  0  0  # atno 10718 bound_to 10713
  153.0299  135.6431  154.1248 H   0  0  0  0  0  0  0  0  0  0  0  0  # atno 10763 bound_to 10752
  154.0971  135.2862  155.3261 H   0  0  0  0  0  0  0  0  0  0  0  0  # atno 10764 bound_to 10752
  154.6424  135.5455  153.7868 H   0  0  0  0  0  0  0  0  0  0  0  0  # atno 10765 bound_to 10752
  141.1667  133.7161  156.8310 H   0  0  0  0  0  0  0  0  0  0  0  0  # atno 11005 bound_to 11000
  145.4919  139.1488  143.3705 LP  0  0  0  0  0  0  0  0  0  0  0  0  # atno 17320 bound_to 7965
  146.2602  140.5057  142.8856 LP  0  0  0  0  0  0  0  0  0  0  0  0  # atno 17321 bound_to 7965
  139.4920  144.4269  151.9915 LP  0  0  0  0  0  0  0  0  0  0  0  0  # atno 17342 bound_to 10162
  140.3366  144.3254  150.5976 LP  0  0  0  0  0  0  0  0  0  0  0  0  # atno 17343 bound_to 10162
  157.4240  130.7453  149.6936 LP  0  0  0  0  0  0  0  0  0  0  0  0  # atno 17370 bound_to 10713
  155.9774  130.4063  150.3712 LP  0  0  0  0  0  0  0  0  0  0  0  0  # atno 17371 bound_to 10713
  140.2051  134.8868  157.3213 LP  0  0  0  0  0  0  0  0  0  0  0  0  # atno 17394 bound_to 11000
  140.2146  134.4097  155.7596 LP  0  0  0  0  0  0  0  0  0  0  0  0  # atno 17395 bound_to 11000

$$$$
