AV-unprocessed.smi:2226|AV-procd|sdf|9018|dock6
  -GOLD-   2272012223D 1   1.00000     0.00000
 Structure written by MMmdl.
 39 41  0  0  0  0  0  0  0  0  3 V2000
  150.4311  141.9236  157.6025 C   0  0  0  0  0  0  0  0  0  0  0  0
  149.4994  141.6688  156.4781 N   0  3  2  0  0  0  0  0  0  0  0  0
  148.0891  141.4432  156.8774 C   0  0  1  0  0  0  0  0  0  0  0  0
  147.1823  141.6266  155.6379 C   0  0  0  0  0  0  0  0  0  0  0  0
  147.6001  140.7647  154.4293 C   0  0  0  0  0  0  0  0  0  0  0  0
  149.1282  140.7480  154.2204 C   0  0  0  0  0  0  0  0  0  0  0  0
  149.9370  140.6134  155.5321 C   0  0  2  0  0  0  0  0  0  0  0  0
  149.8796  139.2119  156.1882 C   0  0  0  0  0  0  0  0  0  0  0  0
  148.5336  138.8727  156.8687 C   0  0  1  0  0  0  0  0  0  0  0  0
  148.7415  137.7682  157.8026 N   0  0  0  0  0  0  0  0  0  0  0  0
  147.8761  137.3458  158.7365 C   0  0  0  0  0  0  0  0  0  0  0  0
  146.7904  137.9158  158.8605 O   0  0  0  0  0  0  0  0  0  0  0  0
  148.3413  136.2945  159.4552 N   0  5  0  0  0  0  0  0  0  0  0  0
  147.9112  135.9650  160.6921 C   0  0  0  0  0  0  0  0  0  0  0  0
  147.7386  134.7544  161.2378 N   0  0  0  0  0  0  0  0  0  0  0  0
  147.2822  134.9663  162.5286 C   0  0  0  0  0  0  0  0  0  0  0  0
  147.1931  136.3164  162.7209 C   0  0  0  0  0  0  0  0  0  0  0  0
  147.5850  136.9516  161.5755 O   0  0  0  0  0  0  0  0  0  0  0  0
  147.9214  140.0886  157.6083 C   0  0  0  0  0  0  0  0  0  0  0  0
  150.5229  141.0654  158.2678 H   0  0  0  0  0  0  0  0  0  0  0  0
  150.0879  142.7731  158.1937 H   0  0  0  0  0  0  0  0  0  0  0  0
  151.4248  142.1654  157.2246 H   0  0  0  0  0  0  0  0  0  0  0  0
  147.8115  142.2287  157.5818 H   0  0  0  0  0  0  0  0  0  0  0  0
  146.1407  141.4313  155.8949 H   0  0  0  0  0  0  0  0  0  0  0  0
  147.2230  142.6748  155.3380 H   0  0  0  0  0  0  0  0  0  0  0  0
  147.2207  139.7522  154.5374 H   0  0  0  0  0  0  0  0  0  0  0  0
  147.1147  141.1424  153.5289 H   0  0  0  0  0  0  0  0  0  0  0  0
  149.4020  139.9580  153.5205 H   0  0  0  0  0  0  0  0  0  0  0  0
  149.4148  141.6836  153.7387 H   0  0  0  0  0  0  0  0  0  0  0  0
  150.9788  140.8084  155.2740 H   0  0  0  0  0  0  0  0  0  0  0  0
  150.1240  138.4451  155.4521 H   0  0  0  0  0  0  0  0  0  0  0  0
  150.6753  139.1559  156.9324 H   0  0  0  0  0  0  0  0  0  0  0  0
  147.8406  138.5232  156.1072 H   0  0  0  0  0  0  0  0  0  0  0  0
  149.6171  137.2704  157.7324 H   0  0  0  0  0  0  0  0  0  0  0  0
  147.0605  134.1493  163.1990 H   0  0  0  0  0  0  0  0  0  0  0  0
  146.8929  136.9415  163.5484 H   0  0  0  0  0  0  0  0  0  0  0  0
  148.3892  140.1739  158.5900 H   0  0  0  0  0  0  0  0  0  0  0  0
  146.8655  139.9067  157.8113 H   0  0  0  0  0  0  0  0  0  0  0  0
  149.4982  142.5278  155.9468 H   0  0  0  0  0  0  0  0  0  0  0  0
  1  2  1  0  0  0  0
  1 20  1  0  0  0  0
  1 21  1  0  0  0  0
  1 22  1  0  0  0  0
  2  7  1  0  0  0  0
  2  3  1  0  0  0  0
  2 39  1  0  0  0  0
  3 19  1  0  0  0  0
  3  4  1  0  0  0  0
  3 23  1  0  0  0  0
  4  5  1  0  0  0  0
  4 24  1  0  0  0  0
  4 25  1  0  0  0  0
  5  6  1  0  0  0  0
  5 26  1  0  0  0  0
  5 27  1  0  0  0  0
  6  7  1  0  0  0  0
  6 28  1  0  0  0  0
  6 29  1  0  0  0  0
  7  8  1  0  0  0  0
  7 30  1  0  0  0  0
  8  9  1  0  0  0  0
  8 31  1  0  0  0  0
  8 32  1  0  0  0  0
  9 10  1  0  0  0  0
  9 19  1  0  0  0  0
  9 33  1  0  0  0  0
 10 34  1  0  0  0  0
 10 11  1  0  0  0  0
 11 13  1  0  0  0  0
 11 12  2  0  0  0  0
 13 14  1  0  0  0  0
 14 18  1  0  0  0  0
 14 15  2  0  0  0  0
 15 16  1  0  0  0  0
 16 35  1  0  0  0  0
 16 17  2  0  0  0  0
 17 36  1  0  0  0  0
 17 18  1  0  0  0  0
 19 37  1  0  0  0  0
 19 38  1  0  0  0  0
M  CHG  1   2   1
M  CHG  1  13  -1
M  END
> <s_m_source_file>
AV-unprocessed.smi

> <i_m_source_file_index>
2226

> <i_lp_mmshare_version>
43012

> <i_f3d_flags>
0

> <s_epik_input>
W0NIMl0xW0NIMl1bQ0gyXVtDQEhdKE4oW0NIM10pW0NIXTEyKVtDSDJdW0NASF0oW0NIMl0yKVtOSF1DKD1PKVtOSF1jM25bY0hdW2NIXW8z

> <s_epik_cmdline>
J2VwaWtfcHl0aG9uJywgJy1waCcsICc3LjAnLCAnLXRuJywgJzgnLCAnLW1hJywgJzIwMCcsICctbWV0YWxfYmluZGluZycsICctaW1hZScsICc8aW5maWxlLm1hZT4nLCAnLW9tYWUnLCAnPG91dGZpbGUubWFlPic=

> <r_lp_tautomer_probability>
0.107061

> <r_epik_Ionization_Penalty>
10.5612

> <r_epik_Ionization_Penalty_Charging>
7.48913

> <r_epik_Ionization_Penalty_Neutral>
3.07202

> <r_epik_State_Penalty>
5.6431

> <r_epik_Charging_Adjusted_Penalty>
13.1322

> <i_epik_Tot_Q>
0

> <i_epik_Tot_abs_Q>
2

> <r_epik_Metal_State_Penalty>
1.58163

> <b_epik_Metal_Only>
1

> <s_lp_Force_Field>
OPLS_2005

> <r_lp_Energy>
28.9751

> <b_lp_Chiralities_Consistent>
1

> <s_lp_Variant>
AV-unprocessed.smi:2226-18

> <Gold.Version>
5.8.1

> <Gold.Id.Protein>
6NUR|6NUR_protein|mol2

> <Gold.PLP.Fitness>
39.6447

> <Gold.PLP.PLP>
-29.3074

> <Gold.PLP.part.hbond>
-4.0000

> <Gold.PLP.part.metal>
0.0000

> <Gold.PLP.part.buried>
-3.3055

> <Gold.PLP.part.nonpolar>
-22.0735

> <Gold.PLP.part.repulsive>
0.1216

> <Gold.PLP.ligand.clash>
0.0000

> <Gold.PLP.ligand.torsion>
0.5479

> <Gold.PLP.Chemscore.Hbond>
3.8080

> <Gold.PLP.Chemscore.CHOScore>
0.0000

> <Gold.PLP.Chemscore.Metal>
0.0000

> <Gold.Chemscore.Hbonds>
donor molecule, donor type, donor heavy atom, donor atom, acceptor molecule, acceptor atom, score
      L1  H     2    39       P1  8028  0.68
      P1  H  6931  6943       L1    18  1.00
      P1  H  6934  6947       L1    18  0.47

> <Gold.PLP.Chemscore.Internal.Correction>
0.0091

> <Gold.Rescore>
     Score         DG    S(hbond)    S(metal)    S(lipo)     H(rot)  DE(clash)    DE(int)     intcor
     15.91     -17.88       2.46        0.00      57.61       1.00       0.00       1.97       ----

> <Gold.Chemscore.Fitness>
15.9067

> <Gold.Chemscore.DG>
-17.8800

> <Gold.Chemscore.ZeroCoef>
-5.4800

> <Gold.Chemscore.Hbond>
2.4609

> <Gold.Chemscore.Metal>
0.0000

> <Gold.Chemscore.Lipo>
57.6113

> <Gold.Chemscore.Internal_Hbond>
0.0000

> <Gold.Chemscore.DEClash>
0.0048

> <Gold.Chemscore.DEInternal>
1.9685

> <Gold.Chemscore.Rot>
1.0000

> <Gold.Chemscore.Internal.Correction>
   9.000000E+99

> <Gold.Chemscore.Hbonds>
donor molecule, donor type, donor heavy atom, donor atom, acceptor molecule, acceptor atom, score
      L1  H     2    39       P1  8028  0.34
      P1  H  6931  6943       L1    18  0.71
      P1  H  6934  6947       L1    18  0.48

> <Gold.Chemscore.Hbond.Weighted>
-8.2194

> <Gold.Chemscore.Metal.Weighted>
-0.0000

> <Gold.Chemscore.Lipo.Weighted>
-6.7405

> <Gold.Chemscore.Internal_Hbond.Weighted>
0.0000

> <Gold.Chemscore.DEClash.Weighted>
0.0048

> <Gold.Chemscore.DEInternal.Weighted>
1.9685

> <Gold.Chemscore.Rot.Weighted>
2.5600

> <Gold.Chemscore.Internal.Correction.Weighted>
   9.000000E+99

> <Gold.Protein.RotatedTorsions>
[ 6907 6896 6895 6894 ] final -171.40 input  -60.11 | X-H torsion
[ 7974 7965 7964 7962 ] final  121.48 input  175.53 | X-H torsion
[ 8008 7997 7996 7995 ] final -121.58 input   59.86 | X-H torsion
[ 10167 10162 10161 10158 ] final  169.93 input  -65.29 | X-H torsion
[ 10718 10713 10712 10709 ] final -145.25 input   66.30 | X-H torsion
[ 10763 10752 10751 10750 ] final  -88.45 input  -60.55 | X-H torsion
[ 11005 11000 10999 10996 ] final  107.67 input  -57.11 | X-H torsion

> <Gold.Protein.ActiveResidues>
 VAL166  LYS551  ARG553  GLY616  TRP617  ASP618  TYR619  PRO620  LYS621  CYS622 
 ASP623  PHE694  ASN695  SER759  ASP760  ASP761  ALA762  ILE779  LEU786  VAL792 
 PHE793  MET794  SER795  GLU796  ALA797  LYS798  CYS799  TRP800  GLU811  SER814 

> <Gold.Protein.RotatedAtoms>
  151.5232  133.3462  159.2904 H   0  0  0  0  0  0  0  0  0  0  0  0  # atno 6907 bound_to 6896
  150.8640  134.8001  159.7115 H   0  0  0  0  0  0  0  0  0  0  0  0  # atno 6908 bound_to 6896
  152.4650  134.5105  159.9804 H   0  0  0  0  0  0  0  0  0  0  0  0  # atno 6909 bound_to 6896
  145.1188  139.3403  143.4725 H   0  0  0  0  0  0  0  0  0  0  0  0  # atno 7974 bound_to 7965
  155.1503  140.0403  157.2819 H   0  0  0  0  0  0  0  0  0  0  0  0  # atno 8008 bound_to 7997
  154.6409  140.2546  155.7296 H   0  0  0  0  0  0  0  0  0  0  0  0  # atno 8009 bound_to 7997
  156.2532  140.2856  156.0802 H   0  0  0  0  0  0  0  0  0  0  0  0  # atno 8010 bound_to 7997
  139.5005  144.3652  151.9782 H   0  0  0  0  0  0  0  0  0  0  0  0  # atno 10167 bound_to 10162
  156.3802  130.7833  151.2024 H   0  0  0  0  0  0  0  0  0  0  0  0  # atno 10718 bound_to 10713
  154.6447  135.5376  153.7830 H   0  0  0  0  0  0  0  0  0  0  0  0  # atno 10763 bound_to 10752
  153.0353  135.6468  154.1107 H   0  0  0  0  0  0  0  0  0  0  0  0  # atno 10764 bound_to 10752
  154.1029  135.2932  155.3227 H   0  0  0  0  0  0  0  0  0  0  0  0  # atno 10765 bound_to 10752
  139.8832  134.9408  156.5855 H   0  0  0  0  0  0  0  0  0  0  0  0  # atno 11005 bound_to 11000
  146.3522  140.1139  142.8603 LP  0  0  0  0  0  0  0  0  0  0  0  0  # atno 17320 bound_to 7965
  145.0763  140.9190  143.4852 LP  0  0  0  0  0  0  0  0  0  0  0  0  # atno 17321 bound_to 7965
  140.3088  144.3561  150.6039 LP  0  0  0  0  0  0  0  0  0  0  0  0  # atno 17342 bound_to 10162
  140.5815  143.2172  151.7420 LP  0  0  0  0  0  0  0  0  0  0  0  0  # atno 17343 bound_to 10162
  157.7491  131.0346  150.4326 LP  0  0  0  0  0  0  0  0  0  0  0  0  # atno 17370 bound_to 10713
  156.4569  130.4023  149.6601 LP  0  0  0  0  0  0  0  0  0  0  0  0  # atno 17371 bound_to 10713
  140.7994  133.8517  155.8714 LP  0  0  0  0  0  0  0  0  0  0  0  0  # atno 17394 bound_to 11000
  140.9606  134.1661  157.4657 LP  0  0  0  0  0  0  0  0  0  0  0  0  # atno 17395 bound_to 11000

$$$$
