AV-unprocessed.smi:3001|AV-procd|sdf|11432|dock5
  -GOLD-   2272016363D 1   1.00000     0.00000
 Structure written by MMmdl.
 42 43  0  0  0  0  0  0  0  0  2 V2000
  147.5168  136.7659  162.9498 C   0  0  0  0  0  0  0  0  0  0  0  0
  147.2036  135.8251  162.2373 C   0  0  0  0  0  0  0  0  0  0  0  0
  146.8157  134.6884  161.3856 C   0  0  0  0  0  0  0  0  0  0  0  0
  146.5371  135.0865  160.0103 N   0  0  0  0  0  0  0  0  0  0  0  0
  147.4598  135.3028  159.0599 C   0  0  0  0  0  0  0  0  0  0  0  0
  148.6716  135.1990  159.2559 O   0  0  0  0  0  0  0  0  0  0  0  0
  146.9234  135.7220  157.6855 C   0  0  0  0  0  0  0  0  0  0  0  0
  147.0350  137.1592  157.4477 N   0  0  0  0  0  0  0  0  0  0  0  0
  148.1780  137.8591  157.4933 C   0  0  0  0  0  0  0  0  0  0  0  0
  149.2789  137.3534  157.7122 O   0  0  0  0  0  0  0  0  0  0  0  0
  147.9583  139.1692  157.2940 N   0  0  0  0  0  0  0  0  0  0  0  0
  148.9105  140.2250  157.3539 C   0  0  0  0  0  0  0  0  0  0  0  0
  150.1024  140.0875  158.1103 C   0  0  0  0  0  0  0  0  0  0  0  0
  151.0637  141.1153  158.1006 C   0  0  0  0  0  0  0  0  0  0  0  0
  150.8269  142.2597  157.3203 C   0  0  0  0  0  0  0  0  0  0  0  0
  149.6895  142.3553  156.6015 N   0  3  0  0  0  0  0  0  0  0  0  0
  148.7187  141.4075  156.5816 C   0  0  0  0  0  0  0  0  0  0  0  0
  147.5736  141.6534  155.7897 N   0  0  0  0  0  0  0  0  0  0  0  0
  147.6863  141.7513  154.3391 C   0  0  0  0  0  0  0  0  0  0  0  0
  146.3631  142.3564  153.8788 C   0  0  0  0  0  0  0  0  0  0  0  0
  146.0249  143.3115  155.0196 C   0  0  0  0  0  0  0  0  0  0  0  0
  146.5681  142.5998  156.2631 C   0  0  0  0  0  0  0  0  0  0  0  0
  147.7885  137.5875  163.5739 H   0  0  0  0  0  0  0  0  0  0  0  0
  147.6010  133.9325  161.4321 H   0  0  0  0  0  0  0  0  0  0  0  0
  145.9170  134.2422  161.8111 H   0  0  0  0  0  0  0  0  0  0  0  0
  145.5658  135.2036  159.7607 H   0  0  0  0  0  0  0  0  0  0  0  0
  147.4379  135.1712  156.8958 H   0  0  0  0  0  0  0  0  0  0  0  0
  145.8708  135.4446  157.6263 H   0  0  0  0  0  0  0  0  0  0  0  0
  146.1750  137.6559  157.2674 H   0  0  0  0  0  0  0  0  0  0  0  0
  146.9923  139.4533  157.2206 H   0  0  0  0  0  0  0  0  0  0  0  0
  150.3042  139.1952  158.6834 H   0  0  0  0  0  0  0  0  0  0  0  0
  151.9743  141.0198  158.6738 H   0  0  0  0  0  0  0  0  0  0  0  0
  151.5089  143.0944  157.2460 H   0  0  0  0  0  0  0  0  0  0  0  0
  148.5072  142.4150  154.0649 H   0  0  0  0  0  0  0  0  0  0  0  0
  147.8648  140.7759  153.8859 H   0  0  0  0  0  0  0  0  0  0  0  0
  146.4364  142.8531  152.9110 H   0  0  0  0  0  0  0  0  0  0  0  0
  145.6012  141.5791  153.8052 H   0  0  0  0  0  0  0  0  0  0  0  0
  146.5543  144.2543  154.8753 H   0  0  0  0  0  0  0  0  0  0  0  0
  144.9596  143.5321  155.0895 H   0  0  0  0  0  0  0  0  0  0  0  0
  145.7674  142.0443  156.7520 H   0  0  0  0  0  0  0  0  0  0  0  0
  146.9767  143.3122  156.9811 H   0  0  0  0  0  0  0  0  0  0  0  0
  149.5474  143.1981  156.0449 H   0  0  0  0  0  0  0  0  0  0  0  0
  1  2  3  0  0  0  0
  1 23  1  0  0  0  0
  2  3  1  0  0  0  0
  3  4  1  0  0  0  0
  3 24  1  0  0  0  0
  3 25  1  0  0  0  0
  4  5  1  0  0  0  0
  4 26  1  0  0  0  0
  5  6  2  0  0  0  0
  5  7  1  0  0  0  0
  7  8  1  0  0  0  0
  7 27  1  0  0  0  0
  7 28  1  0  0  0  0
  8  9  1  0  0  0  0
  8 29  1  0  0  0  0
  9 10  2  0  0  0  0
  9 11  1  0  0  0  0
 11 12  1  0  0  0  0
 11 30  1  0  0  0  0
 12 17  1  0  0  0  0
 12 13  2  0  0  0  0
 13 14  1  0  0  0  0
 13 31  1  0  0  0  0
 14 15  2  0  0  0  0
 14 32  1  0  0  0  0
 15 16  1  0  0  0  0
 15 33  1  0  0  0  0
 16 17  2  0  0  0  0
 16 42  1  0  0  0  0
 17 18  1  0  0  0  0
 18 22  1  0  0  0  0
 18 19  1  0  0  0  0
 19 20  1  0  0  0  0
 19 34  1  0  0  0  0
 19 35  1  0  0  0  0
 20 21  1  0  0  0  0
 20 36  1  0  0  0  0
 20 37  1  0  0  0  0
 21 22  1  0  0  0  0
 21 38  1  0  0  0  0
 21 39  1  0  0  0  0
 22 40  1  0  0  0  0
 22 41  1  0  0  0  0
M  CHG  1  16   1
M  END
> <s_m_source_file>
AV-unprocessed.smi

> <i_m_source_file_index>
3001

> <i_lp_mmshare_version>
43012

> <i_f3d_flags>
0

> <s_epik_input>
W0NIXSNDW0NIMl1bTkhdQyg9TylbQ0gyXVtOSF1DKD1PKVtOSF1jMVtjSF1bY0hdW2NIXW5jMU4yW0NIMl1bQ0gyXVtDSDJdW0NIMl0y

> <s_epik_cmdline>
J2VwaWtfcHl0aG9uJywgJy1waCcsICc3LjAnLCAnLXRuJywgJzgnLCAnLW1hJywgJzIwMCcsICctbWV0YWxfYmluZGluZycsICctaW1hZScsICc8aW5maWxlLm1hZT4nLCAnLW9tYWUnLCAnPG91dGZpbGUubWFlPic=

> <r_lp_tautomer_probability>
0.999994

> <r_epik_Ionization_Penalty>
0.644915

> <r_epik_Ionization_Penalty_Charging>
0.644896

> <r_epik_Ionization_Penalty_Neutral>
1.90142e-05

> <r_epik_State_Penalty>
0.662902

> <r_epik_Charging_Adjusted_Penalty>
1.3078

> <i_epik_Tot_Q>
1

> <i_epik_Tot_abs_Q>
1

> <r_epik_Metal_State_Penalty>
0.837036

> <b_epik_Metal_Only>
0

> <s_lp_Force_Field>
OPLS_2005

> <r_lp_Energy>
32.9475

> <b_lp_Chiralities_Consistent>
1

> <s_lp_Variant>
AV-unprocessed.smi:3001-2

> <Gold.Version>
5.8.1

> <Gold.Id.Protein>
6NUR|6NUR_protein|mol2

> <Gold.PLP.Fitness>
39.8257

> <Gold.PLP.PLP>
-31.9719

> <Gold.PLP.part.hbond>
-2.0000

> <Gold.PLP.part.metal>
0.0000

> <Gold.PLP.part.buried>
-5.0846

> <Gold.PLP.part.nonpolar>
-24.8987

> <Gold.PLP.part.repulsive>
0.2285

> <Gold.PLP.ligand.clash>
0.0000

> <Gold.PLP.ligand.torsion>
0.7725

> <Gold.PLP.Chemscore.Hbond>
3.0000

> <Gold.PLP.Chemscore.CHOScore>
0.0000

> <Gold.PLP.Chemscore.Metal>
0.0000

> <Gold.Chemscore.Hbonds>
donor molecule, donor type, donor heavy atom, donor atom, acceptor molecule, acceptor atom, score
      L1  H    16    42       P1  8028  2.00
      P1  H  6896  6907       L1     6  0.81

> <Gold.PLP.Chemscore.Internal.Correction>
0.3988

> <Gold.Rescore>
     Score         DG    S(hbond)    S(metal)    S(lipo)     H(rot)  DE(clash)    DE(int)     intcor
     11.88     -15.31       1.99        0.00      67.83       1.85       0.02       3.41       ----

> <Gold.Chemscore.Fitness>
11.8828

> <Gold.Chemscore.DG>
-15.3105

> <Gold.Chemscore.ZeroCoef>
-5.4800

> <Gold.Chemscore.Hbond>
1.9888

> <Gold.Chemscore.Metal>
0.0000

> <Gold.Chemscore.Lipo>
67.8272

> <Gold.Chemscore.Internal_Hbond>
0.0000

> <Gold.Chemscore.DEClash>
0.0166

> <Gold.Chemscore.DEInternal>
3.4111

> <Gold.Chemscore.Rot>
1.8547

> <Gold.Chemscore.Internal.Correction>
   9.000000E+99

> <Gold.Chemscore.Hbonds>
donor molecule, donor type, donor heavy atom, donor atom, acceptor molecule, acceptor atom, score
      L1  H    16    42       P1  8028  0.98
      P1  H  6896  6907       L1     6  0.78

> <Gold.Chemscore.Hbond.Weighted>
-6.6426

> <Gold.Chemscore.Metal.Weighted>
-0.0000

> <Gold.Chemscore.Lipo.Weighted>
-7.9358

> <Gold.Chemscore.Internal_Hbond.Weighted>
0.0000

> <Gold.Chemscore.DEClash.Weighted>
0.0166

> <Gold.Chemscore.DEInternal.Weighted>
3.4111

> <Gold.Chemscore.Rot.Weighted>
4.7479

> <Gold.Chemscore.Internal.Correction.Weighted>
   9.000000E+99

> <Gold.Protein.RotatedTorsions>
[ 6907 6896 6895 6894 ] final  -73.66 input  -60.11 | X-H torsion
[ 7974 7965 7964 7962 ] final   59.82 input  175.53 | X-H torsion
[ 8008 7997 7996 7995 ] final  -49.58 input   59.86 | X-H torsion
[ 10167 10162 10161 10158 ] final -101.34 input  -65.29 | X-H torsion
[ 10718 10713 10712 10709 ] final   90.30 input   66.30 | X-H torsion
[ 10763 10752 10751 10750 ] final   71.61 input  -60.55 | X-H torsion
[ 11005 11000 10999 10996 ] final  133.79 input  -57.11 | X-H torsion

> <Gold.Protein.ActiveResidues>
 VAL166  LYS551  ARG553  GLY616  TRP617  ASP618  TYR619  PRO620  LYS621  CYS622 
 ASP623  PHE694  ASN695  SER759  ASP760  ASP761  ALA762  ILE779  LEU786  VAL792 
 PHE793  MET794  SER795  GLU796  ALA797  LYS798  CYS799  TRP800  GLU811  SER814 

> <Gold.Protein.RotatedAtoms>
  150.7122  134.4984  159.5549 H   0  0  0  0  0  0  0  0  0  0  0  0  # atno 6907 bound_to 6896
  152.2587  134.8054  160.0443 H   0  0  0  0  0  0  0  0  0  0  0  0  # atno 6908 bound_to 6896
  151.8776  133.3453  159.3792 H   0  0  0  0  0  0  0  0  0  0  0  0  # atno 6909 bound_to 6896
  145.9029  139.3595  143.0582 H   0  0  0  0  0  0  0  0  0  0  0  0  # atno 7974 bound_to 7965
  154.4046  140.1293  156.4526 H   0  0  0  0  0  0  0  0  0  0  0  0  # atno 8008 bound_to 7997
  155.7351  140.3491  155.5058 H   0  0  0  0  0  0  0  0  0  0  0  0  # atno 8009 bound_to 7997
  155.9091  140.1032  157.1283 H   0  0  0  0  0  0  0  0  0  0  0  0  # atno 8010 bound_to 7997
  140.2423  143.3530  152.0790 H   0  0  0  0  0  0  0  0  0  0  0  0  # atno 10167 bound_to 10162
  157.6958  131.0365  150.3557 H   0  0  0  0  0  0  0  0  0  0  0  0  # atno 10718 bound_to 10713
  153.0409  135.5131  154.7618 H   0  0  0  0  0  0  0  0  0  0  0  0  # atno 10763 bound_to 10752
  154.6557  135.2931  154.9933 H   0  0  0  0  0  0  0  0  0  0  0  0  # atno 10764 bound_to 10752
  154.0802  135.6665  153.4889 H   0  0  0  0  0  0  0  0  0  0  0  0  # atno 10765 bound_to 10752
  139.9874  134.9527  156.9775 H   0  0  0  0  0  0  0  0  0  0  0  0  # atno 11005 bound_to 11000
  145.8768  140.9387  143.0622 LP  0  0  0  0  0  0  0  0  0  0  0  0  # atno 17320 bound_to 7965
  144.6737  140.0727  143.7472 LP  0  0  0  0  0  0  0  0  0  0  0  0  # atno 17321 bound_to 7965
  139.5073  144.6830  151.5961 LP  0  0  0  0  0  0  0  0  0  0  0  0  # atno 17342 bound_to 10162
  140.6104  143.9447  150.6449 LP  0  0  0  0  0  0  0  0  0  0  0  0  # atno 17343 bound_to 10162
  156.4000  130.3914  149.6967 LP  0  0  0  0  0  0  0  0  0  0  0  0  # atno 17370 bound_to 10713
  156.4287  130.7804  151.2824 LP  0  0  0  0  0  0  0  0  0  0  0  0  # atno 17371 bound_to 10713
  140.4975  134.1130  155.7244 LP  0  0  0  0  0  0  0  0  0  0  0  0  # atno 17394 bound_to 11000
  141.1536  133.8923  157.2034 LP  0  0  0  0  0  0  0  0  0  0  0  0  # atno 17395 bound_to 11000

$$$$
