AV-unprocessed.smi:227|AV-procd|sdf|1741|dock10
  -GOLD-   2262020243D 1   1.00000     0.00000
 Structure written by MMmdl.
 54 58  0  0  0  0  0  0  0  0  1 V2000
  148.3380  131.7136  159.9997 O   0  0  0  0  0  0  0  0  0  0  0  0
  148.0830  132.9450  160.6426 C   0  0  0  0  0  0  0  0  0  0  0  0
  147.2586  133.8871  159.7331 C   0  0  2  0  0  0  0  0  0  0  0  0
  147.9466  134.1340  158.3621 C   0  0  0  0  0  0  0  0  0  0  0  0
  147.0818  133.9209  157.2103 N   0  0  0  0  0  0  0  0  0  0  0  0
  145.7133  133.7790  157.2173 C   0  0  0  0  0  0  0  0  0  0  0  0
  145.1674  133.5997  156.0469 N   0  0  0  0  0  0  0  0  0  0  0  0
  146.2364  133.6051  155.1582 C   0  0  0  0  0  0  0  0  0  0  0  0
  146.3672  133.4681  153.7435 C   0  0  0  0  0  0  0  0  0  0  0  0
  145.3296  133.2906  152.8782 N   0  0  0  0  0  0  0  0  0  0  0  0
  144.3429  134.3364  152.6480 C   0  0  1  0  0  0  0  0  0  0  0  0
  145.0981  135.3797  151.8012 C   0  0  0  0  0  0  0  0  0  0  0  0
  146.0112  134.4744  150.9602 C   0  0  0  0  0  0  0  0  0  0  0  0
  145.5964  133.0716  151.4619 C   0  0  2  0  0  0  0  0  0  0  0  0
  144.1951  132.6706  150.9476 C   0  0  2  0  0  0  0  0  0  0  0  0
  143.9600  132.7018  149.4253 C   0  0  0  0  0  0  0  0  0  0  0  0
  142.7334  132.0813  149.1042 O   0  0  0  0  0  0  0  0  0  0  0  0
  143.3053  133.6310  151.7558 C   0  0  0  0  0  0  0  0  0  0  0  0
  147.6272  133.4952  153.2333 N   0  0  0  0  0  0  0  0  0  0  0  0
  148.6829  133.6657  154.0325 C   0  0  0  0  0  0  0  0  0  0  0  0
  148.7079  133.8238  155.3557 N   0  0  0  0  0  0  0  0  0  0  0  0
  147.4509  133.7872  155.8822 C   0  0  0  0  0  0  0  0  0  0  0  0
  146.9104  135.2086  160.4680 C   0  0  1  0  0  0  0  0  0  0  0  0
  146.8548  135.0966  161.9826 C   0  0  0  0  0  0  0  0  0  0  0  0
  146.9599  136.5533  162.4179 C   0  0  0  0  0  0  0  0  0  0  0  0
  147.7856  137.1822  161.4452 O   0  0  0  0  0  0  0  0  0  0  0  0
  147.9518  136.3246  160.3203 C   0  0  0  0  0  0  0  0  0  0  0  0
  148.9595  131.8625  159.3027 H   0  0  0  0  0  0  0  0  0  0  0  0
  147.5403  132.7153  161.5589 H   0  0  0  0  0  0  0  0  0  0  0  0
  149.0256  133.4028  160.9433 H   0  0  0  0  0  0  0  0  0  0  0  0
  146.3143  133.3823  159.5235 H   0  0  0  0  0  0  0  0  0  0  0  0
  148.3278  135.1545  158.3158 H   0  0  0  0  0  0  0  0  0  0  0  0
  148.8241  133.4970  158.2521 H   0  0  0  0  0  0  0  0  0  0  0  0
  145.1240  133.8174  158.1212 H   0  0  0  0  0  0  0  0  0  0  0  0
  143.8778  134.7550  153.5382 H   0  0  0  0  0  0  0  0  0  0  0  0
  144.4311  135.9926  151.1941 H   0  0  0  0  0  0  0  0  0  0  0  0
  145.6898  136.0450  152.4314 H   0  0  0  0  0  0  0  0  0  0  0  0
  145.8906  134.6156  149.8875 H   0  0  0  0  0  0  0  0  0  0  0  0
  147.0575  134.6728  151.1953 H   0  0  0  0  0  0  0  0  0  0  0  0
  146.3427  132.3044  151.2526 H   0  0  0  0  0  0  0  0  0  0  0  0
  143.9940  131.6551  151.2943 H   0  0  0  0  0  0  0  0  0  0  0  0
  143.9222  133.7351  149.0794 H   0  0  0  0  0  0  0  0  0  0  0  0
  144.7688  132.2225  148.8753 H   0  0  0  0  0  0  0  0  0  0  0  0
  142.0817  132.7531  148.9730 H   0  0  0  0  0  0  0  0  0  0  0  0
  142.5864  133.0717  152.3558 H   0  0  0  0  0  0  0  0  0  0  0  0
  142.7484  134.3331  151.1341 H   0  0  0  0  0  0  0  0  0  0  0  0
  149.6444  133.6776  153.5406 H   0  0  0  0  0  0  0  0  0  0  0  0
  145.9546  135.5920  160.1083 H   0  0  0  0  0  0  0  0  0  0  0  0
  145.9496  134.6182  162.3550 H   0  0  0  0  0  0  0  0  0  0  0  0
  147.7125  134.5341  162.3543 H   0  0  0  0  0  0  0  0  0  0  0  0
  145.9778  137.0274  162.3992 H   0  0  0  0  0  0  0  0  0  0  0  0
  147.3702  136.6612  163.4221 H   0  0  0  0  0  0  0  0  0  0  0  0
  148.9635  135.9173  160.3485 H   0  0  0  0  0  0  0  0  0  0  0  0
  147.8383  136.8817  159.3901 H   0  0  0  0  0  0  0  0  0  0  0  0
  1  2  1  0  0  0  0
  1 28  1  0  0  0  0
  2  3  1  0  0  0  0
  2 29  1  0  0  0  0
  2 30  1  0  0  0  0
  3  4  1  0  0  0  0
  3 23  1  0  0  0  0
  3 31  1  0  0  0  0
  4  5  1  0  0  0  0
  4 32  1  0  0  0  0
  4 33  1  0  0  0  0
  5 22  1  0  0  0  0
  5  6  1  0  0  0  0
  6  7  2  0  0  0  0
  6 34  1  0  0  0  0
  7  8  1  0  0  0  0
  8 22  2  0  0  0  0
  8  9  1  0  0  0  0
  9 10  1  0  0  0  0
  9 19  2  0  0  0  0
 10 14  1  0  0  0  0
 10 11  1  0  0  0  0
 11 18  1  0  0  0  0
 11 12  1  0  0  0  0
 11 35  1  0  0  0  0
 12 13  1  0  0  0  0
 12 36  1  0  0  0  0
 12 37  1  0  0  0  0
 13 14  1  0  0  0  0
 13 38  1  0  0  0  0
 13 39  1  0  0  0  0
 14 15  1  0  0  0  0
 14 40  1  0  0  0  0
 15 16  1  0  0  0  0
 15 18  1  0  0  0  0
 15 41  1  0  0  0  0
 16 17  1  0  0  0  0
 16 42  1  0  0  0  0
 16 43  1  0  0  0  0
 17 44  1  0  0  0  0
 18 45  1  0  0  0  0
 18 46  1  0  0  0  0
 19 20  1  0  0  0  0
 20 21  2  0  0  0  0
 20 47  1  0  0  0  0
 21 22  1  0  0  0  0
 23 27  1  0  0  0  0
 23 24  1  0  0  0  0
 23 48  1  0  0  0  0
 24 25  1  0  0  0  0
 24 49  1  0  0  0  0
 24 50  1  0  0  0  0
 25 26  1  0  0  0  0
 25 51  1  0  0  0  0
 25 52  1  0  0  0  0
 26 27  1  0  0  0  0
 27 53  1  0  0  0  0
 27 54  1  0  0  0  0
M  END
> <s_m_source_file>
AV-unprocessed.smi

> <i_m_source_file_index>
227

> <i_lp_mmshare_version>
43012

> <i_f3d_flags>
0

> <s_epik_input>
W0NIMl0xT1tDSDJdW0NIMl1bQ0BIXTFbQ0BIXShbQ0gyXVtPSF0pW0NIMl1uKFtjSF1uMiljKGMyMyluW2NIXW5jM04oW0NASF00NSlbQ0BASF0oW0NIMl1bQ0gyXTQpW0NASF0oW0NIMl01KVtDSDJdW09IXQ==

> <s_epik_cmdline>
J2VwaWtfcHl0aG9uJywgJy1waCcsICc3LjAnLCAnLXRuJywgJzgnLCAnLW1hJywgJzIwMCcsICctbWV0YWxfYmluZGluZycsICctaW1hZScsICc8aW5maWxlLm1hZT4nLCAnLW9tYWUnLCAnPG91dGZpbGUubWFlPic=

> <r_lp_tautomer_probability>
1

> <r_epik_Ionization_Penalty>
0.0055791

> <r_epik_Ionization_Penalty_Charging>
0

> <r_epik_Ionization_Penalty_Neutral>
0.0055791

> <r_epik_State_Penalty>
0.00401299

> <r_epik_Charging_Adjusted_Penalty>
0.00401299

> <i_epik_Tot_Q>
0

> <i_epik_Tot_abs_Q>
0

> <r_epik_Metal_State_Penalty>
-0

> <b_epik_Metal_Only>
0

> <s_lp_Force_Field>
OPLS_2005

> <r_lp_Energy>
87.7083

> <b_lp_Chiralities_Consistent>
1

> <s_lp_Variant>
AV-unprocessed.smi:227-15

> <Gold.Version>
5.8.1

> <Gold.Id.Protein>
6NUR|6NUR_protein|mol2

> <Gold.PLP.Fitness>
48.1323

> <Gold.PLP.PLP>
-40.0745

> <Gold.PLP.part.hbond>
-5.0000

> <Gold.PLP.part.metal>
0.0000

> <Gold.PLP.part.buried>
-7.3286

> <Gold.PLP.part.nonpolar>
-28.2115

> <Gold.PLP.part.repulsive>
0.3915

> <Gold.PLP.ligand.clash>
0.0000

> <Gold.PLP.ligand.torsion>
1.6307

> <Gold.PLP.Chemscore.Hbond>
3.7343

> <Gold.PLP.Chemscore.CHOScore>
0.0000

> <Gold.PLP.Chemscore.Metal>
0.0000

> <Gold.Chemscore.Hbonds>
donor molecule, donor type, donor heavy atom, donor atom, acceptor molecule, acceptor atom, score
      L1  H    17    44       P1 10186  0.96
      P1  H  6931  6943       L1    26  1.00
      P1  H  6934  6947       L1    26  0.75
      P1  H 10785 10796       L1    17  1.00

> <Gold.PLP.Chemscore.Internal.Correction>
0.1163

> <Gold.Rescore>
     Score         DG    S(hbond)    S(metal)    S(lipo)     H(rot)  DE(clash)    DE(int)     intcor
     12.90     -15.34       2.68        0.00      86.77       3.61       0.01       2.43       ----

> <Gold.Chemscore.Fitness>
12.8981

> <Gold.Chemscore.DG>
-15.3356

> <Gold.Chemscore.ZeroCoef>
-5.4800

> <Gold.Chemscore.Hbond>
2.6761

> <Gold.Chemscore.Metal>
0.0000

> <Gold.Chemscore.Lipo>
86.7663

> <Gold.Chemscore.Internal_Hbond>
0.0000

> <Gold.Chemscore.DEClash>
0.0059

> <Gold.Chemscore.DEInternal>
2.4316

> <Gold.Chemscore.Rot>
3.6071

> <Gold.Chemscore.Internal.Correction>
   9.000000E+99

> <Gold.Chemscore.Hbonds>
donor molecule, donor type, donor heavy atom, donor atom, acceptor molecule, acceptor atom, score
      L1  H    17    44       P1 10186  0.88
      P1  H  6931  6943       L1    26  0.93
      P1  H  6934  6947       L1    26  0.55
      P1  H 10785 10796       L1    17  0.51

> <Gold.Chemscore.Hbond.Weighted>
-8.9381

> <Gold.Chemscore.Metal.Weighted>
-0.0000

> <Gold.Chemscore.Lipo.Weighted>
-10.1517

> <Gold.Chemscore.Internal_Hbond.Weighted>
0.0000

> <Gold.Chemscore.DEClash.Weighted>
0.0059

> <Gold.Chemscore.DEInternal.Weighted>
2.4316

> <Gold.Chemscore.Rot.Weighted>
9.2342

> <Gold.Chemscore.Internal.Correction.Weighted>
   9.000000E+99

> <Gold.Protein.RotatedTorsions>
[ 6907 6896 6895 6894 ] final  114.42 input  -60.11 | X-H torsion
[ 7974 7965 7964 7962 ] final  105.36 input  175.53 | X-H torsion
[ 8008 7997 7996 7995 ] final  110.94 input   59.86 | X-H torsion
[ 10167 10162 10161 10158 ] final   23.30 input  -65.29 | X-H torsion
[ 10718 10713 10712 10709 ] final -136.26 input   66.30 | X-H torsion
[ 10763 10752 10751 10750 ] final  -24.38 input  -60.55 | X-H torsion
[ 11005 11000 10999 10996 ] final  172.63 input  -57.11 | X-H torsion

> <Gold.Protein.ActiveResidues>
 VAL166  LYS551  ARG553  GLY616  TRP617  ASP618  TYR619  PRO620  LYS621  CYS622 
 ASP623  PHE694  ASN695  SER759  ASP760  ASP761  ALA762  ILE779  LEU786  VAL792 
 PHE793  MET794  SER795  GLU796  ALA797  LYS798  CYS799  TRP800  GLU811  SER814 

> <Gold.Protein.RotatedAtoms>
  152.4803  133.8239  159.7067 H   0  0  0  0  0  0  0  0  0  0  0  0  # atno 6907 bound_to 6896
  150.8849  133.7312  159.2928 H   0  0  0  0  0  0  0  0  0  0  0  0  # atno 6908 bound_to 6896
  151.4804  135.1055  159.9828 H   0  0  0  0  0  0  0  0  0  0  0  0  # atno 6909 bound_to 6896
  145.3206  139.2514  143.3714 H   0  0  0  0  0  0  0  0  0  0  0  0  # atno 7974 bound_to 7965
  156.2088  140.3029  155.9687 H   0  0  0  0  0  0  0  0  0  0  0  0  # atno 8008 bound_to 7997
  155.2774  140.0436  157.3029 H   0  0  0  0  0  0  0  0  0  0  0  0  # atno 8009 bound_to 7997
  154.5671  140.2337  155.8256 H   0  0  0  0  0  0  0  0  0  0  0  0  # atno 8010 bound_to 7997
  140.5280  143.9891  150.6450 H   0  0  0  0  0  0  0  0  0  0  0  0  # atno 10167 bound_to 10162
  156.2751  130.7288  151.1267 H   0  0  0  0  0  0  0  0  0  0  0  0  # atno 10718 bound_to 10713
  153.6829  135.6966  153.5112 H   0  0  0  0  0  0  0  0  0  0  0  0  # atno 10763 bound_to 10752
  153.2471  135.4287  155.0758 H   0  0  0  0  0  0  0  0  0  0  0  0  # atno 10764 bound_to 10752
  154.8395  135.3522  154.6372 H   0  0  0  0  0  0  0  0  0  0  0  0  # atno 10765 bound_to 10752
  140.3318  134.7350  157.4140 H   0  0  0  0  0  0  0  0  0  0  0  0  # atno 11005 bound_to 11000
  146.3083  140.3763  142.8679 LP  0  0  0  0  0  0  0  0  0  0  0  0  # atno 17320 bound_to 7965
  144.8942  140.7562  143.5907 LP  0  0  0  0  0  0  0  0  0  0  0  0  # atno 17321 bound_to 7965
  140.3258  143.3108  152.0738 LP  0  0  0  0  0  0  0  0  0  0  0  0  # atno 17342 bound_to 10162
  139.4944  144.6543  151.6607 LP  0  0  0  0  0  0  0  0  0  0  0  0  # atno 17343 bound_to 10162
  157.7296  131.0622  150.5764 LP  0  0  0  0  0  0  0  0  0  0  0  0  # atno 17370 bound_to 10713
  156.5864  130.4318  149.5955 LP  0  0  0  0  0  0  0  0  0  0  0  0  # atno 17371 bound_to 10713
  140.0854  134.5674  155.8498 LP  0  0  0  0  0  0  0  0  0  0  0  0  # atno 17394 bound_to 11000
  141.2061  133.6652  156.6223 LP  0  0  0  0  0  0  0  0  0  0  0  0  # atno 17395 bound_to 11000

$$$$
