AV-unprocessed.smi:675|AV-procd|sdf|3303|dock3
  -GOLD-   22720 0263D 1   1.00000     0.00000
 Structure written by MMmdl.
 29 30  0  0  0  0  0  0  0  0  1 V2000
  146.8168  139.8580  152.9964 O   0  0  0  0  0  0  0  0  0  0  0  0
  147.6944  140.3188  153.7238 C   0  0  0  0  0  0  0  0  0  0  0  0
  148.9485  139.7036  153.7767 N   0  0  0  0  0  0  0  0  0  0  0  0
  150.0269  140.1206  154.5573 C   0  0  0  0  0  0  0  0  0  0  0  0
  151.0811  139.4857  154.5288 O   0  0  0  0  0  0  0  0  0  0  0  0
  149.8254  141.2692  155.3597 N   0  0  0  0  0  0  0  0  0  0  0  0
  150.8967  141.7192  156.2186 C   0  0  0  0  0  0  0  0  0  0  0  0
  150.4584  141.9625  157.6811 C   0  0  2  0  0  0  0  0  0  0  0  0
  149.8860  143.2530  157.7552 O   0  0  0  0  0  0  0  0  0  0  0  0
  151.5900  141.7686  158.6907 C   0  0  0  0  0  0  0  0  0  0  0  0
  152.1061  140.4697  158.9050 C   0  0  0  0  0  0  0  0  0  0  0  0
  153.1352  140.2495  159.8392 C   0  0  0  0  0  0  0  0  0  0  0  0
  153.6586  141.3279  160.5744 C   0  0  0  0  0  0  0  0  0  0  0  0
  153.1501  142.6242  160.3741 C   0  0  0  0  0  0  0  0  0  0  0  0
  152.1200  142.8516  159.4395 C   0  0  0  0  0  0  0  0  0  0  0  0
  151.5279  144.4662  159.2563 Cl  0  0  0  0  0  0  0  0  0  0  0  0
  148.5963  141.9096  155.3389 C   0  0  0  0  0  0  0  0  0  0  0  0
  147.5538  141.4960  154.5793 C   0  0  0  0  0  0  0  0  0  0  0  0
  146.0499  142.3441  154.6184 Cl  0  0  0  0  0  0  0  0  0  0  0  0
  149.0843  138.8839  153.2029 H   0  0  0  0  0  0  0  0  0  0  0  0
  151.7341  141.0230  156.1416 H   0  0  0  0  0  0  0  0  0  0  0  0
  151.2463  142.6486  155.7650 H   0  0  0  0  0  0  0  0  0  0  0  0
  149.6406  141.2827  157.9152 H   0  0  0  0  0  0  0  0  0  0  0  0
  149.7148  143.5553  156.8763 H   0  0  0  0  0  0  0  0  0  0  0  0
  151.7066  139.6297  158.3559 H   0  0  0  0  0  0  0  0  0  0  0  0
  153.5204  139.2524  159.9940 H   0  0  0  0  0  0  0  0  0  0  0  0
  154.4466  141.1607  161.2940 H   0  0  0  0  0  0  0  0  0  0  0  0
  153.5509  143.4488  160.9448 H   0  0  0  0  0  0  0  0  0  0  0  0
  148.4587  142.7781  155.9674 H   0  0  0  0  0  0  0  0  0  0  0  0
  1  2  2  0  0  0  0
  2 18  1  0  0  0  0
  2  3  1  0  0  0  0
  3 20  1  0  0  0  0
  3  4  1  0  0  0  0
  4  5  2  0  0  0  0
  4  6  1  0  0  0  0
  6  7  1  0  0  0  0
  6 17  1  0  0  0  0
  7  8  1  0  0  0  0
  7 21  1  0  0  0  0
  7 22  1  0  0  0  0
  8  9  1  0  0  0  0
  8 10  1  0  0  0  0
  8 23  1  0  0  0  0
  9 24  1  0  0  0  0
 10 15  1  0  0  0  0
 10 11  2  0  0  0  0
 11 12  1  0  0  0  0
 11 25  1  0  0  0  0
 12 13  2  0  0  0  0
 12 26  1  0  0  0  0
 13 14  1  0  0  0  0
 13 27  1  0  0  0  0
 14 15  2  0  0  0  0
 14 28  1  0  0  0  0
 15 16  1  0  0  0  0
 17 18  2  0  0  0  0
 17 29  1  0  0  0  0
 18 19  1  0  0  0  0
M  END
> <s_m_source_file>
AV-unprocessed.smi

> <i_m_source_file_index>
675

> <i_lp_mmshare_version>
43012

> <i_f3d_flags>
0

> <s_epik_input>
Tz1jMVtuSF1jKD1PKW4oW2NIXWMxQ2wpW0NIMl1bQ0BIXShbT0hdKWMyW2NIXVtjSF1bY0hdW2NIXWMyQ2w=

> <s_epik_cmdline>
J2VwaWtfcHl0aG9uJywgJy1waCcsICc3LjAnLCAnLXRuJywgJzgnLCAnLW1hJywgJzIwMCcsICctbWV0YWxfYmluZGluZycsICctaW1hZScsICc8aW5maWxlLm1hZT4nLCAnLW9tYWUnLCAnPG91dGZpbGUubWFlPic=

> <r_lp_tautomer_probability>
0.999537

> <r_epik_Ionization_Penalty>
0.029206

> <r_epik_Ionization_Penalty_Charging>
0.0292057

> <r_epik_Ionization_Penalty_Neutral>
2.68278e-07

> <r_epik_State_Penalty>
0.0240115

> <r_epik_Charging_Adjusted_Penalty>
0.0532172

> <i_epik_Tot_Q>
0

> <i_epik_Tot_abs_Q>
0

> <r_epik_Metal_State_Penalty>
2.21956

> <b_epik_Metal_Only>
0

> <s_lp_Force_Field>
OPLS_2005

> <r_lp_Energy>
11.7134

> <b_lp_Chiralities_Consistent>
1

> <s_lp_Variant>
AV-unprocessed.smi:675-1

> <Gold.Version>
5.8.1

> <Gold.Id.Protein>
6NUR|6NUR_protein|mol2

> <Gold.PLP.Fitness>
48.4635

> <Gold.PLP.PLP>
-42.6423

> <Gold.PLP.part.hbond>
-3.0203

> <Gold.PLP.part.metal>
0.0000

> <Gold.PLP.part.buried>
-2.8188

> <Gold.PLP.part.nonpolar>
-37.7082

> <Gold.PLP.part.repulsive>
0.4583

> <Gold.PLP.ligand.clash>
0.0000

> <Gold.PLP.ligand.torsion>
0.5495

> <Gold.PLP.Chemscore.Hbond>
1.3000

> <Gold.PLP.Chemscore.CHOScore>
0.9996

> <Gold.PLP.Chemscore.Metal>
0.0000

> <Gold.Chemscore.Hbonds>
donor molecule, donor type, donor heavy atom, donor atom, acceptor molecule, acceptor atom, score
      L1  H     9    24       P1  8028  1.00
      P1  H  7989  7998       L1     5  0.20
      L1  C    17    29       P1  8028  0.93

> <Gold.PLP.Chemscore.Internal.Correction>
0.0214

> <Gold.Rescore>
     Score         DG    S(hbond)    S(metal)    S(lipo)     H(rot)  DE(clash)    DE(int)     intcor
     12.69     -14.96       0.89        0.00     103.19       2.18       0.05       2.23       ----

> <Gold.Chemscore.Fitness>
12.6900

> <Gold.Chemscore.DG>
-14.9648

> <Gold.Chemscore.ZeroCoef>
-5.4800

> <Gold.Chemscore.Hbond>
0.8940

> <Gold.Chemscore.Metal>
0.0000

> <Gold.Chemscore.Lipo>
103.1905

> <Gold.Chemscore.Internal_Hbond>
0.0000

> <Gold.Chemscore.DEClash>
0.0458

> <Gold.Chemscore.DEInternal>
2.2289

> <Gold.Chemscore.Rot>
2.1775

> <Gold.Chemscore.Internal.Correction>
   9.000000E+99

> <Gold.Chemscore.Hbonds>
donor molecule, donor type, donor heavy atom, donor atom, acceptor molecule, acceptor atom, score
      L1  H     9    24       P1  8028  0.94

> <Gold.Chemscore.Hbond.Weighted>
-2.9859

> <Gold.Chemscore.Metal.Weighted>
-0.0000

> <Gold.Chemscore.Lipo.Weighted>
-12.0733

> <Gold.Chemscore.Internal_Hbond.Weighted>
0.0000

> <Gold.Chemscore.DEClash.Weighted>
0.0458

> <Gold.Chemscore.DEInternal.Weighted>
2.2289

> <Gold.Chemscore.Rot.Weighted>
5.5745

> <Gold.Chemscore.Internal.Correction.Weighted>
   9.000000E+99

> <Gold.Protein.RotatedTorsions>
[ 6907 6896 6895 6894 ] final  116.47 input  -60.11 | X-H torsion
[ 7974 7965 7964 7962 ] final -167.15 input  175.53 | X-H torsion
[ 8008 7997 7996 7995 ] final -102.28 input   59.86 | X-H torsion
[ 10167 10162 10161 10158 ] final  157.68 input  -65.29 | X-H torsion
[ 10718 10713 10712 10709 ] final -122.18 input   66.30 | X-H torsion
[ 10763 10752 10751 10750 ] final   17.48 input  -60.55 | X-H torsion
[ 11005 11000 10999 10996 ] final   -2.97 input  -57.11 | X-H torsion

> <Gold.Protein.ActiveResidues>
 VAL166  LYS551  ARG553  GLY616  TRP617  ASP618  TYR619  PRO620  LYS621  CYS622 
 ASP623  PHE694  ASN695  SER759  ASP760  ASP761  ALA762  ILE779  LEU786  VAL792 
 PHE793  MET794  SER795  GLU796  ALA797  LYS798  CYS799  TRP800  GLU811  SER814 

> <Gold.Protein.RotatedAtoms>
  152.4676  133.7957  159.6925 H   0  0  0  0  0  0  0  0  0  0  0  0  # atno 6907 bound_to 6896
  150.8648  133.7581  159.2986 H   0  0  0  0  0  0  0  0  0  0  0  0  # atno 6908 bound_to 6896
  151.5134  135.1069  159.9912 H   0  0  0  0  0  0  0  0  0  0  0  0  # atno 6909 bound_to 6896
  144.7229  140.2562  143.6271 H   0  0  0  0  0  0  0  0  0  0  0  0  # atno 7974 bound_to 7965
  154.8544  140.0429  157.1625 H   0  0  0  0  0  0  0  0  0  0  0  0  # atno 8008 bound_to 7997
  154.8907  140.2986  155.5352 H   0  0  0  0  0  0  0  0  0  0  0  0  # atno 8009 bound_to 7997
  156.2997  140.2394  156.3922 H   0  0  0  0  0  0  0  0  0  0  0  0  # atno 8010 bound_to 7997
  139.4824  144.4895  151.8328 H   0  0  0  0  0  0  0  0  0  0  0  0  # atno 10167 bound_to 10162
  156.1397  130.6457  150.9752 H   0  0  0  0  0  0  0  0  0  0  0  0  # atno 10718 bound_to 10713
  153.1335  135.6745  153.9139 H   0  0  0  0  0  0  0  0  0  0  0  0  # atno 10763 bound_to 10752
  153.8618  135.3080  155.3439 H   0  0  0  0  0  0  0  0  0  0  0  0  # atno 10764 bound_to 10752
  154.7728  135.4930  153.9765 H   0  0  0  0  0  0  0  0  0  0  0  0  # atno 10765 bound_to 10752
  140.6642  133.9293  155.8455 H   0  0  0  0  0  0  0  0  0  0  0  0  # atno 11005 bound_to 11000
  145.8180  139.2031  143.1954 LP  0  0  0  0  0  0  0  0  0  0  0  0  # atno 17320 bound_to 7965
  146.0538  140.8041  142.9768 LP  0  0  0  0  0  0  0  0  0  0  0  0  # atno 17321 bound_to 7965
  140.4378  144.2028  150.5890 LP  0  0  0  0  0  0  0  0  0  0  0  0  # atno 17342 bound_to 10162
  140.4714  143.2412  151.9084 LP  0  0  0  0  0  0  0  0  0  0  0  0  # atno 17343 bound_to 10162
  157.6564  131.0888  150.7937 LP  0  0  0  0  0  0  0  0  0  0  0  0  # atno 17370 bound_to 10713
  156.8013  130.4922  149.5369 LP  0  0  0  0  0  0  0  0  0  0  0  0  # atno 17371 bound_to 10713
  141.0442  134.0578  157.3865 LP  0  0  0  0  0  0  0  0  0  0  0  0  # atno 17394 bound_to 11000
  139.9003  135.0162  156.7234 LP  0  0  0  0  0  0  0  0  0  0  0  0  # atno 17395 bound_to 11000

$$$$
