AV-unprocessed.smi:3032|AV-procd|sdf|11557|dock2
  -GOLD-   2272016523D 1   1.00000     0.00000
 Structure written by MMmdl.
 37 38  0  0  0  0  0  0  0  0  1 V2000
  151.5901  145.6455  160.1537 C   0  0  0  0  0  0  0  0  0  0  0  0
  151.8914  144.1429  160.2430 C   0  0  2  0  0  0  0  0  0  0  0  0
  152.5073  143.7711  161.6045 C   0  0  0  0  0  0  0  0  0  0  0  0
  152.7883  142.2640  161.7048 C   0  0  0  0  0  0  0  0  0  0  0  0
  153.6683  141.7675  160.5398 C   0  0  0  0  0  0  0  0  0  0  0  0
  153.1423  142.1770  159.1420 C   0  0  1  0  0  0  0  0  0  0  0  0
  151.9517  141.3334  158.6496 C   0  0  0  0  0  0  0  0  0  0  0  0
  151.5145  140.3937  159.3136 O   0  0  0  0  0  0  0  0  0  0  0  0
  151.4251  141.6966  157.4702 N   0  0  0  0  0  0  0  0  0  0  0  0
  150.2430  141.1012  156.8531 C   0  0  0  0  0  0  0  0  0  0  0  0
  150.4774  140.6562  155.3940 C   0  0  0  0  0  0  0  0  0  0  0  0
  151.4252  139.5060  155.2530 C   0  0  0  0  0  0  0  0  0  0  0  0
  151.0387  138.3181  154.7822 N   0  0  0  0  0  0  0  0  0  0  0  0
  152.1009  137.4871  154.7423 N   0  0  0  0  0  0  0  0  0  0  0  0
  153.0773  138.2612  155.2123 C   0  0  0  0  0  0  0  0  0  0  0  0
  152.7198  139.5368  155.5499 N   0  0  0  0  0  0  0  0  0  0  0  0
  152.8238  143.6889  159.1011 C   0  0  0  0  0  0  0  0  0  0  0  0
  150.1132  138.0468  154.4817 H   0  0  0  0  0  0  0  0  0  0  0  0
  152.4998  146.2392  160.2478 H   0  0  0  0  0  0  0  0  0  0  0  0
  150.9057  145.9562  160.9434 H   0  0  0  0  0  0  0  0  0  0  0  0
  151.1260  145.8965  159.1996 H   0  0  0  0  0  0  0  0  0  0  0  0
  150.9406  143.6173  160.1454 H   0  0  0  0  0  0  0  0  0  0  0  0
  153.4360  144.3240  161.7521 H   0  0  0  0  0  0  0  0  0  0  0  0
  151.8386  144.0707  162.4122 H   0  0  0  0  0  0  0  0  0  0  0  0
  153.2811  142.0455  162.6525 H   0  0  0  0  0  0  0  0  0  0  0  0
  151.8445  141.7203  161.7295 H   0  0  0  0  0  0  0  0  0  0  0  0
  154.6722  142.1753  160.6649 H   0  0  0  0  0  0  0  0  0  0  0  0
  153.7811  140.6842  160.6001 H   0  0  0  0  0  0  0  0  0  0  0  0
  153.9526  141.9932  158.4342 H   0  0  0  0  0  0  0  0  0  0  0  0
  151.8462  142.4755  156.9847 H   0  0  0  0  0  0  0  0  0  0  0  0
  149.9769  140.2305  157.4528 H   0  0  0  0  0  0  0  0  0  0  0  0
  149.3974  141.7874  156.9134 H   0  0  0  0  0  0  0  0  0  0  0  0
  149.5262  140.3833  154.9357 H   0  0  0  0  0  0  0  0  0  0  0  0
  150.8613  141.4947  154.8115 H   0  0  0  0  0  0  0  0  0  0  0  0
  154.0878  137.8940  155.3148 H   0  0  0  0  0  0  0  0  0  0  0  0
  152.3835  143.9526  158.1381 H   0  0  0  0  0  0  0  0  0  0  0  0
  153.7591  144.2473  159.1578 H   0  0  0  0  0  0  0  0  0  0  0  0
  1  2  1  0  0  0  0
  1 19  1  0  0  0  0
  1 20  1  0  0  0  0
  1 21  1  0  0  0  0
  2 17  1  0  0  0  0
  2  3  1  0  0  0  0
  2 22  1  0  0  0  0
  3  4  1  0  0  0  0
  3 23  1  0  0  0  0
  3 24  1  0  0  0  0
  4  5  1  0  0  0  0
  4 25  1  0  0  0  0
  4 26  1  0  0  0  0
  5  6  1  0  0  0  0
  5 27  1  0  0  0  0
  5 28  1  0  0  0  0
  6  7  1  0  0  0  0
  6 17  1  0  0  0  0
  6 29  1  0  0  0  0
  7  8  2  0  0  0  0
  7  9  1  0  0  0  0
  9 10  1  0  0  0  0
  9 30  1  0  0  0  0
 10 11  1  0  0  0  0
 10 31  1  0  0  0  0
 10 32  1  0  0  0  0
 11 33  1  0  0  0  0
 11 34  1  0  0  0  0
 11 12  1  0  0  0  0
 12 16  2  0  0  0  0
 12 13  1  0  0  0  0
 13 18  1  0  0  0  0
 13 14  1  0  0  0  0
 14 15  2  0  0  0  0
 15 16  1  0  0  0  0
 15 35  1  0  0  0  0
 17 36  1  0  0  0  0
 17 37  1  0  0  0  0
M  END
> <s_m_source_file>
AV-unprocessed.smi

> <i_m_source_file_index>
3032

> <i_lp_mmshare_version>
43012

> <i_f3d_flags>
0

> <s_epik_input>
W0NIM11bQ0BASF0xW0NIMl1bQ0gyXVtDSDJdW0NASF0oW0NIMl0xKUMoPU8pW05IXVtDSDJdW0NIMl1jMm5uW2NIXVtuSF0y

> <s_epik_cmdline>
J2VwaWtfcHl0aG9uJywgJy1waCcsICc3LjAnLCAnLXRuJywgJzgnLCAnLW1hJywgJzIwMCcsICctbWV0YWxfYmluZGluZycsICctaW1hZScsICc8aW5maWxlLm1hZT4nLCAnLW9tYWUnLCAnPG91dGZpbGUubWFlPic=

> <r_lp_tautomer_probability>
0.948284

> <r_epik_Ionization_Penalty>
0.000474052

> <r_epik_Ionization_Penalty_Charging>
0

> <r_epik_Ionization_Penalty_Neutral>
0.000474052

> <r_epik_State_Penalty>
0.271807

> <r_epik_Charging_Adjusted_Penalty>
0.271807

> <i_epik_Tot_Q>
0

> <i_epik_Tot_abs_Q>
0

> <r_epik_Metal_State_Penalty>
0.397201

> <b_epik_Metal_Only>
0

> <s_lp_Force_Field>
OPLS_2005

> <r_lp_Energy>
8.45965

> <b_lp_Chiralities_Consistent>
1

> <s_lp_Variant>
AV-unprocessed.smi:3032-1

> <Gold.Version>
5.8.1

> <Gold.Id.Protein>
6NUR|6NUR_protein|mol2

> <Gold.PLP.Fitness>
46.9300

> <Gold.PLP.PLP>
-41.7456

> <Gold.PLP.part.hbond>
-2.0000

> <Gold.PLP.part.metal>
0.0000

> <Gold.PLP.part.buried>
-4.2738

> <Gold.PLP.part.nonpolar>
-35.7606

> <Gold.PLP.part.repulsive>
0.2593

> <Gold.PLP.ligand.clash>
0.0000

> <Gold.PLP.ligand.torsion>
0.1601

> <Gold.PLP.Chemscore.Hbond>
1.8160

> <Gold.PLP.Chemscore.CHOScore>
0.0000

> <Gold.PLP.Chemscore.Metal>
0.0000

> <Gold.Chemscore.Hbonds>
donor molecule, donor type, donor heavy atom, donor atom, acceptor molecule, acceptor atom, score
      P1  H  7997  8009       L1    16  0.95
      P1  H 10752 10765       L1    14  0.74

> <Gold.PLP.Chemscore.Internal.Correction>
0.0566

> <Gold.Rescore>
     Score         DG    S(hbond)    S(metal)    S(lipo)     H(rot)  DE(clash)    DE(int)     intcor
     15.91     -16.07       1.60        0.00      93.99       2.25       0.10       0.06       ----

> <Gold.Chemscore.Fitness>
15.9125

> <Gold.Chemscore.DG>
-16.0701

> <Gold.Chemscore.ZeroCoef>
-5.4800

> <Gold.Chemscore.Hbond>
1.6029

> <Gold.Chemscore.Metal>
0.0000

> <Gold.Chemscore.Lipo>
93.9895

> <Gold.Chemscore.Internal_Hbond>
0.0000

> <Gold.Chemscore.DEClash>
0.0989

> <Gold.Chemscore.DEInternal>
0.0588

> <Gold.Chemscore.Rot>
2.2501

> <Gold.Chemscore.Internal.Correction>
   9.000000E+99

> <Gold.Chemscore.Hbonds>
donor molecule, donor type, donor heavy atom, donor atom, acceptor molecule, acceptor atom, score
      P1  H  7997  8009       L1    16  0.22
      P1  H 10752 10765       L1    14  0.35

> <Gold.Chemscore.Hbond.Weighted>
-5.3537

> <Gold.Chemscore.Metal.Weighted>
-0.0000

> <Gold.Chemscore.Lipo.Weighted>
-10.9968

> <Gold.Chemscore.Internal_Hbond.Weighted>
0.0000

> <Gold.Chemscore.DEClash.Weighted>
0.0989

> <Gold.Chemscore.DEInternal.Weighted>
0.0588

> <Gold.Chemscore.Rot.Weighted>
5.7603

> <Gold.Chemscore.Internal.Correction.Weighted>
   9.000000E+99

> <Gold.Protein.RotatedTorsions>
[ 6907 6896 6895 6894 ] final  -95.34 input  -60.11 | X-H torsion
[ 7974 7965 7964 7962 ] final -126.95 input  175.53 | X-H torsion
[ 8008 7997 7996 7995 ] final -144.97 input   59.86 | X-H torsion
[ 10167 10162 10161 10158 ] final   72.79 input  -65.29 | X-H torsion
[ 10718 10713 10712 10709 ] final  -60.71 input   66.30 | X-H torsion
[ 10763 10752 10751 10750 ] final  177.51 input  -60.55 | X-H torsion
[ 11005 11000 10999 10996 ] final -164.75 input  -57.11 | X-H torsion

> <Gold.Protein.ActiveResidues>
 VAL166  LYS551  ARG553  GLY616  TRP617  ASP618  TYR619  PRO620  LYS621  CYS622 
 ASP623  PHE694  ASN695  SER759  ASP760  ASP761  ALA762  ILE779  LEU786  VAL792 
 PHE793  MET794  SER795  GLU796  ALA797  LYS798  CYS799  TRP800  GLU811  SER814 

> <Gold.Protein.RotatedAtoms>
  150.6962  134.1672  159.4198 H   0  0  0  0  0  0  0  0  0  0  0  0  # atno 6907 bound_to 6896
  151.9651  135.0102  160.0559 H   0  0  0  0  0  0  0  0  0  0  0  0  # atno 6908 bound_to 6896
  152.1892  133.4726  159.5035 H   0  0  0  0  0  0  0  0  0  0  0  0  # atno 6909 bound_to 6896
  144.9821  140.7650  143.4606 H   0  0  0  0  0  0  0  0  0  0  0  0  # atno 7974 bound_to 7965
  155.5356  140.0603  157.2880 H   0  0  0  0  0  0  0  0  0  0  0  0  # atno 8008 bound_to 7997
  154.4469  140.1928  156.0583 H   0  0  0  0  0  0  0  0  0  0  0  0  # atno 8009 bound_to 7997
  156.0621  140.3271  155.7478 H   0  0  0  0  0  0  0  0  0  0  0  0  # atno 8010 bound_to 7997
  140.0314  144.5462  150.7504 H   0  0  0  0  0  0  0  0  0  0  0  0  # atno 10167 bound_to 10162
  156.0972  130.4191  150.0892 H   0  0  0  0  0  0  0  0  0  0  0  0  # atno 10718 bound_to 10713
  154.4954  135.2781  155.1463 H   0  0  0  0  0  0  0  0  0  0  0  0  # atno 10763 bound_to 10752
  154.3118  135.6227  153.5473 H   0  0  0  0  0  0  0  0  0  0  0  0  # atno 10764 bound_to 10752
  152.9894  135.5721  154.5384 H   0  0  0  0  0  0  0  0  0  0  0  0  # atno 10765 bound_to 10752
  140.5834  134.5118  157.5182 H   0  0  0  0  0  0  0  0  0  0  0  0  # atno 11005 bound_to 11000
  145.2406  139.2074  143.4994 LP  0  0  0  0  0  0  0  0  0  0  0  0  # atno 17320 bound_to 7965
  146.3410  140.2301  142.8593 LP  0  0  0  0  0  0  0  0  0  0  0  0  # atno 17321 bound_to 7965
  140.7300  143.2679  151.3985 LP  0  0  0  0  0  0  0  0  0  0  0  0  # atno 17342 bound_to 10162
  139.6073  144.1170  152.2263 LP  0  0  0  0  0  0  0  0  0  0  0  0  # atno 17343 bound_to 10162
  156.8888  130.9581  151.3591 LP  0  0  0  0  0  0  0  0  0  0  0  0  # atno 17370 bound_to 10713
  157.6135  130.8601  149.8990 LP  0  0  0  0  0  0  0  0  0  0  0  0  # atno 17371 bound_to 10713
  139.9307  134.7970  156.0940 LP  0  0  0  0  0  0  0  0  0  0  0  0  # atno 17394 bound_to 11000
  141.0981  133.6687  156.2692 LP  0  0  0  0  0  0  0  0  0  0  0  0  # atno 17395 bound_to 11000

$$$$
