AV-unprocessed.smi:79|AV-procd|sdf|782|dock8
  -GOLD-   2262017143D 1   1.00000     0.00000
 Structure written by MMmdl.
 56 59  0  0  0  0  0  0  0  0  2 V2000
  144.9848  134.0476  152.8821 C   0  0  0  0  0  0  0  0  0  0  0  0
  146.4385  134.5293  152.9715 C   0  0  1  0  0  0  0  0  0  0  0  0
  146.8029  135.0684  151.7170 O   0  0  0  0  0  0  0  0  0  0  0  0
  146.6265  135.6063  154.0579 C   0  0  0  0  0  0  0  0  0  0  0  0
  148.0340  136.0689  154.1661 N   0  3  2  0  0  0  0  0  0  0  0  0
  148.9036  135.1396  154.9376 C   0  0  0  0  0  0  0  0  0  0  0  0
  150.3612  135.6362  154.9739 C   0  0  0  0  0  0  0  0  0  0  0  0
  150.4324  137.0012  155.4844 N   0  0  0  0  0  0  0  0  0  0  0  0
  150.5023  137.0514  156.8400 C   0  0  0  0  0  0  0  0  0  0  0  0
  151.6344  137.4733  157.4623 N   0  0  0  0  0  0  0  0  0  0  0  0
  151.6834  137.5458  158.7958 C   0  0  0  0  0  0  0  0  0  0  0  0
  150.7282  137.2584  159.6820 N   0  0  0  0  0  0  0  0  0  0  0  0
  149.5864  136.8434  159.0623 C   0  0  0  0  0  0  0  0  0  0  0  0
  149.3903  136.7151  157.6590 C   0  0  0  0  0  0  0  0  0  0  0  0
  148.1006  136.2703  157.3980 N   0  0  0  0  0  0  0  0  0  0  0  0
  147.5640  136.1417  158.5809 C   0  0  0  0  0  0  0  0  0  0  0  0
  148.3883  136.4572  159.6383 N   0  0  0  0  0  0  0  0  0  0  0  0
  148.0521  136.4083  161.0532 C   0  0  0  0  0  0  0  0  0  0  0  0
  146.6547  135.8293  161.3429 C   0  0  0  0  0  0  0  0  0  0  0  0
  145.5944  136.7950  160.7758 C   0  0  0  0  0  0  0  0  0  0  0  0
  145.7504  138.1146  161.2587 O   0  0  0  0  0  0  0  0  0  0  0  0
  146.4832  134.3459  160.9851 C   0  0  0  0  0  0  0  0  0  0  0  0
  146.0092  134.0195  162.3102 O   0  0  0  0  0  0  0  0  0  0  0  0
  146.4130  135.3269  162.7735 C   0  0  0  0  0  0  0  0  0  0  0  0
  149.5970  137.9435  154.7298 C   0  0  2  0  0  0  0  0  0  0  0  0
  149.7464  139.4116  155.1733 C   0  0  0  0  0  0  0  0  0  0  0  0
  148.1284  137.4694  154.6568 C   0  0  0  0  0  0  0  0  0  0  0  0
  144.6601  133.6098  153.8265 H   0  0  0  0  0  0  0  0  0  0  0  0
  144.8703  133.2847  152.1112 H   0  0  0  0  0  0  0  0  0  0  0  0
  144.3051  134.8669  152.6448 H   0  0  0  0  0  0  0  0  0  0  0  0
  147.0722  133.6655  153.1692 H   0  0  0  0  0  0  0  0  0  0  0  0
  147.5165  135.6757  151.8430 H   0  0  0  0  0  0  0  0  0  0  0  0
  145.9765  136.4512  153.8236 H   0  0  0  0  0  0  0  0  0  0  0  0
  146.2969  135.2331  155.0290 H   0  0  0  0  0  0  0  0  0  0  0  0
  148.5181  135.0429  155.9539 H   0  0  0  0  0  0  0  0  0  0  0  0
  148.8822  134.1431  154.4986 H   0  0  0  0  0  0  0  0  0  0  0  0
  150.9725  134.9587  155.5717 H   0  0  0  0  0  0  0  0  0  0  0  0
  150.7843  135.6204  153.9688 H   0  0  0  0  0  0  0  0  0  0  0  0
  152.6206  137.8848  159.2120 H   0  0  0  0  0  0  0  0  0  0  0  0
  146.5443  135.8116  158.7132 H   0  0  0  0  0  0  0  0  0  0  0  0
  148.8187  135.8312  161.5716 H   0  0  0  0  0  0  0  0  0  0  0  0
  148.1341  137.4229  161.4452 H   0  0  0  0  0  0  0  0  0  0  0  0
  145.6471  136.8431  159.6881 H   0  0  0  0  0  0  0  0  0  0  0  0
  144.5887  136.4590  161.0296 H   0  0  0  0  0  0  0  0  0  0  0  0
  145.1491  138.2456  161.9759 H   0  0  0  0  0  0  0  0  0  0  0  0
  145.7392  134.1501  160.2122 H   0  0  0  0  0  0  0  0  0  0  0  0
  147.4188  133.8340  160.7554 H   0  0  0  0  0  0  0  0  0  0  0  0
  147.3136  135.2712  163.3858 H   0  0  0  0  0  0  0  0  0  0  0  0
  145.6164  135.8499  163.3035 H   0  0  0  0  0  0  0  0  0  0  0  0
  149.9863  137.9066  153.7112 H   0  0  0  0  0  0  0  0  0  0  0  0
  149.2397  140.0770  154.4739 H   0  0  0  0  0  0  0  0  0  0  0  0
  150.7957  139.7068  155.2019 H   0  0  0  0  0  0  0  0  0  0  0  0
  149.3188  139.5984  156.1577 H   0  0  0  0  0  0  0  0  0  0  0  0
  147.5741  138.1227  153.9817 H   0  0  0  0  0  0  0  0  0  0  0  0
  147.6423  137.5457  155.6296 H   0  0  0  0  0  0  0  0  0  0  0  0
  148.3968  136.0848  153.2234 H   0  0  0  0  0  0  0  0  0  0  0  0
  1  2  1  0  0  0  0
  1 28  1  0  0  0  0
  1 29  1  0  0  0  0
  1 30  1  0  0  0  0
  2  3  1  0  0  0  0
  2  4  1  0  0  0  0
  2 31  1  0  0  0  0
  3 32  1  0  0  0  0
  4  5  1  0  0  0  0
  4 33  1  0  0  0  0
  4 34  1  0  0  0  0
  5 27  1  0  0  0  0
  5  6  1  0  0  0  0
  5 56  1  0  0  0  0
  6  7  1  0  0  0  0
  6 35  1  0  0  0  0
  6 36  1  0  0  0  0
  7  8  1  0  0  0  0
  7 37  1  0  0  0  0
  7 38  1  0  0  0  0
  8  9  1  0  0  0  0
  8 25  1  0  0  0  0
  9 14  1  0  0  0  0
  9 10  2  0  0  0  0
 10 11  1  0  0  0  0
 11 12  2  0  0  0  0
 11 39  1  0  0  0  0
 12 13  1  0  0  0  0
 13 17  1  0  0  0  0
 13 14  2  0  0  0  0
 14 15  1  0  0  0  0
 15 16  2  0  0  0  0
 16 17  1  0  0  0  0
 16 40  1  0  0  0  0
 17 18  1  0  0  0  0
 18 19  1  0  0  0  0
 18 41  1  0  0  0  0
 18 42  1  0  0  0  0
 19 24  1  0  0  0  0
 19 20  1  0  0  0  0
 19 22  1  0  0  0  0
 20 21  1  0  0  0  0
 20 43  1  0  0  0  0
 20 44  1  0  0  0  0
 21 45  1  0  0  0  0
 22 23  1  0  0  0  0
 22 46  1  0  0  0  0
 22 47  1  0  0  0  0
 23 24  1  0  0  0  0
 24 48  1  0  0  0  0
 24 49  1  0  0  0  0
 25 26  1  0  0  0  0
 25 27  1  0  0  0  0
 25 50  1  0  0  0  0
 26 51  1  0  0  0  0
 26 52  1  0  0  0  0
 26 53  1  0  0  0  0
 27 54  1  0  0  0  0
 27 55  1  0  0  0  0
M  CHG  1   5   1
M  END
> <s_m_source_file>
AV-unprocessed.smi

> <i_m_source_file_index>
79

> <i_lp_mmshare_version>
43012

> <i_f3d_flags>
0

> <s_epik_input>
W0NIM11bQ0BIXShbT0hdKVtDSDJdTjFbQ0gyXVtDSDJdTihbQ0BASF0oW0NIM10pW0NIMl0xKWMobltjSF1uMiljKGMyMyluW2NIXW4zW0NIMl1DNChbQ0gyXVtPSF0pW0NIMl1PW0NIMl00

> <s_epik_cmdline>
J2VwaWtfcHl0aG9uJywgJy1waCcsICc3LjAnLCAnLXRuJywgJzgnLCAnLW1hJywgJzIwMCcsICctbWV0YWxfYmluZGluZycsICctaW1hZScsICc8aW5maWxlLm1hZT4nLCAnLW9tYWUnLCAnPG91dGZpbGUubWFlPic=

> <r_lp_tautomer_probability>
1

> <r_epik_Ionization_Penalty>
0.00515943

> <r_epik_Ionization_Penalty_Charging>
0.00509693

> <r_epik_Ionization_Penalty_Neutral>
6.25007e-05

> <r_epik_State_Penalty>
-0

> <r_epik_Charging_Adjusted_Penalty>
0.00509693

> <i_epik_Tot_Q>
1

> <i_epik_Tot_abs_Q>
1

> <r_epik_Metal_State_Penalty>
-0

> <b_epik_Metal_Only>
0

> <s_lp_Force_Field>
OPLS_2005

> <r_lp_Energy>
48.9332

> <b_lp_Chiralities_Consistent>
1

> <s_lp_Variant>
AV-unprocessed.smi:79-6

> <Gold.Version>
5.8.1

> <Gold.Id.Protein>
6NUR|6NUR_protein|mol2

> <Gold.PLP.Fitness>
42.1362

> <Gold.PLP.PLP>
-30.4192

> <Gold.PLP.part.hbond>
-3.5297

> <Gold.PLP.part.metal>
0.0000

> <Gold.PLP.part.buried>
-4.5415

> <Gold.PLP.part.nonpolar>
-22.5043

> <Gold.PLP.part.repulsive>
0.1110

> <Gold.PLP.ligand.clash>
0.0000

> <Gold.PLP.ligand.torsion>
0.6559

> <Gold.PLP.Chemscore.Hbond>
4.0869

> <Gold.PLP.Chemscore.CHOScore>
0.0000

> <Gold.PLP.Chemscore.Metal>
0.0000

> <Gold.Chemscore.Hbonds>
donor molecule, donor type, donor heavy atom, donor atom, acceptor molecule, acceptor atom, score
      L1  H     3    32       P1  7948  0.94
      L1  H     5    56       P1  7948  1.72
      P1  H  6896  6908       L1    12  0.19
      P1  H  6934  6947       L1    21  0.78

> <Gold.PLP.Chemscore.Internal.Correction>
0.7679

> <Gold.Rescore>
     Score         DG    S(hbond)    S(metal)    S(lipo)     H(rot)  DE(clash)    DE(int)     intcor
     11.20     -13.45       2.87        0.00      67.69       3.72       0.02       2.23       ----

> <Gold.Chemscore.Fitness>
11.2008

> <Gold.Chemscore.DG>
-13.4518

> <Gold.Chemscore.ZeroCoef>
-5.4800

> <Gold.Chemscore.Hbond>
2.8687

> <Gold.Chemscore.Metal>
0.0000

> <Gold.Chemscore.Lipo>
67.6948

> <Gold.Chemscore.Internal_Hbond>
0.0000

> <Gold.Chemscore.DEClash>
0.0234

> <Gold.Chemscore.DEInternal>
2.2276

> <Gold.Chemscore.Rot>
3.7226

> <Gold.Chemscore.Internal.Correction>
   9.000000E+99

> <Gold.Chemscore.Hbonds>
donor molecule, donor type, donor heavy atom, donor atom, acceptor molecule, acceptor atom, score
      L1  H     3    32       P1  7948  0.89
      L1  H     5    56       P1  7948  0.84
      P1  H  6934  6947       L1    21  0.77

> <Gold.Chemscore.Hbond.Weighted>
-9.5813

> <Gold.Chemscore.Metal.Weighted>
-0.0000

> <Gold.Chemscore.Lipo.Weighted>
-7.9203

> <Gold.Chemscore.Internal_Hbond.Weighted>
0.0000

> <Gold.Chemscore.DEClash.Weighted>
0.0234

> <Gold.Chemscore.DEInternal.Weighted>
2.2276

> <Gold.Chemscore.Rot.Weighted>
9.5298

> <Gold.Chemscore.Internal.Correction.Weighted>
   9.000000E+99

> <Gold.Protein.RotatedTorsions>
[ 6907 6896 6895 6894 ] final -137.62 input  -60.11 | X-H torsion
[ 7974 7965 7964 7962 ] final -152.21 input  175.53 | X-H torsion
[ 8008 7997 7996 7995 ] final   21.64 input   59.86 | X-H torsion
[ 10167 10162 10161 10158 ] final   81.38 input  -65.29 | X-H torsion
[ 10718 10713 10712 10709 ] final  -12.51 input   66.30 | X-H torsion
[ 10763 10752 10751 10750 ] final  106.64 input  -60.55 | X-H torsion
[ 11005 11000 10999 10996 ] final  -19.78 input  -57.11 | X-H torsion

> <Gold.Protein.ActiveResidues>
 VAL166  LYS551  ARG553  GLY616  TRP617  ASP618  TYR619  PRO620  LYS621  CYS622 
 ASP623  PHE694  ASN695  SER759  ASP760  ASP761  ALA762  ILE779  LEU786  VAL792 
 PHE793  MET794  SER795  GLU796  ALA797  LYS798  CYS799  TRP800  GLU811  SER814 

> <Gold.Protein.RotatedAtoms>
  151.0248  133.5844  159.2666 H   0  0  0  0  0  0  0  0  0  0  0  0  # atno 6907 bound_to 6896
  151.2947  135.0751  159.9227 H   0  0  0  0  0  0  0  0  0  0  0  0  # atno 6908 bound_to 6896
  152.5331  133.9940  159.7918 H   0  0  0  0  0  0  0  0  0  0  0  0  # atno 6909 bound_to 6896
  144.7807  140.4693  143.5841 H   0  0  0  0  0  0  0  0  0  0  0  0  # atno 7974 bound_to 7965
  154.9537  140.3069  155.5063 H   0  0  0  0  0  0  0  0  0  0  0  0  # atno 8008 bound_to 7997
  156.2984  140.2314  156.4555 H   0  0  0  0  0  0  0  0  0  0  0  0  # atno 8009 bound_to 7997
  154.8030  140.0433  157.1275 H   0  0  0  0  0  0  0  0  0  0  0  0  # atno 8010 bound_to 7997
  139.9399  144.6097  150.8262 H   0  0  0  0  0  0  0  0  0  0  0  0  # atno 10167 bound_to 10162
  156.6436  130.4935  149.6086 H   0  0  0  0  0  0  0  0  0  0  0  0  # atno 10718 bound_to 10713
  153.3958  135.3870  155.1954 H   0  0  0  0  0  0  0  0  0  0  0  0  # atno 10763 bound_to 10752
  154.8724  135.3759  154.4681 H   0  0  0  0  0  0  0  0  0  0  0  0  # atno 10764 bound_to 10752
  153.5172  135.7087  153.5811 H   0  0  0  0  0  0  0  0  0  0  0  0  # atno 10765 bound_to 10752
  140.8400  133.7933  155.9851 H   0  0  0  0  0  0  0  0  0  0  0  0  # atno 11005 bound_to 11000
  145.6059  139.1508  143.3103 LP  0  0  0  0  0  0  0  0  0  0  0  0  # atno 17320 bound_to 7965
  146.2013  140.6178  142.9101 LP  0  0  0  0  0  0  0  0  0  0  0  0  # atno 17321 bound_to 7965
  140.7614  143.3173  151.2703 LP  0  0  0  0  0  0  0  0  0  0  0  0  # atno 17342 bound_to 10162
  139.6713  144.0015  152.2755 LP  0  0  0  0  0  0  0  0  0  0  0  0  # atno 17343 bound_to 10162
  156.2139  130.6696  151.1299 LP  0  0  0  0  0  0  0  0  0  0  0  0  # atno 17370 bound_to 10713
  157.7163  131.0707  150.6313 LP  0  0  0  0  0  0  0  0  0  0  0  0  # atno 17371 bound_to 10713
  140.8905  134.2501  157.5097 LP  0  0  0  0  0  0  0  0  0  0  0  0  # atno 17394 bound_to 11000
  139.8703  134.9659  156.4544 LP  0  0  0  0  0  0  0  0  0  0  0  0  # atno 17395 bound_to 11000

$$$$
