AV-unprocessed.smi:3074|AV-procd|sdf|11722|dock4
  -GOLD-   2272017123D 1   1.00000     0.00000
 Structure written by MMmdl.
 20 21  0  0  0  0  0  0  0  0  3 V2000
  143.8181  132.0984  150.1992 C   0  0  0  0  0  0  0  0  0  0  0  0
  145.0967  132.1662  150.6900 C   0  0  0  0  0  0  0  0  0  0  0  0
  145.3040  133.4691  151.0666 N   0  0  0  0  0  0  0  0  0  0  0  0
  146.4715  134.0190  151.6941 C   0  0  0  0  0  0  0  0  0  0  0  0
  147.5940  133.1189  152.2120 C   0  0  0  0  0  0  0  0  0  0  0  0
  147.8001  134.0913  153.2788 N   0  3  0  0  0  0  0  0  0  0  0  0
  146.4226  134.5448  153.1287 C   0  0  0  0  0  0  0  0  0  0  0  0
  144.1866  134.1817  150.8689 C   0  0  0  0  0  0  0  0  0  0  0  0
  143.2888  133.3547  150.3232 N   0  3  0  0  0  0  0  0  0  0  0  0
  143.2560  131.2700  149.7927 H   0  0  0  0  0  0  0  0  0  0  0  0
  145.8536  131.4017  150.7915 H   0  0  0  0  0  0  0  0  0  0  0  0
  146.8617  134.7799  151.0141 H   0  0  0  0  0  0  0  0  0  0  0  0
  147.2448  132.1579  152.5952 H   0  0  0  0  0  0  0  0  0  0  0  0
  148.4452  133.0092  151.5395 H   0  0  0  0  0  0  0  0  0  0  0  0
  148.0037  133.6796  154.1787 H   0  0  0  0  0  0  0  0  0  0  0  0
  146.2987  135.6242  153.2214 H   0  0  0  0  0  0  0  0  0  0  0  0
  145.7369  133.9939  153.7759 H   0  0  0  0  0  0  0  0  0  0  0  0
  144.0363  135.2216  151.0994 H   0  0  0  0  0  0  0  0  0  0  0  0
  148.4578  134.8078  153.0050 H   0  0  0  0  0  0  0  0  0  0  0  0
  142.3487  133.6188  150.0550 H   0  0  0  0  0  0  0  0  0  0  0  0
  1  9  1  0  0  0  0
  1  2  2  0  0  0  0
  1 10  1  0  0  0  0
  2  3  1  0  0  0  0
  2 11  1  0  0  0  0
  3  4  1  0  0  0  0
  3  8  1  0  0  0  0
  4  7  1  0  0  0  0
  4  5  1  0  0  0  0
  4 12  1  0  0  0  0
  5  6  1  0  0  0  0
  5 13  1  0  0  0  0
  5 14  1  0  0  0  0
  6  7  1  0  0  0  0
  6 15  1  0  0  0  0
  6 19  1  0  0  0  0
  7 16  1  0  0  0  0
  7 17  1  0  0  0  0
  8  9  2  0  0  0  0
  8 18  1  0  0  0  0
  9 20  1  0  0  0  0
M  CHG  1   6   1
M  CHG  1   9   1
M  END
> <s_m_source_file>
AV-unprocessed.smi

> <i_m_source_file_index>
3074

> <i_lp_mmshare_version>
43012

> <i_f3d_flags>
0

> <s_epik_input>
W2NIXTFuW2NIXVtjSF1uMVtDSF0yW0NIMl1bTkhdW0NIMl0y

> <s_epik_cmdline>
J2VwaWtfcHl0aG9uJywgJy1waCcsICc3LjAnLCAnLXRuJywgJzgnLCAnLW1hJywgJzIwMCcsICctbWV0YWxfYmluZGluZycsICctaW1hZScsICc8aW5maWxlLm1hZT4nLCAnLW9tYWUnLCAnPG91dGZpbGUubWFlPic=

> <r_lp_tautomer_probability>
1

> <r_epik_Ionization_Penalty>
1.41643

> <r_epik_Ionization_Penalty_Charging>
0.0219601

> <r_epik_Ionization_Penalty_Neutral>
1.39447

> <r_epik_State_Penalty>
1.13931

> <r_epik_Charging_Adjusted_Penalty>
1.16127

> <i_epik_Tot_Q>
2

> <i_epik_Tot_abs_Q>
2

> <r_epik_Metal_State_Penalty>
5.12948

> <b_epik_Metal_Only>
0

> <s_lp_Force_Field>
OPLS_2005

> <r_lp_Energy>
25.5014

> <b_lp_Chiralities_Consistent>
1

> <s_lp_Variant>
AV-unprocessed.smi:3074-2

> <Gold.Version>
5.8.1

> <Gold.Id.Protein>
6NUR|6NUR_protein|mol2

> <Gold.PLP.Fitness>
30.9360

> <Gold.PLP.PLP>
-18.9774

> <Gold.PLP.part.hbond>
-2.0000

> <Gold.PLP.part.metal>
0.0000

> <Gold.PLP.part.buried>
-2.9343

> <Gold.PLP.part.nonpolar>
-14.2213

> <Gold.PLP.part.repulsive>
0.0331

> <Gold.PLP.ligand.clash>
0.0000

> <Gold.PLP.ligand.torsion>
0.1577

> <Gold.PLP.Chemscore.Hbond>
4.0000

> <Gold.PLP.Chemscore.CHOScore>
0.0000

> <Gold.PLP.Chemscore.Metal>
0.0000

> <Gold.Chemscore.Hbonds>
donor molecule, donor type, donor heavy atom, donor atom, acceptor molecule, acceptor atom, score
      L1  H     6    19       P1  7948  2.00
      L1  H     9    20       P1 10186  2.00

> <Gold.PLP.Chemscore.Internal.Correction>
0.2740

> <Gold.Rescore>
     Score         DG    S(hbond)    S(metal)    S(lipo)     H(rot)  DE(clash)    DE(int)     intcor
     13.13     -13.31       1.89        0.00      34.97       1.00       0.01       0.16       ----

> <Gold.Chemscore.Fitness>
13.1301

> <Gold.Chemscore.DG>
-13.3077

> <Gold.Chemscore.ZeroCoef>
-5.4800

> <Gold.Chemscore.Hbond>
1.8852

> <Gold.Chemscore.Metal>
0.0000

> <Gold.Chemscore.Lipo>
34.9670

> <Gold.Chemscore.Internal_Hbond>
0.0000

> <Gold.Chemscore.DEClash>
0.0133

> <Gold.Chemscore.DEInternal>
0.1642

> <Gold.Chemscore.Rot>
1.0000

> <Gold.Chemscore.Internal.Correction>
   9.000000E+99

> <Gold.Chemscore.Hbonds>
donor molecule, donor type, donor heavy atom, donor atom, acceptor molecule, acceptor atom, score
      L1  H     6    19       P1  7948  0.52
      L1  H     9    20       P1 10186  1.00

> <Gold.Chemscore.Hbond.Weighted>
-6.2965

> <Gold.Chemscore.Metal.Weighted>
-0.0000

> <Gold.Chemscore.Lipo.Weighted>
-4.0911

> <Gold.Chemscore.Internal_Hbond.Weighted>
0.0000

> <Gold.Chemscore.DEClash.Weighted>
0.0133

> <Gold.Chemscore.DEInternal.Weighted>
0.1642

> <Gold.Chemscore.Rot.Weighted>
2.5600

> <Gold.Chemscore.Internal.Correction.Weighted>
   9.000000E+99

> <Gold.Protein.RotatedTorsions>
[ 6907 6896 6895 6894 ] final   95.64 input  -60.11 | X-H torsion
[ 7974 7965 7964 7962 ] final  -74.52 input  175.53 | X-H torsion
[ 8008 7997 7996 7995 ] final -134.60 input   59.86 | X-H torsion
[ 10167 10162 10161 10158 ] final -179.42 input  -65.29 | X-H torsion
[ 10718 10713 10712 10709 ] final  -45.83 input   66.30 | X-H torsion
[ 10763 10752 10751 10750 ] final  125.34 input  -60.55 | X-H torsion
[ 11005 11000 10999 10996 ] final -112.73 input  -57.11 | X-H torsion

> <Gold.Protein.ActiveResidues>
 VAL166  LYS551  ARG553  GLY616  TRP617  ASP618  TYR619  PRO620  LYS621  CYS622 
 ASP623  PHE694  ASN695  SER759  ASP760  ASP761  ALA762  ILE779  LEU786  VAL792 
 PHE793  MET794  SER795  GLU796  ALA797  LYS798  CYS799  TRP800  GLU811  SER814 

> <Gold.Protein.RotatedAtoms>
  152.5442  134.1009  159.8316 H   0  0  0  0  0  0  0  0  0  0  0  0  # atno 6907 bound_to 6896
  151.1087  133.5182  159.2614 H   0  0  0  0  0  0  0  0  0  0  0  0  # atno 6908 bound_to 6896
  151.1909  135.0411  159.8886 H   0  0  0  0  0  0  0  0  0  0  0  0  # atno 6909 bound_to 6896
  145.6380  140.9319  143.1051 H   0  0  0  0  0  0  0  0  0  0  0  0  # atno 7974 bound_to 7965
  155.3648  140.0485  157.3046 H   0  0  0  0  0  0  0  0  0  0  0  0  # atno 8008 bound_to 7997
  154.5160  140.2208  155.9029 H   0  0  0  0  0  0  0  0  0  0  0  0  # atno 8009 bound_to 7997
  156.1636  140.3111  155.8856 H   0  0  0  0  0  0  0  0  0  0  0  0  # atno 8010 bound_to 7997
  139.5387  144.2424  152.0849 H   0  0  0  0  0  0  0  0  0  0  0  0  # atno 10167 bound_to 10162
  156.2244  130.4168  149.8952 H   0  0  0  0  0  0  0  0  0  0  0  0  # atno 10718 bound_to 10713
  153.6757  135.3323  155.3165 H   0  0  0  0  0  0  0  0  0  0  0  0  # atno 10763 bound_to 10752
  154.8479  135.4397  154.1659 H   0  0  0  0  0  0  0  0  0  0  0  0  # atno 10764 bound_to 10752
  153.2662  135.6996  153.7604 H   0  0  0  0  0  0  0  0  0  0  0  0  # atno 10765 bound_to 10752
  141.0657  133.9462  157.2583 H   0  0  0  0  0  0  0  0  0  0  0  0  # atno 11005 bound_to 11000
  144.7168  139.8168  143.7396 LP  0  0  0  0  0  0  0  0  0  0  0  0  # atno 17320 bound_to 7965
  146.1303  139.4338  143.0172 LP  0  0  0  0  0  0  0  0  0  0  0  0  # atno 17321 bound_to 7965
  140.1899  144.4762  150.6484 LP  0  0  0  0  0  0  0  0  0  0  0  0  # atno 17342 bound_to 10162
  140.6606  143.2251  151.5864 LP  0  0  0  0  0  0  0  0  0  0  0  0  # atno 17343 bound_to 10162
  156.6588  130.8773  151.3544 LP  0  0  0  0  0  0  0  0  0  0  0  0  # atno 17370 bound_to 10713
  157.7103  130.9433  150.1068 LP  0  0  0  0  0  0  0  0  0  0  0  0  # atno 17371 bound_to 10713
  139.9474  135.0181  156.8894 LP  0  0  0  0  0  0  0  0  0  0  0  0  # atno 17394 bound_to 11000
  140.5778  134.0382  155.7453 LP  0  0  0  0  0  0  0  0  0  0  0  0  # atno 17395 bound_to 11000

$$$$
