AV-unprocessed.smi:1578|AV-procd|sdf|6352|dock3
  -GOLD-   22720 6573D 1   1.00000     0.00000
 Structure written by MMmdl.
 45 46  0  0  0  0  0  0  0  0  2 V2000
  145.5683  134.3920  155.8736 C   0  0  0  0  0  0  0  0  0  0  0  0
  146.4526  135.6214  155.6275 C   0  0  2  0  0  0  0  0  0  0  0  0
  147.5014  135.3589  154.5242 C   0  0  0  0  0  0  0  0  0  0  0  0
  146.8893  135.1816  153.1827 N   0  3  0  0  0  0  0  0  0  0  0  0
  146.3241  133.8290  152.9716 C   0  0  0  0  0  0  0  0  0  0  0  0
  145.7916  133.6960  151.5346 C   0  0  0  0  0  0  0  0  0  0  0  0
  144.8246  134.7096  151.2865 O   0  0  0  0  0  0  0  0  0  0  0  0
  145.3750  136.0155  151.4105 C   0  0  0  0  0  0  0  0  0  0  0  0
  145.8898  136.2227  152.8443 C   0  0  0  0  0  0  0  0  0  0  0  0
  147.1145  135.9998  156.8750 N   0  0  0  0  0  0  0  0  0  0  0  0
  146.5437  136.0763  158.0906 C   0  0  0  0  0  0  0  0  0  0  0  0
  145.3688  135.7761  158.2969 O   0  0  0  0  0  0  0  0  0  0  0  0
  147.3905  136.6190  159.2540 C   0  0  0  0  0  0  0  0  0  0  0  0
  147.4846  135.7111  160.4112 N   0  0  0  0  0  0  0  0  0  0  0  0
  147.6092  134.3374  160.1238 C   0  0  0  0  0  0  0  0  0  0  0  0
  147.6919  133.3925  161.0792 C   0  0  0  0  0  0  0  0  0  0  0  0
  147.7483  131.9125  160.7340 C   0  0  0  0  0  0  0  0  0  0  0  0
  147.8751  131.1673  161.8319 F   0  0  0  0  0  0  0  0  0  0  0  0
  146.6437  131.5280  160.0929 F   0  0  0  0  0  0  0  0  0  0  0  0
  148.7923  131.6705  159.9431 F   0  0  0  0  0  0  0  0  0  0  0  0
  147.6241  133.8561  162.4512 C   0  0  0  0  0  0  0  0  0  0  0  0
  147.4888  135.1645  162.7434 C   0  0  0  0  0  0  0  0  0  0  0  0
  147.4028  136.1807  161.6920 C   0  0  0  0  0  0  0  0  0  0  0  0
  147.2532  137.3757  161.9454 O   0  0  0  0  0  0  0  0  0  0  0  0
  145.0464  134.0962  154.9631 H   0  0  0  0  0  0  0  0  0  0  0  0
  144.8129  134.5977  156.6327 H   0  0  0  0  0  0  0  0  0  0  0  0
  146.1564  133.5382  156.2125 H   0  0  0  0  0  0  0  0  0  0  0  0
  145.7933  136.4261  155.2997 H   0  0  0  0  0  0  0  0  0  0  0  0
  148.1755  136.2164  154.4905 H   0  0  0  0  0  0  0  0  0  0  0  0
  148.1205  134.4953  154.7711 H   0  0  0  0  0  0  0  0  0  0  0  0
  147.0914  133.0742  153.1474 H   0  0  0  0  0  0  0  0  0  0  0  0
  145.5227  133.6492  153.6899 H   0  0  0  0  0  0  0  0  0  0  0  0
  146.6045  133.7689  150.8101 H   0  0  0  0  0  0  0  0  0  0  0  0
  145.3266  132.7202  151.3942 H   0  0  0  0  0  0  0  0  0  0  0  0
  146.1777  136.1571  150.6846 H   0  0  0  0  0  0  0  0  0  0  0  0
  144.6027  136.7489  151.1787 H   0  0  0  0  0  0  0  0  0  0  0  0
  145.0588  136.1787  153.5499 H   0  0  0  0  0  0  0  0  0  0  0  0
  146.3309  137.2153  152.9319 H   0  0  0  0  0  0  0  0  0  0  0  0
  148.0892  136.2551  156.8038 H   0  0  0  0  0  0  0  0  0  0  0  0
  148.3935  136.8288  158.8786 H   0  0  0  0  0  0  0  0  0  0  0  0
  146.9920  137.5923  159.5447 H   0  0  0  0  0  0  0  0  0  0  0  0
  147.6160  134.1007  159.0692 H   0  0  0  0  0  0  0  0  0  0  0  0
  147.6887  133.1431  163.2600 H   0  0  0  0  0  0  0  0  0  0  0  0
  147.4445  135.4736  163.7777 H   0  0  0  0  0  0  0  0  0  0  0  0
  147.6432  135.2750  152.5170 H   0  0  0  0  0  0  0  0  0  0  0  0
  1  2  1  0  0  0  0
  1 25  1  0  0  0  0
  1 26  1  0  0  0  0
  1 27  1  0  0  0  0
  2  3  1  0  0  0  0
  2 10  1  0  0  0  0
  2 28  1  0  0  0  0
  3  4  1  0  0  0  0
  3 29  1  0  0  0  0
  3 30  1  0  0  0  0
  4  9  1  0  0  0  0
  4  5  1  0  0  0  0
  4 45  1  0  0  0  0
  5  6  1  0  0  0  0
  5 31  1  0  0  0  0
  5 32  1  0  0  0  0
  6  7  1  0  0  0  0
  6 33  1  0  0  0  0
  6 34  1  0  0  0  0
  7  8  1  0  0  0  0
  8  9  1  0  0  0  0
  8 35  1  0  0  0  0
  8 36  1  0  0  0  0
  9 37  1  0  0  0  0
  9 38  1  0  0  0  0
 10 11  1  0  0  0  0
 10 39  1  0  0  0  0
 11 12  2  0  0  0  0
 11 13  1  0  0  0  0
 13 14  1  0  0  0  0
 13 40  1  0  0  0  0
 13 41  1  0  0  0  0
 14 23  1  0  0  0  0
 14 15  1  0  0  0  0
 15 16  2  0  0  0  0
 15 42  1  0  0  0  0
 16 17  1  0  0  0  0
 16 21  1  0  0  0  0
 17 18  1  0  0  0  0
 17 19  1  0  0  0  0
 17 20  1  0  0  0  0
 21 22  2  0  0  0  0
 21 43  1  0  0  0  0
 22 23  1  0  0  0  0
 22 44  1  0  0  0  0
 23 24  2  0  0  0  0
M  CHG  1   4   1
M  END
> <s_m_source_file>
AV-unprocessed.smi

> <i_m_source_file_index>
1578

> <i_lp_mmshare_version>
43012

> <i_f3d_flags>
0

> <s_epik_input>
W0NIMl0xW0NIMl1PW0NIMl1bQ0gyXU4xW0NIMl1bQ0BASF0oW0NIM10pW05IXUMoPU8pW0NIMl1uMltjSF1jKEMoRikoRilGKVtjSF1bY0hdYzI9Tw==

> <s_epik_cmdline>
J2VwaWtfcHl0aG9uJywgJy1waCcsICc3LjAnLCAnLXRuJywgJzgnLCAnLW1hJywgJzIwMCcsICctbWV0YWxfYmluZGluZycsICctaW1hZScsICc8aW5maWxlLm1hZT4nLCAnLW9tYWUnLCAnPG91dGZpbGUubWFlPic=

> <r_lp_tautomer_probability>
1

> <r_epik_Ionization_Penalty>
0.656654

> <r_epik_Ionization_Penalty_Charging>
0.656653

> <r_epik_Ionization_Penalty_Neutral>
9.12373e-08

> <r_epik_State_Penalty>
0.675641

> <r_epik_Charging_Adjusted_Penalty>
1.33229

> <i_epik_Tot_Q>
1

> <i_epik_Tot_abs_Q>
1

> <r_epik_Metal_State_Penalty>
0.675695

> <b_epik_Metal_Only>
0

> <s_lp_Force_Field>
OPLS_2005

> <r_lp_Energy>
34.2523

> <b_lp_Chiralities_Consistent>
1

> <s_lp_Variant>
AV-unprocessed.smi:1578-3

> <Gold.Version>
5.8.1

> <Gold.Id.Protein>
6NUR|6NUR_protein|mol2

> <Gold.PLP.Fitness>
41.3516

> <Gold.PLP.PLP>
-32.0404

> <Gold.PLP.part.hbond>
-3.0000

> <Gold.PLP.part.metal>
0.0000

> <Gold.PLP.part.buried>
-2.9585

> <Gold.PLP.part.nonpolar>
-25.8579

> <Gold.PLP.part.repulsive>
0.1658

> <Gold.PLP.ligand.clash>
0.0000

> <Gold.PLP.ligand.torsion>
0.6854

> <Gold.PLP.Chemscore.Hbond>
3.4880

> <Gold.PLP.Chemscore.CHOScore>
0.0000

> <Gold.PLP.Chemscore.Metal>
0.0000

> <Gold.Chemscore.Hbonds>
donor molecule, donor type, donor heavy atom, donor atom, acceptor molecule, acceptor atom, score
      L1  H     4    45       P1  7948  2.00
      P1  H  6931  6943       L1    24  0.77
      P1  H  6934  6947       L1    24  0.74

> <Gold.PLP.Chemscore.Internal.Correction>
0.2180

> <Gold.Rescore>
     Score         DG    S(hbond)    S(metal)    S(lipo)     H(rot)  DE(clash)    DE(int)     intcor
     12.78     -14.90       2.51        0.00      56.47       2.17       0.06       2.06       ----

> <Gold.Chemscore.Fitness>
12.7849

> <Gold.Chemscore.DG>
-14.9043

> <Gold.Chemscore.ZeroCoef>
-5.4800

> <Gold.Chemscore.Hbond>
2.5080

> <Gold.Chemscore.Metal>
0.0000

> <Gold.Chemscore.Lipo>
56.4687

> <Gold.Chemscore.Internal_Hbond>
0.0000

> <Gold.Chemscore.DEClash>
0.0589

> <Gold.Chemscore.DEInternal>
2.0605

> <Gold.Chemscore.Rot>
2.1716

> <Gold.Chemscore.Internal.Correction>
   9.000000E+99

> <Gold.Chemscore.Hbonds>
donor molecule, donor type, donor heavy atom, donor atom, acceptor molecule, acceptor atom, score
      L1  H     4    45       P1  7948  0.95
      P1  H  6931  6943       L1    24  0.53
      P1  H  6934  6947       L1    24  0.74

> <Gold.Chemscore.Hbond.Weighted>
-8.3767

> <Gold.Chemscore.Metal.Weighted>
-0.0000

> <Gold.Chemscore.Lipo.Weighted>
-6.6068

> <Gold.Chemscore.Internal_Hbond.Weighted>
0.0000

> <Gold.Chemscore.DEClash.Weighted>
0.0589

> <Gold.Chemscore.DEInternal.Weighted>
2.0605

> <Gold.Chemscore.Rot.Weighted>
5.5592

> <Gold.Chemscore.Internal.Correction.Weighted>
   9.000000E+99

> <Gold.Protein.RotatedTorsions>
[ 6907 6896 6895 6894 ] final  -17.52 input  -60.11 | X-H torsion
[ 7974 7965 7964 7962 ] final   41.56 input  175.53 | X-H torsion
[ 8008 7997 7996 7995 ] final  -97.60 input   59.86 | X-H torsion
[ 10167 10162 10161 10158 ] final  118.77 input  -65.29 | X-H torsion
[ 10718 10713 10712 10709 ] final -139.58 input   66.30 | X-H torsion
[ 10763 10752 10751 10750 ] final  -50.53 input  -60.55 | X-H torsion
[ 11005 11000 10999 10996 ] final   52.91 input  -57.11 | X-H torsion

> <Gold.Protein.ActiveResidues>
 VAL166  LYS551  ARG553  GLY616  TRP617  ASP618  TYR619  PRO620  LYS621  CYS622 
 ASP623  PHE694  ASN695  SER759  ASP760  ASP761  ALA762  ILE779  LEU786  VAL792 
 PHE793  MET794  SER795  GLU796  ALA797  LYS798  CYS799  TRP800  GLU811  SER814 

> <Gold.Protein.RotatedAtoms>
  151.2920  135.0744  159.9207 H   0  0  0  0  0  0  0  0  0  0  0  0  # atno 6907 bound_to 6896
  152.5314  133.9921  159.7866 H   0  0  0  0  0  0  0  0  0  0  0  0  # atno 6908 bound_to 6896
  151.0193  133.5840  159.2704 H   0  0  0  0  0  0  0  0  0  0  0  0  # atno 6909 bound_to 6896
  146.0813  139.5401  142.9535 H   0  0  0  0  0  0  0  0  0  0  0  0  # atno 7974 bound_to 7965
  154.7899  140.0462  157.1193 H   0  0  0  0  0  0  0  0  0  0  0  0  # atno 8008 bound_to 7997
  154.9603  140.3076  155.5014 H   0  0  0  0  0  0  0  0  0  0  0  0  # atno 8009 bound_to 7997
  156.2948  140.2272  156.4688 H   0  0  0  0  0  0  0  0  0  0  0  0  # atno 8010 bound_to 7997
  139.6090  144.7077  151.2888 H   0  0  0  0  0  0  0  0  0  0  0  0  # atno 10167 bound_to 10162
  156.3124  130.7489  151.1568 H   0  0  0  0  0  0  0  0  0  0  0  0  # atno 10718 bound_to 10713
  154.1118  135.6548  153.4886 H   0  0  0  0  0  0  0  0  0  0  0  0  # atno 10763 bound_to 10752
  153.0254  135.5249  154.7184 H   0  0  0  0  0  0  0  0  0  0  0  0  # atno 10764 bound_to 10752
  154.6366  135.2983  155.0123 H   0  0  0  0  0  0  0  0  0  0  0  0  # atno 10765 bound_to 10752
  140.0810  134.5338  155.8946 H   0  0  0  0  0  0  0  0  0  0  0  0  # atno 11005 bound_to 11000
  145.6212  141.0322  143.1914 LP  0  0  0  0  0  0  0  0  0  0  0  0  # atno 17320 bound_to 7965
  144.7295  139.7769  143.7352 LP  0  0  0  0  0  0  0  0  0  0  0  0  # atno 17321 bound_to 7965
  140.7305  143.6877  150.7948 LP  0  0  0  0  0  0  0  0  0  0  0  0  # atno 17342 bound_to 10162
  140.0468  143.5290  152.2692 LP  0  0  0  0  0  0  0  0  0  0  0  0  # atno 17343 bound_to 10162
  157.7394  131.0530  150.5235 LP  0  0  0  0  0  0  0  0  0  0  0  0  # atno 17370 bound_to 10713
  156.5376  130.4200  149.6170 LP  0  0  0  0  0  0  0  0  0  0  0  0  # atno 17371 bound_to 10713
  141.2047  133.6641  156.6134 LP  0  0  0  0  0  0  0  0  0  0  0  0  # atno 17394 bound_to 11000
  140.3487  134.7787  157.4451 LP  0  0  0  0  0  0  0  0  0  0  0  0  # atno 17395 bound_to 11000

$$$$
