AV-unprocessed.smi:2658|AV-procd|sdf|10311|dock6
  -GOLD-   2272014333D 1   1.00000     0.00000
 Structure written by MMmdl.
 47 49  0  0  0  0  0  0  0  0  2 V2000
  151.9347  144.9398  160.8257 C   0  0  0  0  0  0  0  0  0  0  0  0
  151.8723  143.8242  159.7963 C   0  0  0  0  0  0  0  0  0  0  0  0
  151.1221  144.0351  158.6174 C   0  0  0  0  0  0  0  0  0  0  0  0
  151.0846  142.9963  157.6949 C   0  0  0  0  0  0  0  0  0  0  0  0
  150.4474  142.8966  156.4562 N   0  3  0  0  0  0  0  0  0  0  0  0
  150.7004  141.6742  155.9123 C   0  0  0  0  0  0  0  0  0  0  0  0
  151.4888  140.9910  156.7856 N   0  0  0  0  0  0  0  0  0  0  0  0
  152.0388  139.6310  156.6850 C   0  0  0  0  0  0  0  0  0  0  0  0
  152.0051  139.0715  155.2487 C   0  0  1  0  0  0  0  0  0  0  0  0
  153.3150  138.7126  154.8548 O   0  0  0  0  0  0  0  0  0  0  0  0
  151.1078  137.8285  155.1444 C   0  0  0  0  0  0  0  0  0  0  0  0
  151.2963  137.0230  156.3044 O   0  0  0  0  0  0  0  0  0  0  0  0
  151.0499  135.6687  156.2095 C   0  0  0  0  0  0  0  0  0  0  0  0
  150.3733  135.1779  155.0769 C   0  0  0  0  0  0  0  0  0  0  0  0
  150.1298  133.7935  155.0065 C   0  0  0  0  0  0  0  0  0  0  0  0
  149.4045  133.1925  153.8173 C   0  0  0  0  0  0  0  0  0  0  0  0
  150.5870  133.0034  156.0851 C   0  0  0  0  0  0  0  0  0  0  0  0
  150.3798  131.5007  156.1176 C   0  0  0  0  0  0  0  0  0  0  0  0
  151.2351  133.5342  157.1482 N   0  0  0  0  0  0  0  0  0  0  0  0
  151.4641  134.8497  157.2108 N   0  0  0  0  0  0  0  0  0  0  0  0
  151.7572  141.7779  157.9123 C   0  0  0  0  0  0  0  0  0  0  0  0
  152.5021  141.5549  159.0681 C   0  0  0  0  0  0  0  0  0  0  0  0
  152.5548  142.6001  160.0178 C   0  0  0  0  0  0  0  0  0  0  0  0
  153.3627  142.3857  161.2865 C   0  0  0  0  0  0  0  0  0  0  0  0
  151.3756  145.8170  160.4985 H   0  0  0  0  0  0  0  0  0  0  0  0
  152.9667  145.2477  160.9958 H   0  0  0  0  0  0  0  0  0  0  0  0
  151.5106  144.6090  161.7741 H   0  0  0  0  0  0  0  0  0  0  0  0
  150.6011  144.9648  158.4409 H   0  0  0  0  0  0  0  0  0  0  0  0
  150.3392  141.3111  154.9608 H   0  0  0  0  0  0  0  0  0  0  0  0
  153.0497  139.6180  157.0929 H   0  0  0  0  0  0  0  0  0  0  0  0
  151.4394  138.9987  157.3410 H   0  0  0  0  0  0  0  0  0  0  0  0
  151.6351  139.8472  154.5770 H   0  0  0  0  0  0  0  0  0  0  0  0
  153.3687  138.7670  153.9126 H   0  0  0  0  0  0  0  0  0  0  0  0
  150.0617  138.1123  155.0139 H   0  0  0  0  0  0  0  0  0  0  0  0
  151.4028  137.2459  154.2696 H   0  0  0  0  0  0  0  0  0  0  0  0
  150.0523  135.8464  154.2916 H   0  0  0  0  0  0  0  0  0  0  0  0
  148.4752  132.7209  154.1371 H   0  0  0  0  0  0  0  0  0  0  0  0
  150.0261  132.4399  153.3319 H   0  0  0  0  0  0  0  0  0  0  0  0
  149.1592  133.9553  153.0779 H   0  0  0  0  0  0  0  0  0  0  0  0
  150.9135  131.0271  155.2936 H   0  0  0  0  0  0  0  0  0  0  0  0
  149.3206  131.2592  156.0280 H   0  0  0  0  0  0  0  0  0  0  0  0
  150.7449  131.0673  157.0498 H   0  0  0  0  0  0  0  0  0  0  0  0
  153.0271  140.6262  159.2349 H   0  0  0  0  0  0  0  0  0  0  0  0
  153.8192  141.3956  161.3064 H   0  0  0  0  0  0  0  0  0  0  0  0
  152.7260  142.4765  162.1668 H   0  0  0  0  0  0  0  0  0  0  0  0
  154.1631  143.1222  161.3591 H   0  0  0  0  0  0  0  0  0  0  0  0
  149.8812  143.6086  156.0128 H   0  0  0  0  0  0  0  0  0  0  0  0
  1  2  1  0  0  0  0
  1 25  1  0  0  0  0
  1 26  1  0  0  0  0
  1 27  1  0  0  0  0
  2 23  1  0  0  0  0
  2  3  2  0  0  0  0
  3  4  1  0  0  0  0
  3 28  1  0  0  0  0
  4 21  2  0  0  0  0
  4  5  1  0  0  0  0
  5  6  2  0  0  0  0
  5 47  1  0  0  0  0
  6  7  1  0  0  0  0
  6 29  1  0  0  0  0
  7  8  1  0  0  0  0
  7 21  1  0  0  0  0
  8  9  1  0  0  0  0
  8 30  1  0  0  0  0
  8 31  1  0  0  0  0
  9 10  1  0  0  0  0
  9 11  1  0  0  0  0
  9 32  1  0  0  0  0
 10 33  1  0  0  0  0
 11 12  1  0  0  0  0
 11 34  1  0  0  0  0
 11 35  1  0  0  0  0
 12 13  1  0  0  0  0
 13 20  1  0  0  0  0
 13 14  2  0  0  0  0
 14 15  1  0  0  0  0
 14 36  1  0  0  0  0
 15 16  1  0  0  0  0
 15 17  2  0  0  0  0
 16 37  1  0  0  0  0
 16 38  1  0  0  0  0
 16 39  1  0  0  0  0
 17 18  1  0  0  0  0
 17 19  1  0  0  0  0
 18 40  1  0  0  0  0
 18 41  1  0  0  0  0
 18 42  1  0  0  0  0
 19 20  2  0  0  0  0
 21 22  1  0  0  0  0
 22 23  2  0  0  0  0
 22 43  1  0  0  0  0
 23 24  1  0  0  0  0
 24 44  1  0  0  0  0
 24 45  1  0  0  0  0
 24 46  1  0  0  0  0
M  CHG  1   5   1
M  END
> <s_m_source_file>
AV-unprocessed.smi

> <i_m_source_file_index>
2658

> <i_lp_mmshare_version>
43012

> <i_f3d_flags>
0

> <s_epik_input>
W0NIM11jKFtjSF0xKWMoW0NIM10pW2NIXWMoYzEyKW4oW2NIXW4yKVtDSDJdW0NASF0oW09IXSlbQ0gyXU9jM1tjSF1jKFtDSDNdKWMoW0NIM10pbm4z

> <s_epik_cmdline>
J2VwaWtfcHl0aG9uJywgJy1waCcsICc3LjAnLCAnLXRuJywgJzgnLCAnLW1hJywgJzIwMCcsICctbWV0YWxfYmluZGluZycsICctaW1hZScsICc8aW5maWxlLm1hZT4nLCAnLW9tYWUnLCAnPG91dGZpbGUubWFlPic=

> <r_lp_tautomer_probability>
1

> <r_epik_Ionization_Penalty>
1.0494

> <r_epik_Ionization_Penalty_Charging>
1.04926

> <r_epik_Ionization_Penalty_Neutral>
0.000140304

> <r_epik_State_Penalty>
1.10197

> <r_epik_Charging_Adjusted_Penalty>
2.15123

> <i_epik_Tot_Q>
1

> <i_epik_Tot_abs_Q>
1

> <r_epik_Metal_State_Penalty>
1.19636

> <b_epik_Metal_Only>
0

> <s_lp_Force_Field>
OPLS_2005

> <r_lp_Energy>
21.0246

> <b_lp_Chiralities_Consistent>
1

> <s_lp_Variant>
AV-unprocessed.smi:2658-4

> <Gold.Version>
5.8.1

> <Gold.Id.Protein>
6NUR|6NUR_protein|mol2

> <Gold.PLP.Fitness>
59.1037

> <Gold.PLP.PLP>
-53.0566

> <Gold.PLP.part.hbond>
-3.9039

> <Gold.PLP.part.metal>
0.0000

> <Gold.PLP.part.buried>
-7.8998

> <Gold.PLP.part.nonpolar>
-42.2284

> <Gold.PLP.part.repulsive>
0.0827

> <Gold.PLP.ligand.clash>
0.0000

> <Gold.PLP.ligand.torsion>
1.4601

> <Gold.PLP.Chemscore.Hbond>
2.9787

> <Gold.PLP.Chemscore.CHOScore>
0.0000

> <Gold.PLP.Chemscore.Metal>
0.0000

> <Gold.Chemscore.Hbonds>
donor molecule, donor type, donor heavy atom, donor atom, acceptor molecule, acceptor atom, score
      L1  H     5    47       P1  8028  1.98
      P1  H  6896  6907       L1    19  0.24
      P1  H  7997  8009       L1    10  0.73

> <Gold.PLP.Chemscore.Internal.Correction>
0.0311

> <Gold.Rescore>
     Score         DG    S(hbond)    S(metal)    S(lipo)     H(rot)  DE(clash)    DE(int)     intcor
     17.28     -18.65       1.21        0.00     131.93       2.47       0.07       1.30       ----

> <Gold.Chemscore.Fitness>
17.2792

> <Gold.Chemscore.DG>
-18.6518

> <Gold.Chemscore.ZeroCoef>
-5.4800

> <Gold.Chemscore.Hbond>
1.2141

> <Gold.Chemscore.Metal>
0.0000

> <Gold.Chemscore.Lipo>
131.9316

> <Gold.Chemscore.Internal_Hbond>
0.0000

> <Gold.Chemscore.DEClash>
0.0744

> <Gold.Chemscore.DEInternal>
1.2983

> <Gold.Chemscore.Rot>
2.4685

> <Gold.Chemscore.Internal.Correction>
   9.000000E+99

> <Gold.Chemscore.Hbonds>
donor molecule, donor type, donor heavy atom, donor atom, acceptor molecule, acceptor atom, score
      L1  H     5    47       P1  8028  0.92
      P1  H  6896  6907       L1    19  0.01
      P1  H  7997  8009       L1    10  0.17

> <Gold.Chemscore.Hbond.Weighted>
-4.0552

> <Gold.Chemscore.Metal.Weighted>
-0.0000

> <Gold.Chemscore.Lipo.Weighted>
-15.4360

> <Gold.Chemscore.Internal_Hbond.Weighted>
0.0000

> <Gold.Chemscore.DEClash.Weighted>
0.0744

> <Gold.Chemscore.DEInternal.Weighted>
1.2983

> <Gold.Chemscore.Rot.Weighted>
6.3194

> <Gold.Chemscore.Internal.Correction.Weighted>
   9.000000E+99

> <Gold.Protein.RotatedTorsions>
[ 6907 6896 6895 6894 ] final -172.81 input  -60.11 | X-H torsion
[ 7974 7965 7964 7962 ] final  -55.78 input  175.53 | X-H torsion
[ 8008 7997 7996 7995 ] final -141.62 input   59.86 | X-H torsion
[ 10167 10162 10161 10158 ] final -136.32 input  -65.29 | X-H torsion
[ 10718 10713 10712 10709 ] final  -79.31 input   66.30 | X-H torsion
[ 10763 10752 10751 10750 ] final   10.15 input  -60.55 | X-H torsion
[ 11005 11000 10999 10996 ] final   50.88 input  -57.11 | X-H torsion

> <Gold.Protein.ActiveResidues>
 VAL166  LYS551  ARG553  GLY616  TRP617  ASP618  TYR619  PRO620  LYS621  CYS622 
 ASP623  PHE694  ASN695  SER759  ASP760  ASP761  ALA762  ILE779  LEU786  VAL792 
 PHE793  MET794  SER795  GLU796  ALA797  LYS798  CYS799  TRP800  GLU811  SER814 

> <Gold.Protein.RotatedAtoms>
  151.5460  133.3425  159.2943 H   0  0  0  0  0  0  0  0  0  0  0  0  # atno 6907 bound_to 6896
  150.8507  134.7833  159.7017 H   0  0  0  0  0  0  0  0  0  0  0  0  # atno 6908 bound_to 6896
  152.4554  134.5311  159.9863 H   0  0  0  0  0  0  0  0  0  0  0  0  # atno 6909 bound_to 6896
  145.8702  140.8221  142.9892 H   0  0  0  0  0  0  0  0  0  0  0  0  # atno 7974 bound_to 7965
  155.4807  140.0560  157.2967 H   0  0  0  0  0  0  0  0  0  0  0  0  # atno 8008 bound_to 7997
  154.4661  140.2019  156.0067 H   0  0  0  0  0  0  0  0  0  0  0  0  # atno 8009 bound_to 7997
  156.0977  140.3224  155.7904 H   0  0  0  0  0  0  0  0  0  0  0  0  # atno 8010 bound_to 7997
  139.8689  143.6982  152.2642 H   0  0  0  0  0  0  0  0  0  0  0  0  # atno 10167 bound_to 10162
  156.0096  130.4542  150.3629 H   0  0  0  0  0  0  0  0  0  0  0  0  # atno 10718 bound_to 10713
  153.2063  135.6863  153.8168 H   0  0  0  0  0  0  0  0  0  0  0  0  # atno 10763 bound_to 10752
  153.7417  135.3237  155.3306 H   0  0  0  0  0  0  0  0  0  0  0  0  # atno 10764 bound_to 10752
  154.8199  135.4660  154.0852 H   0  0  0  0  0  0  0  0  0  0  0  0  # atno 10765 bound_to 10752
  140.0980  134.5120  155.8789 H   0  0  0  0  0  0  0  0  0  0  0  0  # atno 11005 bound_to 11000
  144.6726  140.1228  143.7448 LP  0  0  0  0  0  0  0  0  0  0  0  0  # atno 17320 bound_to 7965
  145.9145  139.2507  143.1418 LP  0  0  0  0  0  0  0  0  0  0  0  0  # atno 17321 bound_to 7965
  139.7302  144.7584  151.0814 LP  0  0  0  0  0  0  0  0  0  0  0  0  # atno 17342 bound_to 10162
  140.7764  143.5097  150.9667 LP  0  0  0  0  0  0  0  0  0  0  0  0  # atno 17343 bound_to 10162
  157.1717  131.0370  151.2792 LP  0  0  0  0  0  0  0  0  0  0  0  0  # atno 17370 bound_to 10713
  157.4223  130.7444  149.6923 LP  0  0  0  0  0  0  0  0  0  0  0  0  # atno 17371 bound_to 10713
  141.2097  133.6687  156.6460 LP  0  0  0  0  0  0  0  0  0  0  0  0  # atno 17394 bound_to 11000
  140.3260  134.7968  157.4289 LP  0  0  0  0  0  0  0  0  0  0  0  0  # atno 17395 bound_to 11000

$$$$
