AV-unprocessed.smi:960|AV-procd|sdf|4272|dock1
  -GOLD-   22720 2183D 1   1.00000     0.00000
 Structure written by MMmdl.
 46 47  0  0  0  0  0  0  0  0  2 V2000
  145.7871  134.8256  152.5692 C   0  0  0  0  0  0  0  0  0  0  0  0
  144.8299  135.3810  151.8081 C   0  0  0  0  0  0  0  0  0  0  0  0
  144.4721  134.8278  150.4398 C   0  0  0  0  0  0  0  0  0  0  0  0
  144.0232  136.5791  152.2856 C   0  0  0  0  0  0  0  0  0  0  0  0
  144.8556  137.7880  152.5254 N   0  3  2  0  0  0  0  0  0  0  0  0
  145.9318  137.9115  151.5074 C   0  0  0  0  0  0  0  0  0  0  0  0
  146.7182  139.2255  151.6644 C   0  0  0  0  0  0  0  0  0  0  0  0
  147.2986  139.3815  153.0791 C   0  0  2  0  0  0  0  0  0  0  0  0
  148.3880  138.4294  153.2961 N   0  0  0  0  0  0  0  0  0  0  0  0
  149.2722  138.4806  154.3025 C   0  0  0  0  0  0  0  0  0  0  0  0
  149.2739  139.3592  155.1637 O   0  0  0  0  0  0  0  0  0  0  0  0
  150.1522  137.4701  154.2340 N   0  0  0  0  0  0  0  0  0  0  0  0
  151.1958  137.1870  155.1507 C   0  0  0  0  0  0  0  0  0  0  0  0
  152.1932  138.0536  155.6876 C   0  0  0  0  0  0  0  0  0  0  0  0
  152.4562  139.5170  155.4645 C   0  0  0  0  0  0  0  0  0  0  0  0
  152.9530  137.3887  156.5454 N   0  0  0  0  0  0  0  0  0  0  0  0
  152.4430  136.0830  156.6086 O   0  0  0  0  0  0  0  0  0  0  0  0
  151.3743  135.9880  155.7756 C   0  0  0  0  0  0  0  0  0  0  0  0
  150.6753  134.6720  155.7183 C   0  0  0  0  0  0  0  0  0  0  0  0
  146.1691  139.2088  154.1125 C   0  0  0  0  0  0  0  0  0  0  0  0
  145.3901  137.8969  153.9097 C   0  0  0  0  0  0  0  0  0  0  0  0
  146.3482  133.9672  152.2288 H   0  0  0  0  0  0  0  0  0  0  0  0
  146.0247  135.2210  153.5461 H   0  0  0  0  0  0  0  0  0  0  0  0
  143.4476  134.4552  150.4455 H   0  0  0  0  0  0  0  0  0  0  0  0
  145.1274  134.0013  150.1628 H   0  0  0  0  0  0  0  0  0  0  0  0
  144.5479  135.5899  149.6658 H   0  0  0  0  0  0  0  0  0  0  0  0
  143.2235  136.8015  151.5773 H   0  0  0  0  0  0  0  0  0  0  0  0
  143.5369  136.2949  153.2203 H   0  0  0  0  0  0  0  0  0  0  0  0
  146.6048  137.0562  151.5851 H   0  0  0  0  0  0  0  0  0  0  0  0
  145.4960  137.8772  150.5081 H   0  0  0  0  0  0  0  0  0  0  0  0
  147.5145  139.2776  150.9208 H   0  0  0  0  0  0  0  0  0  0  0  0
  146.0537  140.0649  151.4547 H   0  0  0  0  0  0  0  0  0  0  0  0
  147.7098  140.3888  153.1690 H   0  0  0  0  0  0  0  0  0  0  0  0
  148.4772  137.6777  152.6284 H   0  0  0  0  0  0  0  0  0  0  0  0
  150.1234  136.8940  153.4058 H   0  0  0  0  0  0  0  0  0  0  0  0
  151.5312  140.0599  155.2710 H   0  0  0  0  0  0  0  0  0  0  0  0
  153.1216  139.6695  154.6147 H   0  0  0  0  0  0  0  0  0  0  0  0
  152.9235  139.9760  156.3364 H   0  0  0  0  0  0  0  0  0  0  0  0
  149.7410  134.7472  155.1624 H   0  0  0  0  0  0  0  0  0  0  0  0
  150.4429  134.3138  156.7214 H   0  0  0  0  0  0  0  0  0  0  0  0
  151.3004  133.9254  155.2286 H   0  0  0  0  0  0  0  0  0  0  0  0
  146.5637  139.2548  155.1281 H   0  0  0  0  0  0  0  0  0  0  0  0
  145.4775  140.0478  154.0249 H   0  0  0  0  0  0  0  0  0  0  0  0
  144.5726  137.8831  154.6287 H   0  0  0  0  0  0  0  0  0  0  0  0
  146.0252  137.0369  154.1282 H   0  0  0  0  0  0  0  0  0  0  0  0
  144.2456  138.5820  152.3909 H   0  0  0  0  0  0  0  0  0  0  0  0
  1  2  2  0  0  0  0
  1 22  1  0  0  0  0
  1 23  1  0  0  0  0
  2  3  1  0  0  0  0
  2  4  1  0  0  0  0
  3 24  1  0  0  0  0
  3 25  1  0  0  0  0
  3 26  1  0  0  0  0
  4  5  1  0  0  0  0
  4 27  1  0  0  0  0
  4 28  1  0  0  0  0
  5 21  1  0  0  0  0
  5  6  1  0  0  0  0
  5 46  1  0  0  0  0
  6  7  1  0  0  0  0
  6 29  1  0  0  0  0
  6 30  1  0  0  0  0
  7  8  1  0  0  0  0
  7 31  1  0  0  0  0
  7 32  1  0  0  0  0
  8  9  1  0  0  0  0
  8 20  1  0  0  0  0
  8 33  1  0  0  0  0
  9 10  1  0  0  0  0
  9 34  1  0  0  0  0
 10 11  2  0  0  0  0
 10 12  1  0  0  0  0
 12 13  1  0  0  0  0
 12 35  1  0  0  0  0
 13 18  2  0  0  0  0
 13 14  1  0  0  0  0
 14 15  1  0  0  0  0
 14 16  2  0  0  0  0
 15 36  1  0  0  0  0
 15 37  1  0  0  0  0
 15 38  1  0  0  0  0
 16 17  1  0  0  0  0
 17 18  1  0  0  0  0
 18 19  1  0  0  0  0
 19 39  1  0  0  0  0
 19 40  1  0  0  0  0
 19 41  1  0  0  0  0
 20 21  1  0  0  0  0
 20 42  1  0  0  0  0
 20 43  1  0  0  0  0
 21 44  1  0  0  0  0
 21 45  1  0  0  0  0
M  CHG  1   5   1
M  END
> <s_m_source_file>
AV-unprocessed.smi

> <i_m_source_file_index>
960

> <i_lp_mmshare_version>
43012

> <i_f3d_flags>
0

> <s_epik_input>
W0NIMl09QyhbQ0gzXSlbQ0gyXU4xW0NIMl1bQ0gyXVtDSF0oW0NIMl1bQ0gyXTEpW05IXUMoPU8pW05IXWMyYyhbQ0gzXSlub2MyW0NIM10=

> <s_epik_cmdline>
J2VwaWtfcHl0aG9uJywgJy1waCcsICc3LjAnLCAnLXRuJywgJzgnLCAnLW1hJywgJzIwMCcsICctbWV0YWxfYmluZGluZycsICctaW1hZScsICc8aW5maWxlLm1hZT4nLCAnLW9tYWUnLCAnPG91dGZpbGUubWFlPic=

> <r_epik_Ionization_Penalty>
0.01938

> <r_epik_Ionization_Penalty_Charging>
0.0193505

> <r_epik_Ionization_Penalty_Neutral>
2.94909e-05

> <r_epik_State_Penalty>
0.0154499

> <r_epik_Charging_Adjusted_Penalty>
0.0348004

> <i_epik_Tot_Q>
1

> <i_epik_Tot_abs_Q>
1

> <r_epik_Metal_State_Penalty>
0.0154499

> <b_epik_Metal_Only>
0

> <s_lp_Force_Field>
OPLS_2005

> <r_lp_Energy>
21.0262

> <b_lp_Chiralities_Consistent>
1

> <s_lp_Variant>
AV-unprocessed.smi:960-2

> <Gold.Version>
5.8.1

> <Gold.Id.Protein>
6NUR|6NUR_protein|mol2

> <Gold.PLP.Fitness>
43.5763

> <Gold.PLP.PLP>
-31.9801

> <Gold.PLP.part.hbond>
-7.2505

> <Gold.PLP.part.metal>
0.0000

> <Gold.PLP.part.buried>
6.7653

> <Gold.PLP.part.nonpolar>
-32.2761

> <Gold.PLP.part.repulsive>
0.1840

> <Gold.PLP.ligand.clash>
0.0000

> <Gold.PLP.ligand.torsion>
0.9191

> <Gold.PLP.Chemscore.Hbond>
4.3499

> <Gold.PLP.Chemscore.CHOScore>
0.0000

> <Gold.PLP.Chemscore.Metal>
0.0000

> <Gold.Chemscore.Hbonds>
donor molecule, donor type, donor heavy atom, donor atom, acceptor molecule, acceptor atom, score
      L1  H     5    46       P1 10175  2.00
      L1  H     9    34       P1  7948  1.00
      L1  H    12    35       P1  7948  0.74
      P1  H 10752 10765       L1    17  0.52

> <Gold.PLP.Chemscore.Internal.Correction>
0.3845

> <Gold.Rescore>
     Score         DG    S(hbond)    S(metal)    S(lipo)     H(rot)  DE(clash)    DE(int)     intcor
     16.47     -18.91       2.31        0.00      78.49       1.35       1.59       0.85       ----

> <Gold.Chemscore.Fitness>
16.4675

> <Gold.Chemscore.DG>
-18.9128

> <Gold.Chemscore.ZeroCoef>
-5.4800

> <Gold.Chemscore.Hbond>
2.3056

> <Gold.Chemscore.Metal>
0.0000

> <Gold.Chemscore.Lipo>
78.4863

> <Gold.Chemscore.Internal_Hbond>
0.0000

> <Gold.Chemscore.DEClash>
1.5907

> <Gold.Chemscore.DEInternal>
0.8546

> <Gold.Chemscore.Rot>
1.3480

> <Gold.Chemscore.Internal.Correction>
   9.000000E+99

> <Gold.Chemscore.Hbonds>
donor molecule, donor type, donor heavy atom, donor atom, acceptor molecule, acceptor atom, score
      L1  H     5    46       P1 10175  0.98
      L1  H     9    34       P1  7948  1.00
      L1  H    12    35       P1  7948  0.10
      P1  H 10752 10765       L1    17  0.01

> <Gold.Chemscore.Hbond.Weighted>
-7.7008

> <Gold.Chemscore.Metal.Weighted>
-0.0000

> <Gold.Chemscore.Lipo.Weighted>
-9.1829

> <Gold.Chemscore.Internal_Hbond.Weighted>
0.0000

> <Gold.Chemscore.DEClash.Weighted>
1.5907

> <Gold.Chemscore.DEInternal.Weighted>
0.8546

> <Gold.Chemscore.Rot.Weighted>
3.4509

> <Gold.Chemscore.Internal.Correction.Weighted>
   9.000000E+99

> <Gold.Protein.RotatedTorsions>
[ 6907 6896 6895 6894 ] final -118.43 input  -60.11 | X-H torsion
[ 7974 7965 7964 7962 ] final  -35.95 input  175.53 | X-H torsion
[ 8008 7997 7996 7995 ] final -161.33 input   59.86 | X-H torsion
[ 10167 10162 10161 10158 ] final  -45.65 input  -65.29 | X-H torsion
[ 10718 10713 10712 10709 ] final  -14.43 input   66.30 | X-H torsion
[ 10763 10752 10751 10750 ] final -115.96 input  -60.55 | X-H torsion
[ 11005 11000 10999 10996 ] final -168.61 input  -57.11 | X-H torsion

> <Gold.Protein.ActiveResidues>
 VAL166  LYS551  ARG553  GLY616  TRP617  ASP618  TYR619  PRO620  LYS621  CYS622 
 ASP623  PHE694  ASN695  SER759  ASP760  ASP761  ALA762  ILE779  LEU786  VAL792 
 PHE793  MET794  SER795  GLU796  ALA797  LYS798  CYS799  TRP800  GLU811  SER814 

> <Gold.Protein.RotatedAtoms>
  150.8219  133.8238  159.3135 H   0  0  0  0  0  0  0  0  0  0  0  0  # atno 6907 bound_to 6896
  151.5993  135.1046  160.0066 H   0  0  0  0  0  0  0  0  0  0  0  0  # atno 6908 bound_to 6896
  152.4307  133.7232  159.6602 H   0  0  0  0  0  0  0  0  0  0  0  0  # atno 6909 bound_to 6896
  146.0703  140.6220  142.8955 H   0  0  0  0  0  0  0  0  0  0  0  0  # atno 7974 bound_to 7965
  155.7906  140.0878  157.2011 H   0  0  0  0  0  0  0  0  0  0  0  0  # atno 8008 bound_to 7997
  154.3985  140.1491  156.3217 H   0  0  0  0  0  0  0  0  0  0  0  0  # atno 8009 bound_to 7997
  155.8562  140.3432  155.5729 H   0  0  0  0  0  0  0  0  0  0  0  0  # atno 8010 bound_to 7997
  140.6849  143.2869  151.3670 H   0  0  0  0  0  0  0  0  0  0  0  0  # atno 10167 bound_to 10162
  156.6160  130.4862  149.6183 H   0  0  0  0  0  0  0  0  0  0  0  0  # atno 10718 bound_to 10713
  154.8501  135.4363  154.1746 H   0  0  0  0  0  0  0  0  0  0  0  0  # atno 10763 bound_to 10752
  153.2851  135.6957  153.7353 H   0  0  0  0  0  0  0  0  0  0  0  0  # atno 10764 bound_to 10752
  153.6542  135.3446  155.3083 H   0  0  0  0  0  0  0  0  0  0  0  0  # atno 10765 bound_to 10752
  140.5401  134.5531  157.5097 H   0  0  0  0  0  0  0  0  0  0  0  0  # atno 11005 bound_to 11000
  144.7227  140.4427  143.6996 LP  0  0  0  0  0  0  0  0  0  0  0  0  # atno 17320 bound_to 7965
  145.6403  139.1549  143.2919 LP  0  0  0  0  0  0  0  0  0  0  0  0  # atno 17321 bound_to 7965
  139.6200  144.0926  152.2382 LP  0  0  0  0  0  0  0  0  0  0  0  0  # atno 17342 bound_to 10162
  140.0367  144.6039  150.7444 LP  0  0  0  0  0  0  0  0  0  0  0  0  # atno 17343 bound_to 10162
  156.2350  130.6817  151.1501 LP  0  0  0  0  0  0  0  0  0  0  0  0  # atno 17370 bound_to 10713
  157.7241  131.0662  150.6010 LP  0  0  0  0  0  0  0  0  0  0  0  0  # atno 17371 bound_to 10713
  139.9508  134.7619  156.0452 LP  0  0  0  0  0  0  0  0  0  0  0  0  # atno 17394 bound_to 11000
  141.1232  133.6607  156.3269 LP  0  0  0  0  0  0  0  0  0  0  0  0  # atno 17395 bound_to 11000

$$$$
