AV-unprocessed.smi:2253|AV-procd|sdf|9116|dock1
  -GOLD-   2272012323D 1   1.00000     0.00000
 Structure written by MMmdl.
 52 54  0  0  0  0  0  0  0  0  3 V2000
  146.3504  129.7430  152.1429 C   0  0  0  0  0  0  0  0  0  0  0  0
  146.4989  131.1469  151.7024 N   0  3  2  0  0  0  0  0  0  0  0  0
  146.7590  132.0701  152.8347 C   0  0  0  0  0  0  0  0  0  0  0  0
  147.0031  133.5059  152.3347 C   0  0  0  0  0  0  0  0  0  0  0  0
  145.8102  134.0426  151.5060 C   0  0  2  0  0  0  0  0  0  0  0  0
  144.6010  134.3133  152.3565 N   0  3  2  0  0  0  0  0  0  0  0  0
  143.2923  133.9770  151.7211 C   0  0  0  0  0  0  0  0  0  0  0  0
  142.1158  134.1706  152.6933 C   0  0  0  0  0  0  0  0  0  0  0  0
  142.0729  135.5990  153.2498 C   0  0  1  0  0  0  0  0  0  0  0  0
  140.9970  135.7200  154.2293 N   0  0  0  0  0  0  0  0  0  0  0  0
  139.9162  136.5027  154.0949 C   0  0  0  0  0  0  0  0  0  0  0  0
  139.7175  137.2148  153.1113 O   0  0  0  0  0  0  0  0  0  0  0  0
  139.1007  136.3875  155.1572 N   0  0  0  0  0  0  0  0  0  0  0  0
  137.8618  137.0371  155.4151 C   0  0  0  0  0  0  0  0  0  0  0  0
  137.0441  137.6287  154.4214 C   0  0  0  0  0  0  0  0  0  0  0  0
  135.8452  138.2544  154.8189 C   0  0  0  0  0  0  0  0  0  0  0  0
  135.4332  138.3281  156.1021 N   0  0  0  0  0  0  0  0  0  0  0  0
  136.2205  137.7736  157.0477 C   0  0  0  0  0  0  0  0  0  0  0  0
  137.4375  137.1243  156.7580 C   0  0  0  0  0  0  0  0  0  0  0  0
  138.1826  136.5918  157.7567 F   0  0  0  0  0  0  0  0  0  0  0  0
  143.4332  135.9271  153.8834 C   0  0  0  0  0  0  0  0  0  0  0  0
  144.5754  135.7112  152.8785 C   0  0  0  0  0  0  0  0  0  0  0  0
  145.5917  133.0348  150.3489 C   0  0  0  0  0  0  0  0  0  0  0  0
  145.3640  131.5992  150.8599 C   0  0  0  0  0  0  0  0  0  0  0  0
  145.4785  129.6242  152.7875 H   0  0  0  0  0  0  0  0  0  0  0  0
  147.2321  129.4178  152.6962 H   0  0  0  0  0  0  0  0  0  0  0  0
  146.2348  129.0799  151.2849 H   0  0  0  0  0  0  0  0  0  0  0  0
  145.9187  132.0473  153.5303 H   0  0  0  0  0  0  0  0  0  0  0  0
  147.6344  131.7250  153.3867 H   0  0  0  0  0  0  0  0  0  0  0  0
  147.2547  134.1531  153.1722 H   0  0  0  0  0  0  0  0  0  0  0  0
  147.8954  133.5059  151.7067 H   0  0  0  0  0  0  0  0  0  0  0  0
  146.0995  134.9931  151.0543 H   0  0  0  0  0  0  0  0  0  0  0  0
  143.1513  134.5862  150.8268 H   0  0  0  0  0  0  0  0  0  0  0  0
  143.2625  132.9348  151.4098 H   0  0  0  0  0  0  0  0  0  0  0  0
  141.1783  133.9404  152.1849 H   0  0  0  0  0  0  0  0  0  0  0  0
  142.2053  133.4558  153.5130 H   0  0  0  0  0  0  0  0  0  0  0  0
  141.8840  136.2869  152.4229 H   0  0  0  0  0  0  0  0  0  0  0  0
  141.0768  135.1631  155.0678 H   0  0  0  0  0  0  0  0  0  0  0  0
  139.3768  135.7113  155.8540 H   0  0  0  0  0  0  0  0  0  0  0  0
  137.3087  137.6281  153.3761 H   0  0  0  0  0  0  0  0  0  0  0  0
  135.2011  138.7139  154.0840 H   0  0  0  0  0  0  0  0  0  0  0  0
  135.8711  137.8507  158.0667 H   0  0  0  0  0  0  0  0  0  0  0  0
  143.4466  136.9604  154.2326 H   0  0  0  0  0  0  0  0  0  0  0  0
  143.5976  135.3022  154.7626 H   0  0  0  0  0  0  0  0  0  0  0  0
  145.5061  135.9652  153.3803 H   0  0  0  0  0  0  0  0  0  0  0  0
  144.4729  136.4087  152.0454 H   0  0  0  0  0  0  0  0  0  0  0  0
  144.7933  133.3444  149.6753 H   0  0  0  0  0  0  0  0  0  0  0  0
  146.4837  133.0337  149.7204 H   0  0  0  0  0  0  0  0  0  0  0  0
  145.2555  130.9249  150.0094 H   0  0  0  0  0  0  0  0  0  0  0  0
  144.4369  131.5377  151.4312 H   0  0  0  0  0  0  0  0  0  0  0  0
  144.6779  133.7065  153.1602 H   0  0  0  0  0  0  0  0  0  0  0  0
  147.3210  131.1738  151.1157 H   0  0  0  0  0  0  0  0  0  0  0  0
  1  2  1  0  0  0  0
  1 25  1  0  0  0  0
  1 26  1  0  0  0  0
  1 27  1  0  0  0  0
  2 24  1  0  0  0  0
  2  3  1  0  0  0  0
  2 52  1  0  0  0  0
  3  4  1  0  0  0  0
  3 28  1  0  0  0  0
  3 29  1  0  0  0  0
  4  5  1  0  0  0  0
  4 30  1  0  0  0  0
  4 31  1  0  0  0  0
  5  6  1  0  0  0  0
  5 23  1  0  0  0  0
  5 32  1  0  0  0  0
  6 22  1  0  0  0  0
  6  7  1  0  0  0  0
  6 51  1  0  0  0  0
  7  8  1  0  0  0  0
  7 33  1  0  0  0  0
  7 34  1  0  0  0  0
  8  9  1  0  0  0  0
  8 35  1  0  0  0  0
  8 36  1  0  0  0  0
  9 10  1  0  0  0  0
  9 21  1  0  0  0  0
  9 37  1  0  0  0  0
 10 11  1  0  0  0  0
 10 38  1  0  0  0  0
 11 12  2  0  0  0  0
 11 13  1  0  0  0  0
 13 14  1  0  0  0  0
 13 39  1  0  0  0  0
 14 19  1  0  0  0  0
 14 15  2  0  0  0  0
 15 16  1  0  0  0  0
 15 40  1  0  0  0  0
 16 17  2  0  0  0  0
 16 41  1  0  0  0  0
 17 18  1  0  0  0  0
 18 19  2  0  0  0  0
 18 42  1  0  0  0  0
 19 20  1  0  0  0  0
 21 22  1  0  0  0  0
 21 43  1  0  0  0  0
 21 44  1  0  0  0  0
 22 45  1  0  0  0  0
 22 46  1  0  0  0  0
 23 24  1  0  0  0  0
 23 47  1  0  0  0  0
 23 48  1  0  0  0  0
 24 49  1  0  0  0  0
 24 50  1  0  0  0  0
M  CHG  1   2   1
M  CHG  1   6   1
M  END
> <s_m_source_file>
AV-unprocessed.smi

> <i_m_source_file_index>
2253

> <i_lp_mmshare_version>
43012

> <i_f3d_flags>
0

> <s_epik_input>
W0NIM11OMVtDSDJdW0NIMl1bQ0hdKFtDSDJdW0NIMl0xKU4yW0NIMl1bQ0gyXVtDSF0oW0NIMl1bQ0gyXTIpW05IXUMoPU8pW05IXWMzW2NIXVtjSF1uW2NIXWMzRg==

> <s_epik_cmdline>
J2VwaWtfcHl0aG9uJywgJy1waCcsICc3LjAnLCAnLXRuJywgJzgnLCAnLW1hJywgJzIwMCcsICctbWV0YWxfYmluZGluZycsICctaW1hZScsICc8aW5maWxlLm1hZT4nLCAnLW9tYWUnLCAnPG91dGZpbGUubWFlPic=

> <r_epik_Ionization_Penalty>
0.183544

> <r_epik_Ionization_Penalty_Charging>
0.180787

> <r_epik_Ionization_Penalty_Neutral>
0.00275649

> <r_epik_State_Penalty>
0.153592

> <r_epik_Charging_Adjusted_Penalty>
0.334379

> <i_epik_Tot_Q>
2

> <i_epik_Tot_abs_Q>
2

> <r_epik_Metal_State_Penalty>
0.153693

> <b_epik_Metal_Only>
0

> <s_lp_Force_Field>
OPLS_2005

> <r_lp_Energy>
49.9485

> <b_lp_Chiralities_Consistent>
1

> <s_lp_Variant>
AV-unprocessed.smi:2253-2

> <Gold.Version>
5.8.1

> <Gold.Id.Protein>
6NUR|6NUR_protein|mol2

> <Gold.PLP.Fitness>
44.5937

> <Gold.PLP.PLP>
-37.6755

> <Gold.PLP.part.hbond>
-3.0000

> <Gold.PLP.part.metal>
0.0000

> <Gold.PLP.part.buried>
-6.1975

> <Gold.PLP.part.nonpolar>
-30.0943

> <Gold.PLP.part.repulsive>
0.5510

> <Gold.PLP.ligand.clash>
0.0000

> <Gold.PLP.ligand.torsion>
1.0565

> <Gold.PLP.Chemscore.Hbond>
3.0000

> <Gold.PLP.Chemscore.CHOScore>
0.0000

> <Gold.PLP.Chemscore.Metal>
0.0000

> <Gold.Chemscore.Hbonds>
donor molecule, donor type, donor heavy atom, donor atom, acceptor molecule, acceptor atom, score
      L1  H     2    52       P1 10747  1.00
      L1  H    10    38       P1 11000  1.00
      L1  H    13    39       P1 11000  1.00

> <Gold.PLP.Chemscore.Internal.Correction>
0.0311

> <Gold.Rescore>
     Score         DG    S(hbond)    S(metal)    S(lipo)     H(rot)  DE(clash)    DE(int)     intcor
     18.71     -20.80       2.41        0.00      89.49       1.26       0.04       2.05       ----

> <Gold.Chemscore.Fitness>
18.7125

> <Gold.Chemscore.DG>
-20.8011

> <Gold.Chemscore.ZeroCoef>
-5.4800

> <Gold.Chemscore.Hbond>
2.4148

> <Gold.Chemscore.Metal>
0.0000

> <Gold.Chemscore.Lipo>
89.4926

> <Gold.Chemscore.Internal_Hbond>
0.0000

> <Gold.Chemscore.DEClash>
0.0398

> <Gold.Chemscore.DEInternal>
2.0487

> <Gold.Chemscore.Rot>
1.2559

> <Gold.Chemscore.Internal.Correction>
   9.000000E+99

> <Gold.Chemscore.Hbonds>
donor molecule, donor type, donor heavy atom, donor atom, acceptor molecule, acceptor atom, score
      L1  H     2    52       P1 10747  1.00
      L1  H    10    38       P1 11000  0.72
      L1  H    13    39       P1 11000  0.62

> <Gold.Chemscore.Hbond.Weighted>
-8.0655

> <Gold.Chemscore.Metal.Weighted>
-0.0000

> <Gold.Chemscore.Lipo.Weighted>
-10.4706

> <Gold.Chemscore.Internal_Hbond.Weighted>
0.0000

> <Gold.Chemscore.DEClash.Weighted>
0.0398

> <Gold.Chemscore.DEInternal.Weighted>
2.0487

> <Gold.Chemscore.Rot.Weighted>
3.2151

> <Gold.Chemscore.Internal.Correction.Weighted>
   9.000000E+99

> <Gold.Protein.RotatedTorsions>
[ 6907 6896 6895 6894 ] final   13.31 input  -60.11 | X-H torsion
[ 7974 7965 7964 7962 ] final -168.33 input  175.53 | X-H torsion
[ 8008 7997 7996 7995 ] final -115.56 input   59.86 | X-H torsion
[ 10167 10162 10161 10158 ] final   97.34 input  -65.29 | X-H torsion
[ 10718 10713 10712 10709 ] final   92.20 input   66.30 | X-H torsion
[ 10763 10752 10751 10750 ] final  157.73 input  -60.55 | X-H torsion
[ 11005 11000 10999 10996 ] final -138.72 input  -57.11 | X-H torsion

> <Gold.Protein.ActiveResidues>
 VAL166  LYS551  ARG553  GLY616  TRP617  ASP618  TYR619  PRO620  LYS621  CYS622 
 ASP623  PHE694  ASN695  SER759  ASP760  ASP761  ALA762  ILE779  LEU786  VAL792 
 PHE793  MET794  SER795  GLU796  ALA797  LYS798  CYS799  TRP800  GLU811  SER814 

> <Gold.Protein.RotatedAtoms>
  151.7842  135.0753  160.0377 H   0  0  0  0  0  0  0  0  0  0  0  0  # atno 6907 bound_to 6896
  152.3202  133.5841  159.5747 H   0  0  0  0  0  0  0  0  0  0  0  0  # atno 6908 bound_to 6896
  150.7365  133.9939  159.3658 H   0  0  0  0  0  0  0  0  0  0  0  0  # atno 6909 bound_to 6896
  144.7205  140.2387  143.6294 H   0  0  0  0  0  0  0  0  0  0  0  0  # atno 7974 bound_to 7965
  155.0540  140.0393  157.2553 H   0  0  0  0  0  0  0  0  0  0  0  0  # atno 8008 bound_to 7997
  154.7114  140.2693  155.6601 H   0  0  0  0  0  0  0  0  0  0  0  0  # atno 8009 bound_to 7997
  156.2790  140.2721  156.1757 H   0  0  0  0  0  0  0  0  0  0  0  0  # atno 8010 bound_to 7997
  139.7810  144.6888  151.0022 H   0  0  0  0  0  0  0  0  0  0  0  0  # atno 10167 bound_to 10162
  157.6959  131.0434  150.3845 H   0  0  0  0  0  0  0  0  0  0  0  0  # atno 10718 bound_to 10713
  154.2049  135.2788  155.2978 H   0  0  0  0  0  0  0  0  0  0  0  0  # atno 10763 bound_to 10752
  154.5824  135.5585  153.7202 H   0  0  0  0  0  0  0  0  0  0  0  0  # atno 10764 bound_to 10752
  153.0078  135.6348  154.2188 H   0  0  0  0  0  0  0  0  0  0  0  0  # atno 10765 bound_to 10752
  140.8589  134.2194  157.4719 H   0  0  0  0  0  0  0  0  0  0  0  0  # atno 11005 bound_to 11000
  145.8341  139.2099  143.1866 LP  0  0  0  0  0  0  0  0  0  0  0  0  # atno 17320 bound_to 7965
  146.0405  140.8170  142.9831 LP  0  0  0  0  0  0  0  0  0  0  0  0  # atno 17321 bound_to 7965
  140.7818  143.4483  151.0451 LP  0  0  0  0  0  0  0  0  0  0  0  0  # atno 17342 bound_to 10162
  139.8163  143.7881  152.3174 LP  0  0  0  0  0  0  0  0  0  0  0  0  # atno 17343 bound_to 10162
  156.4255  130.3961  149.6796 LP  0  0  0  0  0  0  0  0  0  0  0  0  # atno 17370 bound_to 10713
  156.4032  130.7685  151.2694 LP  0  0  0  0  0  0  0  0  0  0  0  0  # atno 17371 bound_to 10713
  139.8706  134.9720  156.4756 LP  0  0  0  0  0  0  0  0  0  0  0  0  # atno 17394 bound_to 11000
  140.8706  133.7991  155.9360 LP  0  0  0  0  0  0  0  0  0  0  0  0  # atno 17395 bound_to 11000

$$$$
