AV-unprocessed.smi:2198|AV-procd|sdf|8919|dock9
  -GOLD-   2272012133D 1   1.00000     0.00000
 Structure written by MMmdl.
 42 43  0  0  0  0  0  0  0  0  2 V2000
  154.7712  140.2246  160.2617 C   0  0  0  0  0  0  0  0  0  0  0  0
  153.6281  140.8244  159.4713 C   0  0  0  0  0  0  0  0  0  0  0  0
  153.0959  141.9145  159.8747 N   0  0  0  0  0  0  0  0  0  0  0  0
  152.0345  142.4767  159.1456 C   0  0  0  0  0  0  0  0  0  0  0  0
  151.4607  143.7693  159.6995 C   0  0  0  0  0  0  0  0  0  0  0  0
  151.5627  141.8813  158.0129 C   0  0  0  0  0  0  0  0  0  0  0  0
  150.4103  142.4533  157.1877 C   0  0  0  0  0  0  0  0  0  0  0  0
  149.2804  141.4783  156.8489 C   0  0  0  0  0  0  0  0  0  0  0  0
  149.3932  140.2776  157.0968 O   0  0  0  0  0  0  0  0  0  0  0  0
  148.1906  142.0138  156.2786 N   0  0  0  0  0  0  0  0  0  0  0  0
  146.9983  141.2759  155.8659 C   0  0  2  0  0  0  0  0  0  0  0  0
  146.8350  141.3403  154.3351 C   0  0  0  0  0  0  0  0  0  0  0  0
  146.4234  142.7422  153.8531 C   0  0  0  0  0  0  0  0  0  0  0  0
  145.1538  143.2294  154.5686 C   0  0  0  0  0  0  0  0  0  0  0  0
  145.3242  143.2097  156.0997 C   0  0  1  0  0  0  0  0  0  0  0  0
  144.0551  143.6981  156.8120 C   0  0  0  0  0  0  0  0  0  0  0  0
  145.7324  141.8009  156.5787 C   0  0  0  0  0  0  0  0  0  0  0  0
  152.2066  140.6285  157.5790 C   0  0  0  0  0  0  0  0  0  0  0  0
  151.8286  140.0572  156.5568 O   0  0  0  0  0  0  0  0  0  0  0  0
  153.2241  140.1419  158.3458 N   0  5  0  0  0  0  0  0  0  0  0  0
  155.1598  140.9368  160.9907 H   0  0  0  0  0  0  0  0  0  0  0  0
  155.5876  139.9407  159.5968 H   0  0  0  0  0  0  0  0  0  0  0  0
  154.4336  139.3360  160.7952 H   0  0  0  0  0  0  0  0  0  0  0  0
  150.4260  143.6247  160.0105 H   0  0  0  0  0  0  0  0  0  0  0  0
  151.4918  144.5582  158.9481 H   0  0  0  0  0  0  0  0  0  0  0  0
  152.0269  144.1125  160.5662 H   0  0  0  0  0  0  0  0  0  0  0  0
  149.9732  143.3225  157.6801 H   0  0  0  0  0  0  0  0  0  0  0  0
  150.8226  142.8432  156.2566 H   0  0  0  0  0  0  0  0  0  0  0  0
  148.1873  143.0101  156.1150 H   0  0  0  0  0  0  0  0  0  0  0  0
  147.1414  140.2290  156.1399 H   0  0  0  0  0  0  0  0  0  0  0  0
  147.7577  141.0308  153.8425 H   0  0  0  0  0  0  0  0  0  0  0  0
  146.0728  140.6231  154.0282 H   0  0  0  0  0  0  0  0  0  0  0  0
  147.2362  143.4480  154.0290 H   0  0  0  0  0  0  0  0  0  0  0  0
  146.2581  142.7280  152.7755 H   0  0  0  0  0  0  0  0  0  0  0  0
  144.9108  144.2378  154.2322 H   0  0  0  0  0  0  0  0  0  0  0  0
  144.3115  142.5979  154.2824 H   0  0  0  0  0  0  0  0  0  0  0  0
  146.1267  143.9022  156.3581 H   0  0  0  0  0  0  0  0  0  0  0  0
  143.2049  143.0495  156.5984 H   0  0  0  0  0  0  0  0  0  0  0  0
  143.7915  144.7079  156.4960 H   0  0  0  0  0  0  0  0  0  0  0  0
  144.1958  143.7186  157.8930 H   0  0  0  0  0  0  0  0  0  0  0  0
  144.9115  141.1073  156.3914 H   0  0  0  0  0  0  0  0  0  0  0  0
  145.8813  141.8004  157.6593 H   0  0  0  0  0  0  0  0  0  0  0  0
  1  2  1  0  0  0  0
  1 21  1  0  0  0  0
  1 22  1  0  0  0  0
  1 23  1  0  0  0  0
  2 20  1  0  0  0  0
  2  3  2  0  0  0  0
  3  4  1  0  0  0  0
  4  5  1  0  0  0  0
  4  6  2  0  0  0  0
  5 24  1  0  0  0  0
  5 25  1  0  0  0  0
  5 26  1  0  0  0  0
  6  7  1  0  0  0  0
  6 18  1  0  0  0  0
  7  8  1  0  0  0  0
  7 27  1  0  0  0  0
  7 28  1  0  0  0  0
  8  9  2  0  0  0  0
  8 10  1  0  0  0  0
 10 11  1  0  0  0  0
 10 29  1  0  0  0  0
 11 17  1  0  0  0  0
 11 12  1  0  0  0  0
 11 30  1  0  0  0  0
 12 13  1  0  0  0  0
 12 31  1  0  0  0  0
 12 32  1  0  0  0  0
 13 14  1  0  0  0  0
 13 33  1  0  0  0  0
 13 34  1  0  0  0  0
 14 15  1  0  0  0  0
 14 35  1  0  0  0  0
 14 36  1  0  0  0  0
 15 16  1  0  0  0  0
 15 17  1  0  0  0  0
 15 37  1  0  0  0  0
 16 38  1  0  0  0  0
 16 39  1  0  0  0  0
 16 40  1  0  0  0  0
 17 41  1  0  0  0  0
 17 42  1  0  0  0  0
 18 19  2  0  0  0  0
 18 20  1  0  0  0  0
M  CHG  1  20  -1
M  END
> <s_m_source_file>
AV-unprocessed.smi

> <i_m_source_file_index>
2198

> <i_lp_mmshare_version>
43012

> <i_f3d_flags>
0

> <s_epik_input>
W0NIM11jMW5jKFtDSDNdKWMoYyg9TylbbkhdMSlbQ0gyXUMoPU8pW05IXVtDQEBIXTJbQ0gyXVtDSDJdW0NIMl1bQ0BASF0oW0NIM10pW0NIMl0y

> <s_epik_cmdline>
J2VwaWtfcHl0aG9uJywgJy1waCcsICc3LjAnLCAnLXRuJywgJzgnLCAnLW1hJywgJzIwMCcsICctbWV0YWxfYmluZGluZycsICctaW1hZScsICc8aW5maWxlLm1hZT4nLCAnLW9tYWUnLCAnPG91dGZpbGUubWFlPic=

> <r_lp_tautomer_probability>
0.839158

> <r_epik_Ionization_Penalty>
6.67193

> <r_epik_Ionization_Penalty_Charging>
7.66837e-08

> <r_epik_Ionization_Penalty_Neutral>
6.67193

> <r_epik_State_Penalty>
4.51643

> <r_epik_Charging_Adjusted_Penalty>
4.51643

> <i_epik_Tot_Q>
-1

> <i_epik_Tot_abs_Q>
1

> <r_epik_Metal_State_Penalty>
0.851582

> <b_epik_Metal_Only>
1

> <s_lp_Force_Field>
OPLS_2005

> <r_lp_Energy>
13.1445

> <b_lp_Chiralities_Consistent>
1

> <s_lp_Variant>
AV-unprocessed.smi:2198-9

> <Gold.Version>
5.8.1

> <Gold.Id.Protein>
6NUR|6NUR_protein|mol2

> <Gold.PLP.Fitness>
41.8069

> <Gold.PLP.PLP>
-33.1260

> <Gold.PLP.part.hbond>
-2.0000

> <Gold.PLP.part.metal>
0.0000

> <Gold.PLP.part.buried>
-4.9121

> <Gold.PLP.part.nonpolar>
-25.5557

> <Gold.PLP.part.repulsive>
0.0459

> <Gold.PLP.ligand.clash>
0.0000

> <Gold.PLP.ligand.torsion>
0.1634

> <Gold.PLP.Chemscore.Hbond>
3.0000

> <Gold.PLP.Chemscore.CHOScore>
0.0000

> <Gold.PLP.Chemscore.Metal>
0.0000

> <Gold.Chemscore.Hbonds>
donor molecule, donor type, donor heavy atom, donor atom, acceptor molecule, acceptor atom, score
      L1  H    10    29       P1  8028  1.00
      P1  H  7997  8008       L1    20  1.98

> <Gold.PLP.Chemscore.Internal.Correction>
0.0076

> <Gold.Rescore>
     Score         DG    S(hbond)    S(metal)    S(lipo)     H(rot)  DE(clash)    DE(int)     intcor
     11.95     -14.90       1.31        0.00      74.64       1.45       1.68       1.27       ----

> <Gold.Chemscore.Fitness>
11.9471

> <Gold.Chemscore.DG>
-14.9018

> <Gold.Chemscore.ZeroCoef>
-5.4800

> <Gold.Chemscore.Hbond>
1.3137

> <Gold.Chemscore.Metal>
0.0000

> <Gold.Chemscore.Lipo>
74.6448

> <Gold.Chemscore.Internal_Hbond>
0.0000

> <Gold.Chemscore.DEClash>
1.6806

> <Gold.Chemscore.DEInternal>
1.2741

> <Gold.Chemscore.Rot>
1.4450

> <Gold.Chemscore.Internal.Correction>
   9.000000E+99

> <Gold.Chemscore.Hbonds>
donor molecule, donor type, donor heavy atom, donor atom, acceptor molecule, acceptor atom, score
      L1  H    10    29       P1  8028  0.74
      P1  H  7997  8008       L1    20  0.21

> <Gold.Chemscore.Hbond.Weighted>
-4.3876

> <Gold.Chemscore.Metal.Weighted>
-0.0000

> <Gold.Chemscore.Lipo.Weighted>
-8.7334

> <Gold.Chemscore.Internal_Hbond.Weighted>
0.0000

> <Gold.Chemscore.DEClash.Weighted>
1.6806

> <Gold.Chemscore.DEInternal.Weighted>
1.2741

> <Gold.Chemscore.Rot.Weighted>
3.6992

> <Gold.Chemscore.Internal.Correction.Weighted>
   9.000000E+99

> <Gold.Protein.RotatedTorsions>
[ 6907 6896 6895 6894 ] final   94.17 input  -60.11 | X-H torsion
[ 7974 7965 7964 7962 ] final   11.75 input  175.53 | X-H torsion
[ 8008 7997 7996 7995 ] final  -89.40 input   59.86 | X-H torsion
[ 10167 10162 10161 10158 ] final   26.34 input  -65.29 | X-H torsion
[ 10718 10713 10712 10709 ] final   70.56 input   66.30 | X-H torsion
[ 10763 10752 10751 10750 ] final   54.73 input  -60.55 | X-H torsion
[ 11005 11000 10999 10996 ] final    8.87 input  -57.11 | X-H torsion

> <Gold.Protein.ActiveResidues>
 VAL166  LYS551  ARG553  GLY616  TRP617  ASP618  TYR619  PRO620  LYS621  CYS622 
 ASP623  PHE694  ASN695  SER759  ASP760  ASP761  ALA762  ILE779  LEU786  VAL792 
 PHE793  MET794  SER795  GLU796  ALA797  LYS798  CYS799  TRP800  GLU811  SER814 

> <Gold.Protein.RotatedAtoms>
  152.5450  134.1236  159.8408 H   0  0  0  0  0  0  0  0  0  0  0  0  # atno 6907 bound_to 6896
  151.1289  133.5044  159.2607 H   0  0  0  0  0  0  0  0  0  0  0  0  # atno 6908 bound_to 6896
  151.1697  135.0322  159.8801 H   0  0  0  0  0  0  0  0  0  0  0  0  # atno 6909 bound_to 6896
  146.2365  139.9439  142.8479 H   0  0  0  0  0  0  0  0  0  0  0  0  # atno 7974 bound_to 7965
  154.6862  140.0542  157.0316 H   0  0  0  0  0  0  0  0  0  0  0  0  # atno 8008 bound_to 7997
  155.0882  140.3216  155.4563 H   0  0  0  0  0  0  0  0  0  0  0  0  # atno 8009 bound_to 7997
  156.2712  140.2053  156.6009 H   0  0  0  0  0  0  0  0  0  0  0  0  # atno 8010 bound_to 7997
  140.5031  144.0283  150.6341 H   0  0  0  0  0  0  0  0  0  0  0  0  # atno 10167 bound_to 10162
  157.6406  130.9483  150.0667 H   0  0  0  0  0  0  0  0  0  0  0  0  # atno 10718 bound_to 10713
  152.9808  135.5735  154.4951 H   0  0  0  0  0  0  0  0  0  0  0  0  # atno 10763 bound_to 10752
  154.4480  135.2777  155.1803 H   0  0  0  0  0  0  0  0  0  0  0  0  # atno 10764 bound_to 10752
  154.3443  135.6222  153.5665 H   0  0  0  0  0  0  0  0  0  0  0  0  # atno 10765 bound_to 10752
  140.5321  134.0456  155.7876 H   0  0  0  0  0  0  0  0  0  0  0  0  # atno 11005 bound_to 11000
  145.1926  140.9818  143.4202 LP  0  0  0  0  0  0  0  0  0  0  0  0  # atno 17320 bound_to 7965
  144.9844  139.3751  143.6246 LP  0  0  0  0  0  0  0  0  0  0  0  0  # atno 17321 bound_to 7965
  140.3584  143.2922  152.0410 LP  0  0  0  0  0  0  0  0  0  0  0  0  # atno 17342 bound_to 10162
  139.4877  144.6321  151.7048 LP  0  0  0  0  0  0  0  0  0  0  0  0  # atno 17343 bound_to 10162
  156.1683  130.3645  149.9200 LP  0  0  0  0  0  0  0  0  0  0  0  0  # atno 17370 bound_to 10713
  156.7182  130.8996  151.3616 LP  0  0  0  0  0  0  0  0  0  0  0  0  # atno 17371 bound_to 10713
  141.1275  133.9357  157.2604 LP  0  0  0  0  0  0  0  0  0  0  0  0  # atno 17394 bound_to 11000
  139.9549  135.0168  156.9099 LP  0  0  0  0  0  0  0  0  0  0  0  0  # atno 17395 bound_to 11000

$$$$
