AV-unprocessed.smi:37|AV-procd|sdf|303|dock9
  -GOLD-   2262016113D 1   1.00000     0.00000
 Structure written by MMmdl.
 44 45  0  0  0  0  0  0  0  0  1 V2000
  152.7206  143.2297  160.1576 C   0  0  0  0  0  0  0  0  0  0  0  0
  153.2059  141.8662  160.6712 C   0  0  0  0  0  0  0  0  0  0  0  0
  153.1358  140.7555  159.6208 C   0  0  0  0  0  0  0  0  0  0  0  0
  154.1332  140.1375  159.2442 O   0  0  0  0  0  0  0  0  0  0  0  0
  151.8833  140.5573  159.1839 O   0  0  0  0  0  0  0  0  0  0  0  0
  151.6358  139.5839  158.1831 C   0  0  0  0  0  0  0  0  0  0  0  0
  150.1881  139.0956  158.2969 C   0  0  2  0  0  0  0  0  0  0  0  0
  150.1118  137.9749  159.1783 O   0  0  0  0  0  0  0  0  0  0  0  0
  149.3119  136.9731  158.6240 C   0  0  1  0  0  0  0  0  0  0  0  0
  148.3790  136.4155  159.6735 N   0  0  0  0  0  0  0  0  0  0  0  0
  148.3654  136.8901  160.9798 C   0  0  0  0  0  0  0  0  0  0  0  0
  147.5342  136.4007  161.9300 C   0  0  0  0  0  0  0  0  0  0  0  0
  147.5733  136.9114  163.1724 F   0  0  0  0  0  0  0  0  0  0  0  0
  146.5935  135.3284  161.6175 C   0  0  0  0  0  0  0  0  0  0  0  0
  145.8053  134.8177  162.4109 O   0  0  0  0  0  0  0  0  0  0  0  0
  146.6382  134.8896  160.2907 N   0  0  0  0  0  0  0  0  0  0  0  0
  147.4873  135.3871  159.3010 C   0  0  0  0  0  0  0  0  0  0  0  0
  147.4392  134.9330  158.1586 O   0  0  0  0  0  0  0  0  0  0  0  0
  148.5706  137.5977  157.4364 C   0  0  1  0  0  0  0  0  0  0  0  0
  146.9069  138.5587  158.0010 Br  0  0  0  0  0  0  0  0  0  0  0  0
  149.6189  138.5925  156.9684 C   0  0  1  0  0  0  0  0  0  0  0  0
  149.0732  139.6511  156.1923 O   0  0  0  0  0  0  0  0  0  0  0  0
  149.8445  140.3107  155.3096 C   0  0  0  0  0  0  0  0  0  0  0  0
  151.0225  140.0617  155.0531 O   0  0  0  0  0  0  0  0  0  0  0  0
  149.1018  141.4500  154.6161 C   0  0  0  0  0  0  0  0  0  0  0  0
  147.6454  141.5604  155.0873 C   0  0  0  0  0  0  0  0  0  0  0  0
  146.0005  134.1526  160.0266 H   0  0  0  0  0  0  0  0  0  0  0  0
  152.7844  143.9805  160.9451 H   0  0  0  0  0  0  0  0  0  0  0  0
  151.6816  143.1847  159.8292 H   0  0  0  0  0  0  0  0  0  0  0  0
  153.3264  143.5782  159.3203 H   0  0  0  0  0  0  0  0  0  0  0  0
  154.2366  141.9502  161.0168 H   0  0  0  0  0  0  0  0  0  0  0  0
  152.6085  141.5656  161.5322 H   0  0  0  0  0  0  0  0  0  0  0  0
  151.7936  140.0381  157.2038 H   0  0  0  0  0  0  0  0  0  0  0  0
  152.3317  138.7489  158.2750 H   0  0  0  0  0  0  0  0  0  0  0  0
  149.5471  139.8846  158.6942 H   0  0  0  0  0  0  0  0  0  0  0  0
  149.9710  136.1526  158.3322 H   0  0  0  0  0  0  0  0  0  0  0  0
  149.0302  137.6910  161.2685 H   0  0  0  0  0  0  0  0  0  0  0  0
  148.3058  136.8490  156.6894 H   0  0  0  0  0  0  0  0  0  0  0  0
  150.4057  138.0672  156.4236 H   0  0  0  0  0  0  0  0  0  0  0  0
  149.6294  142.3843  154.8090 H   0  0  0  0  0  0  0  0  0  0  0  0
  149.1310  141.2868  153.5385 H   0  0  0  0  0  0  0  0  0  0  0  0
  147.1291  142.3583  154.5535 H   0  0  0  0  0  0  0  0  0  0  0  0
  147.5850  141.7845  156.1529 H   0  0  0  0  0  0  0  0  0  0  0  0
  147.0989  140.6341  154.9067 H   0  0  0  0  0  0  0  0  0  0  0  0
  1  2  1  0  0  0  0
  1 28  1  0  0  0  0
  1 29  1  0  0  0  0
  1 30  1  0  0  0  0
  2  3  1  0  0  0  0
  2 31  1  0  0  0  0
  2 32  1  0  0  0  0
  3  4  2  0  0  0  0
  3  5  1  0  0  0  0
  5  6  1  0  0  0  0
  6  7  1  0  0  0  0
  6 33  1  0  0  0  0
  6 34  1  0  0  0  0
  7 21  1  0  0  0  0
  7  8  1  0  0  0  0
  7 35  1  0  0  0  0
  8  9  1  0  0  0  0
  9 10  1  0  0  0  0
  9 19  1  0  0  0  0
  9 36  1  0  0  0  0
 10 17  1  0  0  0  0
 10 11  1  0  0  0  0
 11 12  2  0  0  0  0
 11 37  1  0  0  0  0
 12 13  1  0  0  0  0
 12 14  1  0  0  0  0
 14 15  2  0  0  0  0
 14 16  1  0  0  0  0
 16 27  1  0  0  0  0
 16 17  1  0  0  0  0
 17 18  2  0  0  0  0
 19 20  1  0  0  0  0
 19 21  1  0  0  0  0
 19 38  1  0  0  0  0
 21 22  1  0  0  0  0
 21 39  1  0  0  0  0
 22 23  1  0  0  0  0
 23 24  2  0  0  0  0
 23 25  1  0  0  0  0
 25 26  1  0  0  0  0
 25 40  1  0  0  0  0
 25 41  1  0  0  0  0
 26 42  1  0  0  0  0
 26 43  1  0  0  0  0
 26 44  1  0  0  0  0
M  END
> <s_m_source_file>
AV-unprocessed.smi

> <i_m_source_file_index>
37

> <i_lp_mmshare_version>
43012

> <i_f3d_flags>
0

> <s_epik_input>
W0NIM11bQ0gyXUMoPU8pT1tDSDJdW0NAQEhdMU9bQ0BASF0objJbY0hdYyhGKWMoPU8pW25IXWMyPU8pW0NAQEhdKEJyKVtDQEhdMU9DKD1PKVtDSDJdW0NIM10=

> <s_epik_cmdline>
J2VwaWtfcHl0aG9uJywgJy1waCcsICc3LjAnLCAnLXRuJywgJzgnLCAnLW1hJywgJzIwMCcsICctbWV0YWxfYmluZGluZycsICctaW1hZScsICc8aW5maWxlLm1hZT4nLCAnLW9tYWUnLCAnPG91dGZpbGUubWFlPic=

> <r_lp_tautomer_probability>
0.999537

> <r_epik_Ionization_Penalty>
0.104106

> <r_epik_Ionization_Penalty_Charging>
0.104106

> <r_epik_Ionization_Penalty_Neutral>
3.94675e-16

> <r_epik_State_Penalty>
0.0940182

> <r_epik_Charging_Adjusted_Penalty>
0.198124

> <i_epik_Tot_Q>
0

> <i_epik_Tot_abs_Q>
0

> <r_epik_Metal_State_Penalty>
3.05314

> <b_epik_Metal_Only>
0

> <s_epik_Chemistry_Notes>
This compound has an ester and may undergo hydrolysis at high or low pH. This compound contains an acetal/aminal-like group ( X-CH(R)-Y where X, Y are N, S, or O) that may be acid/base labile, releasing an aldehyde.

> <s_lp_Force_Field>
OPLS_2005

> <r_lp_Energy>
25.209

> <b_lp_Chiralities_Consistent>
1

> <s_lp_Variant>
AV-unprocessed.smi:37-1

> <Gold.Version>
5.8.1

> <Gold.Id.Protein>
6NUR|6NUR_protein|mol2

> <Gold.PLP.Fitness>
45.3641

> <Gold.PLP.PLP>
-40.8547

> <Gold.PLP.part.hbond>
-2.1801

> <Gold.PLP.part.metal>
0.0000

> <Gold.PLP.part.buried>
-5.0642

> <Gold.PLP.part.nonpolar>
-33.9753

> <Gold.PLP.part.repulsive>
0.0571

> <Gold.PLP.ligand.clash>
0.0000

> <Gold.PLP.ligand.torsion>
0.8218

> <Gold.PLP.Chemscore.Hbond>
2.0000

> <Gold.PLP.Chemscore.CHOScore>
0.0000

> <Gold.PLP.Chemscore.Metal>
0.0000

> <Gold.Chemscore.Hbonds>
donor molecule, donor type, donor heavy atom, donor atom, acceptor molecule, acceptor atom, score
      P1  H  7989  7998       L1    24  1.00
      P1  H  7997  8008       L1     4  0.71

> <Gold.PLP.Chemscore.Internal.Correction>
0.1529

> <Gold.Rescore>
     Score         DG    S(hbond)    S(metal)    S(lipo)     H(rot)  DE(clash)    DE(int)     intcor
      8.12     -10.59       1.94        0.00      61.30       3.33       0.00       2.48       ----

> <Gold.Chemscore.Fitness>
8.1153

> <Gold.Chemscore.DG>
-10.5914

> <Gold.Chemscore.ZeroCoef>
-5.4800

> <Gold.Chemscore.Hbond>
1.9357

> <Gold.Chemscore.Metal>
0.0000

> <Gold.Chemscore.Lipo>
61.2981

> <Gold.Chemscore.Internal_Hbond>
0.0000

> <Gold.Chemscore.DEClash>
0.0000

> <Gold.Chemscore.DEInternal>
2.4762

> <Gold.Chemscore.Rot>
3.3303

> <Gold.Chemscore.Internal.Correction>
   9.000000E+99

> <Gold.Chemscore.Hbonds>
donor molecule, donor type, donor heavy atom, donor atom, acceptor molecule, acceptor atom, score
      P1  H  7989  7998       L1    24  0.88
      P1  H  7997  8008       L1     4  0.68

> <Gold.Chemscore.Hbond.Weighted>
-6.4652

> <Gold.Chemscore.Metal.Weighted>
-0.0000

> <Gold.Chemscore.Lipo.Weighted>
-7.1719

> <Gold.Chemscore.Internal_Hbond.Weighted>
0.0000

> <Gold.Chemscore.DEClash.Weighted>
0.0000

> <Gold.Chemscore.DEInternal.Weighted>
2.4762

> <Gold.Chemscore.Rot.Weighted>
8.5256

> <Gold.Chemscore.Internal.Correction.Weighted>
   9.000000E+99

> <Gold.Protein.RotatedTorsions>
[ 6907 6896 6895 6894 ] final   90.64 input  -60.11 | X-H torsion
[ 7974 7965 7964 7962 ] final -135.05 input  175.53 | X-H torsion
[ 8008 7997 7996 7995 ] final -104.20 input   59.86 | X-H torsion
[ 10167 10162 10161 10158 ] final  104.80 input  -65.29 | X-H torsion
[ 10718 10713 10712 10709 ] final  152.21 input   66.30 | X-H torsion
[ 10763 10752 10751 10750 ] final  -28.09 input  -60.55 | X-H torsion
[ 11005 11000 10999 10996 ] final -172.84 input  -57.11 | X-H torsion

> <Gold.Protein.ActiveResidues>
 VAL166  LYS551  ARG553  GLY616  TRP617  ASP618  TYR619  PRO620  LYS621  CYS622 
 ASP623  PHE694  ASN695  SER759  ASP760  ASP761  ALA762  ILE779  LEU786  VAL792 
 PHE793  MET794  SER795  GLU796  ALA797  LYS798  CYS799  TRP800  GLU811  SER814 

> <Gold.Protein.RotatedAtoms>
  152.5446  134.1779  159.8623 H   0  0  0  0  0  0  0  0  0  0  0  0  # atno 6907 bound_to 6896
  151.1784  133.4733  159.2601 H   0  0  0  0  0  0  0  0  0  0  0  0  # atno 6908 bound_to 6896
  151.1203  135.0087  159.8590 H   0  0  0  0  0  0  0  0  0  0  0  0  # atno 6909 bound_to 6896
  144.9048  140.6818  143.5062 H   0  0  0  0  0  0  0  0  0  0  0  0  # atno 7974 bound_to 7965
  154.8819  140.0419  157.1787 H   0  0  0  0  0  0  0  0  0  0  0  0  # atno 8008 bound_to 7997
  154.8630  140.2947  155.5506 H   0  0  0  0  0  0  0  0  0  0  0  0  # atno 8009 bound_to 7997
  156.2998  140.2443  156.3607 H   0  0  0  0  0  0  0  0  0  0  0  0  # atno 8010 bound_to 7997
  139.7146  144.7071  151.0971 H   0  0  0  0  0  0  0  0  0  0  0  0  # atno 10167 bound_to 10162
  157.2607  131.0797  151.1668 H   0  0  0  0  0  0  0  0  0  0  0  0  # atno 10718 bound_to 10713
  153.7427  135.6931  153.4963 H   0  0  0  0  0  0  0  0  0  0  0  0  # atno 10763 bound_to 10752
  153.2058  135.4420  155.0320 H   0  0  0  0  0  0  0  0  0  0  0  0  # atno 10764 bound_to 10752
  154.8215  135.3424  154.6952 H   0  0  0  0  0  0  0  0  0  0  0  0  # atno 10765 bound_to 10752
  140.4925  134.5971  157.4959 H   0  0  0  0  0  0  0  0  0  0  0  0  # atno 11005 bound_to 11000
  145.3555  139.1695  143.4412 LP  0  0  0  0  0  0  0  0  0  0  0  0  # atno 17320 bound_to 7965
  146.3128  140.3611  142.8665 LP  0  0  0  0  0  0  0  0  0  0  0  0  # atno 17321 bound_to 7965
  140.7741  143.5247  150.9494 LP  0  0  0  0  0  0  0  0  0  0  0  0  # atno 17342 bound_to 10162
  139.8932  143.6927  152.3142 LP  0  0  0  0  0  0  0  0  0  0  0  0  # atno 17343 bound_to 10162
  157.3179  130.6922  149.6252 LP  0  0  0  0  0  0  0  0  0  0  0  0  # atno 17370 bound_to 10713
  155.9664  130.4344  150.5048 LP  0  0  0  0  0  0  0  0  0  0  0  0  # atno 17371 bound_to 10713
  139.9761  134.7214  155.9948 LP  0  0  0  0  0  0  0  0  0  0  0  0  # atno 17394 bound_to 11000
  141.1477  133.6553  156.3917 LP  0  0  0  0  0  0  0  0  0  0  0  0  # atno 17395 bound_to 11000

$$$$
