AV-unprocessed.smi:879|AV-procd|sdf|4033|dock4
  -GOLD-   22720 1523D 1   1.00000     0.00000
 Structure written by MMmdl.
 39 40  0  0  0  0  0  0  0  0  1 V2000
  147.1225  140.6519  153.2960 C   0  0  0  0  0  0  0  0  0  0  0  0
  148.4672  140.1047  153.3922 N   0  0  0  0  0  0  0  0  0  0  0  0
  149.1542  139.9876  154.5378 C   0  0  0  0  0  0  0  0  0  0  0  0
  148.7003  140.3371  155.6288 O   0  0  0  0  0  0  0  0  0  0  0  0
  150.5559  139.3744  154.4180 C   0  0  0  0  0  0  0  0  0  0  0  0
  151.3687  139.5550  155.6628 C   0  0  0  0  0  0  0  0  0  0  0  0
  152.5417  138.9505  155.8145 N   0  0  0  0  0  0  0  0  0  0  0  0
  152.9576  139.3655  157.0874 O   0  0  0  0  0  0  0  0  0  0  0  0
  151.9789  140.1810  157.5492 C   0  0  0  0  0  0  0  0  0  0  0  0
  152.1082  140.7668  158.9183 C   0  0  0  0  0  0  0  0  0  0  0  0
  152.8137  142.1414  158.9504 C   0  0  0  0  0  0  0  0  0  0  0  0
  153.2683  142.4985  160.3839 C   0  0  0  0  0  0  0  0  0  0  0  0
  152.2184  143.2052  161.2588 C   0  0  0  0  0  0  0  0  0  0  0  0
  152.2525  144.7358  161.1106 C   0  0  0  0  0  0  0  0  0  0  0  0
  151.7105  145.2662  159.7748 C   0  0  0  0  0  0  0  0  0  0  0  0
  152.3942  144.6883  158.5232 C   0  0  0  0  0  0  0  0  0  0  0  0
  151.9829  143.2342  158.2355 C   0  0  0  0  0  0  0  0  0  0  0  0
  150.9547  140.3200  156.7115 N   0  0  0  0  0  0  0  0  0  0  0  0
  146.7734  140.6009  152.2648 H   0  0  0  0  0  0  0  0  0  0  0  0
  147.1064  141.6959  153.6107 H   0  0  0  0  0  0  0  0  0  0  0  0
  146.4266  140.0891  153.9197 H   0  0  0  0  0  0  0  0  0  0  0  0
  148.9027  139.7955  152.5352 H   0  0  0  0  0  0  0  0  0  0  0  0
  150.4607  138.3103  154.1995 H   0  0  0  0  0  0  0  0  0  0  0  0
  151.0826  139.8250  153.5752 H   0  0  0  0  0  0  0  0  0  0  0  0
  151.1117  140.8484  159.3541 H   0  0  0  0  0  0  0  0  0  0  0  0
  152.6527  140.0518  159.5360 H   0  0  0  0  0  0  0  0  0  0  0  0
  153.7337  142.0245  158.3750 H   0  0  0  0  0  0  0  0  0  0  0  0
  153.5925  141.5879  160.8891 H   0  0  0  0  0  0  0  0  0  0  0  0
  154.1653  143.1173  160.3351 H   0  0  0  0  0  0  0  0  0  0  0  0
  151.2184  142.8131  161.0704 H   0  0  0  0  0  0  0  0  0  0  0  0
  152.4372  142.9716  162.3013 H   0  0  0  0  0  0  0  0  0  0  0  0
  151.6635  145.1767  161.9154 H   0  0  0  0  0  0  0  0  0  0  0  0
  153.2704  145.0966  161.2619 H   0  0  0  0  0  0  0  0  0  0  0  0
  150.6355  145.0910  159.7202 H   0  0  0  0  0  0  0  0  0  0  0  0
  151.8310  146.3498  159.7679 H   0  0  0  0  0  0  0  0  0  0  0  0
  152.0854  145.2968  157.6726 H   0  0  0  0  0  0  0  0  0  0  0  0
  153.4786  144.7890  158.5809 H   0  0  0  0  0  0  0  0  0  0  0  0
  152.0579  143.0659  157.1604 H   0  0  0  0  0  0  0  0  0  0  0  0
  150.9250  143.1111  158.4706 H   0  0  0  0  0  0  0  0  0  0  0  0
  1  2  1  0  0  0  0
  1 19  1  0  0  0  0
  1 20  1  0  0  0  0
  1 21  1  0  0  0  0
  2  3  1  0  0  0  0
  2 22  1  0  0  0  0
  3  4  2  0  0  0  0
  3  5  1  0  0  0  0
  5  6  1  0  0  0  0
  5 23  1  0  0  0  0
  5 24  1  0  0  0  0
  6 18  1  0  0  0  0
  6  7  2  0  0  0  0
  7  8  1  0  0  0  0
  8  9  1  0  0  0  0
  9 10  1  0  0  0  0
  9 18  2  0  0  0  0
 10 11  1  0  0  0  0
 10 25  1  0  0  0  0
 10 26  1  0  0  0  0
 11 17  1  0  0  0  0
 11 12  1  0  0  0  0
 11 27  1  0  0  0  0
 12 13  1  0  0  0  0
 12 28  1  0  0  0  0
 12 29  1  0  0  0  0
 13 14  1  0  0  0  0
 13 30  1  0  0  0  0
 13 31  1  0  0  0  0
 14 15  1  0  0  0  0
 14 32  1  0  0  0  0
 14 33  1  0  0  0  0
 15 16  1  0  0  0  0
 15 34  1  0  0  0  0
 15 35  1  0  0  0  0
 16 17  1  0  0  0  0
 16 36  1  0  0  0  0
 16 37  1  0  0  0  0
 17 38  1  0  0  0  0
 17 39  1  0  0  0  0
M  END
> <s_m_source_file>
AV-unprocessed.smi

> <i_m_source_file_index>
879

> <i_lp_mmshare_version>
43012

> <i_f3d_flags>
0

> <s_epik_input>
W0NIM11bTkhdQyg9TylbQ0gyXWMxbm9jKG4xKVtDSDJdW0NIXTJbQ0gyXVtDSDJdW0NIMl1bQ0gyXVtDSDJdW0NIMl0y

> <s_epik_cmdline>
J2VwaWtfcHl0aG9uJywgJy1waCcsICc3LjAnLCAnLXRuJywgJzgnLCAnLW1hJywgJzIwMCcsICctbWV0YWxfYmluZGluZycsICctaW1hZScsICc8aW5maWxlLm1hZT4nLCAnLW9tYWUnLCAnPG91dGZpbGUubWFlPic=

> <r_lp_tautomer_probability>
1

> <r_epik_Ionization_Penalty>
1.02915e-07

> <r_epik_Ionization_Penalty_Charging>
0

> <r_epik_Ionization_Penalty_Neutral>
1.02915e-07

> <r_epik_State_Penalty>
-0

> <r_epik_Charging_Adjusted_Penalty>
0

> <i_epik_Tot_Q>
0

> <i_epik_Tot_abs_Q>
0

> <r_epik_Metal_State_Penalty>
-0

> <b_epik_Metal_Only>
0

> <s_lp_Force_Field>
OPLS_2005

> <r_lp_Energy>
15.7019

> <b_lp_Chiralities_Consistent>
1

> <s_lp_Variant>
AV-unprocessed.smi:879-1

> <Gold.Version>
5.8.1

> <Gold.Id.Protein>
6NUR|6NUR_protein|mol2

> <Gold.PLP.Fitness>
48.4453

> <Gold.PLP.PLP>
-43.7029

> <Gold.PLP.part.hbond>
-2.2338

> <Gold.PLP.part.metal>
0.0000

> <Gold.PLP.part.buried>
-4.9115

> <Gold.PLP.part.nonpolar>
-36.5163

> <Gold.PLP.part.repulsive>
0.1798

> <Gold.PLP.ligand.clash>
0.0000

> <Gold.PLP.ligand.torsion>
0.6533

> <Gold.PLP.Chemscore.Hbond>
2.0000

> <Gold.PLP.Chemscore.CHOScore>
0.0000

> <Gold.PLP.Chemscore.Metal>
0.0000

> <Gold.Chemscore.Hbonds>
donor molecule, donor type, donor heavy atom, donor atom, acceptor molecule, acceptor atom, score
      L1  H     2    22       P1  7957  1.00
      P1  H  7997  8008       L1     8  0.90

> <Gold.PLP.Chemscore.Internal.Correction>
0.0490

> <Gold.Rescore>
     Score         DG    S(hbond)    S(metal)    S(lipo)     H(rot)  DE(clash)    DE(int)     intcor
     16.98     -19.57       1.87        0.00     107.41       1.84       0.10       2.49       ----

> <Gold.Chemscore.Fitness>
16.9820

> <Gold.Chemscore.DG>
-19.5714

> <Gold.Chemscore.ZeroCoef>
-5.4800

> <Gold.Chemscore.Hbond>
1.8666

> <Gold.Chemscore.Metal>
0.0000

> <Gold.Chemscore.Lipo>
107.4101

> <Gold.Chemscore.Internal_Hbond>
0.0000

> <Gold.Chemscore.DEClash>
0.0996

> <Gold.Chemscore.DEInternal>
2.4898

> <Gold.Chemscore.Rot>
1.8399

> <Gold.Chemscore.Internal.Correction>
   9.000000E+99

> <Gold.Chemscore.Hbonds>
donor molecule, donor type, donor heavy atom, donor atom, acceptor molecule, acceptor atom, score
      L1  H     2    22       P1  7957  0.94
      P1  H  7997  8008       L1     8  0.17

> <Gold.Chemscore.Hbond.Weighted>
-6.2345

> <Gold.Chemscore.Metal.Weighted>
-0.0000

> <Gold.Chemscore.Lipo.Weighted>
-12.5670

> <Gold.Chemscore.Internal_Hbond.Weighted>
0.0000

> <Gold.Chemscore.DEClash.Weighted>
0.0996

> <Gold.Chemscore.DEInternal.Weighted>
2.4898

> <Gold.Chemscore.Rot.Weighted>
4.7101

> <Gold.Chemscore.Internal.Correction.Weighted>
   9.000000E+99

> <Gold.Protein.RotatedTorsions>
[ 6907 6896 6895 6894 ] final  -80.45 input  -60.11 | X-H torsion
[ 7974 7965 7964 7962 ] final   14.90 input  175.53 | X-H torsion
[ 8008 7997 7996 7995 ] final  -61.10 input   59.86 | X-H torsion
[ 10167 10162 10161 10158 ] final  -58.36 input  -65.29 | X-H torsion
[ 10718 10713 10712 10709 ] final  143.71 input   66.30 | X-H torsion
[ 10763 10752 10751 10750 ] final -178.12 input  -60.55 | X-H torsion
[ 11005 11000 10999 10996 ] final  -32.21 input  -57.11 | X-H torsion

> <Gold.Protein.ActiveResidues>
 VAL166  LYS551  ARG553  GLY616  TRP617  ASP618  TYR619  PRO620  LYS621  CYS622 
 ASP623  PHE694  ASN695  SER759  ASP760  ASP761  ALA762  ILE779  LEU786  VAL792 
 PHE793  MET794  SER795  GLU796  ALA797  LYS798  CYS799  TRP800  GLU811  SER814 

> <Gold.Protein.RotatedAtoms>
  150.6929  134.3968  159.5100 H   0  0  0  0  0  0  0  0  0  0  0  0  # atno 6907 bound_to 6896
  152.1748  134.8801  160.0540 H   0  0  0  0  0  0  0  0  0  0  0  0  # atno 6908 bound_to 6896
  151.9814  133.3724  159.4146 H   0  0  0  0  0  0  0  0  0  0  0  0  # atno 6909 bound_to 6896
  146.2293  139.8973  142.8545 H   0  0  0  0  0  0  0  0  0  0  0  0  # atno 7974 bound_to 7965
  154.4431  140.1025  156.6377 H   0  0  0  0  0  0  0  0  0  0  0  0  # atno 8008 bound_to 7997
  155.5536  140.3486  155.4455 H   0  0  0  0  0  0  0  0  0  0  0  0  # atno 8009 bound_to 7997
  156.0511  140.1304  157.0038 H   0  0  0  0  0  0  0  0  0  0  0  0  # atno 8010 bound_to 7997
  140.6202  143.2417  151.5499 H   0  0  0  0  0  0  0  0  0  0  0  0  # atno 10167 bound_to 10162
  157.3657  131.0971  151.0874 H   0  0  0  0  0  0  0  0  0  0  0  0  # atno 10718 bound_to 10713
  154.5517  135.2813  155.1002 H   0  0  0  0  0  0  0  0  0  0  0  0  # atno 10763 bound_to 10752
  154.2446  135.6350  153.5222 H   0  0  0  0  0  0  0  0  0  0  0  0  # atno 10764 bound_to 10752
  153.0004  135.5568  154.6085 H   0  0  0  0  0  0  0  0  0  0  0  0  # atno 10765 bound_to 10752
  140.9533  133.7208  156.1254 H   0  0  0  0  0  0  0  0  0  0  0  0  # atno 11005 bound_to 11000
  145.2358  140.9990  143.3964 LP  0  0  0  0  0  0  0  0  0  0  0  0  # atno 17320 bound_to 7965
  144.9493  139.4101  143.6410 LP  0  0  0  0  0  0  0  0  0  0  0  0  # atno 17321 bound_to 7965
  139.5432  144.2591  152.1391 LP  0  0  0  0  0  0  0  0  0  0  0  0  # atno 17342 bound_to 10162
  140.1810  144.4845  150.6528 LP  0  0  0  0  0  0  0  0  0  0  0  0  # atno 17343 bound_to 10162
  157.1997  130.6389  149.5734 LP  0  0  0  0  0  0  0  0  0  0  0  0  # atno 17370 bound_to 10713
  155.9746  130.4695  150.6396 LP  0  0  0  0  0  0  0  0  0  0  0  0  # atno 17371 bound_to 10713
  140.7572  134.3980  157.5532 LP  0  0  0  0  0  0  0  0  0  0  0  0  # atno 17394 bound_to 11000
  139.8854  134.8938  156.2644 LP  0  0  0  0  0  0  0  0  0  0  0  0  # atno 17395 bound_to 11000

$$$$
