AV-unprocessed.smi:1270|AV-procd|sdf|5331|dock4
  -GOLD-   22720 4463D 1   1.00000     0.00000
 Structure written by MMmdl.
 42 43  0  0  0  0  0  0  0  0  1 V2000
  145.0536  133.1648  150.0938 C   0  0  0  0  0  0  0  0  0  0  0  0
  146.0084  133.2846  151.1430 O   0  0  0  0  0  0  0  0  0  0  0  0
  146.3876  132.1431  151.8236 C   0  0  0  0  0  0  0  0  0  0  0  0
  145.8661  130.9542  151.4287 N   0  0  0  0  0  0  0  0  0  0  0  0
  146.2298  129.8395  152.0950 C   0  0  0  0  0  0  0  0  0  0  0  0
  147.1192  129.8497  153.1849 C   0  0  0  0  0  0  0  0  0  0  0  0
  147.6613  131.0812  153.5966 C   0  0  0  0  0  0  0  0  0  0  0  0
  147.3003  132.2595  152.8982 C   0  0  0  0  0  0  0  0  0  0  0  0
  147.7708  133.5581  153.2399 N   0  0  0  0  0  0  0  0  0  0  0  0
  148.2911  133.9874  154.4022 C   0  0  0  0  0  0  0  0  0  0  0  0
  148.4794  133.2925  155.4003 O   0  0  0  0  0  0  0  0  0  0  0  0
  148.6059  135.2890  154.3388 N   0  0  0  0  0  0  0  0  0  0  0  0
  149.1830  136.0689  155.4299 C   0  0  0  0  0  0  0  0  0  0  0  0
  148.5147  137.4501  155.4940 C   0  0  0  0  0  0  0  0  0  0  0  0
  149.1350  138.3243  156.5984 C   0  0  0  0  0  0  0  0  0  0  0  0
  150.6014  138.4260  156.4548 N   0  0  0  0  0  0  0  0  0  0  0  0
  151.3115  139.8559  155.7615 S   0  0  0  0  0  0  0  0  0  0  0  0
  151.1835  141.1142  157.0970 C   0  0  0  0  0  0  0  0  0  0  0  0
  152.7370  139.5814  155.5253 O   0  0  0  0  0  0  0  0  0  0  0  0
  150.4572  140.2858  154.6439 O   0  0  0  0  0  0  0  0  0  0  0  0
  151.3007  137.1298  156.3482 C   0  0  0  0  0  0  0  0  0  0  0  0
  150.6990  136.2479  155.2402 C   0  0  0  0  0  0  0  0  0  0  0  0
  144.8652  134.1485  149.6641 H   0  0  0  0  0  0  0  0  0  0  0  0
  144.1027  132.7773  150.4625 H   0  0  0  0  0  0  0  0  0  0  0  0
  145.4178  132.5187  149.2934 H   0  0  0  0  0  0  0  0  0  0  0  0
  145.7930  128.9124  151.7541 H   0  0  0  0  0  0  0  0  0  0  0  0
  147.3755  128.9342  153.6972 H   0  0  0  0  0  0  0  0  0  0  0  0
  148.3267  131.0957  154.4455 H   0  0  0  0  0  0  0  0  0  0  0  0
  147.7560  134.2298  152.4864 H   0  0  0  0  0  0  0  0  0  0  0  0
  148.4244  135.7800  153.4755 H   0  0  0  0  0  0  0  0  0  0  0  0
  148.9980  135.5522  156.3739 H   0  0  0  0  0  0  0  0  0  0  0  0
  148.6035  137.9510  154.5306 H   0  0  0  0  0  0  0  0  0  0  0  0
  147.4460  137.3375  155.6802 H   0  0  0  0  0  0  0  0  0  0  0  0
  148.6827  139.3155  156.5968 H   0  0  0  0  0  0  0  0  0  0  0  0
  148.9148  137.8886  157.5736 H   0  0  0  0  0  0  0  0  0  0  0  0
  151.6144  142.0509  156.7442 H   0  0  0  0  0  0  0  0  0  0  0  0
  151.7341  140.7812  157.9747 H   0  0  0  0  0  0  0  0  0  0  0  0
  150.1382  141.2807  157.3511 H   0  0  0  0  0  0  0  0  0  0  0  0
  152.3650  137.2847  156.1739 H   0  0  0  0  0  0  0  0  0  0  0  0
  151.2186  136.6152  157.3063 H   0  0  0  0  0  0  0  0  0  0  0  0
  151.1961  135.2772  155.2459 H   0  0  0  0  0  0  0  0  0  0  0  0
  150.9019  136.6857  154.2635 H   0  0  0  0  0  0  0  0  0  0  0  0
  1  2  1  0  0  0  0
  1 23  1  0  0  0  0
  1 24  1  0  0  0  0
  1 25  1  0  0  0  0
  2  3  1  0  0  0  0
  3  8  1  0  0  0  0
  3  4  2  0  0  0  0
  4  5  1  0  0  0  0
  5  6  2  0  0  0  0
  5 26  1  0  0  0  0
  6  7  1  0  0  0  0
  6 27  1  0  0  0  0
  7  8  2  0  0  0  0
  7 28  1  0  0  0  0
  8  9  1  0  0  0  0
  9 10  1  0  0  0  0
  9 29  1  0  0  0  0
 10 11  2  0  0  0  0
 10 12  1  0  0  0  0
 12 13  1  0  0  0  0
 12 30  1  0  0  0  0
 13 22  1  0  0  0  0
 13 14  1  0  0  0  0
 13 31  1  0  0  0  0
 14 15  1  0  0  0  0
 14 32  1  0  0  0  0
 14 33  1  0  0  0  0
 15 16  1  0  0  0  0
 15 34  1  0  0  0  0
 15 35  1  0  0  0  0
 16 17  1  0  0  0  0
 16 21  1  0  0  0  0
 17 18  1  0  0  0  0
 17 19  2  0  0  0  0
 17 20  2  0  0  0  0
 18 36  1  0  0  0  0
 18 37  1  0  0  0  0
 18 38  1  0  0  0  0
 21 22  1  0  0  0  0
 21 39  1  0  0  0  0
 21 40  1  0  0  0  0
 22 41  1  0  0  0  0
 22 42  1  0  0  0  0
M  END
> <s_m_source_file>
AV-unprocessed.smi

> <i_m_source_file_index>
1270

> <i_lp_mmshare_version>
43012

> <i_f3d_flags>
0

> <s_epik_input>
W0NIM11PYzFuW2NIXVtjSF1bY0hdYzFbTkhdQyg9TylbTkhdW0NIXTJbQ0gyXVtDSDJdTihTKD1PKSg9TylbQ0gzXSlbQ0gyXVtDSDJdMg==

> <s_epik_cmdline>
J2VwaWtfcHl0aG9uJywgJy1waCcsICc3LjAnLCAnLXRuJywgJzgnLCAnLW1hJywgJzIwMCcsICctbWV0YWxfYmluZGluZycsICctaW1hZScsICc8aW5maWxlLm1hZT4nLCAnLW9tYWUnLCAnPG91dGZpbGUubWFlPic=

> <r_lp_tautomer_probability>
1

> <r_epik_Ionization_Penalty>
9.27336e-05

> <r_epik_Ionization_Penalty_Charging>
0

> <r_epik_Ionization_Penalty_Neutral>
9.27336e-05

> <r_epik_State_Penalty>
-0

> <r_epik_Charging_Adjusted_Penalty>
0

> <i_epik_Tot_Q>
0

> <i_epik_Tot_abs_Q>
0

> <r_epik_Metal_State_Penalty>
-0

> <b_epik_Metal_Only>
0

> <s_lp_Force_Field>
OPLS_2005

> <r_lp_Energy>
1.71558

> <b_lp_Chiralities_Consistent>
1

> <s_lp_Variant>
AV-unprocessed.smi:1270-1

> <Gold.Version>
5.8.1

> <Gold.Id.Protein>
6NUR|6NUR_protein|mol2

> <Gold.PLP.Fitness>
37.3425

> <Gold.PLP.PLP>
-28.7864

> <Gold.PLP.part.hbond>
-3.6754

> <Gold.PLP.part.metal>
0.0000

> <Gold.PLP.part.buried>
-4.6441

> <Gold.PLP.part.nonpolar>
-20.7919

> <Gold.PLP.part.repulsive>
0.4041

> <Gold.PLP.ligand.clash>
0.0000

> <Gold.PLP.ligand.torsion>
1.4296

> <Gold.PLP.Chemscore.Hbond>
3.1195

> <Gold.PLP.Chemscore.CHOScore>
0.0000

> <Gold.PLP.Chemscore.Metal>
0.0000

> <Gold.Chemscore.Hbonds>
donor molecule, donor type, donor heavy atom, donor atom, acceptor molecule, acceptor atom, score
      L1  H     9    29       P1  7948  0.12
      L1  H    12    30       P1  7948  0.96
      P1  H  7989  7998       L1    20  1.00
      P1  H  7997  8009       L1    19  1.00

> <Gold.PLP.Chemscore.Internal.Correction>
2.0568

> <Gold.Rescore>
     Score         DG    S(hbond)    S(metal)    S(lipo)     H(rot)  DE(clash)    DE(int)     intcor
     16.02     -18.60       2.96        0.00      55.81       1.29       0.00       2.57       ----

> <Gold.Chemscore.Fitness>
16.0238

> <Gold.Chemscore.DG>
-18.5953

> <Gold.Chemscore.ZeroCoef>
-5.4800

> <Gold.Chemscore.Hbond>
2.9596

> <Gold.Chemscore.Metal>
0.0000

> <Gold.Chemscore.Lipo>
55.8145

> <Gold.Chemscore.Internal_Hbond>
0.0000

> <Gold.Chemscore.DEClash>
0.0000

> <Gold.Chemscore.DEInternal>
2.5715

> <Gold.Chemscore.Rot>
1.2890

> <Gold.Chemscore.Internal.Correction>
   9.000000E+99

> <Gold.Chemscore.Hbonds>
donor molecule, donor type, donor heavy atom, donor atom, acceptor molecule, acceptor atom, score
      L1  H     9    29       P1  7948  0.06
      L1  H    12    30       P1  7948  0.92
      P1  H  7989  7998       L1    20  0.34
      P1  H  7997  8009       L1    19  1.00

> <Gold.Chemscore.Hbond.Weighted>
-9.8849

> <Gold.Chemscore.Metal.Weighted>
-0.0000

> <Gold.Chemscore.Lipo.Weighted>
-6.5303

> <Gold.Chemscore.Internal_Hbond.Weighted>
0.0000

> <Gold.Chemscore.DEClash.Weighted>
0.0000

> <Gold.Chemscore.DEInternal.Weighted>
2.5715

> <Gold.Chemscore.Rot.Weighted>
3.2999

> <Gold.Chemscore.Internal.Correction.Weighted>
   9.000000E+99

> <Gold.Protein.RotatedTorsions>
[ 6907 6896 6895 6894 ] final -102.68 input  -60.11 | X-H torsion
[ 7974 7965 7964 7962 ] final  -70.97 input  175.53 | X-H torsion
[ 8008 7997 7996 7995 ] final -137.89 input   59.86 | X-H torsion
[ 10167 10162 10161 10158 ] final  177.45 input  -65.29 | X-H torsion
[ 10718 10713 10712 10709 ] final -151.05 input   66.30 | X-H torsion
[ 10763 10752 10751 10750 ] final  -88.33 input  -60.55 | X-H torsion
[ 11005 11000 10999 10996 ] final   55.63 input  -57.11 | X-H torsion

> <Gold.Protein.ActiveResidues>
 VAL166  LYS551  ARG553  GLY616  TRP617  ASP618  TYR619  PRO620  LYS621  CYS622 
 ASP623  PHE694  ASN695  SER759  ASP760  ASP761  ALA762  ILE779  LEU786  VAL792 
 PHE793  MET794  SER795  GLU796  ALA797  LYS798  CYS799  TRP800  GLU811  SER814 

> <Gold.Protein.RotatedAtoms>
  150.7207  134.0544  159.3809 H   0  0  0  0  0  0  0  0  0  0  0  0  # atno 6907 bound_to 6896
  151.8522  135.0551  160.0469 H   0  0  0  0  0  0  0  0  0  0  0  0  # atno 6908 bound_to 6896
  152.2781  133.5409  159.5517 H   0  0  0  0  0  0  0  0  0  0  0  0  # atno 6909 bound_to 6896
  145.6842  140.9177  143.0816 H   0  0  0  0  0  0  0  0  0  0  0  0  # atno 7974 bound_to 7965
  155.4192  140.0517  157.3027 H   0  0  0  0  0  0  0  0  0  0  0  0  # atno 8008 bound_to 7997
  154.4910  140.2120  155.9507 H   0  0  0  0  0  0  0  0  0  0  0  0  # atno 8009 bound_to 7997
  156.1342  140.3166  155.8400 H   0  0  0  0  0  0  0  0  0  0  0  0  # atno 8010 bound_to 7997
  139.5254  144.2797  152.0557 H   0  0  0  0  0  0  0  0  0  0  0  0  # atno 10167 bound_to 10162
  156.4541  130.8182  151.2413 H   0  0  0  0  0  0  0  0  0  0  0  0  # atno 10718 bound_to 10713
  154.6434  135.5381  153.7815 H   0  0  0  0  0  0  0  0  0  0  0  0  # atno 10763 bound_to 10752
  153.0346  135.6464  154.1126 H   0  0  0  0  0  0  0  0  0  0  0  0  # atno 10764 bound_to 10752
  154.1049  135.2930  155.3223 H   0  0  0  0  0  0  0  0  0  0  0  0  # atno 10765 bound_to 10752
  140.0592  134.5627  155.9172 H   0  0  0  0  0  0  0  0  0  0  0  0  # atno 11005 bound_to 11000
  144.7017  139.8736  143.7442 LP  0  0  0  0  0  0  0  0  0  0  0  0  # atno 17320 bound_to 7965
  146.0938  139.3929  143.0389 LP  0  0  0  0  0  0  0  0  0  0  0  0  # atno 17321 bound_to 7965
  140.2252  144.4425  150.6324 LP  0  0  0  0  0  0  0  0  0  0  0  0  # atno 17342 bound_to 10162
  140.6392  143.2200  151.6328 LP  0  0  0  0  0  0  0  0  0  0  0  0  # atno 17343 bound_to 10162
  157.7501  131.0128  150.3400 LP  0  0  0  0  0  0  0  0  0  0  0  0  # atno 17370 bound_to 10713
  156.3785  130.3876  149.7120 LP  0  0  0  0  0  0  0  0  0  0  0  0  # atno 17371 bound_to 10713
  141.1965  133.6592  156.5697 LP  0  0  0  0  0  0  0  0  0  0  0  0  # atno 17394 bound_to 11000
  140.3797  134.7534  157.4653 LP  0  0  0  0  0  0  0  0  0  0  0  0  # atno 17395 bound_to 11000

$$$$
