AV-unprocessed.smi:2669|AV-procd|sdf|10344|dock5
  -GOLD-   2272014363D 1   1.00000     0.00000
 Structure written by MMmdl.
 39 41  0  0  0  0  0  0  0  0  1 V2000
  151.2656  133.8623  157.4218 C   0  0  0  0  0  0  0  0  0  0  0  0
  150.9918  135.2161  156.9668 N   0  0  0  0  0  0  0  0  0  0  0  0
  149.6751  135.6933  156.8989 C   0  0  0  0  0  0  0  0  0  0  0  0
  148.7018  135.0977  157.6267 N   0  0  0  0  0  0  0  0  0  0  0  0
  147.4590  135.5883  157.5312 C   0  0  0  0  0  0  0  0  0  0  0  0
  147.0108  136.6198  156.7988 N   0  0  0  0  0  0  0  0  0  0  0  0
  147.9673  137.2164  156.0744 C   0  0  0  0  0  0  0  0  0  0  0  0
  147.7913  138.3010  155.2323 N   0  0  0  0  0  0  0  0  0  0  0  0
  149.0257  138.4891  154.7724 C   0  0  0  0  0  0  0  0  0  0  0  0
  149.9884  137.6558  155.2144 N   0  0  0  0  0  0  0  0  0  0  0  0
  151.3937  137.6799  154.8450 C   0  0  0  0  0  0  0  0  0  0  0  0
  152.2817  138.3141  155.9342 C   0  0  1  0  0  0  0  0  0  0  0  0
  153.6044  138.4240  155.4439 O   0  0  0  0  0  0  0  0  0  0  0  0
  151.7879  139.7138  156.3337 C   0  0  0  0  0  0  0  0  0  0  0  0
  152.4383  140.1044  157.5356 O   0  0  0  0  0  0  0  0  0  0  0  0
  152.1617  141.3513  158.0538 C   0  0  0  0  0  0  0  0  0  0  0  0
  152.8879  141.7431  159.1975 C   0  0  0  0  0  0  0  0  0  0  0  0
  152.6693  142.9989  159.7958 C   0  0  0  0  0  0  0  0  0  0  0  0
  151.7170  143.8806  159.2518 C   0  0  0  0  0  0  0  0  0  0  0  0
  151.4470  145.4201  159.9829 Cl  0  0  0  0  0  0  0  0  0  0  0  0
  150.9857  143.5033  158.1102 C   0  0  0  0  0  0  0  0  0  0  0  0
  151.2045  142.2467  157.5123 C   0  0  0  0  0  0  0  0  0  0  0  0
  149.3300  136.7912  156.0861 C   0  0  0  0  0  0  0  0  0  0  0  0
  152.3370  133.6659  157.3820 H   0  0  0  0  0  0  0  0  0  0  0  0
  150.7613  133.1316  156.7887 H   0  0  0  0  0  0  0  0  0  0  0  0
  150.9315  133.7255  158.4507 H   0  0  0  0  0  0  0  0  0  0  0  0
  151.7580  135.7969  156.6587 H   0  0  0  0  0  0  0  0  0  0  0  0
  146.7135  135.0834  158.1274 H   0  0  0  0  0  0  0  0  0  0  0  0
  149.2432  139.2792  154.0685 H   0  0  0  0  0  0  0  0  0  0  0  0
  151.7179  136.6589  154.6382 H   0  0  0  0  0  0  0  0  0  0  0  0
  151.4899  138.2270  153.9069 H   0  0  0  0  0  0  0  0  0  0  0  0
  152.2868  137.6658  156.8112 H   0  0  0  0  0  0  0  0  0  0  0  0
  153.9101  137.5625  155.2050 H   0  0  0  0  0  0  0  0  0  0  0  0
  151.9598  140.4302  155.5284 H   0  0  0  0  0  0  0  0  0  0  0  0
  150.7138  139.6763  156.5231 H   0  0  0  0  0  0  0  0  0  0  0  0
  153.6208  141.0727  159.6223 H   0  0  0  0  0  0  0  0  0  0  0  0
  153.2330  143.2833  160.6722 H   0  0  0  0  0  0  0  0  0  0  0  0
  150.2536  144.1773  157.6901 H   0  0  0  0  0  0  0  0  0  0  0  0
  150.6234  141.9937  156.6387 H   0  0  0  0  0  0  0  0  0  0  0  0
  1  2  1  0  0  0  0
  1 24  1  0  0  0  0
  1 25  1  0  0  0  0
  1 26  1  0  0  0  0
  2  3  1  0  0  0  0
  2 27  1  0  0  0  0
  3 23  1  0  0  0  0
  3  4  2  0  0  0  0
  4  5  1  0  0  0  0
  5  6  2  0  0  0  0
  5 28  1  0  0  0  0
  6  7  1  0  0  0  0
  7 23  2  0  0  0  0
  7  8  1  0  0  0  0
  8  9  2  0  0  0  0
  9 10  1  0  0  0  0
  9 29  1  0  0  0  0
 10 11  1  0  0  0  0
 10 23  1  0  0  0  0
 11 12  1  0  0  0  0
 11 30  1  0  0  0  0
 11 31  1  0  0  0  0
 12 13  1  0  0  0  0
 12 14  1  0  0  0  0
 12 32  1  0  0  0  0
 13 33  1  0  0  0  0
 14 15  1  0  0  0  0
 14 34  1  0  0  0  0
 14 35  1  0  0  0  0
 15 16  1  0  0  0  0
 16 22  1  0  0  0  0
 16 17  2  0  0  0  0
 17 18  1  0  0  0  0
 17 36  1  0  0  0  0
 18 19  2  0  0  0  0
 18 37  1  0  0  0  0
 19 20  1  0  0  0  0
 19 21  1  0  0  0  0
 21 22  2  0  0  0  0
 21 38  1  0  0  0  0
 22 39  1  0  0  0  0
M  END
> <s_m_source_file>
AV-unprocessed.smi

> <i_m_source_file_index>
2669

> <i_lp_mmshare_version>
43012

> <i_f3d_flags>
0

> <s_epik_input>
bjFbY0hdbmMoW05IXVtDSDNdKWMoYzEyKW4oW2NIXW4yKVtDSDJdW0NASF0oW09IXSlbQ0gyXU9jM1tjSF1bY0hdYyhDbClbY0hdW2NIXTM=

> <s_epik_cmdline>
J2VwaWtfcHl0aG9uJywgJy1waCcsICc3LjAnLCAnLXRuJywgJzgnLCAnLW1hJywgJzIwMCcsICctbWV0YWxfYmluZGluZycsICctaW1hZScsICc8aW5maWxlLm1hZT4nLCAnLW9tYWUnLCAnPG91dGZpbGUubWFlPic=

> <r_lp_tautomer_probability>
1

> <r_epik_Ionization_Penalty>
0.00733592

> <r_epik_Ionization_Penalty_Charging>
0

> <r_epik_Ionization_Penalty_Neutral>
0.00733592

> <r_epik_State_Penalty>
-0

> <r_epik_Charging_Adjusted_Penalty>
0

> <i_epik_Tot_Q>
0

> <i_epik_Tot_abs_Q>
0

> <r_epik_Metal_State_Penalty>
-0

> <b_epik_Metal_Only>
0

> <s_lp_Force_Field>
OPLS_2005

> <r_lp_Energy>
13.4458

> <b_lp_Chiralities_Consistent>
1

> <s_lp_Variant>
AV-unprocessed.smi:2669-2

> <Gold.Version>
5.8.1

> <Gold.Id.Protein>
6NUR|6NUR_protein|mol2

> <Gold.PLP.Fitness>
43.7372

> <Gold.PLP.PLP>
-38.8163

> <Gold.PLP.part.hbond>
-2.0000

> <Gold.PLP.part.metal>
0.0000

> <Gold.PLP.part.buried>
-5.2302

> <Gold.PLP.part.nonpolar>
-30.8442

> <Gold.PLP.part.repulsive>
0.2669

> <Gold.PLP.ligand.clash>
0.0000

> <Gold.PLP.ligand.torsion>
0.4575

> <Gold.PLP.Chemscore.Hbond>
0.9000

> <Gold.PLP.Chemscore.CHOScore>
1.0000

> <Gold.PLP.Chemscore.Metal>
0.0000

> <Gold.Chemscore.Hbonds>
donor molecule, donor type, donor heavy atom, donor atom, acceptor molecule, acceptor atom, score
      P1  H  7997  8010       L1    15  0.48

> <Gold.PLP.Chemscore.Internal.Correction>
0.1358

> <Gold.Rescore>
     Score         DG    S(hbond)    S(metal)    S(lipo)     H(rot)  DE(clash)    DE(int)     intcor
     12.82     -13.21       0.92        0.00     104.99       2.97       0.06       0.34       ----

> <Gold.Chemscore.Fitness>
12.8153

> <Gold.Chemscore.DG>
-13.2140

> <Gold.Chemscore.ZeroCoef>
-5.4800

> <Gold.Chemscore.Hbond>
0.9176

> <Gold.Chemscore.Metal>
0.0000

> <Gold.Chemscore.Lipo>
104.9926

> <Gold.Chemscore.Internal_Hbond>
0.0000

> <Gold.Chemscore.DEClash>
0.0589

> <Gold.Chemscore.DEInternal>
0.3398

> <Gold.Chemscore.Rot>
2.9746

> <Gold.Chemscore.Internal.Correction>
   9.000000E+99

> <Gold.Chemscore.Hbonds>
donor molecule, donor type, donor heavy atom, donor atom, acceptor molecule, acceptor atom, score
      P1  H  7997  8010       L1    13  0.15

> <Gold.Chemscore.Hbond.Weighted>
-3.0649

> <Gold.Chemscore.Metal.Weighted>
-0.0000

> <Gold.Chemscore.Lipo.Weighted>
-12.2841

> <Gold.Chemscore.Internal_Hbond.Weighted>
0.0000

> <Gold.Chemscore.DEClash.Weighted>
0.0589

> <Gold.Chemscore.DEInternal.Weighted>
0.3398

> <Gold.Chemscore.Rot.Weighted>
7.6150

> <Gold.Chemscore.Internal.Correction.Weighted>
   9.000000E+99

> <Gold.Protein.RotatedTorsions>
[ 6907 6896 6895 6894 ] final -106.05 input  -60.11 | X-H torsion
[ 7974 7965 7964 7962 ] final  -31.61 input  175.53 | X-H torsion
[ 8008 7997 7996 7995 ] final   62.95 input   59.86 | X-H torsion
[ 10167 10162 10161 10158 ] final  105.58 input  -65.29 | X-H torsion
[ 10718 10713 10712 10709 ] final  134.32 input   66.30 | X-H torsion
[ 10763 10752 10751 10750 ] final  -17.42 input  -60.55 | X-H torsion
[ 11005 11000 10999 10996 ] final  -64.14 input  -57.11 | X-H torsion

> <Gold.Protein.ActiveResidues>
 VAL166  LYS551  ARG553  GLY616  TRP617  ASP618  TYR619  PRO620  LYS621  CYS622 
 ASP623  PHE694  ASN695  SER759  ASP760  ASP761  ALA762  ILE779  LEU786  VAL792 
 PHE793  MET794  SER795  GLU796  ALA797  LYS798  CYS799  TRP800  GLU811  SER814 

> <Gold.Protein.RotatedAtoms>
  150.7368  134.0034  159.3645 H   0  0  0  0  0  0  0  0  0  0  0  0  # atno 6907 bound_to 6896
  151.7990  135.0712  160.0407 H   0  0  0  0  0  0  0  0  0  0  0  0  # atno 6908 bound_to 6896
  152.3154  133.5760  159.5745 H   0  0  0  0  0  0  0  0  0  0  0  0  # atno 6909 bound_to 6896
  146.1054  140.5689  142.8802 H   0  0  0  0  0  0  0  0  0  0  0  0  # atno 7974 bound_to 7965
  155.6224  140.3496  155.4656 H   0  0  0  0  0  0  0  0  0  0  0  0  # atno 8008 bound_to 7997
  156.0068  140.1225  157.0517 H   0  0  0  0  0  0  0  0  0  0  0  0  # atno 8009 bound_to 7997
  154.4267  140.1089  156.5760 H   0  0  0  0  0  0  0  0  0  0  0  0  # atno 8010 bound_to 7997
  139.7080  144.7083  151.1074 H   0  0  0  0  0  0  0  0  0  0  0  0  # atno 10167 bound_to 10162
  157.4685  131.1078  150.9832 H   0  0  0  0  0  0  0  0  0  0  0  0  # atno 10718 bound_to 10713
  153.5737  135.7007  153.5493 H   0  0  0  0  0  0  0  0  0  0  0  0  # atno 10763 bound_to 10752
  153.3322  135.4044  155.1504 H   0  0  0  0  0  0  0  0  0  0  0  0  # atno 10764 bound_to 10752
  154.8629  135.3721  154.5261 H   0  0  0  0  0  0  0  0  0  0  0  0  # atno 10765 bound_to 10752
  141.1415  133.6661  156.5787 H   0  0  0  0  0  0  0  0  0  0  0  0  # atno 11005 bound_to 11000
  144.7466  140.5084  143.6831 LP  0  0  0  0  0  0  0  0  0  0  0  0  # atno 17320 bound_to 7965
  145.5772  139.1486  143.3255 LP  0  0  0  0  0  0  0  0  0  0  0  0  # atno 17321 bound_to 7965
  140.7726  143.5332  150.9399 LP  0  0  0  0  0  0  0  0  0  0  0  0  # atno 17342 bound_to 10162
  139.9015  143.6829  152.3130 LP  0  0  0  0  0  0  0  0  0  0  0  0  # atno 17343 bound_to 10162
  157.0606  130.5824  149.5385 LP  0  0  0  0  0  0  0  0  0  0  0  0  # atno 17370 bound_to 10713
  156.0062  130.5148  150.7836 LP  0  0  0  0  0  0  0  0  0  0  0  0  # atno 17371 bound_to 10713
  140.3855  134.7486  157.4688 LP  0  0  0  0  0  0  0  0  0  0  0  0  # atno 17394 bound_to 11000
  140.0605  134.6002  155.8754 LP  0  0  0  0  0  0  0  0  0  0  0  0  # atno 17395 bound_to 11000

$$$$
