AV-unprocessed.smi:589|AV-procd|sdf|3005|dock3
  -GOLD-   2262023513D 1   1.00000     0.00000
 Structure written by MMmdl.
 40 41  0  0  0  0  0  0  0  0  1 V2000
  151.7353  144.6837  159.7899 C   0  0  0  0  0  0  0  0  0  0  0  0
  152.1889  143.2462  159.6457 C   0  0  0  0  0  0  0  0  0  0  0  0
  153.1869  142.7135  160.4807 C   0  0  0  0  0  0  0  0  0  0  0  0
  153.5701  141.3674  160.3112 C   0  0  0  0  0  0  0  0  0  0  0  0
  154.6207  140.7943  161.2512 C   0  0  0  0  0  0  0  0  0  0  0  0
  152.9434  140.5987  159.2890 C   0  0  0  0  0  0  0  0  0  0  0  0
  153.3011  139.1510  159.0600 C   0  0  0  0  0  0  0  0  0  0  0  0
  152.6581  138.2612  159.8212 N   0  0  0  0  0  0  0  0  0  0  0  0
  154.1595  138.8237  158.2425 O   0  0  0  0  0  0  0  0  0  0  0  0
  151.9345  141.2336  158.5076 C   0  0  0  0  0  0  0  0  0  0  0  0
  151.2692  140.5414  157.4803 N   0  0  0  0  0  0  0  0  0  0  0  0
  150.5493  141.4058  156.5556 C   0  0  0  0  0  0  0  0  0  0  0  0
  150.0105  140.5762  155.3742 C   0  0  2  0  0  0  0  0  0  0  0  0
  149.1513  141.4164  154.4238 C   0  0  0  0  0  0  0  0  0  0  0  0
  149.2080  139.5100  155.8783 O   0  0  0  0  0  0  0  0  0  0  0  0
  149.9379  138.6244  156.7257 C   0  0  2  0  0  0  0  0  0  0  0  0
  149.0078  137.4820  157.1460 C   0  0  0  0  0  0  0  0  0  0  0  0
  150.4683  139.4135  157.9367 C   0  0  0  0  0  0  0  0  0  0  0  0
  151.5763  142.5278  158.6855 N   0  0  0  0  0  0  0  0  0  0  0  0
  152.2517  145.1820  160.6110 H   0  0  0  0  0  0  0  0  0  0  0  0
  150.6640  144.7250  159.9880 H   0  0  0  0  0  0  0  0  0  0  0  0
  151.9374  145.2388  158.8735 H   0  0  0  0  0  0  0  0  0  0  0  0
  153.6437  143.3249  161.2451 H   0  0  0  0  0  0  0  0  0  0  0  0
  154.3115  139.8239  161.6406 H   0  0  0  0  0  0  0  0  0  0  0  0
  154.7833  141.4519  162.1058 H   0  0  0  0  0  0  0  0  0  0  0  0
  155.5735  140.6784  160.7347 H   0  0  0  0  0  0  0  0  0  0  0  0
  152.8484  137.2757  159.7138 H   0  0  0  0  0  0  0  0  0  0  0  0
  151.9798  138.5791  160.4984 H   0  0  0  0  0  0  0  0  0  0  0  0
  149.7258  141.8946  157.0781 H   0  0  0  0  0  0  0  0  0  0  0  0
  151.2140  142.1907  156.1922 H   0  0  0  0  0  0  0  0  0  0  0  0
  150.8457  140.1576  154.8097 H   0  0  0  0  0  0  0  0  0  0  0  0
  149.7247  142.2428  154.0036 H   0  0  0  0  0  0  0  0  0  0  0  0
  148.2875  141.8359  154.9401 H   0  0  0  0  0  0  0  0  0  0  0  0
  148.7826  140.8120  153.5948 H   0  0  0  0  0  0  0  0  0  0  0  0
  150.7757  138.2035  156.1664 H   0  0  0  0  0  0  0  0  0  0  0  0
  149.5260  136.7728  157.7919 H   0  0  0  0  0  0  0  0  0  0  0  0
  148.6439  136.9351  156.2759 H   0  0  0  0  0  0  0  0  0  0  0  0
  148.1411  137.8590  157.6897 H   0  0  0  0  0  0  0  0  0  0  0  0
  151.0749  138.7667  158.5719 H   0  0  0  0  0  0  0  0  0  0  0  0
  149.6348  139.7737  158.5413 H   0  0  0  0  0  0  0  0  0  0  0  0
  1  2  1  0  0  0  0
  1 20  1  0  0  0  0
  1 21  1  0  0  0  0
  1 22  1  0  0  0  0
  2 19  1  0  0  0  0
  2  3  2  0  0  0  0
  3  4  1  0  0  0  0
  3 23  1  0  0  0  0
  4  5  1  0  0  0  0
  4  6  2  0  0  0  0
  5 24  1  0  0  0  0
  5 25  1  0  0  0  0
  5 26  1  0  0  0  0
  6  7  1  0  0  0  0
  6 10  1  0  0  0  0
  7  8  1  0  0  0  0
  7  9  2  0  0  0  0
  8 27  1  0  0  0  0
  8 28  1  0  0  0  0
 10 11  1  0  0  0  0
 10 19  2  0  0  0  0
 11 18  1  0  0  0  0
 11 12  1  0  0  0  0
 12 13  1  0  0  0  0
 12 29  1  0  0  0  0
 12 30  1  0  0  0  0
 13 14  1  0  0  0  0
 13 15  1  0  0  0  0
 13 31  1  0  0  0  0
 14 32  1  0  0  0  0
 14 33  1  0  0  0  0
 14 34  1  0  0  0  0
 15 16  1  0  0  0  0
 16 17  1  0  0  0  0
 16 18  1  0  0  0  0
 16 35  1  0  0  0  0
 17 36  1  0  0  0  0
 17 37  1  0  0  0  0
 17 38  1  0  0  0  0
 18 39  1  0  0  0  0
 18 40  1  0  0  0  0
M  END
> <s_m_source_file>
AV-unprocessed.smi

> <i_m_source_file_index>
589

> <i_lp_mmshare_version>
43012

> <i_f3d_flags>
0

> <s_epik_input>
W0NIM11jMVtjSF1jKFtDSDNdKWMoQyg9TylbTkgyXSljKG4xKU4yW0NIMl1bQ0BASF0oW0NIM10pT1tDQEBIXShbQ0gzXSlbQ0gyXTI=

> <s_epik_cmdline>
J2VwaWtfcHl0aG9uJywgJy1waCcsICc3LjAnLCAnLXRuJywgJzgnLCAnLW1hJywgJzIwMCcsICctbWV0YWxfYmluZGluZycsICctaW1hZScsICc8aW5maWxlLm1hZT4nLCAnLW9tYWUnLCAnPG91dGZpbGUubWFlPic=

> <r_lp_tautomer_probability>
1

> <r_epik_Ionization_Penalty>
0.000626871

> <r_epik_Ionization_Penalty_Charging>
0

> <r_epik_Ionization_Penalty_Neutral>
0.000626871

> <r_epik_State_Penalty>
0.000395665

> <r_epik_Charging_Adjusted_Penalty>
0.000395665

> <i_epik_Tot_Q>
0

> <i_epik_Tot_abs_Q>
0

> <r_epik_Metal_State_Penalty>
-0

> <b_epik_Metal_Only>
0

> <s_lp_Force_Field>
OPLS_2005

> <r_lp_Energy>
24.7039

> <b_lp_Chiralities_Consistent>
1

> <s_lp_Variant>
AV-unprocessed.smi:589-1

> <Gold.Version>
5.8.1

> <Gold.Id.Protein>
6NUR|6NUR_protein|mol2

> <Gold.PLP.Fitness>
34.8055

> <Gold.PLP.PLP>
-34.8696

> <Gold.PLP.part.hbond>
-1.0000

> <Gold.PLP.part.metal>
0.0000

> <Gold.PLP.part.buried>
-2.9931

> <Gold.PLP.part.nonpolar>
-30.4333

> <Gold.PLP.part.repulsive>
0.1290

> <Gold.PLP.ligand.clash>
0.0000

> <Gold.PLP.ligand.torsion>
1.6991

> <Gold.PLP.Chemscore.Hbond>
1.0000

> <Gold.PLP.Chemscore.CHOScore>
0.0000

> <Gold.PLP.Chemscore.Metal>
0.0000

> <Gold.Chemscore.Hbonds>
donor molecule, donor type, donor heavy atom, donor atom, acceptor molecule, acceptor atom, score
      P1  H  7997  8009       L1     9  1.00

> <Gold.PLP.Chemscore.Internal.Correction>
0.3340

> <Gold.Rescore>
     Score         DG    S(hbond)    S(metal)    S(lipo)     H(rot)  DE(clash)    DE(int)     intcor
     14.93     -16.83       1.00        0.00      90.47       1.00       0.05       1.85       ----

> <Gold.Chemscore.Fitness>
14.9345

> <Gold.Chemscore.DG>
-16.8315

> <Gold.Chemscore.ZeroCoef>
-5.4800

> <Gold.Chemscore.Hbond>
0.9958

> <Gold.Chemscore.Metal>
0.0000

> <Gold.Chemscore.Lipo>
90.4745

> <Gold.Chemscore.Internal_Hbond>
0.0000

> <Gold.Chemscore.DEClash>
0.0494

> <Gold.Chemscore.DEInternal>
1.8475

> <Gold.Chemscore.Rot>
1.0000

> <Gold.Chemscore.Internal.Correction>
   9.000000E+99

> <Gold.Chemscore.Hbonds>
donor molecule, donor type, donor heavy atom, donor atom, acceptor molecule, acceptor atom, score
      P1  H  7997  8009       L1     9  0.97

> <Gold.Chemscore.Hbond.Weighted>
-3.3259

> <Gold.Chemscore.Metal.Weighted>
-0.0000

> <Gold.Chemscore.Lipo.Weighted>
-10.5855

> <Gold.Chemscore.Internal_Hbond.Weighted>
0.0000

> <Gold.Chemscore.DEClash.Weighted>
0.0494

> <Gold.Chemscore.DEInternal.Weighted>
1.8475

> <Gold.Chemscore.Rot.Weighted>
2.5600

> <Gold.Chemscore.Internal.Correction.Weighted>
   9.000000E+99

> <Gold.Protein.RotatedTorsions>
[ 6907 6896 6895 6894 ] final  -20.52 input  -60.11 | X-H torsion
[ 7974 7965 7964 7962 ] final   98.06 input  175.53 | X-H torsion
[ 8008 7997 7996 7995 ] final  123.74 input   59.86 | X-H torsion
[ 10167 10162 10161 10158 ] final  -39.39 input  -65.29 | X-H torsion
[ 10718 10713 10712 10709 ] final  -12.31 input   66.30 | X-H torsion
[ 10763 10752 10751 10750 ] final -151.73 input  -60.55 | X-H torsion
[ 11005 11000 10999 10996 ] final   59.87 input  -57.11 | X-H torsion

> <Gold.Protein.ActiveResidues>
 VAL166  LYS551  ARG553  GLY616  TRP617  ASP618  TYR619  PRO620  LYS621  CYS622 
 ASP623  PHE694  ASN695  SER759  ASP760  ASP761  ALA762  ILE779  LEU786  VAL792 
 PHE793  MET794  SER795  GLU796  ALA797  LYS798  CYS799  TRP800  GLU811  SER814 

> <Gold.Protein.RotatedAtoms>
  151.2470  135.0609  159.9046 H   0  0  0  0  0  0  0  0  0  0  0  0  # atno 6907 bound_to 6896
  152.5385  134.0373  159.8062 H   0  0  0  0  0  0  0  0  0  0  0  0  # atno 6908 bound_to 6896
  151.0575  133.5522  159.2668 H   0  0  0  0  0  0  0  0  0  0  0  0  # atno 6909 bound_to 6896
  145.4172  139.2326  143.3216 H   0  0  0  0  0  0  0  0  0  0  0  0  # atno 7974 bound_to 7965
  156.2777  140.2756  156.1676 H   0  0  0  0  0  0  0  0  0  0  0  0  # atno 8008 bound_to 7997
  155.0688  140.0387  157.2619 H   0  0  0  0  0  0  0  0  0  0  0  0  # atno 8009 bound_to 7997
  154.7057  140.2658  155.6683 H   0  0  0  0  0  0  0  0  0  0  0  0  # atno 8010 bound_to 7997
  140.7065  143.3217  151.2776 H   0  0  0  0  0  0  0  0  0  0  0  0  # atno 10167 bound_to 10162
  156.6464  130.4942  149.6077 H   0  0  0  0  0  0  0  0  0  0  0  0  # atno 10718 bound_to 10713
  154.8039  135.3253  154.7480 H   0  0  0  0  0  0  0  0  0  0  0  0  # atno 10763 bound_to 10752
  153.8142  135.6893  153.4841 H   0  0  0  0  0  0  0  0  0  0  0  0  # atno 10764 bound_to 10752
  153.1773  135.4600  154.9926 H   0  0  0  0  0  0  0  0  0  0  0  0  # atno 10765 bound_to 10752
  140.0272  134.6065  155.9556 H   0  0  0  0  0  0  0  0  0  0  0  0  # atno 11005 bound_to 11000
  146.2675  140.4892  142.8828 LP  0  0  0  0  0  0  0  0  0  0  0  0  # atno 17320 bound_to 7965
  144.8269  140.6643  143.6316 LP  0  0  0  0  0  0  0  0  0  0  0  0  # atno 17321 bound_to 7965
  139.6673  144.0083  152.2731 LP  0  0  0  0  0  0  0  0  0  0  0  0  # atno 17342 bound_to 10162
  139.9669  144.6520  150.8025 LP  0  0  0  0  0  0  0  0  0  0  0  0  # atno 17343 bound_to 10162
  156.2118  130.6684  151.1278 LP  0  0  0  0  0  0  0  0  0  0  0  0  # atno 17370 bound_to 10713
  157.7155  131.0712  150.6344 LP  0  0  0  0  0  0  0  0  0  0  0  0  # atno 17371 bound_to 10713
  141.1810  133.6546  156.5019 LP  0  0  0  0  0  0  0  0  0  0  0  0  # atno 17394 bound_to 11000
  140.4286  134.7122  157.4929 LP  0  0  0  0  0  0  0  0  0  0  0  0  # atno 17395 bound_to 11000

$$$$
