AV-unprocessed.smi:520|AV-procd|sdf|2797|dock3
  -GOLD-   2262023273D 1   1.00000     0.00000
 Structure written by MMmdl.
 39 41  0  0  0  0  0  0  0  0  1 V2000
  152.9288  142.0965  161.2817 C   0  0  0  0  0  0  0  0  0  0  0  0
  152.3678  143.0313  160.2265 C   0  0  0  0  0  0  0  0  0  0  0  0
  152.2477  144.4082  160.5093 C   0  0  0  0  0  0  0  0  0  0  0  0
  151.7278  145.2879  159.5430 C   0  0  0  0  0  0  0  0  0  0  0  0
  151.3272  144.7927  158.2894 C   0  0  0  0  0  0  0  0  0  0  0  0
  151.4456  143.4196  158.0017 C   0  0  0  0  0  0  0  0  0  0  0  0
  151.9667  142.5220  158.9691 C   0  0  0  0  0  0  0  0  0  0  0  0
  152.1091  141.1658  158.7574 O   0  0  0  0  0  0  0  0  0  0  0  0
  151.2000  140.5191  157.8784 C   0  0  0  0  0  0  0  0  0  0  0  0
  151.5977  140.8527  156.4359 C   0  0  0  0  0  0  0  0  0  0  0  0
  150.7558  140.1573  155.4758 N   0  0  0  0  0  0  0  0  0  0  0  0
  151.0383  139.0294  154.7767 C   0  0  0  0  0  0  0  0  0  0  0  0
  152.3578  138.3271  154.9289 C   0  0  0  0  0  0  0  0  0  0  0  0
  153.4801  139.1566  154.7050 O   0  0  0  0  0  0  0  0  0  0  0  0
  150.0750  138.6046  153.9553 N   0  0  0  0  0  0  0  0  0  0  0  0
  149.0751  139.5377  154.1472 C   0  0  0  0  0  0  0  0  0  0  0  0
  147.7907  139.6405  153.5667 C   0  0  0  0  0  0  0  0  0  0  0  0
  146.9277  140.6966  153.9260 C   0  0  0  0  0  0  0  0  0  0  0  0
  147.3356  141.6629  154.8684 C   0  0  0  0  0  0  0  0  0  0  0  0
  148.6119  141.5796  155.4577 C   0  0  0  0  0  0  0  0  0  0  0  0
  149.4693  140.5236  155.0950 C   0  0  0  0  0  0  0  0  0  0  0  0
  153.2270  142.6394  162.1792 H   0  0  0  0  0  0  0  0  0  0  0  0
  153.8042  141.5722  160.8975 H   0  0  0  0  0  0  0  0  0  0  0  0
  152.1813  141.3557  161.5661 H   0  0  0  0  0  0  0  0  0  0  0  0
  152.5542  144.7958  161.4698 H   0  0  0  0  0  0  0  0  0  0  0  0
  151.6368  146.3415  159.7632 H   0  0  0  0  0  0  0  0  0  0  0  0
  150.9280  145.4667  157.5460 H   0  0  0  0  0  0  0  0  0  0  0  0
  151.1280  143.0802  157.0276 H   0  0  0  0  0  0  0  0  0  0  0  0
  151.2316  139.4394  158.0322 H   0  0  0  0  0  0  0  0  0  0  0  0
  150.1816  140.8622  158.0683 H   0  0  0  0  0  0  0  0  0  0  0  0
  151.5112  141.9257  156.2612 H   0  0  0  0  0  0  0  0  0  0  0  0
  152.6420  140.5967  156.2569 H   0  0  0  0  0  0  0  0  0  0  0  0
  152.4240  137.9139  155.9357 H   0  0  0  0  0  0  0  0  0  0  0  0
  152.4067  137.4930  154.2286 H   0  0  0  0  0  0  0  0  0  0  0  0
  153.3078  139.6972  153.9497 H   0  0  0  0  0  0  0  0  0  0  0  0
  147.4689  138.9048  152.8445 H   0  0  0  0  0  0  0  0  0  0  0  0
  145.9478  140.7653  153.4766 H   0  0  0  0  0  0  0  0  0  0  0  0
  146.6680  142.4679  155.1390 H   0  0  0  0  0  0  0  0  0  0  0  0
  148.9273  142.3176  156.1802 H   0  0  0  0  0  0  0  0  0  0  0  0
  1  2  1  0  0  0  0
  1 22  1  0  0  0  0
  1 23  1  0  0  0  0
  1 24  1  0  0  0  0
  2  7  1  0  0  0  0
  2  3  2  0  0  0  0
  3  4  1  0  0  0  0
  3 25  1  0  0  0  0
  4  5  2  0  0  0  0
  4 26  1  0  0  0  0
  5  6  1  0  0  0  0
  5 27  1  0  0  0  0
  6  7  2  0  0  0  0
  6 28  1  0  0  0  0
  7  8  1  0  0  0  0
  8  9  1  0  0  0  0
  9 10  1  0  0  0  0
  9 29  1  0  0  0  0
  9 30  1  0  0  0  0
 10 11  1  0  0  0  0
 10 31  1  0  0  0  0
 10 32  1  0  0  0  0
 11 21  1  0  0  0  0
 11 12  1  0  0  0  0
 12 13  1  0  0  0  0
 12 15  2  0  0  0  0
 13 14  1  0  0  0  0
 13 33  1  0  0  0  0
 13 34  1  0  0  0  0
 14 35  1  0  0  0  0
 15 16  1  0  0  0  0
 16 21  2  0  0  0  0
 16 17  1  0  0  0  0
 17 18  2  0  0  0  0
 17 36  1  0  0  0  0
 18 19  1  0  0  0  0
 18 37  1  0  0  0  0
 19 20  2  0  0  0  0
 19 38  1  0  0  0  0
 20 21  1  0  0  0  0
 20 39  1  0  0  0  0
M  END
> <s_m_source_file>
AV-unprocessed.smi

> <i_m_source_file_index>
520

> <i_lp_mmshare_version>
43012

> <i_f3d_flags>
0

> <s_epik_input>
W0NIM11jMVtjSF1bY0hdW2NIXVtjSF1jMU9bQ0gyXVtDSDJdbihjKG4yKVtDSDJdW09IXSljKGMyMylbY0hdW2NIXVtjSF1bY0hdMw==

> <s_epik_cmdline>
J2VwaWtfcHl0aG9uJywgJy1waCcsICc3LjAnLCAnLXRuJywgJzgnLCAnLW1hJywgJzIwMCcsICctbWV0YWxfYmluZGluZycsICctaW1hZScsICc8aW5maWxlLm1hZT4nLCAnLW9tYWUnLCAnPG91dGZpbGUubWFlPic=

> <r_lp_tautomer_probability>
1

> <r_epik_Ionization_Penalty>
0.048627

> <r_epik_Ionization_Penalty_Charging>
0

> <r_epik_Ionization_Penalty_Neutral>
0.048627

> <r_epik_State_Penalty>
0.0414172

> <r_epik_Charging_Adjusted_Penalty>
0.0414172

> <i_epik_Tot_Q>
0

> <i_epik_Tot_abs_Q>
0

> <r_epik_Metal_State_Penalty>
4.28976e-05

> <b_epik_Metal_Only>
0

> <s_lp_Force_Field>
OPLS_2005

> <r_lp_Energy>
16.3375

> <b_lp_Chiralities_Consistent>
1

> <s_lp_Variant>
AV-unprocessed.smi:520-1

> <Gold.Version>
5.8.1

> <Gold.Id.Protein>
6NUR|6NUR_protein|mol2

> <Gold.PLP.Fitness>
51.6136

> <Gold.PLP.PLP>
-50.0145

> <Gold.PLP.part.hbond>
-1.1139

> <Gold.PLP.part.metal>
0.0000

> <Gold.PLP.part.buried>
-3.2178

> <Gold.PLP.part.nonpolar>
-46.3730

> <Gold.PLP.part.repulsive>
0.3102

> <Gold.PLP.ligand.clash>
0.0000

> <Gold.PLP.ligand.torsion>
0.7402

> <Gold.PLP.Chemscore.Hbond>
1.0000

> <Gold.PLP.Chemscore.CHOScore>
0.0000

> <Gold.PLP.Chemscore.Metal>
0.0000

> <Gold.Chemscore.Hbonds>
donor molecule, donor type, donor heavy atom, donor atom, acceptor molecule, acceptor atom, score
      P1  H  7997  8008       L1    14  1.00

> <Gold.PLP.Chemscore.Internal.Correction>
0.0795

> <Gold.Rescore>
     Score         DG    S(hbond)    S(metal)    S(lipo)     H(rot)  DE(clash)    DE(int)     intcor
     17.89     -18.85       0.92        0.00     135.21       2.15       0.25       0.72       ----

> <Gold.Chemscore.Fitness>
17.8888

> <Gold.Chemscore.DG>
-18.8526

> <Gold.Chemscore.ZeroCoef>
-5.4800

> <Gold.Chemscore.Hbond>
0.9153

> <Gold.Chemscore.Metal>
0.0000

> <Gold.Chemscore.Lipo>
135.2066

> <Gold.Chemscore.Internal_Hbond>
0.0000

> <Gold.Chemscore.DEClash>
0.2461

> <Gold.Chemscore.DEInternal>
0.7176

> <Gold.Chemscore.Rot>
2.1499

> <Gold.Chemscore.Internal.Correction>
   9.000000E+99

> <Gold.Chemscore.Hbonds>
donor molecule, donor type, donor heavy atom, donor atom, acceptor molecule, acceptor atom, score
      P1  H  7997  8008       L1    14  0.59

> <Gold.Chemscore.Hbond.Weighted>
-3.0572

> <Gold.Chemscore.Metal.Weighted>
-0.0000

> <Gold.Chemscore.Lipo.Weighted>
-15.8192

> <Gold.Chemscore.Internal_Hbond.Weighted>
0.0000

> <Gold.Chemscore.DEClash.Weighted>
0.2461

> <Gold.Chemscore.DEInternal.Weighted>
0.7176

> <Gold.Chemscore.Rot.Weighted>
5.5038

> <Gold.Chemscore.Internal.Correction.Weighted>
   9.000000E+99

> <Gold.Protein.RotatedTorsions>
[ 6907 6896 6895 6894 ] final  106.97 input  -60.11 | X-H torsion
[ 7974 7965 7964 7962 ] final -159.74 input  175.53 | X-H torsion
[ 8008 7997 7996 7995 ] final  -16.60 input   59.86 | X-H torsion
[ 10167 10162 10161 10158 ] final  -44.52 input  -65.29 | X-H torsion
[ 10718 10713 10712 10709 ] final   67.45 input   66.30 | X-H torsion
[ 10763 10752 10751 10750 ] final   17.23 input  -60.55 | X-H torsion
[ 11005 11000 10999 10996 ] final   53.95 input  -57.11 | X-H torsion

> <Gold.Protein.ActiveResidues>
 VAL166  LYS551  ARG553  GLY616  TRP617  ASP618  TYR619  PRO620  LYS621  CYS622 
 ASP623  PHE694  ASN695  SER759  ASP760  ASP761  ALA762  ILE779  LEU786  VAL792 
 PHE793  MET794  SER795  GLU796  ALA797  LYS798  CYS799  TRP800  GLU811  SER814 

> <Gold.Protein.RotatedAtoms>
  152.5173  133.9303  159.7577 H   0  0  0  0  0  0  0  0  0  0  0  0  # atno 6907 bound_to 6896
  150.9655  133.6391  159.2754 H   0  0  0  0  0  0  0  0  0  0  0  0  # atno 6908 bound_to 6896
  151.3621  135.0911  159.9490 H   0  0  0  0  0  0  0  0  0  0  0  0  # atno 6909 bound_to 6896
  144.7453  140.3641  143.6090 H   0  0  0  0  0  0  0  0  0  0  0  0  # atno 7974 bound_to 7965
  154.5040  140.2165  155.9288 H   0  0  0  0  0  0  0  0  0  0  0  0  # atno 8008 bound_to 7997
  156.1471  140.3168  155.8554 H   0  0  0  0  0  0  0  0  0  0  0  0  # atno 8009 bound_to 7997
  155.4011  140.0484  157.3027 H   0  0  0  0  0  0  0  0  0  0  0  0  # atno 8010 bound_to 7997
  140.6894  143.2926  151.3507 H   0  0  0  0  0  0  0  0  0  0  0  0  # atno 10167 bound_to 10162
  157.6231  130.9321  150.0244 H   0  0  0  0  0  0  0  0  0  0  0  0  # atno 10718 bound_to 10713
  153.1358  135.6750  153.9105 H   0  0  0  0  0  0  0  0  0  0  0  0  # atno 10763 bound_to 10752
  153.8577  135.3085  155.3437 H   0  0  0  0  0  0  0  0  0  0  0  0  # atno 10764 bound_to 10752
  154.7746  135.4921  153.9801 H   0  0  0  0  0  0  0  0  0  0  0  0  # atno 10765 bound_to 10752
  140.0725  134.5450  155.9031 H   0  0  0  0  0  0  0  0  0  0  0  0  # atno 11005 bound_to 11000
  145.7146  139.1693  143.2519 LP  0  0  0  0  0  0  0  0  0  0  0  0  # atno 17320 bound_to 7965
  146.1322  140.7171  142.9407 LP  0  0  0  0  0  0  0  0  0  0  0  0  # atno 17321 bound_to 7965
  139.6281  144.0774  152.2452 LP  0  0  0  0  0  0  0  0  0  0  0  0  # atno 17342 bound_to 10162
  140.0240  144.6132  150.7543 LP  0  0  0  0  0  0  0  0  0  0  0  0  # atno 17343 bound_to 10162
  156.1387  130.3642  149.9616 LP  0  0  0  0  0  0  0  0  0  0  0  0  # atno 17370 bound_to 10713
  156.7661  130.9169  151.3643 LP  0  0  0  0  0  0  0  0  0  0  0  0  # atno 17371 bound_to 10713
  141.2017  133.6620  156.5966 LP  0  0  0  0  0  0  0  0  0  0  0  0  # atno 17394 bound_to 11000
  140.3606  134.7691  157.4531 LP  0  0  0  0  0  0  0  0  0  0  0  0  # atno 17395 bound_to 11000

$$$$
