AV-unprocessed.smi:3338|AV-procd|sdf|12870|dock9
  -GOLD-   2272019273D 1   1.00000     0.00000
 Structure written by MMmdl.
 44 45  0  0  0  0  0  0  0  0  2 V2000
  145.7439  136.1899  153.0356 C   0  0  0  0  0  0  0  0  0  0  0  0
  145.6017  134.8004  153.6809 C   0  0  1  0  0  0  0  0  0  0  0  0
  145.1057  133.7292  152.6919 C   0  0  0  0  0  0  0  0  0  0  0  0
  146.2138  133.3194  151.7115 C   0  0  0  0  0  0  0  0  0  0  0  0
  147.4867  132.8975  152.4621 C   0  0  0  0  0  0  0  0  0  0  0  0
  147.9518  133.9745  153.3736 N   0  3  2  0  0  0  0  0  0  0  0  0
  149.2617  133.6603  153.9967 C   0  0  0  0  0  0  0  0  0  0  0  0
  149.6332  134.6606  155.1032 C   0  0  0  0  0  0  0  0  0  0  0  0
  150.0506  135.9274  154.5194 N   0  0  0  0  0  0  0  0  0  0  0  0
  150.6257  136.9325  155.1968 C   0  0  0  0  0  0  0  0  0  0  0  0
  150.8803  136.8696  156.4003 O   0  0  0  0  0  0  0  0  0  0  0  0
  150.9587  138.1926  154.3811 C   0  0  2  0  0  0  0  0  0  0  0  0
  152.4508  138.5732  154.4356 C   0  0  0  0  0  0  0  0  0  0  0  0
  150.1145  139.3035  154.8039 N   0  0  0  0  0  0  0  0  0  0  0  0
  149.0248  139.2908  155.6532 C   0  0  0  0  0  0  0  0  0  0  0  0
  148.5405  140.5657  155.7167 C   0  0  0  0  0  0  0  0  0  0  0  0
  149.4047  141.2985  154.8568 C   0  0  0  0  0  0  0  0  0  0  0  0
  150.3397  140.5406  154.3075 N   0  0  0  0  0  0  0  0  0  0  0  0
  146.9052  134.3418  154.3662 C   0  0  0  0  0  0  0  0  0  0  0  0
  146.5109  136.2038  152.2615 H   0  0  0  0  0  0  0  0  0  0  0  0
  146.0152  136.9393  153.7795 H   0  0  0  0  0  0  0  0  0  0  0  0
  144.8061  136.5081  152.5792 H   0  0  0  0  0  0  0  0  0  0  0  0
  144.8419  134.9003  154.4573 H   0  0  0  0  0  0  0  0  0  0  0  0
  144.7822  132.8492  153.2496 H   0  0  0  0  0  0  0  0  0  0  0  0
  144.2297  134.0845  152.1482 H   0  0  0  0  0  0  0  0  0  0  0  0
  145.8663  132.5001  151.0813 H   0  0  0  0  0  0  0  0  0  0  0  0
  146.4406  134.1463  151.0380 H   0  0  0  0  0  0  0  0  0  0  0  0
  147.3049  131.9861  153.0341 H   0  0  0  0  0  0  0  0  0  0  0  0
  148.2654  132.6659  151.7345 H   0  0  0  0  0  0  0  0  0  0  0  0
  149.2561  132.6378  154.3781 H   0  0  0  0  0  0  0  0  0  0  0  0
  150.0422  133.6996  153.2353 H   0  0  0  0  0  0  0  0  0  0  0  0
  148.7749  134.8138  155.7598 H   0  0  0  0  0  0  0  0  0  0  0  0
  150.4487  134.2857  155.7212 H   0  0  0  0  0  0  0  0  0  0  0  0
  149.8786  136.0611  153.5327 H   0  0  0  0  0  0  0  0  0  0  0  0
  150.7223  137.9666  153.3394 H   0  0  0  0  0  0  0  0  0  0  0  0
  153.0795  137.7589  154.0734 H   0  0  0  0  0  0  0  0  0  0  0  0
  152.7729  138.8163  155.4488 H   0  0  0  0  0  0  0  0  0  0  0  0
  152.6520  139.4422  153.8085 H   0  0  0  0  0  0  0  0  0  0  0  0
  148.6873  138.3851  156.1350 H   0  0  0  0  0  0  0  0  0  0  0  0
  147.6960  140.9204  156.2886 H   0  0  0  0  0  0  0  0  0  0  0  0
  149.3781  142.3504  154.6138 H   0  0  0  0  0  0  0  0  0  0  0  0
  147.2617  135.1321  155.0263 H   0  0  0  0  0  0  0  0  0  0  0  0
  146.7017  133.4789  155.0022 H   0  0  0  0  0  0  0  0  0  0  0  0
  148.1022  134.7858  152.7911 H   0  0  0  0  0  0  0  0  0  0  0  0
  1  2  1  0  0  0  0
  1 20  1  0  0  0  0
  1 21  1  0  0  0  0
  1 22  1  0  0  0  0
  2 19  1  0  0  0  0
  2  3  1  0  0  0  0
  2 23  1  0  0  0  0
  3  4  1  0  0  0  0
  3 24  1  0  0  0  0
  3 25  1  0  0  0  0
  4  5  1  0  0  0  0
  4 26  1  0  0  0  0
  4 27  1  0  0  0  0
  5  6  1  0  0  0  0
  5 28  1  0  0  0  0
  5 29  1  0  0  0  0
  6  7  1  0  0  0  0
  6 19  1  0  0  0  0
  6 44  1  0  0  0  0
  7  8  1  0  0  0  0
  7 30  1  0  0  0  0
  7 31  1  0  0  0  0
  8  9  1  0  0  0  0
  8 32  1  0  0  0  0
  8 33  1  0  0  0  0
  9 10  1  0  0  0  0
  9 34  1  0  0  0  0
 10 11  2  0  0  0  0
 10 12  1  0  0  0  0
 12 13  1  0  0  0  0
 12 14  1  0  0  0  0
 12 35  1  0  0  0  0
 13 36  1  0  0  0  0
 13 37  1  0  0  0  0
 13 38  1  0  0  0  0
 14 18  1  0  0  0  0
 14 15  1  0  0  0  0
 15 16  2  0  0  0  0
 15 39  1  0  0  0  0
 16 17  1  0  0  0  0
 16 40  1  0  0  0  0
 17 18  2  0  0  0  0
 17 41  1  0  0  0  0
 19 42  1  0  0  0  0
 19 43  1  0  0  0  0
M  CHG  1   6   1
M  END
> <s_m_source_file>
AV-unprocessed.smi

> <i_m_source_file_index>
3338

> <i_lp_mmshare_version>
43012

> <i_f3d_flags>
0

> <s_epik_input>
W0NIM11bQ0BASF0xW0NIMl1bQ0gyXVtDSDJdTihbQ0gyXTEpW0NIMl1bQ0gyXVtOSF1DKD1PKVtDQEhdKFtDSDNdKW4yW2NIXVtjSF1bY0hdbjI=

> <s_epik_cmdline>
J2VwaWtfcHl0aG9uJywgJy1waCcsICc3LjAnLCAnLXRuJywgJzgnLCAnLW1hJywgJzIwMCcsICctbWV0YWxfYmluZGluZycsICctaW1hZScsICc8aW5maWxlLm1hZT4nLCAnLW9tYWUnLCAnPG91dGZpbGUubWFlPic=

> <r_lp_tautomer_probability>
1

> <r_epik_Ionization_Penalty>
0.00225707

> <r_epik_Ionization_Penalty_Charging>
0.00223709

> <r_epik_Ionization_Penalty_Neutral>
1.99775e-05

> <r_epik_State_Penalty>
0.00153978

> <r_epik_Charging_Adjusted_Penalty>
0.00377687

> <i_epik_Tot_Q>
1

> <i_epik_Tot_abs_Q>
1

> <r_epik_Metal_State_Penalty>
-0

> <b_epik_Metal_Only>
0

> <s_lp_Force_Field>
OPLS_2005

> <r_lp_Energy>
22.9717

> <b_lp_Chiralities_Consistent>
1

> <s_lp_Variant>
AV-unprocessed.smi:3338-2

> <Gold.Version>
5.8.1

> <Gold.Id.Protein>
6NUR|6NUR_protein|mol2

> <Gold.PLP.Fitness>
43.5014

> <Gold.PLP.PLP>
-30.5597

> <Gold.PLP.part.hbond>
-3.1287

> <Gold.PLP.part.metal>
0.0000

> <Gold.PLP.part.buried>
-3.0266

> <Gold.PLP.part.nonpolar>
-24.5729

> <Gold.PLP.part.repulsive>
0.1790

> <Gold.PLP.ligand.clash>
0.0000

> <Gold.PLP.ligand.torsion>
0.4950

> <Gold.PLP.Chemscore.Hbond>
3.6440

> <Gold.PLP.Chemscore.CHOScore>
0.9550

> <Gold.PLP.Chemscore.Metal>
0.0000

> <Gold.Chemscore.Hbonds>
donor molecule, donor type, donor heavy atom, donor atom, acceptor molecule, acceptor atom, score
      L1  H     6    44       P1  7948  2.00
      L1  H     9    34       P1  7948  0.75
      P1  H  7989  7998       L1    18  0.90
      L1  C    17    41       P1  8028  0.77

> <Gold.PLP.Chemscore.Internal.Correction>
0.1346

> <Gold.Rescore>
     Score         DG    S(hbond)    S(metal)    S(lipo)     H(rot)  DE(clash)    DE(int)     intcor
     15.64     -16.56       2.55        0.00      60.33       1.76       0.05       0.87       ----

> <Gold.Chemscore.Fitness>
15.6398

> <Gold.Chemscore.DG>
-16.5572

> <Gold.Chemscore.ZeroCoef>
-5.4800

> <Gold.Chemscore.Hbond>
2.5497

> <Gold.Chemscore.Metal>
0.0000

> <Gold.Chemscore.Lipo>
60.3336

> <Gold.Chemscore.Internal_Hbond>
0.0000

> <Gold.Chemscore.DEClash>
0.0477

> <Gold.Chemscore.DEInternal>
0.8696

> <Gold.Chemscore.Rot>
1.7570

> <Gold.Chemscore.Internal.Correction>
   9.000000E+99

> <Gold.Chemscore.Hbonds>
donor molecule, donor type, donor heavy atom, donor atom, acceptor molecule, acceptor atom, score
      L1  H     6    44       P1  7948  0.74
      L1  H     9    34       P1  7948  0.09
      P1  H  7989  7998       L1    18  0.83

> <Gold.Chemscore.Hbond.Weighted>
-8.5160

> <Gold.Chemscore.Metal.Weighted>
-0.0000

> <Gold.Chemscore.Lipo.Weighted>
-7.0590

> <Gold.Chemscore.Internal_Hbond.Weighted>
0.0000

> <Gold.Chemscore.DEClash.Weighted>
0.0477

> <Gold.Chemscore.DEInternal.Weighted>
0.8696

> <Gold.Chemscore.Rot.Weighted>
4.4979

> <Gold.Chemscore.Internal.Correction.Weighted>
   9.000000E+99

> <Gold.Protein.RotatedTorsions>
[ 6907 6896 6895 6894 ] final   99.39 input  -60.11 | X-H torsion
[ 7974 7965 7964 7962 ] final  164.73 input  175.53 | X-H torsion
[ 8008 7997 7996 7995 ] final   52.74 input   59.86 | X-H torsion
[ 10167 10162 10161 10158 ] final   26.78 input  -65.29 | X-H torsion
[ 10718 10713 10712 10709 ] final  154.50 input   66.30 | X-H torsion
[ 10763 10752 10751 10750 ] final  -98.88 input  -60.55 | X-H torsion
[ 11005 11000 10999 10996 ] final  145.33 input  -57.11 | X-H torsion

> <Gold.Protein.ActiveResidues>
 VAL166  LYS551  ARG553  GLY616  TRP617  ASP618  TYR619  PRO620  LYS621  CYS622 
 ASP623  PHE694  ASN695  SER759  ASP760  ASP761  ALA762  ILE779  LEU786  VAL792 
 PHE793  MET794  SER795  GLU796  ALA797  LYS798  CYS799  TRP800  GLU811  SER814 

> <Gold.Protein.RotatedAtoms>
  152.5393  134.0435  159.8077 H   0  0  0  0  0  0  0  0  0  0  0  0  # atno 6907 bound_to 6896
  151.0587  133.5554  159.2643 H   0  0  0  0  0  0  0  0  0  0  0  0  # atno 6908 bound_to 6896
  151.2461  135.0614  159.9098 H   0  0  0  0  0  0  0  0  0  0  0  0  # atno 6909 bound_to 6896
  144.7533  139.8367  143.6359 H   0  0  0  0  0  0  0  0  0  0  0  0  # atno 7974 bound_to 7965
  155.4569  140.3460  155.4307 H   0  0  0  0  0  0  0  0  0  0  0  0  # atno 8008 bound_to 7997
  156.1185  140.1480  156.9267 H   0  0  0  0  0  0  0  0  0  0  0  0  # atno 8009 bound_to 7997
  154.4806  140.0871  156.7348 H   0  0  0  0  0  0  0  0  0  0  0  0  # atno 8010 bound_to 7997
  140.4994  144.0339  150.6327 H   0  0  0  0  0  0  0  0  0  0  0  0  # atno 10167 bound_to 10162
  157.2308  131.0738  151.1854 H   0  0  0  0  0  0  0  0  0  0  0  0  # atno 10718 bound_to 10713
  154.7451  135.4993  153.9191 H   0  0  0  0  0  0  0  0  0  0  0  0  # atno 10763 bound_to 10752
  153.1084  135.6703  153.9553 H   0  0  0  0  0  0  0  0  0  0  0  0  # atno 10764 bound_to 10752
  153.9319  135.3077  155.3424 H   0  0  0  0  0  0  0  0  0  0  0  0  # atno 10765 bound_to 10752
  140.0703  134.9155  157.1334 H   0  0  0  0  0  0  0  0  0  0  0  0  # atno 11005 bound_to 11000
  146.1511  139.4594  143.0048 LP  0  0  0  0  0  0  0  0  0  0  0  0  # atno 17320 bound_to 7965
  145.6868  141.0175  143.1577 LP  0  0  0  0  0  0  0  0  0  0  0  0  # atno 17321 bound_to 7965
  140.3631  143.2897  152.0362 LP  0  0  0  0  0  0  0  0  0  0  0  0  # atno 17342 bound_to 10162
  139.4868  144.6288  151.7112 LP  0  0  0  0  0  0  0  0  0  0  0  0  # atno 17343 bound_to 10162
  157.3480  130.7067  149.6422 LP  0  0  0  0  0  0  0  0  0  0  0  0  # atno 17370 bound_to 10713
  155.9675  130.4261  150.4683 LP  0  0  0  0  0  0  0  0  0  0  0  0  # atno 17371 bound_to 10713
  140.3637  134.2466  155.7184 LP  0  0  0  0  0  0  0  0  0  0  0  0  # atno 17394 bound_to 11000
  141.2009  133.7975  157.0466 LP  0  0  0  0  0  0  0  0  0  0  0  0  # atno 17395 bound_to 11000

$$$$
