AV-unprocessed.smi:609|AV-procd|sdf|3046|dock2
  -GOLD-   2262023563D 1   1.00000     0.00000
 Structure written by MMmdl.
 43 45  0  0  0  0  0  0  0  0  2 V2000
  153.8723  142.7510  163.6817 C   0  0  0  0  0  0  0  0  0  0  0  0
  153.2660  142.8381  162.2922 C   0  0  0  0  0  0  0  0  0  0  0  0
  152.3352  143.8637  162.0121 C   0  0  0  0  0  0  0  0  0  0  0  0
  151.7496  143.9810  160.7326 C   0  0  0  0  0  0  0  0  0  0  0  0
  150.8261  144.8903  160.2460 N   0  0  0  0  0  0  0  0  0  0  0  0
  150.6742  144.4743  158.9919 C   0  0  0  0  0  0  0  0  0  0  0  0
  151.3882  143.3985  158.6092 N   0  0  0  0  0  0  0  0  0  0  0  0
  151.3770  142.7631  157.3038 C   0  0  0  0  0  0  0  0  0  0  0  0
  150.4183  141.5575  157.2352 C   0  0  1  0  0  0  0  0  0  0  0  0
  149.1162  142.0247  157.5228 O   0  0  0  0  0  0  0  0  0  0  0  0
  150.4139  140.8477  155.8677 C   0  0  0  0  0  0  0  0  0  0  0  0
  149.4463  141.7418  154.6198 S   0  0  0  0  0  0  0  0  0  0  0  0
  148.2605  140.5741  154.0259 C   0  0  0  0  0  0  0  0  0  0  0  0
  148.5200  139.3175  153.6514 N   0  3  0  0  0  0  0  0  0  0  0  0
  147.3634  138.7041  153.2506 C   0  0  0  0  0  0  0  0  0  0  0  0
  146.3609  139.6315  153.3889 C   0  0  0  0  0  0  0  0  0  0  0  0
  146.9448  140.7760  153.8700 N   0  0  0  0  0  0  0  0  0  0  0  0
  146.2806  142.0426  154.1810 C   0  0  0  0  0  0  0  0  0  0  0  0
  152.1243  143.0368  159.7328 C   0  0  0  0  0  0  0  0  0  0  0  0
  153.0498  142.0119  159.9990 C   0  0  0  0  0  0  0  0  0  0  0  0
  153.6244  141.9085  161.2831 C   0  0  0  0  0  0  0  0  0  0  0  0
  154.6231  140.7991  161.5607 C   0  0  0  0  0  0  0  0  0  0  0  0
  153.5117  143.5545  164.3245 H   0  0  0  0  0  0  0  0  0  0  0  0
  154.9587  142.8275  163.6306 H   0  0  0  0  0  0  0  0  0  0  0  0
  153.6130  141.8029  164.1532 H   0  0  0  0  0  0  0  0  0  0  0  0
  152.0620  144.5719  162.7805 H   0  0  0  0  0  0  0  0  0  0  0  0
  150.0011  144.9772  158.3129 H   0  0  0  0  0  0  0  0  0  0  0  0
  151.0961  143.5118  156.5615 H   0  0  0  0  0  0  0  0  0  0  0  0
  152.3950  142.4543  157.0622 H   0  0  0  0  0  0  0  0  0  0  0  0
  150.6953  140.8401  158.0089 H   0  0  0  0  0  0  0  0  0  0  0  0
  149.1162  142.9683  157.4667 H   0  0  0  0  0  0  0  0  0  0  0  0
  151.4332  140.7180  155.5019 H   0  0  0  0  0  0  0  0  0  0  0  0
  149.9776  139.8533  155.9594 H   0  0  0  0  0  0  0  0  0  0  0  0
  147.3405  137.6805  152.9058 H   0  0  0  0  0  0  0  0  0  0  0  0
  145.3020  139.5618  153.1857 H   0  0  0  0  0  0  0  0  0  0  0  0
  145.2117  141.9527  153.9860 H   0  0  0  0  0  0  0  0  0  0  0  0
  146.6976  142.8320  153.5550 H   0  0  0  0  0  0  0  0  0  0  0  0
  146.4371  142.2829  155.2329 H   0  0  0  0  0  0  0  0  0  0  0  0
  153.3144  141.3113  159.2210 H   0  0  0  0  0  0  0  0  0  0  0  0
  154.7753  140.1711  160.6824 H   0  0  0  0  0  0  0  0  0  0  0  0
  154.2712  140.1613  162.3715 H   0  0  0  0  0  0  0  0  0  0  0  0
  155.5893  141.2177  161.8433 H   0  0  0  0  0  0  0  0  0  0  0  0
  149.4356  138.8866  153.6642 H   0  0  0  0  0  0  0  0  0  0  0  0
  1  2  1  0  0  0  0
  1 23  1  0  0  0  0
  1 24  1  0  0  0  0
  1 25  1  0  0  0  0
  2 21  1  0  0  0  0
  2  3  2  0  0  0  0
  3  4  1  0  0  0  0
  3 26  1  0  0  0  0
  4 19  2  0  0  0  0
  4  5  1  0  0  0  0
  5  6  2  0  0  0  0
  6  7  1  0  0  0  0
  6 27  1  0  0  0  0
  7  8  1  0  0  0  0
  7 19  1  0  0  0  0
  8  9  1  0  0  0  0
  8 28  1  0  0  0  0
  8 29  1  0  0  0  0
  9 10  1  0  0  0  0
  9 11  1  0  0  0  0
  9 30  1  0  0  0  0
 10 31  1  0  0  0  0
 11 12  1  0  0  0  0
 11 32  1  0  0  0  0
 11 33  1  0  0  0  0
 12 13  1  0  0  0  0
 13 17  1  0  0  0  0
 13 14  2  0  0  0  0
 14 15  1  0  0  0  0
 14 43  1  0  0  0  0
 15 16  2  0  0  0  0
 15 34  1  0  0  0  0
 16 17  1  0  0  0  0
 16 35  1  0  0  0  0
 17 18  1  0  0  0  0
 18 36  1  0  0  0  0
 18 37  1  0  0  0  0
 18 38  1  0  0  0  0
 19 20  1  0  0  0  0
 20 21  2  0  0  0  0
 20 39  1  0  0  0  0
 21 22  1  0  0  0  0
 22 40  1  0  0  0  0
 22 41  1  0  0  0  0
 22 42  1  0  0  0  0
M  CHG  1  14   1
M  END
> <s_m_source_file>
AV-unprocessed.smi

> <i_m_source_file_index>
609

> <i_lp_mmshare_version>
43012

> <i_f3d_flags>
0

> <s_epik_input>
W0NIM11jKFtjSF0xKWMoW0NIM10pW2NIXWMoYzEyKW4oW2NIXW4yKVtDSDJdW0NASF0oW09IXSlbQ0gyXVNjM25bY0hdW2NIXW4zW0NIM10=

> <s_epik_cmdline>
J2VwaWtfcHl0aG9uJywgJy1waCcsICc3LjAnLCAnLXRuJywgJzgnLCAnLW1hJywgJzIwMCcsICctbWV0YWxfYmluZGluZycsICctaW1hZScsICc8aW5maWxlLm1hZT4nLCAnLW9tYWUnLCAnPG91dGZpbGUubWFlPic=

> <r_lp_tautomer_probability>
1

> <r_epik_Ionization_Penalty>
0.215713

> <r_epik_Ionization_Penalty_Charging>
0

> <r_epik_Ionization_Penalty_Neutral>
0.215713

> <r_epik_State_Penalty>
0.19579

> <r_epik_Charging_Adjusted_Penalty>
0.19579

> <i_epik_Tot_Q>
1

> <i_epik_Tot_abs_Q>
1

> <r_epik_Metal_State_Penalty>
0.429751

> <b_epik_Metal_Only>
0

> <s_lp_Force_Field>
OPLS_2005

> <r_lp_Energy>
9.84341

> <b_lp_Chiralities_Consistent>
1

> <s_lp_Variant>
AV-unprocessed.smi:609-2

> <Gold.Version>
5.8.1

> <Gold.Id.Protein>
6NUR|6NUR_protein|mol2

> <Gold.PLP.Fitness>
55.3481

> <Gold.PLP.PLP>
-51.1720

> <Gold.PLP.part.hbond>
-1.1781

> <Gold.PLP.part.metal>
0.0000

> <Gold.PLP.part.buried>
-0.0739

> <Gold.PLP.part.nonpolar>
-50.0017

> <Gold.PLP.part.repulsive>
0.2374

> <Gold.PLP.ligand.clash>
0.0000

> <Gold.PLP.ligand.torsion>
0.9946

> <Gold.PLP.Chemscore.Hbond>
0.0000

> <Gold.PLP.Chemscore.CHOScore>
2.0479

> <Gold.PLP.Chemscore.Metal>
0.0000

> <Gold.Chemscore.Hbonds>
donor molecule, donor type, donor heavy atom, donor atom, acceptor molecule, acceptor atom, score
      L1  C     6    27       P1  8028  0.06
      L1  C     6    27       P1  8029  1.00
      L1  C    16    35       P1 10175  0.90

> <Gold.PLP.Chemscore.Internal.Correction>
0.0215

> <Gold.Rescore>
     Score         DG    S(hbond)    S(metal)    S(lipo)     H(rot)  DE(clash)    DE(int)     intcor
     13.84     -14.83       0.00        0.00     134.97       2.52       0.09       0.90       ----

> <Gold.Chemscore.Fitness>
13.8416

> <Gold.Chemscore.DG>
-14.8328

> <Gold.Chemscore.ZeroCoef>
-5.4800

> <Gold.Chemscore.Hbond>
0.0001

> <Gold.Chemscore.Metal>
0.0000

> <Gold.Chemscore.Lipo>
134.9706

> <Gold.Chemscore.Internal_Hbond>
0.0000

> <Gold.Chemscore.DEClash>
0.0930

> <Gold.Chemscore.DEInternal>
0.8981

> <Gold.Chemscore.Rot>
2.5153

> <Gold.Chemscore.Internal.Correction>
   9.000000E+99

> <Gold.Chemscore.Hbond.Weighted>
-0.0004

> <Gold.Chemscore.Metal.Weighted>
-0.0000

> <Gold.Chemscore.Lipo.Weighted>
-15.7916

> <Gold.Chemscore.Internal_Hbond.Weighted>
0.0000

> <Gold.Chemscore.DEClash.Weighted>
0.0930

> <Gold.Chemscore.DEInternal.Weighted>
0.8981

> <Gold.Chemscore.Rot.Weighted>
6.4391

> <Gold.Chemscore.Internal.Correction.Weighted>
   9.000000E+99

> <Gold.Protein.RotatedTorsions>
[ 6907 6896 6895 6894 ] final   51.31 input  -60.11 | X-H torsion
[ 7974 7965 7964 7962 ] final  -71.55 input  175.53 | X-H torsion
[ 8008 7997 7996 7995 ] final   71.94 input   59.86 | X-H torsion
[ 10167 10162 10161 10158 ] final  110.09 input  -65.29 | X-H torsion
[ 10718 10713 10712 10709 ] final   -9.32 input   66.30 | X-H torsion
[ 10763 10752 10751 10750 ] final   45.86 input  -60.55 | X-H torsion
[ 11005 11000 10999 10996 ] final  -67.31 input  -57.11 | X-H torsion

> <Gold.Protein.ActiveResidues>
 VAL166  LYS551  ARG553  GLY616  TRP617  ASP618  TYR619  PRO620  LYS621  CYS622 
 ASP623  PHE694  ASN695  SER759  ASP760  ASP761  ALA762  ILE779  LEU786  VAL792 
 PHE793  MET794  SER795  GLU796  ALA797  LYS798  CYS799  TRP800  GLU811  SER814 

> <Gold.Protein.RotatedAtoms>
  152.3113  134.7494  160.0335 H   0  0  0  0  0  0  0  0  0  0  0  0  # atno 6907 bound_to 6896
  151.7974  133.3361  159.3525 H   0  0  0  0  0  0  0  0  0  0  0  0  # atno 6908 bound_to 6896
  150.7321  134.5716  159.5937 H   0  0  0  0  0  0  0  0  0  0  0  0  # atno 6909 bound_to 6896
  145.6766  140.9202  143.0854 H   0  0  0  0  0  0  0  0  0  0  0  0  # atno 7974 bound_to 7965
  155.7614  140.3486  155.5200 H   0  0  0  0  0  0  0  0  0  0  0  0  # atno 8008 bound_to 7997
  155.8910  140.1018  157.1439 H   0  0  0  0  0  0  0  0  0  0  0  0  # atno 8009 bound_to 7997
  154.4033  140.1304  156.4303 H   0  0  0  0  0  0  0  0  0  0  0  0  # atno 8010 bound_to 7997
  139.6715  144.7125  151.1678 H   0  0  0  0  0  0  0  0  0  0  0  0  # atno 10167 bound_to 10162
  156.6897  130.5061  149.5947 H   0  0  0  0  0  0  0  0  0  0  0  0  # atno 10718 bound_to 10713
  152.9818  135.6026  154.3505 H   0  0  0  0  0  0  0  0  0  0  0  0  # atno 10763 bound_to 10752
  154.3195  135.2770  155.2528 H   0  0  0  0  0  0  0  0  0  0  0  0  # atno 10764 bound_to 10752
  154.4701  135.5944  153.6371 H   0  0  0  0  0  0  0  0  0  0  0  0  # atno 10765 bound_to 10752
  141.1505  133.6716  156.6273 H   0  0  0  0  0  0  0  0  0  0  0  0  # atno 11005 bound_to 11000
  144.7039  139.8642  143.7436 LP  0  0  0  0  0  0  0  0  0  0  0  0  # atno 17320 bound_to 7965
  146.1000  139.3995  143.0353 LP  0  0  0  0  0  0  0  0  0  0  0  0  # atno 17321 bound_to 7965
  140.7620  143.5836  150.8869 LP  0  0  0  0  0  0  0  0  0  0  0  0  # atno 17342 bound_to 10162
  139.9502  143.6281  152.3031 LP  0  0  0  0  0  0  0  0  0  0  0  0  # atno 17343 bound_to 10162
  156.1807  130.6497  151.0947 LP  0  0  0  0  0  0  0  0  0  0  0  0  # atno 17370 bound_to 10713
  157.7013  131.0774  150.6810 LP  0  0  0  0  0  0  0  0  0  0  0  0  # atno 17371 bound_to 10713
  140.3494  134.7781  157.4456 LP  0  0  0  0  0  0  0  0  0  0  0  0  # atno 17394 bound_to 11000
  140.0873  134.5649  155.8479 LP  0  0  0  0  0  0  0  0  0  0  0  0  # atno 17395 bound_to 11000

$$$$
