AV-unprocessed.smi:2072|AV-procd|sdf|8448|dock1
  -GOLD-   2272011143D 1   1.00000     0.00000
 Structure written by MMmdl.
 40 42  0  0  0  0  0  0  0  0  2 V2000
  145.2503  138.2734  153.4431 O   0  0  0  0  0  0  0  0  0  0  0  0
  146.1769  137.6572  152.9181 C   0  0  0  0  0  0  0  0  0  0  0  0
  147.4817  137.9611  153.0253 N   0  0  0  0  0  0  0  0  0  0  0  0
  148.0981  139.0348  153.7252 C   0  0  0  0  0  0  0  0  0  0  0  0
  147.4123  140.1612  154.2427 C   0  0  0  0  0  0  0  0  0  0  0  0
  148.1501  141.1609  154.9058 C   0  0  0  0  0  0  0  0  0  0  0  0
  149.5446  141.0041  155.0220 C   0  0  0  0  0  0  0  0  0  0  0  0
  150.2127  139.9421  154.5254 N   0  0  0  0  0  0  0  0  0  0  0  0
  149.4989  138.9872  153.8920 C   0  0  0  0  0  0  0  0  0  0  0  0
  145.9939  136.5698  152.1558 N   0  0  0  0  0  0  0  0  0  0  0  0
  144.6931  135.9769  151.8555 C   0  0  2  0  0  0  0  0  0  0  0  0
  143.9742  135.4352  153.0844 C   0  0  0  0  0  0  0  0  0  0  0  0
  142.9310  134.4867  152.4839 C   0  0  0  0  0  0  0  0  0  0  0  0
  143.4689  134.0246  151.1802 N   0  3  2  0  0  0  0  0  0  0  0  0
  143.5476  132.5448  151.0482 C   0  0  0  0  0  0  0  0  0  0  0  0
  144.4591  132.1438  149.8785 C   0  0  0  0  0  0  0  0  0  0  0  0
  145.9029  132.6366  150.0925 C   0  0  0  0  0  0  0  0  0  0  0  0
  145.9784  133.8437  151.0472 C   0  0  0  0  0  0  0  0  0  0  0  0
  144.7375  134.7600  150.9109 C   0  0  2  0  0  0  0  0  0  0  0  0
  148.1216  137.3202  152.5791 H   0  0  0  0  0  0  0  0  0  0  0  0
  146.3467  140.2899  154.1393 H   0  0  0  0  0  0  0  0  0  0  0  0
  147.6572  142.0313  155.3127 H   0  0  0  0  0  0  0  0  0  0  0  0
  150.1396  141.7535  155.5231 H   0  0  0  0  0  0  0  0  0  0  0  0
  150.0677  138.1535  153.5066 H   0  0  0  0  0  0  0  0  0  0  0  0
  146.8072  136.1176  151.7638 H   0  0  0  0  0  0  0  0  0  0  0  0
  144.0535  136.7419  151.4096 H   0  0  0  0  0  0  0  0  0  0  0  0
  144.6666  134.8727  153.7130 H   0  0  0  0  0  0  0  0  0  0  0  0
  143.5270  136.2204  153.6948 H   0  0  0  0  0  0  0  0  0  0  0  0
  142.6937  133.6689  153.1658 H   0  0  0  0  0  0  0  0  0  0  0  0
  142.0029  135.0256  152.2905 H   0  0  0  0  0  0  0  0  0  0  0  0
  143.9346  132.1044  151.9689 H   0  0  0  0  0  0  0  0  0  0  0  0
  142.5422  132.1470  150.9069 H   0  0  0  0  0  0  0  0  0  0  0  0
  144.4522  131.0622  149.7406 H   0  0  0  0  0  0  0  0  0  0  0  0
  144.0607  132.5703  148.9568 H   0  0  0  0  0  0  0  0  0  0  0  0
  146.5199  131.8308  150.4915 H   0  0  0  0  0  0  0  0  0  0  0  0
  146.3347  132.8976  149.1256 H   0  0  0  0  0  0  0  0  0  0  0  0
  146.0520  133.4870  152.0756 H   0  0  0  0  0  0  0  0  0  0  0  0
  146.8999  134.3924  150.8509 H   0  0  0  0  0  0  0  0  0  0  0  0
  144.7062  135.1159  149.8799 H   0  0  0  0  0  0  0  0  0  0  0  0
  142.8159  134.3414  150.4776 H   0  0  0  0  0  0  0  0  0  0  0  0
  1  2  2  0  0  0  0
  2  3  1  0  0  0  0
  2 10  1  0  0  0  0
  3  4  1  0  0  0  0
  3 20  1  0  0  0  0
  4  9  1  0  0  0  0
  4  5  2  0  0  0  0
  5  6  1  0  0  0  0
  5 21  1  0  0  0  0
  6  7  2  0  0  0  0
  6 22  1  0  0  0  0
  7  8  1  0  0  0  0
  7 23  1  0  0  0  0
  8  9  2  0  0  0  0
  9 24  1  0  0  0  0
 10 11  1  0  0  0  0
 10 25  1  0  0  0  0
 11 19  1  0  0  0  0
 11 12  1  0  0  0  0
 11 26  1  0  0  0  0
 12 13  1  0  0  0  0
 12 27  1  0  0  0  0
 12 28  1  0  0  0  0
 13 14  1  0  0  0  0
 13 29  1  0  0  0  0
 13 30  1  0  0  0  0
 14 19  1  0  0  0  0
 14 15  1  0  0  0  0
 14 40  1  0  0  0  0
 15 16  1  0  0  0  0
 15 31  1  0  0  0  0
 15 32  1  0  0  0  0
 16 17  1  0  0  0  0
 16 33  1  0  0  0  0
 16 34  1  0  0  0  0
 17 18  1  0  0  0  0
 17 35  1  0  0  0  0
 17 36  1  0  0  0  0
 18 19  1  0  0  0  0
 18 37  1  0  0  0  0
 18 38  1  0  0  0  0
 19 39  1  0  0  0  0
M  CHG  1  14   1
M  END
> <s_m_source_file>
AV-unprocessed.smi

> <i_m_source_file_index>
2072

> <i_lp_mmshare_version>
43012

> <i_f3d_flags>
0

> <s_epik_input>
W0NIMl0xW0NIMl1bQ0gyXVtDSDJdW0NASF0oTjEyKVtDQEBIXShbQ0gyXVtDSDJdMilbTkhdQyg9TylbTkhdYzNbY0hdW2NIXVtjSF1uW2NIXTM=

> <s_epik_cmdline>
J2VwaWtfcHl0aG9uJywgJy1waCcsICc3LjAnLCAnLXRuJywgJzgnLCAnLW1hJywgJzIwMCcsICctbWV0YWxfYmluZGluZycsICctaW1hZScsICc8aW5maWxlLm1hZT4nLCAnLW9tYWUnLCAnPG91dGZpbGUubWFlPic=

> <r_lp_tautomer_probability>
1

> <r_epik_Ionization_Penalty>
0.00482425

> <r_epik_Ionization_Penalty_Charging>
0.000974069

> <r_epik_Ionization_Penalty_Neutral>
0.00385018

> <r_epik_State_Penalty>
-0

> <r_epik_Charging_Adjusted_Penalty>
0.000974069

> <i_epik_Tot_Q>
1

> <i_epik_Tot_abs_Q>
1

> <r_epik_Metal_State_Penalty>
-0

> <b_epik_Metal_Only>
0

> <s_lp_Force_Field>
OPLS_2005

> <r_lp_Energy>
44.3758

> <b_lp_Chiralities_Consistent>
1

> <s_lp_Variant>
AV-unprocessed.smi:2072-7

> <Gold.Version>
5.8.1

> <Gold.Id.Protein>
6NUR|6NUR_protein|mol2

> <Gold.PLP.Fitness>
48.6975

> <Gold.PLP.PLP>
-33.4726

> <Gold.PLP.part.hbond>
-4.0000

> <Gold.PLP.part.metal>
0.0000

> <Gold.PLP.part.buried>
-4.0240

> <Gold.PLP.part.nonpolar>
-29.1013

> <Gold.PLP.part.repulsive>
2.2222

> <Gold.PLP.ligand.clash>
0.0000

> <Gold.PLP.ligand.torsion>
0.0453

> <Gold.PLP.Chemscore.Hbond>
4.6365

> <Gold.PLP.Chemscore.CHOScore>
0.4681

> <Gold.PLP.Chemscore.Metal>
0.0000

> <Gold.Chemscore.Hbonds>
donor molecule, donor type, donor heavy atom, donor atom, acceptor molecule, acceptor atom, score
      L1  H     3    20       P1  7948  1.00
      L1  H    10    25       P1  7948  0.62
      L1  H    14    40       P1 10186  2.00
      P1  H  7989  7998       L1     8  1.00
      L1  C     9    24       P1  7948  0.46

> <Gold.PLP.Chemscore.Internal.Correction>
0.0017

> <Gold.Rescore>
     Score         DG    S(hbond)    S(metal)    S(lipo)     H(rot)  DE(clash)    DE(int)     intcor
     19.98     -22.85       2.98        0.00      85.39       1.00       1.70       1.16       ----

> <Gold.Chemscore.Fitness>
19.9815

> <Gold.Chemscore.DG>
-22.8478

> <Gold.Chemscore.ZeroCoef>
-5.4800

> <Gold.Chemscore.Hbond>
2.9751

> <Gold.Chemscore.Metal>
0.0000

> <Gold.Chemscore.Lipo>
85.3946

> <Gold.Chemscore.Internal_Hbond>
0.0000

> <Gold.Chemscore.DEClash>
1.7020

> <Gold.Chemscore.DEInternal>
1.1643

> <Gold.Chemscore.Rot>
1.0000

> <Gold.Chemscore.Internal.Correction>
   9.000000E+99

> <Gold.Chemscore.Hbonds>
donor molecule, donor type, donor heavy atom, donor atom, acceptor molecule, acceptor atom, score
      L1  H     3    20       P1  7948  0.93
      L1  H    10    25       P1  7948  0.62
      L1  H    14    40       P1 10186  0.60
      P1  H  7989  7998       L1     8  0.23

> <Gold.Chemscore.Hbond.Weighted>
-9.9367

> <Gold.Chemscore.Metal.Weighted>
-0.0000

> <Gold.Chemscore.Lipo.Weighted>
-9.9912

> <Gold.Chemscore.Internal_Hbond.Weighted>
0.0000

> <Gold.Chemscore.DEClash.Weighted>
1.7020

> <Gold.Chemscore.DEInternal.Weighted>
1.1643

> <Gold.Chemscore.Rot.Weighted>
2.5600

> <Gold.Chemscore.Internal.Correction.Weighted>
   9.000000E+99

> <Gold.Protein.RotatedTorsions>
[ 6907 6896 6895 6894 ] final   67.37 input  -60.11 | X-H torsion
[ 7974 7965 7964 7962 ] final  -31.44 input  175.53 | X-H torsion
[ 8008 7997 7996 7995 ] final  114.50 input   59.86 | X-H torsion
[ 10167 10162 10161 10158 ] final   68.28 input  -65.29 | X-H torsion
[ 10718 10713 10712 10709 ] final  -33.46 input   66.30 | X-H torsion
[ 10763 10752 10751 10750 ] final   14.03 input  -60.55 | X-H torsion
[ 11005 11000 10999 10996 ] final   -4.38 input  -57.11 | X-H torsion

> <Gold.Protein.ActiveResidues>
 VAL166  LYS551  ARG553  GLY616  TRP617  ASP618  TYR619  PRO620  LYS621  CYS622 
 ASP623  PHE694  ASN695  SER759  ASP760  ASP761  ALA762  ILE779  LEU786  VAL792 
 PHE793  MET794  SER795  GLU796  ALA797  LYS798  CYS799  TRP800  GLU811  SER814 

> <Gold.Protein.RotatedAtoms>
  152.4547  134.5317  159.9812 H   0  0  0  0  0  0  0  0  0  0  0  0  # atno 6907 bound_to 6896
  151.5381  133.3431  159.2938 H   0  0  0  0  0  0  0  0  0  0  0  0  # atno 6908 bound_to 6896
  150.8487  134.7836  159.7054 H   0  0  0  0  0  0  0  0  0  0  0  0  # atno 6909 bound_to 6896
  146.1067  140.5667  142.8796 H   0  0  0  0  0  0  0  0  0  0  0  0  # atno 7974 bound_to 7965
  156.2325  140.2958  156.0225 H   0  0  0  0  0  0  0  0  0  0  0  0  # atno 8008 bound_to 7997
  155.2185  140.0415  157.2962 H   0  0  0  0  0  0  0  0  0  0  0  0  # atno 8009 bound_to 7997
  154.6020  140.2429  155.7787 H   0  0  0  0  0  0  0  0  0  0  0  0  # atno 8010 bound_to 7997
  140.0804  144.5076  150.7166 H   0  0  0  0  0  0  0  0  0  0  0  0  # atno 10167 bound_to 10162
  156.3624  130.4326  149.7612 H   0  0  0  0  0  0  0  0  0  0  0  0  # atno 10718 bound_to 10713
  153.1662  135.6804  153.8672 H   0  0  0  0  0  0  0  0  0  0  0  0  # atno 10763 bound_to 10752
  153.8051  135.3150  155.3395 H   0  0  0  0  0  0  0  0  0  0  0  0  # atno 10764 bound_to 10752
  154.7967  135.4803  154.0268 H   0  0  0  0  0  0  0  0  0  0  0  0  # atno 10765 bound_to 10752
  140.6796  133.9165  155.8547 H   0  0  0  0  0  0  0  0  0  0  0  0  # atno 11005 bound_to 11000
  144.7477  140.5110  143.6824 LP  0  0  0  0  0  0  0  0  0  0  0  0  # atno 17320 bound_to 7965
  145.5746  139.1485  143.3269 LP  0  0  0  0  0  0  0  0  0  0  0  0  # atno 17321 bound_to 7965
  140.7080  143.2483  151.4666 LP  0  0  0  0  0  0  0  0  0  0  0  0  # atno 17342 bound_to 10162
  139.5783  144.1768  152.1933 LP  0  0  0  0  0  0  0  0  0  0  0  0  # atno 17343 bound_to 10162
  156.4771  130.8024  151.3039 LP  0  0  0  0  0  0  0  0  0  0  0  0  # atno 17370 bound_to 10713
  157.7475  131.0017  150.2974 LP  0  0  0  0  0  0  0  0  0  0  0  0  # atno 17371 bound_to 10713
  141.0328  134.0732  157.3994 LP  0  0  0  0  0  0  0  0  0  0  0  0  # atno 17394 bound_to 11000
  139.8956  135.0141  156.7009 LP  0  0  0  0  0  0  0  0  0  0  0  0  # atno 17395 bound_to 11000

$$$$
