AV-unprocessed.smi:366|AV-procd|sdf|2429|dock1
  -GOLD-   2262022373D 1   1.00000     0.00000
 Structure written by MMmdl.
 50 51  0  0  0  0  0  0  0  0  1 V2000
  146.1171  136.5600  153.5966 C   0  0  0  0  0  0  0  0  0  0  0  0
  147.0278  135.9073  154.6308 C   0  0  0  0  0  0  0  0  0  0  0  0
  146.6535  135.7889  155.7972 O   0  0  0  0  0  0  0  0  0  0  0  0
  148.2245  135.4897  154.1886 N   0  0  0  0  0  0  0  0  0  0  0  0
  149.2575  134.8513  155.0074 C   0  0  2  0  0  0  0  0  0  0  0  0
  150.5034  135.7584  155.0217 C   0  0  0  0  0  0  0  0  0  0  0  0
  151.3913  135.5879  155.8590 O   0  0  0  0  0  0  0  0  0  0  0  0
  150.5419  136.7277  154.0940 N   0  0  0  0  0  0  0  0  0  0  0  0
  151.6201  137.6949  153.9155 C   0  0  0  0  0  0  0  0  0  0  0  0
  151.7061  138.7143  155.0397 C   0  0  0  0  0  0  0  0  0  0  0  0
  150.7240  139.7146  155.1797 C   0  0  0  0  0  0  0  0  0  0  0  0
  150.8416  140.6471  156.2278 C   0  0  0  0  0  0  0  0  0  0  0  0
  151.9441  140.5585  157.1107 C   0  0  0  0  0  0  0  0  0  0  0  0
  152.0834  141.4853  158.1665 N   0  0  0  0  0  0  0  0  0  0  0  0
  151.1914  142.6433  158.1830 C   0  0  0  0  0  0  0  0  0  0  0  0
  151.6700  143.6733  159.2198 C   0  0  0  0  0  0  0  0  0  0  0  0
  151.7849  143.0511  160.4949 O   0  0  0  0  0  0  0  0  0  0  0  0
  152.7410  141.9963  160.4848 C   0  0  0  0  0  0  0  0  0  0  0  0
  152.3059  140.9068  159.4895 C   0  0  0  0  0  0  0  0  0  0  0  0
  152.8857  139.5921  156.9739 N   0  0  0  0  0  0  0  0  0  0  0  0
  152.7697  138.7028  155.9656 C   0  0  0  0  0  0  0  0  0  0  0  0
  149.6093  133.4669  154.3864 C   0  0  0  0  0  0  0  0  0  0  0  0
  148.3494  132.7004  153.9375 C   0  0  0  0  0  0  0  0  0  0  0  0
  150.4298  132.5707  155.3371 C   0  0  0  0  0  0  0  0  0  0  0  0
  146.4955  137.5468  153.3294 H   0  0  0  0  0  0  0  0  0  0  0  0
  145.1061  136.6752  153.9883 H   0  0  0  0  0  0  0  0  0  0  0  0
  146.0645  135.9530  152.6926 H   0  0  0  0  0  0  0  0  0  0  0  0
  148.4465  135.6365  153.2147 H   0  0  0  0  0  0  0  0  0  0  0  0
  148.8853  134.7087  156.0243 H   0  0  0  0  0  0  0  0  0  0  0  0
  149.7655  136.7928  153.4515 H   0  0  0  0  0  0  0  0  0  0  0  0
  152.5853  137.1953  153.8184 H   0  0  0  0  0  0  0  0  0  0  0  0
  151.4502  138.2093  152.9693 H   0  0  0  0  0  0  0  0  0  0  0  0
  149.8875  139.7690  154.4986 H   0  0  0  0  0  0  0  0  0  0  0  0
  150.0828  141.4055  156.3497 H   0  0  0  0  0  0  0  0  0  0  0  0
  151.1609  143.1105  157.1977 H   0  0  0  0  0  0  0  0  0  0  0  0
  150.1784  142.3165  158.4218 H   0  0  0  0  0  0  0  0  0  0  0  0
  152.6281  144.1053  158.9256 H   0  0  0  0  0  0  0  0  0  0  0  0
  150.9578  144.4957  159.2879 H   0  0  0  0  0  0  0  0  0  0  0  0
  153.7268  142.3868  160.2272 H   0  0  0  0  0  0  0  0  0  0  0  0
  152.8173  141.5779  161.4883 H   0  0  0  0  0  0  0  0  0  0  0  0
  151.3800  140.4407  159.8288 H   0  0  0  0  0  0  0  0  0  0  0  0
  153.0637  140.1250  159.4671 H   0  0  0  0  0  0  0  0  0  0  0  0
  153.5543  137.9641  155.8979 H   0  0  0  0  0  0  0  0  0  0  0  0
  150.2159  133.6314  153.4938 H   0  0  0  0  0  0  0  0  0  0  0  0
  147.6716  132.5306  154.7747 H   0  0  0  0  0  0  0  0  0  0  0  0
  148.6097  131.7273  153.5202 H   0  0  0  0  0  0  0  0  0  0  0  0
  147.7972  133.2366  153.1658 H   0  0  0  0  0  0  0  0  0  0  0  0
  149.9042  132.4092  156.2787 H   0  0  0  0  0  0  0  0  0  0  0  0
  151.4044  132.9991  155.5686 H   0  0  0  0  0  0  0  0  0  0  0  0
  150.6163  131.5934  154.8911 H   0  0  0  0  0  0  0  0  0  0  0  0
  1  2  1  0  0  0  0
  1 25  1  0  0  0  0
  1 26  1  0  0  0  0
  1 27  1  0  0  0  0
  2  3  2  0  0  0  0
  2  4  1  0  0  0  0
  4  5  1  0  0  0  0
  4 28  1  0  0  0  0
  5  6  1  0  0  0  0
  5 22  1  0  0  0  0
  5 29  1  0  0  0  0
  6  7  2  0  0  0  0
  6  8  1  0  0  0  0
  8  9  1  0  0  0  0
  8 30  1  0  0  0  0
  9 10  1  0  0  0  0
  9 31  1  0  0  0  0
  9 32  1  0  0  0  0
 10 21  1  0  0  0  0
 10 11  2  0  0  0  0
 11 12  1  0  0  0  0
 11 33  1  0  0  0  0
 12 13  2  0  0  0  0
 12 34  1  0  0  0  0
 13 14  1  0  0  0  0
 13 20  1  0  0  0  0
 14 19  1  0  0  0  0
 14 15  1  0  0  0  0
 15 16  1  0  0  0  0
 15 35  1  0  0  0  0
 15 36  1  0  0  0  0
 16 17  1  0  0  0  0
 16 37  1  0  0  0  0
 16 38  1  0  0  0  0
 17 18  1  0  0  0  0
 18 19  1  0  0  0  0
 18 39  1  0  0  0  0
 18 40  1  0  0  0  0
 19 41  1  0  0  0  0
 19 42  1  0  0  0  0
 20 21  2  0  0  0  0
 21 43  1  0  0  0  0
 22 23  1  0  0  0  0
 22 24  1  0  0  0  0
 22 44  1  0  0  0  0
 23 45  1  0  0  0  0
 23 46  1  0  0  0  0
 23 47  1  0  0  0  0
 24 48  1  0  0  0  0
 24 49  1  0  0  0  0
 24 50  1  0  0  0  0
M  END
> <s_m_source_file>
AV-unprocessed.smi

> <i_m_source_file_index>
366

> <i_lp_mmshare_version>
43012

> <i_f3d_flags>
0

> <s_epik_input>
W0NIM11DKD1PKVtOSF1bQ0BASF0oW0NIXShbQ0gzXSlbQ0gzXSlDKD1PKVtOSF1bQ0gyXWMxW2NIXVtjSF1jKG5bY0hdMSlOMltDSDJdW0NIMl1PW0NIMl1bQ0gyXTI=

> <s_epik_cmdline>
J2VwaWtfcHl0aG9uJywgJy1waCcsICc3LjAnLCAnLXRuJywgJzgnLCAnLW1hJywgJzIwMCcsICctbWV0YWxfYmluZGluZycsICctaW1hZScsICc8aW5maWxlLm1hZT4nLCAnLW9tYWUnLCAnPG91dGZpbGUubWFlPic=

> <r_lp_tautomer_probability>
1

> <r_epik_Ionization_Penalty>
0.00485188

> <r_epik_Ionization_Penalty_Charging>
0

> <r_epik_Ionization_Penalty_Neutral>
0.00485188

> <r_epik_State_Penalty>
0.00351951

> <r_epik_Charging_Adjusted_Penalty>
0.00351951

> <i_epik_Tot_Q>
0

> <i_epik_Tot_abs_Q>
0

> <r_epik_Metal_State_Penalty>
-0

> <b_epik_Metal_Only>
0

> <s_lp_Force_Field>
OPLS_2005

> <r_lp_Energy>
18.3337

> <b_lp_Chiralities_Consistent>
1

> <s_lp_Variant>
AV-unprocessed.smi:366-1

> <Gold.Version>
5.8.1

> <Gold.Id.Protein>
6NUR|6NUR_protein|mol2

> <Gold.PLP.Fitness>
51.5485

> <Gold.PLP.PLP>
-41.2558

> <Gold.PLP.part.hbond>
-5.1953

> <Gold.PLP.part.metal>
0.0000

> <Gold.PLP.part.buried>
-1.7038

> <Gold.PLP.part.nonpolar>
-34.5680

> <Gold.PLP.part.repulsive>
0.1913

> <Gold.PLP.ligand.clash>
0.0000

> <Gold.PLP.ligand.torsion>
0.9718

> <Gold.PLP.Chemscore.Hbond>
3.9280

> <Gold.PLP.Chemscore.CHOScore>
0.0000

> <Gold.PLP.Chemscore.Metal>
0.0000

> <Gold.Chemscore.Hbonds>
donor molecule, donor type, donor heavy atom, donor atom, acceptor molecule, acceptor atom, score
      L1  H     4    28       P1  7948  1.00
      L1  H     8    30       P1  7948  0.94
      P1  H  7997  8009       L1    20  0.95
      P1  H 10752 10764       L1     7  1.00

> <Gold.PLP.Chemscore.Internal.Correction>
0.4523

> <Gold.Rescore>
     Score         DG    S(hbond)    S(metal)    S(lipo)     H(rot)  DE(clash)    DE(int)     intcor
     19.14     -22.10       3.12        0.00     100.84       2.18       2.09       0.87       ----

> <Gold.Chemscore.Fitness>
19.1386

> <Gold.Chemscore.DG>
-22.1042

> <Gold.Chemscore.ZeroCoef>
-5.4800

> <Gold.Chemscore.Hbond>
3.1168

> <Gold.Chemscore.Metal>
0.0000

> <Gold.Chemscore.Lipo>
100.8391

> <Gold.Chemscore.Internal_Hbond>
0.0000

> <Gold.Chemscore.DEClash>
2.0941

> <Gold.Chemscore.DEInternal>
0.8714

> <Gold.Chemscore.Rot>
2.1813

> <Gold.Chemscore.Internal.Correction>
   9.000000E+99

> <Gold.Chemscore.Hbonds>
donor molecule, donor type, donor heavy atom, donor atom, acceptor molecule, acceptor atom, score
      L1  H     4    28       P1  7948  0.95
      L1  H     8    30       P1  7948  0.41
      P1  H  7997  8009       L1    20  0.20
      P1  H 10752 10764       L1     7  0.29

> <Gold.Chemscore.Hbond.Weighted>
-10.4102

> <Gold.Chemscore.Metal.Weighted>
-0.0000

> <Gold.Chemscore.Lipo.Weighted>
-11.7982

> <Gold.Chemscore.Internal_Hbond.Weighted>
0.0000

> <Gold.Chemscore.DEClash.Weighted>
2.0941

> <Gold.Chemscore.DEInternal.Weighted>
0.8714

> <Gold.Chemscore.Rot.Weighted>
5.5842

> <Gold.Chemscore.Internal.Correction.Weighted>
   9.000000E+99

> <Gold.Protein.RotatedTorsions>
[ 6907 6896 6895 6894 ] final  -14.10 input  -60.11 | X-H torsion
[ 7974 7965 7964 7962 ] final -178.94 input  175.53 | X-H torsion
[ 8008 7997 7996 7995 ] final  173.82 input   59.86 | X-H torsion
[ 10167 10162 10161 10158 ] final -101.93 input  -65.29 | X-H torsion
[ 10718 10713 10712 10709 ] final -140.79 input   66.30 | X-H torsion
[ 10763 10752 10751 10750 ] final  -53.31 input  -60.55 | X-H torsion
[ 11005 11000 10999 10996 ] final  164.19 input  -57.11 | X-H torsion

> <Gold.Protein.ActiveResidues>
 VAL166  LYS551  ARG553  GLY616  TRP617  ASP618  TYR619  PRO620  LYS621  CYS622 
 ASP623  PHE694  ASN695  SER759  ASP760  ASP761  ALA762  ILE779  LEU786  VAL792 
 PHE793  MET794  SER795  GLU796  ALA797  LYS798  CYS799  TRP800  GLU811  SER814 

> <Gold.Protein.RotatedAtoms>
  151.3446  135.0871  159.9382 H   0  0  0  0  0  0  0  0  0  0  0  0  # atno 6907 bound_to 6896
  152.5202  133.9413  159.7638 H   0  0  0  0  0  0  0  0  0  0  0  0  # atno 6908 bound_to 6896
  150.9776  133.6225  159.2757 H   0  0  0  0  0  0  0  0  0  0  0  0  # atno 6909 bound_to 6896
  144.7133  140.0792  143.6426 H   0  0  0  0  0  0  0  0  0  0  0  0  # atno 7974 bound_to 7965
  156.1036  140.1450  156.9434 H   0  0  0  0  0  0  0  0  0  0  0  0  # atno 8008 bound_to 7997
  154.4719  140.0907  156.7211 H   0  0  0  0  0  0  0  0  0  0  0  0  # atno 8009 bound_to 7997
  155.4717  140.3442  155.4329 H   0  0  0  0  0  0  0  0  0  0  0  0  # atno 8010 bound_to 7997
  140.2360  143.3572  152.0844 H   0  0  0  0  0  0  0  0  0  0  0  0  # atno 10167 bound_to 10162
  156.3264  130.7562  151.1671 H   0  0  0  0  0  0  0  0  0  0  0  0  # atno 10718 bound_to 10713
  154.1568  135.6481  153.4976 H   0  0  0  0  0  0  0  0  0  0  0  0  # atno 10763 bound_to 10752
  153.0122  135.5351  154.6752 H   0  0  0  0  0  0  0  0  0  0  0  0  # atno 10764 bound_to 10752
  154.6055  135.2948  155.0461 H   0  0  0  0  0  0  0  0  0  0  0  0  # atno 10765 bound_to 10752
  140.2434  134.8033  157.3433 H   0  0  0  0  0  0  0  0  0  0  0  0  # atno 11005 bound_to 11000
  145.9716  139.2874  143.1095 LP  0  0  0  0  0  0  0  0  0  0  0  0  # atno 17320 bound_to 7965
  145.9110  140.9180  143.0454 LP  0  0  0  0  0  0  0  0  0  0  0  0  # atno 17321 bound_to 7965
  139.5093  144.6865  151.5873 LP  0  0  0  0  0  0  0  0  0  0  0  0  # atno 17342 bound_to 10162
  140.6149  143.9367  150.6481 LP  0  0  0  0  0  0  0  0  0  0  0  0  # atno 17343 bound_to 10162
  157.7422  131.0493  150.5041 LP  0  0  0  0  0  0  0  0  0  0  0  0  # atno 17370 bound_to 10713
  156.5201  130.4160  149.6255 LP  0  0  0  0  0  0  0  0  0  0  0  0  # atno 17371 bound_to 10713
  140.1630  134.4704  155.7882 LP  0  0  0  0  0  0  0  0  0  0  0  0  # atno 17394 bound_to 11000
  141.2208  133.6909  156.7577 LP  0  0  0  0  0  0  0  0  0  0  0  0  # atno 17395 bound_to 11000

$$$$
