AV-unprocessed.smi:658|AV-procd|sdf|3237|dock1
  -GOLD-   22720 0183D 1   1.00000     0.00000
 Structure written by MMmdl.
 37 37  0  0  0  0  0  0  0  0  3 V2000
  146.0926  133.7638  154.8648 C   0  0  0  0  0  0  0  0  0  0  0  0
  146.7682  134.3514  153.6104 C   0  0  1  0  0  0  0  0  0  0  0  0
  147.9871  135.1120  153.9739 N   0  3  0  0  0  0  0  0  0  0  0  0
  149.0686  134.3231  154.5977 C   0  0  0  0  0  0  0  0  0  0  0  0
  150.3427  135.1636  154.7291 C   0  0  0  0  0  0  0  0  0  0  0  0
  150.0438  136.6350  155.0483 C   0  0  0  0  0  0  0  0  0  0  0  0
  151.5074  137.7116  154.7291 S   0  0  0  0  0  0  0  0  0  0  0  0
  152.3075  136.8173  153.6500 N   0  5  0  0  0  0  0  0  0  0  0  0
  150.9912  138.9574  154.1416 O   0  0  0  0  0  0  0  0  0  0  0  0
  152.2212  137.8021  156.0116 O   0  0  0  0  0  0  0  0  0  0  0  0
  147.0885  133.2637  152.5518 C   0  0  1  0  0  0  0  0  0  0  0  0
  147.6211  131.9593  153.1721 C   0  0  0  0  0  0  0  0  0  0  0  0
  145.9747  133.0083  151.6423 N   0  0  0  0  0  0  0  0  0  0  0  0
  145.8904  132.1070  150.5979 C   0  0  0  0  0  0  0  0  0  0  0  0
  144.6399  132.2157  150.0615 C   0  0  0  0  0  0  0  0  0  0  0  0
  144.0175  133.2176  150.8561 C   0  0  0  0  0  0  0  0  0  0  0  0
  144.8154  133.6847  151.8023 N   0  0  0  0  0  0  0  0  0  0  0  0
  145.2311  133.1534  154.5932 H   0  0  0  0  0  0  0  0  0  0  0  0
  145.7302  134.5452  155.5321 H   0  0  0  0  0  0  0  0  0  0  0  0
  146.7774  133.1345  155.4342 H   0  0  0  0  0  0  0  0  0  0  0  0
  146.0670  135.0486  153.1492 H   0  0  0  0  0  0  0  0  0  0  0  0
  148.3459  135.5695  153.1479 H   0  0  0  0  0  0  0  0  0  0  0  0
  148.7465  133.9817  155.5822 H   0  0  0  0  0  0  0  0  0  0  0  0
  149.2758  133.4374  153.9974 H   0  0  0  0  0  0  0  0  0  0  0  0
  150.9731  134.7442  155.5144 H   0  0  0  0  0  0  0  0  0  0  0  0
  150.9165  135.0999  153.8039 H   0  0  0  0  0  0  0  0  0  0  0  0
  149.2320  136.9935  154.4152 H   0  0  0  0  0  0  0  0  0  0  0  0
  149.7348  136.7731  156.0848 H   0  0  0  0  0  0  0  0  0  0  0  0
  151.6373  136.4961  152.9410 H   0  0  0  0  0  0  0  0  0  0  0  0
  147.9070  133.6527  151.9430 H   0  0  0  0  0  0  0  0  0  0  0  0
  148.5090  132.1485  153.7756 H   0  0  0  0  0  0  0  0  0  0  0  0
  147.9000  131.2448  152.3967 H   0  0  0  0  0  0  0  0  0  0  0  0
  146.8828  131.4783  153.8140 H   0  0  0  0  0  0  0  0  0  0  0  0
  146.7167  131.4682  150.3231 H   0  0  0  0  0  0  0  0  0  0  0  0
  144.2309  131.6625  149.2289 H   0  0  0  0  0  0  0  0  0  0  0  0
  143.0162  133.6144  150.7763 H   0  0  0  0  0  0  0  0  0  0  0  0
  147.7165  135.8217  154.6395 H   0  0  0  0  0  0  0  0  0  0  0  0
  1  2  1  0  0  0  0
  1 18  1  0  0  0  0
  1 19  1  0  0  0  0
  1 20  1  0  0  0  0
  2  3  1  0  0  0  0
  2 11  1  0  0  0  0
  2 21  1  0  0  0  0
  3  4  1  0  0  0  0
  3 22  1  0  0  0  0
  3 37  1  0  0  0  0
  4  5  1  0  0  0  0
  4 23  1  0  0  0  0
  4 24  1  0  0  0  0
  5  6  1  0  0  0  0
  5 25  1  0  0  0  0
  5 26  1  0  0  0  0
  6  7  1  0  0  0  0
  6 27  1  0  0  0  0
  6 28  1  0  0  0  0
  7  8  1  0  0  0  0
  7  9  2  0  0  0  0
  7 10  2  0  0  0  0
  8 29  1  0  0  0  0
 11 12  1  0  0  0  0
 11 13  1  0  0  0  0
 11 30  1  0  0  0  0
 12 31  1  0  0  0  0
 12 32  1  0  0  0  0
 12 33  1  0  0  0  0
 13 17  1  0  0  0  0
 13 14  1  0  0  0  0
 14 15  2  0  0  0  0
 14 34  1  0  0  0  0
 15 16  1  0  0  0  0
 15 35  1  0  0  0  0
 16 17  2  0  0  0  0
 16 36  1  0  0  0  0
M  CHG  1   3   1
M  CHG  1   8  -1
M  END
> <s_m_source_file>
AV-unprocessed.smi

> <i_m_source_file_index>
658

> <i_lp_mmshare_version>
43012

> <i_f3d_flags>
0

> <s_epik_input>
bjFbY0hdW2NIXVtjSF1uMVtDQEBIXShbQ0gzXSlbQ0BIXShbQ0gzXSlbTkhdW0NIMl1bQ0gyXVtDSDJdUyg9TykoPU8pW05IMl0=

> <s_epik_cmdline>
J2VwaWtfcHl0aG9uJywgJy1waCcsICc3LjAnLCAnLXRuJywgJzgnLCAnLW1hJywgJzIwMCcsICctbWV0YWxfYmluZGluZycsICctaW1hZScsICc8aW5maWxlLm1hZT4nLCAnLW9tYWUnLCAnPG91dGZpbGUubWFlPic=

> <r_lp_tautomer_probability>
1

> <r_epik_Ionization_Penalty>
4.63642

> <r_epik_Ionization_Penalty_Charging>
4.63641

> <r_epik_Ionization_Penalty_Neutral>
1.08396e-05

> <r_epik_State_Penalty>
4.63466

> <r_epik_Charging_Adjusted_Penalty>
9.27106

> <i_epik_Tot_Q>
0

> <i_epik_Tot_abs_Q>
2

> <r_epik_Metal_State_Penalty>
0.890424

> <b_epik_Metal_Only>
1

> <s_lp_Force_Field>
OPLS_2005

> <r_lp_Energy>
1.41706

> <b_lp_Chiralities_Consistent>
1

> <s_lp_Variant>
AV-unprocessed.smi:658-8

> <Gold.Version>
5.8.1

> <Gold.Id.Protein>
6NUR|6NUR_protein|mol2

> <Gold.PLP.Fitness>
50.3087

> <Gold.PLP.PLP>
-28.8312

> <Gold.PLP.part.hbond>
-4.0000

> <Gold.PLP.part.metal>
0.0000

> <Gold.PLP.part.buried>
-3.7567

> <Gold.PLP.part.nonpolar>
-21.8053

> <Gold.PLP.part.repulsive>
0.2880

> <Gold.PLP.ligand.clash>
0.0000

> <Gold.PLP.ligand.torsion>
1.3722

> <Gold.PLP.Chemscore.Hbond>
6.0000

> <Gold.PLP.Chemscore.CHOScore>
1.9884

> <Gold.PLP.Chemscore.Metal>
0.0000

> <Gold.Chemscore.Hbonds>
donor molecule, donor type, donor heavy atom, donor atom, acceptor molecule, acceptor atom, score
      L1  H     3    22       P1  7948  2.00
      L1  H     8    29       P1  7949  1.00
      P1  H  7989  7998       L1     9  0.81
      P1  H 10752 10764       L1     8  1.17
      L1  C    14    34       P1 10747  1.00
      L1  C    16    36       P1 10186  1.00

> <Gold.PLP.Chemscore.Internal.Correction>
0.2567

> <Gold.Rescore>
     Score         DG    S(hbond)    S(metal)    S(lipo)     H(rot)  DE(clash)    DE(int)     intcor
     15.42     -16.54       3.64        0.00      57.11       3.04       0.00       1.12       ----

> <Gold.Chemscore.Fitness>
15.4220

> <Gold.Chemscore.DG>
-16.5410

> <Gold.Chemscore.ZeroCoef>
-5.4800

> <Gold.Chemscore.Hbond>
3.6417

> <Gold.Chemscore.Metal>
0.0000

> <Gold.Chemscore.Lipo>
57.1142

> <Gold.Chemscore.Internal_Hbond>
0.0000

> <Gold.Chemscore.DEClash>
0.0000

> <Gold.Chemscore.DEInternal>
1.1190

> <Gold.Chemscore.Rot>
3.0409

> <Gold.Chemscore.Internal.Correction>
   9.000000E+99

> <Gold.Chemscore.Hbonds>
donor molecule, donor type, donor heavy atom, donor atom, acceptor molecule, acceptor atom, score
      L1  H     3    22       P1  7948  0.95
      L1  H     8    29       P1  7949  0.95
      P1  H  7989  7998       L1     9  0.80
      P1  H 10752 10764       L1     8  0.29

> <Gold.Chemscore.Hbond.Weighted>
-12.1634

> <Gold.Chemscore.Metal.Weighted>
-0.0000

> <Gold.Chemscore.Lipo.Weighted>
-6.6824

> <Gold.Chemscore.Internal_Hbond.Weighted>
0.0000

> <Gold.Chemscore.DEClash.Weighted>
0.0000

> <Gold.Chemscore.DEInternal.Weighted>
1.1190

> <Gold.Chemscore.Rot.Weighted>
7.7848

> <Gold.Chemscore.Internal.Correction.Weighted>
   9.000000E+99

> <Gold.Protein.RotatedTorsions>
[ 6907 6896 6895 6894 ] final  -59.74 input  -60.11 | X-H torsion
[ 7974 7965 7964 7962 ] final   89.47 input  175.53 | X-H torsion
[ 8008 7997 7996 7995 ] final  -56.61 input   59.86 | X-H torsion
[ 10167 10162 10161 10158 ] final   83.09 input  -65.29 | X-H torsion
[ 10718 10713 10712 10709 ] final  -61.17 input   66.30 | X-H torsion
[ 10763 10752 10751 10750 ] final  -97.61 input  -60.55 | X-H torsion
[ 11005 11000 10999 10996 ] final  -95.72 input  -57.11 | X-H torsion

> <Gold.Protein.ActiveResidues>
 VAL166  LYS551  ARG553  GLY616  TRP617  ASP618  TYR619  PRO620  LYS621  CYS622 
 ASP623  PHE694  ASN695  SER759  ASP760  ASP761  ALA762  ILE779  LEU786  VAL792 
 PHE793  MET794  SER795  GLU796  ALA797  LYS798  CYS799  TRP800  GLU811  SER814 

> <Gold.Protein.RotatedAtoms>
  150.7908  134.6929  159.6506 H   0  0  0  0  0  0  0  0  0  0  0  0  # atno 6907 bound_to 6896
  152.4013  134.6278  160.0077 H   0  0  0  0  0  0  0  0  0  0  0  0  # atno 6908 bound_to 6896
  151.6549  133.3282  159.3196 H   0  0  0  0  0  0  0  0  0  0  0  0  # atno 6909 bound_to 6896
  145.5320  139.2284  143.2613 H   0  0  0  0  0  0  0  0  0  0  0  0  # atno 7974 bound_to 7965
  154.4237  140.1125  156.5666 H   0  0  0  0  0  0  0  0  0  0  0  0  # atno 8008 bound_to 7997
  155.6256  140.3495  155.4647 H   0  0  0  0  0  0  0  0  0  0  0  0  # atno 8009 bound_to 7997
  155.9989  140.1195  157.0556 H   0  0  0  0  0  0  0  0  0  0  0  0  # atno 8010 bound_to 7997
  139.9220  144.6206  150.8430 H   0  0  0  0  0  0  0  0  0  0  0  0  # atno 10167 bound_to 10162
  156.0940  130.4196  150.0957 H   0  0  0  0  0  0  0  0  0  0  0  0  # atno 10718 bound_to 10713
  154.7343  135.5040  153.9016 H   0  0  0  0  0  0  0  0  0  0  0  0  # atno 10763 bound_to 10752
  153.0980  135.6677  153.9735 H   0  0  0  0  0  0  0  0  0  0  0  0  # atno 10764 bound_to 10752
  153.9528  135.3056  155.3417 H   0  0  0  0  0  0  0  0  0  0  0  0  # atno 10765 bound_to 10752
  141.1433  133.8046  157.0474 H   0  0  0  0  0  0  0  0  0  0  0  0  # atno 11005 bound_to 11000
  146.2038  140.6136  142.9090 LP  0  0  0  0  0  0  0  0  0  0  0  0  # atno 17320 bound_to 7965
  144.7621  140.5446  143.6728 LP  0  0  0  0  0  0  0  0  0  0  0  0  # atno 17321 bound_to 7965
  140.7660  143.3290  151.2452 LP  0  0  0  0  0  0  0  0  0  0  0  0  # atno 17342 bound_to 10162
  139.6854  143.9783  152.2831 LP  0  0  0  0  0  0  0  0  0  0  0  0  # atno 17343 bound_to 10162
  156.8960  130.9604  151.3582 LP  0  0  0  0  0  0  0  0  0  0  0  0  # atno 17370 bound_to 10713
  157.6096  130.8573  149.8931 LP  0  0  0  0  0  0  0  0  0  0  0  0  # atno 17371 bound_to 10713
  140.0654  134.9732  157.1376 LP  0  0  0  0  0  0  0  0  0  0  0  0  # atno 17394 bound_to 11000
  140.3788  134.2310  155.7172 LP  0  0  0  0  0  0  0  0  0  0  0  0  # atno 17395 bound_to 11000

$$$$
