AV-unprocessed.smi:2447|AV-procd|sdf|9650|dock5
  -GOLD-   2272013283D 1   1.00000     0.00000
 Structure written by MMmdl.
 29 30  0  0  0  0  0  0  0  0  2 V2000
  149.8502  138.5929  153.1588 N   0  0  0  0  0  0  0  0  0  0  0  0
  150.3207  138.7825  154.3910 C   0  0  0  0  0  0  0  0  0  0  0  0
  150.5092  137.7919  155.0965 O   0  0  0  0  0  0  0  0  0  0  0  0
  150.5324  140.0855  154.7040 N   0  5  0  0  0  0  0  0  0  0  0  0
  150.9398  140.5308  155.9106 C   0  0  0  0  0  0  0  0  0  0  0  0
  150.9485  139.6344  156.9463 N   0  0  0  0  0  0  0  0  0  0  0  0
  151.3887  140.4008  157.9326 C   0  0  0  0  0  0  0  0  0  0  0  0
  151.6356  141.6553  157.5662 N   0  0  0  0  0  0  0  0  0  0  0  0
  152.1226  142.7850  158.3423 C   0  0  0  0  0  0  0  0  0  0  0  0
  152.2157  142.4421  159.8436 C   0  0  0  0  0  0  0  0  0  0  0  0
  152.7413  143.6364  160.6566 C   0  0  0  0  0  0  0  0  0  0  0  0
  151.8776  144.8877  160.4285 C   0  0  0  0  0  0  0  0  0  0  0  0
  151.7811  145.2339  158.9338 C   0  0  0  0  0  0  0  0  0  0  0  0
  151.2547  144.0408  158.1195 C   0  0  0  0  0  0  0  0  0  0  0  0
  151.3487  141.7621  156.2479 N   0  0  0  0  0  0  0  0  0  0  0  0
  149.6602  137.6575  152.8321 H   0  0  0  0  0  0  0  0  0  0  0  0
  149.6878  139.3905  152.5622 H   0  0  0  0  0  0  0  0  0  0  0  0
  151.5330  140.0386  158.9397 H   0  0  0  0  0  0  0  0  0  0  0  0
  153.1300  143.0047  157.9845 H   0  0  0  0  0  0  0  0  0  0  0  0
  151.2344  142.1542  160.2239 H   0  0  0  0  0  0  0  0  0  0  0  0
  152.8683  141.5808  159.9901 H   0  0  0  0  0  0  0  0  0  0  0  0
  152.7582  143.3843  161.7171 H   0  0  0  0  0  0  0  0  0  0  0  0
  153.7731  143.8468  160.3721 H   0  0  0  0  0  0  0  0  0  0  0  0
  150.8772  144.7172  160.8282 H   0  0  0  0  0  0  0  0  0  0  0  0
  152.2919  145.7318  160.9805 H   0  0  0  0  0  0  0  0  0  0  0  0
  151.1282  146.0958  158.7931 H   0  0  0  0  0  0  0  0  0  0  0  0
  152.7637  145.5260  158.5613 H   0  0  0  0  0  0  0  0  0  0  0  0
  151.2351  144.2979  157.0598 H   0  0  0  0  0  0  0  0  0  0  0  0
  150.2219  143.8387  158.4074 H   0  0  0  0  0  0  0  0  0  0  0  0
  1  2  1  0  0  0  0
  1 16  1  0  0  0  0
  1 17  1  0  0  0  0
  2  3  2  0  0  0  0
  2  4  1  0  0  0  0
  4  5  1  0  0  0  0
  5 15  2  0  0  0  0
  5  6  1  0  0  0  0
  6  7  2  0  0  0  0
  7  8  1  0  0  0  0
  7 18  1  0  0  0  0
  8  9  1  0  0  0  0
  8 15  1  0  0  0  0
  9 14  1  0  0  0  0
  9 10  1  0  0  0  0
  9 19  1  0  0  0  0
 10 11  1  0  0  0  0
 10 20  1  0  0  0  0
 10 21  1  0  0  0  0
 11 12  1  0  0  0  0
 11 22  1  0  0  0  0
 11 23  1  0  0  0  0
 12 13  1  0  0  0  0
 12 24  1  0  0  0  0
 12 25  1  0  0  0  0
 13 14  1  0  0  0  0
 13 26  1  0  0  0  0
 13 27  1  0  0  0  0
 14 28  1  0  0  0  0
 14 29  1  0  0  0  0
M  CHG  1   4  -1
M  END
> <s_m_source_file>
AV-unprocessed.smi

> <i_m_source_file_index>
2447

> <i_lp_mmshare_version>
43012

> <i_f3d_flags>
0

> <s_epik_input>
W05IMl1DKD1PKVtOSF1jMW5bY0hdbihuMSlbQ0hdMltDSDJdW0NIMl1bQ0gyXVtDSDJdW0NIMl0y

> <s_epik_cmdline>
J2VwaWtfcHl0aG9uJywgJy1waCcsICc3LjAnLCAnLXRuJywgJzgnLCAnLW1hJywgJzIwMCcsICctbWV0YWxfYmluZGluZycsICctaW1hZScsICc8aW5maWxlLm1hZT4nLCAnLW9tYWUnLCAnPG91dGZpbGUubWFlPic=

> <r_epik_Ionization_Penalty>
6.34251

> <r_epik_Ionization_Penalty_Charging>
2.59949

> <r_epik_Ionization_Penalty_Neutral>
3.74302

> <r_epik_State_Penalty>
2.59208

> <r_epik_Charging_Adjusted_Penalty>
5.19156

> <i_epik_Tot_Q>
-1

> <i_epik_Tot_abs_Q>
1

> <r_epik_Metal_State_Penalty>
0.11953

> <b_epik_Metal_Only>
1

> <s_lp_Force_Field>
OPLS_2005

> <r_lp_Energy>
9.7345

> <b_lp_Chiralities_Consistent>
1

> <s_lp_Variant>
AV-unprocessed.smi:2447-2

> <Gold.Version>
5.8.1

> <Gold.Id.Protein>
6NUR|6NUR_protein|mol2

> <Gold.PLP.Fitness>
41.9504

> <Gold.PLP.PLP>
-33.2923

> <Gold.PLP.part.hbond>
-2.8347

> <Gold.PLP.part.metal>
0.0000

> <Gold.PLP.part.buried>
-3.0751

> <Gold.PLP.part.nonpolar>
-26.4652

> <Gold.PLP.part.repulsive>
0.3528

> <Gold.PLP.ligand.clash>
0.0000

> <Gold.PLP.ligand.torsion>
0.1817

> <Gold.PLP.Chemscore.Hbond>
3.0000

> <Gold.PLP.Chemscore.CHOScore>
0.0000

> <Gold.PLP.Chemscore.Metal>
0.0000

> <Gold.Chemscore.Hbonds>
donor molecule, donor type, donor heavy atom, donor atom, acceptor molecule, acceptor atom, score
      L1  H     1    16       P1  7948  1.00
      L1  H     1    17       P1  7957  1.00
      P1  H  7989  7998       L1     4  1.00

> <Gold.PLP.Chemscore.Internal.Correction>
0.0214

> <Gold.Rescore>
     Score         DG    S(hbond)    S(metal)    S(lipo)     H(rot)  DE(clash)    DE(int)     intcor
     17.29     -19.11       2.38        0.00      70.52       1.00       0.13       1.69       ----

> <Gold.Chemscore.Fitness>
17.2908

> <Gold.Chemscore.DG>
-19.1129

> <Gold.Chemscore.ZeroCoef>
-5.4800

> <Gold.Chemscore.Hbond>
2.3778

> <Gold.Chemscore.Metal>
0.0000

> <Gold.Chemscore.Lipo>
70.5230

> <Gold.Chemscore.Internal_Hbond>
0.0000

> <Gold.Chemscore.DEClash>
0.1334

> <Gold.Chemscore.DEInternal>
1.6887

> <Gold.Chemscore.Rot>
1.0000

> <Gold.Chemscore.Internal.Correction>
   9.000000E+99

> <Gold.Chemscore.Hbonds>
donor molecule, donor type, donor heavy atom, donor atom, acceptor molecule, acceptor atom, score
      L1  H     1    16       P1  7948  0.60
      L1  H     1    17       P1  7957  0.88
      P1  H  7989  7998       L1     4  0.43

> <Gold.Chemscore.Hbond.Weighted>
-7.9417

> <Gold.Chemscore.Metal.Weighted>
-0.0000

> <Gold.Chemscore.Lipo.Weighted>
-8.2512

> <Gold.Chemscore.Internal_Hbond.Weighted>
0.0000

> <Gold.Chemscore.DEClash.Weighted>
0.1334

> <Gold.Chemscore.DEInternal.Weighted>
1.6887

> <Gold.Chemscore.Rot.Weighted>
2.5600

> <Gold.Chemscore.Internal.Correction.Weighted>
   9.000000E+99

> <Gold.Protein.RotatedTorsions>
[ 6907 6896 6895 6894 ] final -108.46 input  -60.11 | X-H torsion
[ 7974 7965 7964 7962 ] final  -49.76 input  175.53 | X-H torsion
[ 8008 7997 7996 7995 ] final  -45.32 input   59.86 | X-H torsion
[ 10167 10162 10161 10158 ] final -133.79 input  -65.29 | X-H torsion
[ 10718 10713 10712 10709 ] final   11.96 input   66.30 | X-H torsion
[ 10763 10752 10751 10750 ] final   88.22 input  -60.55 | X-H torsion
[ 11005 11000 10999 10996 ] final -139.20 input  -57.11 | X-H torsion

> <Gold.Protein.ActiveResidues>
 VAL166  LYS551  ARG553  GLY616  TRP617  ASP618  TYR619  PRO620  LYS621  CYS622 
 ASP623  PHE694  ASN695  SER759  ASP760  ASP761  ALA762  ILE779  LEU786  VAL792 
 PHE793  MET794  SER795  GLU796  ALA797  LYS798  CYS799  TRP800  GLU811  SER814 

> <Gold.Protein.RotatedAtoms>
  150.7503  133.9675  159.3534 H   0  0  0  0  0  0  0  0  0  0  0  0  # atno 6907 bound_to 6896
  151.7605  135.0809  160.0354 H   0  0  0  0  0  0  0  0  0  0  0  0  # atno 6908 bound_to 6896
  152.3406  133.6025  159.5909 H   0  0  0  0  0  0  0  0  0  0  0  0  # atno 6909 bound_to 6896
  145.9371  140.7696  142.9570 H   0  0  0  0  0  0  0  0  0  0  0  0  # atno 7974 bound_to 7965
  154.4000  140.1400  156.3827 H   0  0  0  0  0  0  0  0  0  0  0  0  # atno 8008 bound_to 7997
  155.7988  140.3476  155.5370 H   0  0  0  0  0  0  0  0  0  0  0  0  # atno 8009 bound_to 7997
  155.8504  140.0940  157.1668 H   0  0  0  0  0  0  0  0  0  0  0  0  # atno 8010 bound_to 7997
  139.8947  143.6680  152.2606 H   0  0  0  0  0  0  0  0  0  0  0  0  # atno 10167 bound_to 10162
  157.0032  130.6088  149.5699 H   0  0  0  0  0  0  0  0  0  0  0  0  # atno 10718 bound_to 10713
  153.1746  135.4515  154.9948 H   0  0  0  0  0  0  0  0  0  0  0  0  # atno 10763 bound_to 10752
  154.7989  135.3248  154.7600 H   0  0  0  0  0  0  0  0  0  0  0  0  # atno 10764 bound_to 10752
  153.8072  135.6958  153.4901 H   0  0  0  0  0  0  0  0  0  0  0  0  # atno 10765 bound_to 10752
  140.8543  134.2248  157.4743 H   0  0  0  0  0  0  0  0  0  0  0  0  # atno 11005 bound_to 11000
  144.6773  140.2220  143.7365 LP  0  0  0  0  0  0  0  0  0  0  0  0  # atno 17320 bound_to 7965
  145.8349  139.2103  143.1861 LP  0  0  0  0  0  0  0  0  0  0  0  0  # atno 17321 bound_to 7965
  139.7078  144.7625  151.1162 LP  0  0  0  0  0  0  0  0  0  0  0  0  # atno 17342 bound_to 10162
  140.7719  143.5370  150.9356 LP  0  0  0  0  0  0  0  0  0  0  0  0  # atno 17343 bound_to 10162
  156.0163  130.5257  150.8144 LP  0  0  0  0  0  0  0  0  0  0  0  0  # atno 17370 bound_to 10713
  157.5375  131.0939  150.9873 LP  0  0  0  0  0  0  0  0  0  0  0  0  # atno 17371 bound_to 10713
  139.8705  134.9698  156.4680 LP  0  0  0  0  0  0  0  0  0  0  0  0  # atno 17394 bound_to 11000
  140.8755  133.7956  155.9410 LP  0  0  0  0  0  0  0  0  0  0  0  0  # atno 17395 bound_to 11000

$$$$
