AV-unprocessed.smi:2692|AV-procd|sdf|10394|dock5
  -GOLD-   2272014433D 1   1.00000     0.00000
 Structure written by MMmdl.
 21 21  0  0  0  0  0  0  0  0  4 V2000
  147.5312  142.6660  154.2813 N   0  3  0  0  0  0  0  0  0  0  0  0
  147.6748  141.4438  155.0903 C   0  0  0  0  0  0  0  0  0  0  0  0
  149.0782  141.3408  155.7053 C   0  0  0  0  0  0  0  0  0  0  0  0
  149.9022  140.2359  155.0725 C   0  0  0  0  0  0  0  0  0  0  0  0
  149.3286  139.3564  154.1278 C   0  0  0  0  0  0  0  0  0  0  0  0
  150.0798  138.3802  153.5715 N   0  3  0  0  0  0  0  0  0  0  0  0
  151.3826  138.1952  153.8759 C   0  0  0  0  0  0  0  0  0  0  0  0
  152.0091  139.0424  154.8117 C   0  0  0  0  0  0  0  0  0  0  0  0
  153.3239  138.8690  155.1264 O   0  5  0  0  0  0  0  0  0  0  0  0
  151.2615  140.0718  155.4189 C   0  0  0  0  0  0  0  0  0  0  0  0
  147.8257  142.4788  153.3332 H   0  0  0  0  0  0  0  0  0  0  0  0
  148.1066  143.3989  154.6714 H   0  0  0  0  0  0  0  0  0  0  0  0
  146.9165  141.4511  155.8740 H   0  0  0  0  0  0  0  0  0  0  0  0
  147.4727  140.5812  154.4544 H   0  0  0  0  0  0  0  0  0  0  0  0
  149.6117  142.2847  155.5840 H   0  0  0  0  0  0  0  0  0  0  0  0
  149.0050  141.1632  156.7793 H   0  0  0  0  0  0  0  0  0  0  0  0
  148.2999  139.4014  153.8014 H   0  0  0  0  0  0  0  0  0  0  0  0
  151.8795  137.3827  153.3659 H   0  0  0  0  0  0  0  0  0  0  0  0
  149.6465  137.7549  152.8919 H   0  0  0  0  0  0  0  0  0  0  0  0
  151.7271  140.7285  156.1397 H   0  0  0  0  0  0  0  0  0  0  0  0
  146.5653  142.9610  154.2809 H   0  0  0  0  0  0  0  0  0  0  0  0
  1  2  1  0  0  0  0
  1 11  1  0  0  0  0
  1 12  1  0  0  0  0
  1 21  1  0  0  0  0
  2  3  1  0  0  0  0
  2 13  1  0  0  0  0
  2 14  1  0  0  0  0
  3 15  1  0  0  0  0
  3 16  1  0  0  0  0
  3  4  1  0  0  0  0
  4  5  1  0  0  0  0
  4 10  2  0  0  0  0
  5  6  2  0  0  0  0
  5 17  1  0  0  0  0
  6  7  1  0  0  0  0
  6 19  1  0  0  0  0
  7  8  2  0  0  0  0
  7 18  1  0  0  0  0
  8  9  1  0  0  0  0
  8 10  1  0  0  0  0
 10 20  1  0  0  0  0
M  CHG  1   1   1
M  CHG  1   6   1
M  CHG  1   9  -1
M  END
> <s_m_source_file>
AV-unprocessed.smi

> <i_m_source_file_index>
2692

> <i_lp_mmshare_version>
43012

> <i_f3d_flags>
0

> <s_epik_input>
W05IMl1bQ0gyXVtDSDJdYzFbY0hdbltjSF1jKFtPSF0pW2NIXTE=

> <s_epik_cmdline>
J2VwaWtfcHl0aG9uJywgJy1waCcsICc3LjAnLCAnLXRuJywgJzgnLCAnLW1hJywgJzIwMCcsICctbWV0YWxfYmluZGluZycsICctaW1hZScsICc8aW5maWxlLm1hZT4nLCAnLW9tYWUnLCAnPG91dGZpbGUubWFlPic=

> <r_lp_tautomer_probability>
0.56342

> <r_epik_Ionization_Penalty>
0.0470523

> <r_epik_Ionization_Penalty_Charging>
0.0470523

> <r_epik_Ionization_Penalty_Neutral>
0

> <r_epik_State_Penalty>
0.376149

> <r_epik_Charging_Adjusted_Penalty>
0.423201

> <i_epik_Tot_Q>
1

> <i_epik_Tot_abs_Q>
3

> <r_epik_Metal_State_Penalty>
2.7829

> <b_epik_Metal_Only>
0

> <s_lp_Force_Field>
OPLS_2005

> <r_lp_Energy>
5.09983

> <b_lp_Chiralities_Consistent>
1

> <s_lp_Variant>
AV-unprocessed.smi:2692-1

> <Gold.Version>
5.8.1

> <Gold.Id.Protein>
6NUR|6NUR_protein|mol2

> <Gold.PLP.Fitness>
39.3811

> <Gold.PLP.PLP>
-22.1477

> <Gold.PLP.part.hbond>
-3.7425

> <Gold.PLP.part.metal>
0.0000

> <Gold.PLP.part.buried>
-1.7278

> <Gold.PLP.part.nonpolar>
-16.4601

> <Gold.PLP.part.repulsive>
0.2757

> <Gold.PLP.ligand.clash>
0.0000

> <Gold.PLP.ligand.torsion>
0.3834

> <Gold.PLP.Chemscore.Hbond>
6.0000

> <Gold.PLP.Chemscore.CHOScore>
0.0000

> <Gold.PLP.Chemscore.Metal>
0.0000

> <Gold.Chemscore.Hbonds>
donor molecule, donor type, donor heavy atom, donor atom, acceptor molecule, acceptor atom, score
      L1  H     1    12       P1  8028  2.00
      L1  H     6    19       P1  7948  2.00
      P1  H  7997  8008       L1     9  1.98

> <Gold.PLP.Chemscore.Internal.Correction>
0.0002

> <Gold.Rescore>
     Score         DG    S(hbond)    S(metal)    S(lipo)     H(rot)  DE(clash)    DE(int)     intcor
     16.06     -16.69       2.77        0.00      46.48       1.36       0.16       0.47       ----

> <Gold.Chemscore.Fitness>
16.0568

> <Gold.Chemscore.DG>
-16.6868

> <Gold.Chemscore.ZeroCoef>
-5.4800

> <Gold.Chemscore.Hbond>
2.7732

> <Gold.Chemscore.Metal>
0.0000

> <Gold.Chemscore.Lipo>
46.4766

> <Gold.Chemscore.Internal_Hbond>
0.0000

> <Gold.Chemscore.DEClash>
0.1634

> <Gold.Chemscore.DEInternal>
0.4666

> <Gold.Chemscore.Rot>
1.3646

> <Gold.Chemscore.Internal.Correction>
   9.000000E+99

> <Gold.Chemscore.Hbonds>
donor molecule, donor type, donor heavy atom, donor atom, acceptor molecule, acceptor atom, score
      L1  H     1    12       P1  8028  0.91
      L1  H     6    19       P1  7948  0.65
      P1  H  7997  8008       L1     9  0.94

> <Gold.Chemscore.Hbond.Weighted>
-9.2624

> <Gold.Chemscore.Metal.Weighted>
-0.0000

> <Gold.Chemscore.Lipo.Weighted>
-5.4378

> <Gold.Chemscore.Internal_Hbond.Weighted>
0.0000

> <Gold.Chemscore.DEClash.Weighted>
0.1634

> <Gold.Chemscore.DEInternal.Weighted>
0.4666

> <Gold.Chemscore.Rot.Weighted>
3.4934

> <Gold.Chemscore.Internal.Correction.Weighted>
   9.000000E+99

> <Gold.Protein.RotatedTorsions>
[ 6907 6896 6895 6894 ] final  -98.09 input  -60.11 | X-H torsion
[ 7974 7965 7964 7962 ] final -130.28 input  175.53 | X-H torsion
[ 8008 7997 7996 7995 ] final  -29.94 input   59.86 | X-H torsion
[ 10167 10162 10161 10158 ] final -177.41 input  -65.29 | X-H torsion
[ 10718 10713 10712 10709 ] final  153.08 input   66.30 | X-H torsion
[ 10763 10752 10751 10750 ] final  114.59 input  -60.55 | X-H torsion
[ 11005 11000 10999 10996 ] final   98.67 input  -57.11 | X-H torsion

> <Gold.Protein.ActiveResidues>
 VAL166  LYS551  ARG553  GLY616  TRP617  ASP618  TYR619  PRO620  LYS621  CYS622 
 ASP623  PHE694  ASN695  SER759  ASP760  ASP761  ALA762  ILE779  LEU786  VAL792 
 PHE793  MET794  SER795  GLU796  ALA797  LYS798  CYS799  TRP800  GLU811  SER814 

> <Gold.Protein.RotatedAtoms>
  150.7036  134.1248  159.4047 H   0  0  0  0  0  0  0  0  0  0  0  0  # atno 6907 bound_to 6896
  151.9235  135.0286  160.0533 H   0  0  0  0  0  0  0  0  0  0  0  0  # atno 6908 bound_to 6896
  152.2236  133.4968  159.5213 H   0  0  0  0  0  0  0  0  0  0  0  0  # atno 6909 bound_to 6896
  144.9490  140.7323  143.4799 H   0  0  0  0  0  0  0  0  0  0  0  0  # atno 7974 bound_to 7965
  154.4270  140.1805  156.1327 H   0  0  0  0  0  0  0  0  0  0  0  0  # atno 8008 bound_to 7997
  156.0054  140.3356  155.6862 H   0  0  0  0  0  0  0  0  0  0  0  0  # atno 8009 bound_to 7997
  155.6184  140.0657  157.2676 H   0  0  0  0  0  0  0  0  0  0  0  0  # atno 8010 bound_to 7997
  139.5482  144.2180  152.1027 H   0  0  0  0  0  0  0  0  0  0  0  0  # atno 10167 bound_to 10162
  157.2494  131.0775  151.1740 H   0  0  0  0  0  0  0  0  0  0  0  0  # atno 10718 bound_to 10713
  153.5095  135.3621  155.2580 H   0  0  0  0  0  0  0  0  0  0  0  0  # atno 10763 bound_to 10752
  154.8743  135.4019  154.3385 H   0  0  0  0  0  0  0  0  0  0  0  0  # atno 10764 bound_to 10752
  153.4035  135.7075  153.6475 H   0  0  0  0  0  0  0  0  0  0  0  0  # atno 10765 bound_to 10752
  139.8772  134.9060  156.4491 H   0  0  0  0  0  0  0  0  0  0  0  0  # atno 11005 bound_to 11000
  145.2873  139.1896  143.4759 LP  0  0  0  0  0  0  0  0  0  0  0  0  # atno 17320 bound_to 7965
  146.3314  140.2845  142.8612 LP  0  0  0  0  0  0  0  0  0  0  0  0  # atno 17321 bound_to 7965
  140.1671  144.4971  150.6600 LP  0  0  0  0  0  0  0  0  0  0  0  0  # atno 17342 bound_to 10162
  140.6736  143.2296  151.5563 LP  0  0  0  0  0  0  0  0  0  0  0  0  # atno 17343 bound_to 10162
  157.3294  130.6977  149.6315 LP  0  0  0  0  0  0  0  0  0  0  0  0  # atno 17370 bound_to 10713
  155.9667  130.4312  150.4909 LP  0  0  0  0  0  0  0  0  0  0  0  0  # atno 17371 bound_to 10713
  140.8945  133.7824  155.9609 LP  0  0  0  0  0  0  0  0  0  0  0  0  # atno 17394 bound_to 11000
  140.8718  134.2717  157.5187 LP  0  0  0  0  0  0  0  0  0  0  0  0  # atno 17395 bound_to 11000

$$$$
