AV-unprocessed.smi:2895|AV-procd|sdf|11133|dock2
  -GOLD-   2272016 03D 1   1.00000     0.00000
 Structure written by MMmdl.
 54 57  0  0  0  0  0  0  0  0  3 V2000
  150.5532  136.6938  159.2870 O   0  0  0  0  0  0  0  0  0  0  0  0
  149.7839  137.6170  159.0144 C   0  0  0  0  0  0  0  0  0  0  0  0
  148.4645  137.5323  159.2635 N   0  0  0  0  0  0  0  0  0  0  0  0
  147.7934  136.3873  159.8676 C   0  0  0  0  0  0  0  0  0  0  0  0
  147.5802  136.5887  161.3764 C   0  0  0  0  0  0  0  0  0  0  0  0
  146.4851  135.6928  161.9224 C   0  0  0  0  0  0  0  0  0  0  0  0
  145.2539  136.2418  162.3440 C   0  0  0  0  0  0  0  0  0  0  0  0
  144.2540  135.3834  162.8456 C   0  0  0  0  0  0  0  0  0  0  0  0
  144.4819  134.0534  162.9157 N   0  3  0  0  0  0  0  0  0  0  0  0
  145.6439  133.4881  162.5209 C   0  0  0  0  0  0  0  0  0  0  0  0
  146.6804  134.2967  162.0114 C   0  0  0  0  0  0  0  0  0  0  0  0
  150.1950  138.7945  158.4709 N   0  0  0  0  0  0  0  0  0  0  0  0
  149.2538  139.8240  157.9699 C   0  0  0  0  0  0  0  0  0  0  0  0
  149.8636  140.8078  156.9568 C   0  0  0  0  0  0  0  0  0  0  0  0
  151.1752  141.3330  157.4000 N   0  3  0  0  0  0  0  0  0  0  0  0
  151.1431  142.2271  158.6008 C   0  0  1  0  0  0  0  0  0  0  0  0
  152.5580  142.4744  159.1884 C   0  0  0  0  0  0  0  0  0  0  0  0
  152.6627  144.0070  159.2486 C   0  0  2  0  0  0  0  0  0  0  0  0
  151.7047  144.5513  160.3220 C   0  0  0  0  0  0  0  0  0  0  0  0
  150.3255  144.3530  159.6696 C   0  0  0  0  0  0  0  0  0  0  0  0
  150.6726  143.6829  158.3254 C   0  0  1  0  0  0  0  0  0  0  0  0
  151.9639  144.4043  157.9560 C   0  0  0  0  0  0  0  0  0  0  0  0
  152.1128  140.1928  157.5277 C   0  0  0  0  0  0  0  0  0  0  0  0
  151.6316  139.1383  158.5436 C   0  0  0  0  0  0  0  0  0  0  0  0
  147.8864  138.3262  159.0285 H   0  0  0  0  0  0  0  0  0  0  0  0
  146.8408  136.2035  159.3676 H   0  0  0  0  0  0  0  0  0  0  0  0
  148.4095  135.5048  159.6930 H   0  0  0  0  0  0  0  0  0  0  0  0
  148.5061  136.3853  161.9161 H   0  0  0  0  0  0  0  0  0  0  0  0
  147.3248  137.6282  161.5873 H   0  0  0  0  0  0  0  0  0  0  0  0
  145.0758  137.3060  162.2835 H   0  0  0  0  0  0  0  0  0  0  0  0
  143.2864  135.7180  163.1900 H   0  0  0  0  0  0  0  0  0  0  0  0
  145.7088  132.4147  162.6234 H   0  0  0  0  0  0  0  0  0  0  0  0
  147.6111  133.8501  161.6927 H   0  0  0  0  0  0  0  0  0  0  0  0
  148.3888  139.3723  157.4820 H   0  0  0  0  0  0  0  0  0  0  0  0
  148.8684  140.3750  158.8290 H   0  0  0  0  0  0  0  0  0  0  0  0
  150.0149  140.2852  156.0109 H   0  0  0  0  0  0  0  0  0  0  0  0
  149.1609  141.6024  156.7175 H   0  0  0  0  0  0  0  0  0  0  0  0
  150.4979  141.7773  159.3561 H   0  0  0  0  0  0  0  0  0  0  0  0
  152.6889  142.0091  160.1662 H   0  0  0  0  0  0  0  0  0  0  0  0
  153.3443  142.0953  158.5346 H   0  0  0  0  0  0  0  0  0  0  0  0
  153.6855  144.3712  159.3495 H   0  0  0  0  0  0  0  0  0  0  0  0
  151.7993  144.0185  161.2691 H   0  0  0  0  0  0  0  0  0  0  0  0
  151.8910  145.6094  160.5117 H   0  0  0  0  0  0  0  0  0  0  0  0
  149.6566  143.7469  160.2817 H   0  0  0  0  0  0  0  0  0  0  0  0
  149.8406  145.3163  159.5058 H   0  0  0  0  0  0  0  0  0  0  0  0
  149.8653  143.7999  157.6062 H   0  0  0  0  0  0  0  0  0  0  0  0
  151.8408  145.4831  157.8449 H   0  0  0  0  0  0  0  0  0  0  0  0
  152.4437  144.0046  157.0610 H   0  0  0  0  0  0  0  0  0  0  0  0
  152.2087  139.7225  156.5481 H   0  0  0  0  0  0  0  0  0  0  0  0
  153.1176  140.5259  157.7850 H   0  0  0  0  0  0  0  0  0  0  0  0
  151.8327  139.4948  159.5548 H   0  0  0  0  0  0  0  0  0  0  0  0
  152.2564  138.2532  158.4099 H   0  0  0  0  0  0  0  0  0  0  0  0
  151.5207  141.9054  156.6427 H   0  0  0  0  0  0  0  0  0  0  0  0
  143.7448  133.4505  163.2823 H   0  0  0  0  0  0  0  0  0  0  0  0
  1  2  2  0  0  0  0
  2  3  1  0  0  0  0
  2 12  1  0  0  0  0
  3  4  1  0  0  0  0
  3 25  1  0  0  0  0
  4  5  1  0  0  0  0
  4 26  1  0  0  0  0
  4 27  1  0  0  0  0
  5  6  1  0  0  0  0
  5 28  1  0  0  0  0
  5 29  1  0  0  0  0
  6 11  1  0  0  0  0
  6  7  2  0  0  0  0
  7  8  1  0  0  0  0
  7 30  1  0  0  0  0
  8  9  2  0  0  0  0
  8 31  1  0  0  0  0
  9 10  1  0  0  0  0
  9 54  1  0  0  0  0
 10 11  2  0  0  0  0
 10 32  1  0  0  0  0
 11 33  1  0  0  0  0
 12 24  1  0  0  0  0
 12 13  1  0  0  0  0
 13 14  1  0  0  0  0
 13 34  1  0  0  0  0
 13 35  1  0  0  0  0
 14 15  1  0  0  0  0
 14 36  1  0  0  0  0
 14 37  1  0  0  0  0
 15 16  1  0  0  0  0
 15 23  1  0  0  0  0
 15 53  1  0  0  0  0
 16 21  1  0  0  0  0
 16 17  1  0  0  0  0
 16 38  1  0  0  0  0
 17 18  1  0  0  0  0
 17 39  1  0  0  0  0
 17 40  1  0  0  0  0
 18 22  1  0  0  0  0
 18 19  1  0  0  0  0
 18 41  1  0  0  0  0
 19 20  1  0  0  0  0
 19 42  1  0  0  0  0
 19 43  1  0  0  0  0
 20 21  1  0  0  0  0
 20 44  1  0  0  0  0
 20 45  1  0  0  0  0
 21 22  1  0  0  0  0
 21 46  1  0  0  0  0
 22 47  1  0  0  0  0
 22 48  1  0  0  0  0
 23 24  1  0  0  0  0
 23 49  1  0  0  0  0
 23 50  1  0  0  0  0
 24 51  1  0  0  0  0
 24 52  1  0  0  0  0
M  CHG  1   9   1
M  CHG  1  15   1
M  END
> <s_m_source_file>
AV-unprocessed.smi

> <i_m_source_file_index>
2895

> <i_lp_mmshare_version>
43012

> <i_f3d_flags>
0

> <s_epik_input>
W0NIMl0xW0NIMl1bQ0BASF0oW0NIMl0yKVtDQEBIXShbQ0gyXVtDQEhdMTIpTihbQ0gyXVtDSDJdMylbQ0gyXVtDSDJdTjNDKD1PKVtOSF1bQ0gyXVtDSDJdYzRbY0hdW2NIXW5bY0hdW2NIXTQ=

> <s_epik_cmdline>
J2VwaWtfcHl0aG9uJywgJy1waCcsICc3LjAnLCAnLXRuJywgJzgnLCAnLW1hJywgJzIwMCcsICctbWV0YWxfYmluZGluZycsICctaW1hZScsICc8aW5maWxlLm1hZT4nLCAnLW9tYWUnLCAnPG91dGZpbGUubWFlPic=

> <r_epik_Ionization_Penalty>
1.44916

> <r_epik_Ionization_Penalty_Charging>
1.44913

> <r_epik_Ionization_Penalty_Neutral>
2.64641e-05

> <r_epik_State_Penalty>
1.53218

> <r_epik_Charging_Adjusted_Penalty>
2.98131

> <i_epik_Tot_Q>
2

> <i_epik_Tot_abs_Q>
2

> <r_epik_Metal_State_Penalty>
1.58241

> <b_epik_Metal_Only>
0

> <s_lp_Force_Field>
OPLS_2005

> <r_lp_Energy>
108.8

> <b_lp_Chiralities_Consistent>
1

> <s_lp_Variant>
AV-unprocessed.smi:2895-6

> <Gold.Version>
5.8.1

> <Gold.Id.Protein>
6NUR|6NUR_protein|mol2

> <Gold.PLP.Fitness>
50.7912

> <Gold.PLP.PLP>
-49.2030

> <Gold.PLP.part.hbond>
-1.0000

> <Gold.PLP.part.metal>
0.0000

> <Gold.PLP.part.buried>
-6.4035

> <Gold.PLP.part.nonpolar>
-42.7330

> <Gold.PLP.part.repulsive>
0.3746

> <Gold.PLP.ligand.clash>
0.0941

> <Gold.PLP.ligand.torsion>
0.7732

> <Gold.PLP.Chemscore.Hbond>
1.0000

> <Gold.PLP.Chemscore.CHOScore>
0.0000

> <Gold.PLP.Chemscore.Metal>
0.0000

> <Gold.Chemscore.Hbonds>
donor molecule, donor type, donor heavy atom, donor atom, acceptor molecule, acceptor atom, score
      P1  H  6896  6907       L1     1  1.00

> <Gold.PLP.Chemscore.Internal.Correction>
0.2287

> <Gold.Rescore>
     Score         DG    S(hbond)    S(metal)    S(lipo)     H(rot)  DE(clash)    DE(int)     intcor
     21.36     -21.86       1.00        0.00     143.40       1.46       0.02       0.48       ----

> <Gold.Chemscore.Fitness>
21.3580

> <Gold.Chemscore.DG>
-21.8570

> <Gold.Chemscore.ZeroCoef>
-5.4800

> <Gold.Chemscore.Hbond>
0.9968

> <Gold.Chemscore.Metal>
0.0000

> <Gold.Chemscore.Lipo>
143.4032

> <Gold.Chemscore.Internal_Hbond>
0.0000

> <Gold.Chemscore.DEClash>
0.0206

> <Gold.Chemscore.DEInternal>
0.4784

> <Gold.Chemscore.Rot>
1.4572

> <Gold.Chemscore.Internal.Correction>
   9.000000E+99

> <Gold.Chemscore.Hbonds>
donor molecule, donor type, donor heavy atom, donor atom, acceptor molecule, acceptor atom, score
      P1  H  6896  6907       L1     1  0.99

> <Gold.Chemscore.Hbond.Weighted>
-3.3294

> <Gold.Chemscore.Metal.Weighted>
-0.0000

> <Gold.Chemscore.Lipo.Weighted>
-16.7782

> <Gold.Chemscore.Internal_Hbond.Weighted>
0.0000

> <Gold.Chemscore.DEClash.Weighted>
0.0206

> <Gold.Chemscore.DEInternal.Weighted>
0.4784

> <Gold.Chemscore.Rot.Weighted>
3.7305

> <Gold.Chemscore.Internal.Correction.Weighted>
   9.000000E+99

> <Gold.Protein.RotatedTorsions>
[ 6907 6896 6895 6894 ] final  -39.90 input  -60.11 | X-H torsion
[ 7974 7965 7964 7962 ] final  157.90 input  175.53 | X-H torsion
[ 8008 7997 7996 7995 ] final -160.73 input   59.86 | X-H torsion
[ 10167 10162 10161 10158 ] final   21.91 input  -65.29 | X-H torsion
[ 10718 10713 10712 10709 ] final  127.16 input   66.30 | X-H torsion
[ 10763 10752 10751 10750 ] final   47.81 input  -60.55 | X-H torsion
[ 11005 11000 10999 10996 ] final -152.78 input  -57.11 | X-H torsion

> <Gold.Protein.ActiveResidues>
 VAL166  LYS551  ARG553  GLY616  TRP617  ASP618  TYR619  PRO620  LYS621  CYS622 
 ASP623  PHE694  ASN695  SER759  ASP760  ASP761  ALA762  ILE779  LEU786  VAL792 
 PHE793  MET794  SER795  GLU796  ALA797  LYS798  CYS799  TRP800  GLU811  SER814 

> <Gold.Protein.RotatedAtoms>
  150.9848  134.9195  159.7864 H   0  0  0  0  0  0  0  0  0  0  0  0  # atno 6907 bound_to 6896
  152.5233  134.3362  159.9210 H   0  0  0  0  0  0  0  0  0  0  0  0  # atno 6908 bound_to 6896
  151.3368  133.3937  159.2702 H   0  0  0  0  0  0  0  0  0  0  0  0  # atno 6909 bound_to 6896
  144.7876  139.7404  143.6234 H   0  0  0  0  0  0  0  0  0  0  0  0  # atno 7974 bound_to 7965
  155.7818  140.0866  157.2055 H   0  0  0  0  0  0  0  0  0  0  0  0  # atno 8008 bound_to 7997
  154.3990  140.1506  156.3118 H   0  0  0  0  0  0  0  0  0  0  0  0  # atno 8009 bound_to 7997
  155.8646  140.3428  155.5782 H   0  0  0  0  0  0  0  0  0  0  0  0  # atno 8010 bound_to 7997
  140.5389  143.9711  150.6508 H   0  0  0  0  0  0  0  0  0  0  0  0  # atno 10167 bound_to 10162
  157.5357  131.1097  150.8939 H   0  0  0  0  0  0  0  0  0  0  0  0  # atno 10718 bound_to 10713
  152.9797  135.5964  154.3823 H   0  0  0  0  0  0  0  0  0  0  0  0  # atno 10763 bound_to 10752
  154.3486  135.2767  155.2386 H   0  0  0  0  0  0  0  0  0  0  0  0  # atno 10764 bound_to 10752
  154.4435  135.6007  153.6200 H   0  0  0  0  0  0  0  0  0  0  0  0  # atno 10765 bound_to 10752
  140.7153  134.3788  157.5192 H   0  0  0  0  0  0  0  0  0  0  0  0  # atno 11005 bound_to 11000
  146.2115  139.5475  142.9678 LP  0  0  0  0  0  0  0  0  0  0  0  0  # atno 17320 bound_to 7965
  145.5879  141.0373  143.2086 LP  0  0  0  0  0  0  0  0  0  0  0  0  # atno 17321 bound_to 7965
  140.3106  143.3200  152.0882 LP  0  0  0  0  0  0  0  0  0  0  0  0  # atno 17342 bound_to 10162
  139.4981  144.6638  151.6403 LP  0  0  0  0  0  0  0  0  0  0  0  0  # atno 17343 bound_to 10162
  156.9507  130.5418  149.5282 LP  0  0  0  0  0  0  0  0  0  0  0  0  # atno 17370 bound_to 10713
  156.0457  130.5533  150.8874 LP  0  0  0  0  0  0  0  0  0  0  0  0  # atno 17371 bound_to 10713
  139.8861  134.8918  156.2602 LP  0  0  0  0  0  0  0  0  0  0  0  0  # atno 17394 bound_to 11000
  141.0050  133.7129  156.1020 LP  0  0  0  0  0  0  0  0  0  0  0  0  # atno 17395 bound_to 11000

$$$$
