AV-unprocessed.smi:1683|AV-procd|sdf|6752|dock2
  -GOLD-   22720 7513D 1   1.00000     0.00000
 Structure written by MMmdl.
 37 38  0  0  0  0  0  0  0  0  2 V2000
  149.5148  135.4279  156.2645 O   0  0  0  0  0  0  0  0  0  0  0  0
  149.2778  135.6018  155.0691 C   0  0  0  0  0  0  0  0  0  0  0  0
  148.6812  134.6884  154.2901 N   0  0  0  0  0  0  0  0  0  0  0  0
  148.2252  133.3740  154.7311 C   0  0  0  0  0  0  0  0  0  0  0  0
  147.9239  132.4624  153.5303 C   0  0  1  0  0  0  0  0  0  0  0  0
  147.0964  131.2179  153.8572 C   0  0  0  0  0  0  0  0  0  0  0  0
  146.4130  130.8479  152.5333 C   0  0  0  0  0  0  0  0  0  0  0  0
  146.5509  132.0200  151.6346 N   0  3  1  0  0  0  0  0  0  0  0  0
  145.3438  132.3678  150.8461 C   0  0  0  0  0  0  0  0  0  0  0  0
  145.6685  133.2453  149.6248 C   0  0  0  0  0  0  0  0  0  0  0  0
  144.6558  133.1827  148.7617 F   0  0  0  0  0  0  0  0  0  0  0  0
  145.8293  134.5129  150.0043 F   0  0  0  0  0  0  0  0  0  0  0  0
  146.7745  132.8267  149.0109 F   0  0  0  0  0  0  0  0  0  0  0  0
  147.0844  133.1326  152.4444 C   0  0  0  0  0  0  0  0  0  0  0  0
  149.5765  136.7140  154.3774 N   0  0  0  0  0  0  0  0  0  0  0  0
  150.2009  137.8896  154.8668 C   0  0  0  0  0  0  0  0  0  0  0  0
  150.1665  139.1545  154.2194 C   0  0  0  0  0  0  0  0  0  0  0  0
  150.8362  140.0685  154.9072 N   0  0  0  0  0  0  0  0  0  0  0  0
  151.2977  139.3991  155.9875 N   0  0  0  0  0  0  0  0  0  0  0  0
  150.9356  138.0702  156.0052 C   0  0  0  0  0  0  0  0  0  0  0  0
  151.8524  139.8577  156.6963 H   0  0  0  0  0  0  0  0  0  0  0  0
  148.5323  134.9201  153.3187 H   0  0  0  0  0  0  0  0  0  0  0  0
  148.9987  132.9329  155.3609 H   0  0  0  0  0  0  0  0  0  0  0  0
  147.3294  133.4560  155.3490 H   0  0  0  0  0  0  0  0  0  0  0  0
  148.8659  132.1421  153.0810 H   0  0  0  0  0  0  0  0  0  0  0  0
  147.7027  130.4038  154.2560 H   0  0  0  0  0  0  0  0  0  0  0  0
  146.3366  131.4592  154.6021 H   0  0  0  0  0  0  0  0  0  0  0  0
  146.8979  129.9897  152.0670 H   0  0  0  0  0  0  0  0  0  0  0  0
  145.3694  130.5835  152.7094 H   0  0  0  0  0  0  0  0  0  0  0  0
  144.8152  131.4617  150.5458 H   0  0  0  0  0  0  0  0  0  0  0  0
  144.6624  132.9223  151.4933 H   0  0  0  0  0  0  0  0  0  0  0  0
  146.2587  133.6860  152.8962 H   0  0  0  0  0  0  0  0  0  0  0  0
  147.6646  133.8273  151.8360 H   0  0  0  0  0  0  0  0  0  0  0  0
  149.3302  136.7230  153.3987 H   0  0  0  0  0  0  0  0  0  0  0  0
  149.6872  139.4342  153.2927 H   0  0  0  0  0  0  0  0  0  0  0  0
  151.2270  137.4022  156.8023 H   0  0  0  0  0  0  0  0  0  0  0  0
  147.2797  131.7873  150.9748 H   0  0  0  0  0  0  0  0  0  0  0  0
  1  2  2  0  0  0  0
  2  3  1  0  0  0  0
  2 15  1  0  0  0  0
  3  4  1  0  0  0  0
  3 22  1  0  0  0  0
  4  5  1  0  0  0  0
  4 23  1  0  0  0  0
  4 24  1  0  0  0  0
  5 14  1  0  0  0  0
  5  6  1  0  0  0  0
  5 25  1  0  0  0  0
  6  7  1  0  0  0  0
  6 26  1  0  0  0  0
  6 27  1  0  0  0  0
  7  8  1  0  0  0  0
  7 28  1  0  0  0  0
  7 29  1  0  0  0  0
  8  9  1  0  0  0  0
  8 14  1  0  0  0  0
  8 37  1  0  0  0  0
  9 10  1  0  0  0  0
  9 30  1  0  0  0  0
  9 31  1  0  0  0  0
 10 11  1  0  0  0  0
 10 12  1  0  0  0  0
 10 13  1  0  0  0  0
 14 32  1  0  0  0  0
 14 33  1  0  0  0  0
 15 16  1  0  0  0  0
 15 34  1  0  0  0  0
 16 20  2  0  0  0  0
 16 17  1  0  0  0  0
 17 18  2  0  0  0  0
 17 35  1  0  0  0  0
 18 19  1  0  0  0  0
 19 21  1  0  0  0  0
 19 20  1  0  0  0  0
 20 36  1  0  0  0  0
M  CHG  1   8   1
M  END
> <s_m_source_file>
AV-unprocessed.smi

> <i_m_source_file_index>
1683

> <i_lp_mmshare_version>
43012

> <i_f3d_flags>
0

> <s_epik_input>
W2NIXTFbbkhdbltjSF1jMVtOSF1DKD1PKVtOSF1bQ0gyXVtDQEBIXTJbQ0gyXVtDSDJdTihbQ0gyXTIpW0NIMl1DKEYpKEYpRg==

> <s_epik_cmdline>
J2VwaWtfcHl0aG9uJywgJy1waCcsICc3LjAnLCAnLXRuJywgJzgnLCAnLW1hJywgJzIwMCcsICctbWV0YWxfYmluZGluZycsICctaW1hZScsICc8aW5maWxlLm1hZT4nLCAnLW9tYWUnLCAnPG91dGZpbGUubWFlPic=

> <r_lp_tautomer_probability>
0.5

> <r_epik_Ionization_Penalty>
0.641865

> <r_epik_Ionization_Penalty_Charging>
0.64182

> <r_epik_Ionization_Penalty_Neutral>
4.50685e-05

> <r_epik_State_Penalty>
0.65957

> <r_epik_Charging_Adjusted_Penalty>
1.30139

> <i_epik_Tot_Q>
1

> <i_epik_Tot_abs_Q>
1

> <r_epik_Metal_State_Penalty>
0.659571

> <b_epik_Metal_Only>
0

> <s_lp_Force_Field>
OPLS_2005

> <r_lp_Energy>
31.2098

> <b_lp_Chiralities_Consistent>
1

> <s_lp_Variant>
AV-unprocessed.smi:1683-6

> <Gold.Version>
5.8.1

> <Gold.Id.Protein>
6NUR|6NUR_protein|mol2

> <Gold.PLP.Fitness>
53.6469

> <Gold.PLP.PLP>
-39.1495

> <Gold.PLP.part.hbond>
-5.8806

> <Gold.PLP.part.metal>
0.0000

> <Gold.PLP.part.buried>
-3.5040

> <Gold.PLP.part.nonpolar>
-29.4046

> <Gold.PLP.part.repulsive>
0.4129

> <Gold.PLP.ligand.clash>
0.0000

> <Gold.PLP.ligand.torsion>
0.6567

> <Gold.PLP.Chemscore.Hbond>
4.3002

> <Gold.PLP.Chemscore.CHOScore>
0.8164

> <Gold.PLP.Chemscore.Metal>
0.0000

> <Gold.Chemscore.Hbonds>
donor molecule, donor type, donor heavy atom, donor atom, acceptor molecule, acceptor atom, score
      L1  H     3    22       P1  7948  0.91
      L1  H     8    37       P1 10747  0.93
      L1  H    15    34       P1  7948  1.00
      P1  H  7989  7998       L1    18  0.85
      L1  C    17    35       P1  7957  1.00

> <Gold.PLP.Chemscore.Internal.Correction>
0.4608

> <Gold.Rescore>
     Score         DG    S(hbond)    S(metal)    S(lipo)     H(rot)  DE(clash)    DE(int)     intcor
     12.97     -15.30       2.18        0.00      61.41       1.81       0.57       1.76       ----

> <Gold.Chemscore.Fitness>
12.9690

> <Gold.Chemscore.DG>
-15.3030

> <Gold.Chemscore.ZeroCoef>
-5.4800

> <Gold.Chemscore.Hbond>
2.1784

> <Gold.Chemscore.Metal>
0.0000

> <Gold.Chemscore.Lipo>
61.4098

> <Gold.Chemscore.Internal_Hbond>
0.0000

> <Gold.Chemscore.DEClash>
0.5703

> <Gold.Chemscore.DEInternal>
1.7637

> <Gold.Chemscore.Rot>
1.8116

> <Gold.Chemscore.Internal.Correction>
   9.000000E+99

> <Gold.Chemscore.Hbonds>
donor molecule, donor type, donor heavy atom, donor atom, acceptor molecule, acceptor atom, score
      L1  H     3    22       P1  7948  0.60
      L1  H     8    37       P1 10747  0.88
      L1  H    15    34       P1  7948  0.92
      P1  H  7989  7998       L1    18  0.15

> <Gold.Chemscore.Hbond.Weighted>
-7.2758

> <Gold.Chemscore.Metal.Weighted>
-0.0000

> <Gold.Chemscore.Lipo.Weighted>
-7.1849

> <Gold.Chemscore.Internal_Hbond.Weighted>
0.0000

> <Gold.Chemscore.DEClash.Weighted>
0.5703

> <Gold.Chemscore.DEInternal.Weighted>
1.7637

> <Gold.Chemscore.Rot.Weighted>
4.6378

> <Gold.Chemscore.Internal.Correction.Weighted>
   9.000000E+99

> <Gold.Protein.RotatedTorsions>
[ 6907 6896 6895 6894 ] final -106.47 input  -60.11 | X-H torsion
[ 7974 7965 7964 7962 ] final  -66.78 input  175.53 | X-H torsion
[ 8008 7997 7996 7995 ] final   55.15 input   59.86 | X-H torsion
[ 10167 10162 10161 10158 ] final -129.72 input  -65.29 | X-H torsion
[ 10718 10713 10712 10709 ] final -145.79 input   66.30 | X-H torsion
[ 10763 10752 10751 10750 ] final  -42.65 input  -60.55 | X-H torsion
[ 11005 11000 10999 10996 ] final -153.01 input  -57.11 | X-H torsion

> <Gold.Protein.ActiveResidues>
 VAL166  LYS551  ARG553  GLY616  TRP617  ASP618  TYR619  PRO620  LYS621  CYS622 
 ASP623  PHE694  ASN695  SER759  ASP760  ASP761  ALA762  ILE779  LEU786  VAL792 
 PHE793  MET794  SER795  GLU796  ALA797  LYS798  CYS799  TRP800  GLU811  SER814 

> <Gold.Protein.RotatedAtoms>
  150.7391  133.9972  159.3625 H   0  0  0  0  0  0  0  0  0  0  0  0  # atno 6907 bound_to 6896
  151.7923  135.0730  160.0398 H   0  0  0  0  0  0  0  0  0  0  0  0  # atno 6908 bound_to 6896
  152.3199  133.5806  159.5773 H   0  0  0  0  0  0  0  0  0  0  0  0  # atno 6909 bound_to 6896
  145.7375  140.8969  143.0547 H   0  0  0  0  0  0  0  0  0  0  0  0  # atno 7974 bound_to 7965
  155.4964  140.3473  155.4363 H   0  0  0  0  0  0  0  0  0  0  0  0  # atno 8008 bound_to 7997
  156.0943  140.1419  156.9579 H   0  0  0  0  0  0  0  0  0  0  0  0  # atno 8009 bound_to 7997
  154.4654  140.0919  156.6983 H   0  0  0  0  0  0  0  0  0  0  0  0  # atno 8010 bound_to 7997
  139.9368  143.6208  152.2514 H   0  0  0  0  0  0  0  0  0  0  0  0  # atno 10167 bound_to 10162
  156.3868  130.7865  151.2063 H   0  0  0  0  0  0  0  0  0  0  0  0  # atno 10718 bound_to 10713
  153.9826  135.6715  153.4750 H   0  0  0  0  0  0  0  0  0  0  0  0  # atno 10763 bound_to 10752
  153.0741  135.4958  154.8364 H   0  0  0  0  0  0  0  0  0  0  0  0  # atno 10764 bound_to 10752
  154.7156  135.3106  154.9091 H   0  0  0  0  0  0  0  0  0  0  0  0  # atno 10765 bound_to 10752
  140.7127  134.3814  157.5195 H   0  0  0  0  0  0  0  0  0  0  0  0  # atno 11005 bound_to 11000
  144.6878  139.9415  143.7475 LP  0  0  0  0  0  0  0  0  0  0  0  0  # atno 17320 bound_to 7965
  146.0480  139.3484  143.0657 LP  0  0  0  0  0  0  0  0  0  0  0  0  # atno 17321 bound_to 7965
  139.6737  144.7659  151.1736 LP  0  0  0  0  0  0  0  0  0  0  0  0  # atno 17342 bound_to 10162
  140.7622  143.5827  150.8878 LP  0  0  0  0  0  0  0  0  0  0  0  0  # atno 17343 bound_to 10162
  157.7496  131.0327  150.4241 LP  0  0  0  0  0  0  0  0  0  0  0  0  # atno 17370 bound_to 10713
  156.4495  130.4008  149.6645 LP  0  0  0  0  0  0  0  0  0  0  0  0  # atno 17371 bound_to 10713
  139.8867  134.8901  156.2568 LP  0  0  0  0  0  0  0  0  0  0  0  0  # atno 17394 bound_to 11000
  141.0070  133.7118  156.1051 LP  0  0  0  0  0  0  0  0  0  0  0  0  # atno 17395 bound_to 11000

$$$$
