AV-unprocessed.smi:3058|AV-procd|sdf|11675|dock5
  -GOLD-   2272017 83D 1   1.00000     0.00000
 Structure written by MMmdl.
 39 41  0  0  0  0  0  0  0  0  2 V2000
  150.2474  141.4840  158.7742 O   0  0  0  0  0  0  0  0  0  0  0  0
  149.9421  142.5139  158.1717 C   0  0  0  0  0  0  0  0  0  0  0  0
  149.1814  142.5121  157.0661 N   0  0  0  0  0  0  0  0  0  0  0  0
  148.6120  141.3223  156.4450 C   0  0  0  0  0  0  0  0  0  0  0  0
  149.4204  140.8860  155.2118 C   0  0  0  0  0  0  0  0  0  0  0  0
  148.5377  140.2952  154.1300 C   0  0  0  0  0  0  0  0  0  0  0  0
  147.5194  141.0703  153.5322 C   0  0  0  0  0  0  0  0  0  0  0  0
  146.7148  140.4963  152.5258 C   0  0  0  0  0  0  0  0  0  0  0  0
  146.9477  139.1605  152.1391 C   0  0  0  0  0  0  0  0  0  0  0  0
  147.9321  138.4504  152.7331 N   0  3  0  0  0  0  0  0  0  0  0  0
  148.7236  138.9632  153.7008 C   0  0  0  0  0  0  0  0  0  0  0  0
  150.4504  143.8889  158.6407 C   0  0  2  0  0  0  0  0  0  0  0  0
  151.5606  144.5058  157.7539 C   0  0  0  0  0  0  0  0  0  0  0  0
  152.6705  144.8375  158.7693 C   0  0  2  0  0  0  0  0  0  0  0  0
  153.3494  143.5353  159.2335 C   0  0  0  0  0  0  0  0  0  0  0  0
  152.2913  142.9143  160.1638 C   0  0  0  0  0  0  0  0  0  0  0  0
  151.1109  143.9039  160.0450 C   0  0  1  0  0  0  0  0  0  0  0  0
  151.8623  145.2314  160.0003 C   0  0  0  0  0  0  0  0  0  0  0  0
  148.9811  143.3992  156.6268 H   0  0  0  0  0  0  0  0  0  0  0  0
  148.5577  140.5125  157.1750 H   0  0  0  0  0  0  0  0  0  0  0  0
  147.5856  141.5496  156.1564 H   0  0  0  0  0  0  0  0  0  0  0  0
  149.9650  141.7371  154.8006 H   0  0  0  0  0  0  0  0  0  0  0  0
  150.1730  140.1477  155.4924 H   0  0  0  0  0  0  0  0  0  0  0  0
  147.3564  142.0935  153.8392 H   0  0  0  0  0  0  0  0  0  0  0  0
  145.9308  141.0733  152.0572 H   0  0  0  0  0  0  0  0  0  0  0  0
  146.3817  138.6428  151.3783 H   0  0  0  0  0  0  0  0  0  0  0  0
  149.4765  138.2976  154.0975 H   0  0  0  0  0  0  0  0  0  0  0  0
  149.6033  144.5777  158.6508 H   0  0  0  0  0  0  0  0  0  0  0  0
  151.9207  143.8501  156.9599 H   0  0  0  0  0  0  0  0  0  0  0  0
  151.1964  145.4170  157.2774 H   0  0  0  0  0  0  0  0  0  0  0  0
  153.3725  145.5936  158.4165 H   0  0  0  0  0  0  0  0  0  0  0  0
  153.6010  142.8823  158.3970 H   0  0  0  0  0  0  0  0  0  0  0  0
  154.2674  143.7456  159.7834 H   0  0  0  0  0  0  0  0  0  0  0  0
  152.0400  141.8884  159.8981 H   0  0  0  0  0  0  0  0  0  0  0  0
  152.6617  142.8936  161.1895 H   0  0  0  0  0  0  0  0  0  0  0  0
  150.3932  143.8255  160.8622 H   0  0  0  0  0  0  0  0  0  0  0  0
  152.4783  145.4133  160.8830 H   0  0  0  0  0  0  0  0  0  0  0  0
  151.2138  146.0936  159.8348 H   0  0  0  0  0  0  0  0  0  0  0  0
  148.0846  137.4856  152.4377 H   0  0  0  0  0  0  0  0  0  0  0  0
  1  2  2  0  0  0  0
  2  3  1  0  0  0  0
  2 12  1  0  0  0  0
  3  4  1  0  0  0  0
  3 19  1  0  0  0  0
  4  5  1  0  0  0  0
  4 20  1  0  0  0  0
  4 21  1  0  0  0  0
  5  6  1  0  0  0  0
  5 22  1  0  0  0  0
  5 23  1  0  0  0  0
  6 11  1  0  0  0  0
  6  7  2  0  0  0  0
  7  8  1  0  0  0  0
  7 24  1  0  0  0  0
  8  9  2  0  0  0  0
  8 25  1  0  0  0  0
  9 10  1  0  0  0  0
  9 26  1  0  0  0  0
 10 11  2  0  0  0  0
 10 39  1  0  0  0  0
 11 27  1  0  0  0  0
 12 17  1  0  0  0  0
 12 13  1  0  0  0  0
 12 28  1  0  0  0  0
 13 14  1  0  0  0  0
 13 29  1  0  0  0  0
 13 30  1  0  0  0  0
 14 18  1  0  0  0  0
 14 15  1  0  0  0  0
 14 31  1  0  0  0  0
 15 16  1  0  0  0  0
 15 32  1  0  0  0  0
 15 33  1  0  0  0  0
 16 17  1  0  0  0  0
 16 34  1  0  0  0  0
 16 35  1  0  0  0  0
 17 18  1  0  0  0  0
 17 36  1  0  0  0  0
 18 37  1  0  0  0  0
 18 38  1  0  0  0  0
M  CHG  1  10   1
M  END
> <s_m_source_file>
AV-unprocessed.smi

> <i_m_source_file_index>
3058

> <i_lp_mmshare_version>
43012

> <i_f3d_flags>
0

> <s_epik_input>
W0NIMl0xW0NIMl1bQ0BIXShbQ0gyXTIpW0NAQEhdKFtDSDJdW0NAQEhdMTIpQyg9TylbTkhdW0NIMl1bQ0gyXWMzW2NIXVtjSF1bY0hdbltjSF0z

> <s_epik_cmdline>
J2VwaWtfcHl0aG9uJywgJy1waCcsICc3LjAnLCAnLXRuJywgJzgnLCAnLW1hJywgJzIwMCcsICctbWV0YWxfYmluZGluZycsICctaW1hZScsICc8aW5maWxlLm1hZT4nLCAnLW9tYWUnLCAnPG91dGZpbGUubWFlPic=

> <r_epik_Ionization_Penalty>
2.24375

> <r_epik_Ionization_Penalty_Charging>
2.24375

> <r_epik_Ionization_Penalty_Neutral>
1.89995e-08

> <r_epik_State_Penalty>
2.39035

> <r_epik_Charging_Adjusted_Penalty>
4.63411

> <i_epik_Tot_Q>
1

> <i_epik_Tot_abs_Q>
1

> <r_epik_Metal_State_Penalty>
2.40369

> <b_epik_Metal_Only>
0

> <s_lp_Force_Field>
OPLS_2005

> <r_lp_Energy>
54.0755

> <b_lp_Chiralities_Consistent>
1

> <s_lp_Variant>
AV-unprocessed.smi:3058-7

> <Gold.Version>
5.8.1

> <Gold.Id.Protein>
6NUR|6NUR_protein|mol2

> <Gold.PLP.Fitness>
49.3985

> <Gold.PLP.PLP>
-41.6213

> <Gold.PLP.part.hbond>
-3.5671

> <Gold.PLP.part.metal>
0.0000

> <Gold.PLP.part.buried>
0.6922

> <Gold.PLP.part.nonpolar>
-38.6354

> <Gold.PLP.part.repulsive>
0.0843

> <Gold.PLP.ligand.clash>
0.0000

> <Gold.PLP.ligand.torsion>
0.6171

> <Gold.PLP.Chemscore.Hbond>
3.0000

> <Gold.PLP.Chemscore.CHOScore>
0.0000

> <Gold.PLP.Chemscore.Metal>
0.0000

> <Gold.Chemscore.Hbonds>
donor molecule, donor type, donor heavy atom, donor atom, acceptor molecule, acceptor atom, score
      L1  H     3    19       P1  8028  1.00
      L1  H    10    39       P1  7948  2.00

> <Gold.PLP.Chemscore.Internal.Correction>
0.0113

> <Gold.Rescore>
     Score         DG    S(hbond)    S(metal)    S(lipo)     H(rot)  DE(clash)    DE(int)     intcor
     20.33     -23.86       1.86        0.00     135.78       1.45       1.51       2.01       ----

> <Gold.Chemscore.Fitness>
20.3338

> <Gold.Chemscore.DG>
-23.8560

> <Gold.Chemscore.ZeroCoef>
-5.4800

> <Gold.Chemscore.Hbond>
1.8604

> <Gold.Chemscore.Metal>
0.0000

> <Gold.Chemscore.Lipo>
135.7824

> <Gold.Chemscore.Internal_Hbond>
0.0000

> <Gold.Chemscore.DEClash>
1.5105

> <Gold.Chemscore.DEInternal>
2.0116

> <Gold.Chemscore.Rot>
1.4548

> <Gold.Chemscore.Internal.Correction>
   9.000000E+99

> <Gold.Chemscore.Hbonds>
donor molecule, donor type, donor heavy atom, donor atom, acceptor molecule, acceptor atom, score
      L1  H     3    19       P1  8028  0.92
      L1  H    10    39       P1  7948  0.97

> <Gold.Chemscore.Hbond.Weighted>
-6.2137

> <Gold.Chemscore.Metal.Weighted>
-0.0000

> <Gold.Chemscore.Lipo.Weighted>
-15.8865

> <Gold.Chemscore.Internal_Hbond.Weighted>
0.0000

> <Gold.Chemscore.DEClash.Weighted>
1.5105

> <Gold.Chemscore.DEInternal.Weighted>
2.0116

> <Gold.Chemscore.Rot.Weighted>
3.7242

> <Gold.Chemscore.Internal.Correction.Weighted>
   9.000000E+99

> <Gold.Protein.RotatedTorsions>
[ 6907 6896 6895 6894 ] final -108.39 input  -60.11 | X-H torsion
[ 7974 7965 7964 7962 ] final -168.15 input  175.53 | X-H torsion
[ 8008 7997 7996 7995 ] final  -72.65 input   59.86 | X-H torsion
[ 10167 10162 10161 10158 ] final   30.51 input  -65.29 | X-H torsion
[ 10718 10713 10712 10709 ] final -101.02 input   66.30 | X-H torsion
[ 10763 10752 10751 10750 ] final   -5.33 input  -60.55 | X-H torsion
[ 11005 11000 10999 10996 ] final  166.09 input  -57.11 | X-H torsion

> <Gold.Protein.ActiveResidues>
 VAL166  LYS551  ARG553  GLY616  TRP617  ASP618  TYR619  PRO620  LYS621  CYS622 
 ASP623  PHE694  ASN695  SER759  ASP760  ASP761  ALA762  ILE779  LEU786  VAL792 
 PHE793  MET794  SER795  GLU796  ALA797  LYS798  CYS799  TRP800  GLU811  SER814 

> <Gold.Protein.RotatedAtoms>
  150.7499  133.9685  159.3537 H   0  0  0  0  0  0  0  0  0  0  0  0  # atno 6907 bound_to 6896
  151.7616  135.0806  160.0356 H   0  0  0  0  0  0  0  0  0  0  0  0  # atno 6908 bound_to 6896
  152.3399  133.6018  159.5905 H   0  0  0  0  0  0  0  0  0  0  0  0  # atno 6909 bound_to 6896
  144.7209  140.2413  143.6291 H   0  0  0  0  0  0  0  0  0  0  0  0  # atno 7974 bound_to 7965
  154.5183  140.0793  156.8124 H   0  0  0  0  0  0  0  0  0  0  0  0  # atno 8008 bound_to 7997
  155.3631  140.3419  155.4223 H   0  0  0  0  0  0  0  0  0  0  0  0  # atno 8009 bound_to 7997
  156.1653  140.1602  156.8530 H   0  0  0  0  0  0  0  0  0  0  0  0  # atno 8010 bound_to 7997
  140.4671  144.0818  150.6227 H   0  0  0  0  0  0  0  0  0  0  0  0  # atno 10167 bound_to 10162
  156.0181  130.5354  150.6902 H   0  0  0  0  0  0  0  0  0  0  0  0  # atno 10718 bound_to 10713
  153.3970  135.7003  153.6453 H   0  0  0  0  0  0  0  0  0  0  0  0  # atno 10763 bound_to 10752
  153.5002  135.3654  155.2536 H   0  0  0  0  0  0  0  0  0  0  0  0  # atno 10764 bound_to 10752
  154.8707  135.4110  154.3298 H   0  0  0  0  0  0  0  0  0  0  0  0  # atno 10765 bound_to 10752
  140.2628  134.7889  157.3605 H   0  0  0  0  0  0  0  0  0  0  0  0  # atno 11005 bound_to 11000
  145.8317  139.2089  143.1879 LP  0  0  0  0  0  0  0  0  0  0  0  0  # atno 17320 bound_to 7965
  146.0425  140.8151  142.9821 LP  0  0  0  0  0  0  0  0  0  0  0  0  # atno 17321 bound_to 7965
  140.4022  143.2698  151.9934 LP  0  0  0  0  0  0  0  0  0  0  0  0  # atno 17342 bound_to 10162
  139.4813  144.5988  151.7643 LP  0  0  0  0  0  0  0  0  0  0  0  0  # atno 17343 bound_to 10162
  157.4585  131.0880  151.0770 LP  0  0  0  0  0  0  0  0  0  0  0  0  # atno 17370 bound_to 10713
  157.1265  130.6084  149.5518 LP  0  0  0  0  0  0  0  0  0  0  0  0  # atno 17371 bound_to 10713
  140.1448  134.4925  155.8004 LP  0  0  0  0  0  0  0  0  0  0  0  0  # atno 17394 bound_to 11000
  141.2188  133.6839  156.7274 LP  0  0  0  0  0  0  0  0  0  0  0  0  # atno 17395 bound_to 11000

$$$$
