AV-unprocessed.smi:3150|AV-procd|sdf|12007|dock10
  -GOLD-   2272017413D 1   1.00000     0.00000
 Structure written by MMmdl.
 33 34  0  0  0  0  0  0  0  0  1 V2000
  152.9028  139.4448  154.3056 C   0  0  0  0  0  0  0  0  0  0  0  0
  151.6966  139.6671  155.2303 C   0  0  2  0  0  0  0  0  0  0  0  0
  150.7559  140.4717  154.5238 O   0  0  0  0  0  0  0  0  0  0  0  0
  149.4007  140.0502  154.6172 C   0  0  0  0  0  0  0  0  0  0  0  0
  148.5283  141.0537  153.8952 C   0  0  0  0  0  0  0  0  0  0  0  0
  147.2344  141.5330  154.5130 C   0  0  0  0  0  0  0  0  0  0  0  0
  147.2018  140.6300  153.3062 C   0  0  0  0  0  0  0  0  0  0  0  0
  152.1117  140.3553  156.5410 C   0  0  0  0  0  0  0  0  0  0  0  0
  153.0531  139.9055  157.1954 O   0  0  0  0  0  0  0  0  0  0  0  0
  151.3982  141.4461  156.8765 N   0  0  0  0  0  0  0  0  0  0  0  0
  151.5503  142.2931  158.0089 C   0  0  0  0  0  0  0  0  0  0  0  0
  151.9630  141.8428  159.2205 N   0  0  0  0  0  0  0  0  0  0  0  0
  152.0820  142.7124  160.2452 C   0  0  0  0  0  0  0  0  0  0  0  0
  151.7964  144.0842  160.1269 C   0  0  0  0  0  0  0  0  0  0  0  0
  151.3676  144.5656  158.8779 C   0  0  0  0  0  0  0  0  0  0  0  0
  151.2417  143.6623  157.8035 C   0  0  0  0  0  0  0  0  0  0  0  0
  150.8258  144.1244  156.5853 O   0  0  0  0  0  0  0  0  0  0  0  0
  153.6722  138.8457  154.7944 H   0  0  0  0  0  0  0  0  0  0  0  0
  153.3557  140.3892  154.0008 H   0  0  0  0  0  0  0  0  0  0  0  0
  152.6021  138.9179  153.3999 H   0  0  0  0  0  0  0  0  0  0  0  0
  151.2497  138.6946  155.4468 H   0  0  0  0  0  0  0  0  0  0  0  0
  149.2751  139.0731  154.1493 H   0  0  0  0  0  0  0  0  0  0  0  0
  149.0757  139.9687  155.6553 H   0  0  0  0  0  0  0  0  0  0  0  0
  149.0877  141.7897  153.3208 H   0  0  0  0  0  0  0  0  0  0  0  0
  146.9409  141.1051  155.4697 H   0  0  0  0  0  0  0  0  0  0  0  0
  146.9667  142.5776  154.3681 H   0  0  0  0  0  0  0  0  0  0  0  0
  146.9105  141.0716  152.3555 H   0  0  0  0  0  0  0  0  0  0  0  0
  146.8826  139.6008  153.4592 H   0  0  0  0  0  0  0  0  0  0  0  0
  150.6576  141.7081  156.2420 H   0  0  0  0  0  0  0  0  0  0  0  0
  152.4147  142.3016  161.1871 H   0  0  0  0  0  0  0  0  0  0  0  0
  151.9040  144.7482  160.9717 H   0  0  0  0  0  0  0  0  0  0  0  0
  151.1387  145.6132  158.7473 H   0  0  0  0  0  0  0  0  0  0  0  0
  149.8869  144.2111  156.5229 H   0  0  0  0  0  0  0  0  0  0  0  0
  1  2  1  0  0  0  0
  1 18  1  0  0  0  0
  1 19  1  0  0  0  0
  1 20  1  0  0  0  0
  2  3  1  0  0  0  0
  2  8  1  0  0  0  0
  2 21  1  0  0  0  0
  3  4  1  0  0  0  0
  4  5  1  0  0  0  0
  4 22  1  0  0  0  0
  4 23  1  0  0  0  0
  5  7  1  0  0  0  0
  5  6  1  0  0  0  0
  5 24  1  0  0  0  0
  6  7  1  0  0  0  0
  6 25  1  0  0  0  0
  6 26  1  0  0  0  0
  7 27  1  0  0  0  0
  7 28  1  0  0  0  0
  8  9  2  0  0  0  0
  8 10  1  0  0  0  0
 10 11  1  0  0  0  0
 10 29  1  0  0  0  0
 11 16  1  0  0  0  0
 11 12  2  0  0  0  0
 12 13  1  0  0  0  0
 13 14  2  0  0  0  0
 13 30  1  0  0  0  0
 14 15  1  0  0  0  0
 14 31  1  0  0  0  0
 15 16  2  0  0  0  0
 15 32  1  0  0  0  0
 16 17  1  0  0  0  0
 17 33  1  0  0  0  0
M  END
> <s_m_source_file>
AV-unprocessed.smi

> <i_m_source_file_index>
3150

> <i_lp_mmshare_version>
43012

> <i_f3d_flags>
0

> <s_epik_input>
W0NIMl0xW0NIMl1bQ0hdMVtDSDJdT1tDQEBIXShbQ0gzXSlDKD1PKVtOSF1jMm5bY0hdW2NIXVtjSF1jMltPSF0=

> <s_epik_cmdline>
J2VwaWtfcHl0aG9uJywgJy1waCcsICc3LjAnLCAnLXRuJywgJzgnLCAnLW1hJywgJzIwMCcsICctbWV0YWxfYmluZGluZycsICctaW1hZScsICc8aW5maWxlLm1hZT4nLCAnLW9tYWUnLCAnPG91dGZpbGUubWFlPic=

> <r_lp_tautomer_probability>
0.43658

> <r_epik_Ionization_Penalty>
0.0204299

> <r_epik_Ionization_Penalty_Charging>
0

> <r_epik_Ionization_Penalty_Neutral>
0.0204299

> <r_epik_State_Penalty>
0.419322

> <r_epik_Charging_Adjusted_Penalty>
0.419322

> <i_epik_Tot_Q>
0

> <i_epik_Tot_abs_Q>
0

> <r_epik_Metal_State_Penalty>
0.377394

> <b_epik_Metal_Only>
0

> <s_lp_Force_Field>
OPLS_2005

> <r_lp_Energy>
16.2266

> <b_lp_Chiralities_Consistent>
1

> <s_lp_Variant>
AV-unprocessed.smi:3150-1

> <Gold.Version>
5.8.1

> <Gold.Id.Protein>
6NUR|6NUR_protein|mol2

> <Gold.PLP.Fitness>
48.3468

> <Gold.PLP.PLP>
-41.7509

> <Gold.PLP.part.hbond>
-3.0000

> <Gold.PLP.part.metal>
0.0000

> <Gold.PLP.part.buried>
-4.1840

> <Gold.PLP.part.nonpolar>
-34.5194

> <Gold.PLP.part.repulsive>
0.1678

> <Gold.PLP.ligand.clash>
0.0000

> <Gold.PLP.ligand.torsion>
1.4807

> <Gold.PLP.Chemscore.Hbond>
3.0000

> <Gold.PLP.Chemscore.CHOScore>
0.0000

> <Gold.PLP.Chemscore.Metal>
0.0000

> <Gold.Chemscore.Hbonds>
donor molecule, donor type, donor heavy atom, donor atom, acceptor molecule, acceptor atom, score
      L1  H    17    33       P1  8028  0.53
      P1  H  7989  7998       L1     3  0.58
      P1  H  7997  8009       L1     9  0.89

> <Gold.PLP.Chemscore.Internal.Correction>
0.5573

> <Gold.Rescore>
     Score         DG    S(hbond)    S(metal)    S(lipo)     H(rot)  DE(clash)    DE(int)     intcor
     16.87     -19.87       2.72        0.00      94.02       2.22       0.30       2.69       ----

> <Gold.Chemscore.Fitness>
16.8729

> <Gold.Chemscore.DG>
-19.8689

> <Gold.Chemscore.ZeroCoef>
-5.4800

> <Gold.Chemscore.Hbond>
2.7155

> <Gold.Chemscore.Metal>
0.0000

> <Gold.Chemscore.Lipo>
94.0214

> <Gold.Chemscore.Internal_Hbond>
0.0000

> <Gold.Chemscore.DEClash>
0.3015

> <Gold.Chemscore.DEInternal>
2.6945

> <Gold.Chemscore.Rot>
2.2192

> <Gold.Chemscore.Internal.Correction>
   9.000000E+99

> <Gold.Chemscore.Hbonds>
donor molecule, donor type, donor heavy atom, donor atom, acceptor molecule, acceptor atom, score
      L1  H    17    33       P1  8028  0.52
      P1  H  7989  7998       L1     3  0.10
      P1  H  7997  8009       L1     9  0.82

> <Gold.Chemscore.Hbond.Weighted>
-9.0697

> <Gold.Chemscore.Metal.Weighted>
-0.0000

> <Gold.Chemscore.Lipo.Weighted>
-11.0005

> <Gold.Chemscore.Internal_Hbond.Weighted>
0.0000

> <Gold.Chemscore.DEClash.Weighted>
0.3015

> <Gold.Chemscore.DEInternal.Weighted>
2.6945

> <Gold.Chemscore.Rot.Weighted>
5.6812

> <Gold.Chemscore.Internal.Correction.Weighted>
   9.000000E+99

> <Gold.Protein.RotatedTorsions>
[ 6907 6896 6895 6894 ] final -121.56 input  -60.11 | X-H torsion
[ 7974 7965 7964 7962 ] final   84.05 input  175.53 | X-H torsion
[ 8008 7997 7996 7995 ] final  158.23 input   59.86 | X-H torsion
[ 10167 10162 10161 10158 ] final -128.31 input  -65.29 | X-H torsion
[ 10718 10713 10712 10709 ] final  173.33 input   66.30 | X-H torsion
[ 10763 10752 10751 10750 ] final -130.33 input  -60.55 | X-H torsion
[ 11005 11000 10999 10996 ] final   33.62 input  -57.11 | X-H torsion

> <Gold.Protein.ActiveResidues>
 VAL166  LYS551  ARG553  GLY616  TRP617  ASP618  TYR619  PRO620  LYS621  CYS622 
 ASP623  PHE694  ASN695  SER759  ASP760  ASP761  ALA762  ILE779  LEU786  VAL792 
 PHE793  MET794  SER795  GLU796  ALA797  LYS798  CYS799  TRP800  GLU811  SER814 

> <Gold.Protein.RotatedAtoms>
  150.8494  133.7810  159.3030 H   0  0  0  0  0  0  0  0  0  0  0  0  # atno 6907 bound_to 6896
  151.5487  135.1066  159.9954 H   0  0  0  0  0  0  0  0  0  0  0  0  # atno 6908 bound_to 6896
  152.4540  133.7643  159.6820 H   0  0  0  0  0  0  0  0  0  0  0  0  # atno 6909 bound_to 6896
  145.6038  139.2357  143.2230 H   0  0  0  0  0  0  0  0  0  0  0  0  # atno 7974 bound_to 7965
  156.2316  140.1864  156.7228 H   0  0  0  0  0  0  0  0  0  0  0  0  # atno 8008 bound_to 7997
  154.6032  140.0633  156.9424 H   0  0  0  0  0  0  0  0  0  0  0  0  # atno 8009 bound_to 7997
  155.2139  140.3302  155.4327 H   0  0  0  0  0  0  0  0  0  0  0  0  # atno 8010 bound_to 7997
  139.9516  143.6049  152.2473 H   0  0  0  0  0  0  0  0  0  0  0  0  # atno 10167 bound_to 10162
  156.9659  131.0075  151.2917 H   0  0  0  0  0  0  0  0  0  0  0  0  # atno 10718 bound_to 10713
  154.8756  135.3866  154.4065 H   0  0  0  0  0  0  0  0  0  0  0  0  # atno 10763 bound_to 10752
  153.4784  135.7030  153.5957 H   0  0  0  0  0  0  0  0  0  0  0  0  # atno 10764 bound_to 10752
  153.4384  135.3862  155.2180 H   0  0  0  0  0  0  0  0  0  0  0  0  # atno 10765 bound_to 10752
  140.2612  134.3190  155.7857 H   0  0  0  0  0  0  0  0  0  0  0  0  # atno 11005 bound_to 11000
  146.1556  140.6863  142.9301 LP  0  0  0  0  0  0  0  0  0  0  0  0  # atno 17320 bound_to 7965
  144.7298  140.4638  143.6946 LP  0  0  0  0  0  0  0  0  0  0  0  0  # atno 17321 bound_to 7965
  139.6624  144.7662  151.1938 LP  0  0  0  0  0  0  0  0  0  0  0  0  # atno 17342 bound_to 10162
  140.7581  143.5990  150.8719 LP  0  0  0  0  0  0  0  0  0  0  0  0  # atno 17343 bound_to 10162
  157.5626  130.8256  149.8286 LP  0  0  0  0  0  0  0  0  0  0  0  0  # atno 17370 bound_to 10713
  156.0303  130.3767  150.1707 LP  0  0  0  0  0  0  0  0  0  0  0  0  # atno 17371 bound_to 10713
  141.2190  133.7411  156.9190 LP  0  0  0  0  0  0  0  0  0  0  0  0  # atno 17394 bound_to 11000
  140.1463  134.9260  157.2533 LP  0  0  0  0  0  0  0  0  0  0  0  0  # atno 17395 bound_to 11000

$$$$
