AV-unprocessed.smi:109|AV-procd|sdf|1043|dock7
  -GOLD-   2262018 73D 1   1.00000     0.00000
 Structure written by MMmdl.
 58 61  0  0  0  0  0  0  0  0  1 V2000
  153.0259  139.0503  156.3550 O   0  0  0  0  0  0  0  0  0  0  0  0
  152.1726  139.8531  157.1419 C   0  0  0  0  0  0  0  0  0  0  0  0
  151.4196  140.8502  156.2448 C   0  0  0  0  0  0  0  0  0  0  0  0
  150.4277  141.7662  157.0039 C   0  0  2  0  0  0  0  0  0  0  0  0
  149.4405  142.3005  156.0632 N   0  0  0  0  0  0  0  0  0  0  0  0
  148.6585  141.4949  155.3104 C   0  0  0  0  0  0  0  0  0  0  0  0
  148.6381  141.5859  153.9552 N   0  0  0  0  0  0  0  0  0  0  0  0
  147.8425  140.7833  153.2421 C   0  0  0  0  0  0  0  0  0  0  0  0
  147.0078  139.8359  153.6761 N   0  0  0  0  0  0  0  0  0  0  0  0
  147.0301  139.7357  155.0371 C   0  0  0  0  0  0  0  0  0  0  0  0
  147.8193  140.5260  155.9176 C   0  0  0  0  0  0  0  0  0  0  0  0
  147.5759  140.1502  157.2312 N   0  0  0  0  0  0  0  0  0  0  0  0
  146.6919  139.1948  157.1270 C   0  0  0  0  0  0  0  0  0  0  0  0
  146.3142  138.8714  155.8381 N   0  0  0  0  0  0  0  0  0  0  0  0
  145.3122  137.8649  155.3461 C   0  0  2  0  0  0  0  0  0  0  0  0
  145.8712  136.5987  155.4869 O   0  0  0  0  0  0  0  0  0  0  0  0
  146.6189  136.2864  154.3209 C   0  0  1  0  0  0  0  0  0  0  0  0
  146.8024  134.7644  154.2238 C   0  0  0  0  0  0  0  0  0  0  0  0
  147.3830  134.4183  152.9848 O   0  0  0  0  0  0  0  0  0  0  0  0
  145.7951  136.9121  153.1816 C   0  0  2  0  0  0  0  0  0  0  0  0
  146.6558  137.4296  152.1863 O   0  0  0  0  0  0  0  0  0  0  0  0
  145.0044  138.0434  153.8499 C   0  0  1  0  0  0  0  0  0  0  0  0
  143.6209  137.9032  153.5980 O   0  0  0  0  0  0  0  0  0  0  0  0
  151.1223  142.9429  157.7494 C   0  0  0  0  0  0  0  0  0  0  0  0
  152.2874  142.4799  158.6604 C   0  0  0  0  0  0  0  0  0  0  0  0
  152.9445  143.6472  159.4159 C   0  0  0  0  0  0  0  0  0  0  0  0
  151.9179  144.4354  160.2382 C   0  0  0  0  0  0  0  0  0  0  0  0
  150.7719  144.9230  159.3444 C   0  0  0  0  0  0  0  0  0  0  0  0
  150.1102  143.7514  158.6028 C   0  0  0  0  0  0  0  0  0  0  0  0
  144.4445  137.9984  155.9931 H   0  0  0  0  0  0  0  0  0  0  0  0
  147.5927  136.7700  154.4134 H   0  0  0  0  0  0  0  0  0  0  0  0
  145.1241  136.1745  152.7381 H   0  0  0  0  0  0  0  0  0  0  0  0
  145.3037  139.0371  153.5139 H   0  0  0  0  0  0  0  0  0  0  0  0
  152.7979  138.1441  156.4949 H   0  0  0  0  0  0  0  0  0  0  0  0
  151.4819  139.2014  157.6770 H   0  0  0  0  0  0  0  0  0  0  0  0
  152.7699  140.3810  157.8856 H   0  0  0  0  0  0  0  0  0  0  0  0
  152.1755  141.4537  155.7457 H   0  0  0  0  0  0  0  0  0  0  0  0
  150.8905  140.3103  155.4584 H   0  0  0  0  0  0  0  0  0  0  0  0
  149.9368  141.1644  157.7686 H   0  0  0  0  0  0  0  0  0  0  0  0
  149.2825  143.2961  156.1256 H   0  0  0  0  0  0  0  0  0  0  0  0
  147.8808  140.9192  152.1713 H   0  0  0  0  0  0  0  0  0  0  0  0
  146.2934  138.7040  158.0019 H   0  0  0  0  0  0  0  0  0  0  0  0
  147.4645  134.4173  155.0174 H   0  0  0  0  0  0  0  0  0  0  0  0
  145.8521  134.2438  154.3455 H   0  0  0  0  0  0  0  0  0  0  0  0
  148.1037  135.0057  152.8155 H   0  0  0  0  0  0  0  0  0  0  0  0
  147.5249  137.0892  152.3312 H   0  0  0  0  0  0  0  0  0  0  0  0
  143.3192  138.6748  153.1431 H   0  0  0  0  0  0  0  0  0  0  0  0
  151.5372  143.6173  156.9983 H   0  0  0  0  0  0  0  0  0  0  0  0
  151.9228  141.7418  159.3762 H   0  0  0  0  0  0  0  0  0  0  0  0
  153.0669  141.9901  158.0796 H   0  0  0  0  0  0  0  0  0  0  0  0
  153.7305  143.2690  160.0702 H   0  0  0  0  0  0  0  0  0  0  0  0
  153.4309  144.3145  158.7032 H   0  0  0  0  0  0  0  0  0  0  0  0
  151.5211  143.8048  161.0348 H   0  0  0  0  0  0  0  0  0  0  0  0
  152.4006  145.2841  160.7240 H   0  0  0  0  0  0  0  0  0  0  0  0
  150.0296  145.4479  159.9464 H   0  0  0  0  0  0  0  0  0  0  0  0
  151.1515  145.6461  158.6214 H   0  0  0  0  0  0  0  0  0  0  0  0
  149.3111  144.1544  157.9806 H   0  0  0  0  0  0  0  0  0  0  0  0
  149.6297  143.0898  159.3251 H   0  0  0  0  0  0  0  0  0  0  0  0
  1  2  1  0  0  0  0
  1 34  1  0  0  0  0
  2  3  1  0  0  0  0
  2 35  1  0  0  0  0
  2 36  1  0  0  0  0
  3  4  1  0  0  0  0
  3 37  1  0  0  0  0
  3 38  1  0  0  0  0
  4  5  1  0  0  0  0
  4 24  1  0  0  0  0
  4 39  1  0  0  0  0
  5  6  1  0  0  0  0
  5 40  1  0  0  0  0
  6 11  1  0  0  0  0
  6  7  2  0  0  0  0
  7  8  1  0  0  0  0
  8  9  2  0  0  0  0
  8 41  1  0  0  0  0
  9 10  1  0  0  0  0
 10 14  1  0  0  0  0
 10 11  2  0  0  0  0
 11 12  1  0  0  0  0
 12 13  2  0  0  0  0
 13 14  1  0  0  0  0
 13 42  1  0  0  0  0
 14 15  1  0  0  0  0
 15 30  1  0  0  0  0
 15 22  1  0  0  0  0
 15 16  1  0  0  0  0
 16 17  1  0  0  0  0
 17 31  1  0  0  0  0
 17 18  1  0  0  0  0
 17 20  1  0  0  0  0
 18 19  1  0  0  0  0
 18 43  1  0  0  0  0
 18 44  1  0  0  0  0
 19 45  1  0  0  0  0
 20 32  1  0  0  0  0
 20 21  1  0  0  0  0
 20 22  1  0  0  0  0
 21 46  1  0  0  0  0
 22 33  1  0  0  0  0
 22 23  1  0  0  0  0
 23 47  1  0  0  0  0
 24 29  1  0  0  0  0
 24 25  1  0  0  0  0
 24 48  1  0  0  0  0
 25 26  1  0  0  0  0
 25 49  1  0  0  0  0
 25 50  1  0  0  0  0
 26 27  1  0  0  0  0
 26 51  1  0  0  0  0
 26 52  1  0  0  0  0
 27 28  1  0  0  0  0
 27 53  1  0  0  0  0
 27 54  1  0  0  0  0
 28 29  1  0  0  0  0
 28 55  1  0  0  0  0
 28 56  1  0  0  0  0
 29 57  1  0  0  0  0
 29 58  1  0  0  0  0
M  END
> <s_m_source_file>
AV-unprocessed.smi

> <i_m_source_file_index>
109

> <i_lp_mmshare_version>
43012

> <i_f3d_flags>
0

> <s_epik_input>
W0NIMl0xW0NIMl1bQ0gyXVtDSDJdW0NIMl1bQ0hdMVtDQEhdKFtDSDJdW0NIMl1bT0hdKVtOSF1jKG5bY0hdbjIpYyhjMjMpbltjSF1uM1tDQEBIXTRPW0NASF0oW0NIMl1bT0hdKVtDQEBIXShbT0hdKVtDQEhdNFtPSF0=

> <s_epik_cmdline>
J2VwaWtfcHl0aG9uJywgJy1waCcsICc3LjAnLCAnLXRuJywgJzgnLCAnLW1hJywgJzIwMCcsICctbWV0YWxfYmluZGluZycsICctaW1hZScsICc8aW5maWxlLm1hZT4nLCAnLW9tYWUnLCAnPG91dGZpbGUubWFlPic=

> <r_lp_tautomer_probability>
1

> <r_epik_Ionization_Penalty>
0.000793976

> <r_epik_Ionization_Penalty_Charging>
0

> <r_epik_Ionization_Penalty_Neutral>
0.000793976

> <r_epik_State_Penalty>
-0

> <r_epik_Charging_Adjusted_Penalty>
0

> <i_epik_Tot_Q>
0

> <i_epik_Tot_abs_Q>
0

> <r_epik_Metal_State_Penalty>
-0

> <b_epik_Metal_Only>
0

> <s_epik_Chemistry_Notes>
This compound contains an acetal/aminal-like group ( X-CH(R)-Y where X, Y are N, S, or O) that may be acid/base labile, releasing an aldehyde.

> <s_lp_Force_Field>
OPLS_2005

> <r_lp_Energy>
47.5794

> <b_lp_Chiralities_Consistent>
1

> <s_lp_Variant>
AV-unprocessed.smi:109-13

> <Gold.Version>
5.8.1

> <Gold.Id.Protein>
6NUR|6NUR_protein|mol2

> <Gold.PLP.Fitness>
52.1733

> <Gold.PLP.PLP>
-37.5141

> <Gold.PLP.part.hbond>
-5.9229

> <Gold.PLP.part.metal>
0.0000

> <Gold.PLP.part.buried>
-3.0909

> <Gold.PLP.part.nonpolar>
-28.9969

> <Gold.PLP.part.repulsive>
0.4704

> <Gold.PLP.ligand.clash>
2.0208

> <Gold.PLP.ligand.torsion>
1.0219

> <Gold.PLP.Chemscore.Hbond>
5.4584

> <Gold.PLP.Chemscore.CHOScore>
0.7166

> <Gold.PLP.Chemscore.Metal>
0.0000

> <Gold.Chemscore.Hbonds>
donor molecule, donor type, donor heavy atom, donor atom, acceptor molecule, acceptor atom, score
      L1  H     5    40       P1  8028  1.00
      L1  H    19    45       P1  7948  1.00
      L1  H    21    46       P1  7948  1.00
      L1  H    23    47       P1 10175  1.00
      P1  H  7997  8010       L1     1  0.94
      P1  H  8011  8017       L1     7  0.41
      L1  C     8    41       P1  7957  0.75

> <Gold.PLP.Chemscore.Internal.Correction>
0.1988

> <Gold.Rescore>
     Score         DG    S(hbond)    S(metal)    S(lipo)     H(rot)  DE(clash)    DE(int)     intcor
     14.00     -18.00       4.66        0.00      93.65       5.47       1.33       2.67       ----

> <Gold.Chemscore.Fitness>
14.0020

> <Gold.Chemscore.DG>
-18.0039

> <Gold.Chemscore.ZeroCoef>
-5.4800

> <Gold.Chemscore.Hbond>
4.6588

> <Gold.Chemscore.Metal>
0.0000

> <Gold.Chemscore.Lipo>
93.6493

> <Gold.Chemscore.Internal_Hbond>
0.0000

> <Gold.Chemscore.DEClash>
1.3341

> <Gold.Chemscore.DEInternal>
2.6678

> <Gold.Chemscore.Rot>
5.4662

> <Gold.Chemscore.Internal.Correction>
   9.000000E+99

> <Gold.Chemscore.Hbonds>
donor molecule, donor type, donor heavy atom, donor atom, acceptor molecule, acceptor atom, score
      L1  H     5    40       P1  8028  0.94
      L1  H    19    45       P1  7948  0.88
      L1  H    21    46       P1  7948  0.97
      L1  H    23    47       P1 10175  0.95
      P1  H  7997  8010       L1     1  0.27
      P1  H  8011  8017       L1     7  0.09

> <Gold.Chemscore.Hbond.Weighted>
-15.5604

> <Gold.Chemscore.Metal.Weighted>
-0.0000

> <Gold.Chemscore.Lipo.Weighted>
-10.9570

> <Gold.Chemscore.Internal_Hbond.Weighted>
0.0000

> <Gold.Chemscore.DEClash.Weighted>
1.3341

> <Gold.Chemscore.DEInternal.Weighted>
2.6678

> <Gold.Chemscore.Rot.Weighted>
13.9935

> <Gold.Chemscore.Internal.Correction.Weighted>
   9.000000E+99

> <Gold.Protein.RotatedTorsions>
[ 6907 6896 6895 6894 ] final  122.77 input  -60.11 | X-H torsion
[ 7974 7965 7964 7962 ] final  -46.95 input  175.53 | X-H torsion
[ 8008 7997 7996 7995 ] final   93.05 input   59.86 | X-H torsion
[ 10167 10162 10161 10158 ] final   57.30 input  -65.29 | X-H torsion
[ 10718 10713 10712 10709 ] final  -88.30 input   66.30 | X-H torsion
[ 10763 10752 10751 10750 ] final    0.74 input  -60.55 | X-H torsion
[ 11005 11000 10999 10996 ] final  -15.80 input  -57.11 | X-H torsion

> <Gold.Protein.ActiveResidues>
 VAL166  LYS551  ARG553  GLY616  TRP617  ASP618  TYR619  PRO620  LYS621  CYS622 
 ASP623  PHE694  ASN695  SER759  ASP760  ASP761  ALA762  ILE779  LEU786  VAL792 
 PHE793  MET794  SER795  GLU796  ALA797  LYS798  CYS799  TRP800  GLU811  SER814 

> <Gold.Protein.RotatedAtoms>
  152.4216  133.7126  159.6487 H   0  0  0  0  0  0  0  0  0  0  0  0  # atno 6907 bound_to 6896
  150.8092  133.8442  159.3196 H   0  0  0  0  0  0  0  0  0  0  0  0  # atno 6908 bound_to 6896
  151.6157  135.1038  160.0142 H   0  0  0  0  0  0  0  0  0  0  0  0  # atno 6909 bound_to 6896
  145.9667  140.7425  142.9431 H   0  0  0  0  0  0  0  0  0  0  0  0  # atno 7974 bound_to 7965
  156.0423  140.3318  155.7258 H   0  0  0  0  0  0  0  0  0  0  0  0  # atno 8008 bound_to 7997
  155.5725  140.0629  157.2820 H   0  0  0  0  0  0  0  0  0  0  0  0  # atno 8009 bound_to 7997
  154.4398  140.1858  156.0882 H   0  0  0  0  0  0  0  0  0  0  0  0  # atno 8010 bound_to 7997
  140.1995  144.4003  150.6535 H   0  0  0  0  0  0  0  0  0  0  0  0  # atno 10167 bound_to 10162
  155.9984  130.4831  150.4999 H   0  0  0  0  0  0  0  0  0  0  0  0  # atno 10718 bound_to 10713
  153.3169  135.6966  153.7065 H   0  0  0  0  0  0  0  0  0  0  0  0  # atno 10763 bound_to 10752
  153.5921  135.3478  155.2915 H   0  0  0  0  0  0  0  0  0  0  0  0  # atno 10764 bound_to 10752
  154.8588  135.4320  154.2322 H   0  0  0  0  0  0  0  0  0  0  0  0  # atno 10765 bound_to 10752
  140.8003  133.8219  155.9463 H   0  0  0  0  0  0  0  0  0  0  0  0  # atno 11005 bound_to 11000
  144.6827  140.2680  143.7310 LP  0  0  0  0  0  0  0  0  0  0  0  0  # atno 17320 bound_to 7965
  145.7964  139.1947  143.2073 LP  0  0  0  0  0  0  0  0  0  0  0  0  # atno 17321 bound_to 7965
  140.6400  143.2202  151.6310 LP  0  0  0  0  0  0  0  0  0  0  0  0  # atno 17342 bound_to 10162
  139.5223  144.3167  152.0946 LP  0  0  0  0  0  0  0  0  0  0  0  0  # atno 17343 bound_to 10162
  157.2984  131.0640  151.2085 LP  0  0  0  0  0  0  0  0  0  0  0  0  # atno 17370 bound_to 10713
  157.3073  130.6872  149.6196 LP  0  0  0  0  0  0  0  0  0  0  0  0  # atno 17371 bound_to 10713
  140.9301  134.2032  157.4869 LP  0  0  0  0  0  0  0  0  0  0  0  0  # atno 17394 bound_to 11000
  139.8722  134.9829  156.5176 LP  0  0  0  0  0  0  0  0  0  0  0  0  # atno 17395 bound_to 11000

$$$$
