AV-unprocessed.smi:1904|AV-procd|sdf|7723|dock2
  -GOLD-   22720 9463D 1   1.00000     0.00000
 Structure written by MMmdl.
 50 51  0  0  0  0  0  0  0  0  2 V2000
  148.0536  137.2745  158.6032 C   0  0  0  0  0  0  0  0  0  0  0  0
  147.9472  136.4765  159.8712 C   0  0  0  0  0  0  0  0  0  0  0  0
  148.0661  137.0926  161.0351 N   0  0  0  0  0  0  0  0  0  0  0  0
  147.9345  136.1172  161.9560 N   0  0  0  0  0  0  0  0  0  0  0  0
  148.0128  136.4540  163.3643 C   0  0  0  0  0  0  0  0  0  0  0  0
  147.7406  134.8803  161.3723 C   0  0  0  0  0  0  0  0  0  0  0  0
  147.5817  133.6341  162.1826 C   0  0  0  0  0  0  0  0  0  0  0  0
  147.7368  135.0732  160.0165 C   0  0  0  0  0  0  0  0  0  0  0  0
  147.5636  134.0530  158.9200 C   0  0  0  0  0  0  0  0  0  0  0  0
  148.6324  134.2736  157.8503 C   0  0  0  0  0  0  0  0  0  0  0  0
  149.8226  134.3013  158.1637 O   0  0  0  0  0  0  0  0  0  0  0  0
  148.1959  134.4518  156.5939 N   0  0  0  0  0  0  0  0  0  0  0  0
  149.0488  134.7410  155.4483 C   0  0  0  0  0  0  0  0  0  0  0  0
  148.8795  133.6743  154.3494 C   0  0  0  0  0  0  0  0  0  0  0  0
  147.8948  134.0725  153.3118 N   0  3  2  0  0  0  0  0  0  0  0  0
  146.6890  134.7087  153.9028 C   0  0  0  0  0  0  0  0  0  0  0  0
  145.7481  135.2440  152.8105 C   0  0  0  0  0  0  0  0  0  0  0  0
  145.3385  134.1320  151.8307 C   0  0  1  0  0  0  0  0  0  0  0  0
  144.4279  134.6650  150.7155 C   0  0  0  0  0  0  0  0  0  0  0  0
  146.6039  133.4671  151.2642 C   0  0  0  0  0  0  0  0  0  0  0  0
  147.5253  132.9659  152.3891 C   0  0  0  0  0  0  0  0  0  0  0  0
  147.2756  136.9902  157.8949 H   0  0  0  0  0  0  0  0  0  0  0  0
  149.0179  137.1102  158.1223 H   0  0  0  0  0  0  0  0  0  0  0  0
  147.9534  138.3443  158.7898 H   0  0  0  0  0  0  0  0  0  0  0  0
  147.1799  135.9970  163.8992 H   0  0  0  0  0  0  0  0  0  0  0  0
  147.9675  137.5348  163.5047 H   0  0  0  0  0  0  0  0  0  0  0  0
  148.9500  136.0813  163.7780 H   0  0  0  0  0  0  0  0  0  0  0  0
  147.6195  132.7445  161.5544 H   0  0  0  0  0  0  0  0  0  0  0  0
  146.6268  133.6351  162.7080 H   0  0  0  0  0  0  0  0  0  0  0  0
  148.3764  133.5480  162.9239 H   0  0  0  0  0  0  0  0  0  0  0  0
  147.6528  133.0345  159.2986 H   0  0  0  0  0  0  0  0  0  0  0  0
  146.5712  134.1175  158.4719 H   0  0  0  0  0  0  0  0  0  0  0  0
  147.2007  134.4098  156.4270 H   0  0  0  0  0  0  0  0  0  0  0  0
  148.8303  135.7359  155.0560 H   0  0  0  0  0  0  0  0  0  0  0  0
  150.0753  134.7680  155.8116 H   0  0  0  0  0  0  0  0  0  0  0  0
  149.8383  133.4454  153.8812 H   0  0  0  0  0  0  0  0  0  0  0  0
  148.5395  132.7505  154.8203 H   0  0  0  0  0  0  0  0  0  0  0  0
  146.1656  133.9858  154.5307 H   0  0  0  0  0  0  0  0  0  0  0  0
  146.9864  135.5342  154.5506 H   0  0  0  0  0  0  0  0  0  0  0  0
  144.8612  135.6793  153.2722 H   0  0  0  0  0  0  0  0  0  0  0  0
  146.2416  136.0524  152.2692 H   0  0  0  0  0  0  0  0  0  0  0  0
  144.7773  133.3787  152.3859 H   0  0  0  0  0  0  0  0  0  0  0  0
  144.9328  135.4267  150.1205 H   0  0  0  0  0  0  0  0  0  0  0  0
  143.5223  135.1109  151.1278 H   0  0  0  0  0  0  0  0  0  0  0  0
  144.1230  133.8644  150.0412 H   0  0  0  0  0  0  0  0  0  0  0  0
  146.3294  132.6336  150.6166 H   0  0  0  0  0  0  0  0  0  0  0  0
  147.1473  134.1770  150.6387 H   0  0  0  0  0  0  0  0  0  0  0  0
  148.4158  132.5291  151.9395 H   0  0  0  0  0  0  0  0  0  0  0  0
  147.0333  132.1705  152.9510 H   0  0  0  0  0  0  0  0  0  0  0  0
  148.3423  134.7857  152.7536 H   0  0  0  0  0  0  0  0  0  0  0  0
  1  2  1  0  0  0  0
  1 22  1  0  0  0  0
  1 23  1  0  0  0  0
  1 24  1  0  0  0  0
  2  8  1  0  0  0  0
  2  3  2  0  0  0  0
  3  4  1  0  0  0  0
  4  5  1  0  0  0  0
  4  6  1  0  0  0  0
  5 25  1  0  0  0  0
  5 26  1  0  0  0  0
  5 27  1  0  0  0  0
  6  7  1  0  0  0  0
  6  8  2  0  0  0  0
  7 28  1  0  0  0  0
  7 29  1  0  0  0  0
  7 30  1  0  0  0  0
  8  9  1  0  0  0  0
  9 10  1  0  0  0  0
  9 31  1  0  0  0  0
  9 32  1  0  0  0  0
 10 11  2  0  0  0  0
 10 12  1  0  0  0  0
 12 13  1  0  0  0  0
 12 33  1  0  0  0  0
 13 14  1  0  0  0  0
 13 34  1  0  0  0  0
 13 35  1  0  0  0  0
 14 15  1  0  0  0  0
 14 36  1  0  0  0  0
 14 37  1  0  0  0  0
 15 21  1  0  0  0  0
 15 16  1  0  0  0  0
 15 50  1  0  0  0  0
 16 17  1  0  0  0  0
 16 38  1  0  0  0  0
 16 39  1  0  0  0  0
 17 18  1  0  0  0  0
 17 40  1  0  0  0  0
 17 41  1  0  0  0  0
 18 19  1  0  0  0  0
 18 20  1  0  0  0  0
 18 42  1  0  0  0  0
 19 43  1  0  0  0  0
 19 44  1  0  0  0  0
 19 45  1  0  0  0  0
 20 21  1  0  0  0  0
 20 46  1  0  0  0  0
 20 47  1  0  0  0  0
 21 48  1  0  0  0  0
 21 49  1  0  0  0  0
M  CHG  1  15   1
M  END
> <s_m_source_file>
AV-unprocessed.smi

> <i_m_source_file_index>
1904

> <i_lp_mmshare_version>
43012

> <i_f3d_flags>
0

> <s_epik_input>
W0NIM11jMW5uKFtDSDNdKWMoW0NIM10pYzFbQ0gyXUMoPU8pW05IXVtDSDJdW0NIMl1OMltDSDJdW0NIMl1bQ0hdKFtDSDNdKVtDSDJdW0NIMl0y

> <s_epik_cmdline>
J2VwaWtfcHl0aG9uJywgJy1waCcsICc3LjAnLCAnLXRuJywgJzgnLCAnLW1hJywgJzIwMCcsICctbWV0YWxfYmluZGluZycsICctaW1hZScsICc8aW5maWxlLm1hZT4nLCAnLW9tYWUnLCAnPG91dGZpbGUubWFlPic=

> <r_lp_tautomer_probability>
1

> <r_epik_Ionization_Penalty>
0.00374255

> <r_epik_Ionization_Penalty_Charging>
0.00158211

> <r_epik_Ionization_Penalty_Neutral>
0.00216044

> <r_epik_State_Penalty>
-0

> <r_epik_Charging_Adjusted_Penalty>
0.00158211

> <i_epik_Tot_Q>
1

> <i_epik_Tot_abs_Q>
1

> <r_epik_Metal_State_Penalty>
-0

> <b_epik_Metal_Only>
0

> <s_lp_Force_Field>
OPLS_2005

> <r_lp_Energy>
10.069

> <b_lp_Chiralities_Consistent>
1

> <s_lp_Variant>
AV-unprocessed.smi:1904-1

> <Gold.Version>
5.8.1

> <Gold.Id.Protein>
6NUR|6NUR_protein|mol2

> <Gold.PLP.Fitness>
50.6750

> <Gold.PLP.PLP>
-37.4547

> <Gold.PLP.part.hbond>
-3.9287

> <Gold.PLP.part.metal>
0.0000

> <Gold.PLP.part.buried>
-2.6294

> <Gold.PLP.part.nonpolar>
-29.9942

> <Gold.PLP.part.repulsive>
0.0088

> <Gold.PLP.ligand.clash>
0.0000

> <Gold.PLP.ligand.torsion>
0.5267

> <Gold.PLP.Chemscore.Hbond>
4.7280

> <Gold.PLP.Chemscore.CHOScore>
0.0000

> <Gold.PLP.Chemscore.Metal>
0.0000

> <Gold.Chemscore.Hbonds>
donor molecule, donor type, donor heavy atom, donor atom, acceptor molecule, acceptor atom, score
      L1  H    15    50       P1  7948  2.00
      P1  H  6896  6909       L1    11  0.91
      P1  H  6931  6943       L1     3  1.00
      P1  H  6934  6947       L1     3  0.56

> <Gold.PLP.Chemscore.Internal.Correction>
0.0897

> <Gold.Rescore>
     Score         DG    S(hbond)    S(metal)    S(lipo)     H(rot)  DE(clash)    DE(int)     intcor
     19.68     -20.26       3.07        0.00      73.98       1.61       0.03       0.56       ----

> <Gold.Chemscore.Fitness>
19.6764

> <Gold.Chemscore.DG>
-20.2591

> <Gold.Chemscore.ZeroCoef>
-5.4800

> <Gold.Chemscore.Hbond>
3.0706

> <Gold.Chemscore.Metal>
0.0000

> <Gold.Chemscore.Lipo>
73.9810

> <Gold.Chemscore.Internal_Hbond>
0.0000

> <Gold.Chemscore.DEClash>
0.0270

> <Gold.Chemscore.DEInternal>
0.5557

> <Gold.Chemscore.Rot>
1.6142

> <Gold.Chemscore.Internal.Correction>
   9.000000E+99

> <Gold.Chemscore.Hbonds>
donor molecule, donor type, donor heavy atom, donor atom, acceptor molecule, acceptor atom, score
      L1  H    15    50       P1  7948  0.50
      P1  H  6896  6909       L1    11  0.84
      P1  H  6931  6943       L1     3  0.33
      P1  H  6934  6947       L1     3  0.41

> <Gold.Chemscore.Hbond.Weighted>
-10.2557

> <Gold.Chemscore.Metal.Weighted>
-0.0000

> <Gold.Chemscore.Lipo.Weighted>
-8.6558

> <Gold.Chemscore.Internal_Hbond.Weighted>
0.0000

> <Gold.Chemscore.DEClash.Weighted>
0.0270

> <Gold.Chemscore.DEInternal.Weighted>
0.5557

> <Gold.Chemscore.Rot.Weighted>
4.1324

> <Gold.Chemscore.Internal.Correction.Weighted>
   9.000000E+99

> <Gold.Protein.RotatedTorsions>
[ 6907 6896 6895 6894 ] final   31.75 input  -60.11 | X-H torsion
[ 7974 7965 7964 7962 ] final  -79.93 input  175.53 | X-H torsion
[ 8008 7997 7996 7995 ] final    8.71 input   59.86 | X-H torsion
[ 10167 10162 10161 10158 ] final   73.95 input  -65.29 | X-H torsion
[ 10718 10713 10712 10709 ] final   68.81 input   66.30 | X-H torsion
[ 10763 10752 10751 10750 ] final   49.90 input  -60.55 | X-H torsion
[ 11005 11000 10999 10996 ] final -126.16 input  -57.11 | X-H torsion

> <Gold.Protein.ActiveResidues>
 VAL166  LYS551  ARG553  GLY616  TRP617  ASP618  TYR619  PRO620  LYS621  CYS622 
 ASP623  PHE694  ASN695  SER759  ASP760  ASP761  ALA762  ILE779  LEU786  VAL792 
 PHE793  MET794  SER795  GLU796  ALA797  LYS798  CYS799  TRP800  GLU811  SER814 

> <Gold.Protein.RotatedAtoms>
  152.0648  134.9571  160.0574 H   0  0  0  0  0  0  0  0  0  0  0  0  # atno 6907 bound_to 6896
  152.0921  133.4201  159.4556 H   0  0  0  0  0  0  0  0  0  0  0  0  # atno 6908 bound_to 6896
  150.6837  134.2779  159.4658 H   0  0  0  0  0  0  0  0  0  0  0  0  # atno 6909 bound_to 6896
  145.5666  140.9473  143.1418 H   0  0  0  0  0  0  0  0  0  0  0  0  # atno 7974 bound_to 7965
  154.7705  140.2801  155.6142 H   0  0  0  0  0  0  0  0  0  0  0  0  # atno 8008 bound_to 7997
  156.2932  140.2642  156.2433 H   0  0  0  0  0  0  0  0  0  0  0  0  # atno 8009 bound_to 7997
  154.9906  140.0373  157.2307 H   0  0  0  0  0  0  0  0  0  0  0  0  # atno 8010 bound_to 7997
  140.0189  144.5556  150.7598 H   0  0  0  0  0  0  0  0  0  0  0  0  # atno 10167 bound_to 10162
  157.6310  130.9393  150.0428 H   0  0  0  0  0  0  0  0  0  0  0  0  # atno 10718 bound_to 10713
  152.9785  135.5896  154.4165 H   0  0  0  0  0  0  0  0  0  0  0  0  # atno 10763 bound_to 10752
  154.3794  135.2767  155.2222 H   0  0  0  0  0  0  0  0  0  0  0  0  # atno 10764 bound_to 10752
  154.4142  135.6074  153.6025 H   0  0  0  0  0  0  0  0  0  0  0  0  # atno 10765 bound_to 10752
  140.9703  134.0814  157.3876 H   0  0  0  0  0  0  0  0  0  0  0  0  # atno 11005 bound_to 11000
  144.7457  139.7326  143.7293 LP  0  0  0  0  0  0  0  0  0  0  0  0  # atno 17320 bound_to 7965
  146.1813  139.5007  142.9864 LP  0  0  0  0  0  0  0  0  0  0  0  0  # atno 17321 bound_to 7965
  140.7350  143.2736  151.3811 LP  0  0  0  0  0  0  0  0  0  0  0  0  # atno 17342 bound_to 10162
  139.6153  144.1015  152.2339 LP  0  0  0  0  0  0  0  0  0  0  0  0  # atno 17343 bound_to 10162
  156.1514  130.3642  149.9432 LP  0  0  0  0  0  0  0  0  0  0  0  0  # atno 17370 bound_to 10713
  156.7451  130.9094  151.3634 LP  0  0  0  0  0  0  0  0  0  0  0  0  # atno 17371 bound_to 10713
  139.8910  135.0115  156.6766 LP  0  0  0  0  0  0  0  0  0  0  0  0  # atno 17394 bound_to 11000
  140.7338  133.9036  155.8230 LP  0  0  0  0  0  0  0  0  0  0  0  0  # atno 17395 bound_to 11000

$$$$
