AV-unprocessed.smi:906|AV-procd|sdf|4102|dock1
  -GOLD-   22720 1593D 1   1.00000     0.00000
 Structure written by MMmdl.
 48 49  0  0  0  0  0  0  0  0  2 V2000
  148.0144  129.5316  154.1225 C   0  0  0  0  0  0  0  0  0  0  0  0
  148.6876  130.7331  154.7506 C   0  0  0  0  0  0  0  0  0  0  0  0
  149.5789  130.6156  155.8385 C   0  0  0  0  0  0  0  0  0  0  0  0
  150.1650  131.7796  156.3769 C   0  0  0  0  0  0  0  0  0  0  0  0
  149.8481  133.0374  155.8179 C   0  0  0  0  0  0  0  0  0  0  0  0
  150.4317  134.3147  156.3967 C   0  0  0  0  0  0  0  0  0  0  0  0
  149.8849  135.5968  155.7389 C   0  0  0  0  0  0  0  0  0  0  0  0
  150.7073  136.7683  156.0328 N   0  0  0  0  0  0  0  0  0  0  0  0
  150.4759  138.0215  155.6034 C   0  0  0  0  0  0  0  0  0  0  0  0
  149.5041  138.3065  154.9019 O   0  0  0  0  0  0  0  0  0  0  0  0
  151.3499  138.9465  156.0693 N   0  0  0  0  0  0  0  0  0  0  0  0
  151.4368  140.3550  155.6574 C   0  0  0  0  0  0  0  0  0  0  0  0
  150.9025  141.2409  156.7996 C   0  0  0  0  0  0  0  0  0  0  0  0
  151.6813  141.0104  158.0243 N   0  0  0  0  0  0  0  0  0  0  0  0
  151.3446  141.8924  159.1549 C   0  0  2  0  0  0  0  0  0  0  0  0
  150.5092  143.1287  158.7554 C   0  0  0  0  0  0  0  0  0  0  0  0
  152.5949  142.2695  159.9857 C   0  0  0  0  0  0  0  0  0  0  0  0
  152.2318  142.8670  161.1214 F   0  0  0  0  0  0  0  0  0  0  0  0
  153.3482  141.2086  160.2752 F   0  0  0  0  0  0  0  0  0  0  0  0
  153.3384  143.1283  159.2883 F   0  0  0  0  0  0  0  0  0  0  0  0
  151.6418  139.5943  158.4092 C   0  0  0  0  0  0  0  0  0  0  0  0
  152.1754  138.7207  157.2585 C   0  0  0  0  0  0  0  0  0  0  0  0
  148.9558  133.0923  154.7256 C   0  0  0  0  0  0  0  0  0  0  0  0
  148.4139  131.9546  154.2399 N   0  3  0  0  0  0  0  0  0  0  0  0
  148.2729  128.6146  154.6532 H   0  0  0  0  0  0  0  0  0  0  0  0
  148.3244  129.4227  153.0828 H   0  0  0  0  0  0  0  0  0  0  0  0
  146.9304  129.6454  154.1497 H   0  0  0  0  0  0  0  0  0  0  0  0
  149.8083  129.6479  156.2605 H   0  0  0  0  0  0  0  0  0  0  0  0
  150.8399  131.7061  157.2174 H   0  0  0  0  0  0  0  0  0  0  0  0
  150.2401  134.3432  157.4703 H   0  0  0  0  0  0  0  0  0  0  0  0
  151.5161  134.2815  156.2847 H   0  0  0  0  0  0  0  0  0  0  0  0
  149.8612  135.4668  154.6568 H   0  0  0  0  0  0  0  0  0  0  0  0
  148.8510  135.7671  156.0440 H   0  0  0  0  0  0  0  0  0  0  0  0
  151.5155  136.6182  156.6194 H   0  0  0  0  0  0  0  0  0  0  0  0
  152.4773  140.6046  155.4437 H   0  0  0  0  0  0  0  0  0  0  0  0
  150.8890  140.5807  154.7428 H   0  0  0  0  0  0  0  0  0  0  0  0
  150.9697  142.2828  156.4935 H   0  0  0  0  0  0  0  0  0  0  0  0
  149.8483  141.0199  156.9698 H   0  0  0  0  0  0  0  0  0  0  0  0
  150.7265  141.2938  159.8254 H   0  0  0  0  0  0  0  0  0  0  0  0
  150.1953  143.6802  159.6417 H   0  0  0  0  0  0  0  0  0  0  0  0
  149.6033  142.8559  158.2153 H   0  0  0  0  0  0  0  0  0  0  0  0
  151.0766  143.8211  158.1336 H   0  0  0  0  0  0  0  0  0  0  0  0
  152.2561  139.4343  159.2960 H   0  0  0  0  0  0  0  0  0  0  0  0
  150.6250  139.2926  158.6619 H   0  0  0  0  0  0  0  0  0  0  0  0
  152.1920  137.6738  157.5643 H   0  0  0  0  0  0  0  0  0  0  0  0
  153.2119  138.9794  157.0362 H   0  0  0  0  0  0  0  0  0  0  0  0
  148.6492  134.0068  154.2392 H   0  0  0  0  0  0  0  0  0  0  0  0
  147.7649  132.0211  153.4555 H   0  0  0  0  0  0  0  0  0  0  0  0
  1  2  1  0  0  0  0
  1 25  1  0  0  0  0
  1 26  1  0  0  0  0
  1 27  1  0  0  0  0
  2 24  1  0  0  0  0
  2  3  2  0  0  0  0
  3  4  1  0  0  0  0
  3 28  1  0  0  0  0
  4  5  2  0  0  0  0
  4 29  1  0  0  0  0
  5  6  1  0  0  0  0
  5 23  1  0  0  0  0
  6  7  1  0  0  0  0
  6 30  1  0  0  0  0
  6 31  1  0  0  0  0
  7  8  1  0  0  0  0
  7 32  1  0  0  0  0
  7 33  1  0  0  0  0
  8  9  1  0  0  0  0
  8 34  1  0  0  0  0
  9 10  2  0  0  0  0
  9 11  1  0  0  0  0
 11 22  1  0  0  0  0
 11 12  1  0  0  0  0
 12 13  1  0  0  0  0
 12 35  1  0  0  0  0
 12 36  1  0  0  0  0
 13 14  1  0  0  0  0
 13 37  1  0  0  0  0
 13 38  1  0  0  0  0
 14 15  1  0  0  0  0
 14 21  1  0  0  0  0
 15 16  1  0  0  0  0
 15 17  1  0  0  0  0
 15 39  1  0  0  0  0
 16 40  1  0  0  0  0
 16 41  1  0  0  0  0
 16 42  1  0  0  0  0
 17 18  1  0  0  0  0
 17 19  1  0  0  0  0
 17 20  1  0  0  0  0
 21 22  1  0  0  0  0
 21 43  1  0  0  0  0
 21 44  1  0  0  0  0
 22 45  1  0  0  0  0
 22 46  1  0  0  0  0
 23 24  2  0  0  0  0
 23 47  1  0  0  0  0
 24 48  1  0  0  0  0
M  CHG  1  24   1
M  END
> <s_m_source_file>
AV-unprocessed.smi

> <i_m_source_file_index>
906

> <i_lp_mmshare_version>
43012

> <i_f3d_flags>
0

> <s_epik_input>
W0NIM11jMVtjSF1bY0hdYyhbY0hdbjEpW0NIMl1bQ0gyXVtOSF1DKD1PKU4yW0NIMl1bQ0gyXU4oW0NASF0oW0NIM10pQyhGKShGKUYpW0NIMl1bQ0gyXTI=

> <s_epik_cmdline>
J2VwaWtfcHl0aG9uJywgJy1waCcsICc3LjAnLCAnLXRuJywgJzgnLCAnLW1hJywgJzIwMCcsICctbWV0YWxfYmluZGluZycsICctaW1hZScsICc8aW5maWxlLm1hZT4nLCAnLW9tYWUnLCAnPG91dGZpbGUubWFlPic=

> <r_epik_Ionization_Penalty>
1.4413

> <r_epik_Ionization_Penalty_Charging>
1.42075

> <r_epik_Ionization_Penalty_Neutral>
0.0205507

> <r_epik_State_Penalty>
1.52216

> <r_epik_Charging_Adjusted_Penalty>
2.94291

> <i_epik_Tot_Q>
1

> <i_epik_Tot_abs_Q>
1

> <r_epik_Metal_State_Penalty>
1.57308

> <b_epik_Metal_Only>
0

> <s_lp_Force_Field>
OPLS_2005

> <r_lp_Energy>
52.9553

> <b_lp_Chiralities_Consistent>
1

> <s_lp_Variant>
AV-unprocessed.smi:906-3

> <Gold.Version>
5.8.1

> <Gold.Id.Protein>
6NUR|6NUR_protein|mol2

> <Gold.PLP.Fitness>
43.0857

> <Gold.PLP.PLP>
-45.6444

> <Gold.PLP.part.hbond>
0.0000

> <Gold.PLP.part.metal>
0.0000

> <Gold.PLP.part.buried>
-4.8165

> <Gold.PLP.part.nonpolar>
-40.7217

> <Gold.PLP.part.repulsive>
0.2341

> <Gold.PLP.ligand.clash>
0.7423

> <Gold.PLP.ligand.torsion>
1.3076

> <Gold.PLP.Chemscore.Hbond>
0.0000

> <Gold.PLP.Chemscore.CHOScore>
0.0000

> <Gold.PLP.Chemscore.Metal>
0.0000

> <Gold.PLP.Chemscore.Internal.Correction>
0.7987

> <Gold.Rescore>
     Score         DG    S(hbond)    S(metal)    S(lipo)     H(rot)  DE(clash)    DE(int)     intcor
     10.34     -11.92       0.00        0.00      91.26       1.66       0.11       1.47       ----

> <Gold.Chemscore.Fitness>
10.3368

> <Gold.Chemscore.DG>
-11.9194

> <Gold.Chemscore.ZeroCoef>
-5.4800

> <Gold.Chemscore.Hbond>
0.0000

> <Gold.Chemscore.Metal>
0.0000

> <Gold.Chemscore.Lipo>
91.2565

> <Gold.Chemscore.Internal_Hbond>
0.0000

> <Gold.Chemscore.DEClash>
0.1124

> <Gold.Chemscore.DEInternal>
1.4702

> <Gold.Chemscore.Rot>
1.6553

> <Gold.Chemscore.Internal.Correction>
   9.000000E+99

> <Gold.Chemscore.Hbond.Weighted>
-0.0000

> <Gold.Chemscore.Metal.Weighted>
-0.0000

> <Gold.Chemscore.Lipo.Weighted>
-10.6770

> <Gold.Chemscore.Internal_Hbond.Weighted>
0.0000

> <Gold.Chemscore.DEClash.Weighted>
0.1124

> <Gold.Chemscore.DEInternal.Weighted>
1.4702

> <Gold.Chemscore.Rot.Weighted>
4.2376

> <Gold.Chemscore.Internal.Correction.Weighted>
   9.000000E+99

> <Gold.Protein.RotatedTorsions>
[ 6907 6896 6895 6894 ] final  -85.74 input  -60.11 | X-H torsion
[ 7974 7965 7964 7962 ] final  -30.52 input  175.53 | X-H torsion
[ 8008 7997 7996 7995 ] final -146.03 input   59.86 | X-H torsion
[ 10167 10162 10161 10158 ] final  120.13 input  -65.29 | X-H torsion
[ 10718 10713 10712 10709 ] final  114.91 input   66.30 | X-H torsion
[ 10763 10752 10751 10750 ] final   -8.39 input  -60.55 | X-H torsion
[ 11005 11000 10999 10996 ] final -179.53 input  -57.11 | X-H torsion

> <Gold.Protein.ActiveResidues>
 VAL166  LYS551  ARG553  GLY616  TRP617  ASP618  TYR619  PRO620  LYS621  CYS622 
 ASP623  PHE694  ASN695  SER759  ASP760  ASP761  ALA762  ILE779  LEU786  VAL792 
 PHE793  MET794  SER795  GLU796  ALA797  LYS798  CYS799  TRP800  GLU811  SER814 

> <Gold.Protein.RotatedAtoms>
  150.6869  134.3159  159.4765 H   0  0  0  0  0  0  0  0  0  0  0  0  # atno 6907 bound_to 6896
  152.1039  134.9319  160.0578 H   0  0  0  0  0  0  0  0  0  0  0  0  # atno 6908 bound_to 6896
  152.0588  133.4017  159.4445 H   0  0  0  0  0  0  0  0  0  0  0  0  # atno 6909 bound_to 6896
  146.1136  140.5551  142.8766 H   0  0  0  0  0  0  0  0  0  0  0  0  # atno 7974 bound_to 7965
  155.5528  140.0618  157.2846 H   0  0  0  0  0  0  0  0  0  0  0  0  # atno 8008 bound_to 7997
  154.4415  140.1899  156.0749 H   0  0  0  0  0  0  0  0  0  0  0  0  # atno 8009 bound_to 7997
  156.0503  140.3285  155.7347 H   0  0  0  0  0  0  0  0  0  0  0  0  # atno 8010 bound_to 7997
  139.6002  144.7054  151.3081 H   0  0  0  0  0  0  0  0  0  0  0  0  # atno 10167 bound_to 10162
  157.6254  131.1005  150.7253 H   0  0  0  0  0  0  0  0  0  0  0  0  # atno 10718 bound_to 10713
  153.4398  135.7013  153.6176 H   0  0  0  0  0  0  0  0  0  0  0  0  # atno 10763 bound_to 10752
  153.4556  135.3748  155.2309 H   0  0  0  0  0  0  0  0  0  0  0  0  # atno 10764 bound_to 10752
  154.8727  135.4007  154.3794 H   0  0  0  0  0  0  0  0  0  0  0  0  # atno 10765 bound_to 10752
  140.4176  134.6635  157.4647 H   0  0  0  0  0  0  0  0  0  0  0  0  # atno 11005 bound_to 11000
  144.7533  140.5246  143.6786 LP  0  0  0  0  0  0  0  0  0  0  0  0  # atno 17320 bound_to 7965
  145.5612  139.1479  143.3340 LP  0  0  0  0  0  0  0  0  0  0  0  0  # atno 17321 bound_to 7965
  140.7243  143.7047  150.7817 LP  0  0  0  0  0  0  0  0  0  0  0  0  # atno 17342 bound_to 10162
  140.0622  143.5143  152.2622 LP  0  0  0  0  0  0  0  0  0  0  0  0  # atno 17343 bound_to 10162
  156.7603  130.4796  149.5438 LP  0  0  0  0  0  0  0  0  0  0  0  0  # atno 17370 bound_to 10713
  156.1422  130.6252  151.0483 LP  0  0  0  0  0  0  0  0  0  0  0  0  # atno 17371 bound_to 10713
  140.0223  134.6529  155.9222 LP  0  0  0  0  0  0  0  0  0  0  0  0  # atno 17394 bound_to 11000
  141.1797  133.6544  156.4969 LP  0  0  0  0  0  0  0  0  0  0  0  0  # atno 17395 bound_to 11000

$$$$
