AV-unprocessed.smi:1952|AV-procd|sdf|7889|dock5
  -GOLD-   2272010 43D 1   1.00000     0.00000
 Structure written by MMmdl.
 39 40  0  0  0  0  0  0  0  0  3 V2000
  149.0964  140.9834  154.9181 C   0  0  0  0  0  0  0  0  0  0  0  0
  149.9442  139.7605  154.8392 C   0  0  0  0  0  0  0  0  0  0  0  0
  149.6601  138.4452  154.6039 C   0  0  0  0  0  0  0  0  0  0  0  0
  150.9361  137.8222  154.6627 C   0  0  0  0  0  0  0  0  0  0  0  0
  151.1815  136.5128  154.5013 N   0  5  0  0  0  0  0  0  0  0  0  0
  150.3868  135.5958  155.0963 C   0  0  0  0  0  0  0  0  0  0  0  0
  150.3495  135.3346  156.3006 O   0  0  0  0  0  0  0  0  0  0  0  0
  149.5609  134.9667  154.2462 N   0  0  0  0  0  0  0  0  0  0  0  0
  148.5160  134.0014  154.5934 C   0  0  2  0  0  0  0  0  0  0  0  0
  149.1491  132.8115  155.3267 C   0  0  0  0  0  0  0  0  0  0  0  0
  147.7504  133.5460  153.3301 C   0  0  0  0  0  0  0  0  0  0  0  0
  147.0193  134.6586  152.6736 N   0  3  0  0  0  0  0  0  0  0  0  0
  146.2030  134.2303  151.5151 C   0  0  0  0  0  0  0  0  0  0  0  0
  145.5756  135.4586  150.8338 C   0  0  0  0  0  0  0  0  0  0  0  0
  144.7989  136.1863  151.7786 O   0  0  0  0  0  0  0  0  0  0  0  0
  145.5868  136.6640  152.8635 C   0  0  0  0  0  0  0  0  0  0  0  0
  146.2074  135.4719  153.6097 C   0  0  0  0  0  0  0  0  0  0  0  0
  151.9077  138.6809  154.9251 N   0  0  0  0  0  0  0  0  0  0  0  0
  151.2801  139.9279  155.0327 O   0  0  0  0  0  0  0  0  0  0  0  0
  149.3232  141.5550  155.8180 H   0  0  0  0  0  0  0  0  0  0  0  0
  148.0383  140.7223  154.9415 H   0  0  0  0  0  0  0  0  0  0  0  0
  149.2670  141.6274  154.0554 H   0  0  0  0  0  0  0  0  0  0  0  0
  148.6946  137.9992  154.4171 H   0  0  0  0  0  0  0  0  0  0  0  0
  149.6429  135.2100  153.2696 H   0  0  0  0  0  0  0  0  0  0  0  0
  147.8124  134.4623  155.2879 H   0  0  0  0  0  0  0  0  0  0  0  0
  148.3915  132.0857  155.6235 H   0  0  0  0  0  0  0  0  0  0  0  0
  149.6644  133.1372  156.2311 H   0  0  0  0  0  0  0  0  0  0  0  0
  149.8758  132.2960  154.6976 H   0  0  0  0  0  0  0  0  0  0  0  0
  148.4768  133.1365  152.6264 H   0  0  0  0  0  0  0  0  0  0  0  0
  147.0614  132.7326  153.5625 H   0  0  0  0  0  0  0  0  0  0  0  0
  146.8267  133.6953  150.7979 H   0  0  0  0  0  0  0  0  0  0  0  0
  145.4251  133.5407  151.8467 H   0  0  0  0  0  0  0  0  0  0  0  0
  146.3466  136.1024  150.4068 H   0  0  0  0  0  0  0  0  0  0  0  0
  144.9312  135.1452  150.0122 H   0  0  0  0  0  0  0  0  0  0  0  0
  146.3610  137.3411  152.4986 H   0  0  0  0  0  0  0  0  0  0  0  0
  144.9508  137.2392  153.5364 H   0  0  0  0  0  0  0  0  0  0  0  0
  145.4230  134.8544  154.0498 H   0  0  0  0  0  0  0  0  0  0  0  0
  146.8250  135.8361  154.4302 H   0  0  0  0  0  0  0  0  0  0  0  0
  147.7317  135.2706  152.2991 H   0  0  0  0  0  0  0  0  0  0  0  0
  1  2  1  0  0  0  0
  1 20  1  0  0  0  0
  1 21  1  0  0  0  0
  1 22  1  0  0  0  0
  2 19  1  0  0  0  0
  2  3  2  0  0  0  0
  3  4  1  0  0  0  0
  3 23  1  0  0  0  0
  4  5  1  0  0  0  0
  4 18  2  0  0  0  0
  5  6  1  0  0  0  0
  6  7  2  0  0  0  0
  6  8  1  0  0  0  0
  8  9  1  0  0  0  0
  8 24  1  0  0  0  0
  9 10  1  0  0  0  0
  9 11  1  0  0  0  0
  9 25  1  0  0  0  0
 10 26  1  0  0  0  0
 10 27  1  0  0  0  0
 10 28  1  0  0  0  0
 11 12  1  0  0  0  0
 11 29  1  0  0  0  0
 11 30  1  0  0  0  0
 12 17  1  0  0  0  0
 12 13  1  0  0  0  0
 12 39  1  0  0  0  0
 13 14  1  0  0  0  0
 13 31  1  0  0  0  0
 13 32  1  0  0  0  0
 14 15  1  0  0  0  0
 14 33  1  0  0  0  0
 14 34  1  0  0  0  0
 15 16  1  0  0  0  0
 16 17  1  0  0  0  0
 16 35  1  0  0  0  0
 16 36  1  0  0  0  0
 17 37  1  0  0  0  0
 17 38  1  0  0  0  0
 18 19  1  0  0  0  0
M  CHG  1   5  -1
M  CHG  1  12   1
M  END
> <s_m_source_file>
AV-unprocessed.smi

> <i_m_source_file_index>
1952

> <i_lp_mmshare_version>
43012

> <i_f3d_flags>
0

> <s_epik_input>
W0NIM11jMVtjSF1jKG5vMSlbTkhdQyg9TylbTkhdW0NASF0oW0NIM10pW0NIMl1OMltDSDJdW0NIMl1PW0NIMl1bQ0gyXTI=

> <s_epik_cmdline>
J2VwaWtfcHl0aG9uJywgJy1waCcsICc3LjAnLCAnLXRuJywgJzgnLCAnLW1hJywgJzIwMCcsICctbWV0YWxfYmluZGluZycsICctaW1hZScsICc8aW5maWxlLm1hZT4nLCAnLW9tYWUnLCAnPG91dGZpbGUubWFlPic=

> <r_epik_Ionization_Penalty>
6.62152

> <r_epik_Ionization_Penalty_Charging>
6.62142

> <r_epik_Ionization_Penalty_Neutral>
9.8734e-05

> <r_epik_State_Penalty>
6.82189

> <r_epik_Charging_Adjusted_Penalty>
13.4433

> <i_epik_Tot_Q>
0

> <i_epik_Tot_abs_Q>
2

> <r_epik_Metal_State_Penalty>
2.76365

> <b_epik_Metal_Only>
1

> <s_lp_Force_Field>
OPLS_2005

> <r_lp_Energy>
7.85486

> <b_lp_Chiralities_Consistent>
1

> <s_lp_Variant>
AV-unprocessed.smi:1952-7

> <Gold.Version>
5.8.1

> <Gold.Id.Protein>
6NUR|6NUR_protein|mol2

> <Gold.PLP.Fitness>
43.5529

> <Gold.PLP.PLP>
-29.7106

> <Gold.PLP.part.hbond>
-4.3397

> <Gold.PLP.part.metal>
0.0000

> <Gold.PLP.part.buried>
-3.6317

> <Gold.PLP.part.nonpolar>
-22.8930

> <Gold.PLP.part.repulsive>
1.5444

> <Gold.PLP.ligand.clash>
0.0000

> <Gold.PLP.ligand.torsion>
1.1017

> <Gold.PLP.Chemscore.Hbond>
5.3248

> <Gold.PLP.Chemscore.CHOScore>
0.0000

> <Gold.PLP.Chemscore.Metal>
0.0000

> <Gold.Chemscore.Hbonds>
donor molecule, donor type, donor heavy atom, donor atom, acceptor molecule, acceptor atom, score
      L1  H     8    24       P1  7948  0.34
      L1  H    12    39       P1  7948  2.00
      P1  H  7989  7998       L1    19  0.90
      P1  H 10752 10765       L1     5  2.00

> <Gold.PLP.Chemscore.Internal.Correction>
0.0712

> <Gold.Rescore>
     Score         DG    S(hbond)    S(metal)    S(lipo)     H(rot)  DE(clash)    DE(int)     intcor
     11.60     -13.92       1.89        0.00      52.65       1.58       0.03       2.29       ----

> <Gold.Chemscore.Fitness>
11.6045

> <Gold.Chemscore.DG>
-13.9174

> <Gold.Chemscore.ZeroCoef>
-5.4800

> <Gold.Chemscore.Hbond>
1.8927

> <Gold.Chemscore.Metal>
0.0000

> <Gold.Chemscore.Lipo>
52.6493

> <Gold.Chemscore.Internal_Hbond>
0.0000

> <Gold.Chemscore.DEClash>
0.0274

> <Gold.Chemscore.DEInternal>
2.2855

> <Gold.Chemscore.Rot>
1.5798

> <Gold.Chemscore.Internal.Correction>
   9.000000E+99

> <Gold.Chemscore.Hbonds>
donor molecule, donor type, donor heavy atom, donor atom, acceptor molecule, acceptor atom, score
      L1  H     8    24       P1  7948  0.01
      L1  H    12    39       P1  7948  0.97
      P1  H  7989  7998       L1    19  0.12
      P1  H 10752 10765       L1     5  0.67

> <Gold.Chemscore.Hbond.Weighted>
-6.3216

> <Gold.Chemscore.Metal.Weighted>
-0.0000

> <Gold.Chemscore.Lipo.Weighted>
-6.1600

> <Gold.Chemscore.Internal_Hbond.Weighted>
0.0000

> <Gold.Chemscore.DEClash.Weighted>
0.0274

> <Gold.Chemscore.DEInternal.Weighted>
2.2855

> <Gold.Chemscore.Rot.Weighted>
4.0442

> <Gold.Chemscore.Internal.Correction.Weighted>
   9.000000E+99

> <Gold.Protein.RotatedTorsions>
[ 6907 6896 6895 6894 ] final -160.72 input  -60.11 | X-H torsion
[ 7974 7965 7964 7962 ] final   45.44 input  175.53 | X-H torsion
[ 8008 7997 7996 7995 ] final   97.04 input   59.86 | X-H torsion
[ 10167 10162 10161 10158 ] final  108.32 input  -65.29 | X-H torsion
[ 10718 10713 10712 10709 ] final -157.37 input   66.30 | X-H torsion
[ 10763 10752 10751 10750 ] final  152.68 input  -60.55 | X-H torsion
[ 11005 11000 10999 10996 ] final   44.48 input  -57.11 | X-H torsion

> <Gold.Protein.ActiveResidues>
 VAL166  LYS551  ARG553  GLY616  TRP617  ASP618  TYR619  PRO620  LYS621  CYS622 
 ASP623  PHE694  ASN695  SER759  ASP760  ASP761  ALA762  ILE779  LEU786  VAL792 
 PHE793  MET794  SER795  GLU796  ALA797  LYS798  CYS799  TRP800  GLU811  SER814 

> <Gold.Protein.RotatedAtoms>
  151.3535  133.3916  159.2682 H   0  0  0  0  0  0  0  0  0  0  0  0  # atno 6907 bound_to 6896
  150.9782  134.9143  159.7839 H   0  0  0  0  0  0  0  0  0  0  0  0  # atno 6908 bound_to 6896
  152.5208  134.3498  159.9299 H   0  0  0  0  0  0  0  0  0  0  0  0  # atno 6909 bound_to 6896
  146.0480  139.4964  142.9736 H   0  0  0  0  0  0  0  0  0  0  0  0  # atno 7974 bound_to 7965
  156.0860  140.3264  155.7754 H   0  0  0  0  0  0  0  0  0  0  0  0  # atno 8008 bound_to 7997
  155.5075  140.0574  157.2946 H   0  0  0  0  0  0  0  0  0  0  0  0  # atno 8009 bound_to 7997
  154.4609  140.1966  156.0263 H   0  0  0  0  0  0  0  0  0  0  0  0  # atno 8010 bound_to 7997
  139.6856  144.7114  151.1438 H   0  0  0  0  0  0  0  0  0  0  0  0  # atno 10167 bound_to 10162
  156.5394  130.8556  151.2743 H   0  0  0  0  0  0  0  0  0  0  0  0  # atno 10718 bound_to 10713
  154.1239  135.2831  155.3201 H   0  0  0  0  0  0  0  0  0  0  0  0  # atno 10763 bound_to 10752
  154.6403  135.5404  153.7785 H   0  0  0  0  0  0  0  0  0  0  0  0  # atno 10764 bound_to 10752
  153.0303  135.6485  154.1392 H   0  0  0  0  0  0  0  0  0  0  0  0  # atno 10765 bound_to 10752
  140.1548  134.4416  155.8357 H   0  0  0  0  0  0  0  0  0  0  0  0  # atno 11005 bound_to 11000
  145.6773  141.0200  143.1625 LP  0  0  0  0  0  0  0  0  0  0  0  0  # atno 17320 bound_to 7965
  144.7108  139.8380  143.7415 LP  0  0  0  0  0  0  0  0  0  0  0  0  # atno 17321 bound_to 7965
  140.7666  143.5635  150.9073 LP  0  0  0  0  0  0  0  0  0  0  0  0  # atno 17342 bound_to 10162
  139.9309  143.6494  152.3076 LP  0  0  0  0  0  0  0  0  0  0  0  0  # atno 17343 bound_to 10162
  157.7408  130.9857  150.2402 LP  0  0  0  0  0  0  0  0  0  0  0  0  # atno 17370 bound_to 10713
  156.2986  130.3755  149.7772 LP  0  0  0  0  0  0  0  0  0  0  0  0  # atno 17371 bound_to 10713
  141.2203  133.6888  156.7487 LP  0  0  0  0  0  0  0  0  0  0  0  0  # atno 17394 bound_to 11000
  140.2561  134.8503  157.3714 LP  0  0  0  0  0  0  0  0  0  0  0  0  # atno 17395 bound_to 11000

$$$$
