AV-unprocessed.smi:2445|AV-procd|sdf|9633|dock1
  -GOLD-   2272013263D 1   1.00000     0.00000
 Structure written by MMmdl.
 40 41  0  0  0  0  0  0  0  0  1 V2000
  143.8071  132.7096  148.4753 C   0  0  0  0  0  0  0  0  0  0  0  0
  144.4556  133.0225  149.7809 C   0  0  0  0  0  0  0  0  0  0  0  0
  144.1031  133.9960  150.6823 C   0  0  0  0  0  0  0  0  0  0  0  0
  144.9144  134.0344  151.8184 N   0  0  0  0  0  0  0  0  0  0  0  0
  145.8745  133.1062  151.7936 C   0  0  0  0  0  0  0  0  0  0  0  0
  146.8839  132.9327  152.8890 C   0  0  2  0  0  0  0  0  0  0  0  0
  146.8570  131.5088  153.4619 C   0  0  0  0  0  0  0  0  0  0  0  0
  146.7620  134.0058  153.9887 C   0  0  0  0  0  0  0  0  0  0  0  0
  147.7180  135.0899  153.7916 N   0  0  0  0  0  0  0  0  0  0  0  0
  147.9049  136.1031  154.6464 C   0  0  0  0  0  0  0  0  0  0  0  0
  147.3059  136.2231  155.7152 O   0  0  0  0  0  0  0  0  0  0  0  0
  148.8191  136.9712  154.1939 N   0  0  0  0  0  0  0  0  0  0  0  0
  149.2367  138.1853  154.8882 C   0  0  2  0  0  0  0  0  0  0  0  0
  148.1795  139.2666  154.8047 C   0  0  0  0  0  0  0  0  0  0  0  0
  149.0058  140.5282  155.0225 C   0  0  0  0  0  0  0  0  0  0  0  0
  150.2728  140.2630  154.4318 O   0  0  0  0  0  0  0  0  0  0  0  0
  150.4345  138.8643  154.2077 C   0  0  1  0  0  0  0  0  0  0  0  0
  151.8010  138.4037  154.7298 C   0  0  0  0  0  0  0  0  0  0  0  0
  145.8373  132.1155  150.3369 S   0  0  0  0  0  0  0  0  0  0  0  0
  142.9318  133.3384  148.3103 H   0  0  0  0  0  0  0  0  0  0  0  0
  143.4843  131.6688  148.4429 H   0  0  0  0  0  0  0  0  0  0  0  0
  144.5000  132.8746  147.6502 H   0  0  0  0  0  0  0  0  0  0  0  0
  143.2917  134.7037  150.5959 H   0  0  0  0  0  0  0  0  0  0  0  0
  147.8665  133.0643  152.4328 H   0  0  0  0  0  0  0  0  0  0  0  0
  147.0251  130.7681  152.6795 H   0  0  0  0  0  0  0  0  0  0  0  0
  145.8972  131.2869  153.9296 H   0  0  0  0  0  0  0  0  0  0  0  0
  147.6328  131.3743  154.2161 H   0  0  0  0  0  0  0  0  0  0  0  0
  145.7483  134.4109  153.9891 H   0  0  0  0  0  0  0  0  0  0  0  0
  146.9247  133.5619  154.9718 H   0  0  0  0  0  0  0  0  0  0  0  0
  148.2572  135.0758  152.9380 H   0  0  0  0  0  0  0  0  0  0  0  0
  149.2566  136.7824  153.3038 H   0  0  0  0  0  0  0  0  0  0  0  0
  149.4544  137.9888  155.9402 H   0  0  0  0  0  0  0  0  0  0  0  0
  147.7279  139.2896  153.8114 H   0  0  0  0  0  0  0  0  0  0  0  0
  147.3834  139.1471  155.5404 H   0  0  0  0  0  0  0  0  0  0  0  0
  148.5403  141.4147  154.5916 H   0  0  0  0  0  0  0  0  0  0  0  0
  149.1513  140.7059  156.0888 H   0  0  0  0  0  0  0  0  0  0  0  0
  150.3847  138.7105  153.1286 H   0  0  0  0  0  0  0  0  0  0  0  0
  151.9596  137.3433  154.5345 H   0  0  0  0  0  0  0  0  0  0  0  0
  151.8877  138.5638  155.8047 H   0  0  0  0  0  0  0  0  0  0  0  0
  152.6075  138.9538  154.2448 H   0  0  0  0  0  0  0  0  0  0  0  0
  1  2  1  0  0  0  0
  1 20  1  0  0  0  0
  1 21  1  0  0  0  0
  1 22  1  0  0  0  0
  2 19  1  0  0  0  0
  2  3  2  0  0  0  0
  3  4  1  0  0  0  0
  3 23  1  0  0  0  0
  4  5  2  0  0  0  0
  5  6  1  0  0  0  0
  5 19  1  0  0  0  0
  6  7  1  0  0  0  0
  6  8  1  0  0  0  0
  6 24  1  0  0  0  0
  7 25  1  0  0  0  0
  7 26  1  0  0  0  0
  7 27  1  0  0  0  0
  8  9  1  0  0  0  0
  8 28  1  0  0  0  0
  8 29  1  0  0  0  0
  9 10  1  0  0  0  0
  9 30  1  0  0  0  0
 10 11  2  0  0  0  0
 10 12  1  0  0  0  0
 12 13  1  0  0  0  0
 12 31  1  0  0  0  0
 13 17  1  0  0  0  0
 13 14  1  0  0  0  0
 13 32  1  0  0  0  0
 14 15  1  0  0  0  0
 14 33  1  0  0  0  0
 14 34  1  0  0  0  0
 15 16  1  0  0  0  0
 15 35  1  0  0  0  0
 15 36  1  0  0  0  0
 16 17  1  0  0  0  0
 17 18  1  0  0  0  0
 17 37  1  0  0  0  0
 18 38  1  0  0  0  0
 18 39  1  0  0  0  0
 18 40  1  0  0  0  0
M  END
> <s_m_source_file>
AV-unprocessed.smi

> <i_m_source_file_index>
2445

> <i_lp_mmshare_version>
43012

> <i_f3d_flags>
0

> <s_epik_input>
W0NIM11jMVtjSF1uYyhzMSlbQ0BIXShbQ0gzXSlbQ0gyXVtOSF1DKD1PKVtOSF1bQ0BASF0yW0NIMl1bQ0gyXU9bQ0BIXTJbQ0gzXQ==

> <s_epik_cmdline>
J2VwaWtfcHl0aG9uJywgJy1waCcsICc3LjAnLCAnLXRuJywgJzgnLCAnLW1hJywgJzIwMCcsICctbWV0YWxfYmluZGluZycsICctaW1hZScsICc8aW5maWxlLm1hZT4nLCAnLW9tYWUnLCAnPG91dGZpbGUubWFlPic=

> <r_epik_Ionization_Penalty>
0.000649483

> <r_epik_Ionization_Penalty_Charging>
0

> <r_epik_Ionization_Penalty_Neutral>
0.000649483

> <r_epik_State_Penalty>
0.000379895

> <r_epik_Charging_Adjusted_Penalty>
0.000379895

> <i_epik_Tot_Q>
0

> <i_epik_Tot_abs_Q>
0

> <r_epik_Metal_State_Penalty>
-0

> <b_epik_Metal_Only>
0

> <s_lp_Force_Field>
OPLS_2005

> <r_lp_Energy>
5.96994

> <b_lp_Chiralities_Consistent>
1

> <s_lp_Variant>
AV-unprocessed.smi:2445-1

> <Gold.Version>
5.8.1

> <Gold.Id.Protein>
6NUR|6NUR_protein|mol2

> <Gold.PLP.Fitness>
40.5154

> <Gold.PLP.PLP>
-30.8693

> <Gold.PLP.part.hbond>
-2.6786

> <Gold.PLP.part.metal>
0.0000

> <Gold.PLP.part.buried>
-3.9237

> <Gold.PLP.part.nonpolar>
-24.6016

> <Gold.PLP.part.repulsive>
0.2501

> <Gold.PLP.ligand.clash>
0.0000

> <Gold.PLP.ligand.torsion>
0.7392

> <Gold.PLP.Chemscore.Hbond>
2.6640

> <Gold.PLP.Chemscore.CHOScore>
1.0000

> <Gold.PLP.Chemscore.Metal>
0.0000

> <Gold.Chemscore.Hbonds>
donor molecule, donor type, donor heavy atom, donor atom, acceptor molecule, acceptor atom, score
      L1  H     9    30       P1  7948  0.78
      L1  H    12    31       P1  7948  0.88
      P1  H  7989  7998       L1    16  1.00
      L1  C     3    23       P1 10186  1.00

> <Gold.PLP.Chemscore.Internal.Correction>
0.1324

> <Gold.Rescore>
     Score         DG    S(hbond)    S(metal)    S(lipo)     H(rot)  DE(clash)    DE(int)     intcor
     19.06     -19.94       2.53        0.00      84.90       1.53       0.04       0.84       ----

> <Gold.Chemscore.Fitness>
19.0637

> <Gold.Chemscore.DG>
-19.9416

> <Gold.Chemscore.ZeroCoef>
-5.4800

> <Gold.Chemscore.Hbond>
2.5306

> <Gold.Chemscore.Metal>
0.0000

> <Gold.Chemscore.Lipo>
84.8955

> <Gold.Chemscore.Internal_Hbond>
0.0000

> <Gold.Chemscore.DEClash>
0.0383

> <Gold.Chemscore.DEInternal>
0.8397

> <Gold.Chemscore.Rot>
1.5325

> <Gold.Chemscore.Internal.Correction>
   9.000000E+99

> <Gold.Chemscore.Hbonds>
donor molecule, donor type, donor heavy atom, donor atom, acceptor molecule, acceptor atom, score
      L1  H     9    30       P1  7948  0.70
      L1  H    12    31       P1  7948  0.80
      P1  H  7989  7998       L1    16  0.25

> <Gold.Chemscore.Hbond.Weighted>
-8.4522

> <Gold.Chemscore.Metal.Weighted>
-0.0000

> <Gold.Chemscore.Lipo.Weighted>
-9.9328

> <Gold.Chemscore.Internal_Hbond.Weighted>
0.0000

> <Gold.Chemscore.DEClash.Weighted>
0.0383

> <Gold.Chemscore.DEInternal.Weighted>
0.8397

> <Gold.Chemscore.Rot.Weighted>
3.9233

> <Gold.Chemscore.Internal.Correction.Weighted>
   9.000000E+99

> <Gold.Protein.RotatedTorsions>
[ 6907 6896 6895 6894 ] final  -63.08 input  -60.11 | X-H torsion
[ 7974 7965 7964 7962 ] final   61.16 input  175.53 | X-H torsion
[ 8008 7997 7996 7995 ] final   39.93 input   59.86 | X-H torsion
[ 10167 10162 10161 10158 ] final   80.69 input  -65.29 | X-H torsion
[ 10718 10713 10712 10709 ] final   37.65 input   66.30 | X-H torsion
[ 10763 10752 10751 10750 ] final  -34.52 input  -60.55 | X-H torsion
[ 11005 11000 10999 10996 ] final -126.55 input  -57.11 | X-H torsion

> <Gold.Protein.ActiveResidues>
 VAL166  LYS551  ARG553  GLY616  TRP617  ASP618  TYR619  PRO620  LYS621  CYS622 
 ASP623  PHE694  ASN695  SER759  ASP760  ASP761  ALA762  ILE779  LEU786  VAL792 
 PHE793  MET794  SER795  GLU796  ALA797  LYS798  CYS799  TRP800  GLU811  SER814 

> <Gold.Protein.RotatedAtoms>
  150.7673  134.6484  159.6274 H   0  0  0  0  0  0  0  0  0  0  0  0  # atno 6907 bound_to 6896
  152.3710  134.6731  160.0185 H   0  0  0  0  0  0  0  0  0  0  0  0  # atno 6908 bound_to 6896
  151.7091  133.3276  159.3322 H   0  0  0  0  0  0  0  0  0  0  0  0  # atno 6909 bound_to 6896
  145.8878  139.3489  143.0667 H   0  0  0  0  0  0  0  0  0  0  0  0  # atno 7974 bound_to 7965
  155.2447  140.3348  155.4288 H   0  0  0  0  0  0  0  0  0  0  0  0  # atno 8008 bound_to 7997
  156.2241  140.1821  156.7450 H   0  0  0  0  0  0  0  0  0  0  0  0  # atno 8009 bound_to 7997
  154.5871  140.0644  156.9171 H   0  0  0  0  0  0  0  0  0  0  0  0  # atno 8010 bound_to 7997
  139.9472  144.6051  150.8196 H   0  0  0  0  0  0  0  0  0  0  0  0  # atno 10167 bound_to 10162
  157.3495  130.7590  149.6968 H   0  0  0  0  0  0  0  0  0  0  0  0  # atno 10718 bound_to 10713
  153.8481  135.6851  153.4795 H   0  0  0  0  0  0  0  0  0  0  0  0  # atno 10763 bound_to 10752
  153.1413  135.4656  154.9498 H   0  0  0  0  0  0  0  0  0  0  0  0  # atno 10764 bound_to 10752
  154.7814  135.3270  154.7928 H   0  0  0  0  0  0  0  0  0  0  0  0  # atno 10765 bound_to 10752
  140.9672  134.0855  157.3907 H   0  0  0  0  0  0  0  0  0  0  0  0  # atno 11005 bound_to 11000
  145.8945  140.9283  143.0535 LP  0  0  0  0  0  0  0  0  0  0  0  0  # atno 17320 bound_to 7965
  144.6729  140.0950  143.7463 LP  0  0  0  0  0  0  0  0  0  0  0  0  # atno 17321 bound_to 7965
  140.7594  143.3127  151.2806 LP  0  0  0  0  0  0  0  0  0  0  0  0  # atno 17342 bound_to 10162
  139.6657  144.0109  152.2721 LP  0  0  0  0  0  0  0  0  0  0  0  0  # atno 17343 bound_to 10162
  155.9719  130.4145  150.4133 LP  0  0  0  0  0  0  0  0  0  0  0  0  # atno 17370 bound_to 10713
  157.2194  131.0479  151.2555 LP  0  0  0  0  0  0  0  0  0  0  0  0  # atno 17371 bound_to 10713
  139.8899  135.0108  156.6704 LP  0  0  0  0  0  0  0  0  0  0  0  0  # atno 17394 bound_to 11000
  140.7382  133.9001  155.8259 LP  0  0  0  0  0  0  0  0  0  0  0  0  # atno 17395 bound_to 11000

$$$$
