AV-unprocessed.smi:604|AV-procd|sdf|3038|dock6
  -GOLD-   2262023553D 1   1.00000     0.00000
 Structure written by MMmdl.
 49 51  0  0  0  0  0  0  0  0  2 V2000
  142.7489  135.9867  152.8356 O   0  0  0  0  0  0  0  0  0  0  0  0
  142.9019  137.1968  152.6722 C   0  0  0  0  0  0  0  0  0  0  0  0
  141.9510  138.1316  152.8411 N   0  0  0  0  0  0  0  0  0  0  0  0
  140.5995  137.9532  153.2435 C   0  0  0  0  0  0  0  0  0  0  0  0
  139.5645  138.8881  152.9979 C   0  0  0  0  0  0  0  0  0  0  0  0
  138.2594  138.5870  153.4331 C   0  0  0  0  0  0  0  0  0  0  0  0
  138.0348  137.3621  154.0906 C   0  0  0  0  0  0  0  0  0  0  0  0
  139.0084  136.4557  154.3187 N   0  0  0  0  0  0  0  0  0  0  0  0
  140.2568  136.7503  153.8971 C   0  0  0  0  0  0  0  0  0  0  0  0
  144.0577  137.7461  152.2710 N   0  0  0  0  0  0  0  0  0  0  0  0
  145.2868  137.0082  151.9788 C   0  0  2  0  0  0  0  0  0  0  0  0
  146.0935  136.7708  153.2675 C   0  0  0  0  0  0  0  0  0  0  0  0
  146.7435  138.0645  153.7944 C   0  0  0  0  0  0  0  0  0  0  0  0
  147.5831  138.7117  152.7528 N   0  3  2  0  0  0  0  0  0  0  0  0
  148.3386  139.8845  153.2658 C   0  0  0  0  0  0  0  0  0  0  0  0
  149.2635  139.5102  154.4407 C   0  0  0  0  0  0  0  0  0  0  0  0
  149.7633  140.7283  155.2224 C   0  0  0  0  0  0  0  0  0  0  0  0
  150.9869  140.2327  155.9999 C   0  0  0  0  0  0  0  0  0  0  0  0
  151.5100  139.0067  155.2380 C   0  0  0  0  0  0  0  0  0  0  0  0
  150.5661  138.8054  154.0479 C   0  0  0  0  0  0  0  0  0  0  0  0
  146.7930  139.0176  151.5316 C   0  0  0  0  0  0  0  0  0  0  0  0
  146.1658  137.7412  150.9457 C   0  0  0  0  0  0  0  0  0  0  0  0
  142.2054  139.0763  152.5923 H   0  0  0  0  0  0  0  0  0  0  0  0
  139.7394  139.8160  152.4764 H   0  0  0  0  0  0  0  0  0  0  0  0
  137.4473  139.2784  153.2626 H   0  0  0  0  0  0  0  0  0  0  0  0
  137.0457  137.1007  154.4369 H   0  0  0  0  0  0  0  0  0  0  0  0
  141.0093  136.0006  154.0944 H   0  0  0  0  0  0  0  0  0  0  0  0
  144.0917  138.7498  152.1666 H   0  0  0  0  0  0  0  0  0  0  0  0
  145.0032  136.0351  151.5732 H   0  0  0  0  0  0  0  0  0  0  0  0
  145.4578  136.3295  154.0365 H   0  0  0  0  0  0  0  0  0  0  0  0
  146.8764  136.0381  153.0671 H   0  0  0  0  0  0  0  0  0  0  0  0
  145.9786  138.7645  154.1345 H   0  0  0  0  0  0  0  0  0  0  0  0
  147.3591  137.8218  154.6617 H   0  0  0  0  0  0  0  0  0  0  0  0
  148.8953  140.3696  152.4624 H   0  0  0  0  0  0  0  0  0  0  0  0
  147.6369  140.6367  153.6300 H   0  0  0  0  0  0  0  0  0  0  0  0
  148.7173  138.8696  155.1356 H   0  0  0  0  0  0  0  0  0  0  0  0
  150.0702  141.5134  154.5295 H   0  0  0  0  0  0  0  0  0  0  0  0
  148.9990  141.1485  155.8771 H   0  0  0  0  0  0  0  0  0  0  0  0
  151.7441  141.0121  156.0906 H   0  0  0  0  0  0  0  0  0  0  0  0
  150.6972  139.9413  157.0101 H   0  0  0  0  0  0  0  0  0  0  0  0
  152.5403  139.1411  154.9075 H   0  0  0  0  0  0  0  0  0  0  0  0
  151.4887  138.1316  155.8886 H   0  0  0  0  0  0  0  0  0  0  0  0
  150.4189  137.7496  153.8182 H   0  0  0  0  0  0  0  0  0  0  0  0
  150.9949  139.2818  153.1648 H   0  0  0  0  0  0  0  0  0  0  0  0
  146.0149  139.7440  151.7710 H   0  0  0  0  0  0  0  0  0  0  0  0
  147.4264  139.4808  150.7767 H   0  0  0  0  0  0  0  0  0  0  0  0
  146.9628  137.0733  150.6162 H   0  0  0  0  0  0  0  0  0  0  0  0
  145.5909  137.9836  150.0511 H   0  0  0  0  0  0  0  0  0  0  0  0
  148.2764  138.0255  152.4900 H   0  0  0  0  0  0  0  0  0  0  0  0
  1  2  2  0  0  0  0
  2  3  1  0  0  0  0
  2 10  1  0  0  0  0
  3  4  1  0  0  0  0
  3 23  1  0  0  0  0
  4  9  1  0  0  0  0
  4  5  2  0  0  0  0
  5  6  1  0  0  0  0
  5 24  1  0  0  0  0
  6  7  2  0  0  0  0
  6 25  1  0  0  0  0
  7  8  1  0  0  0  0
  7 26  1  0  0  0  0
  8  9  2  0  0  0  0
  9 27  1  0  0  0  0
 10 11  1  0  0  0  0
 10 28  1  0  0  0  0
 11 22  1  0  0  0  0
 11 12  1  0  0  0  0
 11 29  1  0  0  0  0
 12 13  1  0  0  0  0
 12 30  1  0  0  0  0
 12 31  1  0  0  0  0
 13 14  1  0  0  0  0
 13 32  1  0  0  0  0
 13 33  1  0  0  0  0
 14 15  1  0  0  0  0
 14 21  1  0  0  0  0
 14 49  1  0  0  0  0
 15 16  1  0  0  0  0
 15 34  1  0  0  0  0
 15 35  1  0  0  0  0
 16 20  1  0  0  0  0
 16 17  1  0  0  0  0
 16 36  1  0  0  0  0
 17 18  1  0  0  0  0
 17 37  1  0  0  0  0
 17 38  1  0  0  0  0
 18 19  1  0  0  0  0
 18 39  1  0  0  0  0
 18 40  1  0  0  0  0
 19 20  1  0  0  0  0
 19 41  1  0  0  0  0
 19 42  1  0  0  0  0
 20 43  1  0  0  0  0
 20 44  1  0  0  0  0
 21 22  1  0  0  0  0
 21 45  1  0  0  0  0
 21 46  1  0  0  0  0
 22 47  1  0  0  0  0
 22 48  1  0  0  0  0
M  CHG  1  14   1
M  END
> <s_m_source_file>
AV-unprocessed.smi

> <i_m_source_file_index>
604

> <i_lp_mmshare_version>
43012

> <i_f3d_flags>
0

> <s_epik_input>
W2NIXTFuW2NIXVtjSF1bY0hdYzFbTkhdQyg9TylbTkhdW0NIXTJbQ0gyXVtDSDJdTihbQ0gyXVtDSDJdMilbQ0gyXVtDSF0zW0NIMl1bQ0gyXVtDSDJdW0NIMl0z

> <s_epik_cmdline>
J2VwaWtfcHl0aG9uJywgJy1waCcsICc3LjAnLCAnLXRuJywgJzgnLCAnLW1hJywgJzIwMCcsICctbWV0YWxfYmluZGluZycsICctaW1hZScsICc8aW5maWxlLm1hZT4nLCAnLW9tYWUnLCAnPG91dGZpbGUubWFlPic=

> <r_lp_tautomer_probability>
1

> <r_epik_Ionization_Penalty>
0.00608112

> <r_epik_Ionization_Penalty_Charging>
0.00207989

> <r_epik_Ionization_Penalty_Neutral>
0.00400122

> <r_epik_State_Penalty>
-0

> <r_epik_Charging_Adjusted_Penalty>
0.00207989

> <i_epik_Tot_Q>
1

> <i_epik_Tot_abs_Q>
1

> <r_epik_Metal_State_Penalty>
-0

> <b_epik_Metal_Only>
0

> <s_lp_Force_Field>
OPLS_2005

> <r_lp_Energy>
40.9588

> <b_lp_Chiralities_Consistent>
1

> <s_lp_Variant>
AV-unprocessed.smi:604-2

> <Gold.Version>
5.8.1

> <Gold.Id.Protein>
6NUR|6NUR_protein|mol2

> <Gold.PLP.Fitness>
51.6735

> <Gold.PLP.PLP>
-40.8965

> <Gold.PLP.part.hbond>
-5.0000

> <Gold.PLP.part.metal>
0.0000

> <Gold.PLP.part.buried>
7.7399

> <Gold.PLP.part.nonpolar>
-42.2089

> <Gold.PLP.part.repulsive>
0.3156

> <Gold.PLP.ligand.clash>
0.0000

> <Gold.PLP.ligand.torsion>
0.5874

> <Gold.PLP.Chemscore.Hbond>
3.9760

> <Gold.PLP.Chemscore.CHOScore>
0.0000

> <Gold.PLP.Chemscore.Metal>
0.0000

> <Gold.Chemscore.Hbonds>
donor molecule, donor type, donor heavy atom, donor atom, acceptor molecule, acceptor atom, score
      L1  H     3    23       P1 10175  0.98
      L1  H    10    28       P1 10175  1.00
      L1  H    14    49       P1  7948  2.00

> <Gold.PLP.Chemscore.Internal.Correction>
0.0237

> <Gold.Rescore>
     Score         DG    S(hbond)    S(metal)    S(lipo)     H(rot)  DE(clash)    DE(int)     intcor
     18.82     -24.04       2.91        0.00     104.96       1.35       3.32       1.89       ----

> <Gold.Chemscore.Fitness>
18.8235

> <Gold.Chemscore.DG>
-24.0377

> <Gold.Chemscore.ZeroCoef>
-5.4800

> <Gold.Chemscore.Hbond>
2.9108

> <Gold.Chemscore.Metal>
0.0000

> <Gold.Chemscore.Lipo>
104.9582

> <Gold.Chemscore.Internal_Hbond>
0.0000

> <Gold.Chemscore.DEClash>
3.3209

> <Gold.Chemscore.DEInternal>
1.8934

> <Gold.Chemscore.Rot>
1.3455

> <Gold.Chemscore.Internal.Correction>
   9.000000E+99

> <Gold.Chemscore.Hbonds>
donor molecule, donor type, donor heavy atom, donor atom, acceptor molecule, acceptor atom, score
      L1  H     3    23       P1 10175  0.84
      L1  H    10    28       P1 10175  0.99
      L1  H    14    49       P1  7948  0.96

> <Gold.Chemscore.Hbond.Weighted>
-9.7221

> <Gold.Chemscore.Metal.Weighted>
-0.0000

> <Gold.Chemscore.Lipo.Weighted>
-12.2801

> <Gold.Chemscore.Internal_Hbond.Weighted>
0.0000

> <Gold.Chemscore.DEClash.Weighted>
3.3209

> <Gold.Chemscore.DEInternal.Weighted>
1.8934

> <Gold.Chemscore.Rot.Weighted>
3.4445

> <Gold.Chemscore.Internal.Correction.Weighted>
   9.000000E+99

> <Gold.Protein.RotatedTorsions>
[ 6907 6896 6895 6894 ] final -100.64 input  -60.11 | X-H torsion
[ 7974 7965 7964 7962 ] final   49.44 input  175.53 | X-H torsion
[ 8008 7997 7996 7995 ] final -123.08 input   59.86 | X-H torsion
[ 10167 10162 10161 10158 ] final -129.03 input  -65.29 | X-H torsion
[ 10718 10713 10712 10709 ] final  174.93 input   66.30 | X-H torsion
[ 10763 10752 10751 10750 ] final  -51.93 input  -60.55 | X-H torsion
[ 11005 11000 10999 10996 ] final  -69.01 input  -57.11 | X-H torsion

> <Gold.Protein.ActiveResidues>
 VAL166  LYS551  ARG553  GLY616  TRP617  ASP618  TYR619  PRO620  LYS621  CYS622 
 ASP623  PHE694  ASN695  SER759  ASP760  ASP761  ALA762  ILE779  LEU786  VAL792 
 PHE793  MET794  SER795  GLU796  ALA797  LYS798  CYS799  TRP800  GLU811  SER814 

> <Gold.Protein.RotatedAtoms>
  150.7124  134.0856  159.3913 H   0  0  0  0  0  0  0  0  0  0  0  0  # atno 6907 bound_to 6896
  151.8841  135.0440  160.0501 H   0  0  0  0  0  0  0  0  0  0  0  0  # atno 6908 bound_to 6896
  152.2544  133.5207  159.5381 H   0  0  0  0  0  0  0  0  0  0  0  0  # atno 6909 bound_to 6896
  146.0108  139.4541  142.9957 H   0  0  0  0  0  0  0  0  0  0  0  0  # atno 7974 bound_to 7965
  155.1747  140.0409  157.2870 H   0  0  0  0  0  0  0  0  0  0  0  0  # atno 8008 bound_to 7997
  154.6245  140.2509  155.7481 H   0  0  0  0  0  0  0  0  0  0  0  0  # atno 8009 bound_to 7997
  156.2451  140.2888  156.0568 H   0  0  0  0  0  0  0  0  0  0  0  0  # atno 8010 bound_to 7997
  139.9441  143.6130  152.2495 H   0  0  0  0  0  0  0  0  0  0  0  0  # atno 10167 bound_to 10162
  156.9424  131.0005  151.2966 H   0  0  0  0  0  0  0  0  0  0  0  0  # atno 10718 bound_to 10713
  154.1345  135.6515  153.4929 H   0  0  0  0  0  0  0  0  0  0  0  0  # atno 10763 bound_to 10752
  153.0185  135.5300  154.6968 H   0  0  0  0  0  0  0  0  0  0  0  0  # atno 10764 bound_to 10752
  154.6212  135.2965  155.0295 H   0  0  0  0  0  0  0  0  0  0  0  0  # atno 10765 bound_to 10752
  141.1544  133.6754  156.6533 H   0  0  0  0  0  0  0  0  0  0  0  0  # atno 11005 bound_to 11000
  145.7344  141.0031  143.1334 LP  0  0  0  0  0  0  0  0  0  0  0  0  # atno 17320 bound_to 7965
  144.6952  139.9023  143.7459 LP  0  0  0  0  0  0  0  0  0  0  0  0  # atno 17321 bound_to 7965
  139.6681  144.7661  151.1835 LP  0  0  0  0  0  0  0  0  0  0  0  0  # atno 17342 bound_to 10162
  140.7602  143.5907  150.8799 LP  0  0  0  0  0  0  0  0  0  0  0  0  # atno 17343 bound_to 10162
  157.5776  130.8354  149.8477 LP  0  0  0  0  0  0  0  0  0  0  0  0  # atno 17370 bound_to 10713
  156.0398  130.3742  150.1464 LP  0  0  0  0  0  0  0  0  0  0  0  0  # atno 17371 bound_to 10713
  140.3303  134.7934  157.4321 LP  0  0  0  0  0  0  0  0  0  0  0  0  # atno 17394 bound_to 11000
  140.1022  134.5457  155.8342 LP  0  0  0  0  0  0  0  0  0  0  0  0  # atno 17395 bound_to 11000

$$$$
