AV-unprocessed.smi:1709|AV-procd|sdf|6896|dock10
  -GOLD-   22720 8103D 1   1.00000     0.00000
 Structure written by MMmdl.
 43 45  0  0  0  0  0  0  0  0  2 V2000
  150.6687  137.7755  154.4280 C   0  0  0  0  0  0  0  0  0  0  0  0
  149.7599  138.9911  154.5198 C   0  0  0  0  0  0  0  0  0  0  0  0
  150.3002  140.2209  154.9524 C   0  0  0  0  0  0  0  0  0  0  0  0
  149.4636  141.3463  155.0371 C   0  0  0  0  0  0  0  0  0  0  0  0
  148.1131  141.1928  154.6831 C   0  0  0  0  0  0  0  0  0  0  0  0
  147.5891  140.0213  154.2680 N   0  0  0  0  0  0  0  0  0  0  0  0
  148.3815  138.9218  154.1802 C   0  0  0  0  0  0  0  0  0  0  0  0
  147.9125  137.6423  153.7470 N   0  0  0  0  0  0  0  0  0  0  0  0
  146.7662  136.9716  153.9908 C   0  0  0  0  0  0  0  0  0  0  0  0
  145.8915  137.4514  154.7101 O   0  0  0  0  0  0  0  0  0  0  0  0
  146.6464  135.7652  153.4138 N   0  0  0  0  0  0  0  0  0  0  0  0
  145.5166  134.8556  153.5671 C   0  0  1  0  0  0  0  0  0  0  0  0
  144.1649  135.5886  153.6321 C   0  0  0  0  0  0  0  0  0  0  0  0
  143.1805  134.7028  152.8432 C   0  0  0  0  0  0  0  0  0  0  0  0
  143.9488  133.4993  152.4718 N   0  3  1  0  0  0  0  0  0  0  0  0
  143.4830  132.7405  151.2907 C   0  0  0  0  0  0  0  0  0  0  0  0
  144.3585  131.4834  151.1161 C   0  0  0  0  0  0  0  0  0  0  0  0
  145.8601  131.8332  151.0721 C   0  0  0  0  0  0  0  0  0  0  0  0
  146.2649  132.7019  152.2786 C   0  0  0  0  0  0  0  0  0  0  0  0
  145.3486  133.9349  152.3562 C   0  0  2  0  0  0  0  0  0  0  0  0
  151.6914  138.0215  154.7151 H   0  0  0  0  0  0  0  0  0  0  0  0
  150.6913  137.3904  153.4080 H   0  0  0  0  0  0  0  0  0  0  0  0
  150.3160  136.9844  155.0905 H   0  0  0  0  0  0  0  0  0  0  0  0
  151.3442  140.3047  155.2164 H   0  0  0  0  0  0  0  0  0  0  0  0
  149.8476  142.3011  155.3642 H   0  0  0  0  0  0  0  0  0  0  0  0
  147.4348  142.0317  154.7329 H   0  0  0  0  0  0  0  0  0  0  0  0
  148.5418  137.1666  153.1169 H   0  0  0  0  0  0  0  0  0  0  0  0
  147.4122  135.4497  152.8344 H   0  0  0  0  0  0  0  0  0  0  0  0
  145.6255  134.2538  154.4720 H   0  0  0  0  0  0  0  0  0  0  0  0
  143.8453  135.7303  154.6650 H   0  0  0  0  0  0  0  0  0  0  0  0
  144.2231  136.5757  153.1702 H   0  0  0  0  0  0  0  0  0  0  0  0
  142.3005  134.4347  153.4282 H   0  0  0  0  0  0  0  0  0  0  0  0
  142.8451  135.2254  151.9460 H   0  0  0  0  0  0  0  0  0  0  0  0
  142.4389  132.4564  151.4262 H   0  0  0  0  0  0  0  0  0  0  0  0
  143.5346  133.3690  150.4003 H   0  0  0  0  0  0  0  0  0  0  0  0
  144.1744  130.7984  151.9451 H   0  0  0  0  0  0  0  0  0  0  0  0
  144.0720  130.9510  150.2087 H   0  0  0  0  0  0  0  0  0  0  0  0
  146.4585  130.9220  151.0473 H   0  0  0  0  0  0  0  0  0  0  0  0
  146.0794  132.3711  150.1489 H   0  0  0  0  0  0  0  0  0  0  0  0
  146.1922  132.1199  153.1984 H   0  0  0  0  0  0  0  0  0  0  0  0
  147.3070  133.0070  152.1821 H   0  0  0  0  0  0  0  0  0  0  0  0
  145.4548  134.5236  151.4417 H   0  0  0  0  0  0  0  0  0  0  0  0
  143.9094  132.8768  153.2662 H   0  0  0  0  0  0  0  0  0  0  0  0
  1  2  1  0  0  0  0
  1 21  1  0  0  0  0
  1 22  1  0  0  0  0
  1 23  1  0  0  0  0
  2  7  1  0  0  0  0
  2  3  2  0  0  0  0
  3  4  1  0  0  0  0
  3 24  1  0  0  0  0
  4  5  2  0  0  0  0
  4 25  1  0  0  0  0
  5  6  1  0  0  0  0
  5 26  1  0  0  0  0
  6  7  2  0  0  0  0
  7  8  1  0  0  0  0
  8  9  1  0  0  0  0
  8 27  1  0  0  0  0
  9 10  2  0  0  0  0
  9 11  1  0  0  0  0
 11 12  1  0  0  0  0
 11 28  1  0  0  0  0
 12 20  1  0  0  0  0
 12 13  1  0  0  0  0
 12 29  1  0  0  0  0
 13 14  1  0  0  0  0
 13 30  1  0  0  0  0
 13 31  1  0  0  0  0
 14 15  1  0  0  0  0
 14 32  1  0  0  0  0
 14 33  1  0  0  0  0
 15 20  1  0  0  0  0
 15 16  1  0  0  0  0
 15 43  1  0  0  0  0
 16 17  1  0  0  0  0
 16 34  1  0  0  0  0
 16 35  1  0  0  0  0
 17 18  1  0  0  0  0
 17 36  1  0  0  0  0
 17 37  1  0  0  0  0
 18 19  1  0  0  0  0
 18 38  1  0  0  0  0
 18 39  1  0  0  0  0
 19 20  1  0  0  0  0
 19 40  1  0  0  0  0
 19 41  1  0  0  0  0
 20 42  1  0  0  0  0
M  CHG  1  15   1
M  END
> <s_m_source_file>
AV-unprocessed.smi

> <i_m_source_file_index>
1709

> <i_lp_mmshare_version>
43012

> <i_f3d_flags>
0

> <s_epik_input>
W0NIM11jMVtjSF1bY0hdW2NIXW5jMVtOSF1DKD1PKVtOSF1bQ0BIXShbQ0gyXVtDSDJdMilbQ0BASF0oTjIzKVtDSDJdW0NIMl1bQ0gyXVtDSDJdMw==

> <s_epik_cmdline>
J2VwaWtfcHl0aG9uJywgJy1waCcsICc3LjAnLCAnLXRuJywgJzgnLCAnLW1hJywgJzIwMCcsICctbWV0YWxfYmluZGluZycsICctaW1hZScsICc8aW5maWxlLm1hZT4nLCAnLW9tYWUnLCAnPG91dGZpbGUubWFlPic=

> <r_epik_Ionization_Penalty>
0.00101524

> <r_epik_Ionization_Penalty_Charging>
0.000974069

> <r_epik_Ionization_Penalty_Neutral>
4.11757e-05

> <r_epik_State_Penalty>
0.000633842

> <r_epik_Charging_Adjusted_Penalty>
0.00160791

> <i_epik_Tot_Q>
1

> <i_epik_Tot_abs_Q>
1

> <r_epik_Metal_State_Penalty>
-0

> <b_epik_Metal_Only>
0

> <s_lp_Force_Field>
OPLS_2005

> <r_lp_Energy>
38.4546

> <b_lp_Chiralities_Consistent>
1

> <s_lp_Variant>
AV-unprocessed.smi:1709-6

> <Gold.Version>
5.8.1

> <Gold.Id.Protein>
6NUR|6NUR_protein|mol2

> <Gold.PLP.Fitness>
38.2734

> <Gold.PLP.PLP>
-31.3634

> <Gold.PLP.part.hbond>
-2.5833

> <Gold.PLP.part.metal>
0.0000

> <Gold.PLP.part.buried>
-3.7482

> <Gold.PLP.part.nonpolar>
-26.9715

> <Gold.PLP.part.repulsive>
0.2041

> <Gold.PLP.ligand.clash>
0.0000

> <Gold.PLP.ligand.torsion>
0.6523

> <Gold.PLP.Chemscore.Hbond>
2.7350

> <Gold.PLP.Chemscore.CHOScore>
0.0000

> <Gold.PLP.Chemscore.Metal>
0.0000

> <Gold.Chemscore.Hbonds>
donor molecule, donor type, donor heavy atom, donor atom, acceptor molecule, acceptor atom, score
      L1  H     8    27       P1  7948  1.00
      L1  H    11    28       P1  7948  0.78
      L1  H    15    43       P1 10957  0.89

> <Gold.PLP.Chemscore.Internal.Correction>
0.0096

> <Gold.Rescore>
     Score         DG    S(hbond)    S(metal)    S(lipo)     H(rot)  DE(clash)    DE(int)     intcor
     16.98     -18.73       2.09        0.00      75.44       1.00       0.00       1.75       ----

> <Gold.Chemscore.Fitness>
16.9814

> <Gold.Chemscore.DG>
-18.7275

> <Gold.Chemscore.ZeroCoef>
-5.4800

> <Gold.Chemscore.Hbond>
2.0901

> <Gold.Chemscore.Metal>
0.0000

> <Gold.Chemscore.Lipo>
75.4412

> <Gold.Chemscore.Internal_Hbond>
0.0000

> <Gold.Chemscore.DEClash>
0.0000

> <Gold.Chemscore.DEInternal>
1.7460

> <Gold.Chemscore.Rot>
1.0000

> <Gold.Chemscore.Internal.Correction>
   9.000000E+99

> <Gold.Chemscore.Hbonds>
donor molecule, donor type, donor heavy atom, donor atom, acceptor molecule, acceptor atom, score
      L1  H     8    27       P1  7948  0.98
      L1  H    11    28       P1  7948  0.76
      L1  H    15    43       P1 10957  0.24

> <Gold.Chemscore.Hbond.Weighted>
-6.9808

> <Gold.Chemscore.Metal.Weighted>
-0.0000

> <Gold.Chemscore.Lipo.Weighted>
-8.8266

> <Gold.Chemscore.Internal_Hbond.Weighted>
0.0000

> <Gold.Chemscore.DEClash.Weighted>
0.0000

> <Gold.Chemscore.DEInternal.Weighted>
1.7460

> <Gold.Chemscore.Rot.Weighted>
2.5600

> <Gold.Chemscore.Internal.Correction.Weighted>
   9.000000E+99

> <Gold.Protein.RotatedTorsions>
[ 6907 6896 6895 6894 ] final -166.40 input  -60.11 | X-H torsion
[ 7974 7965 7964 7962 ] final   74.83 input  175.53 | X-H torsion
[ 8008 7997 7996 7995 ] final   -9.32 input   59.86 | X-H torsion
[ 10167 10162 10161 10158 ] final   10.28 input  -65.29 | X-H torsion
[ 10718 10713 10712 10709 ] final  171.82 input   66.30 | X-H torsion
[ 10763 10752 10751 10750 ] final  -90.62 input  -60.55 | X-H torsion
[ 11005 11000 10999 10996 ] final -114.98 input  -57.11 | X-H torsion

> <Gold.Protein.ActiveResidues>
 VAL166  LYS551  ARG553  GLY616  TRP617  ASP618  TYR619  PRO620  LYS621  CYS622 
 ASP623  PHE694  ASN695  SER759  ASP760  ASP761  ALA762  ILE779  LEU786  VAL792 
 PHE793  MET794  SER795  GLU796  ALA797  LYS798  CYS799  TRP800  GLU811  SER814 

> <Gold.Protein.RotatedAtoms>
  151.4429  133.3638  159.2784 H   0  0  0  0  0  0  0  0  0  0  0  0  # atno 6907 bound_to 6896
  150.9145  134.8564  159.7458 H   0  0  0  0  0  0  0  0  0  0  0  0  # atno 6908 bound_to 6896
  152.4949  134.4362  159.9580 H   0  0  0  0  0  0  0  0  0  0  0  0  # atno 6909 bound_to 6896
  145.7233  139.2656  143.1583 H   0  0  0  0  0  0  0  0  0  0  0  0  # atno 7974 bound_to 7965
  154.5658  140.2358  155.8266 H   0  0  0  0  0  0  0  0  0  0  0  0  # atno 8008 bound_to 7997
  156.2067  140.3037  155.9601 H   0  0  0  0  0  0  0  0  0  0  0  0  # atno 8009 bound_to 7997
  155.2804  140.0422  157.3005 H   0  0  0  0  0  0  0  0  0  0  0  0  # atno 8010 bound_to 7997
  140.6204  143.8217  150.7168 H   0  0  0  0  0  0  0  0  0  0  0  0  # atno 10167 bound_to 10162
  156.9879  131.0139  151.2864 H   0  0  0  0  0  0  0  0  0  0  0  0  # atno 10718 bound_to 10713
  154.6676  135.5298  153.8097 H   0  0  0  0  0  0  0  0  0  0  0  0  # atno 10763 bound_to 10752
  153.0481  135.6521  154.0774 H   0  0  0  0  0  0  0  0  0  0  0  0  # atno 10764 bound_to 10752
  154.0676  135.2956  155.3293 H   0  0  0  0  0  0  0  0  0  0  0  0  # atno 10765 bound_to 10752
  141.0517  133.9677  157.2825 H   0  0  0  0  0  0  0  0  0  0  0  0  # atno 11005 bound_to 11000
  146.0605  140.7975  142.9737 LP  0  0  0  0  0  0  0  0  0  0  0  0  # atno 17320 bound_to 7965
  144.6911  140.3190  143.7235 LP  0  0  0  0  0  0  0  0  0  0  0  0  # atno 17321 bound_to 7965
  140.1806  143.4118  152.1936 LP  0  0  0  0  0  0  0  0  0  0  0  0  # atno 17342 bound_to 10162
  139.5434  144.7277  151.4661 LP  0  0  0  0  0  0  0  0  0  0  0  0  # atno 17343 bound_to 10162
  157.5480  130.8163  149.8109 LP  0  0  0  0  0  0  0  0  0  0  0  0  # atno 17370 bound_to 10713
  156.0218  130.3793  150.1938 LP  0  0  0  0  0  0  0  0  0  0  0  0  # atno 17371 bound_to 10713
  139.9356  135.0197  156.8544 LP  0  0  0  0  0  0  0  0  0  0  0  0  # atno 17394 bound_to 11000
  140.6043  134.0142  155.7550 LP  0  0  0  0  0  0  0  0  0  0  0  0  # atno 17395 bound_to 11000

$$$$
