AV-unprocessed.smi:153|AV-procd|sdf|1250|dock5
  -GOLD-   2262018483D 1   1.00000     0.00000
 Structure written by MMmdl.
 60 63  0  0  0  0  0  0  0  0  2 V2000
  152.8763  142.3253  159.5524 C   0  0  0  0  0  0  0  0  0  0  0  0
  152.3360  143.3745  158.5649 C   0  0  2  0  0  0  0  0  0  0  0  0
  151.7134  144.3581  159.3936 O   0  0  0  0  0  0  0  0  0  0  0  0
  150.2995  144.3577  159.2239 C   0  0  0  0  0  0  0  0  0  0  0  0
  149.9768  143.0892  158.4410 C   0  0  0  0  0  0  0  0  0  0  0  0
  151.2278  142.8854  157.6036 C   0  0  1  0  0  0  0  0  0  0  0  0
  151.1826  143.7893  156.5116 O   0  0  0  0  0  0  0  0  0  0  0  0
  151.3544  141.4426  157.0382 C   0  0  0  0  0  0  0  0  0  0  0  0
  150.1841  140.9680  156.3071 N   0  0  0  0  0  0  0  0  0  0  0  0
  149.0733  141.6939  155.9440 C   0  0  0  0  0  0  0  0  0  0  0  0
  148.1687  141.0307  155.2792 N   0  0  0  0  0  0  0  0  0  0  0  0
  148.6910  139.7476  155.1553 C   0  0  0  0  0  0  0  0  0  0  0  0
  148.2477  138.5337  154.5420 C   0  0  0  0  0  0  0  0  0  0  0  0
  147.0658  138.3732  153.8785 N   0  0  0  0  0  0  0  0  0  0  0  0
  146.9646  138.7291  152.4685 C   0  0  0  0  0  0  0  0  0  0  0  0
  145.9811  137.5789  154.4636 C   0  0  0  0  0  0  0  0  0  0  0  0
  145.9625  136.1236  153.9531 C   0  0  2  0  0  0  0  0  0  0  0  0
  147.2608  135.5989  154.1477 O   0  0  0  0  0  0  0  0  0  0  0  0
  145.6100  136.0116  152.4531 C   0  0  0  0  0  0  0  0  0  0  0  0
  145.1806  134.6464  152.0597 N   0  3  0  0  0  0  0  0  0  0  0  0
  144.4436  134.6066  150.7717 C   0  0  0  0  0  0  0  0  0  0  0  0
  144.0074  133.1681  150.4450 C   0  0  0  0  0  0  0  0  0  0  0  0
  145.1466  132.3176  150.4164 O   0  0  0  0  0  0  0  0  0  0  0  0
  145.8121  132.2775  151.6724 C   0  0  0  0  0  0  0  0  0  0  0  0
  146.3095  133.6861  152.0376 C   0  0  0  0  0  0  0  0  0  0  0  0
  149.0901  137.4688  154.6188 N   0  0  0  0  0  0  0  0  0  0  0  0
  150.2686  137.5666  155.2375 C   0  0  0  0  0  0  0  0  0  0  0  0
  150.8040  138.6252  155.8430 N   0  0  0  0  0  0  0  0  0  0  0  0
  149.9706  139.7025  155.7836 C   0  0  0  0  0  0  0  0  0  0  0  0
  153.4323  141.5380  159.0516 H   0  0  0  0  0  0  0  0  0  0  0  0
  152.0731  141.8580  160.1223 H   0  0  0  0  0  0  0  0  0  0  0  0
  153.5571  142.7885  160.2668 H   0  0  0  0  0  0  0  0  0  0  0  0
  153.1735  143.8153  158.0217 H   0  0  0  0  0  0  0  0  0  0  0  0
  149.7826  144.3971  160.1829 H   0  0  0  0  0  0  0  0  0  0  0  0
  150.0176  145.2426  158.6521 H   0  0  0  0  0  0  0  0  0  0  0  0
  149.8476  142.2555  159.1327 H   0  0  0  0  0  0  0  0  0  0  0  0
  149.0635  143.1746  157.8508 H   0  0  0  0  0  0  0  0  0  0  0  0
  150.3668  144.2650  156.5481 H   0  0  0  0  0  0  0  0  0  0  0  0
  152.2314  141.3459  156.3978 H   0  0  0  0  0  0  0  0  0  0  0  0
  151.5223  140.7497  157.8636 H   0  0  0  0  0  0  0  0  0  0  0  0
  148.9480  142.7409  156.1704 H   0  0  0  0  0  0  0  0  0  0  0  0
  147.3367  139.7393  152.2949 H   0  0  0  0  0  0  0  0  0  0  0  0
  145.9274  138.7014  152.1337 H   0  0  0  0  0  0  0  0  0  0  0  0
  147.5315  138.0309  151.8525 H   0  0  0  0  0  0  0  0  0  0  0  0
  145.9894  137.6023  155.5534 H   0  0  0  0  0  0  0  0  0  0  0  0
  145.0451  138.0635  154.1828 H   0  0  0  0  0  0  0  0  0  0  0  0
  145.2736  135.5431  154.5659 H   0  0  0  0  0  0  0  0  0  0  0  0
  147.7261  135.6174  153.3257 H   0  0  0  0  0  0  0  0  0  0  0  0
  144.8138  136.7044  152.1834 H   0  0  0  0  0  0  0  0  0  0  0  0
  146.4811  136.3119  151.8681 H   0  0  0  0  0  0  0  0  0  0  0  0
  143.5647  135.2490  150.8123 H   0  0  0  0  0  0  0  0  0  0  0  0
  145.0806  134.9897  149.9726 H   0  0  0  0  0  0  0  0  0  0  0  0
  143.2837  132.8040  151.1758 H   0  0  0  0  0  0  0  0  0  0  0  0
  143.5193  133.1359  149.4708 H   0  0  0  0  0  0  0  0  0  0  0  0
  145.1424  131.8889  152.4412 H   0  0  0  0  0  0  0  0  0  0  0  0
  146.6537  131.5877  151.6049 H   0  0  0  0  0  0  0  0  0  0  0  0
  147.0585  134.0178  151.3168 H   0  0  0  0  0  0  0  0  0  0  0  0
  146.7931  133.6603  153.0149 H   0  0  0  0  0  0  0  0  0  0  0  0
  150.8681  136.6682  155.2481 H   0  0  0  0  0  0  0  0  0  0  0  0
  144.5490  134.3221  152.7778 H   0  0  0  0  0  0  0  0  0  0  0  0
  1  2  1  0  0  0  0
  1 30  1  0  0  0  0
  1 31  1  0  0  0  0
  1 32  1  0  0  0  0
  2  6  1  0  0  0  0
  2  3  1  0  0  0  0
  2 33  1  0  0  0  0
  3  4  1  0  0  0  0
  4  5  1  0  0  0  0
  4 34  1  0  0  0  0
  4 35  1  0  0  0  0
  5  6  1  0  0  0  0
  5 36  1  0  0  0  0
  5 37  1  0  0  0  0
  6  7  1  0  0  0  0
  6  8  1  0  0  0  0
  7 38  1  0  0  0  0
  8  9  1  0  0  0  0
  8 39  1  0  0  0  0
  8 40  1  0  0  0  0
  9 29  1  0  0  0  0
  9 10  1  0  0  0  0
 10 11  2  0  0  0  0
 10 41  1  0  0  0  0
 11 12  1  0  0  0  0
 12 29  2  0  0  0  0
 12 13  1  0  0  0  0
 13 14  1  0  0  0  0
 13 26  2  0  0  0  0
 14 15  1  0  0  0  0
 14 16  1  0  0  0  0
 15 42  1  0  0  0  0
 15 43  1  0  0  0  0
 15 44  1  0  0  0  0
 16 17  1  0  0  0  0
 16 45  1  0  0  0  0
 16 46  1  0  0  0  0
 17 18  1  0  0  0  0
 17 19  1  0  0  0  0
 17 47  1  0  0  0  0
 18 48  1  0  0  0  0
 19 20  1  0  0  0  0
 19 49  1  0  0  0  0
 19 50  1  0  0  0  0
 20 25  1  0  0  0  0
 20 21  1  0  0  0  0
 20 60  1  0  0  0  0
 21 22  1  0  0  0  0
 21 51  1  0  0  0  0
 21 52  1  0  0  0  0
 22 23  1  0  0  0  0
 22 53  1  0  0  0  0
 22 54  1  0  0  0  0
 23 24  1  0  0  0  0
 24 25  1  0  0  0  0
 24 55  1  0  0  0  0
 24 56  1  0  0  0  0
 25 57  1  0  0  0  0
 25 58  1  0  0  0  0
 26 27  1  0  0  0  0
 27 28  2  0  0  0  0
 27 59  1  0  0  0  0
 28 29  1  0  0  0  0
M  CHG  1  20   1
M  END
> <s_m_source_file>
AV-unprocessed.smi

> <i_m_source_file_index>
153

> <i_lp_mmshare_version>
43012

> <i_f3d_flags>
0

> <s_epik_input>
W0NIMl0xW0NIMl1PW0NAQEhdKFtDSDNdKVtDQEBdMShbT0hdKVtDSDJdbihbY0hdbjIpYyhjMjMpbltjSF1uYzNOKFtDSDNdKVtDSDJdW0NASF0oW09IXSlbQ0gyXU40W0NIMl1bQ0gyXU9bQ0gyXVtDSDJdNA==

> <s_epik_cmdline>
J2VwaWtfcHl0aG9uJywgJy1waCcsICc3LjAnLCAnLXRuJywgJzgnLCAnLW1hJywgJzIwMCcsICctbWV0YWxfYmluZGluZycsICctaW1hZScsICc8aW5maWxlLm1hZT4nLCAnLW9tYWUnLCAnPG91dGZpbGUubWFlPic=

> <r_lp_tautomer_probability>
1

> <r_epik_Ionization_Penalty>
0.403509

> <r_epik_Ionization_Penalty_Charging>
0.40072

> <r_epik_Ionization_Penalty_Neutral>
0.00278876

> <r_epik_State_Penalty>
0.400058

> <r_epik_Charging_Adjusted_Penalty>
0.800778

> <i_epik_Tot_Q>
1

> <i_epik_Tot_abs_Q>
1

> <r_epik_Metal_State_Penalty>
0.400321

> <b_epik_Metal_Only>
0

> <s_lp_Force_Field>
OPLS_2005

> <r_lp_Energy>
46.9593

> <b_lp_Chiralities_Consistent>
1

> <s_lp_Variant>
AV-unprocessed.smi:153-1

> <Gold.Version>
5.8.1

> <Gold.Id.Protein>
6NUR|6NUR_protein|mol2

> <Gold.PLP.Fitness>
45.7250

> <Gold.PLP.PLP>
-41.2230

> <Gold.PLP.part.hbond>
-1.6207

> <Gold.PLP.part.metal>
0.0000

> <Gold.PLP.part.buried>
-7.7494

> <Gold.PLP.part.nonpolar>
-36.1179

> <Gold.PLP.part.repulsive>
2.4539

> <Gold.PLP.ligand.clash>
0.0100

> <Gold.PLP.ligand.torsion>
2.0397

> <Gold.PLP.Chemscore.Hbond>
1.7360

> <Gold.PLP.Chemscore.CHOScore>
1.0000

> <Gold.PLP.Chemscore.Metal>
0.0000

> <Gold.Chemscore.Hbonds>
donor molecule, donor type, donor heavy atom, donor atom, acceptor molecule, acceptor atom, score
      L1  H     7    38       P1  8028  0.93
      L1  H    18    48       P1  7948  1.00
      L1  C    10    41       P1  8028  1.00

> <Gold.PLP.Chemscore.Internal.Correction>
0.3833

> <Gold.Rescore>
     Score         DG    S(hbond)    S(metal)    S(lipo)     H(rot)  DE(clash)    DE(int)     intcor
      7.31     -14.27       1.95        0.00      98.60       3.62       1.16       5.81       ----

> <Gold.Chemscore.Fitness>
7.3090

> <Gold.Chemscore.DG>
-14.2705

> <Gold.Chemscore.ZeroCoef>
-5.4800

> <Gold.Chemscore.Hbond>
1.9511

> <Gold.Chemscore.Metal>
0.0000

> <Gold.Chemscore.Lipo>
98.6007

> <Gold.Chemscore.Internal_Hbond>
0.0000

> <Gold.Chemscore.DEClash>
1.1560

> <Gold.Chemscore.DEInternal>
5.8055

> <Gold.Chemscore.Rot>
3.6182

> <Gold.Chemscore.Internal.Correction>
   9.000000E+99

> <Gold.Chemscore.Hbonds>
donor molecule, donor type, donor heavy atom, donor atom, acceptor molecule, acceptor atom, score
      L1  H     7    38       P1  8028  0.89
      L1  H    18    48       P1  7948  0.96

> <Gold.Chemscore.Hbond.Weighted>
-6.5167

> <Gold.Chemscore.Metal.Weighted>
-0.0000

> <Gold.Chemscore.Lipo.Weighted>
-11.5363

> <Gold.Chemscore.Internal_Hbond.Weighted>
0.0000

> <Gold.Chemscore.DEClash.Weighted>
1.1560

> <Gold.Chemscore.DEInternal.Weighted>
5.8055

> <Gold.Chemscore.Rot.Weighted>
9.2625

> <Gold.Chemscore.Internal.Correction.Weighted>
   9.000000E+99

> <Gold.Protein.RotatedTorsions>
[ 6907 6896 6895 6894 ] final  -53.14 input  -60.11 | X-H torsion
[ 7974 7965 7964 7962 ] final  -37.49 input  175.53 | X-H torsion
[ 8008 7997 7996 7995 ] final   17.30 input   59.86 | X-H torsion
[ 10167 10162 10161 10158 ] final -150.34 input  -65.29 | X-H torsion
[ 10718 10713 10712 10709 ] final   92.37 input   66.30 | X-H torsion
[ 10763 10752 10751 10750 ] final   19.46 input  -60.55 | X-H torsion
[ 11005 11000 10999 10996 ] final  178.45 input  -57.11 | X-H torsion

> <Gold.Protein.ActiveResidues>
 VAL166  LYS551  ARG553  GLY616  TRP617  ASP618  TYR619  PRO620  LYS621  CYS622 
 ASP623  PHE694  ASN695  SER759  ASP760  ASP761  ALA762  ILE779  LEU786  VAL792 
 PHE793  MET794  SER795  GLU796  ALA797  LYS798  CYS799  TRP800  GLU811  SER814 

> <Gold.Protein.RotatedAtoms>
  150.8454  134.7761  159.6965 H   0  0  0  0  0  0  0  0  0  0  0  0  # atno 6907 bound_to 6896
  152.4532  134.5346  159.9831 H   0  0  0  0  0  0  0  0  0  0  0  0  # atno 6908 bound_to 6896
  151.5477  133.3384  159.2983 H   0  0  0  0  0  0  0  0  0  0  0  0  # atno 6909 bound_to 6896
  146.0570  140.6402  142.9015 H   0  0  0  0  0  0  0  0  0  0  0  0  # atno 7974 bound_to 7965
  154.8894  140.2984  155.5379 H   0  0  0  0  0  0  0  0  0  0  0  0  # atno 8008 bound_to 7997
  156.3021  140.2427  156.3842 H   0  0  0  0  0  0  0  0  0  0  0  0  # atno 8009 bound_to 7997
  154.8634  140.0404  157.1668 H   0  0  0  0  0  0  0  0  0  0  0  0  # atno 8010 bound_to 7997
  139.7363  143.8731  152.2549 H   0  0  0  0  0  0  0  0  0  0  0  0  # atno 10167 bound_to 10162
  157.6959  131.0441  150.3871 H   0  0  0  0  0  0  0  0  0  0  0  0  # atno 10718 bound_to 10713
  153.1160  135.6708  153.9417 H   0  0  0  0  0  0  0  0  0  0  0  0  # atno 10763 bound_to 10752
  153.8947  135.3043  155.3449 H   0  0  0  0  0  0  0  0  0  0  0  0  # atno 10764 bound_to 10752
  154.7576  135.5004  153.9482 H   0  0  0  0  0  0  0  0  0  0  0  0  # atno 10765 bound_to 10752
  140.3953  134.6826  157.4531 H   0  0  0  0  0  0  0  0  0  0  0  0  # atno 11005 bound_to 11000
  144.7153  140.4189  143.7049 LP  0  0  0  0  0  0  0  0  0  0  0  0  # atno 17320 bound_to 7965
  145.6626  139.1584  143.2800 LP  0  0  0  0  0  0  0  0  0  0  0  0  # atno 17321 bound_to 7965
  139.8668  144.7089  150.9034 LP  0  0  0  0  0  0  0  0  0  0  0  0  # atno 17342 bound_to 10162
  140.7779  143.3771  151.1543 LP  0  0  0  0  0  0  0  0  0  0  0  0  # atno 17343 bound_to 10162
  156.4278  130.3966  149.6781 LP  0  0  0  0  0  0  0  0  0  0  0  0  # atno 17370 bound_to 10713
  156.4009  130.7674  151.2681 LP  0  0  0  0  0  0  0  0  0  0  0  0  # atno 17371 bound_to 10713
  140.0376  134.6314  155.9023 LP  0  0  0  0  0  0  0  0  0  0  0  0  # atno 17394 bound_to 11000
  141.1876  133.6560  156.5289 LP  0  0  0  0  0  0  0  0  0  0  0  0  # atno 17395 bound_to 11000

$$$$
