AV-unprocessed.smi:1160|AV-procd|sdf|4916|dock10
  -GOLD-   22720 3493D 1   1.00000     0.00000
 Structure written by MMmdl.
 44 45  0  0  0  0  0  0  0  0  1 V2000
  151.7964  137.9674  156.0657 C   0  0  0  0  0  0  0  0  0  0  0  0
  151.7942  138.1420  154.5451 C   0  0  0  0  0  0  0  0  0  0  0  0
  150.4446  138.1761  154.0909 O   0  0  0  0  0  0  0  0  0  0  0  0
  149.7165  139.3391  154.2577 C   0  0  0  0  0  0  0  0  0  0  0  0
  150.3036  140.3815  154.8975 N   0  0  0  0  0  0  0  0  0  0  0  0
  149.5968  141.5190  155.0555 C   0  0  0  0  0  0  0  0  0  0  0  0
  148.2819  141.6803  154.5829 C   0  0  0  0  0  0  0  0  0  0  0  0
  147.6703  140.6006  153.9193 C   0  0  0  0  0  0  0  0  0  0  0  0
  148.3939  139.3936  153.7587 C   0  0  0  0  0  0  0  0  0  0  0  0
  147.8830  138.2428  153.0959 N   0  0  0  0  0  0  0  0  0  0  0  0
  146.6149  137.8042  153.0182 C   0  0  0  0  0  0  0  0  0  0  0  0
  145.6343  138.3669  153.5039 O   0  0  0  0  0  0  0  0  0  0  0  0
  146.5499  136.6452  152.3472 N   0  0  0  0  0  0  0  0  0  0  0  0
  145.3393  135.8678  152.0963 C   0  0  0  0  0  0  0  0  0  0  0  0
  145.4323  134.5140  152.8315 C   0  0  0  0  0  0  0  0  0  0  0  0
  144.2754  133.5816  152.4312 C   0  0  0  0  0  0  0  0  0  0  0  0
  144.2834  133.4163  150.9729 N   0  0  0  0  0  0  0  0  0  0  0  0
  144.6353  132.2550  150.3703 C   0  0  0  0  0  0  0  0  0  0  0  0
  144.6718  132.1850  148.8422 C   0  0  0  0  0  0  0  0  0  0  0  0
  144.9303  131.2404  151.0021 O   0  0  0  0  0  0  0  0  0  0  0  0
  144.0012  134.6818  150.2834 C   0  0  0  0  0  0  0  0  0  0  0  0
  145.1408  135.6747  150.5768 C   0  0  0  0  0  0  0  0  0  0  0  0
  152.8153  137.9306  156.4518 H   0  0  0  0  0  0  0  0  0  0  0  0
  151.2962  137.0424  156.3536 H   0  0  0  0  0  0  0  0  0  0  0  0
  151.2820  138.7941  156.5564 H   0  0  0  0  0  0  0  0  0  0  0  0
  152.3072  139.0686  154.2823 H   0  0  0  0  0  0  0  0  0  0  0  0
  152.3326  137.3132  154.0822 H   0  0  0  0  0  0  0  0  0  0  0  0
  150.0971  142.3270  155.5684 H   0  0  0  0  0  0  0  0  0  0  0  0
  147.7551  142.6127  154.7221 H   0  0  0  0  0  0  0  0  0  0  0  0
  146.6690  140.7281  153.5392 H   0  0  0  0  0  0  0  0  0  0  0  0
  148.5840  137.6355  152.6970 H   0  0  0  0  0  0  0  0  0  0  0  0
  147.4119  136.2606  151.9890 H   0  0  0  0  0  0  0  0  0  0  0  0
  144.4626  136.3902  152.4836 H   0  0  0  0  0  0  0  0  0  0  0  0
  146.3798  134.0270  152.5951 H   0  0  0  0  0  0  0  0  0  0  0  0
  145.4275  134.6727  153.9105 H   0  0  0  0  0  0  0  0  0  0  0  0
  144.3604  132.6345  152.9654 H   0  0  0  0  0  0  0  0  0  0  0  0
  143.3219  134.0115  152.7416 H   0  0  0  0  0  0  0  0  0  0  0  0
  145.3782  132.9102  148.4375 H   0  0  0  0  0  0  0  0  0  0  0  0
  143.6841  132.3779  148.4229 H   0  0  0  0  0  0  0  0  0  0  0  0
  144.9855  131.1946  148.5108 H   0  0  0  0  0  0  0  0  0  0  0  0
  143.8726  134.5750  149.2072 H   0  0  0  0  0  0  0  0  0  0  0  0
  143.0554  135.0836  150.6496 H   0  0  0  0  0  0  0  0  0  0  0  0
  144.9300  136.6338  150.1023 H   0  0  0  0  0  0  0  0  0  0  0  0
  146.0622  135.3027  150.1256 H   0  0  0  0  0  0  0  0  0  0  0  0
  1  2  1  0  0  0  0
  1 23  1  0  0  0  0
  1 24  1  0  0  0  0
  1 25  1  0  0  0  0
  2  3  1  0  0  0  0
  2 26  1  0  0  0  0
  2 27  1  0  0  0  0
  3  4  1  0  0  0  0
  4  9  1  0  0  0  0
  4  5  2  0  0  0  0
  5  6  1  0  0  0  0
  6  7  2  0  0  0  0
  6 28  1  0  0  0  0
  7  8  1  0  0  0  0
  7 29  1  0  0  0  0
  8  9  2  0  0  0  0
  8 30  1  0  0  0  0
  9 10  1  0  0  0  0
 10 11  1  0  0  0  0
 10 31  1  0  0  0  0
 11 12  2  0  0  0  0
 11 13  1  0  0  0  0
 13 14  1  0  0  0  0
 13 32  1  0  0  0  0
 14 22  1  0  0  0  0
 14 15  1  0  0  0  0
 14 33  1  0  0  0  0
 15 16  1  0  0  0  0
 15 34  1  0  0  0  0
 15 35  1  0  0  0  0
 16 17  1  0  0  0  0
 16 36  1  0  0  0  0
 16 37  1  0  0  0  0
 17 18  1  0  0  0  0
 17 21  1  0  0  0  0
 18 19  1  0  0  0  0
 18 20  2  0  0  0  0
 19 38  1  0  0  0  0
 19 39  1  0  0  0  0
 19 40  1  0  0  0  0
 21 22  1  0  0  0  0
 21 41  1  0  0  0  0
 21 42  1  0  0  0  0
 22 43  1  0  0  0  0
 22 44  1  0  0  0  0
M  END
> <s_m_source_file>
AV-unprocessed.smi

> <i_m_source_file_index>
1160

> <i_lp_mmshare_version>
43012

> <i_f3d_flags>
0

> <s_epik_input>
W0NIM11bQ0gyXU9jMW5bY0hdW2NIXVtjSF1jMVtOSF1DKD1PKVtOSF1bQ0hdMltDSDJdW0NIMl1OKEMoPU8pW0NIM10pW0NIMl1bQ0gyXTI=

> <s_epik_cmdline>
J2VwaWtfcHl0aG9uJywgJy1waCcsICc3LjAnLCAnLXRuJywgJzgnLCAnLW1hJywgJzIwMCcsICctbWV0YWxfYmluZGluZycsICctaW1hZScsICc8aW5maWxlLm1hZT4nLCAnLW9tYWUnLCAnPG91dGZpbGUubWFlPic=

> <r_lp_tautomer_probability>
1

> <r_epik_Ionization_Penalty>
0.00011666

> <r_epik_Ionization_Penalty_Charging>
0

> <r_epik_Ionization_Penalty_Neutral>
0.00011666

> <r_epik_State_Penalty>
-0

> <r_epik_Charging_Adjusted_Penalty>
0

> <i_epik_Tot_Q>
0

> <i_epik_Tot_abs_Q>
0

> <r_epik_Metal_State_Penalty>
-0

> <b_epik_Metal_Only>
0

> <s_lp_Force_Field>
OPLS_2005

> <r_lp_Energy>
24.4955

> <b_lp_Chiralities_Consistent>
1

> <s_lp_Variant>
AV-unprocessed.smi:1160-1

> <Gold.Version>
5.8.1

> <Gold.Id.Protein>
6NUR|6NUR_protein|mol2

> <Gold.PLP.Fitness>
44.7280

> <Gold.PLP.PLP>
-34.5437

> <Gold.PLP.part.hbond>
-3.6955

> <Gold.PLP.part.metal>
0.0000

> <Gold.PLP.part.buried>
1.2320

> <Gold.PLP.part.nonpolar>
-34.2435

> <Gold.PLP.part.repulsive>
1.4132

> <Gold.PLP.ligand.clash>
0.0000

> <Gold.PLP.ligand.torsion>
0.2984

> <Gold.PLP.Chemscore.Hbond>
2.7784

> <Gold.PLP.Chemscore.CHOScore>
0.8084

> <Gold.PLP.Chemscore.Metal>
0.0000

> <Gold.Chemscore.Hbonds>
donor molecule, donor type, donor heavy atom, donor atom, acceptor molecule, acceptor atom, score
      L1  H    10    31       P1  7948  0.99
      L1  H    13    32       P1  7948  0.99
      P1  H  7989  7998       L1     5  0.95
      L1  C     6    28       P1  8028  0.48

> <Gold.PLP.Chemscore.Internal.Correction>
0.0207

> <Gold.Rescore>
     Score         DG    S(hbond)    S(metal)    S(lipo)     H(rot)  DE(clash)    DE(int)     intcor
     15.91     -17.04       1.90        0.00      75.78       1.43       0.13       1.00       ----

> <Gold.Chemscore.Fitness>
15.9083

> <Gold.Chemscore.DG>
-17.0415

> <Gold.Chemscore.ZeroCoef>
-5.4800

> <Gold.Chemscore.Hbond>
1.9027

> <Gold.Chemscore.Metal>
0.0000

> <Gold.Chemscore.Lipo>
75.7811

> <Gold.Chemscore.Internal_Hbond>
0.0000

> <Gold.Chemscore.DEClash>
0.1337

> <Gold.Chemscore.DEInternal>
0.9996

> <Gold.Chemscore.Rot>
1.4297

> <Gold.Chemscore.Internal.Correction>
   9.000000E+99

> <Gold.Chemscore.Hbonds>
donor molecule, donor type, donor heavy atom, donor atom, acceptor molecule, acceptor atom, score
      L1  H    10    31       P1  7948  0.94
      L1  H    13    32       P1  7948  0.90
      P1  H  7989  7998       L1     5  0.07

> <Gold.Chemscore.Hbond.Weighted>
-6.3551

> <Gold.Chemscore.Metal.Weighted>
-0.0000

> <Gold.Chemscore.Lipo.Weighted>
-8.8664

> <Gold.Chemscore.Internal_Hbond.Weighted>
0.0000

> <Gold.Chemscore.DEClash.Weighted>
0.1337

> <Gold.Chemscore.DEInternal.Weighted>
0.9996

> <Gold.Chemscore.Rot.Weighted>
3.6600

> <Gold.Chemscore.Internal.Correction.Weighted>
   9.000000E+99

> <Gold.Protein.RotatedTorsions>
[ 6907 6896 6895 6894 ] final  -90.29 input  -60.11 | X-H torsion
[ 7974 7965 7964 7962 ] final  -83.00 input  175.53 | X-H torsion
[ 8008 7997 7996 7995 ] final -106.48 input   59.86 | X-H torsion
[ 10167 10162 10161 10158 ] final  -58.15 input  -65.29 | X-H torsion
[ 10718 10713 10712 10709 ] final    6.50 input   66.30 | X-H torsion
[ 10763 10752 10751 10750 ] final  129.69 input  -60.55 | X-H torsion
[ 11005 11000 10999 10996 ] final   56.52 input  -57.11 | X-H torsion

> <Gold.Protein.ActiveResidues>
 VAL166  LYS551  ARG553  GLY616  TRP617  ASP618  TYR619  PRO620  LYS621  CYS622 
 ASP623  PHE694  ASN695  SER759  ASP760  ASP761  ALA762  ILE779  LEU786  VAL792 
 PHE793  MET794  SER795  GLU796  ALA797  LYS798  CYS799  TRP800  GLU811  SER814 

> <Gold.Protein.RotatedAtoms>
  150.6880  134.2455  159.4489 H   0  0  0  0  0  0  0  0  0  0  0  0  # atno 6907 bound_to 6896
  152.0397  134.9716  160.0583 H   0  0  0  0  0  0  0  0  0  0  0  0  # atno 6908 bound_to 6896
  152.1223  133.4326  159.4718 H   0  0  0  0  0  0  0  0  0  0  0  0  # atno 6909 bound_to 6896
  145.5258  140.9526  143.1630 H   0  0  0  0  0  0  0  0  0  0  0  0  # atno 7974 bound_to 7965
  154.9152  140.0409  157.1968 H   0  0  0  0  0  0  0  0  0  0  0  0  # atno 8008 bound_to 7997
  154.8308  140.2899  155.5702 H   0  0  0  0  0  0  0  0  0  0  0  0  # atno 8009 bound_to 7997
  156.2986  140.2501  156.3233 H   0  0  0  0  0  0  0  0  0  0  0  0  # atno 8010 bound_to 7997
  140.6215  143.2421  151.5469 H   0  0  0  0  0  0  0  0  0  0  0  0  # atno 10167 bound_to 10162
  156.9230  130.5798  149.5648 H   0  0  0  0  0  0  0  0  0  0  0  0  # atno 10718 bound_to 10713
  153.7458  135.3217  155.3312 H   0  0  0  0  0  0  0  0  0  0  0  0  # atno 10763 bound_to 10752
  154.8280  135.4555  154.0981 H   0  0  0  0  0  0  0  0  0  0  0  0  # atno 10764 bound_to 10752
  153.2169  135.6943  153.8128 H   0  0  0  0  0  0  0  0  0  0  0  0  # atno 10765 bound_to 10752
  140.0523  134.5720  155.9249 H   0  0  0  0  0  0  0  0  0  0  0  0  # atno 11005 bound_to 11000
  144.7652  139.6863  143.7218 LP  0  0  0  0  0  0  0  0  0  0  0  0  # atno 17320 bound_to 7965
  146.2076  139.5411  142.9702 LP  0  0  0  0  0  0  0  0  0  0  0  0  # atno 17321 bound_to 7965
  139.5443  144.2564  152.1411 LP  0  0  0  0  0  0  0  0  0  0  0  0  # atno 17342 bound_to 10162
  140.1785  144.4867  150.6541 LP  0  0  0  0  0  0  0  0  0  0  0  0  # atno 17343 bound_to 10162
  156.0482  130.5555  150.8929 LP  0  0  0  0  0  0  0  0  0  0  0  0  # atno 17370 bound_to 10713
  157.5895  131.0945  150.9141 LP  0  0  0  0  0  0  0  0  0  0  0  0  # atno 17371 bound_to 10713
  141.1936  133.6579  156.5554 LP  0  0  0  0  0  0  0  0  0  0  0  0  # atno 17394 bound_to 11000
  140.3899  134.7450  157.4715 LP  0  0  0  0  0  0  0  0  0  0  0  0  # atno 17395 bound_to 11000

$$$$
