AV-unprocessed.smi:148|AV-procd|sdf|1232|dock8
  -GOLD-   2262018443D 1   1.00000     0.00000
 Structure written by MMmdl.
 63 67  0  0  0  0  0  0  0  0  1 V2000
  149.4717  141.1569  153.5176 O   0  0  0  0  0  0  0  0  0  0  0  0
  148.5787  140.5734  154.4423 C   0  0  0  0  0  0  0  0  0  0  0  0
  149.2291  139.3958  155.2130 C   0  0  2  0  0  0  0  0  0  0  0  0
  148.1473  138.4480  155.7906 C   0  0  0  0  0  0  0  0  0  0  0  0
  147.4856  137.6413  154.7800 N   0  0  0  0  0  0  0  0  0  0  0  0
  146.8743  138.0893  153.6299 C   0  0  0  0  0  0  0  0  0  0  0  0
  146.3403  137.1596  152.8848 N   0  0  0  0  0  0  0  0  0  0  0  0
  146.5944  135.9853  153.5816 C   0  0  0  0  0  0  0  0  0  0  0  0
  146.2854  134.6187  153.3571 C   0  0  0  0  0  0  0  0  0  0  0  0
  145.6015  134.2108  152.2632 N   0  0  0  0  0  0  0  0  0  0  0  0
  146.4004  133.2321  151.5250 C   0  0  0  0  0  0  0  0  0  0  0  0
  145.7685  132.8984  150.1685 C   0  0  0  0  0  0  0  0  0  0  0  0
  144.3276  132.4196  150.3637 C   0  0  0  0  0  0  0  0  0  0  0  0
  143.5210  133.4853  151.1170 C   0  0  0  0  0  0  0  0  0  0  0  0
  144.1806  133.8692  152.4684 C   0  0  2  0  0  0  0  0  0  0  0  0
  143.4022  134.9877  153.2329 C   0  0  1  0  0  0  0  0  0  0  0  0
  143.6622  136.4339  152.7626 C   0  0  0  0  0  0  0  0  0  0  0  0
  142.3523  137.2071  152.9852 C   0  0  0  0  0  0  0  0  0  0  0  0
  141.4074  136.2437  153.7078 C   0  0  0  0  0  0  0  0  0  0  0  0
  141.8708  134.8597  153.2560 C   0  0  2  0  0  0  0  0  0  0  0  0
  141.4312  133.8530  154.1443 O   0  0  0  0  0  0  0  0  0  0  0  0
  146.7076  133.7098  154.2762 N   0  0  0  0  0  0  0  0  0  0  0  0
  147.3768  134.1188  155.3585 C   0  0  0  0  0  0  0  0  0  0  0  0
  147.7260  135.3601  155.7050 N   0  0  0  0  0  0  0  0  0  0  0  0
  147.3119  136.2691  154.7761 C   0  0  0  0  0  0  0  0  0  0  0  0
  150.1814  139.8825  156.3405 C   0  0  1  0  0  0  0  0  0  0  0  0
  150.5179  138.8342  157.3893 C   0  0  0  0  0  0  0  0  0  0  0  0
  151.7611  139.4156  158.0532 C   0  0  0  0  0  0  0  0  0  0  0  0
  152.4304  140.1543  157.0388 O   0  0  0  0  0  0  0  0  0  0  0  0
  151.5957  140.2688  155.8912 C   0  0  0  0  0  0  0  0  0  0  0  0
  149.1993  140.9189  152.6445 H   0  0  0  0  0  0  0  0  0  0  0  0
  148.2179  141.3355  155.1335 H   0  0  0  0  0  0  0  0  0  0  0  0
  147.7182  140.2443  153.8619 H   0  0  0  0  0  0  0  0  0  0  0  0
  149.8179  138.8157  154.5008 H   0  0  0  0  0  0  0  0  0  0  0  0
  148.5804  137.7547  156.5110 H   0  0  0  0  0  0  0  0  0  0  0  0
  147.3925  139.0226  156.3293 H   0  0  0  0  0  0  0  0  0  0  0  0
  146.8404  139.1340  153.3569 H   0  0  0  0  0  0  0  0  0  0  0  0
  147.4090  133.6177  151.3674 H   0  0  0  0  0  0  0  0  0  0  0  0
  146.4979  132.3222  152.1193 H   0  0  0  0  0  0  0  0  0  0  0  0
  145.7828  133.7807  149.5273 H   0  0  0  0  0  0  0  0  0  0  0  0
  146.3546  132.1319  149.6611 H   0  0  0  0  0  0  0  0  0  0  0  0
  143.8654  132.2108  149.3985 H   0  0  0  0  0  0  0  0  0  0  0  0
  144.3203  131.4841  150.9244 H   0  0  0  0  0  0  0  0  0  0  0  0
  143.4189  134.3610  150.4770 H   0  0  0  0  0  0  0  0  0  0  0  0
  142.5156  133.0983  151.2739 H   0  0  0  0  0  0  0  0  0  0  0  0
  144.1589  132.9747  153.0928 H   0  0  0  0  0  0  0  0  0  0  0  0
  143.7029  134.9582  154.2814 H   0  0  0  0  0  0  0  0  0  0  0  0
  144.4810  136.8775  153.3297 H   0  0  0  0  0  0  0  0  0  0  0  0
  143.9447  136.4850  151.7122 H   0  0  0  0  0  0  0  0  0  0  0  0
  142.5059  138.1259  153.5516 H   0  0  0  0  0  0  0  0  0  0  0  0
  141.9263  137.4860  152.0203 H   0  0  0  0  0  0  0  0  0  0  0  0
  141.5384  136.3510  154.7860 H   0  0  0  0  0  0  0  0  0  0  0  0
  140.3578  136.4328  153.4803 H   0  0  0  0  0  0  0  0  0  0  0  0
  141.4668  134.6688  152.2630 H   0  0  0  0  0  0  0  0  0  0  0  0
  142.0667  133.1534  154.1437 H   0  0  0  0  0  0  0  0  0  0  0  0
  147.6741  133.3402  156.0454 H   0  0  0  0  0  0  0  0  0  0  0  0
  149.7338  140.7400  156.8458 H   0  0  0  0  0  0  0  0  0  0  0  0
  149.7146  138.6630  158.1061 H   0  0  0  0  0  0  0  0  0  0  0  0
  150.7588  137.8830  156.9117 H   0  0  0  0  0  0  0  0  0  0  0  0
  151.4794  140.1025  158.8524 H   0  0  0  0  0  0  0  0  0  0  0  0
  152.4051  138.6456  158.4786 H   0  0  0  0  0  0  0  0  0  0  0  0
  151.9636  139.5752  155.1337 H   0  0  0  0  0  0  0  0  0  0  0  0
  151.6435  141.2773  155.4798 H   0  0  0  0  0  0  0  0  0  0  0  0
  1  2  1  0  0  0  0
  1 31  1  0  0  0  0
  2  3  1  0  0  0  0
  2 32  1  0  0  0  0
  2 33  1  0  0  0  0
  3  4  1  0  0  0  0
  3 26  1  0  0  0  0
  3 34  1  0  0  0  0
  4  5  1  0  0  0  0
  4 35  1  0  0  0  0
  4 36  1  0  0  0  0
  5 25  1  0  0  0  0
  5  6  1  0  0  0  0
  6  7  2  0  0  0  0
  6 37  1  0  0  0  0
  7  8  1  0  0  0  0
  8 25  2  0  0  0  0
  8  9  1  0  0  0  0
  9 10  1  0  0  0  0
  9 22  2  0  0  0  0
 10 15  1  0  0  0  0
 10 11  1  0  0  0  0
 11 12  1  0  0  0  0
 11 38  1  0  0  0  0
 11 39  1  0  0  0  0
 12 13  1  0  0  0  0
 12 40  1  0  0  0  0
 12 41  1  0  0  0  0
 13 14  1  0  0  0  0
 13 42  1  0  0  0  0
 13 43  1  0  0  0  0
 14 15  1  0  0  0  0
 14 44  1  0  0  0  0
 14 45  1  0  0  0  0
 15 16  1  0  0  0  0
 15 46  1  0  0  0  0
 16 20  1  0  0  0  0
 16 17  1  0  0  0  0
 16 47  1  0  0  0  0
 17 18  1  0  0  0  0
 17 48  1  0  0  0  0
 17 49  1  0  0  0  0
 18 19  1  0  0  0  0
 18 50  1  0  0  0  0
 18 51  1  0  0  0  0
 19 20  1  0  0  0  0
 19 52  1  0  0  0  0
 19 53  1  0  0  0  0
 20 21  1  0  0  0  0
 20 54  1  0  0  0  0
 21 55  1  0  0  0  0
 22 23  1  0  0  0  0
 23 24  2  0  0  0  0
 23 56  1  0  0  0  0
 24 25  1  0  0  0  0
 26 30  1  0  0  0  0
 26 27  1  0  0  0  0
 26 57  1  0  0  0  0
 27 28  1  0  0  0  0
 27 58  1  0  0  0  0
 27 59  1  0  0  0  0
 28 29  1  0  0  0  0
 28 60  1  0  0  0  0
 28 61  1  0  0  0  0
 29 30  1  0  0  0  0
 30 62  1  0  0  0  0
 30 63  1  0  0  0  0
M  END
> <s_m_source_file>
AV-unprocessed.smi

> <i_m_source_file_index>
148

> <i_lp_mmshare_version>
43012

> <i_f3d_flags>
0

> <s_epik_input>
W0NIMl0xT1tDSDJdW0NIMl1bQ0BIXTFbQ0BIXShbQ0gyXVtPSF0pW0NIMl1uKFtjSF1uMiljKGMyMyluW2NIXW5jM040W0NIMl1bQ0gyXVtDSDJdW0NIMl1bQ0BIXTRbQ0BASF01W0NIMl1bQ0gyXVtDSDJdW0NASF01W09IXQ==

> <s_epik_cmdline>
J2VwaWtfcHl0aG9uJywgJy1waCcsICc3LjAnLCAnLXRuJywgJzgnLCAnLW1hJywgJzIwMCcsICctbWV0YWxfYmluZGluZycsICctaW1hZScsICc8aW5maWxlLm1hZT4nLCAnLW9tYWUnLCAnPG91dGZpbGUubWFlPic=

> <r_lp_tautomer_probability>
1

> <r_epik_Ionization_Penalty>
0.00556303

> <r_epik_Ionization_Penalty_Charging>
0

> <r_epik_Ionization_Penalty_Neutral>
0.00556303

> <r_epik_State_Penalty>
0.00401767

> <r_epik_Charging_Adjusted_Penalty>
0.00401767

> <i_epik_Tot_Q>
0

> <i_epik_Tot_abs_Q>
0

> <r_epik_Metal_State_Penalty>
-0

> <b_epik_Metal_Only>
0

> <s_lp_Force_Field>
OPLS_2005

> <r_lp_Energy>
68.3277

> <b_lp_Chiralities_Consistent>
1

> <s_lp_Variant>
AV-unprocessed.smi:148-31

> <Gold.Version>
5.8.1

> <Gold.Id.Protein>
6NUR|6NUR_protein|mol2

> <Gold.PLP.Fitness>
49.5439

> <Gold.PLP.PLP>
-39.1547

> <Gold.PLP.part.hbond>
-6.9195

> <Gold.PLP.part.metal>
0.0000

> <Gold.PLP.part.buried>
-3.3263

> <Gold.PLP.part.nonpolar>
-30.2673

> <Gold.PLP.part.repulsive>
1.7125

> <Gold.PLP.ligand.clash>
0.0000

> <Gold.PLP.ligand.torsion>
1.3035

> <Gold.PLP.Chemscore.Hbond>
4.2000

> <Gold.PLP.Chemscore.CHOScore>
0.0000

> <Gold.PLP.Chemscore.Metal>
0.0000

> <Gold.Chemscore.Hbonds>
donor molecule, donor type, donor heavy atom, donor atom, acceptor molecule, acceptor atom, score
      L1  H     1    31       P1  7957  0.93
      L1  H    21    55       P1 10957  0.99
      P1  H  7989  7998       L1     1  0.15
      P1  H  7997  8010       L1    29  0.90
      P1  H 11000 11005       L1    21  1.00

> <Gold.PLP.Chemscore.Internal.Correction>
0.3962

> <Gold.Rescore>
     Score         DG    S(hbond)    S(metal)    S(lipo)     H(rot)  DE(clash)    DE(int)     intcor
     15.78     -18.45       3.26        0.00      90.42       3.32       1.40       1.28       ----

> <Gold.Chemscore.Fitness>
15.7781

> <Gold.Chemscore.DG>
-18.4543

> <Gold.Chemscore.ZeroCoef>
-5.4800

> <Gold.Chemscore.Hbond>
3.2619

> <Gold.Chemscore.Metal>
0.0000

> <Gold.Chemscore.Lipo>
90.4243

> <Gold.Chemscore.Internal_Hbond>
0.0000

> <Gold.Chemscore.DEClash>
1.3985

> <Gold.Chemscore.DEInternal>
1.2777

> <Gold.Chemscore.Rot>
3.3203

> <Gold.Chemscore.Internal.Correction>
   9.000000E+99

> <Gold.Chemscore.Hbonds>
donor molecule, donor type, donor heavy atom, donor atom, acceptor molecule, acceptor atom, score
      L1  H     1    31       P1  7957  0.91
      L1  H    21    55       P1 10957  0.93
      P1  H  7989  7998       L1     1  0.06
      P1  H  7997  8010       L1    29  0.81
      P1  H 11000 11005       L1    21  0.55

> <Gold.Chemscore.Hbond.Weighted>
-10.8947

> <Gold.Chemscore.Metal.Weighted>
-0.0000

> <Gold.Chemscore.Lipo.Weighted>
-10.5796

> <Gold.Chemscore.Internal_Hbond.Weighted>
0.0000

> <Gold.Chemscore.DEClash.Weighted>
1.3985

> <Gold.Chemscore.DEInternal.Weighted>
1.2777

> <Gold.Chemscore.Rot.Weighted>
8.5000

> <Gold.Chemscore.Internal.Correction.Weighted>
   9.000000E+99

> <Gold.Protein.RotatedTorsions>
[ 6907 6896 6895 6894 ] final  -80.41 input  -60.11 | X-H torsion
[ 7974 7965 7964 7962 ] final  -97.19 input  175.53 | X-H torsion
[ 8008 7997 7996 7995 ] final   47.80 input   59.86 | X-H torsion
[ 10167 10162 10161 10158 ] final   81.73 input  -65.29 | X-H torsion
[ 10718 10713 10712 10709 ] final  -82.27 input   66.30 | X-H torsion
[ 10763 10752 10751 10750 ] final  140.34 input  -60.55 | X-H torsion
[ 11005 11000 10999 10996 ] final   -7.23 input  -57.11 | X-H torsion

> <Gold.Protein.ActiveResidues>
 VAL166  LYS551  ARG553  GLY616  TRP617  ASP618  TYR619  PRO620  LYS621  CYS622 
 ASP623  PHE694  ASN695  SER759  ASP760  ASP761  ALA762  ILE779  LEU786  VAL792 
 PHE793  MET794  SER795  GLU796  ALA797  LYS798  CYS799  TRP800  GLU811  SER814 

> <Gold.Protein.RotatedAtoms>
  150.6930  134.3974  159.5103 H   0  0  0  0  0  0  0  0  0  0  0  0  # atno 6907 bound_to 6896
  152.1753  134.8797  160.0540 H   0  0  0  0  0  0  0  0  0  0  0  0  # atno 6908 bound_to 6896
  151.9808  133.3722  159.4144 H   0  0  0  0  0  0  0  0  0  0  0  0  # atno 6909 bound_to 6896
  145.3369  140.9452  143.2630 H   0  0  0  0  0  0  0  0  0  0  0  0  # atno 7974 bound_to 7965
  155.3751  140.3426  155.4244 H   0  0  0  0  0  0  0  0  0  0  0  0  # atno 8008 bound_to 7997
  156.1641  140.1610  156.8595 H   0  0  0  0  0  0  0  0  0  0  0  0  # atno 8009 bound_to 7997
  154.5168  140.0776  156.8078 H   0  0  0  0  0  0  0  0  0  0  0  0  # atno 8010 bound_to 7997
  139.9362  144.6119  150.8296 H   0  0  0  0  0  0  0  0  0  0  0  0  # atno 10167 bound_to 10162
  156.0036  130.4629  150.4079 H   0  0  0  0  0  0  0  0  0  0  0  0  # atno 10718 bound_to 10713
  153.9210  135.3000  155.3447 H   0  0  0  0  0  0  0  0  0  0  0  0  # atno 10763 bound_to 10752
  154.7575  135.4950  153.9405 H   0  0  0  0  0  0  0  0  0  0  0  0  # atno 10764 bound_to 10752
  153.1141  135.6766  153.9551 H   0  0  0  0  0  0  0  0  0  0  0  0  # atno 10765 bound_to 10752
  140.7105  133.8913  155.8747 H   0  0  0  0  0  0  0  0  0  0  0  0  # atno 11005 bound_to 11000
  144.8820  139.4891  143.6718 LP  0  0  0  0  0  0  0  0  0  0  0  0  # atno 17320 bound_to 7965
  146.3023  139.7466  142.9082 LP  0  0  0  0  0  0  0  0  0  0  0  0  # atno 17321 bound_to 7965
  140.7624  143.3196  151.2652 LP  0  0  0  0  0  0  0  0  0  0  0  0  # atno 17342 bound_to 10162
  139.6741  143.9968  152.2771 LP  0  0  0  0  0  0  0  0  0  0  0  0  # atno 17343 bound_to 10162
  157.2143  131.0468  151.2581 LP  0  0  0  0  0  0  0  0  0  0  0  0  # atno 17370 bound_to 10713
  157.3859  130.7256  149.6663 LP  0  0  0  0  0  0  0  0  0  0  0  0  # atno 17371 bound_to 10713
  141.0088  134.1048  157.4242 LP  0  0  0  0  0  0  0  0  0  0  0  0  # atno 17394 bound_to 11000
  139.8873  135.0088  156.6551 LP  0  0  0  0  0  0  0  0  0  0  0  0  # atno 17395 bound_to 11000

$$$$
