AV-unprocessed.smi:1413|AV-procd|sdf|5752|dock2
  -GOLD-   22720 5393D 1   1.00000     0.00000
 Structure written by MMmdl.
 53 55  0  0  0  0  0  0  0  0  1 V2000
  153.4011  141.3330  160.3652 C   0  0  0  0  0  0  0  0  0  0  0  0
  152.3118  141.9971  159.5165 C   0  0  2  0  0  0  0  0  0  0  0  0
  151.8043  141.0645  158.4016 C   0  0  0  0  0  0  0  0  0  0  0  0
  150.8543  141.7709  157.5543 N   0  0  0  0  0  0  0  0  0  0  0  0
  150.2247  140.9397  156.6171 C   0  0  0  0  0  0  0  0  0  0  0  0
  151.0081  140.3051  155.6316 C   0  0  0  0  0  0  0  0  0  0  0  0
  150.3708  139.4700  154.6947 C   0  0  0  0  0  0  0  0  0  0  0  0
  148.9728  139.3040  154.7606 C   0  0  0  0  0  0  0  0  0  0  0  0
  148.3568  138.4377  153.8181 N   0  0  0  0  0  0  0  0  0  0  0  0
  147.0726  138.4151  153.4233 C   0  0  0  0  0  0  0  0  0  0  0  0
  146.2013  139.1983  153.8002 O   0  0  0  0  0  0  0  0  0  0  0  0
  146.8603  137.4351  152.5328 N   0  0  0  0  0  0  0  0  0  0  0  0
  145.5998  137.1597  151.8468 C   0  0  2  0  0  0  0  0  0  0  0  0
  144.4626  137.1605  152.8800 C   0  0  0  0  0  0  0  0  0  0  0  0
  145.7120  135.8183  151.0959 C   0  0  1  0  0  0  0  0  0  0  0  0
  146.0389  134.6111  151.9806 C   0  0  0  0  0  0  0  0  0  0  0  0
  145.3620  133.4393  151.2819 C   0  0  0  0  0  0  0  0  0  0  0  0
  144.5601  134.0885  150.1535 C   0  0  0  0  0  0  0  0  0  0  0  0
  144.4610  135.4514  150.5331 O   0  0  0  0  0  0  0  0  0  0  0  0
  148.2763  139.9789  155.7922 C   0  0  0  0  0  0  0  0  0  0  0  0
  148.8827  140.7777  156.6965 N   0  0  0  0  0  0  0  0  0  0  0  0
  151.4206  142.9859  156.9812 C   0  0  0  0  0  0  0  0  0  0  0  0
  151.9681  143.9079  158.0889 C   0  0  1  0  0  0  0  0  0  0  0  0
  150.8672  144.6261  158.8896 C   0  0  0  0  0  0  0  0  0  0  0  0
  152.8624  143.1804  158.9359 O   0  0  0  0  0  0  0  0  0  0  0  0
  153.0290  140.4253  160.8411 H   0  0  0  0  0  0  0  0  0  0  0  0
  153.7449  142.0040  161.1527 H   0  0  0  0  0  0  0  0  0  0  0  0
  154.2648  141.0626  159.7569 H   0  0  0  0  0  0  0  0  0  0  0  0
  151.4850  142.2629  160.1756 H   0  0  0  0  0  0  0  0  0  0  0  0
  152.6420  140.7127  157.7972 H   0  0  0  0  0  0  0  0  0  0  0  0
  151.3280  140.1846  158.8363 H   0  0  0  0  0  0  0  0  0  0  0  0
  152.0777  140.4509  155.5956 H   0  0  0  0  0  0  0  0  0  0  0  0
  150.9505  138.9676  153.9341 H   0  0  0  0  0  0  0  0  0  0  0  0
  148.9777  137.7956  153.3478 H   0  0  0  0  0  0  0  0  0  0  0  0
  147.6431  136.8485  152.2845 H   0  0  0  0  0  0  0  0  0  0  0  0
  145.3869  137.9447  151.1190 H   0  0  0  0  0  0  0  0  0  0  0  0
  143.4950  136.9969  152.4054 H   0  0  0  0  0  0  0  0  0  0  0  0
  144.4095  138.1160  153.4029 H   0  0  0  0  0  0  0  0  0  0  0  0
  144.6030  136.3790  153.6274 H   0  0  0  0  0  0  0  0  0  0  0  0
  146.4462  135.8936  150.2909 H   0  0  0  0  0  0  0  0  0  0  0  0
  147.1135  134.4664  152.0973 H   0  0  0  0  0  0  0  0  0  0  0  0
  145.6092  134.7366  152.9754 H   0  0  0  0  0  0  0  0  0  0  0  0
  146.0813  132.7184  150.8926 H   0  0  0  0  0  0  0  0  0  0  0  0
  144.7040  132.9157  151.9762 H   0  0  0  0  0  0  0  0  0  0  0  0
  145.0986  134.0177  149.2071 H   0  0  0  0  0  0  0  0  0  0  0  0
  143.5762  133.6380  150.0215 H   0  0  0  0  0  0  0  0  0  0  0  0
  147.2114  139.8709  155.9275 H   0  0  0  0  0  0  0  0  0  0  0  0
  152.2307  142.7191  156.3008 H   0  0  0  0  0  0  0  0  0  0  0  0
  150.6670  143.5077  156.3901 H   0  0  0  0  0  0  0  0  0  0  0  0
  152.5661  144.6837  157.6098 H   0  0  0  0  0  0  0  0  0  0  0  0
  150.2782  145.2736  158.2394 H   0  0  0  0  0  0  0  0  0  0  0  0
  151.2998  145.2499  159.6721 H   0  0  0  0  0  0  0  0  0  0  0  0
  150.1762  143.9279  159.3613 H   0  0  0  0  0  0  0  0  0  0  0  0
  1  2  1  0  0  0  0
  1 26  1  0  0  0  0
  1 27  1  0  0  0  0
  1 28  1  0  0  0  0
  2 25  1  0  0  0  0
  2  3  1  0  0  0  0
  2 29  1  0  0  0  0
  3  4  1  0  0  0  0
  3 30  1  0  0  0  0
  3 31  1  0  0  0  0
  4  5  1  0  0  0  0
  4 22  1  0  0  0  0
  5 21  1  0  0  0  0
  5  6  2  0  0  0  0
  6  7  1  0  0  0  0
  6 32  1  0  0  0  0
  7  8  2  0  0  0  0
  7 33  1  0  0  0  0
  8  9  1  0  0  0  0
  8 20  1  0  0  0  0
  9 10  1  0  0  0  0
  9 34  1  0  0  0  0
 10 11  2  0  0  0  0
 10 12  1  0  0  0  0
 12 13  1  0  0  0  0
 12 35  1  0  0  0  0
 13 14  1  0  0  0  0
 13 15  1  0  0  0  0
 13 36  1  0  0  0  0
 14 37  1  0  0  0  0
 14 38  1  0  0  0  0
 14 39  1  0  0  0  0
 15 19  1  0  0  0  0
 15 16  1  0  0  0  0
 15 40  1  0  0  0  0
 16 17  1  0  0  0  0
 16 41  1  0  0  0  0
 16 42  1  0  0  0  0
 17 18  1  0  0  0  0
 17 43  1  0  0  0  0
 17 44  1  0  0  0  0
 18 19  1  0  0  0  0
 18 45  1  0  0  0  0
 18 46  1  0  0  0  0
 20 21  2  0  0  0  0
 20 47  1  0  0  0  0
 22 23  1  0  0  0  0
 22 48  1  0  0  0  0
 22 49  1  0  0  0  0
 23 24  1  0  0  0  0
 23 25  1  0  0  0  0
 23 50  1  0  0  0  0
 24 51  1  0  0  0  0
 24 52  1  0  0  0  0
 24 53  1  0  0  0  0
M  END
> <s_m_source_file>
AV-unprocessed.smi

> <i_m_source_file_index>
1413

> <i_lp_mmshare_version>
43012

> <i_f3d_flags>
0

> <s_epik_input>
W0NIM11bQ0BASF0xW0NIMl1OKFtDSDJdW0NASF0oTzEpW0NIM10pYzJbY0hdW2NIXWMoW2NIXW4yKVtOSF1DKD1PKVtOSF1bQ0BIXShbQ0gzXSlbQ0BASF0zW0NIMl1bQ0gyXVtDSDJdTzM=

> <s_epik_cmdline>
J2VwaWtfcHl0aG9uJywgJy1waCcsICc3LjAnLCAnLXRuJywgJzgnLCAnLW1hJywgJzIwMCcsICctbWV0YWxfYmluZGluZycsICctaW1hZScsICc8aW5maWxlLm1hZT4nLCAnLW9tYWUnLCAnPG91dGZpbGUubWFlPic=

> <r_lp_tautomer_probability>
1

> <r_epik_Ionization_Penalty>
0.00271172

> <r_epik_Ionization_Penalty_Charging>
0

> <r_epik_Ionization_Penalty_Neutral>
0.00271172

> <r_epik_State_Penalty>
0.00186503

> <r_epik_Charging_Adjusted_Penalty>
0.00186503

> <i_epik_Tot_Q>
0

> <i_epik_Tot_abs_Q>
0

> <r_epik_Metal_State_Penalty>
-0

> <b_epik_Metal_Only>
0

> <s_lp_Force_Field>
OPLS_2005

> <r_lp_Energy>
38.8739

> <b_lp_Chiralities_Consistent>
1

> <s_lp_Variant>
AV-unprocessed.smi:1413-5

> <Gold.Version>
5.8.1

> <Gold.Id.Protein>
6NUR|6NUR_protein|mol2

> <Gold.PLP.Fitness>
46.5225

> <Gold.PLP.PLP>
-42.1275

> <Gold.PLP.part.hbond>
-2.0000

> <Gold.PLP.part.metal>
0.0000

> <Gold.PLP.part.buried>
-5.3515

> <Gold.PLP.part.nonpolar>
-35.8367

> <Gold.PLP.part.repulsive>
0.5367

> <Gold.PLP.ligand.clash>
0.0000

> <Gold.PLP.ligand.torsion>
0.3021

> <Gold.PLP.Chemscore.Hbond>
1.6178

> <Gold.PLP.Chemscore.CHOScore>
0.0000

> <Gold.PLP.Chemscore.Metal>
0.0000

> <Gold.Chemscore.Hbonds>
donor molecule, donor type, donor heavy atom, donor atom, acceptor molecule, acceptor atom, score
      L1  H     9    34       P1  7948  0.61
      L1  H    12    35       P1  7948  0.93

> <Gold.PLP.Chemscore.Internal.Correction>
0.1459

> <Gold.Rescore>
     Score         DG    S(hbond)    S(metal)    S(lipo)     H(rot)  DE(clash)    DE(int)     intcor
     17.09     -20.54       1.55        0.00     113.85       1.35       0.69       2.76       ----

> <Gold.Chemscore.Fitness>
17.0898

> <Gold.Chemscore.DG>
-20.5421

> <Gold.Chemscore.ZeroCoef>
-5.4800

> <Gold.Chemscore.Hbond>
1.5538

> <Gold.Chemscore.Metal>
0.0000

> <Gold.Chemscore.Lipo>
113.8524

> <Gold.Chemscore.Internal_Hbond>
0.0000

> <Gold.Chemscore.DEClash>
0.6902

> <Gold.Chemscore.DEInternal>
2.7621

> <Gold.Chemscore.Rot>
1.3471

> <Gold.Chemscore.Internal.Correction>
   9.000000E+99

> <Gold.Chemscore.Hbonds>
donor molecule, donor type, donor heavy atom, donor atom, acceptor molecule, acceptor atom, score
      L1  H     9    34       P1  7948  0.61
      L1  H    12    35       P1  7948  0.89

> <Gold.Chemscore.Hbond.Weighted>
-5.1898

> <Gold.Chemscore.Metal.Weighted>
-0.0000

> <Gold.Chemscore.Lipo.Weighted>
-13.3207

> <Gold.Chemscore.Internal_Hbond.Weighted>
0.0000

> <Gold.Chemscore.DEClash.Weighted>
0.6902

> <Gold.Chemscore.DEInternal.Weighted>
2.7621

> <Gold.Chemscore.Rot.Weighted>
3.4485

> <Gold.Chemscore.Internal.Correction.Weighted>
   9.000000E+99

> <Gold.Protein.RotatedTorsions>
[ 6907 6896 6895 6894 ] final   21.22 input  -60.11 | X-H torsion
[ 7974 7965 7964 7962 ] final  -41.43 input  175.53 | X-H torsion
[ 8008 7997 7996 7995 ] final  171.58 input   59.86 | X-H torsion
[ 10167 10162 10161 10158 ] final   59.42 input  -65.29 | X-H torsion
[ 10718 10713 10712 10709 ] final  121.71 input   66.30 | X-H torsion
[ 10763 10752 10751 10750 ] final   -2.92 input  -60.55 | X-H torsion
[ 11005 11000 10999 10996 ] final  100.07 input  -57.11 | X-H torsion

> <Gold.Protein.ActiveResidues>
 VAL166  LYS551  ARG553  GLY616  TRP617  ASP618  TYR619  PRO620  LYS621  CYS622 
 ASP623  PHE694  ASN695  SER759  ASP760  ASP761  ALA762  ILE779  LEU786  VAL792 
 PHE793  MET794  SER795  GLU796  ALA797  LYS798  CYS799  TRP800  GLU811  SER814 

> <Gold.Protein.RotatedAtoms>
  151.9084  135.0349  160.0512 H   0  0  0  0  0  0  0  0  0  0  0  0  # atno 6907 bound_to 6896
  152.2300  133.5046  159.5219 H   0  0  0  0  0  0  0  0  0  0  0  0  # atno 6908 bound_to 6896
  150.7023  134.1145  159.4055 H   0  0  0  0  0  0  0  0  0  0  0  0  # atno 6909 bound_to 6896
  146.0212  140.6847  142.9177 H   0  0  0  0  0  0  0  0  0  0  0  0  # atno 7974 bound_to 7965
  156.1257  140.1508  156.9140 H   0  0  0  0  0  0  0  0  0  0  0  0  # atno 8008 bound_to 7997
  154.4870  140.0862  156.7549 H   0  0  0  0  0  0  0  0  0  0  0  0  # atno 8009 bound_to 7997
  155.4348  140.3428  155.4286 H   0  0  0  0  0  0  0  0  0  0  0  0  # atno 8010 bound_to 7997
  140.1766  144.4223  150.6635 H   0  0  0  0  0  0  0  0  0  0  0  0  # atno 10167 bound_to 10162
  157.5797  131.1076  150.8210 H   0  0  0  0  0  0  0  0  0  0  0  0  # atno 10718 bound_to 10713
  153.3644  135.6992  153.6687 H   0  0  0  0  0  0  0  0  0  0  0  0  # atno 10763 bound_to 10752
  153.5362  135.3582  155.2698 H   0  0  0  0  0  0  0  0  0  0  0  0  # atno 10764 bound_to 10752
  154.8672  135.4192  154.2908 H   0  0  0  0  0  0  0  0  0  0  0  0  # atno 10765 bound_to 10752
  139.8771  134.9124  156.4701 H   0  0  0  0  0  0  0  0  0  0  0  0  # atno 11005 bound_to 11000
  144.6991  140.3569  143.7171 LP  0  0  0  0  0  0  0  0  0  0  0  0  # atno 17320 bound_to 7965
  145.7190  139.1704  143.2495 LP  0  0  0  0  0  0  0  0  0  0  0  0  # atno 17321 bound_to 7965
  140.6547  143.2234  151.5996 LP  0  0  0  0  0  0  0  0  0  0  0  0  # atno 17342 bound_to 10162
  139.5314  144.2905  152.1156 LP  0  0  0  0  0  0  0  0  0  0  0  0  # atno 17343 bound_to 10162
  156.8660  130.5129  149.5300 LP  0  0  0  0  0  0  0  0  0  0  0  0  # atno 17370 bound_to 10713
  156.0843  130.5845  150.9619 LP  0  0  0  0  0  0  0  0  0  0  0  0  # atno 17371 bound_to 10713
  140.8802  133.7923  155.9458 LP  0  0  0  0  0  0  0  0  0  0  0  0  # atno 17394 bound_to 11000
  140.8862  134.2551  157.5118 LP  0  0  0  0  0  0  0  0  0  0  0  0  # atno 17395 bound_to 11000

$$$$
