AV-unprocessed.smi:283|AV-procd|sdf|2133|dock4
  -GOLD-   2262021453D 1   1.00000     0.00000
 Structure written by MMmdl.
 48 51  0  0  0  0  0  0  0  0  1 V2000
  148.4535  140.3288  154.2491 C   0  0  0  0  0  0  0  0  0  0  0  0
  146.9438  140.1135  154.4212 C   0  0  2  0  0  0  0  0  0  0  0  0
  146.4328  139.2830  153.3319 N   0  0  0  0  0  0  0  0  0  0  0  0
  145.8232  138.1022  153.5819 C   0  0  0  0  0  0  0  0  0  0  0  0
  145.3502  137.8025  154.8197 N   0  0  0  0  0  0  0  0  0  0  0  0
  144.7560  136.6263  155.0400 C   0  0  0  0  0  0  0  0  0  0  0  0
  144.5406  135.6280  154.1816 N   0  0  0  0  0  0  0  0  0  0  0  0
  145.0173  135.9201  152.9370 C   0  0  0  0  0  0  0  0  0  0  0  0
  145.6660  137.1297  152.5609 C   0  0  0  0  0  0  0  0  0  0  0  0
  146.0126  137.0812  151.2172 N   0  0  0  0  0  0  0  0  0  0  0  0
  145.5930  135.9081  150.8261 C   0  0  0  0  0  0  0  0  0  0  0  0
  144.9854  135.1418  151.7959 N   0  0  0  0  0  0  0  0  0  0  0  0
  144.4285  133.7625  151.6408 C   0  0  2  0  0  0  0  0  0  0  0  0
  145.1650  132.8903  152.4432 O   0  0  0  0  0  0  0  0  0  0  0  0
  145.3927  131.6919  151.7194 C   0  0  2  0  0  0  0  0  0  0  0  0
  146.4721  130.7893  152.3541 C   0  0  0  0  0  0  0  0  0  0  0  0
  146.8009  129.6603  151.5723 O   0  0  0  0  0  0  0  0  0  0  0  0
  145.4974  132.1088  150.2443 C   0  0  2  0  0  0  0  0  0  0  0  0
  146.7956  132.5239  149.8695 O   0  0  0  0  0  0  0  0  0  0  0  0
  144.5378  133.2939  150.1738 C   0  0  1  0  0  0  0  0  0  0  0  0
  143.2829  132.8623  149.6853 O   0  0  0  0  0  0  0  0  0  0  0  0
  146.2273  141.4563  154.5827 C   0  0  0  0  0  0  0  0  0  0  0  0
  146.3233  142.4324  153.5635 C   0  0  0  0  0  0  0  0  0  0  0  0
  145.6759  143.6751  153.6960 C   0  0  0  0  0  0  0  0  0  0  0  0
  144.9306  143.9591  154.8543 C   0  0  0  0  0  0  0  0  0  0  0  0
  144.8370  143.0000  155.8794 C   0  0  0  0  0  0  0  0  0  0  0  0
  145.4817  141.7533  155.7514 C   0  0  0  0  0  0  0  0  0  0  0  0
  145.3423  140.6185  157.0484 Cl  0  0  0  0  0  0  0  0  0  0  0  0
  143.4017  133.8385  152.0017 H   0  0  0  0  0  0  0  0  0  0  0  0
  144.4557  131.1389  151.8117 H   0  0  0  0  0  0  0  0  0  0  0  0
  145.2100  131.2920  149.5806 H   0  0  0  0  0  0  0  0  0  0  0  0
  144.9050  134.0943  149.5284 H   0  0  0  0  0  0  0  0  0  0  0  0
  148.8702  140.8756  155.0955 H   0  0  0  0  0  0  0  0  0  0  0  0
  148.6735  140.8974  153.3449 H   0  0  0  0  0  0  0  0  0  0  0  0
  148.9818  139.3772  154.1819 H   0  0  0  0  0  0  0  0  0  0  0  0
  146.8050  139.5312  155.3316 H   0  0  0  0  0  0  0  0  0  0  0  0
  146.4370  139.7106  152.4172 H   0  0  0  0  0  0  0  0  0  0  0  0
  144.4035  136.4604  156.0472 H   0  0  0  0  0  0  0  0  0  0  0  0
  145.7221  135.5635  149.8104 H   0  0  0  0  0  0  0  0  0  0  0  0
  147.3792  131.3658  152.5375 H   0  0  0  0  0  0  0  0  0  0  0  0
  146.1244  130.4325  153.3239 H   0  0  0  0  0  0  0  0  0  0  0  0
  147.6536  129.7979  151.1887 H   0  0  0  0  0  0  0  0  0  0  0  0
  147.3559  131.7633  149.8390 H   0  0  0  0  0  0  0  0  0  0  0  0
  142.7250  133.6182  149.5841 H   0  0  0  0  0  0  0  0  0  0  0  0
  146.8961  142.2333  152.6699 H   0  0  0  0  0  0  0  0  0  0  0  0
  145.7530  144.4107  152.9091 H   0  0  0  0  0  0  0  0  0  0  0  0
  144.4341  144.9127  154.9580 H   0  0  0  0  0  0  0  0  0  0  0  0
  144.2680  143.2234  156.7699 H   0  0  0  0  0  0  0  0  0  0  0  0
  1  2  1  0  0  0  0
  1 33  1  0  0  0  0
  1 34  1  0  0  0  0
  1 35  1  0  0  0  0
  2  3  1  0  0  0  0
  2 22  1  0  0  0  0
  2 36  1  0  0  0  0
  3  4  1  0  0  0  0
  3 37  1  0  0  0  0
  4  9  1  0  0  0  0
  4  5  2  0  0  0  0
  5  6  1  0  0  0  0
  6  7  2  0  0  0  0
  6 38  1  0  0  0  0
  7  8  1  0  0  0  0
  8 12  1  0  0  0  0
  8  9  2  0  0  0  0
  9 10  1  0  0  0  0
 10 11  2  0  0  0  0
 11 12  1  0  0  0  0
 11 39  1  0  0  0  0
 12 13  1  0  0  0  0
 13 29  1  0  0  0  0
 13 20  1  0  0  0  0
 13 14  1  0  0  0  0
 14 15  1  0  0  0  0
 15 30  1  0  0  0  0
 15 16  1  0  0  0  0
 15 18  1  0  0  0  0
 16 17  1  0  0  0  0
 16 40  1  0  0  0  0
 16 41  1  0  0  0  0
 17 42  1  0  0  0  0
 18 31  1  0  0  0  0
 18 19  1  0  0  0  0
 18 20  1  0  0  0  0
 19 43  1  0  0  0  0
 20 32  1  0  0  0  0
 20 21  1  0  0  0  0
 21 44  1  0  0  0  0
 22 27  1  0  0  0  0
 22 23  2  0  0  0  0
 23 24  1  0  0  0  0
 23 45  1  0  0  0  0
 24 25  2  0  0  0  0
 24 46  1  0  0  0  0
 25 26  1  0  0  0  0
 25 47  1  0  0  0  0
 26 27  2  0  0  0  0
 26 48  1  0  0  0  0
 27 28  1  0  0  0  0
M  END
> <s_m_source_file>
AV-unprocessed.smi

> <i_m_source_file_index>
283

> <i_lp_mmshare_version>
43012

> <i_f3d_flags>
0

> <s_epik_input>
Q2xjMVtjSF1bY0hdW2NIXVtjSF1jMVtDQEhdKFtDSDNdKVtOSF1jKG5bY0hdbjIpYyhjMjMpbltjSF1uM1tDQEBIXTRPW0NASF0oW0NIMl1bT0hdKVtDQEBIXShbT0hdKVtDQEhdNFtPSF0=

> <s_epik_cmdline>
J2VwaWtfcHl0aG9uJywgJy1waCcsICc3LjAnLCAnLXRuJywgJzgnLCAnLW1hJywgJzIwMCcsICctbWV0YWxfYmluZGluZycsICctaW1hZScsICc8aW5maWxlLm1hZT4nLCAnLW9tYWUnLCAnPG91dGZpbGUubWFlPic=

> <r_lp_tautomer_probability>
1

> <r_epik_Ionization_Penalty>
0.000266407

> <r_epik_Ionization_Penalty_Charging>
0

> <r_epik_Ionization_Penalty_Neutral>
0.000266407

> <r_epik_State_Penalty>
-0

> <r_epik_Charging_Adjusted_Penalty>
0

> <i_epik_Tot_Q>
0

> <i_epik_Tot_abs_Q>
0

> <r_epik_Metal_State_Penalty>
-0

> <b_epik_Metal_Only>
0

> <s_epik_Chemistry_Notes>
This compound contains an acetal/aminal-like group ( X-CH(R)-Y where X, Y are N, S, or O) that may be acid/base labile, releasing an aldehyde.

> <s_lp_Force_Field>
OPLS_2005

> <r_lp_Energy>
46.8878

> <b_lp_Chiralities_Consistent>
1

> <s_lp_Variant>
AV-unprocessed.smi:283-9

> <Gold.Version>
5.8.1

> <Gold.Id.Protein>
6NUR|6NUR_protein|mol2

> <Gold.PLP.Fitness>
53.1409

> <Gold.PLP.PLP>
-41.4485

> <Gold.PLP.part.hbond>
-4.7420

> <Gold.PLP.part.metal>
0.0000

> <Gold.PLP.part.buried>
-10.0293

> <Gold.PLP.part.nonpolar>
-29.6489

> <Gold.PLP.part.repulsive>
1.7844

> <Gold.PLP.ligand.clash>
0.0000

> <Gold.PLP.ligand.torsion>
0.1884

> <Gold.PLP.Chemscore.Hbond>
3.0000

> <Gold.PLP.Chemscore.CHOScore>
1.0000

> <Gold.PLP.Chemscore.Metal>
0.0000

> <Gold.Chemscore.Hbonds>
donor molecule, donor type, donor heavy atom, donor atom, acceptor molecule, acceptor atom, score
      L1  H    17    42       P1 10747  1.00
      L1  H    19    43       P1 10747  1.00
      L1  H    21    44       P1 10186  1.00
      L1  C    11    39       P1  7921  1.00

> <Gold.PLP.Chemscore.Internal.Correction>
0.0691

> <Gold.Rescore>
     Score         DG    S(hbond)    S(metal)    S(lipo)     H(rot)  DE(clash)    DE(int)     intcor
     13.17     -14.31       2.96        0.00      80.73       4.10       1.07       0.07       ----

> <Gold.Chemscore.Fitness>
13.1705

> <Gold.Chemscore.DG>
-14.3125

> <Gold.Chemscore.ZeroCoef>
-5.4800

> <Gold.Chemscore.Hbond>
2.9567

> <Gold.Chemscore.Metal>
0.0000

> <Gold.Chemscore.Lipo>
80.7257

> <Gold.Chemscore.Internal_Hbond>
0.0000

> <Gold.Chemscore.DEClash>
1.0697

> <Gold.Chemscore.DEInternal>
0.0723

> <Gold.Chemscore.Rot>
4.0968

> <Gold.Chemscore.Internal.Correction>
   9.000000E+99

> <Gold.Chemscore.Hbonds>
donor molecule, donor type, donor heavy atom, donor atom, acceptor molecule, acceptor atom, score
      L1  H    17    42       P1 10747  0.97
      L1  H    19    43       P1 10747  0.96
      L1  H    21    44       P1 10186  0.95

> <Gold.Chemscore.Hbond.Weighted>
-9.8755

> <Gold.Chemscore.Metal.Weighted>
-0.0000

> <Gold.Chemscore.Lipo.Weighted>
-9.4449

> <Gold.Chemscore.Internal_Hbond.Weighted>
0.0000

> <Gold.Chemscore.DEClash.Weighted>
1.0697

> <Gold.Chemscore.DEInternal.Weighted>
0.0723

> <Gold.Chemscore.Rot.Weighted>
10.4879

> <Gold.Chemscore.Internal.Correction.Weighted>
   9.000000E+99

> <Gold.Protein.RotatedTorsions>
[ 6907 6896 6895 6894 ] final -115.31 input  -60.11 | X-H torsion
[ 7974 7965 7964 7962 ] final  -82.10 input  175.53 | X-H torsion
[ 8008 7997 7996 7995 ] final  167.62 input   59.86 | X-H torsion
[ 10167 10162 10161 10158 ] final  178.59 input  -65.29 | X-H torsion
[ 10718 10713 10712 10709 ] final   84.45 input   66.30 | X-H torsion
[ 10763 10752 10751 10750 ] final -104.63 input  -60.55 | X-H torsion
[ 11005 11000 10999 10996 ] final  168.90 input  -57.11 | X-H torsion

> <Gold.Protein.ActiveResidues>
 VAL166  LYS551  ARG553  GLY616  TRP617  ASP618  TYR619  PRO620  LYS621  CYS622 
 ASP623  PHE694  ASN695  SER759  ASP760  ASP761  ALA762  ILE779  LEU786  VAL792 
 PHE793  MET794  SER795  GLU796  ALA797  LYS798  CYS799  TRP800  GLU811  SER814 

> <Gold.Protein.RotatedAtoms>
  150.7968  133.8677  159.3249 H   0  0  0  0  0  0  0  0  0  0  0  0  # atno 6907 bound_to 6896
  151.6500  135.1001  160.0168 H   0  0  0  0  0  0  0  0  0  0  0  0  # atno 6908 bound_to 6896
  152.4051  133.6837  159.6384 H   0  0  0  0  0  0  0  0  0  0  0  0  # atno 6909 bound_to 6896
  145.5378  140.9513  143.1567 H   0  0  0  0  0  0  0  0  0  0  0  0  # atno 7974 bound_to 7965
  156.1618  140.1612  156.8599 H   0  0  0  0  0  0  0  0  0  0  0  0  # atno 8008 bound_to 7997
  154.5168  140.0787  156.8132 H   0  0  0  0  0  0  0  0  0  0  0  0  # atno 8009 bound_to 7997
  155.3691  140.3399  155.4245 H   0  0  0  0  0  0  0  0  0  0  0  0  # atno 8010 bound_to 7997
  139.5300  144.2662  152.0666 H   0  0  0  0  0  0  0  0  0  0  0  0  # atno 10167 bound_to 10162
  157.6898  131.0133  150.2674 H   0  0  0  0  0  0  0  0  0  0  0  0  # atno 10718 bound_to 10713
  154.7892  135.4779  154.0013 H   0  0  0  0  0  0  0  0  0  0  0  0  # atno 10763 bound_to 10752
  153.1605  135.6807  153.8757 H   0  0  0  0  0  0  0  0  0  0  0  0  # atno 10764 bound_to 10752
  153.8372  135.3184  155.3401 H   0  0  0  0  0  0  0  0  0  0  0  0  # atno 10765 bound_to 10752
  140.2921  134.7665  157.3847 H   0  0  0  0  0  0  0  0  0  0  0  0  # atno 11005 bound_to 11000
  144.7592  139.6998  143.7241 LP  0  0  0  0  0  0  0  0  0  0  0  0  # atno 17320 bound_to 7965
  146.2001  139.5291  142.9749 LP  0  0  0  0  0  0  0  0  0  0  0  0  # atno 17321 bound_to 7965
  140.2124  144.4549  150.6379 LP  0  0  0  0  0  0  0  0  0  0  0  0  # atno 17342 bound_to 10162
  140.6472  143.2216  151.6160 LP  0  0  0  0  0  0  0  0  0  0  0  0  # atno 17343 bound_to 10162
  156.3243  130.3790  149.7547 LP  0  0  0  0  0  0  0  0  0  0  0  0  # atno 17370 bound_to 10713
  156.5108  130.8171  151.3168 LP  0  0  0  0  0  0  0  0  0  0  0  0  # atno 17371 bound_to 10713
  140.1186  134.5250  155.8203 LP  0  0  0  0  0  0  0  0  0  0  0  0  # atno 17394 bound_to 11000
  141.2144  133.6748  156.6823 LP  0  0  0  0  0  0  0  0  0  0  0  0  # atno 17395 bound_to 11000

$$$$
