AV-unprocessed.smi:766|AV-procd|sdf|3651|dock4
  -GOLD-   22720 1 53D 1   1.00000     0.00000
 Structure written by MMmdl.
 47 49  0  0  0  0  0  0  0  0  2 V2000
  152.8629  142.9477  161.0410 C   0  0  0  0  0  0  0  0  0  0  0  0
  152.2458  142.5968  159.6986 C   0  0  0  0  0  0  0  0  0  0  0  0
  152.6925  141.4418  159.0175 C   0  0  0  0  0  0  0  0  0  0  0  0
  152.1418  141.0791  157.7688 C   0  0  0  0  0  0  0  0  0  0  0  0
  152.4220  140.0069  156.9393 N   0  0  0  0  0  0  0  0  0  0  0  0
  151.5806  140.2197  155.9319 C   0  0  0  0  0  0  0  0  0  0  0  0
  150.7856  141.3042  156.0115 N   0  0  0  0  0  0  0  0  0  0  0  0
  149.7928  141.7402  155.0463 C   0  0  0  0  0  0  0  0  0  0  0  0
  148.6901  140.6874  154.8235 C   0  0  2  0  0  0  0  0  0  0  0  0
  149.1709  139.6808  153.9526 O   0  0  0  0  0  0  0  0  0  0  0  0
  147.4175  141.3021  154.2196 C   0  0  0  0  0  0  0  0  0  0  0  0
  146.7987  142.2638  155.1526 N   0  3  0  0  0  0  0  0  0  0  0  0
  145.5652  142.8970  154.6448 C   0  0  0  0  0  0  0  0  0  0  0  0
  144.5778  143.2081  155.7816 C   0  0  0  0  0  0  0  0  0  0  0  0
  143.7537  144.3696  155.4971 N   0  0  0  0  0  0  0  0  0  0  0  0
  143.0266  144.6455  154.3581 C   0  0  0  0  0  0  0  0  0  0  0  0
  142.4132  145.8503  154.5498 C   0  0  0  0  0  0  0  0  0  0  0  0
  142.8290  146.2384  155.8539 C   0  0  0  0  0  0  0  0  0  0  0  0
  143.6329  145.3509  156.4178 N   0  0  0  0  0  0  0  0  0  0  0  0
  151.1247  141.9106  157.2158 C   0  0  0  0  0  0  0  0  0  0  0  0
  150.6741  143.0637  157.8817 C   0  0  0  0  0  0  0  0  0  0  0  0
  151.2348  143.4117  159.1282 C   0  0  0  0  0  0  0  0  0  0  0  0
  150.7406  144.6585  159.8399 C   0  0  0  0  0  0  0  0  0  0  0  0
  153.5672  142.1820  161.3677 H   0  0  0  0  0  0  0  0  0  0  0  0
  152.0918  143.0386  161.8064 H   0  0  0  0  0  0  0  0  0  0  0  0
  153.4012  143.8936  160.9770 H   0  0  0  0  0  0  0  0  0  0  0  0
  153.4640  140.8219  159.4503 H   0  0  0  0  0  0  0  0  0  0  0  0
  151.5367  139.5458  155.0887 H   0  0  0  0  0  0  0  0  0  0  0  0
  149.3571  142.6719  155.4087 H   0  0  0  0  0  0  0  0  0  0  0  0
  150.2955  141.9753  154.1068 H   0  0  0  0  0  0  0  0  0  0  0  0
  148.4447  140.2226  155.7797 H   0  0  0  0  0  0  0  0  0  0  0  0
  149.2234  140.0347  153.0776 H   0  0  0  0  0  0  0  0  0  0  0  0
  147.6670  141.8316  153.2989 H   0  0  0  0  0  0  0  0  0  0  0  0
  146.7005  140.5228  153.9565 H   0  0  0  0  0  0  0  0  0  0  0  0
  146.5843  141.7809  156.0139 H   0  0  0  0  0  0  0  0  0  0  0  0
  145.8155  143.8109  154.1044 H   0  0  0  0  0  0  0  0  0  0  0  0
  145.0956  142.2214  153.9289 H   0  0  0  0  0  0  0  0  0  0  0  0
  143.9169  142.3545  155.9373 H   0  0  0  0  0  0  0  0  0  0  0  0
  145.1065  143.3671  156.7227 H   0  0  0  0  0  0  0  0  0  0  0  0
  143.0052  143.9700  153.5156 H   0  0  0  0  0  0  0  0  0  0  0  0
  141.7638  146.3738  153.8639 H   0  0  0  0  0  0  0  0  0  0  0  0
  142.5732  147.1324  156.4032 H   0  0  0  0  0  0  0  0  0  0  0  0
  149.9025  143.6745  157.4370 H   0  0  0  0  0  0  0  0  0  0  0  0
  150.0111  145.1984  159.2357 H   0  0  0  0  0  0  0  0  0  0  0  0
  151.5690  145.3364  160.0465 H   0  0  0  0  0  0  0  0  0  0  0  0
  150.2642  144.3940  160.7840 H   0  0  0  0  0  0  0  0  0  0  0  0
  147.4691  142.9920  155.3556 H   0  0  0  0  0  0  0  0  0  0  0  0
  1  2  1  0  0  0  0
  1 24  1  0  0  0  0
  1 25  1  0  0  0  0
  1 26  1  0  0  0  0
  2 22  1  0  0  0  0
  2  3  2  0  0  0  0
  3  4  1  0  0  0  0
  3 27  1  0  0  0  0
  4 20  2  0  0  0  0
  4  5  1  0  0  0  0
  5  6  2  0  0  0  0
  6  7  1  0  0  0  0
  6 28  1  0  0  0  0
  7  8  1  0  0  0  0
  7 20  1  0  0  0  0
  8  9  1  0  0  0  0
  8 29  1  0  0  0  0
  8 30  1  0  0  0  0
  9 10  1  0  0  0  0
  9 11  1  0  0  0  0
  9 31  1  0  0  0  0
 10 32  1  0  0  0  0
 11 12  1  0  0  0  0
 11 33  1  0  0  0  0
 11 34  1  0  0  0  0
 12 13  1  0  0  0  0
 12 35  1  0  0  0  0
 12 47  1  0  0  0  0
 13 14  1  0  0  0  0
 13 36  1  0  0  0  0
 13 37  1  0  0  0  0
 14 15  1  0  0  0  0
 14 38  1  0  0  0  0
 14 39  1  0  0  0  0
 15 19  1  0  0  0  0
 15 16  1  0  0  0  0
 16 17  2  0  0  0  0
 16 40  1  0  0  0  0
 17 18  1  0  0  0  0
 17 41  1  0  0  0  0
 18 19  2  0  0  0  0
 18 42  1  0  0  0  0
 20 21  1  0  0  0  0
 21 22  2  0  0  0  0
 21 43  1  0  0  0  0
 22 23  1  0  0  0  0
 23 44  1  0  0  0  0
 23 45  1  0  0  0  0
 23 46  1  0  0  0  0
M  CHG  1  12   1
M  END
> <s_m_source_file>
AV-unprocessed.smi

> <i_m_source_file_index>
766

> <i_lp_mmshare_version>
43012

> <i_f3d_flags>
0

> <s_epik_input>
W0NIM11jKFtjSF0xKWMoW0NIM10pW2NIXWMoYzEyKW4oW2NIXW4yKVtDSDJdW0NASF0oW09IXSlbQ0gyXVtOSF1bQ0gyXVtDSDJdbjNbY0hdW2NIXVtjSF1uMw==

> <s_epik_cmdline>
J2VwaWtfcHl0aG9uJywgJy1waCcsICc3LjAnLCAnLXRuJywgJzgnLCAnLW1hJywgJzIwMCcsICctbWV0YWxfYmluZGluZycsICctaW1hZScsICc8aW5maWxlLm1hZT4nLCAnLW9tYWUnLCAnPG91dGZpbGUubWFlPic=

> <r_lp_tautomer_probability>
1

> <r_epik_Ionization_Penalty>
0.127222

> <r_epik_Ionization_Penalty_Charging>
0.043815

> <r_epik_Ionization_Penalty_Neutral>
0.0834074

> <r_epik_State_Penalty>
0.115563

> <r_epik_Charging_Adjusted_Penalty>
0.159378

> <i_epik_Tot_Q>
1

> <i_epik_Tot_abs_Q>
1

> <r_epik_Metal_State_Penalty>
0.102594

> <b_epik_Metal_Only>
0

> <s_lp_Force_Field>
OPLS_2005

> <r_lp_Energy>
9.49244

> <b_lp_Chiralities_Consistent>
1

> <s_lp_Variant>
AV-unprocessed.smi:766-1

> <Gold.Version>
5.8.1

> <Gold.Id.Protein>
6NUR|6NUR_protein|mol2

> <Gold.PLP.Fitness>
65.0996

> <Gold.PLP.PLP>
-51.2738

> <Gold.PLP.part.hbond>
-3.0000

> <Gold.PLP.part.metal>
0.0000

> <Gold.PLP.part.buried>
-5.2542

> <Gold.PLP.part.nonpolar>
-42.4417

> <Gold.PLP.part.repulsive>
0.1568

> <Gold.PLP.ligand.clash>
0.0000

> <Gold.PLP.ligand.torsion>
0.6926

> <Gold.PLP.Chemscore.Hbond>
4.0000

> <Gold.PLP.Chemscore.CHOScore>
1.0000

> <Gold.PLP.Chemscore.Metal>
0.0000

> <Gold.Chemscore.Hbonds>
donor molecule, donor type, donor heavy atom, donor atom, acceptor molecule, acceptor atom, score
      L1  H    10    32       P1  7957  1.00
      L1  H    12    47       P1  8028  1.07
      P1  H  7997  8008       L1     5  1.00
      L1  C    16    40       P1 10174  1.00

> <Gold.PLP.Chemscore.Internal.Correction>
0.2110

> <Gold.Rescore>
     Score         DG    S(hbond)    S(metal)    S(lipo)     H(rot)  DE(clash)    DE(int)     intcor
     18.03     -18.89       1.67        0.00     131.07       2.93       0.43       0.43       ----

> <Gold.Chemscore.Fitness>
18.0326

> <Gold.Chemscore.DG>
-18.8857

> <Gold.Chemscore.ZeroCoef>
-5.4800

> <Gold.Chemscore.Hbond>
1.6708

> <Gold.Chemscore.Metal>
0.0000

> <Gold.Chemscore.Lipo>
131.0658

> <Gold.Chemscore.Internal_Hbond>
0.0000

> <Gold.Chemscore.DEClash>
0.4251

> <Gold.Chemscore.DEInternal>
0.4279

> <Gold.Chemscore.Rot>
2.9335

> <Gold.Chemscore.Internal.Correction>
   9.000000E+99

> <Gold.Chemscore.Hbonds>
donor molecule, donor type, donor heavy atom, donor atom, acceptor molecule, acceptor atom, score
      L1  H    10    32       P1  7957  0.98
      L1  H    12    47       P1  8028  0.16
      P1  H  7997  8008       L1     5  0.54

> <Gold.Chemscore.Hbond.Weighted>
-5.5806

> <Gold.Chemscore.Metal.Weighted>
-0.0000

> <Gold.Chemscore.Lipo.Weighted>
-15.3347

> <Gold.Chemscore.Internal_Hbond.Weighted>
0.0000

> <Gold.Chemscore.DEClash.Weighted>
0.4251

> <Gold.Chemscore.DEInternal.Weighted>
0.4279

> <Gold.Chemscore.Rot.Weighted>
7.5097

> <Gold.Chemscore.Internal.Correction.Weighted>
   9.000000E+99

> <Gold.Protein.RotatedTorsions>
[ 6907 6896 6895 6894 ] final -127.60 input  -60.11 | X-H torsion
[ 7974 7965 7964 7962 ] final   -2.45 input  175.53 | X-H torsion
[ 8008 7997 7996 7995 ] final  -51.74 input   59.86 | X-H torsion
[ 10167 10162 10161 10158 ] final -104.15 input  -65.29 | X-H torsion
[ 10718 10713 10712 10709 ] final  111.98 input   66.30 | X-H torsion
[ 10763 10752 10751 10750 ] final  -75.64 input  -60.55 | X-H torsion
[ 11005 11000 10999 10996 ] final  -85.58 input  -57.11 | X-H torsion

> <Gold.Protein.ActiveResidues>
 VAL166  LYS551  ARG553  GLY616  TRP617  ASP618  TYR619  PRO620  LYS621  CYS622 
 ASP623  PHE694  ASN695  SER759  ASP760  ASP761  ALA762  ILE779  LEU786  VAL792 
 PHE793  MET794  SER795  GLU796  ALA797  LYS798  CYS799  TRP800  GLU811  SER814 

> <Gold.Protein.RotatedAtoms>
  150.9091  133.7021  159.2859 H   0  0  0  0  0  0  0  0  0  0  0  0  # atno 6907 bound_to 6896
  151.4514  135.1029  159.9708 H   0  0  0  0  0  0  0  0  0  0  0  0  # atno 6908 bound_to 6896
  152.4920  133.8475  159.7240 H   0  0  0  0  0  0  0  0  0  0  0  0  # atno 6909 bound_to 6896
  146.2404  140.1573  142.8333 H   0  0  0  0  0  0  0  0  0  0  0  0  # atno 7974 bound_to 7965
  154.4090  140.1240  156.4878 H   0  0  0  0  0  0  0  0  0  0  0  0  # atno 8008 bound_to 7997
  155.7020  140.3494  155.4918 H   0  0  0  0  0  0  0  0  0  0  0  0  # atno 8009 bound_to 7997
  155.9376  140.1081  157.1072 H   0  0  0  0  0  0  0  0  0  0  0  0  # atno 8010 bound_to 7997
  140.2124  143.3737  152.1039 H   0  0  0  0  0  0  0  0  0  0  0  0  # atno 10167 bound_to 10162
  157.6417  131.0960  150.6828 H   0  0  0  0  0  0  0  0  0  0  0  0  # atno 10718 bound_to 10713
  154.4893  135.5824  153.6447 H   0  0  0  0  0  0  0  0  0  0  0  0  # atno 10763 bound_to 10752
  152.9859  135.6109  154.3146 H   0  0  0  0  0  0  0  0  0  0  0  0  # atno 10764 bound_to 10752
  154.3044  135.2846  155.2575 H   0  0  0  0  0  0  0  0  0  0  0  0  # atno 10765 bound_to 10752
  141.1639  133.7407  156.9036 H   0  0  0  0  0  0  0  0  0  0  0  0  # atno 11005 bound_to 11000
  145.0118  140.8720  143.5219 LP  0  0  0  0  0  0  0  0  0  0  0  0  # atno 17320 bound_to 7965
  145.1608  139.2460  143.5393 LP  0  0  0  0  0  0  0  0  0  0  0  0  # atno 17321 bound_to 7965
  139.5175  144.6992  151.5541 LP  0  0  0  0  0  0  0  0  0  0  0  0  # atno 17342 bound_to 10162
  140.6314  143.9068  150.6609 LP  0  0  0  0  0  0  0  0  0  0  0  0  # atno 17343 bound_to 10162
  156.7151  130.4663  149.5537 LP  0  0  0  0  0  0  0  0  0  0  0  0  # atno 17370 bound_to 10713
  156.1703  130.6433  151.0829 LP  0  0  0  0  0  0  0  0  0  0  0  0  # atno 17371 bound_to 10713
  140.1565  134.9194  157.2660 LP  0  0  0  0  0  0  0  0  0  0  0  0  # atno 17394 bound_to 11000
  140.2661  134.3515  155.7389 LP  0  0  0  0  0  0  0  0  0  0  0  0  # atno 17395 bound_to 11000

$$$$
