AV-unprocessed.smi:35|AV-procd|sdf|251|dock2
  -GOLD-   2262016 13D 1   1.00000     0.00000
 Structure written by MMmdl.
 29 30  0  0  0  0  0  0  0  0  1 V2000
  149.4079  135.7369  158.6749 O   0  0  0  0  0  0  0  0  0  0  0  0
  148.8961  136.6095  157.9771 C   0  0  0  0  0  0  0  0  0  0  0  0
  147.8651  137.4047  158.4841 N   0  0  0  0  0  0  0  0  0  0  0  0
  147.2133  138.4260  157.7905 C   0  0  0  0  0  0  0  0  0  0  0  0
  146.2993  139.0486  158.3302 O   0  0  0  0  0  0  0  0  0  0  0  0
  147.6470  138.6986  156.4725 N   0  0  0  0  0  0  0  0  0  0  0  0
  146.9317  139.7901  155.6935 C   0  0  2  0  0  0  0  0  0  0  0  0
  146.4322  139.2735  154.4979 O   0  0  0  0  0  0  0  0  0  0  0  0
  147.3808  139.4812  153.4598 C   0  0  1  0  0  0  0  0  0  0  0  0
  146.6952  139.3549  152.0920 C   0  0  0  0  0  0  0  0  0  0  0  0
  147.3365  138.3597  151.3234 O   0  0  0  0  0  0  0  0  0  0  0  0
  147.8812  140.8921  153.7714 C   0  0  2  0  0  0  0  0  0  0  0  0
  149.1817  141.0795  153.2496 O   0  0  0  0  0  0  0  0  0  0  0  0
  147.9004  140.9301  155.2982 C   0  0  1  0  0  0  0  0  0  0  0  0
  147.4498  142.1867  155.7623 O   0  0  0  0  0  0  0  0  0  0  0  0
  148.6459  137.9059  155.9150 C   0  0  0  0  0  0  0  0  0  0  0  0
  149.2636  136.9145  156.5993 C   0  0  0  0  0  0  0  0  0  0  0  0
  150.6631  135.9054  155.6254 Br  0  0  0  0  0  0  0  0  0  0  0  0
  147.5616  137.2199  159.4293 H   0  0  0  0  0  0  0  0  0  0  0  0
  146.1037  140.0948  156.3371 H   0  0  0  0  0  0  0  0  0  0  0  0
  148.2032  138.7689  153.5540 H   0  0  0  0  0  0  0  0  0  0  0  0
  145.6337  139.1292  152.1984 H   0  0  0  0  0  0  0  0  0  0  0  0
  146.7748  140.2941  151.5440 H   0  0  0  0  0  0  0  0  0  0  0  0
  147.6678  137.6955  151.9083 H   0  0  0  0  0  0  0  0  0  0  0  0
  147.1928  141.6358  153.3659 H   0  0  0  0  0  0  0  0  0  0  0  0
  149.3569  140.3878  152.6298 H   0  0  0  0  0  0  0  0  0  0  0  0
  148.9006  140.7278  155.6852 H   0  0  0  0  0  0  0  0  0  0  0  0
  148.1796  142.7875  155.7502 H   0  0  0  0  0  0  0  0  0  0  0  0
  148.9593  138.0597  154.8938 H   0  0  0  0  0  0  0  0  0  0  0  0
  1  2  2  0  0  0  0
  2 17  1  0  0  0  0
  2  3  1  0  0  0  0
  3 19  1  0  0  0  0
  3  4  1  0  0  0  0
  4  5  2  0  0  0  0
  4  6  1  0  0  0  0
  6  7  1  0  0  0  0
  6 16  1  0  0  0  0
  7 14  1  0  0  0  0
  7  8  1  0  0  0  0
  7 20  1  0  0  0  0
  8  9  1  0  0  0  0
  9 10  1  0  0  0  0
  9 12  1  0  0  0  0
  9 21  1  0  0  0  0
 10 11  1  0  0  0  0
 10 22  1  0  0  0  0
 10 23  1  0  0  0  0
 11 24  1  0  0  0  0
 12 13  1  0  0  0  0
 12 14  1  0  0  0  0
 12 25  1  0  0  0  0
 13 26  1  0  0  0  0
 14 15  1  0  0  0  0
 14 27  1  0  0  0  0
 15 28  1  0  0  0  0
 16 17  2  0  0  0  0
 16 29  1  0  0  0  0
 17 18  1  0  0  0  0
M  END
> <s_m_source_file>
AV-unprocessed.smi

> <i_m_source_file_index>
35

> <i_lp_mmshare_version>
43012

> <i_f3d_flags>
0

> <s_epik_input>
Tz1jMVtuSF1jKD1PKW4oW2NIXWMxQnIpW0NAQEhdMk9bQ0BASF0oW0NIMl1bT0hdKVtDQEBIXShbT0hdKVtDQEhdMltPSF0=

> <s_epik_cmdline>
J2VwaWtfcHl0aG9uJywgJy1waCcsICc3LjAnLCAnLXRuJywgJzgnLCAnLW1hJywgJzIwMCcsICctbWV0YWxfYmluZGluZycsICctaW1hZScsICc8aW5maWxlLm1hZT4nLCAnLW9tYWUnLCAnPG91dGZpbGUubWFlPic=

> <r_lp_tautomer_probability>
0.999537

> <r_epik_Ionization_Penalty>
0.10812

> <r_epik_Ionization_Penalty_Charging>
0.108119

> <r_epik_Ionization_Penalty_Neutral>
4.93006e-07

> <r_epik_State_Penalty>
0.0979238

> <r_epik_Charging_Adjusted_Penalty>
0.206043

> <i_epik_Tot_Q>
0

> <i_epik_Tot_abs_Q>
0

> <r_epik_Metal_State_Penalty>
3.07911

> <b_epik_Metal_Only>
0

> <s_epik_Chemistry_Notes>
This compound contains an acetal/aminal-like group ( X-CH(R)-Y where X, Y are N, S, or O) that may be acid/base labile, releasing an aldehyde.

> <s_lp_Force_Field>
OPLS_2005

> <r_lp_Energy>
25.602

> <b_lp_Chiralities_Consistent>
1

> <s_lp_Variant>
AV-unprocessed.smi:35-5

> <Gold.Version>
5.8.1

> <Gold.Id.Protein>
6NUR|6NUR_protein|mol2

> <Gold.PLP.Fitness>
37.5244

> <Gold.PLP.PLP>
-22.4633

> <Gold.PLP.part.hbond>
-8.4292

> <Gold.PLP.part.metal>
0.0000

> <Gold.PLP.part.buried>
-2.2145

> <Gold.PLP.part.nonpolar>
-11.9604

> <Gold.PLP.part.repulsive>
0.2281

> <Gold.PLP.ligand.clash>
0.0000

> <Gold.PLP.ligand.torsion>
0.7914

> <Gold.PLP.Chemscore.Hbond>
5.5360

> <Gold.PLP.Chemscore.CHOScore>
0.0000

> <Gold.PLP.Chemscore.Metal>
0.0000

> <Gold.Chemscore.Hbonds>
donor molecule, donor type, donor heavy atom, donor atom, acceptor molecule, acceptor atom, score
      L1  H    11    24       P1  7948  0.74
      L1  H    13    26       P1  7957  0.89
      L1  H    15    28       P1  8028  0.94
      P1  H  6896  6908       L1     1  1.00
      P1  H  7954  7966       L1    11  0.90
      P1  H  8011  8017       L1    13  0.90

> <Gold.PLP.Chemscore.Internal.Correction>
0.0359

> <Gold.Rescore>
     Score         DG    S(hbond)    S(metal)    S(lipo)     H(rot)  DE(clash)    DE(int)     intcor
     13.70     -14.56       4.27        0.00      36.03       3.67       0.10       0.75       ----

> <Gold.Chemscore.Fitness>
13.7040

> <Gold.Chemscore.DG>
-14.5561

> <Gold.Chemscore.ZeroCoef>
-5.4800

> <Gold.Chemscore.Hbond>
4.2683

> <Gold.Chemscore.Metal>
0.0000

> <Gold.Chemscore.Lipo>
36.0288

> <Gold.Chemscore.Internal_Hbond>
0.0000

> <Gold.Chemscore.DEClash>
0.0975

> <Gold.Chemscore.DEInternal>
0.7545

> <Gold.Chemscore.Rot>
3.6701

> <Gold.Chemscore.Internal.Correction>
   9.000000E+99

> <Gold.Chemscore.Hbonds>
donor molecule, donor type, donor heavy atom, donor atom, acceptor molecule, acceptor atom, score
      L1  H    11    24       P1  7948  0.74
      L1  H    13    26       P1  7957  0.81
      L1  H    15    28       P1  8028  0.78
      P1  H  6896  6908       L1     1  1.00
      P1  H  7954  7966       L1    11  0.18
      P1  H  8011  8017       L1    13  0.18

> <Gold.Chemscore.Hbond.Weighted>
-14.2562

> <Gold.Chemscore.Metal.Weighted>
-0.0000

> <Gold.Chemscore.Lipo.Weighted>
-4.2154

> <Gold.Chemscore.Internal_Hbond.Weighted>
0.0000

> <Gold.Chemscore.DEClash.Weighted>
0.0975

> <Gold.Chemscore.DEInternal.Weighted>
0.7545

> <Gold.Chemscore.Rot.Weighted>
9.3955

> <Gold.Chemscore.Internal.Correction.Weighted>
   9.000000E+99

> <Gold.Protein.RotatedTorsions>
[ 6907 6896 6895 6894 ] final  175.48 input  -60.11 | X-H torsion
[ 7974 7965 7964 7962 ] final   68.95 input  175.53 | X-H torsion
[ 8008 7997 7996 7995 ] final   12.23 input   59.86 | X-H torsion
[ 10167 10162 10161 10158 ] final  -35.27 input  -65.29 | X-H torsion
[ 10718 10713 10712 10709 ] final   83.11 input   66.30 | X-H torsion
[ 10763 10752 10751 10750 ] final  131.46 input  -60.55 | X-H torsion
[ 11005 11000 10999 10996 ] final  139.63 input  -57.11 | X-H torsion

> <Gold.Protein.ActiveResidues>
 VAL166  LYS551  ARG553  GLY616  TRP617  ASP618  TYR619  PRO620  LYS621  CYS622 
 ASP623  PHE694  ASN695  SER759  ASP760  ASP761  ALA762  ILE779  LEU786  VAL792 
 PHE793  MET794  SER795  GLU796  ALA797  LYS798  CYS799  TRP800  GLU811  SER814 

> <Gold.Protein.RotatedAtoms>
  151.7355  133.3319  159.3351 H   0  0  0  0  0  0  0  0  0  0  0  0  # atno 6907 bound_to 6896
  150.7595  134.6325  159.6203 H   0  0  0  0  0  0  0  0  0  0  0  0  # atno 6908 bound_to 6896
  152.3564  134.6936  160.0272 H   0  0  0  0  0  0  0  0  0  0  0  0  # atno 6909 bound_to 6896
  145.7963  139.2959  143.1181 H   0  0  0  0  0  0  0  0  0  0  0  0  # atno 7974 bound_to 7965
  154.8178  140.2879  155.5808 H   0  0  0  0  0  0  0  0  0  0  0  0  # atno 8008 bound_to 7997
  156.2994  140.2556  156.3009 H   0  0  0  0  0  0  0  0  0  0  0  0  # atno 8009 bound_to 7997
  154.9374  140.0382  157.2068 H   0  0  0  0  0  0  0  0  0  0  0  0  # atno 8010 bound_to 7997
  140.7168  143.3489  151.2198 H   0  0  0  0  0  0  0  0  0  0  0  0  # atno 10167 bound_to 10162
  157.6872  131.0077  150.2475 H   0  0  0  0  0  0  0  0  0  0  0  0  # atno 10718 bound_to 10713
  153.7747  135.3177  155.3357 H   0  0  0  0  0  0  0  0  0  0  0  0  # atno 10763 bound_to 10752
  154.8183  135.4621  154.0710 H   0  0  0  0  0  0  0  0  0  0  0  0  # atno 10764 bound_to 10752
  153.1980  135.6918  153.8352 H   0  0  0  0  0  0  0  0  0  0  0  0  # atno 10765 bound_to 10752
  140.0269  134.9371  157.0585 H   0  0  0  0  0  0  0  0  0  0  0  0  # atno 11005 bound_to 11000
  145.9924  140.8591  143.0059 LP  0  0  0  0  0  0  0  0  0  0  0  0  # atno 17320 bound_to 7965
  144.6775  140.2235  143.7363 LP  0  0  0  0  0  0  0  0  0  0  0  0  # atno 17321 bound_to 7965
  139.7015  143.9526  152.2907 LP  0  0  0  0  0  0  0  0  0  0  0  0  # atno 17342 bound_to 10162
  139.9220  144.6794  150.8451 LP  0  0  0  0  0  0  0  0  0  0  0  0  # atno 17343 bound_to 10162
  156.3078  130.3767  149.7690 LP  0  0  0  0  0  0  0  0  0  0  0  0  # atno 17370 bound_to 10713
  156.5300  130.8253  151.3233 LP  0  0  0  0  0  0  0  0  0  0  0  0  # atno 17371 bound_to 10713
  140.4292  134.1798  155.7167 LP  0  0  0  0  0  0  0  0  0  0  0  0  # atno 17394 bound_to 11000
  141.1808  133.8418  157.1265 LP  0  0  0  0  0  0  0  0  0  0  0  0  # atno 17395 bound_to 11000

$$$$
