AV-unprocessed.smi:3279|AV-procd|sdf|12550|dock10
  -GOLD-   2272018463D 1   1.00000     0.00000
 Structure written by MMmdl.
 36 36  0  0  0  0  0  0  0  0  1 V2000
  148.7841  140.3942  153.1597 C   0  0  0  0  0  0  0  0  0  0  0  0
  148.9044  139.5233  154.4229 C   0  0  2  0  0  0  0  0  0  0  0  0
  148.5895  140.2801  155.7314 C   0  0  0  0  0  0  0  0  0  0  0  0
  149.7841  140.8313  156.3650 N   0  0  0  0  0  0  0  0  0  0  0  0
  149.8470  141.3423  157.6046 C   0  0  0  0  0  0  0  0  0  0  0  0
  148.8885  141.3797  158.3756 O   0  0  0  0  0  0  0  0  0  0  0  0
  151.2060  141.8792  158.0456 C   0  0  0  0  0  0  0  0  0  0  0  0
  151.0050  142.7570  159.1495 O   0  0  0  0  0  0  0  0  0  0  0  0
  152.0705  143.6380  159.5147 C   0  0  0  0  0  0  0  0  0  0  0  0
  151.6290  144.5728  160.6578 C   0  0  0  0  0  0  0  0  0  0  0  0
  152.5825  144.4421  158.3025 C   0  0  0  0  0  0  0  0  0  0  0  0
  153.1825  142.7031  160.0165 C   0  0  0  0  0  0  0  0  0  0  0  0
  150.2505  138.8702  154.4938 C   0  0  0  0  0  0  0  0  0  0  0  0
  151.3625  139.4053  154.9844 N   0  0  0  0  0  0  0  0  0  0  0  0
  152.3098  138.4086  154.8164 N   0  0  0  0  0  0  0  0  0  0  0  0
  151.7925  137.3498  154.2600 N   0  0  0  0  0  0  0  0  0  0  0  0
  150.4871  137.6331  154.0513 N   0  0  0  0  0  0  0  0  0  0  0  0
  149.8377  136.9865  153.6272 H   0  0  0  0  0  0  0  0  0  0  0  0
  149.0076  139.8139  152.2639 H   0  0  0  0  0  0  0  0  0  0  0  0
  149.4772  141.2353  153.1921 H   0  0  0  0  0  0  0  0  0  0  0  0
  147.7785  140.7959  153.0400 H   0  0  0  0  0  0  0  0  0  0  0  0
  148.1690  138.7228  154.3280 H   0  0  0  0  0  0  0  0  0  0  0  0
  147.9297  141.1205  155.5129 H   0  0  0  0  0  0  0  0  0  0  0  0
  148.0402  139.6383  156.4225 H   0  0  0  0  0  0  0  0  0  0  0  0
  150.6274  140.8474  155.8096 H   0  0  0  0  0  0  0  0  0  0  0  0
  151.8466  141.0412  158.3205 H   0  0  0  0  0  0  0  0  0  0  0  0
  151.6641  142.3904  157.1994 H   0  0  0  0  0  0  0  0  0  0  0  0
  152.4741  145.1448  161.0426 H   0  0  0  0  0  0  0  0  0  0  0  0
  151.2088  144.0070  161.4898 H   0  0  0  0  0  0  0  0  0  0  0  0
  150.8800  145.2947  160.3335 H   0  0  0  0  0  0  0  0  0  0  0  0
  151.8479  145.1672  157.9521 H   0  0  0  0  0  0  0  0  0  0  0  0
  152.8285  143.7847  157.4679 H   0  0  0  0  0  0  0  0  0  0  0  0
  153.4832  145.0017  158.5570 H   0  0  0  0  0  0  0  0  0  0  0  0
  154.0604  143.2643  160.3382 H   0  0  0  0  0  0  0  0  0  0  0  0
  153.5010  142.0136  159.2337 H   0  0  0  0  0  0  0  0  0  0  0  0
  152.8446  142.1043  160.8633 H   0  0  0  0  0  0  0  0  0  0  0  0
  1  2  1  0  0  0  0
  1 19  1  0  0  0  0
  1 20  1  0  0  0  0
  1 21  1  0  0  0  0
  2  3  1  0  0  0  0
  2 13  1  0  0  0  0
  2 22  1  0  0  0  0
  3  4  1  0  0  0  0
  3 23  1  0  0  0  0
  3 24  1  0  0  0  0
  4  5  1  0  0  0  0
  4 25  1  0  0  0  0
  5  6  2  0  0  0  0
  5  7  1  0  0  0  0
  7  8  1  0  0  0  0
  7 26  1  0  0  0  0
  7 27  1  0  0  0  0
  8  9  1  0  0  0  0
  9 10  1  0  0  0  0
  9 11  1  0  0  0  0
  9 12  1  0  0  0  0
 10 28  1  0  0  0  0
 10 29  1  0  0  0  0
 10 30  1  0  0  0  0
 11 31  1  0  0  0  0
 11 32  1  0  0  0  0
 11 33  1  0  0  0  0
 12 34  1  0  0  0  0
 12 35  1  0  0  0  0
 12 36  1  0  0  0  0
 13 17  1  0  0  0  0
 13 14  2  0  0  0  0
 14 15  1  0  0  0  0
 15 16  2  0  0  0  0
 16 17  1  0  0  0  0
 17 18  1  0  0  0  0
M  END
> <s_m_source_file>
AV-unprocessed.smi

> <i_m_source_file_index>
3279

> <i_lp_mmshare_version>
43012

> <i_f3d_flags>
0

> <s_epik_input>
W25IXTFubm5jMVtDQEhdKFtDSDNdKVtDSDJdW05IXUMoPU8pW0NIMl1PQyhbQ0gzXSkoW0NIM10pW0NIM10=

> <s_epik_cmdline>
J2VwaWtfcHl0aG9uJywgJy1waCcsICc3LjAnLCAnLXRuJywgJzgnLCAnLW1hJywgJzIwMCcsICctbWV0YWxfYmluZGluZycsICctaW1hZScsICc8aW5maWxlLm1hZT4nLCAnLW9tYWUnLCAnPG91dGZpbGUubWFlPic=

> <r_lp_tautomer_probability>
0.3

> <r_epik_Ionization_Penalty>
1.45055

> <r_epik_Ionization_Penalty_Charging>
0

> <r_epik_Ionization_Penalty_Neutral>
1.45055

> <r_epik_State_Penalty>
2.31845

> <r_epik_Charging_Adjusted_Penalty>
2.31845

> <i_epik_Tot_Q>
0

> <i_epik_Tot_abs_Q>
0

> <r_epik_Metal_State_Penalty>
2.36898

> <b_epik_Metal_Only>
0

> <s_lp_Force_Field>
OPLS_2005

> <r_lp_Energy>
6.97201

> <b_lp_Chiralities_Consistent>
1

> <s_lp_Variant>
AV-unprocessed.smi:3279-3

> <Gold.Version>
5.8.1

> <Gold.Id.Protein>
6NUR|6NUR_protein|mol2

> <Gold.PLP.Fitness>
36.1368

> <Gold.PLP.PLP>
-30.4816

> <Gold.PLP.part.hbond>
-4.4239

> <Gold.PLP.part.metal>
0.0000

> <Gold.PLP.part.buried>
-1.2060

> <Gold.PLP.part.nonpolar>
-27.3656

> <Gold.PLP.part.repulsive>
0.8071

> <Gold.PLP.ligand.clash>
0.0000

> <Gold.PLP.ligand.torsion>
1.3890

> <Gold.PLP.Chemscore.Hbond>
2.7713

> <Gold.PLP.Chemscore.CHOScore>
0.0000

> <Gold.PLP.Chemscore.Metal>
0.0000

> <Gold.Chemscore.Hbonds>
donor molecule, donor type, donor heavy atom, donor atom, acceptor molecule, acceptor atom, score
      L1  H    17    18       P1  7948  0.83
      P1  H  7989  7998       L1    14  0.75
      P1  H 10752 10765       L1    16  0.98

> <Gold.PLP.Chemscore.Internal.Correction>
0.1194

> <Gold.Rescore>
     Score         DG    S(hbond)    S(metal)    S(lipo)     H(rot)  DE(clash)    DE(int)     intcor
      8.45     -13.44       1.74        0.00      77.55       2.71       2.07       2.93       ----

> <Gold.Chemscore.Fitness>
8.4461

> <Gold.Chemscore.DG>
-13.4429

> <Gold.Chemscore.ZeroCoef>
-5.4800

> <Gold.Chemscore.Hbond>
1.7442

> <Gold.Chemscore.Metal>
0.0000

> <Gold.Chemscore.Lipo>
77.5492

> <Gold.Chemscore.Internal_Hbond>
0.0000

> <Gold.Chemscore.DEClash>
2.0695

> <Gold.Chemscore.DEInternal>
2.9273

> <Gold.Chemscore.Rot>
2.7094

> <Gold.Chemscore.Internal.Correction>
   9.000000E+99

> <Gold.Chemscore.Hbonds>
donor molecule, donor type, donor heavy atom, donor atom, acceptor molecule, acceptor atom, score
      L1  H    17    18       P1  7948  0.39
      P1  H  7989  7998       L1    14  0.10
      P1  H 10752 10765       L1    16  0.83

> <Gold.Chemscore.Hbond.Weighted>
-5.8256

> <Gold.Chemscore.Metal.Weighted>
-0.0000

> <Gold.Chemscore.Lipo.Weighted>
-9.0733

> <Gold.Chemscore.Internal_Hbond.Weighted>
0.0000

> <Gold.Chemscore.DEClash.Weighted>
2.0695

> <Gold.Chemscore.DEInternal.Weighted>
2.9273

> <Gold.Chemscore.Rot.Weighted>
6.9360

> <Gold.Chemscore.Internal.Correction.Weighted>
   9.000000E+99

> <Gold.Protein.RotatedTorsions>
[ 6907 6896 6895 6894 ] final  -52.52 input  -60.11 | X-H torsion
[ 7974 7965 7964 7962 ] final   66.26 input  175.53 | X-H torsion
[ 8008 7997 7996 7995 ] final  -96.39 input   59.86 | X-H torsion
[ 10167 10162 10161 10158 ] final    3.77 input  -65.29 | X-H torsion
[ 10718 10713 10712 10709 ] final   25.25 input   66.30 | X-H torsion
[ 10763 10752 10751 10750 ] final  152.30 input  -60.55 | X-H torsion
[ 11005 11000 10999 10996 ] final  -97.92 input  -57.11 | X-H torsion

> <Gold.Protein.ActiveResidues>
 VAL166  LYS551  ARG553  GLY616  TRP617  ASP618  TYR619  PRO620  LYS621  CYS622 
 ASP623  PHE694  ASN695  SER759  ASP760  ASP761  ALA762  ILE779  LEU786  VAL792 
 PHE793  MET794  SER795  GLU796  ALA797  LYS798  CYS799  TRP800  GLU811  SER814 

> <Gold.Protein.RotatedAtoms>
  150.8510  134.7835  159.7008 H   0  0  0  0  0  0  0  0  0  0  0  0  # atno 6907 bound_to 6896
  152.4575  134.5256  159.9805 H   0  0  0  0  0  0  0  0  0  0  0  0  # atno 6908 bound_to 6896
  151.5377  133.3400  159.2965 H   0  0  0  0  0  0  0  0  0  0  0  0  # atno 6909 bound_to 6896
  145.8287  139.3126  143.1000 H   0  0  0  0  0  0  0  0  0  0  0  0  # atno 7974 bound_to 7965
  154.7739  140.0472  157.1073 H   0  0  0  0  0  0  0  0  0  0  0  0  # atno 8008 bound_to 7997
  154.9787  140.3098  155.4936 H   0  0  0  0  0  0  0  0  0  0  0  0  # atno 8009 bound_to 7997
  156.2926  140.2240  156.4884 H   0  0  0  0  0  0  0  0  0  0  0  0  # atno 8010 bound_to 7997
  140.6569  143.7404  150.7669 H   0  0  0  0  0  0  0  0  0  0  0  0  # atno 10167 bound_to 10162
  157.1908  130.6845  149.6149 H   0  0  0  0  0  0  0  0  0  0  0  0  # atno 10718 bound_to 10713
  154.1178  135.2835  155.3215 H   0  0  0  0  0  0  0  0  0  0  0  0  # atno 10763 bound_to 10752
  154.6444  135.5391  153.7831 H   0  0  0  0  0  0  0  0  0  0  0  0  # atno 10764 bound_to 10752
  153.0323  135.6494  154.1334 H   0  0  0  0  0  0  0  0  0  0  0  0  # atno 10765 bound_to 10752
  141.1363  133.8206  157.0770 H   0  0  0  0  0  0  0  0  0  0  0  0  # atno 11005 bound_to 11000
  145.9595  140.8846  143.0218 LP  0  0  0  0  0  0  0  0  0  0  0  0  # atno 17320 bound_to 7965
  144.6741  140.1793  143.7407 LP  0  0  0  0  0  0  0  0  0  0  0  0  # atno 17321 bound_to 7965
  140.1066  143.4738  152.2394 LP  0  0  0  0  0  0  0  0  0  0  0  0  # atno 17342 bound_to 10162
  139.5793  144.7503  151.3681 LP  0  0  0  0  0  0  0  0  0  0  0  0  # atno 17343 bound_to 10162
  155.9712  130.4615  150.6112 LP  0  0  0  0  0  0  0  0  0  0  0  0  # atno 17370 bound_to 10713
  157.3862  131.0788  151.1434 LP  0  0  0  0  0  0  0  0  0  0  0  0  # atno 17371 bound_to 10713
  140.0475  134.9822  157.1076 LP  0  0  0  0  0  0  0  0  0  0  0  0  # atno 17394 bound_to 11000
  140.4040  134.2052  155.7163 LP  0  0  0  0  0  0  0  0  0  0  0  0  # atno 17395 bound_to 11000

$$$$
