AV-unprocessed.smi:2421|AV-procd|sdf|9556|dock7
  -GOLD-   2272013183D 1   1.00000     0.00000
 Structure written by MMmdl.
 44 46  0  0  0  0  0  0  0  0  1 V2000
  146.4529  132.6495  153.2439 C   0  0  0  0  0  0  0  0  0  0  0  0
  147.7020  132.2463  153.9726 C   0  0  0  0  0  0  0  0  0  0  0  0
  147.8641  130.9956  154.3778 N   0  0  0  0  0  0  0  0  0  0  0  0
  149.1103  130.9449  155.0263 O   0  0  0  0  0  0  0  0  0  0  0  0
  149.6760  132.1817  154.9968 C   0  0  0  0  0  0  0  0  0  0  0  0
  151.0093  132.3414  155.6443 C   0  0  0  0  0  0  0  0  0  0  0  0
  148.8314  133.0233  154.3372 C   0  0  0  0  0  0  0  0  0  0  0  0
  149.0210  134.4011  154.1060 N   0  0  0  0  0  0  0  0  0  0  0  0
  149.6159  135.2331  154.9767 C   0  0  0  0  0  0  0  0  0  0  0  0
  149.9827  134.8909  156.0996 O   0  0  0  0  0  0  0  0  0  0  0  0
  149.7750  136.4926  154.5314 N   0  0  0  0  0  0  0  0  0  0  0  0
  150.3808  137.6290  155.2288 C   0  0  1  0  0  0  0  0  0  0  0  0
  151.8538  137.7614  154.8232 C   0  0  0  0  0  0  0  0  0  0  0  0
  152.4821  139.0003  155.4769 C   0  0  0  0  0  0  0  0  0  0  0  0
  151.7395  140.1736  155.1502 O   0  0  0  0  0  0  0  0  0  0  0  0
  150.3538  140.1641  155.5136 C   0  0  0  0  0  0  0  0  0  0  0  0
  150.1619  140.2941  157.0354 C   0  0  0  0  0  0  0  0  0  0  0  0
  150.4494  141.7648  157.3514 C   0  0  0  0  0  0  0  0  0  0  0  0
  150.1622  142.5387  156.0570 C   0  0  0  0  0  0  0  0  0  0  0  0
  149.7693  141.4893  155.0100 C   0  0  0  0  0  0  0  0  0  0  0  0
  149.6528  138.9403  154.8851 C   0  0  0  0  0  0  0  0  0  0  0  0
  146.4861  133.6983  152.9483 H   0  0  0  0  0  0  0  0  0  0  0  0
  145.5716  132.5100  153.8703 H   0  0  0  0  0  0  0  0  0  0  0  0
  146.3183  132.0559  152.3396 H   0  0  0  0  0  0  0  0  0  0  0  0
  151.3906  133.3540  155.5098 H   0  0  0  0  0  0  0  0  0  0  0  0
  151.7325  131.6491  155.2135 H   0  0  0  0  0  0  0  0  0  0  0  0
  150.9449  132.1430  156.7140 H   0  0  0  0  0  0  0  0  0  0  0  0
  148.7330  134.7651  153.2095 H   0  0  0  0  0  0  0  0  0  0  0  0
  149.4087  136.6904  153.6113 H   0  0  0  0  0  0  0  0  0  0  0  0
  150.3419  137.4585  156.3061 H   0  0  0  0  0  0  0  0  0  0  0  0
  152.4093  136.8679  155.1103 H   0  0  0  0  0  0  0  0  0  0  0  0
  151.9364  137.8465  153.7386 H   0  0  0  0  0  0  0  0  0  0  0  0
  152.5540  138.8738  156.5566 H   0  0  0  0  0  0  0  0  0  0  0  0
  153.5030  139.1298  155.1171 H   0  0  0  0  0  0  0  0  0  0  0  0
  149.1223  140.0793  157.2871 H   0  0  0  0  0  0  0  0  0  0  0  0
  150.7719  139.6137  157.6277 H   0  0  0  0  0  0  0  0  0  0  0  0
  149.8464  142.1214  158.1871 H   0  0  0  0  0  0  0  0  0  0  0  0
  151.4973  141.8879  157.6278 H   0  0  0  0  0  0  0  0  0  0  0  0
  149.3724  143.2787  156.1912 H   0  0  0  0  0  0  0  0  0  0  0  0
  151.0589  143.0721  155.7387 H   0  0  0  0  0  0  0  0  0  0  0  0
  150.1133  141.7493  154.0081 H   0  0  0  0  0  0  0  0  0  0  0  0
  148.6810  141.4195  154.9701 H   0  0  0  0  0  0  0  0  0  0  0  0
  149.6313  139.0622  153.8009 H   0  0  0  0  0  0  0  0  0  0  0  0
  148.6111  138.8984  155.2056 H   0  0  0  0  0  0  0  0  0  0  0  0
  1  2  1  0  0  0  0
  1 22  1  0  0  0  0
  1 23  1  0  0  0  0
  1 24  1  0  0  0  0
  2  7  1  0  0  0  0
  2  3  2  0  0  0  0
  3  4  1  0  0  0  0
  4  5  1  0  0  0  0
  5  6  1  0  0  0  0
  5  7  2  0  0  0  0
  6 25  1  0  0  0  0
  6 26  1  0  0  0  0
  6 27  1  0  0  0  0
  7  8  1  0  0  0  0
  8  9  1  0  0  0  0
  8 28  1  0  0  0  0
  9 10  2  0  0  0  0
  9 11  1  0  0  0  0
 11 12  1  0  0  0  0
 11 29  1  0  0  0  0
 12 21  1  0  0  0  0
 12 13  1  0  0  0  0
 12 30  1  0  0  0  0
 13 14  1  0  0  0  0
 13 31  1  0  0  0  0
 13 32  1  0  0  0  0
 14 15  1  0  0  0  0
 14 33  1  0  0  0  0
 14 34  1  0  0  0  0
 15 16  1  0  0  0  0
 16 20  1  0  0  0  0
 16 17  1  0  0  0  0
 16 21  1  0  0  0  0
 17 18  1  0  0  0  0
 17 35  1  0  0  0  0
 17 36  1  0  0  0  0
 18 19  1  0  0  0  0
 18 37  1  0  0  0  0
 18 38  1  0  0  0  0
 19 20  1  0  0  0  0
 19 39  1  0  0  0  0
 19 40  1  0  0  0  0
 20 41  1  0  0  0  0
 20 42  1  0  0  0  0
 21 43  1  0  0  0  0
 21 44  1  0  0  0  0
M  END
> <s_m_source_file>
AV-unprocessed.smi

> <i_m_source_file_index>
2421

> <i_lp_mmshare_version>
43012

> <i_f3d_flags>
0

> <s_epik_input>
W0NIM11jMW5vYyhbQ0gzXSljMVtOSF1DKD1PKVtOSF1bQ0BASF0oW0NIMl0yKVtDSDJdW0NIMl1PQzIzW0NIMl1bQ0gyXVtDSDJdW0NIMl0z

> <s_epik_cmdline>
J2VwaWtfcHl0aG9uJywgJy1waCcsICc3LjAnLCAnLXRuJywgJzgnLCAnLW1hJywgJzIwMCcsICctbWV0YWxfYmluZGluZycsICctaW1hZScsICc8aW5maWxlLm1hZT4nLCAnLW9tYWUnLCAnPG91dGZpbGUubWFlPic=

> <r_lp_tautomer_probability>
1

> <r_epik_Ionization_Penalty>
3.59808e-05

> <r_epik_Ionization_Penalty_Charging>
0

> <r_epik_Ionization_Penalty_Neutral>
3.59808e-05

> <r_epik_State_Penalty>
-0

> <r_epik_Charging_Adjusted_Penalty>
0

> <i_epik_Tot_Q>
0

> <i_epik_Tot_abs_Q>
0

> <r_epik_Metal_State_Penalty>
-0

> <b_epik_Metal_Only>
0

> <s_lp_Force_Field>
OPLS_2005

> <r_lp_Energy>
43.4187

> <b_lp_Chiralities_Consistent>
1

> <s_lp_Variant>
AV-unprocessed.smi:2421-2

> <Gold.Version>
5.8.1

> <Gold.Id.Protein>
6NUR|6NUR_protein|mol2

> <Gold.PLP.Fitness>
38.3047

> <Gold.PLP.PLP>
-30.4583

> <Gold.PLP.part.hbond>
-3.0178

> <Gold.PLP.part.metal>
0.0000

> <Gold.PLP.part.buried>
0.1988

> <Gold.PLP.part.nonpolar>
-27.6747

> <Gold.PLP.part.repulsive>
0.1692

> <Gold.PLP.ligand.clash>
0.0000

> <Gold.PLP.ligand.torsion>
0.6084

> <Gold.PLP.Chemscore.Hbond>
2.8560

> <Gold.PLP.Chemscore.CHOScore>
0.0000

> <Gold.PLP.Chemscore.Metal>
0.0000

> <Gold.Chemscore.Hbonds>
donor molecule, donor type, donor heavy atom, donor atom, acceptor molecule, acceptor atom, score
      L1  H     8    28       P1  7948  0.93
      L1  H    11    29       P1  7948  1.00
      P1  H  7989  7998       L1    15  0.91

> <Gold.PLP.Chemscore.Internal.Correction>
0.4952

> <Gold.Rescore>
     Score         DG    S(hbond)    S(metal)    S(lipo)     H(rot)  DE(clash)    DE(int)     intcor
     14.87     -19.72       2.18        0.00      81.23       1.00       1.79       3.05       ----

> <Gold.Chemscore.Fitness>
14.8720

> <Gold.Chemscore.DG>
-19.7182

> <Gold.Chemscore.ZeroCoef>
-5.4800

> <Gold.Chemscore.Hbond>
2.1839

> <Gold.Chemscore.Metal>
0.0000

> <Gold.Chemscore.Lipo>
81.2296

> <Gold.Chemscore.Internal_Hbond>
0.0000

> <Gold.Chemscore.DEClash>
1.7926

> <Gold.Chemscore.DEInternal>
3.0536

> <Gold.Chemscore.Rot>
1.0000

> <Gold.Chemscore.Internal.Correction>
   9.000000E+99

> <Gold.Chemscore.Hbonds>
donor molecule, donor type, donor heavy atom, donor atom, acceptor molecule, acceptor atom, score
      L1  H     8    28       P1  7948  0.26
      L1  H    11    29       P1  7948  0.85
      P1  H  7989  7998       L1    15  0.26

> <Gold.Chemscore.Hbond.Weighted>
-7.2944

> <Gold.Chemscore.Metal.Weighted>
-0.0000

> <Gold.Chemscore.Lipo.Weighted>
-9.5039

> <Gold.Chemscore.Internal_Hbond.Weighted>
0.0000

> <Gold.Chemscore.DEClash.Weighted>
1.7926

> <Gold.Chemscore.DEInternal.Weighted>
3.0536

> <Gold.Chemscore.Rot.Weighted>
2.5600

> <Gold.Chemscore.Internal.Correction.Weighted>
   9.000000E+99

> <Gold.Protein.RotatedTorsions>
[ 6907 6896 6895 6894 ] final  -85.19 input  -60.11 | X-H torsion
[ 7974 7965 7964 7962 ] final  -23.52 input  175.53 | X-H torsion
[ 8008 7997 7996 7995 ] final  -48.35 input   59.86 | X-H torsion
[ 10167 10162 10161 10158 ] final -138.83 input  -65.29 | X-H torsion
[ 10718 10713 10712 10709 ] final   51.93 input   66.30 | X-H torsion
[ 10763 10752 10751 10750 ] final -156.50 input  -60.55 | X-H torsion
[ 11005 11000 10999 10996 ] final   30.87 input  -57.11 | X-H torsion

> <Gold.Protein.ActiveResidues>
 VAL166  LYS551  ARG553  GLY616  TRP617  ASP618  TYR619  PRO620  LYS621  CYS622 
 ASP623  PHE694  ASN695  SER759  ASP760  ASP761  ALA762  ILE779  LEU786  VAL792 
 PHE793  MET794  SER795  GLU796  ALA797  LYS798  CYS799  TRP800  GLU811  SER814 

> <Gold.Protein.RotatedAtoms>
  150.6871  134.3243  159.4799 H   0  0  0  0  0  0  0  0  0  0  0  0  # atno 6907 bound_to 6896
  152.1115  134.9269  160.0575 H   0  0  0  0  0  0  0  0  0  0  0  0  # atno 6908 bound_to 6896
  152.0509  133.3984  159.4414 H   0  0  0  0  0  0  0  0  0  0  0  0  # atno 6909 bound_to 6896
  146.1611  140.4627  142.8571 H   0  0  0  0  0  0  0  0  0  0  0  0  # atno 7974 bound_to 7965
  154.4028  140.1324  156.4324 H   0  0  0  0  0  0  0  0  0  0  0  0  # atno 8008 bound_to 7997
  155.7538  140.3487  155.5143 H   0  0  0  0  0  0  0  0  0  0  0  0  # atno 8009 bound_to 7997
  155.8924  140.1005  157.1399 H   0  0  0  0  0  0  0  0  0  0  0  0  # atno 8010 bound_to 7997
  139.8440  143.7285  152.2662 H   0  0  0  0  0  0  0  0  0  0  0  0  # atno 10167 bound_to 10162
  157.5027  130.8448  149.8336 H   0  0  0  0  0  0  0  0  0  0  0  0  # atno 10718 bound_to 10713
  154.7708  135.3144  154.8194 H   0  0  0  0  0  0  0  0  0  0  0  0  # atno 10763 bound_to 10752
  153.8930  135.6823  153.4763 H   0  0  0  0  0  0  0  0  0  0  0  0  # atno 10764 bound_to 10752
  153.1321  135.4775  154.9299 H   0  0  0  0  0  0  0  0  0  0  0  0  # atno 10765 bound_to 10752
  140.2899  134.2877  155.7779 H   0  0  0  0  0  0  0  0  0  0  0  0  # atno 11005 bound_to 11000
  144.8028  140.6245  143.6467 LP  0  0  0  0  0  0  0  0  0  0  0  0  # atno 17320 bound_to 7965
  145.4586  139.1515  143.3879 LP  0  0  0  0  0  0  0  0  0  0  0  0  # atno 17321 bound_to 7965
  139.7531  144.7528  151.0477 LP  0  0  0  0  0  0  0  0  0  0  0  0  # atno 17342 bound_to 10162
  140.7795  143.4837  150.9984 LP  0  0  0  0  0  0  0  0  0  0  0  0  # atno 17343 bound_to 10162
  156.0239  130.3786  150.1880 LP  0  0  0  0  0  0  0  0  0  0  0  0  # atno 17370 bound_to 10713
  157.0070  130.9939  151.3376 LP  0  0  0  0  0  0  0  0  0  0  0  0  # atno 17371 bound_to 10713
  141.2148  133.7578  156.9608 LP  0  0  0  0  0  0  0  0  0  0  0  0  # atno 17394 bound_to 11000
  140.1205  134.9420  157.2197 LP  0  0  0  0  0  0  0  0  0  0  0  0  # atno 17395 bound_to 11000

$$$$
