AV-unprocessed.smi:100|AV-procd|sdf|907|dock9
  -GOLD-   2262017403D 1   1.00000     0.00000
 Structure written by MMmdl.
 31 33  0  0  0  0  0  0  0  0  1 V2000
  140.0376  136.8542  155.9717 N   0  0  0  0  0  0  0  0  0  0  0  0
  140.7675  137.1134  154.8778 C   0  0  0  0  0  0  0  0  0  0  0  0
  140.7461  138.3692  154.3731 N   0  0  0  0  0  0  0  0  0  0  0  0
  141.4678  138.6526  153.2840 C   0  0  0  0  0  0  0  0  0  0  0  0
  142.2555  137.8442  152.5703 N   0  0  0  0  0  0  0  0  0  0  0  0
  142.2738  136.5768  153.0780 C   0  0  0  0  0  0  0  0  0  0  0  0
  141.5602  136.1345  154.2267 C   0  0  0  0  0  0  0  0  0  0  0  0
  141.8157  134.7892  154.4549 N   0  0  0  0  0  0  0  0  0  0  0  0
  142.6343  134.4587  153.4926 C   0  0  0  0  0  0  0  0  0  0  0  0
  142.9595  135.4707  152.6153 N   0  0  0  0  0  0  0  0  0  0  0  0
  143.8607  135.3844  151.4212 C   0  0  2  0  0  0  0  0  0  0  0  0
  143.6304  134.1718  150.7717 O   0  0  0  0  0  0  0  0  0  0  0  0
  144.8686  133.6796  150.2710 C   0  0  2  0  0  0  0  0  0  0  0  0
  144.7825  132.1748  149.9710 C   0  0  0  0  0  0  0  0  0  0  0  0
  143.5173  131.8614  149.4281 O   0  0  0  0  0  0  0  0  0  0  0  0
  145.8474  134.0480  151.3891 C   0  0  2  0  0  0  0  0  0  0  0  0
  145.7164  133.1836  152.3983 F   0  0  0  0  0  0  0  0  0  0  0  0
  145.3604  135.4352  151.7842 C   0  0  2  0  0  0  0  0  0  0  0  0
  145.6654  135.7571  153.1300 O   0  0  0  0  0  0  0  0  0  0  0  0
  140.0379  135.9250  156.3669 H   0  0  0  0  0  0  0  0  0  0  0  0
  139.4921  137.5882  156.3992 H   0  0  0  0  0  0  0  0  0  0  0  0
  141.4060  139.6721  152.9332 H   0  0  0  0  0  0  0  0  0  0  0  0
  143.0237  133.4560  153.3927 H   0  0  0  0  0  0  0  0  0  0  0  0
  143.5545  136.2156  150.7842 H   0  0  0  0  0  0  0  0  0  0  0  0
  145.1394  134.2358  149.3712 H   0  0  0  0  0  0  0  0  0  0  0  0
  145.5331  131.8961  149.2309 H   0  0  0  0  0  0  0  0  0  0  0  0
  144.9711  131.5797  150.8653 H   0  0  0  0  0  0  0  0  0  0  0  0
  142.8501  132.1819  150.0158 H   0  0  0  0  0  0  0  0  0  0  0  0
  146.8911  134.0307  151.0742 H   0  0  0  0  0  0  0  0  0  0  0  0
  145.8262  136.1779  151.1353 H   0  0  0  0  0  0  0  0  0  0  0  0
  145.2286  135.1377  153.6941 H   0  0  0  0  0  0  0  0  0  0  0  0
  1  2  1  0  0  0  0
  1 20  1  0  0  0  0
  1 21  1  0  0  0  0
  2  7  1  0  0  0  0
  2  3  2  0  0  0  0
  3  4  1  0  0  0  0
  4  5  2  0  0  0  0
  4 22  1  0  0  0  0
  5  6  1  0  0  0  0
  6 10  1  0  0  0  0
  6  7  2  0  0  0  0
  7  8  1  0  0  0  0
  8  9  2  0  0  0  0
  9 10  1  0  0  0  0
  9 23  1  0  0  0  0
 10 11  1  0  0  0  0
 11 18  1  0  0  0  0
 11 12  1  0  0  0  0
 11 24  1  0  0  0  0
 12 13  1  0  0  0  0
 13 14  1  0  0  0  0
 13 16  1  0  0  0  0
 13 25  1  0  0  0  0
 14 15  1  0  0  0  0
 14 26  1  0  0  0  0
 14 27  1  0  0  0  0
 15 28  1  0  0  0  0
 16 17  1  0  0  0  0
 16 18  1  0  0  0  0
 16 29  1  0  0  0  0
 18 19  1  0  0  0  0
 18 30  1  0  0  0  0
 19 31  1  0  0  0  0
M  END
> <s_m_source_file>
AV-unprocessed.smi

> <i_m_source_file_index>
100

> <i_lp_mmshare_version>
43012

> <i_f3d_flags>
0

> <s_epik_input>
bjFbY0hdbmMoW05IMl0pYyhjMTIpbltjSF1uMltDQEBIXTNPW0NAQEhdKFtDSDJdW09IXSlbQ0BIXShGKVtDQEhdM1tPSF0=

> <s_epik_cmdline>
J2VwaWtfcHl0aG9uJywgJy1waCcsICc3LjAnLCAnLXRuJywgJzgnLCAnLW1hJywgJzIwMCcsICctbWV0YWxfYmluZGluZycsICctaW1hZScsICc8aW5maWxlLm1hZT4nLCAnLW9tYWUnLCAnPG91dGZpbGUubWFlPic=

> <r_lp_tautomer_probability>
1

> <r_epik_Ionization_Penalty>
0.000750324

> <r_epik_Ionization_Penalty_Charging>
0

> <r_epik_Ionization_Penalty_Neutral>
0.000750324

> <r_epik_State_Penalty>
-0

> <r_epik_Charging_Adjusted_Penalty>
0

> <i_epik_Tot_Q>
0

> <i_epik_Tot_abs_Q>
0

> <r_epik_Metal_State_Penalty>
-0

> <b_epik_Metal_Only>
0

> <s_epik_Chemistry_Notes>
This compound contains an acetal/aminal-like group ( X-CH(R)-Y where X, Y are N, S, or O) that may be acid/base labile, releasing an aldehyde.

> <s_lp_Force_Field>
OPLS_2005

> <r_lp_Energy>
39.5

> <b_lp_Chiralities_Consistent>
1

> <s_lp_Variant>
AV-unprocessed.smi:100-11

> <Gold.Version>
5.8.1

> <Gold.Id.Protein>
6NUR|6NUR_protein|mol2

> <Gold.PLP.Fitness>
36.0360

> <Gold.PLP.PLP>
-22.0137

> <Gold.PLP.part.hbond>
-3.8091

> <Gold.PLP.part.metal>
0.0000

> <Gold.PLP.part.buried>
-0.8673

> <Gold.PLP.part.nonpolar>
-21.1817

> <Gold.PLP.part.repulsive>
3.5336

> <Gold.PLP.ligand.clash>
0.0000

> <Gold.PLP.ligand.torsion>
0.8132

> <Gold.PLP.Chemscore.Hbond>
2.7280

> <Gold.PLP.Chemscore.CHOScore>
2.4862

> <Gold.PLP.Chemscore.Metal>
0.0000

> <Gold.Chemscore.Hbonds>
donor molecule, donor type, donor heavy atom, donor atom, acceptor molecule, acceptor atom, score
      L1  H     1    20       P1 11000  1.00
      P1  H 10785 10796       L1    15  0.99
      P1  H 11000 11005       L1     8  0.74
      L1  C     4    22       P1 10160  0.98
      L1  C     4    22       P1 10175  0.58
      L1  C     9    23       P1 10957  0.93

> <Gold.PLP.Chemscore.Internal.Correction>
0.0062

> <Gold.Rescore>
     Score         DG    S(hbond)    S(metal)    S(lipo)     H(rot)  DE(clash)    DE(int)     intcor
      5.41      -8.83       2.39        0.00      30.23       3.19       2.46       0.96       ----

> <Gold.Chemscore.Fitness>
5.4088

> <Gold.Chemscore.DG>
-8.8317

> <Gold.Chemscore.ZeroCoef>
-5.4800

> <Gold.Chemscore.Hbond>
2.3898

> <Gold.Chemscore.Metal>
0.0000

> <Gold.Chemscore.Lipo>
30.2257

> <Gold.Chemscore.Internal_Hbond>
0.0000

> <Gold.Chemscore.DEClash>
2.4617

> <Gold.Chemscore.DEInternal>
0.9613

> <Gold.Chemscore.Rot>
3.1901

> <Gold.Chemscore.Internal.Correction>
   9.000000E+99

> <Gold.Chemscore.Hbonds>
donor molecule, donor type, donor heavy atom, donor atom, acceptor molecule, acceptor atom, score
      L1  H     1    20       P1 11000  0.26
      P1  H 10785 10796       L1    15  0.82
      P1  H 11000 11005       L1     8  0.70

> <Gold.Chemscore.Hbond.Weighted>
-7.9820

> <Gold.Chemscore.Metal.Weighted>
-0.0000

> <Gold.Chemscore.Lipo.Weighted>
-3.5364

> <Gold.Chemscore.Internal_Hbond.Weighted>
0.0000

> <Gold.Chemscore.DEClash.Weighted>
2.4617

> <Gold.Chemscore.DEInternal.Weighted>
0.9613

> <Gold.Chemscore.Rot.Weighted>
8.1667

> <Gold.Chemscore.Internal.Correction.Weighted>
   9.000000E+99

> <Gold.Protein.RotatedTorsions>
[ 6907 6896 6895 6894 ] final   -2.80 input  -60.11 | X-H torsion
[ 7974 7965 7964 7962 ] final  178.75 input  175.53 | X-H torsion
[ 8008 7997 7996 7995 ] final  133.20 input   59.86 | X-H torsion
[ 10167 10162 10161 10158 ] final  129.51 input  -65.29 | X-H torsion
[ 10718 10713 10712 10709 ] final -150.70 input   66.30 | X-H torsion
[ 10763 10752 10751 10750 ] final -168.59 input  -60.55 | X-H torsion
[ 11005 11000 10999 10996 ] final  -11.51 input  -57.11 | X-H torsion

> <Gold.Protein.ActiveResidues>
 VAL166  LYS551  ARG553  GLY616  TRP617  ASP618  TYR619  PRO620  LYS621  CYS622 
 ASP623  PHE694  ASN695  SER759  ASP760  ASP761  ALA762  ILE779  LEU786  VAL792 
 PHE793  MET794  SER795  GLU796  ALA797  LYS798  CYS799  TRP800  GLU811  SER814 

> <Gold.Protein.RotatedAtoms>
  151.5240  135.1067  159.9885 H   0  0  0  0  0  0  0  0  0  0  0  0  # atno 6907 bound_to 6896
  152.4608  133.7814  159.6863 H   0  0  0  0  0  0  0  0  0  0  0  0  # atno 6908 bound_to 6896
  150.8569  133.7637  159.3031 H   0  0  0  0  0  0  0  0  0  0  0  0  # atno 6909 bound_to 6896
  144.7152  140.0445  143.6436 H   0  0  0  0  0  0  0  0  0  0  0  0  # atno 7974 bound_to 7965
  156.2990  140.2527  156.3214 H   0  0  0  0  0  0  0  0  0  0  0  0  # atno 8008 bound_to 7997
  154.9232  140.0400  157.2028 H   0  0  0  0  0  0  0  0  0  0  0  0  # atno 8009 bound_to 7997
  154.8291  140.2872  155.5739 H   0  0  0  0  0  0  0  0  0  0  0  0  # atno 8010 bound_to 7997
  139.5474  144.6785  151.4430 H   0  0  0  0  0  0  0  0  0  0  0  0  # atno 10167 bound_to 10162
  156.4496  130.8161  151.2392 H   0  0  0  0  0  0  0  0  0  0  0  0  # atno 10718 bound_to 10713
  154.6613  135.2925  154.9863 H   0  0  0  0  0  0  0  0  0  0  0  0  # atno 10763 bound_to 10752
  154.0922  135.6589  153.4858 H   0  0  0  0  0  0  0  0  0  0  0  0  # atno 10764 bound_to 10752
  153.0431  135.5222  154.7565 H   0  0  0  0  0  0  0  0  0  0  0  0  # atno 10765 bound_to 10752
  140.7560  133.8553  155.9084 H   0  0  0  0  0  0  0  0  0  0  0  0  # atno 11005 bound_to 11000
  145.9996  139.3080  143.0936 LP  0  0  0  0  0  0  0  0  0  0  0  0  # atno 17320 bound_to 7965
  145.8809  140.9363  143.0602 LP  0  0  0  0  0  0  0  0  0  0  0  0  # atno 17321 bound_to 7965
  140.6727  143.8259  150.7019 LP  0  0  0  0  0  0  0  0  0  0  0  0  # atno 17342 bound_to 10162
  140.1688  143.4212  152.2015 LP  0  0  0  0  0  0  0  0  0  0  0  0  # atno 17343 bound_to 10162
  157.7503  131.0142  150.3455 LP  0  0  0  0  0  0  0  0  0  0  0  0  # atno 17370 bound_to 10713
  156.3830  130.3884  149.7087 LP  0  0  0  0  0  0  0  0  0  0  0  0  # atno 17371 bound_to 10713
  140.9707  134.1535  157.4578 LP  0  0  0  0  0  0  0  0  0  0  0  0  # atno 17394 bound_to 11000
  139.8779  134.9977  156.5863 LP  0  0  0  0  0  0  0  0  0  0  0  0  # atno 17395 bound_to 11000

$$$$
