AV-unprocessed.smi:102|AV-procd|sdf|956|dock9
  -GOLD-   2262017493D 1   1.00000     0.00000
 Structure written by MMmdl.
 44 45  0  0  0  0  0  0  0  0  1 V2000
  150.9002  141.3971  157.5386 C   0  0  0  0  0  0  0  0  0  0  0  0
  150.8577  139.8827  157.6923 C   0  0  0  0  0  0  0  0  0  0  0  0
  149.8992  139.3173  158.2198 O   0  0  0  0  0  0  0  0  0  0  0  0
  151.9562  139.2854  157.1952 O   0  0  0  0  0  0  0  0  0  0  0  0
  151.9904  137.8760  157.0164 C   0  0  0  0  0  0  0  0  0  0  0  0
  151.1795  137.4532  155.7764 C   0  0  1  0  0  0  0  0  0  0  0  0
  151.3183  136.0565  155.5520 O   0  0  0  0  0  0  0  0  0  0  0  0
  150.3346  135.3863  156.2683 C   0  0  2  0  0  0  0  0  0  0  0  0
  150.0454  134.0710  155.5926 N   0  0  0  0  0  0  0  0  0  0  0  0
  149.5382  134.0259  154.3013 C   0  0  0  0  0  0  0  0  0  0  0  0
  149.2503  132.8658  153.6654 C   0  0  0  0  0  0  0  0  0  0  0  0
  148.7607  132.8985  152.4144 F   0  0  0  0  0  0  0  0  0  0  0  0
  149.4569  131.5816  154.3294 C   0  0  0  0  0  0  0  0  0  0  0  0
  149.2309  130.4790  153.8349 O   0  0  0  0  0  0  0  0  0  0  0  0
  149.9467  131.6787  155.6358 N   0  0  0  0  0  0  0  0  0  0  0  0
  150.2429  132.8681  156.3045 C   0  0  0  0  0  0  0  0  0  0  0  0
  150.6476  132.8373  157.4659 O   0  0  0  0  0  0  0  0  0  0  0  0
  149.0947  136.2779  156.2617 C   0  0  1  0  0  0  0  0  0  0  0  0
  148.4444  136.2241  157.5237 O   0  0  0  0  0  0  0  0  0  0  0  0
  149.1220  136.5264  158.6424 C   0  0  0  0  0  0  0  0  0  0  0  0
  148.1990  136.8666  159.8046 C   0  0  0  0  0  0  0  0  0  0  0  0
  150.3467  136.5371  158.7675 O   0  0  0  0  0  0  0  0  0  0  0  0
  149.6690  137.6643  155.9801 C   0  0  2  0  0  0  0  0  0  0  0  0
  149.0521  138.1945  154.8137 O   0  0  0  0  0  0  0  0  0  0  0  0
  149.3519  139.4355  154.3920 C   0  0  0  0  0  0  0  0  0  0  0  0
  148.1908  140.0957  153.6609 C   0  0  0  0  0  0  0  0  0  0  0  0
  150.4277  140.0137  154.5466 O   0  0  0  0  0  0  0  0  0  0  0  0
  150.0926  130.8157  156.1392 H   0  0  0  0  0  0  0  0  0  0  0  0
  150.7906  141.6732  156.4900 H   0  0  0  0  0  0  0  0  0  0  0  0
  151.8489  141.7906  157.9041 H   0  0  0  0  0  0  0  0  0  0  0  0
  150.0930  141.8620  158.1051 H   0  0  0  0  0  0  0  0  0  0  0  0
  153.0128  137.4973  156.9788 H   0  0  0  0  0  0  0  0  0  0  0  0
  151.5346  137.4352  157.9031 H   0  0  0  0  0  0  0  0  0  0  0  0
  151.5425  138.0026  154.9068 H   0  0  0  0  0  0  0  0  0  0  0  0
  150.7270  135.1739  157.2655 H   0  0  0  0  0  0  0  0  0  0  0  0
  149.3535  134.9501  153.7728 H   0  0  0  0  0  0  0  0  0  0  0  0
  148.4387  135.9567  155.4501 H   0  0  0  0  0  0  0  0  0  0  0  0
  147.5266  137.6794  159.5295 H   0  0  0  0  0  0  0  0  0  0  0  0
  148.7772  137.1761  160.6753 H   0  0  0  0  0  0  0  0  0  0  0  0
  147.6001  135.9979  160.0784 H   0  0  0  0  0  0  0  0  0  0  0  0
  149.4860  138.3238  156.8305 H   0  0  0  0  0  0  0  0  0  0  0  0
  147.3047  140.1163  154.2955 H   0  0  0  0  0  0  0  0  0  0  0  0
  147.9539  139.5431  152.7517 H   0  0  0  0  0  0  0  0  0  0  0  0
  148.4435  141.1201  153.3867 H   0  0  0  0  0  0  0  0  0  0  0  0
  1  2  1  0  0  0  0
  1 29  1  0  0  0  0
  1 30  1  0  0  0  0
  1 31  1  0  0  0  0
  2  3  2  0  0  0  0
  2  4  1  0  0  0  0
  4  5  1  0  0  0  0
  5  6  1  0  0  0  0
  5 32  1  0  0  0  0
  5 33  1  0  0  0  0
  6 23  1  0  0  0  0
  6  7  1  0  0  0  0
  6 34  1  0  0  0  0
  7  8  1  0  0  0  0
  8  9  1  0  0  0  0
  8 18  1  0  0  0  0
  8 35  1  0  0  0  0
  9 16  1  0  0  0  0
  9 10  1  0  0  0  0
 10 11  2  0  0  0  0
 10 36  1  0  0  0  0
 11 12  1  0  0  0  0
 11 13  1  0  0  0  0
 13 14  2  0  0  0  0
 13 15  1  0  0  0  0
 15 28  1  0  0  0  0
 15 16  1  0  0  0  0
 16 17  2  0  0  0  0
 18 19  1  0  0  0  0
 18 23  1  0  0  0  0
 18 37  1  0  0  0  0
 19 20  1  0  0  0  0
 20 21  1  0  0  0  0
 20 22  2  0  0  0  0
 21 38  1  0  0  0  0
 21 39  1  0  0  0  0
 21 40  1  0  0  0  0
 23 24  1  0  0  0  0
 23 41  1  0  0  0  0
 24 25  1  0  0  0  0
 25 26  1  0  0  0  0
 25 27  2  0  0  0  0
 26 42  1  0  0  0  0
 26 43  1  0  0  0  0
 26 44  1  0  0  0  0
M  END
> <s_m_source_file>
AV-unprocessed.smi

> <i_m_source_file_index>
102

> <i_lp_mmshare_version>
43012

> <i_f3d_flags>
0

> <s_epik_input>
W0NIM11DKD1PKU9bQ0gyXVtDQEBIXTFPW0NASF0oW0NAQEhdKE9DKD1PKVtDSDNdKVtDQEhdMU9DKD1PKVtDSDNdKW4yW2NIXWMoRiljKD1PKVtuSF1jMj1P

> <s_epik_cmdline>
J2VwaWtfcHl0aG9uJywgJy1waCcsICc3LjAnLCAnLXRuJywgJzgnLCAnLW1hJywgJzIwMCcsICctbWV0YWxfYmluZGluZycsICctaW1hZScsICc8aW5maWxlLm1hZT4nLCAnLW9tYWUnLCAnPG91dGZpbGUubWFlPic=

> <r_lp_tautomer_probability>
0.999537

> <r_epik_Ionization_Penalty>
0.058267

> <r_epik_Ionization_Penalty_Charging>
0.058267

> <r_epik_Ionization_Penalty_Neutral>
6.57791e-16

> <r_epik_State_Penalty>
0.0503774

> <r_epik_Charging_Adjusted_Penalty>
0.108644

> <i_epik_Tot_Q>
0

> <i_epik_Tot_abs_Q>
0

> <r_epik_Metal_State_Penalty>
2.6644

> <b_epik_Metal_Only>
0

> <s_epik_Chemistry_Notes>
This compound has an ester and may undergo hydrolysis at high or low pH. This compound contains an acetal/aminal-like group ( X-CH(R)-Y where X, Y are N, S, or O) that may be acid/base labile, releasing an aldehyde.

> <s_lp_Force_Field>
OPLS_2005

> <r_lp_Energy>
12.7651

> <b_lp_Chiralities_Consistent>
1

> <s_lp_Variant>
AV-unprocessed.smi:102-12

> <Gold.Version>
5.8.1

> <Gold.Id.Protein>
6NUR|6NUR_protein|mol2

> <Gold.PLP.Fitness>
46.9767

> <Gold.PLP.PLP>
-33.7296

> <Gold.PLP.part.hbond>
-4.0248

> <Gold.PLP.part.metal>
0.0000

> <Gold.PLP.part.buried>
-3.5908

> <Gold.PLP.part.nonpolar>
-26.9907

> <Gold.PLP.part.repulsive>
0.3982

> <Gold.PLP.ligand.clash>
0.0098

> <Gold.PLP.ligand.torsion>
0.9032

> <Gold.PLP.Chemscore.Hbond>
3.9760

> <Gold.PLP.Chemscore.CHOScore>
1.0000

> <Gold.PLP.Chemscore.Metal>
0.0000

> <Gold.Chemscore.Hbonds>
donor molecule, donor type, donor heavy atom, donor atom, acceptor molecule, acceptor atom, score
      P1  H  6896  6908       L1    17  1.00
      P1  H  6896  6909       L1    22  1.00
      P1  H  7989  7998       L1    27  1.00
      P1  H 10752 10764       L1     7  1.00
      L1  C    10    36       P1  7948  0.84

> <Gold.PLP.Chemscore.Internal.Correction>
0.1352

> <Gold.Rescore>
     Score         DG    S(hbond)    S(metal)    S(lipo)     H(rot)  DE(clash)    DE(int)     intcor
      3.79      -9.68       2.68        0.00      48.22       4.05       0.39       5.51       ----

> <Gold.Chemscore.Fitness>
3.7854

> <Gold.Chemscore.DG>
-9.6840

> <Gold.Chemscore.ZeroCoef>
-5.4800

> <Gold.Chemscore.Hbond>
2.6751

> <Gold.Chemscore.Metal>
0.0000

> <Gold.Chemscore.Lipo>
48.2237

> <Gold.Chemscore.Internal_Hbond>
0.0000

> <Gold.Chemscore.DEClash>
0.3926

> <Gold.Chemscore.DEInternal>
5.5060

> <Gold.Chemscore.Rot>
4.0520

> <Gold.Chemscore.Internal.Correction>
   9.000000E+99

> <Gold.Chemscore.Hbonds>
donor molecule, donor type, donor heavy atom, donor atom, acceptor molecule, acceptor atom, score
      P1  H  6896  6908       L1    17  0.96
      P1  H  6896  6909       L1    22  0.80
      P1  H  7989  7998       L1    27  1.00
      P1  H 10752 10764       L1     7  0.81

> <Gold.Chemscore.Hbond.Weighted>
-8.9350

> <Gold.Chemscore.Metal.Weighted>
-0.0000

> <Gold.Chemscore.Lipo.Weighted>
-5.6422

> <Gold.Chemscore.Internal_Hbond.Weighted>
0.0000

> <Gold.Chemscore.DEClash.Weighted>
0.3926

> <Gold.Chemscore.DEInternal.Weighted>
5.5060

> <Gold.Chemscore.Rot.Weighted>
10.3732

> <Gold.Chemscore.Internal.Correction.Weighted>
   9.000000E+99

> <Gold.Protein.RotatedTorsions>
[ 6907 6896 6895 6894 ] final   81.67 input  -60.11 | X-H torsion
[ 7974 7965 7964 7962 ] final  -91.95 input  175.53 | X-H torsion
[ 8008 7997 7996 7995 ] final   83.93 input   59.86 | X-H torsion
[ 10167 10162 10161 10158 ] final -132.94 input  -65.29 | X-H torsion
[ 10718 10713 10712 10709 ] final -120.70 input   66.30 | X-H torsion
[ 10763 10752 10751 10750 ] final  -66.86 input  -60.55 | X-H torsion
[ 11005 11000 10999 10996 ] final   63.41 input  -57.11 | X-H torsion

> <Gold.Protein.ActiveResidues>
 VAL166  LYS551  ARG553  GLY616  TRP617  ASP618  TYR619  PRO620  LYS621  CYS622 
 ASP623  PHE694  ASN695  SER759  ASP760  ASP761  ALA762  ILE779  LEU786  VAL792 
 PHE793  MET794  SER795  GLU796  ALA797  LYS798  CYS799  TRP800  GLU811  SER814 

> <Gold.Protein.RotatedAtoms>
  152.5275  134.3168  159.9133 H   0  0  0  0  0  0  0  0  0  0  0  0  # atno 6907 bound_to 6896
  151.3118  133.4071  159.2655 H   0  0  0  0  0  0  0  0  0  0  0  0  # atno 6908 bound_to 6896
  151.0032  134.9355  159.8023 H   0  0  0  0  0  0  0  0  0  0  0  0  # atno 6909 bound_to 6896
  145.4063  140.9541  143.2259 H   0  0  0  0  0  0  0  0  0  0  0  0  # atno 7974 bound_to 7965
  155.9305  140.3415  155.6245 H   0  0  0  0  0  0  0  0  0  0  0  0  # atno 8008 bound_to 7997
  155.7164  140.0778  157.2368 H   0  0  0  0  0  0  0  0  0  0  0  0  # atno 8009 bound_to 7997
  154.4084  140.1613  156.2340 H   0  0  0  0  0  0  0  0  0  0  0  0  # atno 8010 bound_to 7997
  139.9033  143.6581  152.2590 H   0  0  0  0  0  0  0  0  0  0  0  0  # atno 10167 bound_to 10162
  156.1279  130.6373  150.9573 H   0  0  0  0  0  0  0  0  0  0  0  0  # atno 10718 bound_to 10713
  154.3661  135.6105  153.5715 H   0  0  0  0  0  0  0  0  0  0  0  0  # atno 10763 bound_to 10752
  152.9792  135.5826  154.4577 H   0  0  0  0  0  0  0  0  0  0  0  0  # atno 10764 bound_to 10752
  154.4323  135.2848  155.1882 H   0  0  0  0  0  0  0  0  0  0  0  0  # atno 10765 bound_to 10752
  140.0027  134.6418  155.9905 H   0  0  0  0  0  0  0  0  0  0  0  0  # atno 11005 bound_to 11000
  144.8339  139.5582  143.6931 LP  0  0  0  0  0  0  0  0  0  0  0  0  # atno 17320 bound_to 7965
  146.2727  139.6675  142.9285 LP  0  0  0  0  0  0  0  0  0  0  0  0  # atno 17321 bound_to 7965
  139.7006  144.7635  151.1280 LP  0  0  0  0  0  0  0  0  0  0  0  0  # atno 17342 bound_to 10162
  140.7702  143.5463  150.9255 LP  0  0  0  0  0  0  0  0  0  0  0  0  # atno 17343 bound_to 10162
  157.6459  131.0904  150.8154 LP  0  0  0  0  0  0  0  0  0  0  0  0  # atno 17370 bound_to 10713
  156.8242  130.4994  149.5339 LP  0  0  0  0  0  0  0  0  0  0  0  0  # atno 17371 bound_to 10713
  141.1653  133.6537  156.4460 LP  0  0  0  0  0  0  0  0  0  0  0  0  # atno 17394 bound_to 11000
  140.4699  134.6763  157.5124 LP  0  0  0  0  0  0  0  0  0  0  0  0  # atno 17395 bound_to 11000

$$$$
