AV-unprocessed.smi:3232|AV-procd|sdf|12342|dock4
  -GOLD-   2272018203D 1   1.00000     0.00000
 Structure written by MMmdl.
 40 41  0  0  0  0  0  0  0  0  2 V2000
  146.4675  133.5456  150.7898 C   0  0  0  0  0  0  0  0  0  0  0  0
  146.1334  133.8902  152.2474 C   0  0  0  0  0  0  0  0  0  0  0  0
  146.3838  135.3186  152.5576 N   0  3  1  0  0  0  0  0  0  0  0  0
  145.6590  136.2765  151.6967 C   0  0  0  0  0  0  0  0  0  0  0  0
  145.5996  137.5653  152.5060 C   0  0  0  0  0  0  0  0  0  0  0  0
  145.4132  137.0634  153.9332 C   0  0  0  0  0  0  0  0  0  0  0  0
  146.1186  135.6922  153.9700 C   0  0  2  0  0  0  0  0  0  0  0  0
  147.4314  135.6912  154.7815 C   0  0  0  0  0  0  0  0  0  0  0  0
  148.4058  136.6376  154.2517 N   0  0  0  0  0  0  0  0  0  0  0  0
  149.2195  137.4037  154.9949 C   0  0  0  0  0  0  0  0  0  0  0  0
  149.2619  137.3407  156.2242 O   0  0  0  0  0  0  0  0  0  0  0  0
  150.0931  138.4049  154.2236 C   0  0  2  0  0  0  0  0  0  0  0  0
  151.5859  138.3092  154.5889 C   0  0  0  0  0  0  0  0  0  0  0  0
  149.5922  139.7580  154.4234 N   0  0  0  0  0  0  0  0  0  0  0  0
  148.3980  140.2977  154.1625 C   0  0  0  0  0  0  0  0  0  0  0  0
  148.3123  141.5847  154.4671 N   0  0  0  0  0  0  0  0  0  0  0  0
  149.5730  141.7884  154.9522 C   0  0  0  0  0  0  0  0  0  0  0  0
  150.3812  140.7283  154.9434 N   0  0  0  0  0  0  0  0  0  0  0  0
  146.3360  132.4790  150.6066 H   0  0  0  0  0  0  0  0  0  0  0  0
  147.5014  133.7965  150.5520 H   0  0  0  0  0  0  0  0  0  0  0  0
  145.8220  134.0783  150.0914 H   0  0  0  0  0  0  0  0  0  0  0  0
  145.0970  133.6339  152.4714 H   0  0  0  0  0  0  0  0  0  0  0  0
  146.7553  133.2767  152.9007 H   0  0  0  0  0  0  0  0  0  0  0  0
  146.1546  136.4133  150.7353 H   0  0  0  0  0  0  0  0  0  0  0  0
  144.6463  135.9156  151.5087 H   0  0  0  0  0  0  0  0  0  0  0  0
  146.5462  138.1008  152.4218 H   0  0  0  0  0  0  0  0  0  0  0  0
  144.8019  138.2347  152.1822 H   0  0  0  0  0  0  0  0  0  0  0  0
  145.7911  137.7742  154.6686 H   0  0  0  0  0  0  0  0  0  0  0  0
  144.3494  136.9288  154.1340 H   0  0  0  0  0  0  0  0  0  0  0  0
  145.4253  134.9709  154.4066 H   0  0  0  0  0  0  0  0  0  0  0  0
  147.2336  135.9229  155.8296 H   0  0  0  0  0  0  0  0  0  0  0  0
  147.8803  134.6976  154.7651 H   0  0  0  0  0  0  0  0  0  0  0  0
  148.4377  136.7494  153.2481 H   0  0  0  0  0  0  0  0  0  0  0  0
  149.9995  138.1620  153.1633 H   0  0  0  0  0  0  0  0  0  0  0  0
  151.9692  137.3012  154.4263 H   0  0  0  0  0  0  0  0  0  0  0  0
  151.7659  138.5704  155.6325 H   0  0  0  0  0  0  0  0  0  0  0  0
  152.1791  138.9864  153.9737 H   0  0  0  0  0  0  0  0  0  0  0  0
  147.5779  139.7389  153.7354 H   0  0  0  0  0  0  0  0  0  0  0  0
  149.9070  142.7481  155.3183 H   0  0  0  0  0  0  0  0  0  0  0  0
  147.3674  135.4921  152.4080 H   0  0  0  0  0  0  0  0  0  0  0  0
  1  2  1  0  0  0  0
  1 19  1  0  0  0  0
  1 20  1  0  0  0  0
  1 21  1  0  0  0  0
  2  3  1  0  0  0  0
  2 22  1  0  0  0  0
  2 23  1  0  0  0  0
  3  7  1  0  0  0  0
  3  4  1  0  0  0  0
  3 40  1  0  0  0  0
  4  5  1  0  0  0  0
  4 24  1  0  0  0  0
  4 25  1  0  0  0  0
  5  6  1  0  0  0  0
  5 26  1  0  0  0  0
  5 27  1  0  0  0  0
  6  7  1  0  0  0  0
  6 28  1  0  0  0  0
  6 29  1  0  0  0  0
  7  8  1  0  0  0  0
  7 30  1  0  0  0  0
  8  9  1  0  0  0  0
  8 31  1  0  0  0  0
  8 32  1  0  0  0  0
  9 10  1  0  0  0  0
  9 33  1  0  0  0  0
 10 11  2  0  0  0  0
 10 12  1  0  0  0  0
 12 13  1  0  0  0  0
 12 14  1  0  0  0  0
 12 34  1  0  0  0  0
 13 35  1  0  0  0  0
 13 36  1  0  0  0  0
 13 37  1  0  0  0  0
 14 18  1  0  0  0  0
 14 15  1  0  0  0  0
 15 16  2  0  0  0  0
 15 38  1  0  0  0  0
 16 17  1  0  0  0  0
 17 18  2  0  0  0  0
 17 39  1  0  0  0  0
M  CHG  1   3   1
M  END
> <s_m_source_file>
AV-unprocessed.smi

> <i_m_source_file_index>
3232

> <i_lp_mmshare_version>
43012

> <i_f3d_flags>
0

> <s_epik_input>
W0NIM11bQ0gyXU4xW0NIMl1bQ0gyXVtDSDJdW0NASF0xW0NIMl1bTkhdQyg9TylbQ0BIXShbQ0gzXSluMltjSF1uW2NIXW4y

> <s_epik_cmdline>
J2VwaWtfcHl0aG9uJywgJy1waCcsICc3LjAnLCAnLXRuJywgJzgnLCAnLW1hJywgJzIwMCcsICctbWV0YWxfYmluZGluZycsICctaW1hZScsICc8aW5maWxlLm1hZT4nLCAnLW9tYWUnLCAnPG91dGZpbGUubWFlPic=

> <r_lp_tautomer_probability>
1

> <r_epik_Ionization_Penalty>
0.00177695

> <r_epik_Ionization_Penalty_Charging>
0.00176881

> <r_epik_Ionization_Penalty_Neutral>
8.13528e-06

> <r_epik_State_Penalty>
0.00119827

> <r_epik_Charging_Adjusted_Penalty>
0.00296709

> <i_epik_Tot_Q>
1

> <i_epik_Tot_abs_Q>
1

> <r_epik_Metal_State_Penalty>
-0

> <b_epik_Metal_Only>
0

> <s_lp_Force_Field>
OPLS_2005

> <r_lp_Energy>
32.398

> <b_lp_Chiralities_Consistent>
1

> <s_lp_Variant>
AV-unprocessed.smi:3232-4

> <Gold.Version>
5.8.1

> <Gold.Id.Protein>
6NUR|6NUR_protein|mol2

> <Gold.PLP.Fitness>
40.8079

> <Gold.PLP.PLP>
-26.7065

> <Gold.PLP.part.hbond>
-2.7939

> <Gold.PLP.part.metal>
0.0000

> <Gold.PLP.part.buried>
-2.5982

> <Gold.PLP.part.nonpolar>
-21.5982

> <Gold.PLP.part.repulsive>
0.2565

> <Gold.PLP.ligand.clash>
0.0000

> <Gold.PLP.ligand.torsion>
0.3668

> <Gold.PLP.Chemscore.Hbond>
3.9120

> <Gold.PLP.Chemscore.CHOScore>
1.0000

> <Gold.PLP.Chemscore.Metal>
0.0000

> <Gold.Chemscore.Hbonds>
donor molecule, donor type, donor heavy atom, donor atom, acceptor molecule, acceptor atom, score
      L1  H     3    40       P1  7948  2.00
      L1  H     9    33       P1  7948  0.96
      P1  H  7989  7998       L1    18  0.82
      L1  C    17    39       P1  8028  1.00

> <Gold.PLP.Chemscore.Internal.Correction>
0.0989

> <Gold.Rescore>
     Score         DG    S(hbond)    S(metal)    S(lipo)     H(rot)  DE(clash)    DE(int)     intcor
     12.44     -12.82       2.67        0.00      41.06       2.49       0.01       0.37       ----

> <Gold.Chemscore.Fitness>
12.4383

> <Gold.Chemscore.DG>
-12.8165

> <Gold.Chemscore.ZeroCoef>
-5.4800

> <Gold.Chemscore.Hbond>
2.6655

> <Gold.Chemscore.Metal>
0.0000

> <Gold.Chemscore.Lipo>
41.0553

> <Gold.Chemscore.Internal_Hbond>
0.0000

> <Gold.Chemscore.DEClash>
0.0073

> <Gold.Chemscore.DEInternal>
0.3709

> <Gold.Chemscore.Rot>
2.4882

> <Gold.Chemscore.Internal.Correction>
   9.000000E+99

> <Gold.Chemscore.Hbonds>
donor molecule, donor type, donor heavy atom, donor atom, acceptor molecule, acceptor atom, score
      L1  H     3    40       P1  7948  1.00
      L1  H     9    33       P1  7948  0.89
      P1  H  7989  7998       L1    18  0.13

> <Gold.Chemscore.Hbond.Weighted>
-8.9028

> <Gold.Chemscore.Metal.Weighted>
-0.0000

> <Gold.Chemscore.Lipo.Weighted>
-4.8035

> <Gold.Chemscore.Internal_Hbond.Weighted>
0.0000

> <Gold.Chemscore.DEClash.Weighted>
0.0073

> <Gold.Chemscore.DEInternal.Weighted>
0.3709

> <Gold.Chemscore.Rot.Weighted>
6.3697

> <Gold.Chemscore.Internal.Correction.Weighted>
   9.000000E+99

> <Gold.Protein.RotatedTorsions>
[ 6907 6896 6895 6894 ] final   57.05 input  -60.11 | X-H torsion
[ 7974 7965 7964 7962 ] final    5.92 input  175.53 | X-H torsion
[ 8008 7997 7996 7995 ] final -125.88 input   59.86 | X-H torsion
[ 10167 10162 10161 10158 ] final   68.86 input  -65.29 | X-H torsion
[ 10718 10713 10712 10709 ] final -155.67 input   66.30 | X-H torsion
[ 10763 10752 10751 10750 ] final   59.22 input  -60.55 | X-H torsion
[ 11005 11000 10999 10996 ] final -178.11 input  -57.11 | X-H torsion

> <Gold.Protein.ActiveResidues>
 VAL166  LYS551  ARG553  GLY616  TRP617  ASP618  TYR619  PRO620  LYS621  CYS622 
 ASP623  PHE694  ASN695  SER759  ASP760  ASP761  ALA762  ILE779  LEU786  VAL792 
 PHE793  MET794  SER795  GLU796  ALA797  LYS798  CYS799  TRP800  GLU811  SER814 

> <Gold.Protein.RotatedAtoms>
  152.3694  134.6756  160.0180 H   0  0  0  0  0  0  0  0  0  0  0  0  # atno 6907 bound_to 6896
  151.7053  133.3306  159.3285 H   0  0  0  0  0  0  0  0  0  0  0  0  # atno 6908 bound_to 6896
  150.7662  134.6514  159.6335 H   0  0  0  0  0  0  0  0  0  0  0  0  # atno 6909 bound_to 6896
  146.2438  140.0312  142.8389 H   0  0  0  0  0  0  0  0  0  0  0  0  # atno 7974 bound_to 7965
  155.2205  140.0422  157.2947 H   0  0  0  0  0  0  0  0  0  0  0  0  # atno 8008 bound_to 7997
  154.5953  140.2437  155.7836 H   0  0  0  0  0  0  0  0  0  0  0  0  # atno 8009 bound_to 7997
  156.2286  140.2946  156.0139 H   0  0  0  0  0  0  0  0  0  0  0  0  # atno 8010 bound_to 7997
  140.0740  144.5128  150.7207 H   0  0  0  0  0  0  0  0  0  0  0  0  # atno 10167 bound_to 10162
  156.5161  130.8457  151.2664 H   0  0  0  0  0  0  0  0  0  0  0  0  # atno 10718 bound_to 10713
  152.9889  135.5579  154.5678 H   0  0  0  0  0  0  0  0  0  0  0  0  # atno 10763 bound_to 10752
  154.5084  135.2801  155.1365 H   0  0  0  0  0  0  0  0  0  0  0  0  # atno 10764 bound_to 10752
  154.2766  135.6353  153.5384 H   0  0  0  0  0  0  0  0  0  0  0  0  # atno 10765 bound_to 10752
  140.4334  134.6498  157.4723 H   0  0  0  0  0  0  0  0  0  0  0  0  # atno 11005 bound_to 11000
  145.1153  140.9430  143.4632 LP  0  0  0  0  0  0  0  0  0  0  0  0  # atno 17320 bound_to 7965
  145.0535  139.3162  143.5916 LP  0  0  0  0  0  0  0  0  0  0  0  0  # atno 17321 bound_to 7965
  140.7111  143.2506  151.4578 LP  0  0  0  0  0  0  0  0  0  0  0  0  # atno 17342 bound_to 10162
  139.5819  144.1691  152.1979 LP  0  0  0  0  0  0  0  0  0  0  0  0  # atno 17343 bound_to 10162
  157.7443  130.9933  150.2667 LP  0  0  0  0  0  0  0  0  0  0  0  0  # atno 17370 bound_to 10713
  156.3194  130.3783  149.7589 LP  0  0  0  0  0  0  0  0  0  0  0  0  # atno 17371 bound_to 10713
  140.0119  134.6678  155.9368 LP  0  0  0  0  0  0  0  0  0  0  0  0  # atno 17394 bound_to 11000
  141.1736  133.6538  156.4743 LP  0  0  0  0  0  0  0  0  0  0  0  0  # atno 17395 bound_to 11000

$$$$
