AV-unprocessed.smi:458|AV-procd|sdf|2622|dock10
  -GOLD-   2262023 23D 1   1.00000     0.00000
 Structure written by MMmdl.
 37 39  0  0  0  0  0  0  0  0  2 V2000
  152.3355  137.4713  153.6455 O   0  0  0  0  0  0  0  0  0  0  0  0
  152.0603  138.4799  154.5922 C   0  0  0  0  0  0  0  0  0  0  0  0
  150.7439  139.1410  154.3473 C   0  0  0  0  0  0  0  0  0  0  0  0
  149.7970  138.7174  153.4639 N   0  3  0  0  0  0  0  0  0  0  0  0
  148.7089  139.5896  153.4821 C   0  0  0  0  0  0  0  0  0  0  0  0
  147.5207  139.5751  152.7582 C   0  0  0  0  0  0  0  0  0  0  0  0
  146.6138  140.6252  153.0095 C   0  0  0  0  0  0  0  0  0  0  0  0
  146.9033  141.6353  153.9491 C   0  0  0  0  0  0  0  0  0  0  0  0
  148.1097  141.6371  154.6792 C   0  0  0  0  0  0  0  0  0  0  0  0
  149.0032  140.5956  154.4255 C   0  0  0  0  0  0  0  0  0  0  0  0
  150.2703  140.2788  154.9342 N   0  0  0  0  0  0  0  0  0  0  0  0
  150.8921  141.1536  155.9432 C   0  0  0  0  0  0  0  0  0  0  0  0
  151.4424  140.3651  157.1486 C   0  0  2  0  0  0  0  0  0  0  0  0
  150.5434  139.3139  157.4353 O   0  0  0  0  0  0  0  0  0  0  0  0
  151.6964  141.2562  158.3566 C   0  0  0  0  0  0  0  0  0  0  0  0
  151.1090  142.5383  158.4188 C   0  0  0  0  0  0  0  0  0  0  0  0
  151.3100  143.3578  159.5463 C   0  0  0  0  0  0  0  0  0  0  0  0
  152.1011  142.9009  160.6176 C   0  0  0  0  0  0  0  0  0  0  0  0
  152.2914  143.6874  161.7030 F   0  0  0  0  0  0  0  0  0  0  0  0
  152.6918  141.6240  160.5606 C   0  0  0  0  0  0  0  0  0  0  0  0
  152.4902  140.8035  159.4338 C   0  0  0  0  0  0  0  0  0  0  0  0
  151.5860  137.3802  153.0765 H   0  0  0  0  0  0  0  0  0  0  0  0
  152.0629  138.0405  155.5900 H   0  0  0  0  0  0  0  0  0  0  0  0
  152.8588  139.2208  154.5687 H   0  0  0  0  0  0  0  0  0  0  0  0
  147.2978  138.8033  152.0362 H   0  0  0  0  0  0  0  0  0  0  0  0
  145.6782  140.6571  152.4700 H   0  0  0  0  0  0  0  0  0  0  0  0
  146.1856  142.4262  154.1136 H   0  0  0  0  0  0  0  0  0  0  0  0
  148.3177  142.4209  155.3920 H   0  0  0  0  0  0  0  0  0  0  0  0
  151.6670  141.7629  155.4787 H   0  0  0  0  0  0  0  0  0  0  0  0
  150.1238  141.8530  156.2742 H   0  0  0  0  0  0  0  0  0  0  0  0
  152.3828  139.8923  156.8638 H   0  0  0  0  0  0  0  0  0  0  0  0
  150.9293  138.7613  158.0980 H   0  0  0  0  0  0  0  0  0  0  0  0
  150.4929  142.8931  157.6053 H   0  0  0  0  0  0  0  0  0  0  0  0
  150.8551  144.3365  159.5899 H   0  0  0  0  0  0  0  0  0  0  0  0
  153.2974  141.2723  161.3828 H   0  0  0  0  0  0  0  0  0  0  0  0
  152.9388  139.8212  159.4043 H   0  0  0  0  0  0  0  0  0  0  0  0
  149.8958  137.8935  152.8848 H   0  0  0  0  0  0  0  0  0  0  0  0
  1  2  1  0  0  0  0
  1 22  1  0  0  0  0
  2  3  1  0  0  0  0
  2 23  1  0  0  0  0
  2 24  1  0  0  0  0
  3 11  1  0  0  0  0
  3  4  2  0  0  0  0
  4  5  1  0  0  0  0
  4 37  1  0  0  0  0
  5 10  2  0  0  0  0
  5  6  1  0  0  0  0
  6  7  2  0  0  0  0
  6 25  1  0  0  0  0
  7  8  1  0  0  0  0
  7 26  1  0  0  0  0
  8  9  2  0  0  0  0
  8 27  1  0  0  0  0
  9 10  1  0  0  0  0
  9 28  1  0  0  0  0
 10 11  1  0  0  0  0
 11 12  1  0  0  0  0
 12 13  1  0  0  0  0
 12 29  1  0  0  0  0
 12 30  1  0  0  0  0
 13 14  1  0  0  0  0
 13 15  1  0  0  0  0
 13 31  1  0  0  0  0
 14 32  1  0  0  0  0
 15 21  1  0  0  0  0
 15 16  2  0  0  0  0
 16 17  1  0  0  0  0
 16 33  1  0  0  0  0
 17 18  2  0  0  0  0
 17 34  1  0  0  0  0
 18 19  1  0  0  0  0
 18 20  1  0  0  0  0
 20 21  2  0  0  0  0
 20 35  1  0  0  0  0
 21 36  1  0  0  0  0
M  CHG  1   4   1
M  END
> <s_m_source_file>
AV-unprocessed.smi

> <i_m_source_file_index>
458

> <i_lp_mmshare_version>
43012

> <i_f3d_flags>
0

> <s_epik_input>
W2NIXTFbY0hdW2NIXVtjSF1jKGMxMiluKGMobjIpW0NIMl1bT0hdKVtDSDJdW0NASF0oW09IXSljM1tjSF1bY0hdYyhGKVtjSF1bY0hdMw==

> <s_epik_cmdline>
J2VwaWtfcHl0aG9uJywgJy1waCcsICc3LjAnLCAnLXRuJywgJzgnLCAnLW1hJywgJzIwMCcsICctbWV0YWxfYmluZGluZycsICctaW1hZScsICc8aW5maWxlLm1hZT4nLCAnLW9tYWUnLCAnPG91dGZpbGUubWFlPic=

> <r_epik_Ionization_Penalty>
1.35643

> <r_epik_Ionization_Penalty_Charging>
1.35557

> <r_epik_Ionization_Penalty_Neutral>
0.00085758

> <r_epik_State_Penalty>
1.43401

> <r_epik_Charging_Adjusted_Penalty>
2.78958

> <i_epik_Tot_Q>
1

> <i_epik_Tot_abs_Q>
1

> <r_epik_Metal_State_Penalty>
5.47166

> <b_epik_Metal_Only>
0

> <s_lp_Force_Field>
OPLS_2005

> <r_lp_Energy>
15.2314

> <b_lp_Chiralities_Consistent>
1

> <s_lp_Variant>
AV-unprocessed.smi:458-3

> <Gold.Version>
5.8.1

> <Gold.Id.Protein>
6NUR|6NUR_protein|mol2

> <Gold.PLP.Fitness>
57.8403

> <Gold.PLP.PLP>
-48.8387

> <Gold.PLP.part.hbond>
-4.0000

> <Gold.PLP.part.metal>
0.0000

> <Gold.PLP.part.buried>
4.6155

> <Gold.PLP.part.nonpolar>
-47.7141

> <Gold.PLP.part.repulsive>
0.0842

> <Gold.PLP.ligand.clash>
0.0000

> <Gold.PLP.ligand.torsion>
0.7709

> <Gold.PLP.Chemscore.Hbond>
3.5039

> <Gold.PLP.Chemscore.CHOScore>
0.0000

> <Gold.PLP.Chemscore.Metal>
0.0000

> <Gold.Chemscore.Hbonds>
donor molecule, donor type, donor heavy atom, donor atom, acceptor molecule, acceptor atom, score
      L1  H     1    22       P1  7949  0.45
      L1  H     4    37       P1  7948  1.56
      P1  H 10752 10765       L1     1  0.90

> <Gold.PLP.Chemscore.Internal.Correction>
0.0317

> <Gold.Rescore>
     Score         DG    S(hbond)    S(metal)    S(lipo)     H(rot)  DE(clash)    DE(int)     intcor
     16.58     -20.11       2.21        0.00     123.71       2.82       2.94       0.59       ----

> <Gold.Chemscore.Fitness>
16.5818

> <Gold.Chemscore.DG>
-20.1137

> <Gold.Chemscore.ZeroCoef>
-5.4800

> <Gold.Chemscore.Hbond>
2.2105

> <Gold.Chemscore.Metal>
0.0000

> <Gold.Chemscore.Lipo>
123.7135

> <Gold.Chemscore.Internal_Hbond>
0.0000

> <Gold.Chemscore.DEClash>
2.9422

> <Gold.Chemscore.DEInternal>
0.5897

> <Gold.Chemscore.Rot>
2.8219

> <Gold.Chemscore.Internal.Correction>
   9.000000E+99

> <Gold.Chemscore.Hbonds>
donor molecule, donor type, donor heavy atom, donor atom, acceptor molecule, acceptor atom, score
      L1  H     1    22       P1  7949  0.41
      L1  H     4    37       P1  7948  0.25
      P1  H 10752 10765       L1     1  0.61

> <Gold.Chemscore.Hbond.Weighted>
-7.3832

> <Gold.Chemscore.Metal.Weighted>
-0.0000

> <Gold.Chemscore.Lipo.Weighted>
-14.4745

> <Gold.Chemscore.Internal_Hbond.Weighted>
0.0000

> <Gold.Chemscore.DEClash.Weighted>
2.9422

> <Gold.Chemscore.DEInternal.Weighted>
0.5897

> <Gold.Chemscore.Rot.Weighted>
7.2240

> <Gold.Chemscore.Internal.Correction.Weighted>
   9.000000E+99

> <Gold.Protein.RotatedTorsions>
[ 6907 6896 6895 6894 ] final -151.76 input  -60.11 | X-H torsion
[ 7974 7965 7964 7962 ] final   75.12 input  175.53 | X-H torsion
[ 8008 7997 7996 7995 ] final  169.77 input   59.86 | X-H torsion
[ 10167 10162 10161 10158 ] final   98.34 input  -65.29 | X-H torsion
[ 10718 10713 10712 10709 ] final   69.22 input   66.30 | X-H torsion
[ 10763 10752 10751 10750 ] final  143.72 input  -60.55 | X-H torsion
[ 11005 11000 10999 10996 ] final   71.64 input  -57.11 | X-H torsion

> <Gold.Protein.ActiveResidues>
 VAL166  LYS551  ARG553  GLY616  TRP617  ASP618  TYR619  PRO620  LYS621  CYS622 
 ASP623  PHE694  ASN695  SER759  ASP760  ASP761  ALA762  ILE779  LEU786  VAL792 
 PHE793  MET794  SER795  GLU796  ALA797  LYS798  CYS799  TRP800  GLU811  SER814 

> <Gold.Protein.RotatedAtoms>
  151.2178  133.4519  159.2599 H   0  0  0  0  0  0  0  0  0  0  0  0  # atno 6907 bound_to 6896
  151.0914  134.9918  159.8415 H   0  0  0  0  0  0  0  0  0  0  0  0  # atno 6908 bound_to 6896
  152.5435  134.2111  159.8803 H   0  0  0  0  0  0  0  0  0  0  0  0  # atno 6909 bound_to 6896
  145.7197  139.2644  143.1603 H   0  0  0  0  0  0  0  0  0  0  0  0  # atno 7974 bound_to 7965
  156.1427  140.1555  156.8895 H   0  0  0  0  0  0  0  0  0  0  0  0  # atno 8008 bound_to 7997
  154.5001  140.0827  156.7818 H   0  0  0  0  0  0  0  0  0  0  0  0  # atno 8009 bound_to 7997
  155.4048  140.3416  155.4261 H   0  0  0  0  0  0  0  0  0  0  0  0  # atno 8010 bound_to 7997
  139.7718  144.6920  151.0145 H   0  0  0  0  0  0  0  0  0  0  0  0  # atno 10167 bound_to 10162
  157.6333  130.9414  150.0484 H   0  0  0  0  0  0  0  0  0  0  0  0  # atno 10718 bound_to 10713
  153.9771  135.2945  155.3423 H   0  0  0  0  0  0  0  0  0  0  0  0  # atno 10763 bound_to 10752
  154.7290  135.5076  153.8936 H   0  0  0  0  0  0  0  0  0  0  0  0  # atno 10764 bound_to 10752
  153.0872  135.6697  154.0039 H   0  0  0  0  0  0  0  0  0  0  0  0  # atno 10765 bound_to 10752
  139.9532  134.7189  156.0812 H   0  0  0  0  0  0  0  0  0  0  0  0  # atno 11005 bound_to 11000
  146.0637  140.7943  142.9722 LP  0  0  0  0  0  0  0  0  0  0  0  0  # atno 17320 bound_to 7965
  144.6920  140.3236  143.7228 LP  0  0  0  0  0  0  0  0  0  0  0  0  # atno 17321 bound_to 7965
  140.7814  143.4580  151.0318 LP  0  0  0  0  0  0  0  0  0  0  0  0  # atno 17342 bound_to 10162
  139.8264  143.7751  152.3178 LP  0  0  0  0  0  0  0  0  0  0  0  0  # atno 17343 bound_to 10162
  156.1553  130.3643  149.9377 LP  0  0  0  0  0  0  0  0  0  0  0  0  # atno 17370 bound_to 10713
  156.7388  130.9071  151.3631 LP  0  0  0  0  0  0  0  0  0  0  0  0  # atno 17371 bound_to 10713
  141.1199  133.6616  156.3189 LP  0  0  0  0  0  0  0  0  0  0  0  0  # atno 17394 bound_to 11000
  140.5669  134.5879  157.5448 LP  0  0  0  0  0  0  0  0  0  0  0  0  # atno 17395 bound_to 11000

$$$$
