AV-unprocessed.smi:1817|AV-procd|sdf|7368|dock9
  -GOLD-   22720 9 33D 1   1.00000     0.00000
 Structure written by MMmdl.
 43 44  0  0  0  0  0  0  0  0  2 V2000
  150.9925  142.3291  158.1759 C   0  0  0  0  0  0  0  0  0  0  0  0
  150.8882  141.8195  156.7314 C   0  0  0  0  0  0  0  0  0  0  0  0
  149.5465  142.0457  156.1385 N   0  3  0  0  0  0  0  0  0  0  0  0
  148.4759  141.3555  156.8989 C   0  0  0  0  0  0  0  0  0  0  0  0
  147.0961  141.6408  156.2702 C   0  0  0  0  0  0  0  0  0  0  0  0
  147.0260  141.1743  154.8781 N   0  0  0  0  0  0  0  0  0  0  0  0
  147.1113  139.7093  154.6848 C   0  0  2  0  0  0  0  0  0  0  0  0
  147.0298  139.3605  153.1797 C   0  0  0  0  0  0  0  0  0  0  0  0
  146.0079  138.9474  155.4705 C   0  0  0  0  0  0  0  0  0  0  0  0
  144.7403  138.9044  154.7475 N   0  0  0  0  0  0  0  0  0  0  0  0
  143.7171  138.0936  155.0552 C   0  0  0  0  0  0  0  0  0  0  0  0
  143.7378  137.3110  156.0064 O   0  0  0  0  0  0  0  0  0  0  0  0
  142.6947  138.2476  154.1960 N   0  0  0  0  0  0  0  0  0  0  0  0
  141.4615  137.5440  154.1631 C   0  0  0  0  0  0  0  0  0  0  0  0
  141.2205  136.4315  154.8747 N   0  0  0  0  0  0  0  0  0  0  0  0
  139.9395  135.9421  154.6555 N   0  0  0  0  0  0  0  0  0  0  0  0
  139.2664  136.7026  153.7875 C   0  0  0  0  0  0  0  0  0  0  0  0
  140.1313  138.0922  153.1536 S   0  0  0  0  0  0  0  0  0  0  0  0
  148.0426  141.9471  154.1479 C   0  0  0  0  0  0  0  0  0  0  0  0
  149.4675  141.7024  154.6951 C   0  0  0  0  0  0  0  0  0  0  0  0
  151.9558  142.0574  158.6078 H   0  0  0  0  0  0  0  0  0  0  0  0
  150.2153  141.8944  158.8051 H   0  0  0  0  0  0  0  0  0  0  0  0
  150.9087  143.4139  158.2342 H   0  0  0  0  0  0  0  0  0  0  0  0
  151.6556  142.2784  156.1063 H   0  0  0  0  0  0  0  0  0  0  0  0
  151.0954  140.7487  156.7386 H   0  0  0  0  0  0  0  0  0  0  0  0
  148.6751  140.2840  156.9480 H   0  0  0  0  0  0  0  0  0  0  0  0
  148.4789  141.7172  157.9277 H   0  0  0  0  0  0  0  0  0  0  0  0
  146.2970  141.2171  156.8751 H   0  0  0  0  0  0  0  0  0  0  0  0
  146.9100  142.7158  156.2872 H   0  0  0  0  0  0  0  0  0  0  0  0
  148.0737  139.3586  155.0525 H   0  0  0  0  0  0  0  0  0  0  0  0
  146.9917  138.2842  153.0144 H   0  0  0  0  0  0  0  0  0  0  0  0
  147.9004  139.7081  152.6255 H   0  0  0  0  0  0  0  0  0  0  0  0
  146.1396  139.7918  152.7207 H   0  0  0  0  0  0  0  0  0  0  0  0
  146.2820  137.9125  155.6708 H   0  0  0  0  0  0  0  0  0  0  0  0
  145.8394  139.4187  156.4395 H   0  0  0  0  0  0  0  0  0  0  0  0
  144.6447  139.5208  153.9534 H   0  0  0  0  0  0  0  0  0  0  0  0
  142.8182  138.9374  153.4696 H   0  0  0  0  0  0  0  0  0  0  0  0
  138.2533  136.4434  153.5185 H   0  0  0  0  0  0  0  0  0  0  0  0
  148.0043  141.7423  153.0798 H   0  0  0  0  0  0  0  0  0  0  0  0
  147.8022  143.0077  154.2370 H   0  0  0  0  0  0  0  0  0  0  0  0
  150.1630  142.3252  154.1335 H   0  0  0  0  0  0  0  0  0  0  0  0
  149.7821  140.6710  154.5341 H   0  0  0  0  0  0  0  0  0  0  0  0
  149.3528  143.0339  156.2159 H   0  0  0  0  0  0  0  0  0  0  0  0
  1  2  1  0  0  0  0
  1 21  1  0  0  0  0
  1 22  1  0  0  0  0
  1 23  1  0  0  0  0
  2  3  1  0  0  0  0
  2 24  1  0  0  0  0
  2 25  1  0  0  0  0
  3 20  1  0  0  0  0
  3  4  1  0  0  0  0
  3 43  1  0  0  0  0
  4  5  1  0  0  0  0
  4 26  1  0  0  0  0
  4 27  1  0  0  0  0
  5  6  1  0  0  0  0
  5 28  1  0  0  0  0
  5 29  1  0  0  0  0
  6  7  1  0  0  0  0
  6 19  1  0  0  0  0
  7  8  1  0  0  0  0
  7  9  1  0  0  0  0
  7 30  1  0  0  0  0
  8 31  1  0  0  0  0
  8 32  1  0  0  0  0
  8 33  1  0  0  0  0
  9 10  1  0  0  0  0
  9 34  1  0  0  0  0
  9 35  1  0  0  0  0
 10 11  1  0  0  0  0
 10 36  1  0  0  0  0
 11 12  2  0  0  0  0
 11 13  1  0  0  0  0
 13 14  1  0  0  0  0
 13 37  1  0  0  0  0
 14 18  1  0  0  0  0
 14 15  2  0  0  0  0
 15 16  1  0  0  0  0
 16 17  2  0  0  0  0
 17 18  1  0  0  0  0
 17 38  1  0  0  0  0
 19 20  1  0  0  0  0
 19 39  1  0  0  0  0
 19 40  1  0  0  0  0
 20 41  1  0  0  0  0
 20 42  1  0  0  0  0
M  CHG  1   3   1
M  END
> <s_m_source_file>
AV-unprocessed.smi

> <i_m_source_file_index>
1817

> <i_lp_mmshare_version>
43012

> <i_f3d_flags>
0

> <s_epik_input>
W0NIM11bQ0gyXU4xW0NIMl1bQ0gyXU4oW0NIMl1bQ0gyXTEpW0NASF0oW0NIM10pW0NIMl1bTkhdQyg9TylbTkhdYzJubltjSF1zMg==

> <s_epik_cmdline>
J2VwaWtfcHl0aG9uJywgJy1waCcsICc3LjAnLCAnLXRuJywgJzgnLCAnLW1hJywgJzIwMCcsICctbWV0YWxfYmluZGluZycsICctaW1hZScsICc8aW5maWxlLm1hZT4nLCAnLW9tYWUnLCAnPG91dGZpbGUubWFlPic=

> <r_lp_tautomer_probability>
1

> <r_epik_Ionization_Penalty>
0.0474318

> <r_epik_Ionization_Penalty_Charging>
0.0451959

> <r_epik_Ionization_Penalty_Neutral>
0.00223598

> <r_epik_State_Penalty>
0.165541

> <r_epik_Charging_Adjusted_Penalty>
0.210737

> <i_epik_Tot_Q>
1

> <i_epik_Tot_abs_Q>
1

> <r_epik_Metal_State_Penalty>
0.500395

> <b_epik_Metal_Only>
0

> <s_lp_Force_Field>
OPLS_2005

> <r_lp_Energy>
19.2999

> <b_lp_Chiralities_Consistent>
1

> <s_lp_Variant>
AV-unprocessed.smi:1817-1

> <Gold.Version>
5.8.1

> <Gold.Id.Protein>
6NUR|6NUR_protein|mol2

> <Gold.PLP.Fitness>
42.9649

> <Gold.PLP.PLP>
-29.2098

> <Gold.PLP.part.hbond>
-4.9661

> <Gold.PLP.part.metal>
0.0000

> <Gold.PLP.part.buried>
-2.0162

> <Gold.PLP.part.nonpolar>
-20.3597

> <Gold.PLP.part.repulsive>
0.3069

> <Gold.PLP.ligand.clash>
0.0000

> <Gold.PLP.ligand.torsion>
0.3506

> <Gold.PLP.Chemscore.Hbond>
4.8000

> <Gold.PLP.Chemscore.CHOScore>
0.0000

> <Gold.PLP.Chemscore.Metal>
0.0000

> <Gold.Chemscore.Hbonds>
donor molecule, donor type, donor heavy atom, donor atom, acceptor molecule, acceptor atom, score
      L1  H     3    43       P1  8028  2.00
      L1  H    10    36       P1 10175  1.00
      L1  H    13    37       P1 10175  1.00
      P1  H 11000 11005       L1    16  0.80

> <Gold.PLP.Chemscore.Internal.Correction>
0.0562

> <Gold.Rescore>
     Score         DG    S(hbond)    S(metal)    S(lipo)     H(rot)  DE(clash)    DE(int)     intcor
     16.77     -18.54       3.09        0.00      65.58       1.92       0.14       1.63       ----

> <Gold.Chemscore.Fitness>
16.7745

> <Gold.Chemscore.DG>
-18.5442

> <Gold.Chemscore.ZeroCoef>
-5.4800

> <Gold.Chemscore.Hbond>
3.0855

> <Gold.Chemscore.Metal>
0.0000

> <Gold.Chemscore.Lipo>
65.5804

> <Gold.Chemscore.Internal_Hbond>
0.0000

> <Gold.Chemscore.DEClash>
0.1361

> <Gold.Chemscore.DEInternal>
1.6336

> <Gold.Chemscore.Rot>
1.9196

> <Gold.Chemscore.Internal.Correction>
   9.000000E+99

> <Gold.Chemscore.Hbonds>
donor molecule, donor type, donor heavy atom, donor atom, acceptor molecule, acceptor atom, score
      L1  H     3    43       P1  8028  0.99
      L1  H    10    36       P1 10175  0.94
      L1  H    13    37       P1 10175  0.98
      P1  H 11000 11005       L1    16  0.12

> <Gold.Chemscore.Hbond.Weighted>
-10.3054

> <Gold.Chemscore.Metal.Weighted>
-0.0000

> <Gold.Chemscore.Lipo.Weighted>
-7.6729

> <Gold.Chemscore.Internal_Hbond.Weighted>
0.0000

> <Gold.Chemscore.DEClash.Weighted>
0.1361

> <Gold.Chemscore.DEInternal.Weighted>
1.6336

> <Gold.Chemscore.Rot.Weighted>
4.9141

> <Gold.Chemscore.Internal.Correction.Weighted>
   9.000000E+99

> <Gold.Protein.RotatedTorsions>
[ 6907 6896 6895 6894 ] final   37.25 input  -60.11 | X-H torsion
[ 7974 7965 7964 7962 ] final  131.30 input  175.53 | X-H torsion
[ 8008 7997 7996 7995 ] final  -10.01 input   59.86 | X-H torsion
[ 10167 10162 10161 10158 ] final  -79.98 input  -65.29 | X-H torsion
[ 10718 10713 10712 10709 ] final   69.01 input   66.30 | X-H torsion
[ 10763 10752 10751 10750 ] final   78.07 input  -60.55 | X-H torsion
[ 11005 11000 10999 10996 ] final   66.37 input  -57.11 | X-H torsion

> <Gold.Protein.ActiveResidues>
 VAL166  LYS551  ARG553  GLY616  TRP617  ASP618  TYR619  PRO620  LYS621  CYS622 
 ASP623  PHE694  ASN695  SER759  ASP760  ASP761  ALA762  ILE779  LEU786  VAL792 
 PHE793  MET794  SER795  GLU796  ALA797  LYS798  CYS799  TRP800  GLU811  SER814 

> <Gold.Protein.RotatedAtoms>
  152.1407  134.9064  160.0553 H   0  0  0  0  0  0  0  0  0  0  0  0  # atno 6907 bound_to 6896
  152.0134  133.3865  159.4237 H   0  0  0  0  0  0  0  0  0  0  0  0  # atno 6908 bound_to 6896
  150.6865  134.3627  159.5001 H   0  0  0  0  0  0  0  0  0  0  0  0  # atno 6909 bound_to 6896
  145.0087  139.4241  143.5255 H   0  0  0  0  0  0  0  0  0  0  0  0  # atno 7974 bound_to 7965
  154.5594  140.2340  155.8359 H   0  0  0  0  0  0  0  0  0  0  0  0  # atno 8008 bound_to 7997
  156.2016  140.3051  155.9498 H   0  0  0  0  0  0  0  0  0  0  0  0  # atno 8009 bound_to 7997
  155.2918  140.0427  157.3014 H   0  0  0  0  0  0  0  0  0  0  0  0  # atno 8010 bound_to 7997
  140.4545  143.2472  151.8441 H   0  0  0  0  0  0  0  0  0  0  0  0  # atno 10167 bound_to 10162
  157.6322  130.9404  150.0456 H   0  0  0  0  0  0  0  0  0  0  0  0  # atno 10718 bound_to 10713
  153.0846  135.4890  154.8572 H   0  0  0  0  0  0  0  0  0  0  0  0  # atno 10763 bound_to 10752
  154.7194  135.3036  154.9073 H   0  0  0  0  0  0  0  0  0  0  0  0  # atno 10764 bound_to 10752
  153.9742  135.6797  153.4801 H   0  0  0  0  0  0  0  0  0  0  0  0  # atno 10765 bound_to 10752
  139.9836  134.6704  156.0217 H   0  0  0  0  0  0  0  0  0  0  0  0  # atno 11005 bound_to 11000
  146.3466  139.9519  142.8728 LP  0  0  0  0  0  0  0  0  0  0  0  0  # atno 17320 bound_to 7965
  145.2052  140.9872  143.4132 LP  0  0  0  0  0  0  0  0  0  0  0  0  # atno 17321 bound_to 7965
  139.4800  144.5081  151.8969 LP  0  0  0  0  0  0  0  0  0  0  0  0  # atno 17342 bound_to 10162
  140.4168  144.2296  150.5887 LP  0  0  0  0  0  0  0  0  0  0  0  0  # atno 17343 bound_to 10162
  156.1534  130.3643  149.9405 LP  0  0  0  0  0  0  0  0  0  0  0  0  # atno 17370 bound_to 10713
  156.7419  130.9083  151.3632 LP  0  0  0  0  0  0  0  0  0  0  0  0  # atno 17371 bound_to 10713
  141.1505  133.6549  156.3997 LP  0  0  0  0  0  0  0  0  0  0  0  0  # atno 17394 bound_to 11000
  140.5047  134.6452  157.5262 LP  0  0  0  0  0  0  0  0  0  0  0  0  # atno 17395 bound_to 11000

$$$$
