AV-unprocessed.smi:16|AV-procd|sdf|87|dock1
  -GOLD-   2262015223D 1   1.00000     0.00000
 Structure written by MMmdl.
 60 64  0  0  0  0  0  0  0  0  2 V2000
  146.5776  141.0485  152.3041 C   0  0  0  0  0  0  0  0  0  0  0  0
  147.2066  139.9066  153.1135 C   0  0  0  0  0  0  0  0  0  0  0  0
  148.5119  140.2879  153.7146 N   0  3  1  0  0  0  0  0  0  0  0  0
  148.4739  141.4926  154.5859 C   0  0  0  0  0  0  0  0  0  0  0  0
  147.8682  141.1878  155.9653 C   0  0  0  0  0  0  0  0  0  0  0  0
  148.6332  140.0413  156.6558 C   0  0  1  0  0  0  0  0  0  0  0  0
  148.1071  139.7317  157.9465 O   0  0  0  0  0  0  0  0  0  0  0  0
  146.8363  139.0885  157.9288 C   0  0  0  0  0  0  0  0  0  0  0  0
  146.9169  137.7969  157.1053 C   0  0  0  0  0  0  0  0  0  0  0  0
  147.4236  138.0695  155.7647 N   0  0  0  0  0  0  0  0  0  0  0  0
  147.3139  136.9623  154.9927 C   0  0  0  0  0  0  0  0  0  0  0  0
  148.0999  135.8781  155.2265 N   0  0  0  0  0  0  0  0  0  0  0  0
  147.9764  134.7872  154.4645 C   0  0  0  0  0  0  0  0  0  0  0  0
  147.1461  134.5736  153.4411 N   0  0  0  0  0  0  0  0  0  0  0  0
  146.3481  135.6564  153.2125 C   0  0  0  0  0  0  0  0  0  0  0  0
  146.3668  136.8797  153.9384 C   0  0  0  0  0  0  0  0  0  0  0  0
  145.4233  137.7579  153.4226 N   0  0  0  0  0  0  0  0  0  0  0  0
  144.8745  137.0901  152.4443 C   0  0  0  0  0  0  0  0  0  0  0  0
  145.3652  135.8173  152.2505 N   0  0  0  0  0  0  0  0  0  0  0  0
  144.9499  134.8799  151.2458 C   0  0  0  0  0  0  0  0  0  0  0  0
  144.4001  133.5074  151.6349 C   0  0  0  0  0  0  0  0  0  0  0  0
  145.0127  132.9066  150.3494 C   0  0  0  0  0  0  0  0  0  0  0  0
  145.6786  131.5317  150.5233 C   0  0  0  0  0  0  0  0  0  0  0  0
  146.6001  131.2745  149.4832 O   0  0  0  0  0  0  0  0  0  0  0  0
  144.0659  132.8597  149.1328 C   0  0  0  0  0  0  0  0  0  0  0  0
  142.9290  132.0612  149.3926 O   0  0  0  0  0  0  0  0  0  0  0  0
  145.9694  134.1209  150.3938 C   0  0  0  0  0  0  0  0  0  0  0  0
  148.7102  138.7780  155.7660 C   0  0  1  0  0  0  0  0  0  0  0  0
  149.2407  139.1570  154.3528 C   0  0  0  0  0  0  0  0  0  0  0  0
  149.6526  140.3910  156.8250 H   0  0  0  0  0  0  0  0  0  0  0  0
  149.4364  138.1035  156.2228 H   0  0  0  0  0  0  0  0  0  0  0  0
  145.6747  140.7048  151.7990 H   0  0  0  0  0  0  0  0  0  0  0  0
  147.2634  141.4149  151.5397 H   0  0  0  0  0  0  0  0  0  0  0  0
  146.2933  141.8901  152.9349 H   0  0  0  0  0  0  0  0  0  0  0  0
  146.5111  139.5574  153.8761 H   0  0  0  0  0  0  0  0  0  0  0  0
  147.3611  139.0693  152.4321 H   0  0  0  0  0  0  0  0  0  0  0  0
  149.4962  141.8505  154.7144 H   0  0  0  0  0  0  0  0  0  0  0  0
  147.9317  142.3054  154.1041 H   0  0  0  0  0  0  0  0  0  0  0  0
  147.9071  142.0813  156.5888 H   0  0  0  0  0  0  0  0  0  0  0  0
  146.8129  140.9469  155.8473 H   0  0  0  0  0  0  0  0  0  0  0  0
  146.5508  138.8557  158.9547 H   0  0  0  0  0  0  0  0  0  0  0  0
  146.0646  139.7522  157.5400 H   0  0  0  0  0  0  0  0  0  0  0  0
  147.5765  137.0830  157.6014 H   0  0  0  0  0  0  0  0  0  0  0  0
  145.9292  137.3364  157.0537 H   0  0  0  0  0  0  0  0  0  0  0  0
  148.6363  133.9680  154.7099 H   0  0  0  0  0  0  0  0  0  0  0  0
  144.0916  137.5135  151.8318 H   0  0  0  0  0  0  0  0  0  0  0  0
  144.2415  135.4008  150.5997 H   0  0  0  0  0  0  0  0  0  0  0  0
  144.8557  133.1148  152.5459 H   0  0  0  0  0  0  0  0  0  0  0  0
  143.3123  133.4565  151.6908 H   0  0  0  0  0  0  0  0  0  0  0  0
  146.1916  131.4504  151.4818 H   0  0  0  0  0  0  0  0  0  0  0  0
  144.9329  130.7365  150.5086 H   0  0  0  0  0  0  0  0  0  0  0  0
  147.4664  131.2204  149.8568 H   0  0  0  0  0  0  0  0  0  0  0  0
  143.7345  133.8579  148.8456 H   0  0  0  0  0  0  0  0  0  0  0  0
  144.5686  132.4468  148.2582 H   0  0  0  0  0  0  0  0  0  0  0  0
  142.2100  132.6292  149.6241 H   0  0  0  0  0  0  0  0  0  0  0  0
  146.1762  134.5820  149.4275 H   0  0  0  0  0  0  0  0  0  0  0  0
  146.8979  133.9101  150.9268 H   0  0  0  0  0  0  0  0  0  0  0  0
  149.2761  138.3023  153.6777 H   0  0  0  0  0  0  0  0  0  0  0  0
  150.2795  139.4727  154.4578 H   0  0  0  0  0  0  0  0  0  0  0  0
  149.0826  140.5447  152.9218 H   0  0  0  0  0  0  0  0  0  0  0  0
  1  2  1  0  0  0  0
  1 32  1  0  0  0  0
  1 33  1  0  0  0  0
  1 34  1  0  0  0  0
  2  3  1  0  0  0  0
  2 35  1  0  0  0  0
  2 36  1  0  0  0  0
  3 29  1  0  0  0  0
  3  4  1  0  0  0  0
  3 60  1  0  0  0  0
  4  5  1  0  0  0  0
  4 37  1  0  0  0  0
  4 38  1  0  0  0  0
  5  6  1  0  0  0  0
  5 39  1  0  0  0  0
  5 40  1  0  0  0  0
  6 30  1  0  0  0  0
  6 28  1  0  0  0  0
  6  7  1  0  0  0  0
  7  8  1  0  0  0  0
  8  9  1  0  0  0  0
  8 41  1  0  0  0  0
  8 42  1  0  0  0  0
  9 10  1  0  0  0  0
  9 43  1  0  0  0  0
  9 44  1  0  0  0  0
 10 11  1  0  0  0  0
 10 28  1  0  0  0  0
 11 16  1  0  0  0  0
 11 12  2  0  0  0  0
 12 13  1  0  0  0  0
 13 14  2  0  0  0  0
 13 45  1  0  0  0  0
 14 15  1  0  0  0  0
 15 19  1  0  0  0  0
 15 16  2  0  0  0  0
 16 17  1  0  0  0  0
 17 18  2  0  0  0  0
 18 19  1  0  0  0  0
 18 46  1  0  0  0  0
 19 20  1  0  0  0  0
 20 27  1  0  0  0  0
 20 21  1  0  0  0  0
 20 47  1  0  0  0  0
 21 22  1  0  0  0  0
 21 48  1  0  0  0  0
 21 49  1  0  0  0  0
 22 23  1  0  0  0  0
 22 25  1  0  0  0  0
 22 27  1  0  0  0  0
 23 24  1  0  0  0  0
 23 50  1  0  0  0  0
 23 51  1  0  0  0  0
 24 52  1  0  0  0  0
 25 26  1  0  0  0  0
 25 53  1  0  0  0  0
 25 54  1  0  0  0  0
 26 55  1  0  0  0  0
 27 56  1  0  0  0  0
 27 57  1  0  0  0  0
 28 31  1  0  0  0  0
 28 29  1  0  0  0  0
 29 58  1  0  0  0  0
 29 59  1  0  0  0  0
M  CHG  1   3   1
M  END
> <s_m_source_file>
AV-unprocessed.smi

> <i_m_source_file_index>
16

> <i_lp_mmshare_version>
43012

> <i_f3d_flags>
0

> <s_epik_input>
W0NIM11bQ0gyXU4oW0NIMl1bQ0gyXTEpW0NIMl1bQ0BASF0oW0NAQEhdMTIpTihbQ0gyXVtDSDJdTzIpYyhuW2NIXW4zKWMoYzM0KW5bY0hdbjRbQ0hdKFtDSDJdNSlbQ0gyXUM1KFtDSDJdW09IXSlbQ0gyXVtPSF0=

> <s_epik_cmdline>
J2VwaWtfcHl0aG9uJywgJy1waCcsICc3LjAnLCAnLXRuJywgJzgnLCAnLW1hJywgJzIwMCcsICctbWV0YWxfYmluZGluZycsICctaW1hZScsICc8aW5maWxlLm1hZT4nLCAnLW9tYWUnLCAnPG91dGZpbGUubWFlPic=

> <r_lp_tautomer_probability>
1

> <r_epik_Ionization_Penalty>
0.0135603

> <r_epik_Ionization_Penalty_Charging>
0.0131385

> <r_epik_Ionization_Penalty_Neutral>
0.000421734

> <r_epik_State_Penalty>
0.0102091

> <r_epik_Charging_Adjusted_Penalty>
0.0233476

> <i_epik_Tot_Q>
1

> <i_epik_Tot_abs_Q>
1

> <r_epik_Metal_State_Penalty>
0.0103746

> <b_epik_Metal_Only>
0

> <s_lp_Force_Field>
OPLS_2005

> <r_lp_Energy>
65.3073

> <b_lp_Chiralities_Consistent>
1

> <s_lp_Variant>
AV-unprocessed.smi:16-1

> <Gold.Version>
5.8.1

> <Gold.Id.Protein>
6NUR|6NUR_protein|mol2

> <Gold.PLP.Fitness>
46.1275

> <Gold.PLP.PLP>
-32.3216

> <Gold.PLP.part.hbond>
-5.7631

> <Gold.PLP.part.metal>
0.0000

> <Gold.PLP.part.buried>
-0.0447

> <Gold.PLP.part.nonpolar>
-26.2055

> <Gold.PLP.part.repulsive>
0.4917

> <Gold.PLP.ligand.clash>
0.0000

> <Gold.PLP.ligand.torsion>
0.5360

> <Gold.PLP.Chemscore.Hbond>
3.7080

> <Gold.PLP.Chemscore.CHOScore>
1.0000

> <Gold.PLP.Chemscore.Metal>
0.0000

> <Gold.Chemscore.Hbonds>
donor molecule, donor type, donor heavy atom, donor atom, acceptor molecule, acceptor atom, score
      L1  H     3    60       P1  7957  0.90
      L1  H    24    52       P1 10747  1.00
      L1  H    26    55       P1 10186  0.70
      P1  H 10785 10796       L1    26  0.98
      L1  C    18    46       P1 10171  1.00

> <Gold.PLP.Chemscore.Internal.Correction>
0.7539

> <Gold.Rescore>
     Score         DG    S(hbond)    S(metal)    S(lipo)     H(rot)  DE(clash)    DE(int)     intcor
     13.64     -18.40       3.37        0.00      87.05       3.33       2.95       1.81       ----

> <Gold.Chemscore.Fitness>
13.6386

> <Gold.Chemscore.DG>
-18.4003

> <Gold.Chemscore.ZeroCoef>
-5.4800

> <Gold.Chemscore.Hbond>
3.3676

> <Gold.Chemscore.Metal>
0.0000

> <Gold.Chemscore.Lipo>
87.0499

> <Gold.Chemscore.Internal_Hbond>
0.0000

> <Gold.Chemscore.DEClash>
2.9534

> <Gold.Chemscore.DEInternal>
1.8083

> <Gold.Chemscore.Rot>
3.3251

> <Gold.Chemscore.Internal.Correction>
   9.000000E+99

> <Gold.Chemscore.Hbonds>
donor molecule, donor type, donor heavy atom, donor atom, acceptor molecule, acceptor atom, score
      L1  H     3    60       P1  7957  0.88
      L1  H    24    52       P1 10747  0.98
      L1  H    26    55       P1 10186  0.70
      P1  H 10785 10796       L1    26  0.75

> <Gold.Chemscore.Hbond.Weighted>
-11.2476

> <Gold.Chemscore.Metal.Weighted>
-0.0000

> <Gold.Chemscore.Lipo.Weighted>
-10.1848

> <Gold.Chemscore.Internal_Hbond.Weighted>
0.0000

> <Gold.Chemscore.DEClash.Weighted>
2.9534

> <Gold.Chemscore.DEInternal.Weighted>
1.8083

> <Gold.Chemscore.Rot.Weighted>
8.5122

> <Gold.Chemscore.Internal.Correction.Weighted>
   9.000000E+99

> <Gold.Protein.RotatedTorsions>
[ 6907 6896 6895 6894 ] final  -97.76 input  -60.11 | X-H torsion
[ 7974 7965 7964 7962 ] final   10.19 input  175.53 | X-H torsion
[ 8008 7997 7996 7995 ] final  -12.34 input   59.86 | X-H torsion
[ 10167 10162 10161 10158 ] final  -58.42 input  -65.29 | X-H torsion
[ 10718 10713 10712 10709 ] final  -18.04 input   66.30 | X-H torsion
[ 10763 10752 10751 10750 ] final   81.07 input  -60.55 | X-H torsion
[ 11005 11000 10999 10996 ] final  -56.96 input  -57.11 | X-H torsion

> <Gold.Protein.ActiveResidues>
 VAL166  LYS551  ARG553  GLY616  TRP617  ASP618  TYR619  PRO620  LYS621  CYS622 
 ASP623  PHE694  ASN695  SER759  ASP760  ASP761  ALA762  ILE779  LEU786  VAL792 
 PHE793  MET794  SER795  GLU796  ALA797  LYS798  CYS799  TRP800  GLU811  SER814 

> <Gold.Protein.RotatedAtoms>
  150.7026  134.1299  159.4065 H   0  0  0  0  0  0  0  0  0  0  0  0  # atno 6907 bound_to 6896
  151.9284  135.0265  160.0536 H   0  0  0  0  0  0  0  0  0  0  0  0  # atno 6908 bound_to 6896
  152.2196  133.4938  159.5192 H   0  0  0  0  0  0  0  0  0  0  0  0  # atno 6909 bound_to 6896
  146.2392  139.9671  142.8451 H   0  0  0  0  0  0  0  0  0  0  0  0  # atno 7974 bound_to 7965
  154.5386  140.2278  155.8680 H   0  0  0  0  0  0  0  0  0  0  0  0  # atno 8008 bound_to 7997
  156.1836  140.3094  155.9157 H   0  0  0  0  0  0  0  0  0  0  0  0  # atno 8009 bound_to 7997
  155.3305  140.0445  157.3033 H   0  0  0  0  0  0  0  0  0  0  0  0  # atno 8010 bound_to 7997
  140.6198  143.2415  151.5508 H   0  0  0  0  0  0  0  0  0  0  0  0  # atno 10167 bound_to 10162
  156.5651  130.4735  149.6388 H   0  0  0  0  0  0  0  0  0  0  0  0  # atno 10718 bound_to 10713
  153.1086  135.4779  154.8995 H   0  0  0  0  0  0  0  0  0  0  0  0  # atno 10763 bound_to 10752
  154.7457  135.3093  154.8652 H   0  0  0  0  0  0  0  0  0  0  0  0  # atno 10764 bound_to 10752
  153.9247  135.6851  153.4800 H   0  0  0  0  0  0  0  0  0  0  0  0  # atno 10765 bound_to 10752
  141.1143  133.6610  156.4697 H   0  0  0  0  0  0  0  0  0  0  0  0  # atno 11005 bound_to 11000
  145.1716  140.9723  143.4318 LP  0  0  0  0  0  0  0  0  0  0  0  0  # atno 17320 bound_to 7965
  145.0023  139.3587  143.6161 LP  0  0  0  0  0  0  0  0  0  0  0  0  # atno 17321 bound_to 7965
  139.5429  144.2599  152.1386 LP  0  0  0  0  0  0  0  0  0  0  0  0  # atno 17342 bound_to 10162
  140.1817  144.4838  150.6525 LP  0  0  0  0  0  0  0  0  0  0  0  0  # atno 17343 bound_to 10162
  156.2764  130.7046  151.1858 LP  0  0  0  0  0  0  0  0  0  0  0  0  # atno 17370 bound_to 10713
  157.7360  131.0566  150.5438 LP  0  0  0  0  0  0  0  0  0  0  0  0  # atno 17371 bound_to 10713
  140.4689  134.6772  157.5120 LP  0  0  0  0  0  0  0  0  0  0  0  0  # atno 17394 bound_to 11000
  140.0056  134.6769  155.9461 LP  0  0  0  0  0  0  0  0  0  0  0  0  # atno 17395 bound_to 11000

$$$$
