AV-unprocessed.smi:656|AV-procd|sdf|3219|dock10
  -GOLD-   22720 0153D 1   1.00000     0.00000
 Structure written by MMmdl.
 41 42  0  0  0  0  0  0  0  0  2 V2000
  144.0915  143.7703  157.2829 C   0  0  0  0  0  0  0  0  0  0  0  0
  143.9890  142.2416  157.2463 C   0  0  0  0  0  0  0  0  0  0  0  0
  143.6124  141.7152  155.8504 C   0  0  0  0  0  0  0  0  0  0  0  0
  144.7858  141.5968  154.9474 N   0  3  2  0  0  0  0  0  0  0  0  0
  145.7735  140.6037  155.4444 C   0  0  0  0  0  0  0  0  0  0  0  0
  146.9193  140.3948  154.4369 C   0  0  0  0  0  0  0  0  0  0  0  0
  147.6168  141.7167  154.0737 C   0  0  2  0  0  0  0  0  0  0  0  0
  148.4076  142.2054  155.2034 N   0  0  0  0  0  0  0  0  0  0  0  0
  149.4209  141.5457  155.7840 C   0  0  0  0  0  0  0  0  0  0  0  0
  149.8093  140.4381  155.4128 O   0  0  0  0  0  0  0  0  0  0  0  0
  149.9389  142.2504  156.8049 N   0  0  0  0  0  0  0  0  0  0  0  0
  151.0349  141.9046  157.6385 C   0  0  0  0  0  0  0  0  0  0  0  0
  151.2568  142.7668  158.7335 C   0  0  0  0  0  0  0  0  0  0  0  0
  152.3300  142.4858  159.5964 C   0  0  0  0  0  0  0  0  0  0  0  0
  153.1123  141.3558  159.3031 C   0  0  0  0  0  0  0  0  0  0  0  0
  152.8630  140.5570  158.2428 N   0  0  0  0  0  0  0  0  0  0  0  0
  151.8398  140.8307  157.4259 N   0  0  0  0  0  0  0  0  0  0  0  0
  146.5619  142.7442  153.6183 C   0  0  0  0  0  0  0  0  0  0  0  0
  145.4294  142.9037  154.6476 C   0  0  0  0  0  0  0  0  0  0  0  0
  144.3567  144.1178  158.2817 H   0  0  0  0  0  0  0  0  0  0  0  0
  143.1438  144.2354  157.0098 H   0  0  0  0  0  0  0  0  0  0  0  0
  144.8539  144.1321  156.5923 H   0  0  0  0  0  0  0  0  0  0  0  0
  144.9430  141.8122  157.5548 H   0  0  0  0  0  0  0  0  0  0  0  0
  143.2542  141.9280  157.9871 H   0  0  0  0  0  0  0  0  0  0  0  0
  143.1000  140.7545  155.9226 H   0  0  0  0  0  0  0  0  0  0  0  0
  142.8965  142.4126  155.4128 H   0  0  0  0  0  0  0  0  0  0  0  0
  146.1681  140.9327  156.4070 H   0  0  0  0  0  0  0  0  0  0  0  0
  145.2778  139.6478  155.6183 H   0  0  0  0  0  0  0  0  0  0  0  0
  147.6427  139.6813  154.8338 H   0  0  0  0  0  0  0  0  0  0  0  0
  146.5163  139.9428  153.5296 H   0  0  0  0  0  0  0  0  0  0  0  0
  148.3017  141.5228  153.2461 H   0  0  0  0  0  0  0  0  0  0  0  0
  148.1541  143.1065  155.5811 H   0  0  0  0  0  0  0  0  0  0  0  0
  149.5060  143.1396  157.0054 H   0  0  0  0  0  0  0  0  0  0  0  0
  150.6228  143.6233  158.9111 H   0  0  0  0  0  0  0  0  0  0  0  0
  152.5451  143.1122  160.4493 H   0  0  0  0  0  0  0  0  0  0  0  0
  153.9516  141.0873  159.9274 H   0  0  0  0  0  0  0  0  0  0  0  0
  147.0243  143.7116  153.4190 H   0  0  0  0  0  0  0  0  0  0  0  0
  146.1347  142.4180  152.6691 H   0  0  0  0  0  0  0  0  0  0  0  0
  144.6971  143.6051  154.2498 H   0  0  0  0  0  0  0  0  0  0  0  0
  145.8150  143.3432  155.5688 H   0  0  0  0  0  0  0  0  0  0  0  0
  144.4370  141.2319  154.0725 H   0  0  0  0  0  0  0  0  0  0  0  0
  1  2  1  0  0  0  0
  1 20  1  0  0  0  0
  1 21  1  0  0  0  0
  1 22  1  0  0  0  0
  2  3  1  0  0  0  0
  2 23  1  0  0  0  0
  2 24  1  0  0  0  0
  3  4  1  0  0  0  0
  3 25  1  0  0  0  0
  3 26  1  0  0  0  0
  4 19  1  0  0  0  0
  4  5  1  0  0  0  0
  4 41  1  0  0  0  0
  5  6  1  0  0  0  0
  5 27  1  0  0  0  0
  5 28  1  0  0  0  0
  6  7  1  0  0  0  0
  6 29  1  0  0  0  0
  6 30  1  0  0  0  0
  7  8  1  0  0  0  0
  7 18  1  0  0  0  0
  7 31  1  0  0  0  0
  8  9  1  0  0  0  0
  8 32  1  0  0  0  0
  9 10  2  0  0  0  0
  9 11  1  0  0  0  0
 11 12  1  0  0  0  0
 11 33  1  0  0  0  0
 12 17  1  0  0  0  0
 12 13  2  0  0  0  0
 13 14  1  0  0  0  0
 13 34  1  0  0  0  0
 14 15  2  0  0  0  0
 14 35  1  0  0  0  0
 15 16  1  0  0  0  0
 15 36  1  0  0  0  0
 16 17  2  0  0  0  0
 18 19  1  0  0  0  0
 18 37  1  0  0  0  0
 18 38  1  0  0  0  0
 19 39  1  0  0  0  0
 19 40  1  0  0  0  0
M  CHG  1   4   1
M  END
> <s_m_source_file>
AV-unprocessed.smi

> <i_m_source_file_index>
656

> <i_lp_mmshare_version>
43012

> <i_f3d_flags>
0

> <s_epik_input>
W0NIM11bQ0gyXVtDSDJdTjFbQ0gyXVtDSDJdW0NIXShbQ0gyXVtDSDJdMSlbTkhdQyg9TylbTkhdYzJbY0hdW2NIXVtjSF1ubjI=

> <s_epik_cmdline>
J2VwaWtfcHl0aG9uJywgJy1waCcsICc3LjAnLCAnLXRuJywgJzgnLCAnLW1hJywgJzIwMCcsICctbWV0YWxfYmluZGluZycsICctaW1hZScsICc8aW5maWxlLm1hZT4nLCAnLW9tYWUnLCAnPG91dGZpbGUubWFlPic=

> <r_lp_tautomer_probability>
1

> <r_epik_Ionization_Penalty>
0.00614766

> <r_epik_Ionization_Penalty_Charging>
0.00269617

> <r_epik_Ionization_Penalty_Neutral>
0.00345149

> <r_epik_State_Penalty>
-0

> <r_epik_Charging_Adjusted_Penalty>
0.00269617

> <i_epik_Tot_Q>
1

> <i_epik_Tot_abs_Q>
1

> <r_epik_Metal_State_Penalty>
-0

> <b_epik_Metal_Only>
0

> <s_lp_Force_Field>
OPLS_2005

> <r_lp_Energy>
22.9398

> <b_lp_Chiralities_Consistent>
1

> <s_lp_Variant>
AV-unprocessed.smi:656-2

> <Gold.Version>
5.8.1

> <Gold.Id.Protein>
6NUR|6NUR_protein|mol2

> <Gold.PLP.Fitness>
42.5915

> <Gold.PLP.PLP>
-28.8901

> <Gold.PLP.part.hbond>
-4.0000

> <Gold.PLP.part.metal>
0.0000

> <Gold.PLP.part.buried>
-5.7822

> <Gold.PLP.part.nonpolar>
-19.0735

> <Gold.PLP.part.repulsive>
0.3154

> <Gold.PLP.ligand.clash>
0.0000

> <Gold.PLP.ligand.torsion>
0.1408

> <Gold.PLP.Chemscore.Hbond>
4.6545

> <Gold.PLP.Chemscore.CHOScore>
0.0000

> <Gold.PLP.Chemscore.Metal>
0.0000

> <Gold.Chemscore.Hbonds>
donor molecule, donor type, donor heavy atom, donor atom, acceptor molecule, acceptor atom, score
      L1  H     4    41       P1 10175  2.00
      L1  H     8    32       P1  8028  0.75
      L1  H    11    33       P1  8028  0.41
      P1  H  7997  8009       L1    16  0.52

> <Gold.PLP.Chemscore.Internal.Correction>
0.0195

> <Gold.Rescore>
     Score         DG    S(hbond)    S(metal)    S(lipo)     H(rot)  DE(clash)    DE(int)     intcor
     15.07     -18.91       2.90        0.00      63.77       1.45       1.18       2.65       ----

> <Gold.Chemscore.Fitness>
15.0726

> <Gold.Chemscore.DG>
-18.9088

> <Gold.Chemscore.ZeroCoef>
-5.4800

> <Gold.Chemscore.Hbond>
2.8994

> <Gold.Chemscore.Metal>
0.0000

> <Gold.Chemscore.Lipo>
63.7725

> <Gold.Chemscore.Internal_Hbond>
0.0000

> <Gold.Chemscore.DEClash>
1.1829

> <Gold.Chemscore.DEInternal>
2.6533

> <Gold.Chemscore.Rot>
1.4518

> <Gold.Chemscore.Internal.Correction>
   9.000000E+99

> <Gold.Chemscore.Hbonds>
donor molecule, donor type, donor heavy atom, donor atom, acceptor molecule, acceptor atom, score
      L1  H     4    41       P1 10175  0.60
      L1  H     8    32       P1  8028  0.65
      L1  H    11    33       P1  8028  0.41
      P1  H  7997  8009       L1    16  0.31

> <Gold.Chemscore.Hbond.Weighted>
-9.6840

> <Gold.Chemscore.Metal.Weighted>
-0.0000

> <Gold.Chemscore.Lipo.Weighted>
-7.4614

> <Gold.Chemscore.Internal_Hbond.Weighted>
0.0000

> <Gold.Chemscore.DEClash.Weighted>
1.1829

> <Gold.Chemscore.DEInternal.Weighted>
2.6533

> <Gold.Chemscore.Rot.Weighted>
3.7165

> <Gold.Chemscore.Internal.Correction.Weighted>
   9.000000E+99

> <Gold.Protein.RotatedTorsions>
[ 6907 6896 6895 6894 ] final -179.85 input  -60.11 | X-H torsion
[ 7974 7965 7964 7962 ] final   16.44 input  175.53 | X-H torsion
[ 8008 7997 7996 7995 ] final  154.30 input   59.86 | X-H torsion
[ 10167 10162 10161 10158 ] final   -0.16 input  -65.29 | X-H torsion
[ 10718 10713 10712 10709 ] final   36.04 input   66.30 | X-H torsion
[ 10763 10752 10751 10750 ] final -150.15 input  -60.55 | X-H torsion
[ 11005 11000 10999 10996 ] final   96.87 input  -57.11 | X-H torsion

> <Gold.Protein.ActiveResidues>
 VAL166  LYS551  ARG553  GLY616  TRP617  ASP618  TYR619  PRO620  LYS621  CYS622 
 ASP623  PHE694  ASN695  SER759  ASP760  ASP761  ALA762  ILE779  LEU786  VAL792 
 PHE793  MET794  SER795  GLU796  ALA797  LYS798  CYS799  TRP800  GLU811  SER814 

> <Gold.Protein.RotatedAtoms>
  151.6601  133.3317  159.3171 H   0  0  0  0  0  0  0  0  0  0  0  0  # atno 6907 bound_to 6896
  150.7917  134.6950  159.6527 H   0  0  0  0  0  0  0  0  0  0  0  0  # atno 6908 bound_to 6896
  152.3998  134.6309  160.0126 H   0  0  0  0  0  0  0  0  0  0  0  0  # atno 6909 bound_to 6896
  146.2249  139.8748  142.8581 H   0  0  0  0  0  0  0  0  0  0  0  0  # atno 7974 bound_to 7965
  156.2538  140.1970  156.6625 H   0  0  0  0  0  0  0  0  0  0  0  0  # atno 8008 bound_to 7997
  154.6453  140.0578  156.9919 H   0  0  0  0  0  0  0  0  0  0  0  0  # atno 8009 bound_to 7997
  155.1500  140.3250  155.4436 H   0  0  0  0  0  0  0  0  0  0  0  0  # atno 8010 bound_to 7997
  140.6755  143.6928  150.8014 H   0  0  0  0  0  0  0  0  0  0  0  0  # atno 10167 bound_to 10162
  157.3300  130.7493  149.6841 H   0  0  0  0  0  0  0  0  0  0  0  0  # atno 10718 bound_to 10713
  154.8136  135.3291  154.7238 H   0  0  0  0  0  0  0  0  0  0  0  0  # atno 10763 bound_to 10752
  153.7883  135.6913  153.4880 H   0  0  0  0  0  0  0  0  0  0  0  0  # atno 10764 bound_to 10752
  153.1934  135.4542  155.0124 H   0  0  0  0  0  0  0  0  0  0  0  0  # atno 10765 bound_to 10752
  139.8779  134.8972  156.4223 H   0  0  0  0  0  0  0  0  0  0  0  0  # atno 11005 bound_to 11000
  145.2572  141.0064  143.3847 LP  0  0  0  0  0  0  0  0  0  0  0  0  # atno 17320 bound_to 7965
  144.9327  139.4280  143.6487 LP  0  0  0  0  0  0  0  0  0  0  0  0  # atno 17321 bound_to 7965
  140.0620  143.5145  152.2623 LP  0  0  0  0  0  0  0  0  0  0  0  0  # atno 17342 bound_to 10162
  139.6045  144.7592  151.3094 LP  0  0  0  0  0  0  0  0  0  0  0  0  # atno 17343 bound_to 10162
  155.9695  130.4198  150.4392 LP  0  0  0  0  0  0  0  0  0  0  0  0  # atno 17370 bound_to 10713
  157.2422  131.0528  151.2429 LP  0  0  0  0  0  0  0  0  0  0  0  0  # atno 17371 bound_to 10713
  140.9125  133.7701  155.9809 LP  0  0  0  0  0  0  0  0  0  0  0  0  # atno 17394 bound_to 11000
  140.8530  134.2931  157.5267 LP  0  0  0  0  0  0  0  0  0  0  0  0  # atno 17395 bound_to 11000

$$$$
