AV-unprocessed.smi:194|AV-procd|sdf|1521|dock5
  -GOLD-   2262019363D 1   1.00000     0.00000
 Structure written by MMmdl.
 53 55  0  0  0  0  0  0  0  0  1 V2000
  147.5312  133.4112  162.1829 C   0  0  0  0  0  0  0  0  0  0  0  0
  146.8343  134.6749  161.6195 C   0  0  1  0  0  0  0  0  0  0  0  0
  145.5881  135.0210  162.4701 C   0  0  0  0  0  0  0  0  0  0  0  0
  144.2147  133.8373  162.0677 S   0  0  1  0  0  0  0  0  0  0  0  0
  142.8926  134.7073  163.0327 C   0  0  0  0  0  0  0  0  0  0  0  0
  143.8836  134.0309  160.5869 O   0  0  0  0  0  0  0  0  0  0  0  0
  147.7555  135.8216  161.5383 N   0  0  0  0  0  0  0  0  0  0  0  0
  147.9078  136.6545  162.7285 C   0  0  0  0  0  0  0  0  0  0  0  0
  147.6220  136.6026  160.4424 C   0  0  0  0  0  0  0  0  0  0  0  0
  146.4222  137.2031  160.2482 N   0  0  0  0  0  0  0  0  0  0  0  0
  146.2370  137.9920  159.1855 C   0  0  0  0  0  0  0  0  0  0  0  0
  147.0991  138.3015  158.2144 N   0  0  0  0  0  0  0  0  0  0  0  0
  148.3025  137.6860  158.4007 C   0  0  0  0  0  0  0  0  0  0  0  0
  148.6485  136.8293  159.4830 C   0  0  0  0  0  0  0  0  0  0  0  0
  149.9625  136.3993  159.3489 N   0  0  0  0  0  0  0  0  0  0  0  0
  150.3726  136.9758  158.2526 C   0  0  0  0  0  0  0  0  0  0  0  0
  149.4352  137.7514  157.6067 N   0  0  0  0  0  0  0  0  0  0  0  0
  149.6303  138.5067  156.3773 C   0  0  0  0  0  0  0  0  0  0  0  0
  149.8187  140.0456  156.5447 C   0  0  0  0  0  0  0  0  0  0  0  0
  149.8837  140.7538  155.1579 C   0  0  0  0  0  0  0  0  0  0  0  0
  150.7538  140.1269  154.2374 O   0  0  0  0  0  0  0  0  0  0  0  0
  148.7133  140.6495  157.4489 C   0  0  0  0  0  0  0  0  0  0  0  0
  149.0374  142.0827  157.9039 C   0  0  0  0  0  0  0  0  0  0  0  0
  150.2747  142.0957  158.6037 O   0  0  0  0  0  0  0  0  0  0  0  0
  151.3709  141.6964  157.7918 C   0  0  0  0  0  0  0  0  0  0  0  0
  151.1638  140.2545  157.2876 C   0  0  0  0  0  0  0  0  0  0  0  0
  146.8473  132.5669  162.2595 H   0  0  0  0  0  0  0  0  0  0  0  0
  147.9365  133.5965  163.1782 H   0  0  0  0  0  0  0  0  0  0  0  0
  148.3515  133.0758  161.5481 H   0  0  0  0  0  0  0  0  0  0  0  0
  146.4943  134.4573  160.6063 H   0  0  0  0  0  0  0  0  0  0  0  0
  145.8158  134.9848  163.5358 H   0  0  0  0  0  0  0  0  0  0  0  0
  145.2125  136.0196  162.2500 H   0  0  0  0  0  0  0  0  0  0  0  0
  143.1745  134.7844  164.0828 H   0  0  0  0  0  0  0  0  0  0  0  0
  141.9548  134.1561  162.9651 H   0  0  0  0  0  0  0  0  0  0  0  0
  142.7329  135.7111  162.6392 H   0  0  0  0  0  0  0  0  0  0  0  0
  148.3185  137.6386  162.4952 H   0  0  0  0  0  0  0  0  0  0  0  0
  148.5913  136.1811  163.4334 H   0  0  0  0  0  0  0  0  0  0  0  0
  146.9475  136.7983  163.2248 H   0  0  0  0  0  0  0  0  0  0  0  0
  145.2578  138.4399  159.1014 H   0  0  0  0  0  0  0  0  0  0  0  0
  151.3753  136.8406  157.8741 H   0  0  0  0  0  0  0  0  0  0  0  0
  150.4951  138.0774  155.8695 H   0  0  0  0  0  0  0  0  0  0  0  0
  148.7789  138.3073  155.7250 H   0  0  0  0  0  0  0  0  0  0  0  0
  148.9068  140.7862  154.6798 H   0  0  0  0  0  0  0  0  0  0  0  0
  150.1947  141.7922  155.2778 H   0  0  0  0  0  0  0  0  0  0  0  0
  150.2492  139.5362  153.6992 H   0  0  0  0  0  0  0  0  0  0  0  0
  147.7427  140.6327  156.9530 H   0  0  0  0  0  0  0  0  0  0  0  0
  148.6021  140.0321  158.3412 H   0  0  0  0  0  0  0  0  0  0  0  0
  149.0693  142.7730  157.0602 H   0  0  0  0  0  0  0  0  0  0  0  0
  148.2567  142.4432  158.5740 H   0  0  0  0  0  0  0  0  0  0  0  0
  151.5055  142.4001  156.9705 H   0  0  0  0  0  0  0  0  0  0  0  0
  152.2805  141.7491  158.3903 H   0  0  0  0  0  0  0  0  0  0  0  0
  151.2068  139.5944  158.1553 H   0  0  0  0  0  0  0  0  0  0  0  0
  151.9995  139.9636  156.6497 H   0  0  0  0  0  0  0  0  0  0  0  0
  1  2  1  0  0  0  0
  1 27  1  0  0  0  0
  1 28  1  0  0  0  0
  1 29  1  0  0  0  0
  2  3  1  0  0  0  0
  2  7  1  0  0  0  0
  2 30  1  0  0  0  0
  3  4  1  0  0  0  0
  3 31  1  0  0  0  0
  3 32  1  0  0  0  0
  4  5  1  0  0  0  0
  4  6  2  0  0  0  0
  5 33  1  0  0  0  0
  5 34  1  0  0  0  0
  5 35  1  0  0  0  0
  7  8  1  0  0  0  0
  7  9  1  0  0  0  0
  8 36  1  0  0  0  0
  8 37  1  0  0  0  0
  8 38  1  0  0  0  0
  9 14  1  0  0  0  0
  9 10  2  0  0  0  0
 10 11  1  0  0  0  0
 11 12  2  0  0  0  0
 11 39  1  0  0  0  0
 12 13  1  0  0  0  0
 13 17  1  0  0  0  0
 13 14  2  0  0  0  0
 14 15  1  0  0  0  0
 15 16  2  0  0  0  0
 16 17  1  0  0  0  0
 16 40  1  0  0  0  0
 17 18  1  0  0  0  0
 18 19  1  0  0  0  0
 18 41  1  0  0  0  0
 18 42  1  0  0  0  0
 19 26  1  0  0  0  0
 19 20  1  0  0  0  0
 19 22  1  0  0  0  0
 20 21  1  0  0  0  0
 20 43  1  0  0  0  0
 20 44  1  0  0  0  0
 21 45  1  0  0  0  0
 22 23  1  0  0  0  0
 22 46  1  0  0  0  0
 22 47  1  0  0  0  0
 23 24  1  0  0  0  0
 23 48  1  0  0  0  0
 23 49  1  0  0  0  0
 24 25  1  0  0  0  0
 25 26  1  0  0  0  0
 25 50  1  0  0  0  0
 25 51  1  0  0  0  0
 26 52  1  0  0  0  0
 26 53  1  0  0  0  0
M  END
> <s_m_source_file>
AV-unprocessed.smi

> <i_m_source_file_index>
194

> <i_lp_mmshare_version>
43012

> <i_f3d_flags>
0

> <s_epik_input>
W0NIM11bU0BAXSg9TylbQ0gyXVtDQEBIXShbQ0gzXSlOKFtDSDNdKWMobltjSF1uMSljKGMxMiluW2NIXW4yW0NIMl1DMyhbQ0gyXVtPSF0pW0NIMl1bQ0gyXU9bQ0gyXVtDSDJdMw==

> <s_epik_cmdline>
J2VwaWtfcHl0aG9uJywgJy1waCcsICc3LjAnLCAnLXRuJywgJzgnLCAnLW1hJywgJzIwMCcsICctbWV0YWxfYmluZGluZycsICctaW1hZScsICc8aW5maWxlLm1hZT4nLCAnLW9tYWUnLCAnPG91dGZpbGUubWFlPic=

> <r_lp_tautomer_probability>
1

> <r_epik_Ionization_Penalty>
0.00101625

> <r_epik_Ionization_Penalty_Charging>
0

> <r_epik_Ionization_Penalty_Neutral>
0.00101625

> <r_epik_State_Penalty>
0.000568005

> <r_epik_Charging_Adjusted_Penalty>
0.000568005

> <i_epik_Tot_Q>
0

> <i_epik_Tot_abs_Q>
0

> <r_epik_Metal_State_Penalty>
-0

> <b_epik_Metal_Only>
0

> <s_lp_Force_Field>
OPLS_2005

> <r_lp_Energy>
31.1686

> <b_lp_Chiralities_Consistent>
1

> <s_lp_Variant>
AV-unprocessed.smi:194-2

> <Gold.Version>
5.8.1

> <Gold.Id.Protein>
6NUR|6NUR_protein|mol2

> <Gold.PLP.Fitness>
41.8379

> <Gold.PLP.PLP>
-38.1991

> <Gold.PLP.part.hbond>
-3.0813

> <Gold.PLP.part.metal>
0.0000

> <Gold.PLP.part.buried>
-5.6147

> <Gold.PLP.part.nonpolar>
-28.6518

> <Gold.PLP.part.repulsive>
0.0973

> <Gold.PLP.ligand.clash>
0.0000

> <Gold.PLP.ligand.torsion>
1.5000

> <Gold.PLP.Chemscore.Hbond>
2.0000

> <Gold.PLP.Chemscore.CHOScore>
0.0000

> <Gold.PLP.Chemscore.Metal>
0.0000

> <Gold.Chemscore.Hbonds>
donor molecule, donor type, donor heavy atom, donor atom, acceptor molecule, acceptor atom, score
      P1  H  6896  6907       L1    15  0.96
      P1  H  7989  7998       L1    21  0.59

> <Gold.PLP.Chemscore.Internal.Correction>
0.6388

> <Gold.Rescore>
     Score         DG    S(hbond)    S(metal)    S(lipo)     H(rot)  DE(clash)    DE(int)     intcor
     11.84     -13.50       2.28        0.00      75.80       3.31       0.03       1.63       ----

> <Gold.Chemscore.Fitness>
11.8386

> <Gold.Chemscore.DG>
-13.4976

> <Gold.Chemscore.ZeroCoef>
-5.4800

> <Gold.Chemscore.Hbond>
2.2822

> <Gold.Chemscore.Metal>
0.0000

> <Gold.Chemscore.Lipo>
75.7956

> <Gold.Chemscore.Internal_Hbond>
0.0000

> <Gold.Chemscore.DEClash>
0.0268

> <Gold.Chemscore.DEInternal>
1.6323

> <Gold.Chemscore.Rot>
3.3098

> <Gold.Chemscore.Internal.Correction>
   9.000000E+99

> <Gold.Chemscore.Hbonds>
donor molecule, donor type, donor heavy atom, donor atom, acceptor molecule, acceptor atom, score
      P1  H  6896  6907       L1    15  0.79
      P1  H  7989  7998       L1    21  0.45

> <Gold.Chemscore.Hbond.Weighted>
-7.6225

> <Gold.Chemscore.Metal.Weighted>
-0.0000

> <Gold.Chemscore.Lipo.Weighted>
-8.8681

> <Gold.Chemscore.Internal_Hbond.Weighted>
0.0000

> <Gold.Chemscore.DEClash.Weighted>
0.0268

> <Gold.Chemscore.DEInternal.Weighted>
1.6323

> <Gold.Chemscore.Rot.Weighted>
8.4730

> <Gold.Chemscore.Internal.Correction.Weighted>
   9.000000E+99

> <Gold.Protein.RotatedTorsions>
[ 6907 6896 6895 6894 ] final  -63.54 input  -60.11 | X-H torsion
[ 7974 7965 7964 7962 ] final  -14.46 input  175.53 | X-H torsion
[ 8008 7997 7996 7995 ] final   93.58 input   59.86 | X-H torsion
[ 10167 10162 10161 10158 ] final   63.99 input  -65.29 | X-H torsion
[ 10718 10713 10712 10709 ] final   56.75 input   66.30 | X-H torsion
[ 10763 10752 10751 10750 ] final -156.71 input  -60.55 | X-H torsion
[ 11005 11000 10999 10996 ] final -143.89 input  -57.11 | X-H torsion

> <Gold.Protein.ActiveResidues>
 VAL166  LYS551  ARG553  GLY616  TRP617  ASP618  TYR619  PRO620  LYS621  CYS622 
 ASP623  PHE694  ASN695  SER759  ASP760  ASP761  ALA762  ILE779  LEU786  VAL792 
 PHE793  MET794  SER795  GLU796  ALA797  LYS798  CYS799  TRP800  GLU811  SER814 

> <Gold.Protein.RotatedAtoms>
  150.7642  134.6421  159.6242 H   0  0  0  0  0  0  0  0  0  0  0  0  # atno 6907 bound_to 6896
  152.3666  134.6792  160.0199 H   0  0  0  0  0  0  0  0  0  0  0  0  # atno 6908 bound_to 6896
  151.7165  133.3277  159.3340 H   0  0  0  0  0  0  0  0  0  0  0  0  # atno 6909 bound_to 6896
  146.2073  140.3351  142.8402 H   0  0  0  0  0  0  0  0  0  0  0  0  # atno 7974 bound_to 7965
  156.0484  140.3311  155.7323 H   0  0  0  0  0  0  0  0  0  0  0  0  # atno 8008 bound_to 7997
  155.5639  140.0621  157.2840 H   0  0  0  0  0  0  0  0  0  0  0  0  # atno 8009 bound_to 7997
  154.4424  140.1872  156.0798 H   0  0  0  0  0  0  0  0  0  0  0  0  # atno 8010 bound_to 7997
  140.1270  144.4678  150.6887 H   0  0  0  0  0  0  0  0  0  0  0  0  # atno 10167 bound_to 10162
  157.5457  130.8729  149.8887 H   0  0  0  0  0  0  0  0  0  0  0  0  # atno 10718 bound_to 10713
  154.7692  135.3140  154.8224 H   0  0  0  0  0  0  0  0  0  0  0  0  # atno 10763 bound_to 10752
  153.8964  135.6820  153.4762 H   0  0  0  0  0  0  0  0  0  0  0  0  # atno 10764 bound_to 10752
  153.1303  135.4783  154.9272 H   0  0  0  0  0  0  0  0  0  0  0  0  # atno 10765 bound_to 10752
  140.8080  134.2778  157.4952 H   0  0  0  0  0  0  0  0  0  0  0  0  # atno 11005 bound_to 11000
  144.8825  140.7418  143.5978 LP  0  0  0  0  0  0  0  0  0  0  0  0  # atno 17320 bound_to 7965
  145.3272  139.1770  143.4556 LP  0  0  0  0  0  0  0  0  0  0  0  0  # atno 17321 bound_to 7965
  140.6839  143.2340  151.5312 LP  0  0  0  0  0  0  0  0  0  0  0  0  # atno 17342 bound_to 10162
  139.5539  144.2325  152.1578 LP  0  0  0  0  0  0  0  0  0  0  0  0  # atno 17343 bound_to 10162
  156.0533  130.3713  150.1149 LP  0  0  0  0  0  0  0  0  0  0  0  0  # atno 17370 bound_to 10713
  156.9326  130.9718  151.3530 LP  0  0  0  0  0  0  0  0  0  0  0  0  # atno 17371 bound_to 10713
  139.8716  134.9467  156.3945 LP  0  0  0  0  0  0  0  0  0  0  0  0  # atno 17394 bound_to 11000
  140.9227  133.7634  155.9926 LP  0  0  0  0  0  0  0  0  0  0  0  0  # atno 17395 bound_to 11000

$$$$
