AV-unprocessed.smi:704|AV-procd|sdf|3445|dock5
  -GOLD-   22720 0433D 1   1.00000     0.00000
 Structure written by MMmdl.
 38 39  0  0  0  0  0  0  0  0  1 V2000
  153.2834  142.3680  162.3853 C   0  0  0  0  0  0  0  0  0  0  0  0
  152.8663  142.0697  161.0575 O   0  0  0  0  0  0  0  0  0  0  0  0
  152.2773  143.0714  160.3093 C   0  0  0  0  0  0  0  0  0  0  0  0
  152.1207  144.2934  160.8771 N   0  0  0  0  0  0  0  0  0  0  0  0
  151.5515  145.2737  160.1462 C   0  0  0  0  0  0  0  0  0  0  0  0
  151.1174  145.0924  158.8203 C   0  0  0  0  0  0  0  0  0  0  0  0
  151.2784  143.8257  158.2291 C   0  0  0  0  0  0  0  0  0  0  0  0
  151.8609  142.7820  158.9888 C   0  0  0  0  0  0  0  0  0  0  0  0
  152.0879  141.4700  158.4889 N   0  0  0  0  0  0  0  0  0  0  0  0
  151.7727  140.9594  157.2869 C   0  0  0  0  0  0  0  0  0  0  0  0
  151.2135  141.5691  156.3759 O   0  0  0  0  0  0  0  0  0  0  0  0
  152.1286  139.6698  157.2048 N   0  0  0  0  0  0  0  0  0  0  0  0
  151.9191  138.8056  156.0448 C   0  0  1  0  0  0  0  0  0  0  0  0
  152.5271  137.4154  156.2914 C   0  0  0  0  0  0  0  0  0  0  0  0
  151.3460  136.5024  156.6068 C   0  0  0  0  0  0  0  0  0  0  0  0
  150.2127  137.0522  155.7456 C   0  0  0  0  0  0  0  0  0  0  0  0
  150.4090  138.5793  155.7575 C   0  0  2  0  0  0  0  0  0  0  0  0
  149.9487  139.2467  154.4520 C   0  0  0  0  0  0  0  0  0  0  0  0
  149.4897  138.4447  153.4882 N   0  0  0  0  0  0  0  0  0  0  0  0
  150.0034  140.4674  154.3142 O   0  0  0  0  0  0  0  0  0  0  0  0
  153.7237  141.4770  162.8327 H   0  0  0  0  0  0  0  0  0  0  0  0
  152.4421  142.6705  163.0106 H   0  0  0  0  0  0  0  0  0  0  0  0
  154.0409  143.1530  162.3981 H   0  0  0  0  0  0  0  0  0  0  0  0
  151.4451  146.2330  160.6304 H   0  0  0  0  0  0  0  0  0  0  0  0
  150.6755  145.9077  158.2670 H   0  0  0  0  0  0  0  0  0  0  0  0
  150.9665  143.6874  157.2059 H   0  0  0  0  0  0  0  0  0  0  0  0
  152.4763  140.8199  159.1564 H   0  0  0  0  0  0  0  0  0  0  0  0
  152.5761  139.2496  158.0061 H   0  0  0  0  0  0  0  0  0  0  0  0
  152.4343  139.2556  155.1932 H   0  0  0  0  0  0  0  0  0  0  0  0
  153.0091  137.0688  155.3762 H   0  0  0  0  0  0  0  0  0  0  0  0
  153.2838  137.4044  157.0769 H   0  0  0  0  0  0  0  0  0  0  0  0
  151.5586  135.4527  156.4022 H   0  0  0  0  0  0  0  0  0  0  0  0
  151.0840  136.5920  157.6620 H   0  0  0  0  0  0  0  0  0  0  0  0
  150.2986  136.6448  154.7369 H   0  0  0  0  0  0  0  0  0  0  0  0
  149.2356  136.7611  156.1323 H   0  0  0  0  0  0  0  0  0  0  0  0
  149.8195  138.9779  156.5858 H   0  0  0  0  0  0  0  0  0  0  0  0
  149.1884  138.8344  152.6071 H   0  0  0  0  0  0  0  0  0  0  0  0
  149.4588  137.4472  153.6403 H   0  0  0  0  0  0  0  0  0  0  0  0
  1  2  1  0  0  0  0
  1 21  1  0  0  0  0
  1 22  1  0  0  0  0
  1 23  1  0  0  0  0
  2  3  1  0  0  0  0
  3  8  1  0  0  0  0
  3  4  2  0  0  0  0
  4  5  1  0  0  0  0
  5  6  2  0  0  0  0
  5 24  1  0  0  0  0
  6  7  1  0  0  0  0
  6 25  1  0  0  0  0
  7  8  2  0  0  0  0
  7 26  1  0  0  0  0
  8  9  1  0  0  0  0
  9 10  1  0  0  0  0
  9 27  1  0  0  0  0
 10 11  2  0  0  0  0
 10 12  1  0  0  0  0
 12 13  1  0  0  0  0
 12 28  1  0  0  0  0
 13 17  1  0  0  0  0
 13 14  1  0  0  0  0
 13 29  1  0  0  0  0
 14 15  1  0  0  0  0
 14 30  1  0  0  0  0
 14 31  1  0  0  0  0
 15 16  1  0  0  0  0
 15 32  1  0  0  0  0
 15 33  1  0  0  0  0
 16 17  1  0  0  0  0
 16 34  1  0  0  0  0
 16 35  1  0  0  0  0
 17 18  1  0  0  0  0
 17 36  1  0  0  0  0
 18 19  1  0  0  0  0
 18 20  2  0  0  0  0
 19 37  1  0  0  0  0
 19 38  1  0  0  0  0
M  END
> <s_m_source_file>
AV-unprocessed.smi

> <i_m_source_file_index>
704

> <i_lp_mmshare_version>
43012

> <i_f3d_flags>
0

> <s_epik_input>
W0NIM11PYzFuW2NIXVtjSF1bY0hdYzFbTkhdQyg9TylbTkhdW0NAQEhdMltDSDJdW0NIMl1bQ0gyXVtDQEhdMkMoPU8pW05IMl0=

> <s_epik_cmdline>
J2VwaWtfcHl0aG9uJywgJy1waCcsICc3LjAnLCAnLXRuJywgJzgnLCAnLW1hJywgJzIwMCcsICctbWV0YWxfYmluZGluZycsICctaW1hZScsICc8aW5maWxlLm1hZT4nLCAnLW9tYWUnLCAnPG91dGZpbGUubWFlPic=

> <r_lp_tautomer_probability>
1

> <r_epik_Ionization_Penalty>
9.09123e-05

> <r_epik_Ionization_Penalty_Charging>
0

> <r_epik_Ionization_Penalty_Neutral>
9.09123e-05

> <r_epik_State_Penalty>
-0

> <r_epik_Charging_Adjusted_Penalty>
0

> <i_epik_Tot_Q>
0

> <i_epik_Tot_abs_Q>
0

> <r_epik_Metal_State_Penalty>
-0

> <b_epik_Metal_Only>
0

> <s_lp_Force_Field>
OPLS_2005

> <r_lp_Energy>
17.389

> <b_lp_Chiralities_Consistent>
1

> <s_lp_Variant>
AV-unprocessed.smi:704-4

> <Gold.Version>
5.8.1

> <Gold.Id.Protein>
6NUR|6NUR_protein|mol2

> <Gold.PLP.Fitness>
43.0065

> <Gold.PLP.PLP>
-36.9660

> <Gold.PLP.part.hbond>
-3.0000

> <Gold.PLP.part.metal>
0.0000

> <Gold.PLP.part.buried>
-6.3891

> <Gold.PLP.part.nonpolar>
-28.2669

> <Gold.PLP.part.repulsive>
0.5956

> <Gold.PLP.ligand.clash>
0.0304

> <Gold.PLP.ligand.torsion>
0.0289

> <Gold.PLP.Chemscore.Hbond>
2.0395

> <Gold.PLP.Chemscore.CHOScore>
0.0000

> <Gold.PLP.Chemscore.Metal>
0.0000

> <Gold.Chemscore.Hbonds>
donor molecule, donor type, donor heavy atom, donor atom, acceptor molecule, acceptor atom, score
      L1  H    19    37       P1  7957  0.93
      L1  H    19    38       P1  7948  0.19
      P1  H  7989  7998       L1    20  0.83

> <Gold.PLP.Chemscore.Internal.Correction>
0.0101

> <Gold.Rescore>
     Score         DG    S(hbond)    S(metal)    S(lipo)     H(rot)  DE(clash)    DE(int)     intcor
     13.57     -16.57       1.94        0.00      80.21       1.86       0.13       2.87       ----

> <Gold.Chemscore.Fitness>
13.5736

> <Gold.Chemscore.DG>
-16.5725

> <Gold.Chemscore.ZeroCoef>
-5.4800

> <Gold.Chemscore.Hbond>
1.9408

> <Gold.Chemscore.Metal>
0.0000

> <Gold.Chemscore.Lipo>
80.2066

> <Gold.Chemscore.Internal_Hbond>
0.0000

> <Gold.Chemscore.DEClash>
0.1263

> <Gold.Chemscore.DEInternal>
2.8727

> <Gold.Chemscore.Rot>
1.8648

> <Gold.Chemscore.Internal.Correction>
   9.000000E+99

> <Gold.Chemscore.Hbonds>
donor molecule, donor type, donor heavy atom, donor atom, acceptor molecule, acceptor atom, score
      L1  H    19    37       P1  7957  0.87
      L1  H    19    38       P1  7948  0.17
      P1  H  7989  7998       L1    20  0.54

> <Gold.Chemscore.Hbond.Weighted>
-6.4822

> <Gold.Chemscore.Metal.Weighted>
-0.0000

> <Gold.Chemscore.Lipo.Weighted>
-9.3842

> <Gold.Chemscore.Internal_Hbond.Weighted>
0.0000

> <Gold.Chemscore.DEClash.Weighted>
0.1263

> <Gold.Chemscore.DEInternal.Weighted>
2.8727

> <Gold.Chemscore.Rot.Weighted>
4.7739

> <Gold.Chemscore.Internal.Correction.Weighted>
   9.000000E+99

> <Gold.Protein.RotatedTorsions>
[ 6907 6896 6895 6894 ] final  158.06 input  -60.11 | X-H torsion
[ 7974 7965 7964 7962 ] final  -44.88 input  175.53 | X-H torsion
[ 8008 7997 7996 7995 ] final  110.65 input   59.86 | X-H torsion
[ 10167 10162 10161 10158 ] final -102.54 input  -65.29 | X-H torsion
[ 10718 10713 10712 10709 ] final  134.82 input   66.30 | X-H torsion
[ 10763 10752 10751 10750 ] final  158.57 input  -60.55 | X-H torsion
[ 11005 11000 10999 10996 ] final  -67.92 input  -57.11 | X-H torsion

> <Gold.Protein.ActiveResidues>
 VAL166  LYS551  ARG553  GLY616  TRP617  ASP618  TYR619  PRO620  LYS621  CYS622 
 ASP623  PHE694  ASN695  SER759  ASP760  ASP761  ALA762  ILE779  LEU786  VAL792 
 PHE793  MET794  SER795  GLU796  ALA797  LYS798  CYS799  TRP800  GLU811  SER814 

> <Gold.Protein.RotatedAtoms>
  152.0060  133.3843  159.4200 H   0  0  0  0  0  0  0  0  0  0  0  0  # atno 6907 bound_to 6896
  150.6904  134.3782  159.5031 H   0  0  0  0  0  0  0  0  0  0  0  0  # atno 6908 bound_to 6896
  152.1536  134.8968  160.0597 H   0  0  0  0  0  0  0  0  0  0  0  0  # atno 6909 bound_to 6896
  145.9876  140.7216  142.9332 H   0  0  0  0  0  0  0  0  0  0  0  0  # atno 7974 bound_to 7965
  156.2068  140.3034  155.9644 H   0  0  0  0  0  0  0  0  0  0  0  0  # atno 8008 bound_to 7997
  155.2822  140.0438  157.3033 H   0  0  0  0  0  0  0  0  0  0  0  0  # atno 8009 bound_to 7997
  154.5644  140.2330  155.8295 H   0  0  0  0  0  0  0  0  0  0  0  0  # atno 8010 bound_to 7997
  140.2296  143.3616  152.0898 H   0  0  0  0  0  0  0  0  0  0  0  0  # atno 10167 bound_to 10162
  157.4634  131.1075  150.9892 H   0  0  0  0  0  0  0  0  0  0  0  0  # atno 10718 bound_to 10713
  154.2181  135.2783  155.2934 H   0  0  0  0  0  0  0  0  0  0  0  0  # atno 10763 bound_to 10752
  154.5724  135.5614  153.7111 H   0  0  0  0  0  0  0  0  0  0  0  0  # atno 10764 bound_to 10752
  153.0048  135.6324  154.2321 H   0  0  0  0  0  0  0  0  0  0  0  0  # atno 10765 bound_to 10752
  141.1520  133.6729  156.6367 H   0  0  0  0  0  0  0  0  0  0  0  0  # atno 11005 bound_to 11000
  144.6879  140.3015  143.7262 LP  0  0  0  0  0  0  0  0  0  0  0  0  # atno 17320 bound_to 7965
  145.7677  139.1846  143.2230 LP  0  0  0  0  0  0  0  0  0  0  0  0  # atno 17321 bound_to 7965
  139.5115  144.6901  151.5782 LP  0  0  0  0  0  0  0  0  0  0  0  0  # atno 17342 bound_to 10162
  140.6195  143.9285  150.6515 LP  0  0  0  0  0  0  0  0  0  0  0  0  # atno 17343 bound_to 10162
  157.0682  130.5853  149.5397 LP  0  0  0  0  0  0  0  0  0  0  0  0  # atno 17370 bound_to 10713
  156.0039  130.5123  150.7761 LP  0  0  0  0  0  0  0  0  0  0  0  0  # atno 17371 bound_to 10713
  140.3425  134.7837  157.4408 LP  0  0  0  0  0  0  0  0  0  0  0  0  # atno 17394 bound_to 11000
  140.0926  134.5580  155.8429 LP  0  0  0  0  0  0  0  0  0  0  0  0  # atno 17395 bound_to 11000

$$$$
