AV-unprocessed.smi:1754|AV-procd|sdf|7065|dock4
  -GOLD-   22720 8283D 1   1.00000     0.00000
 Structure written by MMmdl.
 45 46  0  0  0  0  0  0  0  0  2 V2000
  153.6600  141.6488  159.7159 C   0  0  0  0  0  0  0  0  0  0  0  0
  152.1294  141.5916  159.6240 C   0  0  0  0  0  0  0  0  0  0  0  0
  151.6456  141.8757  158.2736 N   0  0  0  0  0  0  0  0  0  0  0  0
  151.6087  143.2609  157.8113 C   0  0  0  0  0  0  0  0  0  0  0  0
  152.3935  144.2009  158.7360 C   0  0  0  0  0  0  0  0  0  0  0  0
  151.2676  140.8210  157.4102 C   0  0  0  0  0  0  0  0  0  0  0  0
  151.2880  140.9255  155.9973 C   0  0  0  0  0  0  0  0  0  0  0  0
  150.8986  139.8286  155.2013 C   0  0  0  0  0  0  0  0  0  0  0  0
  150.4968  138.6217  155.8230 C   0  0  0  0  0  0  0  0  0  0  0  0
  150.0683  137.4663  155.1160 N   0  0  0  0  0  0  0  0  0  0  0  0
  149.8040  136.2360  155.5989 C   0  0  0  0  0  0  0  0  0  0  0  0
  149.8416  135.9310  156.7888 O   0  0  0  0  0  0  0  0  0  0  0  0
  149.4475  135.3382  154.6628 N   0  0  0  0  0  0  0  0  0  0  0  0
  149.0974  133.9283  154.8437 C   0  0  1  0  0  0  0  0  0  0  0  0
  149.1850  133.1637  153.5096 C   0  0  0  0  0  0  0  0  0  0  0  0
  149.1635  131.6576  153.8008 C   0  0  0  0  0  0  0  0  0  0  0  0
  149.9372  131.4455  155.4494 S   0  0  0  0  0  0  0  0  0  0  0  0
  148.9684  130.8020  156.3496 O   0  0  0  0  0  0  0  0  0  0  0  0
  151.2986  130.9113  155.2937 O   0  0  0  0  0  0  0  0  0  0  0  0
  150.0344  133.2318  155.8436 C   0  0  0  0  0  0  0  0  0  0  0  0
  150.4779  138.5731  157.2308 C   0  0  0  0  0  0  0  0  0  0  0  0
  150.8587  139.6481  157.9536 N   0  3  0  0  0  0  0  0  0  0  0  0
  153.9927  141.4525  160.7352 H   0  0  0  0  0  0  0  0  0  0  0  0
  154.0384  142.6299  159.4281 H   0  0  0  0  0  0  0  0  0  0  0  0
  154.1256  140.9066  159.0669 H   0  0  0  0  0  0  0  0  0  0  0  0
  151.7621  140.6261  159.9724 H   0  0  0  0  0  0  0  0  0  0  0  0
  151.7040  142.3288  160.3058 H   0  0  0  0  0  0  0  0  0  0  0  0
  152.0439  143.3039  156.8124 H   0  0  0  0  0  0  0  0  0  0  0  0
  150.5810  143.6039  157.6928 H   0  0  0  0  0  0  0  0  0  0  0  0
  152.3603  145.2246  158.3629 H   0  0  0  0  0  0  0  0  0  0  0  0
  153.4412  143.9067  158.8025 H   0  0  0  0  0  0  0  0  0  0  0  0
  151.9825  144.2032  159.7457 H   0  0  0  0  0  0  0  0  0  0  0  0
  151.5843  141.8377  155.5022 H   0  0  0  0  0  0  0  0  0  0  0  0
  150.9020  139.9431  154.1286 H   0  0  0  0  0  0  0  0  0  0  0  0
  149.8989  137.5990  154.1295 H   0  0  0  0  0  0  0  0  0  0  0  0
  149.3736  135.6865  153.7176 H   0  0  0  0  0  0  0  0  0  0  0  0
  148.0697  133.8390  155.2012 H   0  0  0  0  0  0  0  0  0  0  0  0
  148.3859  133.4489  152.8244 H   0  0  0  0  0  0  0  0  0  0  0  0
  150.1275  133.4083  153.0171 H   0  0  0  0  0  0  0  0  0  0  0  0
  148.1391  131.2891  153.8608 H   0  0  0  0  0  0  0  0  0  0  0  0
  149.7003  131.0727  153.0537 H   0  0  0  0  0  0  0  0  0  0  0  0
  151.0688  133.5473  155.7005 H   0  0  0  0  0  0  0  0  0  0  0  0
  149.7601  133.4001  156.8850 H   0  0  0  0  0  0  0  0  0  0  0  0
  150.1762  137.7073  157.8025 H   0  0  0  0  0  0  0  0  0  0  0  0
  150.8389  139.5723  158.9708 H   0  0  0  0  0  0  0  0  0  0  0  0
  1  2  1  0  0  0  0
  1 23  1  0  0  0  0
  1 24  1  0  0  0  0
  1 25  1  0  0  0  0
  2  3  1  0  0  0  0
  2 26  1  0  0  0  0
  2 27  1  0  0  0  0
  3  4  1  0  0  0  0
  3  6  1  0  0  0  0
  4  5  1  0  0  0  0
  4 28  1  0  0  0  0
  4 29  1  0  0  0  0
  5 30  1  0  0  0  0
  5 31  1  0  0  0  0
  5 32  1  0  0  0  0
  6 22  1  0  0  0  0
  6  7  2  0  0  0  0
  7  8  1  0  0  0  0
  7 33  1  0  0  0  0
  8  9  2  0  0  0  0
  8 34  1  0  0  0  0
  9 10  1  0  0  0  0
  9 21  1  0  0  0  0
 10 11  1  0  0  0  0
 10 35  1  0  0  0  0
 11 12  2  0  0  0  0
 11 13  1  0  0  0  0
 13 14  1  0  0  0  0
 13 36  1  0  0  0  0
 14 20  1  0  0  0  0
 14 15  1  0  0  0  0
 14 37  1  0  0  0  0
 15 16  1  0  0  0  0
 15 38  1  0  0  0  0
 15 39  1  0  0  0  0
 16 17  1  0  0  0  0
 16 40  1  0  0  0  0
 16 41  1  0  0  0  0
 17 18  2  0  0  0  0
 17 19  2  0  0  0  0
 17 20  1  0  0  0  0
 20 42  1  0  0  0  0
 20 43  1  0  0  0  0
 21 22  2  0  0  0  0
 21 44  1  0  0  0  0
 22 45  1  0  0  0  0
M  CHG  1  22   1
M  END
> <s_m_source_file>
AV-unprocessed.smi

> <i_m_source_file_index>
1754

> <i_lp_mmshare_version>
43012

> <i_f3d_flags>
0

> <s_epik_input>
W0NIM11bQ0gyXU4oW0NIMl1bQ0gzXSljMVtjSF1bY0hdYyhbY0hdbjEpW05IXUMoPU8pW05IXVtDQEBIXShbQ0gyXTIpW0NIMl1bQ0gyXVMyKD1PKT1P

> <s_epik_cmdline>
J2VwaWtfcHl0aG9uJywgJy1waCcsICc3LjAnLCAnLXRuJywgJzgnLCAnLW1hJywgJzIwMCcsICctbWV0YWxfYmluZGluZycsICctaW1hZScsICc8aW5maWxlLm1hZT4nLCAnLW9tYWUnLCAnPG91dGZpbGUubWFlPic=

> <r_lp_tautomer_probability>
0.999994

> <r_epik_Ionization_Penalty>
0.271106

> <r_epik_Ionization_Penalty_Charging>
0.271085

> <r_epik_Ionization_Penalty_Neutral>
2.10634e-05

> <r_epik_State_Penalty>
0.017795

> <r_epik_Charging_Adjusted_Penalty>
0.28888

> <i_epik_Tot_Q>
1

> <i_epik_Tot_abs_Q>
1

> <r_epik_Metal_State_Penalty>
0.0544868

> <b_epik_Metal_Only>
0

> <s_lp_Force_Field>
OPLS_2005

> <r_lp_Energy>
29.9971

> <b_lp_Chiralities_Consistent>
1

> <s_lp_Variant>
AV-unprocessed.smi:1754-2

> <Gold.Version>
5.8.1

> <Gold.Id.Protein>
6NUR|6NUR_protein|mol2

> <Gold.PLP.Fitness>
38.6170

> <Gold.PLP.PLP>
-37.4475

> <Gold.PLP.part.hbond>
-1.0000

> <Gold.PLP.part.metal>
0.0000

> <Gold.PLP.part.buried>
-3.1917

> <Gold.PLP.part.nonpolar>
-32.5967

> <Gold.PLP.part.repulsive>
0.1547

> <Gold.PLP.ligand.clash>
0.0000

> <Gold.PLP.ligand.torsion>
0.9388

> <Gold.PLP.Chemscore.Hbond>
1.0000

> <Gold.PLP.Chemscore.CHOScore>
0.0000

> <Gold.PLP.Chemscore.Metal>
0.0000

> <Gold.Chemscore.Hbonds>
donor molecule, donor type, donor heavy atom, donor atom, acceptor molecule, acceptor atom, score
      L1  H    13    36       P1  7948  1.00

> <Gold.PLP.Chemscore.Internal.Correction>
0.0471

> <Gold.Rescore>
     Score         DG    S(hbond)    S(metal)    S(lipo)     H(rot)  DE(clash)    DE(int)     intcor
     11.24     -14.97       0.96        0.00      84.44       1.41       0.02       3.71       ----

> <Gold.Chemscore.Fitness>
11.2387

> <Gold.Chemscore.DG>
-14.9680

> <Gold.Chemscore.ZeroCoef>
-5.4800

> <Gold.Chemscore.Hbond>
0.9612

> <Gold.Chemscore.Metal>
0.0000

> <Gold.Chemscore.Lipo>
84.4398

> <Gold.Chemscore.Internal_Hbond>
0.0000

> <Gold.Chemscore.DEClash>
0.0152

> <Gold.Chemscore.DEInternal>
3.7141

> <Gold.Chemscore.Rot>
1.4070

> <Gold.Chemscore.Internal.Correction>
   9.000000E+99

> <Gold.Chemscore.Hbonds>
donor molecule, donor type, donor heavy atom, donor atom, acceptor molecule, acceptor atom, score
      L1  H    13    36       P1  7948  0.44

> <Gold.Chemscore.Hbond.Weighted>
-3.2105

> <Gold.Chemscore.Metal.Weighted>
-0.0000

> <Gold.Chemscore.Lipo.Weighted>
-9.8795

> <Gold.Chemscore.Internal_Hbond.Weighted>
0.0000

> <Gold.Chemscore.DEClash.Weighted>
0.0152

> <Gold.Chemscore.DEInternal.Weighted>
3.7141

> <Gold.Chemscore.Rot.Weighted>
3.6020

> <Gold.Chemscore.Internal.Correction.Weighted>
   9.000000E+99

> <Gold.Protein.RotatedTorsions>
[ 6907 6896 6895 6894 ] final  131.09 input  -60.11 | X-H torsion
[ 7974 7965 7964 7962 ] final   27.80 input  175.53 | X-H torsion
[ 8008 7997 7996 7995 ] final -173.72 input   59.86 | X-H torsion
[ 10167 10162 10161 10158 ] final  156.85 input  -65.29 | X-H torsion
[ 10718 10713 10712 10709 ] final  171.39 input   66.30 | X-H torsion
[ 10763 10752 10751 10750 ] final -152.37 input  -60.55 | X-H torsion
[ 11005 11000 10999 10996 ] final -156.83 input  -57.11 | X-H torsion

> <Gold.Protein.ActiveResidues>
 VAL166  LYS551  ARG553  GLY616  TRP617  ASP618  TYR619  PRO620  LYS621  CYS622 
 ASP623  PHE694  ASN695  SER759  ASP760  ASP761  ALA762  ILE779  LEU786  VAL792 
 PHE793  MET794  SER795  GLU796  ALA797  LYS798  CYS799  TRP800  GLU811  SER814 

> <Gold.Protein.RotatedAtoms>
  152.3461  133.6123  159.5910 H   0  0  0  0  0  0  0  0  0  0  0  0  # atno 6907 bound_to 6896
  150.7508  133.9648  159.3536 H   0  0  0  0  0  0  0  0  0  0  0  0  # atno 6908 bound_to 6896
  151.7506  135.0834  160.0381 H   0  0  0  0  0  0  0  0  0  0  0  0  # atno 6909 bound_to 6896
  146.1764  139.7142  142.8931 H   0  0  0  0  0  0  0  0  0  0  0  0  # atno 7974 bound_to 7965
  155.9610  140.1144  157.0896 H   0  0  0  0  0  0  0  0  0  0  0  0  # atno 8008 bound_to 7997
  154.4132  140.1182  156.5245 H   0  0  0  0  0  0  0  0  0  0  0  0  # atno 8009 bound_to 7997
  155.6721  140.3473  155.4824 H   0  0  0  0  0  0  0  0  0  0  0  0  # atno 8010 bound_to 7997
  139.4822  144.4971  151.8223 H   0  0  0  0  0  0  0  0  0  0  0  0  # atno 10167 bound_to 10162
  156.9942  131.0157  151.2848 H   0  0  0  0  0  0  0  0  0  0  0  0  # atno 10718 bound_to 10713
  154.7998  135.3238  154.7577 H   0  0  0  0  0  0  0  0  0  0  0  0  # atno 10763 bound_to 10752
  153.8248  135.6884  153.4826 H   0  0  0  0  0  0  0  0  0  0  0  0  # atno 10764 bound_to 10752
  153.1709  135.4623  154.9844 H   0  0  0  0  0  0  0  0  0  0  0  0  # atno 10765 bound_to 10752
  140.6713  134.4244  157.5231 H   0  0  0  0  0  0  0  0  0  0  0  0  # atno 11005 bound_to 11000
  145.4199  141.0405  143.2970 LP  0  0  0  0  0  0  0  0  0  0  0  0  # atno 17320 bound_to 7965
  144.8243  139.5736  143.6972 LP  0  0  0  0  0  0  0  0  0  0  0  0  # atno 17321 bound_to 7965
  140.4461  144.1920  150.5894 LP  0  0  0  0  0  0  0  0  0  0  0  0  # atno 17342 bound_to 10162
  140.4633  143.2440  151.9190 LP  0  0  0  0  0  0  0  0  0  0  0  0  # atno 17343 bound_to 10162
  157.5437  130.8136  149.8059 LP  0  0  0  0  0  0  0  0  0  0  0  0  # atno 17370 bound_to 10713
  156.0195  130.3801  150.2005 LP  0  0  0  0  0  0  0  0  0  0  0  0  # atno 17371 bound_to 10713
  139.8981  134.8622  156.2017 LP  0  0  0  0  0  0  0  0  0  0  0  0  # atno 17394 bound_to 11000
  141.0390  133.6948  156.1564 LP  0  0  0  0  0  0  0  0  0  0  0  0  # atno 17395 bound_to 11000

$$$$
