AV-unprocessed.smi:379|AV-procd|sdf|2458|dock7
  -GOLD-   2262022403D 1   1.00000     0.00000
 Structure written by MMmdl.
 39 40  0  0  0  0  0  0  0  0  1 V2000
  149.1105  135.6604  155.4950 C   0  0  0  0  0  0  0  0  0  0  0  0
  148.3328  136.3066  156.6511 C   0  0  0  0  0  0  0  0  0  0  0  0
  149.1473  136.4472  157.9525 C   0  0  2  0  0  0  0  0  0  0  0  0
  148.2888  136.9938  159.1012 C   0  0  0  0  0  0  0  0  0  0  0  0
  150.2931  137.3320  157.7490 N   0  0  0  0  0  0  0  0  0  0  0  0
  151.2192  137.6509  158.6666 C   0  0  0  0  0  0  0  0  0  0  0  0
  151.1963  137.2375  159.8268 O   0  0  0  0  0  0  0  0  0  0  0  0
  152.3403  138.5824  158.1823 C   0  0  0  0  0  0  0  0  0  0  0  0
  151.8508  139.9001  157.7211 N   0  0  0  0  0  0  0  0  0  0  0  0
  151.0886  139.9545  156.5260 C   0  0  0  0  0  0  0  0  0  0  0  0
  150.8431  138.9320  155.8830 O   0  0  0  0  0  0  0  0  0  0  0  0
  150.6297  141.2844  156.1324 C   0  0  0  0  0  0  0  0  0  0  0  0
  149.8271  141.3753  154.9579 C   0  0  0  0  0  0  0  0  0  0  0  0
  149.1906  141.4671  153.9956 N   0  0  0  0  0  0  0  0  0  0  0  0
  150.9515  142.3739  156.8595 C   0  0  0  0  0  0  0  0  0  0  0  0
  151.7369  142.3056  157.9896 N   0  0  0  0  0  0  0  0  0  0  0  0
  151.9342  143.4495  158.8347 C   0  0  0  0  0  0  0  0  0  0  0  0
  151.2293  144.7448  158.4957 C   0  0  0  0  0  0  0  0  0  0  0  0
  152.7264  144.6420  158.3351 C   0  0  0  0  0  0  0  0  0  0  0  0
  152.1758  141.0542  158.4750 C   0  0  0  0  0  0  0  0  0  0  0  0
  152.8173  140.9677  159.5249 O   0  0  0  0  0  0  0  0  0  0  0  0
  148.4718  135.5380  154.6200 H   0  0  0  0  0  0  0  0  0  0  0  0
  149.4827  134.6747  155.7749 H   0  0  0  0  0  0  0  0  0  0  0  0
  149.9643  136.2680  155.1944 H   0  0  0  0  0  0  0  0  0  0  0  0
  147.9674  137.2849  156.3362 H   0  0  0  0  0  0  0  0  0  0  0  0
  147.4463  135.7035  156.8495 H   0  0  0  0  0  0  0  0  0  0  0  0
  149.4869  135.4532  158.2484 H   0  0  0  0  0  0  0  0  0  0  0  0
  147.4349  136.3444  159.2962 H   0  0  0  0  0  0  0  0  0  0  0  0
  147.9049  137.9890  158.8737 H   0  0  0  0  0  0  0  0  0  0  0  0
  148.8659  137.0618  160.0239 H   0  0  0  0  0  0  0  0  0  0  0  0
  150.3980  137.7251  156.8249 H   0  0  0  0  0  0  0  0  0  0  0  0
  153.0664  138.7100  158.9872 H   0  0  0  0  0  0  0  0  0  0  0  0
  152.9000  138.0632  157.4033 H   0  0  0  0  0  0  0  0  0  0  0  0
  150.5868  143.3401  156.5416 H   0  0  0  0  0  0  0  0  0  0  0  0
  152.0312  143.2292  159.8964 H   0  0  0  0  0  0  0  0  0  0  0  0
  150.6334  144.7830  157.5858 H   0  0  0  0  0  0  0  0  0  0  0  0
  150.8517  145.3400  159.3245 H   0  0  0  0  0  0  0  0  0  0  0  0
  153.3481  145.1677  159.0570 H   0  0  0  0  0  0  0  0  0  0  0  0
  153.1159  144.6131  157.3192 H   0  0  0  0  0  0  0  0  0  0  0  0
  1  2  1  0  0  0  0
  1 22  1  0  0  0  0
  1 23  1  0  0  0  0
  1 24  1  0  0  0  0
  2  3  1  0  0  0  0
  2 25  1  0  0  0  0
  2 26  1  0  0  0  0
  3  4  1  0  0  0  0
  3  5  1  0  0  0  0
  3 27  1  0  0  0  0
  4 28  1  0  0  0  0
  4 29  1  0  0  0  0
  4 30  1  0  0  0  0
  5  6  1  0  0  0  0
  5 31  1  0  0  0  0
  6  7  2  0  0  0  0
  6  8  1  0  0  0  0
  8  9  1  0  0  0  0
  8 32  1  0  0  0  0
  8 33  1  0  0  0  0
  9 20  1  0  0  0  0
  9 10  1  0  0  0  0
 10 11  2  0  0  0  0
 10 12  1  0  0  0  0
 12 13  1  0  0  0  0
 12 15  2  0  0  0  0
 13 14  3  0  0  0  0
 15 16  1  0  0  0  0
 15 34  1  0  0  0  0
 16 17  1  0  0  0  0
 16 20  1  0  0  0  0
 17 19  1  0  0  0  0
 17 18  1  0  0  0  0
 17 35  1  0  0  0  0
 18 19  1  0  0  0  0
 18 36  1  0  0  0  0
 18 37  1  0  0  0  0
 19 38  1  0  0  0  0
 19 39  1  0  0  0  0
 20 21  2  0  0  0  0
M  END
> <s_m_source_file>
AV-unprocessed.smi

> <i_m_source_file_index>
379

> <i_lp_mmshare_version>
43012

> <i_f3d_flags>
0

> <s_epik_input>
W0NIM11bQ0gyXVtDQEhdKFtDSDNdKVtOSF1DKD1PKVtDSDJdbjFjKD1PKWMoQyNOKVtjSF1uKGMxPU8pW0NIXTJbQ0gyXVtDSDJdMg==

> <s_epik_cmdline>
J2VwaWtfcHl0aG9uJywgJy1waCcsICc3LjAnLCAnLXRuJywgJzgnLCAnLW1hJywgJzIwMCcsICctbWV0YWxfYmluZGluZycsICctaW1hZScsICc8aW5maWxlLm1hZT4nLCAnLW9tYWUnLCAnPG91dGZpbGUubWFlPic=

> <r_lp_tautomer_probability>
1

> <r_epik_Ionization_Penalty>
1.93863e-08

> <r_epik_Ionization_Penalty_Charging>
8.45512e-11

> <r_epik_Ionization_Penalty_Neutral>
1.93017e-08

> <r_epik_State_Penalty>
-0

> <r_epik_Charging_Adjusted_Penalty>
8.45512e-11

> <i_epik_Tot_Q>
0

> <i_epik_Tot_abs_Q>
0

> <r_epik_Metal_State_Penalty>
-0

> <b_epik_Metal_Only>
0

> <s_lp_Force_Field>
OPLS_2005

> <r_lp_Energy>
29.5524

> <b_lp_Chiralities_Consistent>
1

> <s_lp_Variant>
AV-unprocessed.smi:379-1

> <Gold.Version>
5.8.1

> <Gold.Id.Protein>
6NUR|6NUR_protein|mol2

> <Gold.PLP.Fitness>
44.9361

> <Gold.PLP.PLP>
-36.9874

> <Gold.PLP.part.hbond>
-2.9584

> <Gold.PLP.part.metal>
0.0000

> <Gold.PLP.part.buried>
-5.0314

> <Gold.PLP.part.nonpolar>
-29.4537

> <Gold.PLP.part.repulsive>
0.2422

> <Gold.PLP.ligand.clash>
0.0000

> <Gold.PLP.ligand.torsion>
0.1875

> <Gold.PLP.Chemscore.Hbond>
1.6969

> <Gold.PLP.Chemscore.CHOScore>
1.0000

> <Gold.PLP.Chemscore.Metal>
0.0000

> <Gold.Chemscore.Hbonds>
donor molecule, donor type, donor heavy atom, donor atom, acceptor molecule, acceptor atom, score
      P1  H  6896  6907       L1     7  0.83
      P1  H  8011  8017       L1    14  0.70
      L1  C    15    34       P1  8028  1.00

> <Gold.PLP.Chemscore.Internal.Correction>
0.2331

> <Gold.Rescore>
     Score         DG    S(hbond)    S(metal)    S(lipo)     H(rot)  DE(clash)    DE(int)     intcor
     12.08     -14.11       1.70        0.00      68.45       1.98       0.14       1.88       ----

> <Gold.Chemscore.Fitness>
12.0846

> <Gold.Chemscore.DG>
-14.1063

> <Gold.Chemscore.ZeroCoef>
-5.4800

> <Gold.Chemscore.Hbond>
1.7006

> <Gold.Chemscore.Metal>
0.0000

> <Gold.Chemscore.Lipo>
68.4482

> <Gold.Chemscore.Internal_Hbond>
0.0000

> <Gold.Chemscore.DEClash>
0.1449

> <Gold.Chemscore.DEInternal>
1.8768

> <Gold.Chemscore.Rot>
1.9774

> <Gold.Chemscore.Internal.Correction>
   9.000000E+99

> <Gold.Chemscore.Hbonds>
donor molecule, donor type, donor heavy atom, donor atom, acceptor molecule, acceptor atom, score
      P1  H  6896  6907       L1     7  0.73
      P1  H  8011  8017       L1    14  0.67

> <Gold.Chemscore.Hbond.Weighted>
-5.6801

> <Gold.Chemscore.Metal.Weighted>
-0.0000

> <Gold.Chemscore.Lipo.Weighted>
-8.0084

> <Gold.Chemscore.Internal_Hbond.Weighted>
0.0000

> <Gold.Chemscore.DEClash.Weighted>
0.1449

> <Gold.Chemscore.DEInternal.Weighted>
1.8768

> <Gold.Chemscore.Rot.Weighted>
5.0623

> <Gold.Chemscore.Internal.Correction.Weighted>
   9.000000E+99

> <Gold.Protein.RotatedTorsions>
[ 6907 6896 6895 6894 ] final   -0.84 input  -60.11 | X-H torsion
[ 7974 7965 7964 7962 ] final   64.97 input  175.53 | X-H torsion
[ 8008 7997 7996 7995 ] final  -61.34 input   59.86 | X-H torsion
[ 10167 10162 10161 10158 ] final   16.47 input  -65.29 | X-H torsion
[ 10718 10713 10712 10709 ] final -137.25 input   66.30 | X-H torsion
[ 10763 10752 10751 10750 ] final -123.49 input  -60.55 | X-H torsion
[ 11005 11000 10999 10996 ] final   75.64 input  -57.11 | X-H torsion

> <Gold.Protein.ActiveResidues>
 VAL166  LYS551  ARG553  GLY616  TRP617  ASP618  TYR619  PRO620  LYS621  CYS622 
 ASP623  PHE694  ASN695  SER759  ASP760  ASP761  ALA762  ILE779  LEU786  VAL792 
 PHE793  MET794  SER795  GLU796  ALA797  LYS798  CYS799  TRP800  GLU811  SER814 

> <Gold.Protein.RotatedAtoms>
  151.5557  135.1066  159.9960 H   0  0  0  0  0  0  0  0  0  0  0  0  # atno 6907 bound_to 6896
  152.4470  133.7552  159.6727 H   0  0  0  0  0  0  0  0  0  0  0  0  # atno 6908 bound_to 6896
  150.8389  133.7901  159.3093 H   0  0  0  0  0  0  0  0  0  0  0  0  # atno 6909 bound_to 6896
  145.8440  139.3213  143.0914 H   0  0  0  0  0  0  0  0  0  0  0  0  # atno 7974 bound_to 7965
  154.4443  140.1020  156.6415 H   0  0  0  0  0  0  0  0  0  0  0  0  # atno 8008 bound_to 7997
  155.5496  140.3485  155.4447 H   0  0  0  0  0  0  0  0  0  0  0  0  # atno 8009 bound_to 7997
  156.0538  140.1310  157.0009 H   0  0  0  0  0  0  0  0  0  0  0  0  # atno 8010 bound_to 7997
  140.5795  143.9009  150.6777 H   0  0  0  0  0  0  0  0  0  0  0  0  # atno 10167 bound_to 10162
  156.2861  130.7348  151.1360 H   0  0  0  0  0  0  0  0  0  0  0  0  # atno 10718 bound_to 10713
  154.8708  135.4096  154.2951 H   0  0  0  0  0  0  0  0  0  0  0  0  # atno 10763 bound_to 10752
  153.3820  135.7012  153.6563 H   0  0  0  0  0  0  0  0  0  0  0  0  # atno 10764 bound_to 10752
  153.5382  135.3653  155.2678 H   0  0  0  0  0  0  0  0  0  0  0  0  # atno 10765 bound_to 10752
  139.9334  134.7535  156.1296 H   0  0  0  0  0  0  0  0  0  0  0  0  # atno 11005 bound_to 11000
  145.9433  140.8963  143.0296 LP  0  0  0  0  0  0  0  0  0  0  0  0  # atno 17320 bound_to 7965
  144.6732  140.1578  143.7425 LP  0  0  0  0  0  0  0  0  0  0  0  0  # atno 17321 bound_to 7965
  140.2504  143.3597  152.1410 LP  0  0  0  0  0  0  0  0  0  0  0  0  # atno 17342 bound_to 10162
  139.5161  144.6973  151.5594 LP  0  0  0  0  0  0  0  0  0  0  0  0  # atno 17343 bound_to 10162
  157.7329  131.0596  150.5606 LP  0  0  0  0  0  0  0  0  0  0  0  0  # atno 17370 bound_to 10713
  156.5717  130.4281  149.6016 LP  0  0  0  0  0  0  0  0  0  0  0  0  # atno 17371 bound_to 10713
  141.0935  133.6704  156.2594 LP  0  0  0  0  0  0  0  0  0  0  0  0  # atno 17394 bound_to 11000
  140.6140  134.5429  157.5538 LP  0  0  0  0  0  0  0  0  0  0  0  0  # atno 17395 bound_to 11000

$$$$
