AV-unprocessed.smi:1035|AV-procd|sdf|4515|dock5
  -GOLD-   22720 2523D 1   1.00000     0.00000
 Structure written by MMmdl.
 42 43  0  0  0  0  0  0  0  0  1 V2000
  155.1918  133.2038  165.5391 C   0  0  0  0  0  0  0  0  0  0  0  0
  155.0550  134.5733  164.8969 C   0  0  0  0  0  0  0  0  0  0  0  0
  154.9216  135.6914  165.6429 C   0  0  0  0  0  0  0  0  0  0  0  0
  154.7872  136.9881  165.0250 C   0  0  0  0  0  0  0  0  0  0  0  0
  154.7996  137.0562  163.6863 C   0  0  0  0  0  0  0  0  0  0  0  0
  154.9401  135.9071  162.8860 N   0  0  0  0  0  0  0  0  0  0  0  0
  154.9345  136.1065  161.4264 C   0  0  0  0  0  0  0  0  0  0  0  0
  153.8826  137.1186  160.9491 C   0  0  0  0  0  0  0  0  0  0  0  0
  152.7782  136.7482  160.5478 O   0  0  0  0  0  0  0  0  0  0  0  0
  154.2420  138.4081  161.0124 N   0  0  0  0  0  0  0  0  0  0  0  0
  153.3942  139.5220  160.6055 C   0  0  0  0  0  0  0  0  0  0  0  0
  154.0381  140.8754  160.9521 C   0  0  0  0  0  0  0  0  0  0  0  0
  153.1141  142.0653  160.7371 C   0  0  0  0  0  0  0  0  0  0  0  0
  152.7882  142.9064  161.7381 C   0  0  0  0  0  0  0  0  0  0  0  0
  151.8883  144.1189  161.5749 C   0  0  0  0  0  0  0  0  0  0  0  0
  151.6651  144.4885  160.0987 C   0  0  0  0  0  0  0  0  0  0  0  0
  151.4027  143.2391  159.2488 C   0  0  0  0  0  0  0  0  0  0  0  0
  152.5836  142.2545  159.3205 C   0  0  0  0  0  0  0  0  0  0  0  0
  155.0694  134.6545  163.4242 C   0  0  0  0  0  0  0  0  0  0  0  0
  155.1899  133.6571  162.7099 O   0  0  0  0  0  0  0  0  0  0  0  0
  155.1759  133.2706  166.6274 H   0  0  0  0  0  0  0  0  0  0  0  0
  156.1315  132.7359  165.2443 H   0  0  0  0  0  0  0  0  0  0  0  0
  154.3717  132.5548  165.2301 H   0  0  0  0  0  0  0  0  0  0  0  0
  154.9113  135.6220  166.7211 H   0  0  0  0  0  0  0  0  0  0  0  0
  154.6752  137.8793  165.6248 H   0  0  0  0  0  0  0  0  0  0  0  0
  154.6970  137.9861  163.1457 H   0  0  0  0  0  0  0  0  0  0  0  0
  155.9130  136.4466  161.0840 H   0  0  0  0  0  0  0  0  0  0  0  0
  154.7716  135.1545  160.9173 H   0  0  0  0  0  0  0  0  0  0  0  0
  155.1653  138.6337  161.3534 H   0  0  0  0  0  0  0  0  0  0  0  0
  153.2050  139.4575  159.5330 H   0  0  0  0  0  0  0  0  0  0  0  0
  152.4255  139.4405  161.1011 H   0  0  0  0  0  0  0  0  0  0  0  0
  154.3639  140.8718  161.9926 H   0  0  0  0  0  0  0  0  0  0  0  0
  154.9409  141.0054  160.3536 H   0  0  0  0  0  0  0  0  0  0  0  0
  153.1695  142.7309  162.7334 H   0  0  0  0  0  0  0  0  0  0  0  0
  150.9351  143.8979  162.0562 H   0  0  0  0  0  0  0  0  0  0  0  0
  152.3238  144.9650  162.1069 H   0  0  0  0  0  0  0  0  0  0  0  0
  150.8345  145.1896  160.0111 H   0  0  0  0  0  0  0  0  0  0  0  0
  152.5465  145.0035  159.7140 H   0  0  0  0  0  0  0  0  0  0  0  0
  150.4968  142.7475  159.6062 H   0  0  0  0  0  0  0  0  0  0  0  0
  151.2134  143.5180  158.2119 H   0  0  0  0  0  0  0  0  0  0  0  0
  153.4020  142.6162  158.6971 H   0  0  0  0  0  0  0  0  0  0  0  0
  152.2780  141.2905  158.9126 H   0  0  0  0  0  0  0  0  0  0  0  0
  1  2  1  0  0  0  0
  1 21  1  0  0  0  0
  1 22  1  0  0  0  0
  1 23  1  0  0  0  0
  2 19  1  0  0  0  0
  2  3  2  0  0  0  0
  3  4  1  0  0  0  0
  3 24  1  0  0  0  0
  4  5  2  0  0  0  0
  4 25  1  0  0  0  0
  5  6  1  0  0  0  0
  5 26  1  0  0  0  0
  6  7  1  0  0  0  0
  6 19  1  0  0  0  0
  7  8  1  0  0  0  0
  7 27  1  0  0  0  0
  7 28  1  0  0  0  0
  8  9  2  0  0  0  0
  8 10  1  0  0  0  0
 10 11  1  0  0  0  0
 10 29  1  0  0  0  0
 11 12  1  0  0  0  0
 11 30  1  0  0  0  0
 11 31  1  0  0  0  0
 12 13  1  0  0  0  0
 12 32  1  0  0  0  0
 12 33  1  0  0  0  0
 13 18  1  0  0  0  0
 13 14  2  0  0  0  0
 14 15  1  0  0  0  0
 14 34  1  0  0  0  0
 15 16  1  0  0  0  0
 15 35  1  0  0  0  0
 15 36  1  0  0  0  0
 16 17  1  0  0  0  0
 16 37  1  0  0  0  0
 16 38  1  0  0  0  0
 17 18  1  0  0  0  0
 17 39  1  0  0  0  0
 17 40  1  0  0  0  0
 18 41  1  0  0  0  0
 18 42  1  0  0  0  0
 19 20  2  0  0  0  0
M  END
> <s_m_source_file>
AV-unprocessed.smi

> <i_m_source_file_index>
1035

> <i_lp_mmshare_version>
43012

> <i_f3d_flags>
0

> <s_epik_input>
W0NIM11jMVtjSF1bY0hdW2NIXW4oYzE9TylbQ0gyXUMoPU8pW05IXVtDSDJdW0NIMl1DMj1bQ0hdW0NIMl1bQ0gyXVtDSDJdW0NIMl0y

> <s_epik_cmdline>
J2VwaWtfcHl0aG9uJywgJy1waCcsICc3LjAnLCAnLXRuJywgJzgnLCAnLW1hJywgJzIwMCcsICctbWV0YWxfYmluZGluZycsICctaW1hZScsICc8aW5maWxlLm1hZT4nLCAnLW9tYWUnLCAnPG91dGZpbGUubWFlPic=

> <r_lp_tautomer_probability>
1

> <r_epik_Ionization_Penalty>
7.80073e-07

> <r_epik_Ionization_Penalty_Charging>
7.6197e-07

> <r_epik_Ionization_Penalty_Neutral>
1.81035e-08

> <r_epik_State_Penalty>
-0

> <r_epik_Charging_Adjusted_Penalty>
7.6197e-07

> <i_epik_Tot_Q>
0

> <i_epik_Tot_abs_Q>
0

> <r_epik_Metal_State_Penalty>
-0

> <b_epik_Metal_Only>
0

> <s_lp_Force_Field>
OPLS_2005

> <r_lp_Energy>
17.5966

> <b_lp_Chiralities_Consistent>
1

> <s_lp_Variant>
AV-unprocessed.smi:1035-1

> <Gold.Version>
5.8.1

> <Gold.Id.Protein>
6NUR|6NUR_protein|mol2

> <Gold.PLP.Fitness>
50.1871

> <Gold.PLP.PLP>
-48.4298

> <Gold.PLP.part.hbond>
-1.0000

> <Gold.PLP.part.metal>
0.0000

> <Gold.PLP.part.buried>
-0.9209

> <Gold.PLP.part.nonpolar>
-47.0881

> <Gold.PLP.part.repulsive>
0.0058

> <Gold.PLP.ligand.clash>
0.0000

> <Gold.PLP.ligand.torsion>
0.6273

> <Gold.PLP.Chemscore.Hbond>
0.9913

> <Gold.PLP.Chemscore.CHOScore>
0.0000

> <Gold.PLP.Chemscore.Metal>
0.0000

> <Gold.Chemscore.Hbonds>
donor molecule, donor type, donor heavy atom, donor atom, acceptor molecule, acceptor atom, score
      P1  H  6896  6907       L1     9  1.00

> <Gold.PLP.Chemscore.Internal.Correction>
0.0381

> <Gold.Rescore>
     Score         DG    S(hbond)    S(metal)    S(lipo)     H(rot)  DE(clash)    DE(int)     intcor
     18.51     -19.89       0.97        0.00     131.09       1.63       0.73       0.65       ----

> <Gold.Chemscore.Fitness>
18.5131

> <Gold.Chemscore.DG>
-19.8882

> <Gold.Chemscore.ZeroCoef>
-5.4800

> <Gold.Chemscore.Hbond>
0.9719

> <Gold.Chemscore.Metal>
0.0000

> <Gold.Chemscore.Lipo>
131.0921

> <Gold.Chemscore.Internal_Hbond>
0.0000

> <Gold.Chemscore.DEClash>
0.7285

> <Gold.Chemscore.DEInternal>
0.6467

> <Gold.Chemscore.Rot>
1.6311

> <Gold.Chemscore.Internal.Correction>
   9.000000E+99

> <Gold.Chemscore.Hbonds>
donor molecule, donor type, donor heavy atom, donor atom, acceptor molecule, acceptor atom, score
      P1  H  6896  6907       L1     9  1.00

> <Gold.Chemscore.Hbond.Weighted>
-3.2462

> <Gold.Chemscore.Metal.Weighted>
-0.0000

> <Gold.Chemscore.Lipo.Weighted>
-15.3378

> <Gold.Chemscore.Internal_Hbond.Weighted>
0.0000

> <Gold.Chemscore.DEClash.Weighted>
0.7285

> <Gold.Chemscore.DEInternal.Weighted>
0.6467

> <Gold.Chemscore.Rot.Weighted>
4.1757

> <Gold.Chemscore.Internal.Correction.Weighted>
   9.000000E+99

> <Gold.Protein.RotatedTorsions>
[ 6907 6896 6895 6894 ] final   25.51 input  -60.11 | X-H torsion
[ 7974 7965 7964 7962 ] final  -34.69 input  175.53 | X-H torsion
[ 8008 7997 7996 7995 ] final   38.31 input   59.86 | X-H torsion
[ 10167 10162 10161 10158 ] final -125.06 input  -65.29 | X-H torsion
[ 10718 10713 10712 10709 ] final  120.29 input   66.30 | X-H torsion
[ 10763 10752 10751 10750 ] final -137.84 input  -60.55 | X-H torsion
[ 11005 11000 10999 10996 ] final   30.10 input  -57.11 | X-H torsion

> <Gold.Protein.ActiveResidues>
 VAL166  LYS551  ARG553  GLY616  TRP617  ASP618  TYR619  PRO620  LYS621  CYS622 
 ASP623  PHE694  ASN695  SER759  ASP760  ASP761  ALA762  ILE779  LEU786  VAL792 
 PHE793  MET794  SER795  GLU796  ALA797  LYS798  CYS799  TRP800  GLU811  SER814 

> <Gold.Protein.RotatedAtoms>
  151.9737  135.0064  160.0553 H   0  0  0  0  0  0  0  0  0  0  0  0  # atno 6907 bound_to 6896
  152.1760  133.4670  159.4942 H   0  0  0  0  0  0  0  0  0  0  0  0  # atno 6908 bound_to 6896
  150.6909  134.1811  159.4292 H   0  0  0  0  0  0  0  0  0  0  0  0  # atno 6909 bound_to 6896
  146.0808  140.6069  142.8909 H   0  0  0  0  0  0  0  0  0  0  0  0  # atno 7974 bound_to 7965
  155.2180  140.3328  155.4319 H   0  0  0  0  0  0  0  0  0  0  0  0  # atno 8008 bound_to 7997
  156.2344  140.1865  156.7205 H   0  0  0  0  0  0  0  0  0  0  0  0  # atno 8009 bound_to 7997
  154.6034  140.0620  156.9384 H   0  0  0  0  0  0  0  0  0  0  0  0  # atno 8010 bound_to 7997
  139.9861  143.5690  152.2360 H   0  0  0  0  0  0  0  0  0  0  0  0  # atno 10167 bound_to 10162
  157.5901  131.1065  150.8015 H   0  0  0  0  0  0  0  0  0  0  0  0  # atno 10718 bound_to 10713
  154.8652  135.3630  154.5288 H   0  0  0  0  0  0  0  0  0  0  0  0  # atno 10763 bound_to 10752
  153.5915  135.7015  153.5426 H   0  0  0  0  0  0  0  0  0  0  0  0  # atno 10764 bound_to 10752
  153.3369  135.4109  155.1503 H   0  0  0  0  0  0  0  0  0  0  0  0  # atno 10765 bound_to 10752
  140.2980  134.2789  155.7760 H   0  0  0  0  0  0  0  0  0  0  0  0  # atno 11005 bound_to 11000
  144.7292  140.4620  143.6950 LP  0  0  0  0  0  0  0  0  0  0  0  0  # atno 17320 bound_to 7965
  145.6221  139.1525  143.3017 LP  0  0  0  0  0  0  0  0  0  0  0  0  # atno 17321 bound_to 7965
  139.6374  144.7651  151.2410 LP  0  0  0  0  0  0  0  0  0  0  0  0  # atno 17342 bound_to 10162
  140.7472  143.6375  150.8365 LP  0  0  0  0  0  0  0  0  0  0  0  0  # atno 17343 bound_to 10162
  156.8439  130.5057  149.5318 LP  0  0  0  0  0  0  0  0  0  0  0  0  # atno 17370 bound_to 10713
  156.0955  130.5929  150.9806 LP  0  0  0  0  0  0  0  0  0  0  0  0  # atno 17371 bound_to 10713
  141.2133  133.7627  156.9724 LP  0  0  0  0  0  0  0  0  0  0  0  0  # atno 17394 bound_to 11000
  140.1135  134.9462  157.2100 LP  0  0  0  0  0  0  0  0  0  0  0  0  # atno 17395 bound_to 11000

$$$$
