AV-unprocessed.smi:3042|AV-procd|sdf|11600|dock10
  -GOLD-   2272016583D 1   1.00000     0.00000
 Structure written by MMmdl.
 33 34  0  0  0  0  0  0  0  0  2 V2000
  146.2252  136.9842  150.7564 N   0  3  0  0  0  0  0  0  0  0  0  0
  145.1734  135.9540  150.6766 C   0  0  0  0  0  0  0  0  0  0  0  0
  144.8868  135.3037  152.0548 C   0  0  1  0  0  0  0  0  0  0  0  0
  143.5415  135.8153  152.5686 C   0  0  0  0  0  0  0  0  0  0  0  0
  142.5489  134.9282  153.0413 C   0  0  0  0  0  0  0  0  0  0  0  0
  141.3246  135.4554  153.4941 C   0  0  0  0  0  0  0  0  0  0  0  0
  141.1420  136.8518  153.4603 C   0  0  0  0  0  0  0  0  0  0  0  0
  142.0824  137.7106  153.0116 N   0  0  0  0  0  0  0  0  0  0  0  0
  143.2542  137.1979  152.5804 C   0  0  0  0  0  0  0  0  0  0  0  0
  144.9395  133.8266  152.0565 N   0  0  0  0  0  0  0  0  0  0  0  0
  146.3184  133.3273  151.9901 C   0  0  0  0  0  0  0  0  0  0  0  0
  146.3907  131.7909  151.9923 C   0  0  0  0  0  0  0  0  0  0  0  0
  145.6326  131.2789  150.9041 O   0  0  0  0  0  0  0  0  0  0  0  0
  144.2714  131.6849  150.9561 C   0  0  0  0  0  0  0  0  0  0  0  0
  144.1863  133.2215  150.9542 C   0  0  0  0  0  0  0  0  0  0  0  0
  146.4198  137.3410  149.8319 H   0  0  0  0  0  0  0  0  0  0  0  0
  147.0652  136.5804  151.1454 H   0  0  0  0  0  0  0  0  0  0  0  0
  144.2695  136.4047  150.2654 H   0  0  0  0  0  0  0  0  0  0  0  0
  145.5240  135.2204  149.9524 H   0  0  0  0  0  0  0  0  0  0  0  0
  145.6523  135.6646  152.7440 H   0  0  0  0  0  0  0  0  0  0  0  0
  142.7216  133.8621  153.0561 H   0  0  0  0  0  0  0  0  0  0  0  0
  140.5438  134.8052  153.8607 H   0  0  0  0  0  0  0  0  0  0  0  0
  140.2157  137.2900  153.8011 H   0  0  0  0  0  0  0  0  0  0  0  0
  143.9824  137.9138  152.2285 H   0  0  0  0  0  0  0  0  0  0  0  0
  146.8050  133.7069  151.0904 H   0  0  0  0  0  0  0  0  0  0  0  0
  146.9023  133.6925  152.8345 H   0  0  0  0  0  0  0  0  0  0  0  0
  147.4247  131.4610  151.8914 H   0  0  0  0  0  0  0  0  0  0  0  0
  146.0147  131.3861  152.9334 H   0  0  0  0  0  0  0  0  0  0  0  0
  143.7451  131.2756  150.0938 H   0  0  0  0  0  0  0  0  0  0  0  0
  143.7945  131.2726  151.8470 H   0  0  0  0  0  0  0  0  0  0  0  0
  143.1324  133.4860  151.0188 H   0  0  0  0  0  0  0  0  0  0  0  0
  144.5533  133.6037  150.0004 H   0  0  0  0  0  0  0  0  0  0  0  0
  145.9094  137.7386  151.3494 H   0  0  0  0  0  0  0  0  0  0  0  0
  1  2  1  0  0  0  0
  1 16  1  0  0  0  0
  1 17  1  0  0  0  0
  1 33  1  0  0  0  0
  2  3  1  0  0  0  0
  2 18  1  0  0  0  0
  2 19  1  0  0  0  0
  3  4  1  0  0  0  0
  3 10  1  0  0  0  0
  3 20  1  0  0  0  0
  4  9  1  0  0  0  0
  4  5  2  0  0  0  0
  5  6  1  0  0  0  0
  5 21  1  0  0  0  0
  6  7  2  0  0  0  0
  6 22  1  0  0  0  0
  7  8  1  0  0  0  0
  7 23  1  0  0  0  0
  8  9  2  0  0  0  0
  9 24  1  0  0  0  0
 10 15  1  0  0  0  0
 10 11  1  0  0  0  0
 11 12  1  0  0  0  0
 11 25  1  0  0  0  0
 11 26  1  0  0  0  0
 12 13  1  0  0  0  0
 12 27  1  0  0  0  0
 12 28  1  0  0  0  0
 13 14  1  0  0  0  0
 14 15  1  0  0  0  0
 14 29  1  0  0  0  0
 14 30  1  0  0  0  0
 15 31  1  0  0  0  0
 15 32  1  0  0  0  0
M  CHG  1   1   1
M  END
> <s_m_source_file>
AV-unprocessed.smi

> <i_m_source_file_index>
3042

> <i_lp_mmshare_version>
43012

> <i_f3d_flags>
0

> <s_epik_input>
W0NIMl0xW0NIMl1PW0NIMl1bQ0gyXU4xW0NASF0oW0NIMl1bTkgyXSljMltjSF1bY0hdW2NIXW5bY0hdMg==

> <s_epik_cmdline>
J2VwaWtfcHl0aG9uJywgJy1waCcsICc3LjAnLCAnLXRuJywgJzgnLCAnLW1hJywgJzIwMCcsICctbWV0YWxfYmluZGluZycsICctaW1hZScsICc8aW5maWxlLm1hZT4nLCAnLW9tYWUnLCAnPG91dGZpbGUubWFlPic=

> <r_epik_Ionization_Penalty>
0.0112597

> <r_epik_Ionization_Penalty_Charging>
0.00794922

> <r_epik_Ionization_Penalty_Neutral>
0.00331052

> <r_epik_State_Penalty>
0.00596555

> <r_epik_Charging_Adjusted_Penalty>
0.0139148

> <i_epik_Tot_Q>
1

> <i_epik_Tot_abs_Q>
1

> <r_epik_Metal_State_Penalty>
0.00603286

> <b_epik_Metal_Only>
0

> <s_lp_Force_Field>
OPLS_2005

> <r_lp_Energy>
28.2789

> <b_lp_Chiralities_Consistent>
1

> <s_lp_Variant>
AV-unprocessed.smi:3042-2

> <Gold.Version>
5.8.1

> <Gold.Id.Protein>
6NUR|6NUR_protein|mol2

> <Gold.PLP.Fitness>
37.4778

> <Gold.PLP.PLP>
-28.6462

> <Gold.PLP.part.hbond>
-2.0000

> <Gold.PLP.part.metal>
0.0000

> <Gold.PLP.part.buried>
-3.7895

> <Gold.PLP.part.nonpolar>
-22.1760

> <Gold.PLP.part.repulsive>
0.5745

> <Gold.PLP.ligand.clash>
0.0000

> <Gold.PLP.ligand.torsion>
1.0354

> <Gold.PLP.Chemscore.Hbond>
2.0000

> <Gold.PLP.Chemscore.CHOScore>
1.6097

> <Gold.PLP.Chemscore.Metal>
0.0000

> <Gold.Chemscore.Hbonds>
donor molecule, donor type, donor heavy atom, donor atom, acceptor molecule, acceptor atom, score
      L1  H     1    17       P1  7948  2.00
      L1  C     9    24       P1 10171  0.74
      L1  C     9    24       P1 10175  0.80

> <Gold.PLP.Chemscore.Internal.Correction>
0.0734

> <Gold.Rescore>
     Score         DG    S(hbond)    S(metal)    S(lipo)     H(rot)  DE(clash)    DE(int)     intcor
     11.87     -12.84       0.99        0.00      67.14       1.48       0.02       0.95       ----

> <Gold.Chemscore.Fitness>
11.8703

> <Gold.Chemscore.DG>
-12.8433

> <Gold.Chemscore.ZeroCoef>
-5.4800

> <Gold.Chemscore.Hbond>
0.9906

> <Gold.Chemscore.Metal>
0.0000

> <Gold.Chemscore.Lipo>
67.1385

> <Gold.Chemscore.Internal_Hbond>
0.0000

> <Gold.Chemscore.DEClash>
0.0237

> <Gold.Chemscore.DEInternal>
0.9493

> <Gold.Chemscore.Rot>
1.4846

> <Gold.Chemscore.Internal.Correction>
   9.000000E+99

> <Gold.Chemscore.Hbonds>
donor molecule, donor type, donor heavy atom, donor atom, acceptor molecule, acceptor atom, score
      L1  H     1    17       P1  7948  0.96

> <Gold.Chemscore.Hbond.Weighted>
-3.3086

> <Gold.Chemscore.Metal.Weighted>
-0.0000

> <Gold.Chemscore.Lipo.Weighted>
-7.8552

> <Gold.Chemscore.Internal_Hbond.Weighted>
0.0000

> <Gold.Chemscore.DEClash.Weighted>
0.0237

> <Gold.Chemscore.DEInternal.Weighted>
0.9493

> <Gold.Chemscore.Rot.Weighted>
3.8005

> <Gold.Chemscore.Internal.Correction.Weighted>
   9.000000E+99

> <Gold.Protein.RotatedTorsions>
[ 6907 6896 6895 6894 ] final  -52.74 input  -60.11 | X-H torsion
[ 7974 7965 7964 7962 ] final  164.39 input  175.53 | X-H torsion
[ 8008 7997 7996 7995 ] final  116.91 input   59.86 | X-H torsion
[ 10167 10162 10161 10158 ] final  -45.45 input  -65.29 | X-H torsion
[ 10718 10713 10712 10709 ] final  165.99 input   66.30 | X-H torsion
[ 10763 10752 10751 10750 ] final  -23.20 input  -60.55 | X-H torsion
[ 11005 11000 10999 10996 ] final -140.48 input  -57.11 | X-H torsion

> <Gold.Protein.ActiveResidues>
 VAL166  LYS551  ARG553  GLY616  TRP617  ASP618  TYR619  PRO620  LYS621  CYS622 
 ASP623  PHE694  ASN695  SER759  ASP760  ASP761  ALA762  ILE779  LEU786  VAL792 
 PHE793  MET794  SER795  GLU796  ALA797  LYS798  CYS799  TRP800  GLU811  SER814 

> <Gold.Protein.RotatedAtoms>
  150.8490  134.7809  159.6993 H   0  0  0  0  0  0  0  0  0  0  0  0  # atno 6907 bound_to 6896
  152.4560  134.5288  159.9814 H   0  0  0  0  0  0  0  0  0  0  0  0  # atno 6908 bound_to 6896
  151.5412  133.3394  159.2971 H   0  0  0  0  0  0  0  0  0  0  0  0  # atno 6909 bound_to 6896
  144.7547  139.8319  143.6354 H   0  0  0  0  0  0  0  0  0  0  0  0  # atno 7974 bound_to 7965
  156.2465  140.2907  156.0597 H   0  0  0  0  0  0  0  0  0  0  0  0  # atno 8008 bound_to 7997
  155.1789  140.0403  157.2895 H   0  0  0  0  0  0  0  0  0  0  0  0  # atno 8009 bound_to 7997
  154.6273  140.2490  155.7483 H   0  0  0  0  0  0  0  0  0  0  0  0  # atno 8010 bound_to 7997
  140.6857  143.2879  151.3641 H   0  0  0  0  0  0  0  0  0  0  0  0  # atno 10167 bound_to 10162
  157.0722  131.0369  151.2607 H   0  0  0  0  0  0  0  0  0  0  0  0  # atno 10718 bound_to 10713
  153.6640  135.6975  153.5168 H   0  0  0  0  0  0  0  0  0  0  0  0  # atno 10763 bound_to 10752
  153.2609  135.4245  155.0892 H   0  0  0  0  0  0  0  0  0  0  0  0  # atno 10764 bound_to 10752
  154.8444  135.3555  154.6185 H   0  0  0  0  0  0  0  0  0  0  0  0  # atno 10765 bound_to 10752
  140.8418  134.2392  157.4806 H   0  0  0  0  0  0  0  0  0  0  0  0  # atno 11005 bound_to 11000
  146.1543  139.4636  143.0029 LP  0  0  0  0  0  0  0  0  0  0  0  0  # atno 17320 bound_to 7965
  145.6820  141.0188  143.1601 LP  0  0  0  0  0  0  0  0  0  0  0  0  # atno 17321 bound_to 7965
  139.6214  144.0899  152.2395 LP  0  0  0  0  0  0  0  0  0  0  0  0  # atno 17342 bound_to 10162
  140.0345  144.6055  150.7461 LP  0  0  0  0  0  0  0  0  0  0  0  0  # atno 17343 bound_to 10162
  157.4869  130.7798  149.7468 LP  0  0  0  0  0  0  0  0  0  0  0  0  # atno 17370 bound_to 10713
  155.9947  130.3916  150.2848 LP  0  0  0  0  0  0  0  0  0  0  0  0  # atno 17371 bound_to 10713
  139.8703  134.9639  156.4478 LP  0  0  0  0  0  0  0  0  0  0  0  0  # atno 17394 bound_to 11000
  140.8886  133.7864  155.9547 LP  0  0  0  0  0  0  0  0  0  0  0  0  # atno 17395 bound_to 11000

$$$$
