AV-unprocessed.smi:3132|AV-procd|sdf|11930|dock1
  -GOLD-   2272017313D 1   1.00000     0.00000
 Structure written by MMmdl.
 34 35  0  0  0  0  0  0  0  0  2 V2000
  149.2736  140.8534  157.5811 C   0  0  0  0  0  0  0  0  0  0  0  0
  150.7737  140.6795  157.3092 C   0  0  1  0  0  0  0  0  0  0  0  0
  151.0822  140.7858  155.7994 C   0  0  0  0  0  0  0  0  0  0  0  0
  151.0385  139.4926  155.1089 N   0  0  0  0  0  0  0  0  0  0  0  0
  151.8142  138.3890  155.3568 C   0  0  0  0  0  0  0  0  0  0  0  0
  151.4094  137.4211  154.4740 C   0  0  0  0  0  0  0  0  0  0  0  0
  150.4096  137.9765  153.7212 N   0  3  0  0  0  0  0  0  0  0  0  0
  150.1894  139.2380  154.1052 C   0  0  0  0  0  0  0  0  0  0  0  0
  151.5098  141.6862  158.0727 N   0  0  0  0  0  0  0  0  0  0  0  0
  152.7437  141.5413  158.5819 C   0  0  0  0  0  0  0  0  0  0  0  0
  153.4168  140.5197  158.4386 O   0  0  0  0  0  0  0  0  0  0  0  0
  153.2946  142.7358  159.3746 C   0  0  2  0  0  0  0  0  0  0  0  0
  152.5869  142.9598  160.7262 C   0  0  0  0  0  0  0  0  0  0  0  0
  152.0406  144.3741  160.6330 C   0  0  0  0  0  0  0  0  0  0  0  0
  151.9223  144.5927  159.1320 C   0  0  0  0  0  0  0  0  0  0  0  0
  153.0706  143.9288  158.6248 O   0  0  0  0  0  0  0  0  0  0  0  0
  148.6898  140.0949  157.0592 H   0  0  0  0  0  0  0  0  0  0  0  0
  148.9202  141.8309  157.2508 H   0  0  0  0  0  0  0  0  0  0  0  0
  149.0535  140.7610  158.6454 H   0  0  0  0  0  0  0  0  0  0  0  0
  151.0483  139.6827  157.6591 H   0  0  0  0  0  0  0  0  0  0  0  0
  150.3578  141.4375  155.3088 H   0  0  0  0  0  0  0  0  0  0  0  0
  152.0660  141.2277  155.6342 H   0  0  0  0  0  0  0  0  0  0  0  0
  152.5712  138.3724  156.1273 H   0  0  0  0  0  0  0  0  0  0  0  0
  151.7485  136.4056  154.3287 H   0  0  0  0  0  0  0  0  0  0  0  0
  149.4615  139.9140  153.6930 H   0  0  0  0  0  0  0  0  0  0  0  0
  151.0321  142.5587  158.2482 H   0  0  0  0  0  0  0  0  0  0  0  0
  154.3697  142.6223  159.5222 H   0  0  0  0  0  0  0  0  0  0  0  0
  151.7716  142.2528  160.8871 H   0  0  0  0  0  0  0  0  0  0  0  0
  153.2738  142.8551  161.5667 H   0  0  0  0  0  0  0  0  0  0  0  0
  151.0941  144.5034  161.1582 H   0  0  0  0  0  0  0  0  0  0  0  0
  152.7610  145.0785  161.0511 H   0  0  0  0  0  0  0  0  0  0  0  0
  151.0174  144.1269  158.7390 H   0  0  0  0  0  0  0  0  0  0  0  0
  151.9137  145.6476  158.8575 H   0  0  0  0  0  0  0  0  0  0  0  0
  149.9060  137.5028  152.9818 H   0  0  0  0  0  0  0  0  0  0  0  0
  1  2  1  0  0  0  0
  1 17  1  0  0  0  0
  1 18  1  0  0  0  0
  1 19  1  0  0  0  0
  2  3  1  0  0  0  0
  2  9  1  0  0  0  0
  2 20  1  0  0  0  0
  3  4  1  0  0  0  0
  3 21  1  0  0  0  0
  3 22  1  0  0  0  0
  4  8  1  0  0  0  0
  4  5  1  0  0  0  0
  5  6  2  0  0  0  0
  5 23  1  0  0  0  0
  6  7  1  0  0  0  0
  6 24  1  0  0  0  0
  7  8  2  0  0  0  0
  7 34  1  0  0  0  0
  8 25  1  0  0  0  0
  9 10  1  0  0  0  0
  9 26  1  0  0  0  0
 10 11  2  0  0  0  0
 10 12  1  0  0  0  0
 12 16  1  0  0  0  0
 12 13  1  0  0  0  0
 12 27  1  0  0  0  0
 13 14  1  0  0  0  0
 13 28  1  0  0  0  0
 13 29  1  0  0  0  0
 14 15  1  0  0  0  0
 14 30  1  0  0  0  0
 14 31  1  0  0  0  0
 15 16  1  0  0  0  0
 15 32  1  0  0  0  0
 15 33  1  0  0  0  0
M  CHG  1   7   1
M  END
> <s_m_source_file>
AV-unprocessed.smi

> <i_m_source_file_index>
3132

> <i_lp_mmshare_version>
43012

> <i_f3d_flags>
0

> <s_epik_input>
W2NIXTFuW2NIXVtjSF1uMVtDSDJdW0NAQEhdKFtDSDNdKVtOSF1DKD1PKVtDQEBIXTJbQ0gyXVtDSDJdW0NIMl1PMg==

> <s_epik_cmdline>
J2VwaWtfcHl0aG9uJywgJy1waCcsICc3LjAnLCAnLXRuJywgJzgnLCAnLW1hJywgJzIwMCcsICctbWV0YWxfYmluZGluZycsICctaW1hZScsICc8aW5maWxlLm1hZT4nLCAnLW9tYWUnLCAnPG91dGZpbGUubWFlPic=

> <r_lp_tautomer_probability>
1

> <r_epik_Ionization_Penalty>
0.250802

> <r_epik_Ionization_Penalty_Charging>
0

> <r_epik_Ionization_Penalty_Neutral>
0.250802

> <r_epik_State_Penalty>
0.242139

> <r_epik_Charging_Adjusted_Penalty>
0.242139

> <i_epik_Tot_Q>
1

> <i_epik_Tot_abs_Q>
1

> <r_epik_Metal_State_Penalty>
0.533361

> <b_epik_Metal_Only>
0

> <s_lp_Force_Field>
OPLS_2005

> <r_lp_Energy>
21.4246

> <b_lp_Chiralities_Consistent>
1

> <s_lp_Variant>
AV-unprocessed.smi:3132-2

> <Gold.Version>
5.8.1

> <Gold.Id.Protein>
6NUR|6NUR_protein|mol2

> <Gold.PLP.Fitness>
44.8064

> <Gold.PLP.PLP>
-36.2149

> <Gold.PLP.part.hbond>
-2.7976

> <Gold.PLP.part.metal>
0.0000

> <Gold.PLP.part.buried>
-2.4936

> <Gold.PLP.part.nonpolar>
-30.3538

> <Gold.PLP.part.repulsive>
0.1445

> <Gold.PLP.ligand.clash>
0.0000

> <Gold.PLP.ligand.torsion>
1.0163

> <Gold.PLP.Chemscore.Hbond>
2.7571

> <Gold.PLP.Chemscore.CHOScore>
0.7606

> <Gold.PLP.Chemscore.Metal>
0.0000

> <Gold.Chemscore.Hbonds>
donor molecule, donor type, donor heavy atom, donor atom, acceptor molecule, acceptor atom, score
      L1  H     7    34       P1  7948  2.00
      P1  H  7997  8008       L1    11  0.77
      L1  C     8    25       P1  7957  0.62

> <Gold.PLP.Chemscore.Internal.Correction>
0.0708

> <Gold.Rescore>
     Score         DG    S(hbond)    S(metal)    S(lipo)     H(rot)  DE(clash)    DE(int)     intcor
     14.35     -15.45       1.72        0.00      78.37       1.93       0.16       0.93       ----

> <Gold.Chemscore.Fitness>
14.3529

> <Gold.Chemscore.DG>
-15.4504

> <Gold.Chemscore.ZeroCoef>
-5.4800

> <Gold.Chemscore.Hbond>
1.7199

> <Gold.Chemscore.Metal>
0.0000

> <Gold.Chemscore.Lipo>
78.3652

> <Gold.Chemscore.Internal_Hbond>
0.0000

> <Gold.Chemscore.DEClash>
0.1637

> <Gold.Chemscore.DEInternal>
0.9338

> <Gold.Chemscore.Rot>
1.9308

> <Gold.Chemscore.Internal.Correction>
   9.000000E+99

> <Gold.Chemscore.Hbonds>
donor molecule, donor type, donor heavy atom, donor atom, acceptor molecule, acceptor atom, score
      L1  H     7    34       P1  7948  0.30
      P1  H  7997  8008       L1    11  0.76

> <Gold.Chemscore.Hbond.Weighted>
-5.7446

> <Gold.Chemscore.Metal.Weighted>
-0.0000

> <Gold.Chemscore.Lipo.Weighted>
-9.1687

> <Gold.Chemscore.Internal_Hbond.Weighted>
0.0000

> <Gold.Chemscore.DEClash.Weighted>
0.1637

> <Gold.Chemscore.DEInternal.Weighted>
0.9338

> <Gold.Chemscore.Rot.Weighted>
4.9429

> <Gold.Chemscore.Internal.Correction.Weighted>
   9.000000E+99

> <Gold.Protein.RotatedTorsions>
[ 6907 6896 6895 6894 ] final   34.62 input  -60.11 | X-H torsion
[ 7974 7965 7964 7962 ] final  -66.22 input  175.53 | X-H torsion
[ 8008 7997 7996 7995 ] final  -88.78 input   59.86 | X-H torsion
[ 10167 10162 10161 10158 ] final -119.04 input  -65.29 | X-H torsion
[ 10718 10713 10712 10709 ] final   63.38 input   66.30 | X-H torsion
[ 10763 10752 10751 10750 ] final -120.28 input  -60.55 | X-H torsion
[ 11005 11000 10999 10996 ] final   -9.34 input  -57.11 | X-H torsion

> <Gold.Protein.ActiveResidues>
 VAL166  LYS551  ARG553  GLY616  TRP617  ASP618  TYR619  PRO620  LYS621  CYS622 
 ASP623  PHE694  ASN695  SER759  ASP760  ASP761  ALA762  ILE779  LEU786  VAL792 
 PHE793  MET794  SER795  GLU796  ALA797  LYS798  CYS799  TRP800  GLU811  SER814 

> <Gold.Protein.RotatedAtoms>
  152.1049  134.9316  160.0568 H   0  0  0  0  0  0  0  0  0  0  0  0  # atno 6907 bound_to 6896
  152.0516  133.4016  159.4387 H   0  0  0  0  0  0  0  0  0  0  0  0  # atno 6908 bound_to 6896
  150.6841  134.3222  159.4835 H   0  0  0  0  0  0  0  0  0  0  0  0  # atno 6909 bound_to 6896
  145.7445  140.8938  143.0512 H   0  0  0  0  0  0  0  0  0  0  0  0  # atno 7974 bound_to 7965
  154.6788  140.0549  157.0244 H   0  0  0  0  0  0  0  0  0  0  0  0  # atno 8008 bound_to 7997
  155.0981  140.3226  155.4536 H   0  0  0  0  0  0  0  0  0  0  0  0  # atno 8009 bound_to 7997
  156.2686  140.2036  156.6107 H   0  0  0  0  0  0  0  0  0  0  0  0  # atno 8010 bound_to 7997
  140.0510  143.5060  152.2082 H   0  0  0  0  0  0  0  0  0  0  0  0  # atno 10167 bound_to 10162
  157.5967  130.9102  149.9708 H   0  0  0  0  0  0  0  0  0  0  0  0  # atno 10718 bound_to 10713
  154.8640  135.4208  154.2433 H   0  0  0  0  0  0  0  0  0  0  0  0  # atno 10763 bound_to 10752
  153.3394  135.6993  153.6885 H   0  0  0  0  0  0  0  0  0  0  0  0  # atno 10764 bound_to 10752
  153.5870  135.3562  155.2869 H   0  0  0  0  0  0  0  0  0  0  0  0  # atno 10765 bound_to 10752
  140.7330  133.8733  155.8908 H   0  0  0  0  0  0  0  0  0  0  0  0  # atno 11005 bound_to 11000
  144.6863  139.9506  143.7478 LP  0  0  0  0  0  0  0  0  0  0  0  0  # atno 17320 bound_to 7965
  146.0416  139.3427  143.0694 LP  0  0  0  0  0  0  0  0  0  0  0  0  # atno 17321 bound_to 7965
  139.5953  144.7565  151.3301 LP  0  0  0  0  0  0  0  0  0  0  0  0  # atno 17342 bound_to 10162
  140.7217  143.7118  150.7763 LP  0  0  0  0  0  0  0  0  0  0  0  0  # atno 17343 bound_to 10162
  156.1031  130.3654  150.0182 LP  0  0  0  0  0  0  0  0  0  0  0  0  # atno 17370 bound_to 10713
  156.8294  130.9387  151.3638 LP  0  0  0  0  0  0  0  0  0  0  0  0  # atno 17371 bound_to 10713
  140.9904  134.1287  157.4413 LP  0  0  0  0  0  0  0  0  0  0  0  0  # atno 17394 bound_to 11000
  139.8822  135.0038  156.6212 LP  0  0  0  0  0  0  0  0  0  0  0  0  # atno 17395 bound_to 11000

$$$$
