AV-unprocessed.smi:2097|AV-procd|sdf|8564|dock3
  -GOLD-   2272011293D 1   1.00000     0.00000
 Structure written by MMmdl.
 41 42  0  0  0  0  0  0  0  0  1 V2000
  145.1779  132.1015  149.8812 C   0  0  0  0  0  0  0  0  0  0  0  0
  144.5497  132.2678  151.2725 C   0  0  1  0  0  0  0  0  0  0  0  0
  145.5665  131.9998  152.2352 O   0  0  0  0  0  0  0  0  0  0  0  0
  146.7601  132.7639  152.0947 C   0  0  0  0  0  0  0  0  0  0  0  0
  147.6207  132.5974  153.3527 C   0  0  0  0  0  0  0  0  0  0  0  0
  146.9667  133.0971  154.4007 F   0  0  0  0  0  0  0  0  0  0  0  0
  147.8658  131.3069  153.5771 F   0  0  0  0  0  0  0  0  0  0  0  0
  148.7717  133.2548  153.2137 F   0  0  0  0  0  0  0  0  0  0  0  0
  143.9925  133.6878  151.4648 C   0  0  0  0  0  0  0  0  0  0  0  0
  144.2555  134.5594  150.6372 O   0  0  0  0  0  0  0  0  0  0  0  0
  143.2650  133.8829  152.5806 N   0  0  0  0  0  0  0  0  0  0  0  0
  142.6364  135.0712  153.0438 C   0  0  0  0  0  0  0  0  0  0  0  0
  142.9078  136.3698  152.5496 C   0  0  0  0  0  0  0  0  0  0  0  0
  142.2072  137.4646  153.0915 C   0  0  0  0  0  0  0  0  0  0  0  0
  141.2533  137.2303  154.1026 C   0  0  0  0  0  0  0  0  0  0  0  0
  140.5643  138.3203  154.6530 N   0  0  0  0  0  0  0  0  0  0  0  0
  139.7058  137.9557  155.7731 C   0  0  0  0  0  0  0  0  0  0  0  0
  139.0903  139.2194  156.3980 C   0  0  0  0  0  0  0  0  0  0  0  0
  138.3924  139.9556  155.3973 O   0  0  0  0  0  0  0  0  0  0  0  0
  139.2533  140.3716  154.3408 C   0  0  0  0  0  0  0  0  0  0  0  0
  139.8728  139.1368  153.6630 C   0  0  0  0  0  0  0  0  0  0  0  0
  140.9769  135.9898  154.5692 N   0  0  0  0  0  0  0  0  0  0  0  0
  141.6517  134.9449  154.0456 C   0  0  0  0  0  0  0  0  0  0  0  0
  144.4520  132.3010  149.0920 H   0  0  0  0  0  0  0  0  0  0  0  0
  145.5425  131.0835  149.7427 H   0  0  0  0  0  0  0  0  0  0  0  0
  146.0236  132.7755  149.7384 H   0  0  0  0  0  0  0  0  0  0  0  0
  143.7486  131.5334  151.3774 H   0  0  0  0  0  0  0  0  0  0  0  0
  147.3309  132.4441  151.2223 H   0  0  0  0  0  0  0  0  0  0  0  0
  146.5112  133.8166  151.9536 H   0  0  0  0  0  0  0  0  0  0  0  0
  143.1958  133.0901  153.2021 H   0  0  0  0  0  0  0  0  0  0  0  0
  143.6252  136.5516  151.7650 H   0  0  0  0  0  0  0  0  0  0  0  0
  142.3998  138.4661  152.7351 H   0  0  0  0  0  0  0  0  0  0  0  0
  138.9127  137.2902  155.4292 H   0  0  0  0  0  0  0  0  0  0  0  0
  140.2844  137.4110  156.5204 H   0  0  0  0  0  0  0  0  0  0  0  0
  138.3928  138.9457  157.1898 H   0  0  0  0  0  0  0  0  0  0  0  0
  139.8612  139.8437  156.8526 H   0  0  0  0  0  0  0  0  0  0  0  0
  138.6760  140.9480  153.6179 H   0  0  0  0  0  0  0  0  0  0  0  0
  140.0296  141.0324  154.7299 H   0  0  0  0  0  0  0  0  0  0  0  0
  140.5719  139.4470  152.8854 H   0  0  0  0  0  0  0  0  0  0  0  0
  139.0907  138.5492  153.1802 H   0  0  0  0  0  0  0  0  0  0  0  0
  141.3997  133.9739  154.4467 H   0  0  0  0  0  0  0  0  0  0  0  0
  1  2  1  0  0  0  0
  1 24  1  0  0  0  0
  1 25  1  0  0  0  0
  1 26  1  0  0  0  0
  2  3  1  0  0  0  0
  2  9  1  0  0  0  0
  2 27  1  0  0  0  0
  3  4  1  0  0  0  0
  4  5  1  0  0  0  0
  4 28  1  0  0  0  0
  4 29  1  0  0  0  0
  5  6  1  0  0  0  0
  5  7  1  0  0  0  0
  5  8  1  0  0  0  0
  9 10  2  0  0  0  0
  9 11  1  0  0  0  0
 11 12  1  0  0  0  0
 11 30  1  0  0  0  0
 12 23  1  0  0  0  0
 12 13  2  0  0  0  0
 13 14  1  0  0  0  0
 13 31  1  0  0  0  0
 14 15  2  0  0  0  0
 14 32  1  0  0  0  0
 15 16  1  0  0  0  0
 15 22  1  0  0  0  0
 16 21  1  0  0  0  0
 16 17  1  0  0  0  0
 17 18  1  0  0  0  0
 17 33  1  0  0  0  0
 17 34  1  0  0  0  0
 18 19  1  0  0  0  0
 18 35  1  0  0  0  0
 18 36  1  0  0  0  0
 19 20  1  0  0  0  0
 20 21  1  0  0  0  0
 20 37  1  0  0  0  0
 20 38  1  0  0  0  0
 21 39  1  0  0  0  0
 21 40  1  0  0  0  0
 22 23  2  0  0  0  0
 23 41  1  0  0  0  0
M  END
> <s_m_source_file>
AV-unprocessed.smi

> <i_m_source_file_index>
2097

> <i_lp_mmshare_version>
43012

> <i_f3d_flags>
0

> <s_epik_input>
RkMoRikoRilbQ0gyXU9bQ0BASF0oW0NIM10pQyg9TylbTkhdYzFbY0hdW2NIXWMobltjSF0xKU4yW0NIMl1bQ0gyXU9bQ0gyXVtDSDJdMg==

> <s_epik_cmdline>
J2VwaWtfcHl0aG9uJywgJy1waCcsICc3LjAnLCAnLXRuJywgJzgnLCAnLW1hJywgJzIwMCcsICctbWV0YWxfYmluZGluZycsICctaW1hZScsICc8aW5maWxlLm1hZT4nLCAnLW9tYWUnLCAnPG91dGZpbGUubWFlPic=

> <r_lp_tautomer_probability>
1

> <r_epik_Ionization_Penalty>
0.000443452

> <r_epik_Ionization_Penalty_Charging>
0

> <r_epik_Ionization_Penalty_Neutral>
0.000443452

> <r_epik_State_Penalty>
0.00027288

> <r_epik_Charging_Adjusted_Penalty>
0.00027288

> <i_epik_Tot_Q>
0

> <i_epik_Tot_abs_Q>
0

> <r_epik_Metal_State_Penalty>
-0

> <b_epik_Metal_Only>
0

> <s_lp_Force_Field>
OPLS_2005

> <r_lp_Energy>
27.3588

> <b_lp_Chiralities_Consistent>
1

> <s_lp_Variant>
AV-unprocessed.smi:2097-2

> <Gold.Version>
5.8.1

> <Gold.Id.Protein>
6NUR|6NUR_protein|mol2

> <Gold.PLP.Fitness>
39.8501

> <Gold.PLP.PLP>
-33.0607

> <Gold.PLP.part.hbond>
-1.7084

> <Gold.PLP.part.metal>
0.0000

> <Gold.PLP.part.buried>
-4.9564

> <Gold.PLP.part.nonpolar>
-27.7223

> <Gold.PLP.part.repulsive>
0.4745

> <Gold.PLP.ligand.clash>
0.0000

> <Gold.PLP.ligand.torsion>
0.3560

> <Gold.PLP.Chemscore.Hbond>
0.7475

> <Gold.PLP.Chemscore.CHOScore>
1.6829

> <Gold.PLP.Chemscore.Metal>
0.0000

> <Gold.Chemscore.Hbonds>
donor molecule, donor type, donor heavy atom, donor atom, acceptor molecule, acceptor atom, score
      L1  H    11    30       P1 10957  0.78
      L1  C    23    41       P1 10957  0.98
      L1  C    23    41       P1 11000  0.66

> <Gold.PLP.Chemscore.Internal.Correction>
0.2103

> <Gold.Rescore>
     Score         DG    S(hbond)    S(metal)    S(lipo)     H(rot)  DE(clash)    DE(int)     intcor
      8.59     -10.13       0.80        0.00      59.52       1.95       0.11       1.44       ----

> <Gold.Chemscore.Fitness>
8.5886

> <Gold.Chemscore.DG>
-10.1349

> <Gold.Chemscore.ZeroCoef>
-5.4800

> <Gold.Chemscore.Hbond>
0.8027

> <Gold.Chemscore.Metal>
0.0000

> <Gold.Chemscore.Lipo>
59.5191

> <Gold.Chemscore.Internal_Hbond>
0.0000

> <Gold.Chemscore.DEClash>
0.1075

> <Gold.Chemscore.DEInternal>
1.4389

> <Gold.Chemscore.Rot>
1.9491

> <Gold.Chemscore.Internal.Correction>
   9.000000E+99

> <Gold.Chemscore.Hbonds>
donor molecule, donor type, donor heavy atom, donor atom, acceptor molecule, acceptor atom, score
      L1  H    11    30       P1 10957  0.60

> <Gold.Chemscore.Hbond.Weighted>
-2.6809

> <Gold.Chemscore.Metal.Weighted>
-0.0000

> <Gold.Chemscore.Lipo.Weighted>
-6.9637

> <Gold.Chemscore.Internal_Hbond.Weighted>
0.0000

> <Gold.Chemscore.DEClash.Weighted>
0.1075

> <Gold.Chemscore.DEInternal.Weighted>
1.4389

> <Gold.Chemscore.Rot.Weighted>
4.9897

> <Gold.Chemscore.Internal.Correction.Weighted>
   9.000000E+99

> <Gold.Protein.RotatedTorsions>
[ 6907 6896 6895 6894 ] final  -29.71 input  -60.11 | X-H torsion
[ 7974 7965 7964 7962 ] final  -33.06 input  175.53 | X-H torsion
[ 8008 7997 7996 7995 ] final  -11.85 input   59.86 | X-H torsion
[ 10167 10162 10161 10158 ] final -123.46 input  -65.29 | X-H torsion
[ 10718 10713 10712 10709 ] final  -20.20 input   66.30 | X-H torsion
[ 10763 10752 10751 10750 ] final -142.28 input  -60.55 | X-H torsion
[ 11005 11000 10999 10996 ] final -176.15 input  -57.11 | X-H torsion

> <Gold.Protein.ActiveResidues>
 VAL166  LYS551  ARG553  GLY616  TRP617  ASP618  TYR619  PRO620  LYS621  CYS622 
 ASP623  PHE694  ASN695  SER759  ASP760  ASP761  ALA762  ILE779  LEU786  VAL792 
 PHE793  MET794  SER795  GLU796  ALA797  LYS798  CYS799  TRP800  GLU811  SER814 

> <Gold.Protein.RotatedAtoms>
  151.1155  135.0050  159.8513 H   0  0  0  0  0  0  0  0  0  0  0  0  # atno 6907 bound_to 6896
  152.5445  134.1785  159.8636 H   0  0  0  0  0  0  0  0  0  0  0  0  # atno 6908 bound_to 6896
  151.1839  133.4663  159.2627 H   0  0  0  0  0  0  0  0  0  0  0  0  # atno 6909 bound_to 6896
  146.0941  140.5869  142.8851 H   0  0  0  0  0  0  0  0  0  0  0  0  # atno 7974 bound_to 7965
  154.5429  140.2292  155.8612 H   0  0  0  0  0  0  0  0  0  0  0  0  # atno 8008 bound_to 7997
  156.1875  140.3085  155.9229 H   0  0  0  0  0  0  0  0  0  0  0  0  # atno 8009 bound_to 7997
  155.3222  140.0441  157.3030 H   0  0  0  0  0  0  0  0  0  0  0  0  # atno 8010 bound_to 7997
  140.0033  143.5518  152.2294 H   0  0  0  0  0  0  0  0  0  0  0  0  # atno 10167 bound_to 10162
  156.5351  130.4664  149.6527 H   0  0  0  0  0  0  0  0  0  0  0  0  # atno 10718 bound_to 10713
  154.8515  135.3500  154.6002 H   0  0  0  0  0  0  0  0  0  0  0  0  # atno 10763 bound_to 10752
  153.6611  135.6989  153.5182 H   0  0  0  0  0  0  0  0  0  0  0  0  # atno 10764 bound_to 10752
  153.2817  135.4261  155.1042 H   0  0  0  0  0  0  0  0  0  0  0  0  # atno 10765 bound_to 10752
  140.4553  134.6305  157.4819 H   0  0  0  0  0  0  0  0  0  0  0  0  # atno 11005 bound_to 11000
  144.7382  140.4868  143.6888 LP  0  0  0  0  0  0  0  0  0  0  0  0  # atno 17320 bound_to 7965
  145.5982  139.1501  143.3144 LP  0  0  0  0  0  0  0  0  0  0  0  0  # atno 17321 bound_to 7965
  139.6256  144.7636  151.2645 LP  0  0  0  0  0  0  0  0  0  0  0  0  # atno 17342 bound_to 10162
  140.7410  143.6569  150.8198 LP  0  0  0  0  0  0  0  0  0  0  0  0  # atno 17343 bound_to 10162
  156.3023  130.7184  151.2058 LP  0  0  0  0  0  0  0  0  0  0  0  0  # atno 17370 bound_to 10713
  157.7415  131.0503  150.5092 LP  0  0  0  0  0  0  0  0  0  0  0  0  # atno 17371 bound_to 10713
  139.9980  134.6881  155.9577 LP  0  0  0  0  0  0  0  0  0  0  0  0  # atno 17394 bound_to 11000
  141.1646  133.6537  156.4434 LP  0  0  0  0  0  0  0  0  0  0  0  0  # atno 17395 bound_to 11000

$$$$
