AV-unprocessed.smi:2718|AV-procd|sdf|10493|dock6
  -GOLD-   2272014543D 1   1.00000     0.00000
 Structure written by MMmdl.
 47 48  0  0  0  0  0  0  0  0  1 V2000
  154.4410  140.6405  162.7483 C   0  0  0  0  0  0  0  0  0  0  0  0
  154.1412  140.9121  161.2875 C   0  0  0  0  0  0  0  0  0  0  0  0
  154.7631  139.9233  160.3169 C   0  0  0  0  0  0  0  0  0  0  0  0
  153.3823  141.9562  160.9039 C   0  0  0  0  0  0  0  0  0  0  0  0
  153.0233  142.3276  159.5099 C   0  0  1  0  0  0  0  0  0  0  0  0
  151.5921  142.2009  159.0197 C   0  0  2  0  0  0  0  0  0  0  0  0
  151.3438  141.7094  157.6280 C   0  0  0  0  0  0  0  0  0  0  0  0
  151.7471  140.6252  157.2057 O   0  0  0  0  0  0  0  0  0  0  0  0
  150.6333  142.5660  156.8799 N   0  0  0  0  0  0  0  0  0  0  0  0
  150.2313  142.3597  155.4905 C   0  0  0  0  0  0  0  0  0  0  0  0
  149.3344  141.1173  155.2776 C   0  0  1  0  0  0  0  0  0  0  0  0
  148.1963  141.4016  154.2871 C   0  0  0  0  0  0  0  0  0  0  0  0
  150.1106  139.8870  154.8893 C   0  0  0  0  0  0  0  0  0  0  0  0
  151.4489  139.8382  154.8467 N   0  0  0  0  0  0  0  0  0  0  0  0
  151.7642  138.5553  154.4476 N   0  0  0  0  0  0  0  0  0  0  0  0
  150.5855  137.9604  154.2719 C   0  0  0  0  0  0  0  0  0  0  0  0
  149.5170  138.7322  154.5197 N   0  0  0  0  0  0  0  0  0  0  0  0
  148.1134  138.3893  154.4037 C   0  0  0  0  0  0  0  0  0  0  0  0
  152.2137  143.5790  159.2135 C   0  0  0  0  0  0  0  0  0  0  0  0
  151.6575  144.4469  160.3323 C   0  0  0  0  0  0  0  0  0  0  0  0
  152.6456  144.4690  158.0554 C   0  0  0  0  0  0  0  0  0  0  0  0
  154.0749  139.6535  163.0326 H   0  0  0  0  0  0  0  0  0  0  0  0
  153.9687  141.3771  163.3992 H   0  0  0  0  0  0  0  0  0  0  0  0
  155.5162  140.6729  162.9249 H   0  0  0  0  0  0  0  0  0  0  0  0
  155.8496  139.9470  160.4037 H   0  0  0  0  0  0  0  0  0  0  0  0
  154.5052  140.1363  159.2800 H   0  0  0  0  0  0  0  0  0  0  0  0
  154.4250  138.9120  160.5437 H   0  0  0  0  0  0  0  0  0  0  0  0
  152.9775  142.6048  161.6672 H   0  0  0  0  0  0  0  0  0  0  0  0
  153.8172  142.0688  158.8111 H   0  0  0  0  0  0  0  0  0  0  0  0
  150.8402  141.9137  159.7537 H   0  0  0  0  0  0  0  0  0  0  0  0
  150.3480  143.4360  157.3062 H   0  0  0  0  0  0  0  0  0  0  0  0
  149.7418  143.2564  155.1075 H   0  0  0  0  0  0  0  0  0  0  0  0
  151.1506  142.2438  154.9155 H   0  0  0  0  0  0  0  0  0  0  0  0
  148.8551  140.9201  156.2356 H   0  0  0  0  0  0  0  0  0  0  0  0
  147.5188  140.5503  154.2157 H   0  0  0  0  0  0  0  0  0  0  0  0
  148.5814  141.6054  153.2875 H   0  0  0  0  0  0  0  0  0  0  0  0
  147.6095  142.2652  154.6006 H   0  0  0  0  0  0  0  0  0  0  0  0
  150.5002  136.9339  153.9467 H   0  0  0  0  0  0  0  0  0  0  0  0
  148.0040  137.3348  154.1494 H   0  0  0  0  0  0  0  0  0  0  0  0
  147.6523  138.9933  153.6219 H   0  0  0  0  0  0  0  0  0  0  0  0
  147.6047  138.5775  155.3487 H   0  0  0  0  0  0  0  0  0  0  0  0
  150.8198  145.0421  159.9680 H   0  0  0  0  0  0  0  0  0  0  0  0
  152.4266  145.1216  160.7091 H   0  0  0  0  0  0  0  0  0  0  0  0
  151.3024  143.8375  161.1637 H   0  0  0  0  0  0  0  0  0  0  0  0
  151.7738  144.9222  157.5833 H   0  0  0  0  0  0  0  0  0  0  0  0
  153.1996  143.9086  157.3032 H   0  0  0  0  0  0  0  0  0  0  0  0
  153.2974  145.2662  158.4133 H   0  0  0  0  0  0  0  0  0  0  0  0
  1  2  1  0  0  0  0
  1 22  1  0  0  0  0
  1 23  1  0  0  0  0
  1 24  1  0  0  0  0
  2  3  1  0  0  0  0
  2  4  2  0  0  0  0
  3 25  1  0  0  0  0
  3 26  1  0  0  0  0
  3 27  1  0  0  0  0
  4  5  1  0  0  0  0
  4 28  1  0  0  0  0
  5 19  1  0  0  0  0
  5  6  1  0  0  0  0
  5 29  1  0  0  0  0
  6  7  1  0  0  0  0
  6 19  1  0  0  0  0
  6 30  1  0  0  0  0
  7  8  2  0  0  0  0
  7  9  1  0  0  0  0
  9 10  1  0  0  0  0
  9 31  1  0  0  0  0
 10 11  1  0  0  0  0
 10 32  1  0  0  0  0
 10 33  1  0  0  0  0
 11 12  1  0  0  0  0
 11 13  1  0  0  0  0
 11 34  1  0  0  0  0
 12 35  1  0  0  0  0
 12 36  1  0  0  0  0
 12 37  1  0  0  0  0
 13 17  1  0  0  0  0
 13 14  2  0  0  0  0
 14 15  1  0  0  0  0
 15 16  2  0  0  0  0
 16 17  1  0  0  0  0
 16 38  1  0  0  0  0
 17 18  1  0  0  0  0
 18 39  1  0  0  0  0
 18 40  1  0  0  0  0
 18 41  1  0  0  0  0
 19 20  1  0  0  0  0
 19 21  1  0  0  0  0
 20 42  1  0  0  0  0
 20 43  1  0  0  0  0
 20 44  1  0  0  0  0
 21 45  1  0  0  0  0
 21 46  1  0  0  0  0
 21 47  1  0  0  0  0
M  END
> <s_m_source_file>
AV-unprocessed.smi

> <i_m_source_file_index>
2718

> <i_lp_mmshare_version>
43012

> <i_f3d_flags>
0

> <s_epik_input>
W0NIM11DKFtDSDNdKT1bQ0hdW0NAQEhdKEMxKFtDSDNdKVtDSDNdKVtDQEhdMUMoPU8pW05IXVtDSDJdW0NASF0oW0NIM10pYzJubltjSF1uMltDSDNd

> <s_epik_cmdline>
J2VwaWtfcHl0aG9uJywgJy1waCcsICc3LjAnLCAnLXRuJywgJzgnLCAnLW1hJywgJzIwMCcsICctbWV0YWxfYmluZGluZycsICctaW1hZScsICc8aW5maWxlLm1hZT4nLCAnLW9tYWUnLCAnPG91dGZpbGUubWFlPic=

> <r_lp_tautomer_probability>
1

> <r_epik_Ionization_Penalty>
0.000449586

> <r_epik_Ionization_Penalty_Charging>
0

> <r_epik_Ionization_Penalty_Neutral>
0.000449586

> <r_epik_State_Penalty>
0.000243372

> <r_epik_Charging_Adjusted_Penalty>
0.000243372

> <i_epik_Tot_Q>
0

> <i_epik_Tot_abs_Q>
0

> <r_epik_Metal_State_Penalty>
-0

> <b_epik_Metal_Only>
0

> <s_lp_Force_Field>
OPLS_2005

> <r_lp_Energy>
15.3902

> <b_lp_Chiralities_Consistent>
1

> <s_lp_Variant>
AV-unprocessed.smi:2718-8

> <Gold.Version>
5.8.1

> <Gold.Id.Protein>
6NUR|6NUR_protein|mol2

> <Gold.PLP.Fitness>
50.5023

> <Gold.PLP.PLP>
-46.1461

> <Gold.PLP.part.hbond>
-2.5782

> <Gold.PLP.part.metal>
0.0000

> <Gold.PLP.part.buried>
0.1691

> <Gold.PLP.part.nonpolar>
-43.9452

> <Gold.PLP.part.repulsive>
0.2423

> <Gold.PLP.ligand.clash>
0.0000

> <Gold.PLP.ligand.torsion>
0.8041

> <Gold.PLP.Chemscore.Hbond>
0.9913

> <Gold.PLP.Chemscore.CHOScore>
0.9109

> <Gold.PLP.Chemscore.Metal>
0.0000

> <Gold.Chemscore.Hbonds>
donor molecule, donor type, donor heavy atom, donor atom, acceptor molecule, acceptor atom, score
      P1  H  7989  7998       L1    14  0.85
      L1  C    16    38       P1  7948  0.44
      L1  C    16    38       P1  7949  0.28

> <Gold.PLP.Chemscore.Internal.Correction>
0.2581

> <Gold.Rescore>
     Score         DG    S(hbond)    S(metal)    S(lipo)     H(rot)  DE(clash)    DE(int)     intcor
     15.42     -19.07       1.31        0.00     121.41       1.95       1.49       2.16       ----

> <Gold.Chemscore.Fitness>
15.4230

> <Gold.Chemscore.DG>
-19.0703

> <Gold.Chemscore.ZeroCoef>
-5.4800

> <Gold.Chemscore.Hbond>
1.3132

> <Gold.Chemscore.Metal>
0.0000

> <Gold.Chemscore.Lipo>
121.4072

> <Gold.Chemscore.Internal_Hbond>
0.0000

> <Gold.Chemscore.DEClash>
1.4864

> <Gold.Chemscore.DEInternal>
2.1609

> <Gold.Chemscore.Rot>
1.9533

> <Gold.Chemscore.Internal.Correction>
   9.000000E+99

> <Gold.Chemscore.Hbonds>
donor molecule, donor type, donor heavy atom, donor atom, acceptor molecule, acceptor atom, score
      P1  H  7989  7998       L1    14  0.10

> <Gold.Chemscore.Hbond.Weighted>
-4.3862

> <Gold.Chemscore.Metal.Weighted>
-0.0000

> <Gold.Chemscore.Lipo.Weighted>
-14.2046

> <Gold.Chemscore.Internal_Hbond.Weighted>
0.0000

> <Gold.Chemscore.DEClash.Weighted>
1.4864

> <Gold.Chemscore.DEInternal.Weighted>
2.1609

> <Gold.Chemscore.Rot.Weighted>
5.0005

> <Gold.Chemscore.Internal.Correction.Weighted>
   9.000000E+99

> <Gold.Protein.RotatedTorsions>
[ 6907 6896 6895 6894 ] final  107.31 input  -60.11 | X-H torsion
[ 7974 7965 7964 7962 ] final  157.91 input  175.53 | X-H torsion
[ 8008 7997 7996 7995 ] final  173.50 input   59.86 | X-H torsion
[ 10167 10162 10161 10158 ] final   31.29 input  -65.29 | X-H torsion
[ 10718 10713 10712 10709 ] final   11.10 input   66.30 | X-H torsion
[ 10763 10752 10751 10750 ] final  109.29 input  -60.55 | X-H torsion
[ 11005 11000 10999 10996 ] final  149.98 input  -57.11 | X-H torsion

> <Gold.Protein.ActiveResidues>
 VAL166  LYS551  ARG553  GLY616  TRP617  ASP618  TYR619  PRO620  LYS621  CYS622 
 ASP623  PHE694  ASN695  SER759  ASP760  ASP761  ALA762  ILE779  LEU786  VAL792 
 PHE793  MET794  SER795  GLU796  ALA797  LYS798  CYS799  TRP800  GLU811  SER814 

> <Gold.Protein.RotatedAtoms>
  152.5159  133.9253  159.7553 H   0  0  0  0  0  0  0  0  0  0  0  0  # atno 6907 bound_to 6896
  150.9616  133.6431  159.2760 H   0  0  0  0  0  0  0  0  0  0  0  0  # atno 6908 bound_to 6896
  151.3674  135.0921  159.9507 H   0  0  0  0  0  0  0  0  0  0  0  0  # atno 6909 bound_to 6896
  144.7876  139.7405  143.6234 H   0  0  0  0  0  0  0  0  0  0  0  0  # atno 7974 bound_to 7965
  156.1069  140.1458  156.9391 H   0  0  0  0  0  0  0  0  0  0  0  0  # atno 8008 bound_to 7997
  154.4740  140.0900  156.7260 H   0  0  0  0  0  0  0  0  0  0  0  0  # atno 8009 bound_to 7997
  155.4663  140.3440  155.4322 H   0  0  0  0  0  0  0  0  0  0  0  0  # atno 8010 bound_to 7997
  140.4602  144.0918  150.6211 H   0  0  0  0  0  0  0  0  0  0  0  0  # atno 10167 bound_to 10162
  156.9906  130.6041  149.5685 H   0  0  0  0  0  0  0  0  0  0  0  0  # atno 10718 bound_to 10713
  153.4326  135.3785  155.2180 H   0  0  0  0  0  0  0  0  0  0  0  0  # atno 10763 bound_to 10752
  154.8750  135.3844  154.4249 H   0  0  0  0  0  0  0  0  0  0  0  0  # atno 10764 bound_to 10752
  153.4784  135.7088  153.6015 H   0  0  0  0  0  0  0  0  0  0  0  0  # atno 10765 bound_to 10752
  140.1092  134.8935  157.1911 H   0  0  0  0  0  0  0  0  0  0  0  0  # atno 11005 bound_to 11000
  146.2115  139.5474  142.9678 LP  0  0  0  0  0  0  0  0  0  0  0  0  # atno 17320 bound_to 7965
  145.5880  141.0373  143.2086 LP  0  0  0  0  0  0  0  0  0  0  0  0  # atno 17321 bound_to 7965
  140.4103  143.2660  151.9841 LP  0  0  0  0  0  0  0  0  0  0  0  0  # atno 17342 bound_to 10162
  139.4805  144.5921  151.7753 LP  0  0  0  0  0  0  0  0  0  0  0  0  # atno 17343 bound_to 10162
  156.0208  130.5303  150.8271 LP  0  0  0  0  0  0  0  0  0  0  0  0  # atno 17370 bound_to 10713
  157.5461  131.0942  150.9760 LP  0  0  0  0  0  0  0  0  0  0  0  0  # atno 17371 bound_to 10713
  140.3114  134.3019  155.7266 LP  0  0  0  0  0  0  0  0  0  0  0  0  # atno 17394 bound_to 11000
  141.2126  133.7653  156.9782 LP  0  0  0  0  0  0  0  0  0  0  0  0  # atno 17395 bound_to 11000

$$$$
