AV-unprocessed.smi:3336|AV-procd|sdf|12853|dock6
  -GOLD-   2272019243D 1   1.00000     0.00000
 Structure written by MMmdl.
 42 43  0  0  0  0  0  0  0  0  2 V2000
  146.5433  140.1503  152.1549 C   0  0  0  0  0  0  0  0  0  0  0  0
  146.9874  138.6874  152.3211 C   0  0  2  0  0  0  0  0  0  0  0  0
  146.0448  137.8885  153.2507 C   0  0  0  0  0  0  0  0  0  0  0  0
  145.2765  136.8787  152.5459 N   0  0  0  0  0  0  0  0  0  0  0  0
  145.6334  136.1496  151.4306 C   0  0  0  0  0  0  0  0  0  0  0  0
  144.5835  135.3306  151.1291 C   0  0  0  0  0  0  0  0  0  0  0  0
  143.6152  135.6404  152.1248 C   0  0  0  0  0  0  0  0  0  0  0  0
  144.0320  136.5700  152.9696 N   0  0  0  0  0  0  0  0  0  0  0  0
  148.3797  138.6560  152.8291 N   0  3  0  0  0  0  0  0  0  0  0  0
  148.5535  138.8594  154.2893 C   0  0  2  0  0  0  0  0  0  0  0  0
  148.2283  140.3229  154.6317 C   0  0  0  0  0  0  0  0  0  0  0  0
  149.9859  138.5095  154.7498 C   0  0  0  0  0  0  0  0  0  0  0  0
  150.9054  139.2433  154.3821 O   0  0  0  0  0  0  0  0  0  0  0  0
  150.2061  137.4282  155.5397 N   0  0  0  0  0  0  0  0  0  0  0  0
  151.5443  137.0410  156.0004 C   0  0  0  0  0  0  0  0  0  0  0  0
  151.5854  137.1365  157.5356 C   0  0  0  0  0  0  0  0  0  0  0  0
  150.5806  136.2937  158.0913 O   0  0  0  0  0  0  0  0  0  0  0  0
  149.2684  136.6287  157.6498 C   0  0  0  0  0  0  0  0  0  0  0  0
  149.1931  136.5347  156.1146 C   0  0  0  0  0  0  0  0  0  0  0  0
  145.5617  140.2216  151.6857 H   0  0  0  0  0  0  0  0  0  0  0  0
  147.2408  140.7012  151.5226 H   0  0  0  0  0  0  0  0  0  0  0  0
  146.4907  140.6619  153.1167 H   0  0  0  0  0  0  0  0  0  0  0  0
  146.9711  138.2349  151.3287 H   0  0  0  0  0  0  0  0  0  0  0  0
  146.6032  137.3867  154.0409 H   0  0  0  0  0  0  0  0  0  0  0  0
  145.3471  138.5645  153.7467 H   0  0  0  0  0  0  0  0  0  0  0  0
  146.5939  136.2701  150.9512 H   0  0  0  0  0  0  0  0  0  0  0  0
  144.5162  134.6199  150.3187 H   0  0  0  0  0  0  0  0  0  0  0  0
  142.6286  135.2213  152.2570 H   0  0  0  0  0  0  0  0  0  0  0  0
  148.7751  137.7526  152.6090 H   0  0  0  0  0  0  0  0  0  0  0  0
  147.8333  138.2136  154.7868 H   0  0  0  0  0  0  0  0  0  0  0  0
  148.3115  140.5187  155.7005 H   0  0  0  0  0  0  0  0  0  0  0  0
  147.2093  140.5748  154.3367 H   0  0  0  0  0  0  0  0  0  0  0  0
  148.9003  141.0119  154.1178 H   0  0  0  0  0  0  0  0  0  0  0  0
  151.7528  136.0181  155.6829 H   0  0  0  0  0  0  0  0  0  0  0  0
  152.3396  137.6544  155.5755 H   0  0  0  0  0  0  0  0  0  0  0  0
  152.5587  136.8171  157.9081 H   0  0  0  0  0  0  0  0  0  0  0  0
  151.4370  138.1656  157.8669 H   0  0  0  0  0  0  0  0  0  0  0  0
  148.5574  135.9391  158.1050 H   0  0  0  0  0  0  0  0  0  0  0  0
  149.0055  137.6307  157.9924 H   0  0  0  0  0  0  0  0  0  0  0  0
  148.1745  136.7499  155.8018 H   0  0  0  0  0  0  0  0  0  0  0  0
  149.3949  135.5121  155.7923 H   0  0  0  0  0  0  0  0  0  0  0  0
  148.9054  139.3628  152.3355 H   0  0  0  0  0  0  0  0  0  0  0  0
  1  2  1  0  0  0  0
  1 20  1  0  0  0  0
  1 21  1  0  0  0  0
  1 22  1  0  0  0  0
  2  3  1  0  0  0  0
  2  9  1  0  0  0  0
  2 23  1  0  0  0  0
  3  4  1  0  0  0  0
  3 24  1  0  0  0  0
  3 25  1  0  0  0  0
  4  8  1  0  0  0  0
  4  5  1  0  0  0  0
  5  6  2  0  0  0  0
  5 26  1  0  0  0  0
  6  7  1  0  0  0  0
  6 27  1  0  0  0  0
  7  8  2  0  0  0  0
  7 28  1  0  0  0  0
  9 10  1  0  0  0  0
  9 29  1  0  0  0  0
  9 42  1  0  0  0  0
 10 11  1  0  0  0  0
 10 12  1  0  0  0  0
 10 30  1  0  0  0  0
 11 31  1  0  0  0  0
 11 32  1  0  0  0  0
 11 33  1  0  0  0  0
 12 13  2  0  0  0  0
 12 14  1  0  0  0  0
 14 19  1  0  0  0  0
 14 15  1  0  0  0  0
 15 16  1  0  0  0  0
 15 34  1  0  0  0  0
 15 35  1  0  0  0  0
 16 17  1  0  0  0  0
 16 36  1  0  0  0  0
 16 37  1  0  0  0  0
 17 18  1  0  0  0  0
 18 19  1  0  0  0  0
 18 38  1  0  0  0  0
 18 39  1  0  0  0  0
 19 40  1  0  0  0  0
 19 41  1  0  0  0  0
M  CHG  1   9   1
M  END
> <s_m_source_file>
AV-unprocessed.smi

> <i_m_source_file_index>
3336

> <i_lp_mmshare_version>
43012

> <i_f3d_flags>
0

> <s_epik_input>
bjFbY0hdW2NIXVtjSF1uMVtDSDJdW0NAQEhdKFtDSDNdKVtOSF1bQ0BIXShbQ0gzXSlDKD1PKU4yW0NIMl1bQ0gyXU9bQ0gyXVtDSDJdMg==

> <s_epik_cmdline>
J2VwaWtfcHl0aG9uJywgJy1waCcsICc3LjAnLCAnLXRuJywgJzgnLCAnLW1hJywgJzIwMCcsICctbWV0YWxfYmluZGluZycsICctaW1hZScsICc8aW5maWxlLm1hZT4nLCAnLW9tYWUnLCAnPG91dGZpbGUubWFlPic=

> <r_lp_tautomer_probability>
1

> <r_epik_Ionization_Penalty>
0.200288

> <r_epik_Ionization_Penalty_Charging>
0.200285

> <r_epik_Ionization_Penalty_Neutral>
3.37705e-06

> <r_epik_State_Penalty>
0.190126

> <r_epik_Charging_Adjusted_Penalty>
0.39041

> <i_epik_Tot_Q>
1

> <i_epik_Tot_abs_Q>
1

> <r_epik_Metal_State_Penalty>
0.190133

> <b_epik_Metal_Only>
0

> <s_lp_Force_Field>
OPLS_2005

> <r_lp_Energy>
27.4401

> <b_lp_Chiralities_Consistent>
1

> <s_lp_Variant>
AV-unprocessed.smi:3336-1

> <Gold.Version>
5.8.1

> <Gold.Id.Protein>
6NUR|6NUR_protein|mol2

> <Gold.PLP.Fitness>
39.2504

> <Gold.PLP.PLP>
-25.3406

> <Gold.PLP.part.hbond>
-3.8217

> <Gold.PLP.part.metal>
0.0000

> <Gold.PLP.part.buried>
-1.5422

> <Gold.PLP.part.nonpolar>
-22.2160

> <Gold.PLP.part.repulsive>
0.3545

> <Gold.PLP.ligand.clash>
0.0000

> <Gold.PLP.ligand.torsion>
1.4434

> <Gold.PLP.Chemscore.Hbond>
4.5778

> <Gold.PLP.Chemscore.CHOScore>
1.0000

> <Gold.PLP.Chemscore.Metal>
0.0000

> <Gold.Chemscore.Hbonds>
donor molecule, donor type, donor heavy atom, donor atom, acceptor molecule, acceptor atom, score
      L1  H     9    29       P1  7948  2.00
      L1  H     9    42       P1  7957  0.98
      P1  H  6896  6909       L1    17  0.53
      P1  H  7989  7998       L1    13  1.00
      L1  C     5    26       P1  7948  1.00

> <Gold.PLP.Chemscore.Internal.Correction>
0.0632

> <Gold.Rescore>
     Score         DG    S(hbond)    S(metal)    S(lipo)     H(rot)  DE(clash)    DE(int)     intcor
     16.63     -19.34       3.53        0.00      58.14       1.85       1.16       1.55       ----

> <Gold.Chemscore.Fitness>
16.6287

> <Gold.Chemscore.DG>
-19.3383

> <Gold.Chemscore.ZeroCoef>
-5.4800

> <Gold.Chemscore.Hbond>
3.5335

> <Gold.Chemscore.Metal>
0.0000

> <Gold.Chemscore.Lipo>
58.1435

> <Gold.Chemscore.Internal_Hbond>
0.0000

> <Gold.Chemscore.DEClash>
1.1552

> <Gold.Chemscore.DEInternal>
1.5544

> <Gold.Chemscore.Rot>
1.8541

> <Gold.Chemscore.Internal.Correction>
   9.000000E+99

> <Gold.Chemscore.Hbonds>
donor molecule, donor type, donor heavy atom, donor atom, acceptor molecule, acceptor atom, score
      L1  H     9    29       P1  7948  0.99
      L1  H     9    42       P1  7957  0.90
      P1  H  6896  6909       L1    17  0.53
      P1  H  7989  7998       L1    13  0.97

> <Gold.Chemscore.Hbond.Weighted>
-11.8020

> <Gold.Chemscore.Metal.Weighted>
-0.0000

> <Gold.Chemscore.Lipo.Weighted>
-6.8028

> <Gold.Chemscore.Internal_Hbond.Weighted>
0.0000

> <Gold.Chemscore.DEClash.Weighted>
1.1552

> <Gold.Chemscore.DEInternal.Weighted>
1.5544

> <Gold.Chemscore.Rot.Weighted>
4.7465

> <Gold.Chemscore.Internal.Correction.Weighted>
   9.000000E+99

> <Gold.Protein.RotatedTorsions>
[ 6907 6896 6895 6894 ] final   73.42 input  -60.11 | X-H torsion
[ 7974 7965 7964 7962 ] final  133.56 input  175.53 | X-H torsion
[ 8008 7997 7996 7995 ] final  -36.53 input   59.86 | X-H torsion
[ 10167 10162 10161 10158 ] final  -64.14 input  -65.29 | X-H torsion
[ 10718 10713 10712 10709 ] final -150.04 input   66.30 | X-H torsion
[ 10763 10752 10751 10750 ] final   -5.26 input  -60.55 | X-H torsion
[ 11005 11000 10999 10996 ] final  -87.33 input  -57.11 | X-H torsion

> <Gold.Protein.ActiveResidues>
 VAL166  LYS551  ARG553  GLY616  TRP617  ASP618  TYR619  PRO620  LYS621  CYS622 
 ASP623  PHE694  ASN695  SER759  ASP760  ASP761  ALA762  ILE779  LEU786  VAL792 
 PHE793  MET794  SER795  GLU796  ALA797  LYS798  CYS799  TRP800  GLU811  SER814 

> <Gold.Protein.RotatedAtoms>
  152.4922  134.4425  159.9547 H   0  0  0  0  0  0  0  0  0  0  0  0  # atno 6907 bound_to 6896
  151.4410  133.3637  159.2789 H   0  0  0  0  0  0  0  0  0  0  0  0  # atno 6908 bound_to 6896
  150.9088  134.8527  159.7471 H   0  0  0  0  0  0  0  0  0  0  0  0  # atno 6909 bound_to 6896
  144.9852  139.4463  143.5366 H   0  0  0  0  0  0  0  0  0  0  0  0  # atno 7974 bound_to 7965
  154.4071  140.1628  156.2388 H   0  0  0  0  0  0  0  0  0  0  0  0  # atno 8008 bound_to 7997
  155.9219  140.3420  155.6157 H   0  0  0  0  0  0  0  0  0  0  0  0  # atno 8009 bound_to 7997
  155.7212  140.0768  157.2320 H   0  0  0  0  0  0  0  0  0  0  0  0  # atno 8010 bound_to 7997
  140.5821  143.2329  151.6319 H   0  0  0  0  0  0  0  0  0  0  0  0  # atno 10167 bound_to 10162
  156.4410  130.8122  151.2351 H   0  0  0  0  0  0  0  0  0  0  0  0  # atno 10718 bound_to 10713
  153.3961  135.7003  153.6460 H   0  0  0  0  0  0  0  0  0  0  0  0  # atno 10763 bound_to 10752
  153.5012  135.3652  155.2541 H   0  0  0  0  0  0  0  0  0  0  0  0  # atno 10764 bound_to 10752
  154.8706  135.4112  154.3287 H   0  0  0  0  0  0  0  0  0  0  0  0  # atno 10765 bound_to 10752
  141.1618  133.7505  156.9291 H   0  0  0  0  0  0  0  0  0  0  0  0  # atno 11005 bound_to 11000
  146.3418  139.9150  142.8775 LP  0  0  0  0  0  0  0  0  0  0  0  0  # atno 17320 bound_to 7965
  145.2363  140.9992  143.3961 LP  0  0  0  0  0  0  0  0  0  0  0  0  # atno 17321 bound_to 7965
  139.5176  144.3310  152.0826 LP  0  0  0  0  0  0  0  0  0  0  0  0  # atno 17342 bound_to 10162
  140.2462  144.4218  150.6240 LP  0  0  0  0  0  0  0  0  0  0  0  0  # atno 17343 bound_to 10162
  157.7506  131.0168  150.3560 LP  0  0  0  0  0  0  0  0  0  0  0  0  # atno 17370 bound_to 10713
  156.3918  130.3899  149.7024 LP  0  0  0  0  0  0  0  0  0  0  0  0  # atno 17371 bound_to 10713
  140.1399  134.9301  157.2452 LP  0  0  0  0  0  0  0  0  0  0  0  0  # atno 17394 bound_to 11000
  140.2850  134.3306  155.7332 LP  0  0  0  0  0  0  0  0  0  0  0  0  # atno 17395 bound_to 11000

$$$$
