AV-unprocessed.smi:656|AV-procd|sdf|3218|dock1
  -GOLD-   22720 0153D 1   1.00000     0.00000
 Structure written by MMmdl.
 41 42  0  0  0  0  0  0  0  0  2 V2000
  148.1661  127.2138  150.6263 C   0  0  0  0  0  0  0  0  0  0  0  0
  148.2189  127.7930  152.0441 C   0  0  0  0  0  0  0  0  0  0  0  0
  147.1433  128.8683  152.2769 C   0  0  0  0  0  0  0  0  0  0  0  0
  147.7162  130.2341  152.3886 N   0  3  2  0  0  0  0  0  0  0  0  0
  148.6902  130.3421  153.5059 C   0  0  0  0  0  0  0  0  0  0  0  0
  149.3750  131.7191  153.5196 C   0  0  0  0  0  0  0  0  0  0  0  0
  148.3399  132.8517  153.6022 C   0  0  1  0  0  0  0  0  0  0  0  0
  149.0117  134.1464  153.5375 N   0  0  0  0  0  0  0  0  0  0  0  0
  150.0277  134.5271  154.3263 C   0  0  0  0  0  0  0  0  0  0  0  0
  150.5026  133.8132  155.2096 O   0  0  0  0  0  0  0  0  0  0  0  0
  150.4426  135.7691  154.0223 N   0  0  0  0  0  0  0  0  0  0  0  0
  151.4833  136.5170  154.6338 C   0  0  0  0  0  0  0  0  0  0  0  0
  151.6960  137.8057  154.0997 C   0  0  0  0  0  0  0  0  0  0  0  0
  152.7110  138.6002  154.6597 C   0  0  0  0  0  0  0  0  0  0  0  0
  153.4476  138.0487  155.7218 C   0  0  0  0  0  0  0  0  0  0  0  0
  153.2093  136.8092  156.2021 N   0  0  0  0  0  0  0  0  0  0  0  0
  152.2418  136.0586  155.6638 N   0  0  0  0  0  0  0  0  0  0  0  0
  147.3226  132.6995  152.4569 C   0  0  0  0  0  0  0  0  0  0  0  0
  146.6825  131.3012  152.4638 C   0  0  0  0  0  0  0  0  0  0  0  0
  148.9366  126.4551  150.4877 H   0  0  0  0  0  0  0  0  0  0  0  0
  148.3255  127.9900  149.8773 H   0  0  0  0  0  0  0  0  0  0  0  0
  147.2014  126.7469  150.4258 H   0  0  0  0  0  0  0  0  0  0  0  0
  148.0903  126.9843  152.7645 H   0  0  0  0  0  0  0  0  0  0  0  0
  149.2142  128.2026  152.2131 H   0  0  0  0  0  0  0  0  0  0  0  0
  146.3909  128.8434  151.4871 H   0  0  0  0  0  0  0  0  0  0  0  0
  146.6232  128.6244  153.2046 H   0  0  0  0  0  0  0  0  0  0  0  0
  148.1793  130.1666  154.4541 H   0  0  0  0  0  0  0  0  0  0  0  0
  149.4523  129.5679  153.4079 H   0  0  0  0  0  0  0  0  0  0  0  0
  150.0635  131.7788  154.3636 H   0  0  0  0  0  0  0  0  0  0  0  0
  149.9800  131.8315  152.6184 H   0  0  0  0  0  0  0  0  0  0  0  0
  147.8179  132.7690  154.5577 H   0  0  0  0  0  0  0  0  0  0  0  0
  148.6837  134.7969  152.8384 H   0  0  0  0  0  0  0  0  0  0  0  0
  149.9596  136.2337  153.2680 H   0  0  0  0  0  0  0  0  0  0  0  0
  151.0985  138.1793  153.2810 H   0  0  0  0  0  0  0  0  0  0  0  0
  152.9171  139.5935  154.2898 H   0  0  0  0  0  0  0  0  0  0  0  0
  154.2404  138.6091  156.1948 H   0  0  0  0  0  0  0  0  0  0  0  0
  146.5423  133.4570  152.5410 H   0  0  0  0  0  0  0  0  0  0  0  0
  147.8142  132.8684  151.4975 H   0  0  0  0  0  0  0  0  0  0  0  0
  145.9969  131.2278  151.6205 H   0  0  0  0  0  0  0  0  0  0  0  0
  146.0851  131.1683  153.3672 H   0  0  0  0  0  0  0  0  0  0  0  0
  148.2426  130.3915  151.5411 H   0  0  0  0  0  0  0  0  0  0  0  0
  1  2  1  0  0  0  0
  1 20  1  0  0  0  0
  1 21  1  0  0  0  0
  1 22  1  0  0  0  0
  2  3  1  0  0  0  0
  2 23  1  0  0  0  0
  2 24  1  0  0  0  0
  3  4  1  0  0  0  0
  3 25  1  0  0  0  0
  3 26  1  0  0  0  0
  4 19  1  0  0  0  0
  4  5  1  0  0  0  0
  4 41  1  0  0  0  0
  5  6  1  0  0  0  0
  5 27  1  0  0  0  0
  5 28  1  0  0  0  0
  6  7  1  0  0  0  0
  6 29  1  0  0  0  0
  6 30  1  0  0  0  0
  7  8  1  0  0  0  0
  7 18  1  0  0  0  0
  7 31  1  0  0  0  0
  8  9  1  0  0  0  0
  8 32  1  0  0  0  0
  9 10  2  0  0  0  0
  9 11  1  0  0  0  0
 11 12  1  0  0  0  0
 11 33  1  0  0  0  0
 12 17  1  0  0  0  0
 12 13  2  0  0  0  0
 13 14  1  0  0  0  0
 13 34  1  0  0  0  0
 14 15  2  0  0  0  0
 14 35  1  0  0  0  0
 15 16  1  0  0  0  0
 15 36  1  0  0  0  0
 16 17  2  0  0  0  0
 18 19  1  0  0  0  0
 18 37  1  0  0  0  0
 18 38  1  0  0  0  0
 19 39  1  0  0  0  0
 19 40  1  0  0  0  0
M  CHG  1   4   1
M  END
> <s_m_source_file>
AV-unprocessed.smi

> <i_m_source_file_index>
656

> <i_lp_mmshare_version>
43012

> <i_f3d_flags>
0

> <s_epik_input>
W0NIM11bQ0gyXVtDSDJdTjFbQ0gyXVtDSDJdW0NIXShbQ0gyXVtDSDJdMSlbTkhdQyg9TylbTkhdYzJbY0hdW2NIXVtjSF1ubjI=

> <s_epik_cmdline>
J2VwaWtfcHl0aG9uJywgJy1waCcsICc3LjAnLCAnLXRuJywgJzgnLCAnLW1hJywgJzIwMCcsICctbWV0YWxfYmluZGluZycsICctaW1hZScsICc8aW5maWxlLm1hZT4nLCAnLW9tYWUnLCAnPG91dGZpbGUubWFlPic=

> <r_lp_tautomer_probability>
1

> <r_epik_Ionization_Penalty>
0.00614766

> <r_epik_Ionization_Penalty_Charging>
0.00269617

> <r_epik_Ionization_Penalty_Neutral>
0.00345149

> <r_epik_State_Penalty>
-0

> <r_epik_Charging_Adjusted_Penalty>
0.00269617

> <i_epik_Tot_Q>
1

> <i_epik_Tot_abs_Q>
1

> <r_epik_Metal_State_Penalty>
-0

> <b_epik_Metal_Only>
0

> <s_lp_Force_Field>
OPLS_2005

> <r_lp_Energy>
22.9703

> <b_lp_Chiralities_Consistent>
1

> <s_lp_Variant>
AV-unprocessed.smi:656-1

> <Gold.Version>
5.8.1

> <Gold.Id.Protein>
6NUR|6NUR_protein|mol2

> <Gold.PLP.Fitness>
46.3219

> <Gold.PLP.PLP>
-37.5983

> <Gold.PLP.part.hbond>
-6.0000

> <Gold.PLP.part.metal>
0.0000

> <Gold.PLP.part.buried>
-2.1292

> <Gold.PLP.part.nonpolar>
-30.1627

> <Gold.PLP.part.repulsive>
0.1527

> <Gold.PLP.ligand.clash>
0.0000

> <Gold.PLP.ligand.torsion>
0.3997

> <Gold.PLP.Chemscore.Hbond>
3.1650

> <Gold.PLP.Chemscore.CHOScore>
0.0000

> <Gold.PLP.Chemscore.Metal>
0.0000

> <Gold.Chemscore.Hbonds>
donor molecule, donor type, donor heavy atom, donor atom, acceptor molecule, acceptor atom, score
      L1  H     4    41       P1 10747  0.96
      L1  H     8    32       P1  7948  0.88
      L1  H    11    33       P1  7948  0.55
      P1  H 10752 10765       L1    17  0.08

> <Gold.PLP.Chemscore.Internal.Correction>
0.0280

> <Gold.Rescore>
     Score         DG    S(hbond)    S(metal)    S(lipo)     H(rot)  DE(clash)    DE(int)     intcor
     17.17     -18.95       2.54        0.00      74.50       1.45       0.00       1.78       ----

> <Gold.Chemscore.Fitness>
17.1665

> <Gold.Chemscore.DG>
-18.9481

> <Gold.Chemscore.ZeroCoef>
-5.4800

> <Gold.Chemscore.Hbond>
2.5354

> <Gold.Chemscore.Metal>
0.0000

> <Gold.Chemscore.Lipo>
74.4997

> <Gold.Chemscore.Internal_Hbond>
0.0000

> <Gold.Chemscore.DEClash>
0.0015

> <Gold.Chemscore.DEInternal>
1.7801

> <Gold.Chemscore.Rot>
1.4518

> <Gold.Chemscore.Internal.Correction>
   9.000000E+99

> <Gold.Chemscore.Hbonds>
donor molecule, donor type, donor heavy atom, donor atom, acceptor molecule, acceptor atom, score
      L1  H     4    41       P1 10747  0.90
      L1  H     8    32       P1  7948  0.17
      L1  H    11    33       P1  7948  0.03

> <Gold.Chemscore.Hbond.Weighted>
-8.4681

> <Gold.Chemscore.Metal.Weighted>
-0.0000

> <Gold.Chemscore.Lipo.Weighted>
-8.7165

> <Gold.Chemscore.Internal_Hbond.Weighted>
0.0000

> <Gold.Chemscore.DEClash.Weighted>
0.0015

> <Gold.Chemscore.DEInternal.Weighted>
1.7801

> <Gold.Chemscore.Rot.Weighted>
3.7165

> <Gold.Chemscore.Internal.Correction.Weighted>
   9.000000E+99

> <Gold.Protein.RotatedTorsions>
[ 6907 6896 6895 6894 ] final   -6.84 input  -60.11 | X-H torsion
[ 7974 7965 7964 7962 ] final -158.83 input  175.53 | X-H torsion
[ 8008 7997 7996 7995 ] final    1.40 input   59.86 | X-H torsion
[ 10167 10162 10161 10158 ] final   93.24 input  -65.29 | X-H torsion
[ 10718 10713 10712 10709 ] final   96.45 input   66.30 | X-H torsion
[ 10763 10752 10751 10750 ] final -154.92 input  -60.55 | X-H torsion
[ 11005 11000 10999 10996 ] final  -99.00 input  -57.11 | X-H torsion

> <Gold.Protein.ActiveResidues>
 VAL166  LYS551  ARG553  GLY616  TRP617  ASP618  TYR619  PRO620  LYS621  CYS622 
 ASP623  PHE694  ASN695  SER759  ASP760  ASP761  ALA762  ILE779  LEU786  VAL792 
 PHE793  MET794  SER795  GLU796  ALA797  LYS798  CYS799  TRP800  GLU811  SER814 

> <Gold.Protein.RotatedAtoms>
  151.4591  135.1037  159.9719 H   0  0  0  0  0  0  0  0  0  0  0  0  # atno 6907 bound_to 6896
  152.4859  133.8369  159.7143 H   0  0  0  0  0  0  0  0  0  0  0  0  # atno 6908 bound_to 6896
  150.8969  133.7109  159.2916 H   0  0  0  0  0  0  0  0  0  0  0  0  # atno 6909 bound_to 6896
  144.7490  140.3772  143.6063 H   0  0  0  0  0  0  0  0  0  0  0  0  # atno 7974 bound_to 7965
  154.6793  140.2629  155.6925 H   0  0  0  0  0  0  0  0  0  0  0  0  # atno 8008 bound_to 7997
  156.2690  140.2813  156.1253 H   0  0  0  0  0  0  0  0  0  0  0  0  # atno 8009 bound_to 7997
  155.1055  140.0375  157.2699 H   0  0  0  0  0  0  0  0  0  0  0  0  # atno 8010 bound_to 7997
  139.8198  144.6736  150.9533 H   0  0  0  0  0  0  0  0  0  0  0  0  # atno 10167 bound_to 10162
  157.6926  131.0578  150.4493 H   0  0  0  0  0  0  0  0  0  0  0  0  # atno 10718 bound_to 10713
  154.7824  135.3179  154.7960 H   0  0  0  0  0  0  0  0  0  0  0  0  # atno 10763 bound_to 10752
  153.8668  135.6848  153.4782 H   0  0  0  0  0  0  0  0  0  0  0  0  # atno 10764 bound_to 10752
  153.1465  135.4717  154.9512 H   0  0  0  0  0  0  0  0  0  0  0  0  # atno 10765 bound_to 10752
  141.1325  133.8288  157.0913 H   0  0  0  0  0  0  0  0  0  0  0  0  # atno 11005 bound_to 11000
  145.7016  139.1662  143.2590 LP  0  0  0  0  0  0  0  0  0  0  0  0  # atno 17320 bound_to 7965
  146.1412  140.7055  142.9366 LP  0  0  0  0  0  0  0  0  0  0  0  0  # atno 17321 bound_to 7965
  140.7814  143.4102  151.1005 LP  0  0  0  0  0  0  0  0  0  0  0  0  # atno 17342 bound_to 10162
  139.7763  143.8420  152.3130 LP  0  0  0  0  0  0  0  0  0  0  0  0  # atno 17343 bound_to 10162
  156.4846  130.4081  149.6442 LP  0  0  0  0  0  0  0  0  0  0  0  0  # atno 17370 bound_to 10713
  156.3475  130.7414  151.2369 LP  0  0  0  0  0  0  0  0  0  0  0  0  # atno 17371 bound_to 10713
  140.0390  134.9864  157.0926 LP  0  0  0  0  0  0  0  0  0  0  0  0  # atno 17394 bound_to 11000
  140.4165  134.1926  155.7163 LP  0  0  0  0  0  0  0  0  0  0  0  0  # atno 17395 bound_to 11000

$$$$
