AV-unprocessed.smi:2484|AV-procd|sdf|9787|dock4
  -GOLD-   2272013423D 1   1.00000     0.00000
 Structure written by MMmdl.
 45 46  0  0  0  0  0  0  0  0  1 V2000
  140.0098  139.2640  155.4268 C   0  0  0  0  0  0  0  0  0  0  0  0
  140.1941  139.7570  153.9725 C   0  0  0  0  0  0  0  0  0  0  0  0
  141.3915  139.1373  153.3880 N   0  0  0  0  0  0  0  0  0  0  0  0
  141.5991  137.8429  153.0905 C   0  0  0  0  0  0  0  0  0  0  0  0
  140.7651  136.9545  153.2647 O   0  0  0  0  0  0  0  0  0  0  0  0
  142.8282  137.6578  152.5780 N   0  0  0  0  0  0  0  0  0  0  0  0
  143.4500  136.4326  152.2197 C   0  0  0  0  0  0  0  0  0  0  0  0
  144.7871  136.5360  151.7863 C   0  0  0  0  0  0  0  0  0  0  0  0
  145.4694  135.3603  151.4308 C   0  0  0  0  0  0  0  0  0  0  0  0
  144.7692  134.1369  151.5320 C   0  0  0  0  0  0  0  0  0  0  0  0
  145.3988  132.7744  151.1910 C   0  0  0  0  0  0  0  0  0  0  0  0
  145.4819  131.8384  152.4180 C   0  0  0  0  0  0  0  0  0  0  0  0
  146.8355  132.9787  150.6665 C   0  0  0  0  0  0  0  0  0  0  0  0
  144.5457  132.0623  150.1205 C   0  0  0  0  0  0  0  0  0  0  0  0
  143.4814  134.1019  151.9535 N   0  0  0  0  0  0  0  0  0  0  0  0
  142.8377  135.2239  152.2880 N   0  0  0  0  0  0  0  0  0  0  0  0
  139.0018  139.3126  153.0937 C   0  0  0  0  0  0  0  0  0  0  0  0
  137.7227  140.1262  153.3583 C   0  0  0  0  0  0  0  0  0  0  0  0
  137.9843  141.5123  153.1878 O   0  0  0  0  0  0  0  0  0  0  0  0
  138.9441  142.0017  154.1142 C   0  0  0  0  0  0  0  0  0  0  0  0
  140.2971  141.3023  153.8958 C   0  0  0  0  0  0  0  0  0  0  0  0
  139.0846  139.6320  155.8690 H   0  0  0  0  0  0  0  0  0  0  0  0
  140.8213  139.5957  156.0745 H   0  0  0  0  0  0  0  0  0  0  0  0
  139.9787  138.1747  155.4725 H   0  0  0  0  0  0  0  0  0  0  0  0
  142.1537  139.7711  153.1969 H   0  0  0  0  0  0  0  0  0  0  0  0
  143.3949  138.4840  152.4574 H   0  0  0  0  0  0  0  0  0  0  0  0
  145.2840  137.4935  151.7296 H   0  0  0  0  0  0  0  0  0  0  0  0
  146.4942  135.4225  151.0994 H   0  0  0  0  0  0  0  0  0  0  0  0
  145.9315  130.8804  152.1539 H   0  0  0  0  0  0  0  0  0  0  0  0
  144.4951  131.6232  152.8295 H   0  0  0  0  0  0  0  0  0  0  0  0
  146.0928  132.2688  153.2124 H   0  0  0  0  0  0  0  0  0  0  0  0
  147.4570  133.4876  151.4039 H   0  0  0  0  0  0  0  0  0  0  0  0
  146.8532  133.5754  149.7541 H   0  0  0  0  0  0  0  0  0  0  0  0
  147.3137  132.0263  150.4349 H   0  0  0  0  0  0  0  0  0  0  0  0
  144.9581  131.0847  149.8685 H   0  0  0  0  0  0  0  0  0  0  0  0
  144.4942  132.6367  149.1949 H   0  0  0  0  0  0  0  0  0  0  0  0
  143.5234  131.9084  150.4680 H   0  0  0  0  0  0  0  0  0  0  0  0
  139.2613  139.4366  152.0407 H   0  0  0  0  0  0  0  0  0  0  0  0
  138.8009  138.2491  153.2305 H   0  0  0  0  0  0  0  0  0  0  0  0
  136.9447  139.8310  152.6540 H   0  0  0  0  0  0  0  0  0  0  0  0
  137.3276  139.9361  154.3569 H   0  0  0  0  0  0  0  0  0  0  0  0
  139.0549  143.0760  153.9656 H   0  0  0  0  0  0  0  0  0  0  0  0
  138.5873  141.8630  155.1356 H   0  0  0  0  0  0  0  0  0  0  0  0
  141.0179  141.6819  154.6202 H   0  0  0  0  0  0  0  0  0  0  0  0
  140.6723  141.5922  152.9132 H   0  0  0  0  0  0  0  0  0  0  0  0
  1  2  1  0  0  0  0
  1 22  1  0  0  0  0
  1 23  1  0  0  0  0
  1 24  1  0  0  0  0
  2 21  1  0  0  0  0
  2  3  1  0  0  0  0
  2 17  1  0  0  0  0
  3  4  1  0  0  0  0
  3 25  1  0  0  0  0
  4  5  2  0  0  0  0
  4  6  1  0  0  0  0
  6  7  1  0  0  0  0
  6 26  1  0  0  0  0
  7 16  1  0  0  0  0
  7  8  2  0  0  0  0
  8  9  1  0  0  0  0
  8 27  1  0  0  0  0
  9 10  2  0  0  0  0
  9 28  1  0  0  0  0
 10 11  1  0  0  0  0
 10 15  1  0  0  0  0
 11 12  1  0  0  0  0
 11 13  1  0  0  0  0
 11 14  1  0  0  0  0
 12 29  1  0  0  0  0
 12 30  1  0  0  0  0
 12 31  1  0  0  0  0
 13 32  1  0  0  0  0
 13 33  1  0  0  0  0
 13 34  1  0  0  0  0
 14 35  1  0  0  0  0
 14 36  1  0  0  0  0
 14 37  1  0  0  0  0
 15 16  2  0  0  0  0
 17 18  1  0  0  0  0
 17 38  1  0  0  0  0
 17 39  1  0  0  0  0
 18 19  1  0  0  0  0
 18 40  1  0  0  0  0
 18 41  1  0  0  0  0
 19 20  1  0  0  0  0
 20 21  1  0  0  0  0
 20 42  1  0  0  0  0
 20 43  1  0  0  0  0
 21 44  1  0  0  0  0
 21 45  1  0  0  0  0
M  END
> <s_m_source_file>
AV-unprocessed.smi

> <i_m_source_file_index>
2484

> <i_lp_mmshare_version>
43012

> <i_f3d_flags>
0

> <s_epik_input>
W0NIMl0xW0NIMl1PW0NIMl1bQ0gyXUMxKFtDSDNdKVtOSF1DKD1PKVtOSF1jMltjSF1bY0hdYyhubjIpQyhbQ0gzXSkoW0NIM10pW0NIM10=

> <s_epik_cmdline>
J2VwaWtfcHl0aG9uJywgJy1waCcsICc3LjAnLCAnLXRuJywgJzgnLCAnLW1hJywgJzIwMCcsICctbWV0YWxfYmluZGluZycsICctaW1hZScsICc8aW5maWxlLm1hZT4nLCAnLW9tYWUnLCAnPG91dGZpbGUubWFlPic=

> <r_lp_tautomer_probability>
1

> <r_epik_Ionization_Penalty>
0.0115026

> <r_epik_Ionization_Penalty_Charging>
0

> <r_epik_Ionization_Penalty_Neutral>
0.0115026

> <r_epik_State_Penalty>
0.00473796

> <r_epik_Charging_Adjusted_Penalty>
0.00473796

> <i_epik_Tot_Q>
0

> <i_epik_Tot_abs_Q>
0

> <r_epik_Metal_State_Penalty>
-0

> <b_epik_Metal_Only>
0

> <s_lp_Force_Field>
OPLS_2005

> <r_lp_Energy>
18.8992

> <b_lp_Chiralities_Consistent>
1

> <s_lp_Variant>
AV-unprocessed.smi:2484-1

> <Gold.Version>
5.8.1

> <Gold.Id.Protein>
6NUR|6NUR_protein|mol2

> <Gold.PLP.Fitness>
37.8343

> <Gold.PLP.PLP>
-32.1047

> <Gold.PLP.part.hbond>
-3.0376

> <Gold.PLP.part.metal>
0.0000

> <Gold.PLP.part.buried>
-2.4024

> <Gold.PLP.part.nonpolar>
-26.9804

> <Gold.PLP.part.repulsive>
0.6191

> <Gold.PLP.ligand.clash>
0.0000

> <Gold.PLP.ligand.torsion>
0.1401

> <Gold.PLP.Chemscore.Hbond>
2.0000

> <Gold.PLP.Chemscore.CHOScore>
0.0000

> <Gold.PLP.Chemscore.Metal>
0.0000

> <Gold.Chemscore.Hbonds>
donor molecule, donor type, donor heavy atom, donor atom, acceptor molecule, acceptor atom, score
      L1  H     3    25       P1 10175  1.00
      L1  H     6    26       P1 10175  1.00

> <Gold.PLP.Chemscore.Internal.Correction>
0.0097

> <Gold.Rescore>
     Score         DG    S(hbond)    S(metal)    S(lipo)     H(rot)  DE(clash)    DE(int)     intcor
     15.12     -17.21       1.84        0.00      73.36       1.18       0.17       1.91       ----

> <Gold.Chemscore.Fitness>
15.1233

> <Gold.Chemscore.DG>
-17.2078

> <Gold.Chemscore.ZeroCoef>
-5.4800

> <Gold.Chemscore.Hbond>
1.8426

> <Gold.Chemscore.Metal>
0.0000

> <Gold.Chemscore.Lipo>
73.3554

> <Gold.Chemscore.Internal_Hbond>
0.0000

> <Gold.Chemscore.DEClash>
0.1698

> <Gold.Chemscore.DEInternal>
1.9147

> <Gold.Chemscore.Rot>
1.1753

> <Gold.Chemscore.Internal.Correction>
   9.000000E+99

> <Gold.Chemscore.Hbonds>
donor molecule, donor type, donor heavy atom, donor atom, acceptor molecule, acceptor atom, score
      L1  H     3    25       P1 10175  0.78
      L1  H     6    26       P1 10175  0.94

> <Gold.Chemscore.Hbond.Weighted>
-6.1541

> <Gold.Chemscore.Metal.Weighted>
-0.0000

> <Gold.Chemscore.Lipo.Weighted>
-8.5826

> <Gold.Chemscore.Internal_Hbond.Weighted>
0.0000

> <Gold.Chemscore.DEClash.Weighted>
0.1698

> <Gold.Chemscore.DEInternal.Weighted>
1.9147

> <Gold.Chemscore.Rot.Weighted>
3.0089

> <Gold.Chemscore.Internal.Correction.Weighted>
   9.000000E+99

> <Gold.Protein.RotatedTorsions>
[ 6907 6896 6895 6894 ] final -167.21 input  -60.11 | X-H torsion
[ 7974 7965 7964 7962 ] final   70.57 input  175.53 | X-H torsion
[ 8008 7997 7996 7995 ] final  114.42 input   59.86 | X-H torsion
[ 10167 10162 10161 10158 ] final  -94.08 input  -65.29 | X-H torsion
[ 10718 10713 10712 10709 ] final  -54.15 input   66.30 | X-H torsion
[ 10763 10752 10751 10750 ] final -136.05 input  -60.55 | X-H torsion
[ 11005 11000 10999 10996 ] final   35.41 input  -57.11 | X-H torsion

> <Gold.Protein.ActiveResidues>
 VAL166  LYS551  ARG553  GLY616  TRP617  ASP618  TYR619  PRO620  LYS621  CYS622 
 ASP623  PHE694  ASN695  SER759  ASP760  ASP761  ALA762  ILE779  LEU786  VAL792 
 PHE793  MET794  SER795  GLU796  ALA797  LYS798  CYS799  TRP800  GLU811  SER814 

> <Gold.Protein.RotatedAtoms>
  151.4558  133.3605  159.2801 H   0  0  0  0  0  0  0  0  0  0  0  0  # atno 6907 bound_to 6896
  150.9059  134.8476  159.7403 H   0  0  0  0  0  0  0  0  0  0  0  0  # atno 6908 bound_to 6896
  152.4905  134.4483  159.9618 H   0  0  0  0  0  0  0  0  0  0  0  0  # atno 6909 bound_to 6896
  145.7766  139.2868  143.1290 H   0  0  0  0  0  0  0  0  0  0  0  0  # atno 7974 bound_to 7965
  156.2320  140.2959  156.0213 H   0  0  0  0  0  0  0  0  0  0  0  0  # atno 8008 bound_to 7997
  155.2198  140.0415  157.2964 H   0  0  0  0  0  0  0  0  0  0  0  0  # atno 8009 bound_to 7997
  154.6012  140.2427  155.7798 H   0  0  0  0  0  0  0  0  0  0  0  0  # atno 8010 bound_to 7997
  140.3181  143.3065  152.0076 H   0  0  0  0  0  0  0  0  0  0  0  0  # atno 10167 bound_to 10162
  156.1475  130.4152  150.0000 H   0  0  0  0  0  0  0  0  0  0  0  0  # atno 10718 bound_to 10713
  154.8691  135.3684  154.4999 H   0  0  0  0  0  0  0  0  0  0  0  0  # atno 10763 bound_to 10752
  153.5640  135.7022  153.5539 H   0  0  0  0  0  0  0  0  0  0  0  0  # atno 10764 bound_to 10752
  153.3602  135.4048  155.1676 H   0  0  0  0  0  0  0  0  0  0  0  0  # atno 10765 bound_to 10752
  140.2429  134.3393  155.7919 H   0  0  0  0  0  0  0  0  0  0  0  0  # atno 11005 bound_to 11000
  146.0117  140.8429  142.9968 LP  0  0  0  0  0  0  0  0  0  0  0  0  # atno 17320 bound_to 7965
  144.6803  140.2499  143.7333 LP  0  0  0  0  0  0  0  0  0  0  0  0  # atno 17321 bound_to 7965
  139.4880  144.6332  151.7028 LP  0  0  0  0  0  0  0  0  0  0  0  0  # atno 17342 bound_to 10162
  140.5508  144.0429  150.6126 LP  0  0  0  0  0  0  0  0  0  0  0  0  # atno 17343 bound_to 10162
  156.7868  130.9241  151.3646 LP  0  0  0  0  0  0  0  0  0  0  0  0  # atno 17370 bound_to 10713
  157.6629  130.8981  149.9868 LP  0  0  0  0  0  0  0  0  0  0  0  0  # atno 17371 bound_to 10713
  141.2209  133.7309  156.8914 LP  0  0  0  0  0  0  0  0  0  0  0  0  # atno 17394 bound_to 11000
  140.1635  134.9149  157.2744 LP  0  0  0  0  0  0  0  0  0  0  0  0  # atno 17395 bound_to 11000

$$$$
