AV-unprocessed.smi:3314|AV-procd|sdf|12732|dock5
  -GOLD-   2272019 73D 1   1.00000     0.00000
 Structure written by MMmdl.
 38 39  0  0  0  0  0  0  0  0  2 V2000
  151.8584  145.2967  159.3817 C   0  0  0  0  0  0  0  0  0  0  0  0
  152.1614  143.8197  159.2392 C   0  0  0  0  0  0  0  0  0  0  0  0
  153.1188  143.1947  160.0608 C   0  0  0  0  0  0  0  0  0  0  0  0
  153.3565  141.8185  159.8765 C   0  0  0  0  0  0  0  0  0  0  0  0
  154.3712  141.0826  160.7260 C   0  0  0  0  0  0  0  0  0  0  0  0
  152.7106  141.0767  158.9512 N   0  0  0  0  0  0  0  0  0  0  0  0
  151.7882  141.6690  158.1530 C   0  0  0  0  0  0  0  0  0  0  0  0
  151.0560  140.9791  157.1514 N   0  0  0  0  0  0  0  0  0  0  0  0
  151.4921  140.0253  156.3075 C   0  0  0  0  0  0  0  0  0  0  0  0
  152.6483  139.6014  156.2698 O   0  0  0  0  0  0  0  0  0  0  0  0
  150.4280  139.4655  155.3439 C   0  0  1  0  0  0  0  0  0  0  0  0
  149.0926  139.0622  156.0144 C   0  0  0  0  0  0  0  0  0  0  0  0
  148.3172  140.2536  156.4358 N   0  3  2  0  0  0  0  0  0  0  0  0
  147.0555  139.9009  157.1204 C   0  0  0  0  0  0  0  0  0  0  0  0
  148.1125  141.1783  155.2985 C   0  0  0  0  0  0  0  0  0  0  0  0
  149.4636  141.5679  154.6777 C   0  0  0  0  0  0  0  0  0  0  0  0
  150.1700  140.3913  154.2840 O   0  0  0  0  0  0  0  0  0  0  0  0
  151.4872  143.0440  158.2748 C   0  0  0  0  0  0  0  0  0  0  0  0
  152.4440  145.7465  160.1841 H   0  0  0  0  0  0  0  0  0  0  0  0
  150.8020  145.4465  159.6056 H   0  0  0  0  0  0  0  0  0  0  0  0
  152.0912  145.8205  158.4544 H   0  0  0  0  0  0  0  0  0  0  0  0
  153.6570  143.7548  160.8119 H   0  0  0  0  0  0  0  0  0  0  0  0
  154.8952  141.7644  161.3965 H   0  0  0  0  0  0  0  0  0  0  0  0
  155.1123  140.5926  160.0938 H   0  0  0  0  0  0  0  0  0  0  0  0
  153.8775  140.3217  161.3309 H   0  0  0  0  0  0  0  0  0  0  0  0
  150.0864  141.2462  157.0621 H   0  0  0  0  0  0  0  0  0  0  0  0
  150.8579  138.5714  154.8903 H   0  0  0  0  0  0  0  0  0  0  0  0
  148.4960  138.4758  155.3136 H   0  0  0  0  0  0  0  0  0  0  0  0
  149.2791  138.4191  156.8759 H   0  0  0  0  0  0  0  0  0  0  0  0
  146.3778  139.3739  156.4474 H   0  0  0  0  0  0  0  0  0  0  0  0
  146.5514  140.7978  157.4814 H   0  0  0  0  0  0  0  0  0  0  0  0
  147.2516  139.2598  157.9804 H   0  0  0  0  0  0  0  0  0  0  0  0
  147.4793  140.7023  154.5482 H   0  0  0  0  0  0  0  0  0  0  0  0
  147.5895  142.0727  155.6385 H   0  0  0  0  0  0  0  0  0  0  0  0
  149.3024  142.1883  153.7959 H   0  0  0  0  0  0  0  0  0  0  0  0
  150.0531  142.1668  155.3730 H   0  0  0  0  0  0  0  0  0  0  0  0
  150.7488  143.5041  157.6338 H   0  0  0  0  0  0  0  0  0  0  0  0
  148.8870  140.7435  157.1116 H   0  0  0  0  0  0  0  0  0  0  0  0
  1  2  1  0  0  0  0
  1 19  1  0  0  0  0
  1 20  1  0  0  0  0
  1 21  1  0  0  0  0
  2 18  1  0  0  0  0
  2  3  2  0  0  0  0
  3  4  1  0  0  0  0
  3 22  1  0  0  0  0
  4  5  1  0  0  0  0
  4  6  2  0  0  0  0
  5 23  1  0  0  0  0
  5 24  1  0  0  0  0
  5 25  1  0  0  0  0
  6  7  1  0  0  0  0
  7  8  1  0  0  0  0
  7 18  2  0  0  0  0
  8  9  1  0  0  0  0
  8 26  1  0  0  0  0
  9 10  2  0  0  0  0
  9 11  1  0  0  0  0
 11 17  1  0  0  0  0
 11 12  1  0  0  0  0
 11 27  1  0  0  0  0
 12 13  1  0  0  0  0
 12 28  1  0  0  0  0
 12 29  1  0  0  0  0
 13 14  1  0  0  0  0
 13 15  1  0  0  0  0
 13 38  1  0  0  0  0
 14 30  1  0  0  0  0
 14 31  1  0  0  0  0
 14 32  1  0  0  0  0
 15 16  1  0  0  0  0
 15 33  1  0  0  0  0
 15 34  1  0  0  0  0
 16 17  1  0  0  0  0
 16 35  1  0  0  0  0
 16 36  1  0  0  0  0
 18 37  1  0  0  0  0
M  CHG  1  13   1
M  END
> <s_m_source_file>
AV-unprocessed.smi

> <i_m_source_file_index>
3314

> <i_lp_mmshare_version>
43012

> <i_f3d_flags>
0

> <s_epik_input>
W0NIM11jMVtjSF1jKFtDSDNdKW5jKFtjSF0xKVtOSF1DKD1PKVtDQEBIXTJbQ0gyXU4oW0NIM10pW0NIMl1bQ0gyXU8y

> <s_epik_cmdline>
J2VwaWtfcHl0aG9uJywgJy1waCcsICc3LjAnLCAnLXRuJywgJzgnLCAnLW1hJywgJzIwMCcsICctbWV0YWxfYmluZGluZycsICctaW1hZScsICc8aW5maWxlLm1hZT4nLCAnLW9tYWUnLCAnPG91dGZpbGUubWFlPic=

> <r_epik_Ionization_Penalty>
0.32442

> <r_epik_Ionization_Penalty_Charging>
0.314023

> <r_epik_Ionization_Penalty_Neutral>
0.0103972

> <r_epik_State_Penalty>
0.29453

> <r_epik_Charging_Adjusted_Penalty>
0.608553

> <i_epik_Tot_Q>
1

> <i_epik_Tot_abs_Q>
1

> <r_epik_Metal_State_Penalty>
0.286909

> <b_epik_Metal_Only>
0

> <s_lp_Force_Field>
OPLS_2005

> <r_lp_Energy>
14.9445

> <b_lp_Chiralities_Consistent>
1

> <s_lp_Variant>
AV-unprocessed.smi:3314-2

> <Gold.Version>
5.8.1

> <Gold.Id.Protein>
6NUR|6NUR_protein|mol2

> <Gold.PLP.Fitness>
40.8550

> <Gold.PLP.PLP>
-36.3172

> <Gold.PLP.part.hbond>
-2.0000

> <Gold.PLP.part.metal>
0.0000

> <Gold.PLP.part.buried>
-4.5604

> <Gold.PLP.part.nonpolar>
-30.5115

> <Gold.PLP.part.repulsive>
0.2004

> <Gold.PLP.ligand.clash>
0.0000

> <Gold.PLP.ligand.torsion>
0.6339

> <Gold.PLP.Chemscore.Hbond>
1.9280

> <Gold.PLP.Chemscore.CHOScore>
0.0000

> <Gold.PLP.Chemscore.Metal>
0.0000

> <Gold.Chemscore.Hbonds>
donor molecule, donor type, donor heavy atom, donor atom, acceptor molecule, acceptor atom, score
      P1  H  7989  7998       L1    17  0.91
      P1  H  7997  8009       L1    10  1.00

> <Gold.PLP.Chemscore.Internal.Correction>
0.0216

> <Gold.Rescore>
     Score         DG    S(hbond)    S(metal)    S(lipo)     H(rot)  DE(clash)    DE(int)     intcor
     15.35     -19.13       1.70        0.00      89.95       1.00       0.17       3.61       ----

> <Gold.Chemscore.Fitness>
15.3503

> <Gold.Chemscore.DG>
-19.1295

> <Gold.Chemscore.ZeroCoef>
-5.4800

> <Gold.Chemscore.Hbond>
1.7021

> <Gold.Chemscore.Metal>
0.0000

> <Gold.Chemscore.Lipo>
89.9539

> <Gold.Chemscore.Internal_Hbond>
0.0000

> <Gold.Chemscore.DEClash>
0.1719

> <Gold.Chemscore.DEInternal>
3.6072

> <Gold.Chemscore.Rot>
1.0000

> <Gold.Chemscore.Internal.Correction>
   9.000000E+99

> <Gold.Chemscore.Hbonds>
donor molecule, donor type, donor heavy atom, donor atom, acceptor molecule, acceptor atom, score
      P1  H  7989  7998       L1    17  0.48
      P1  H  7997  8009       L1    10  1.00

> <Gold.Chemscore.Hbond.Weighted>
-5.6849

> <Gold.Chemscore.Metal.Weighted>
-0.0000

> <Gold.Chemscore.Lipo.Weighted>
-10.5246

> <Gold.Chemscore.Internal_Hbond.Weighted>
0.0000

> <Gold.Chemscore.DEClash.Weighted>
0.1719

> <Gold.Chemscore.DEInternal.Weighted>
3.6072

> <Gold.Chemscore.Rot.Weighted>
2.5600

> <Gold.Chemscore.Internal.Correction.Weighted>
   9.000000E+99

> <Gold.Protein.RotatedTorsions>
[ 6907 6896 6895 6894 ] final -157.25 input  -60.11 | X-H torsion
[ 7974 7965 7964 7962 ] final    0.52 input  175.53 | X-H torsion
[ 8008 7997 7996 7995 ] final -153.28 input   59.86 | X-H torsion
[ 10167 10162 10161 10158 ] final  142.40 input  -65.29 | X-H torsion
[ 10718 10713 10712 10709 ] final  -22.60 input   66.30 | X-H torsion
[ 10763 10752 10751 10750 ] final  -49.73 input  -60.55 | X-H torsion
[ 11005 11000 10999 10996 ] final   18.15 input  -57.11 | X-H torsion

> <Gold.Protein.ActiveResidues>
 VAL166  LYS551  ARG553  GLY616  TRP617  ASP618  TYR619  PRO620  LYS621  CYS622 
 ASP623  PHE694  ASN695  SER759  ASP760  ASP761  ALA762  ILE779  LEU786  VAL792 
 PHE793  MET794  SER795  GLU796  ALA797  LYS798  CYS799  TRP800  GLU811  SER814 

> <Gold.Protein.RotatedAtoms>
  151.3000  133.4126  159.2638 H   0  0  0  0  0  0  0  0  0  0  0  0  # atno 6907 bound_to 6896
  151.0203  134.9465  159.8066 H   0  0  0  0  0  0  0  0  0  0  0  0  # atno 6908 bound_to 6896
  152.5322  134.2963  159.9114 H   0  0  0  0  0  0  0  0  0  0  0  0  # atno 6909 bound_to 6896
  146.2435  140.1125  142.8343 H   0  0  0  0  0  0  0  0  0  0  0  0  # atno 7974 bound_to 7965
  155.6683  140.0730  157.2529 H   0  0  0  0  0  0  0  0  0  0  0  0  # atno 8008 bound_to 7997
  154.4128  140.1703  156.1902 H   0  0  0  0  0  0  0  0  0  0  0  0  # atno 8009 bound_to 7997
  155.9638  140.3367  155.6517 H   0  0  0  0  0  0  0  0  0  0  0  0  # atno 8010 bound_to 7997
  139.4995  144.6109  151.6273 H   0  0  0  0  0  0  0  0  0  0  0  0  # atno 10167 bound_to 10162
  156.5024  130.4591  149.6693 H   0  0  0  0  0  0  0  0  0  0  0  0  # atno 10718 bound_to 10713
  154.0988  135.6566  153.4865 H   0  0  0  0  0  0  0  0  0  0  0  0  # atno 10763 bound_to 10752
  153.0296  135.5220  154.7307 H   0  0  0  0  0  0  0  0  0  0  0  0  # atno 10764 bound_to 10752
  154.6453  135.2994  155.0023 H   0  0  0  0  0  0  0  0  0  0  0  0  # atno 10765 bound_to 10752
  140.4280  134.1449  155.7678 H   0  0  0  0  0  0  0  0  0  0  0  0  # atno 11005 bound_to 11000
  145.0475  140.8992  143.5015 LP  0  0  0  0  0  0  0  0  0  0  0  0  # atno 17320 bound_to 7965
  145.1217  139.2689  143.5585 LP  0  0  0  0  0  0  0  0  0  0  0  0  # atno 17321 bound_to 7965
  140.5783  143.9989  150.6254 LP  0  0  0  0  0  0  0  0  0  0  0  0  # atno 17342 bound_to 10162
  140.3130  143.3186  152.0860 LP  0  0  0  0  0  0  0  0  0  0  0  0  # atno 17343 bound_to 10162
  156.3320  130.7336  151.2267 LP  0  0  0  0  0  0  0  0  0  0  0  0  # atno 17370 bound_to 10713
  157.7461  131.0427  150.4709 LP  0  0  0  0  0  0  0  0  0  0  0  0  # atno 17371 bound_to 10713
  141.1757  133.8519  157.1428 LP  0  0  0  0  0  0  0  0  0  0  0  0  # atno 17394 bound_to 11000
  140.0154  134.9970  157.0482 LP  0  0  0  0  0  0  0  0  0  0  0  0  # atno 17395 bound_to 11000

$$$$
