AV-unprocessed.smi:72|AV-procd|sdf|758|dock6
  -GOLD-   2262017 93D 1   1.00000     0.00000
 Structure written by MMmdl.
 29 30  0  0  0  0  0  0  0  0  1 V2000
  146.7434  129.7032  152.2419 N   0  0  0  0  0  0  0  0  0  0  0  0
  146.0992  130.8940  151.9778 C   0  0  0  0  0  0  0  0  0  0  0  0
  146.6191  132.0363  152.6026 N   0  0  0  0  0  0  0  0  0  0  0  0
  146.0108  133.1547  152.3638 C   0  0  0  0  0  0  0  0  0  0  0  0
  144.8475  133.2110  151.4975 N   0  0  0  0  0  0  0  0  0  0  0  0
  144.1509  134.5226  151.2124 C   0  0  1  0  0  0  0  0  0  0  0  0
  143.5754  134.9955  152.3948 O   0  0  0  0  0  0  0  0  0  0  0  0
  143.8180  136.3927  152.5191 C   0  0  1  0  0  0  0  0  0  0  0  0
  143.7545  136.8061  153.9978 C   0  0  0  0  0  0  0  0  0  0  0  0
  143.9363  138.2007  154.1198 O   0  0  0  0  0  0  0  0  0  0  0  0
  145.2095  136.5358  151.9003 C   0  0  2  0  0  0  0  0  0  0  0  0
  145.5184  137.8665  151.5305 O   0  0  0  0  0  0  0  0  0  0  0  0
  145.1535  135.5764  150.7146 C   0  0  2  0  0  0  0  0  0  0  0  0
  144.6839  136.2011  149.5343 O   0  0  0  0  0  0  0  0  0  0  0  0
  144.3880  132.0174  150.8760 C   0  0  0  0  0  0  0  0  0  0  0  0
  143.4285  132.0453  150.1055 O   0  0  0  0  0  0  0  0  0  0  0  0
  145.0763  130.8348  151.1741 N   0  0  0  0  0  0  0  0  0  0  0  0
  143.3487  134.3118  150.5039 H   0  0  0  0  0  0  0  0  0  0  0  0
  143.0900  136.9430  151.9193 H   0  0  0  0  0  0  0  0  0  0  0  0
  145.9609  136.1836  152.6085 H   0  0  0  0  0  0  0  0  0  0  0  0
  146.1276  135.1306  150.5076 H   0  0  0  0  0  0  0  0  0  0  0  0
  146.4590  128.8185  151.8474 H   0  0  0  0  0  0  0  0  0  0  0  0
  147.5483  129.6277  152.8469 H   0  0  0  0  0  0  0  0  0  0  0  0
  146.3269  134.1097  152.7856 H   0  0  0  0  0  0  0  0  0  0  0  0
  142.8123  136.5026  154.4552 H   0  0  0  0  0  0  0  0  0  0  0  0
  144.5563  136.3237  154.5573 H   0  0  0  0  0  0  0  0  0  0  0  0
  143.8523  138.5912  153.2635 H   0  0  0  0  0  0  0  0  0  0  0  0
  144.7479  138.2572  151.1476 H   0  0  0  0  0  0  0  0  0  0  0  0
  144.4185  137.0826  149.7484 H   0  0  0  0  0  0  0  0  0  0  0  0
  1  2  1  0  0  0  0
  1 22  1  0  0  0  0
  1 23  1  0  0  0  0
  2 17  2  0  0  0  0
  2  3  1  0  0  0  0
  3  4  2  0  0  0  0
  4  5  1  0  0  0  0
  4 24  1  0  0  0  0
  5  6  1  0  0  0  0
  5 15  1  0  0  0  0
  6 18  1  0  0  0  0
  6 13  1  0  0  0  0
  6  7  1  0  0  0  0
  7  8  1  0  0  0  0
  8 19  1  0  0  0  0
  8  9  1  0  0  0  0
  8 11  1  0  0  0  0
  9 10  1  0  0  0  0
  9 25  1  0  0  0  0
  9 26  1  0  0  0  0
 10 27  1  0  0  0  0
 11 20  1  0  0  0  0
 11 12  1  0  0  0  0
 11 13  1  0  0  0  0
 12 28  1  0  0  0  0
 13 21  1  0  0  0  0
 13 14  1  0  0  0  0
 14 29  1  0  0  0  0
 15 16  2  0  0  0  0
 15 17  1  0  0  0  0
M  END
> <s_m_source_file>
AV-unprocessed.smi

> <i_m_source_file_index>
72

> <i_lp_mmshare_version>
43012

> <i_f3d_flags>
0

> <s_epik_input>
W05IMl1jMW5bY0hdbihjKD1PKW4xKVtDQEBIXTJPW0NASF0oW0NIMl1bT0hdKVtDQEBIXShbT0hdKVtDQEhdMltPSF0=

> <s_epik_cmdline>
J2VwaWtfcHl0aG9uJywgJy1waCcsICc3LjAnLCAnLXRuJywgJzgnLCAnLW1hJywgJzIwMCcsICctbWV0YWxfYmluZGluZycsICctaW1hZScsICc8aW5maWxlLm1hZT4nLCAnLW9tYWUnLCAnPG91dGZpbGUubWFlPic=

> <r_lp_tautomer_probability>
4.77166e-05

> <r_epik_Ionization_Penalty>
1.3546

> <r_epik_Ionization_Penalty_Charging>
1.46833e-10

> <r_epik_Ionization_Penalty_Neutral>
1.3546

> <r_epik_State_Penalty>
3.51908

> <r_epik_Charging_Adjusted_Penalty>
3.51908

> <i_epik_Tot_Q>
0

> <i_epik_Tot_abs_Q>
0

> <r_epik_Metal_State_Penalty>
3.44088

> <b_epik_Metal_Only>
1

> <s_epik_Chemistry_Notes>
This compound contains an acetal/aminal-like group ( X-CH(R)-Y where X, Y are N, S, or O) that may be acid/base labile, releasing an aldehyde.

> <s_lp_Force_Field>
OPLS_2005

> <r_lp_Energy>
31.7119

> <b_lp_Chiralities_Consistent>
1

> <s_lp_Variant>
AV-unprocessed.smi:72-96

> <Gold.Version>
5.8.1

> <Gold.Id.Protein>
6NUR|6NUR_protein|mol2

> <Gold.PLP.Fitness>
37.3160

> <Gold.PLP.PLP>
-28.2015

> <Gold.PLP.part.hbond>
-5.1586

> <Gold.PLP.part.metal>
0.0000

> <Gold.PLP.part.buried>
-7.9155

> <Gold.PLP.part.nonpolar>
-16.3081

> <Gold.PLP.part.repulsive>
0.6620

> <Gold.PLP.ligand.clash>
0.0000

> <Gold.PLP.ligand.torsion>
0.0857

> <Gold.PLP.Chemscore.Hbond>
3.0901

> <Gold.PLP.Chemscore.CHOScore>
0.0000

> <Gold.PLP.Chemscore.Metal>
0.0000

> <Gold.Chemscore.Hbonds>
donor molecule, donor type, donor heavy atom, donor atom, acceptor molecule, acceptor atom, score
      L1  H    10    27       P1 10175  0.75
      L1  H    12    28       P1 10171  0.98
      L1  H    14    29       P1 10171  1.00
      P1  H 10785 10796       L1    16  0.19

> <Gold.PLP.Chemscore.Internal.Correction>
0.0157

> <Gold.Rescore>
     Score         DG    S(hbond)    S(metal)    S(lipo)     H(rot)  DE(clash)    DE(int)     intcor
      8.21      -8.33       3.29        0.00      19.32       4.06       0.03       0.09       ----

> <Gold.Chemscore.Fitness>
8.2107

> <Gold.Chemscore.DG>
-8.3282

> <Gold.Chemscore.ZeroCoef>
-5.4800

> <Gold.Chemscore.Hbond>
3.2877

> <Gold.Chemscore.Metal>
0.0000

> <Gold.Chemscore.Lipo>
19.3247

> <Gold.Chemscore.Internal_Hbond>
0.0000

> <Gold.Chemscore.DEClash>
0.0310

> <Gold.Chemscore.DEInternal>
0.0865

> <Gold.Chemscore.Rot>
4.0600

> <Gold.Chemscore.Internal.Correction>
   9.000000E+99

> <Gold.Chemscore.Hbonds>
donor molecule, donor type, donor heavy atom, donor atom, acceptor molecule, acceptor atom, score
      L1  H    10    27       P1 10175  0.72
      L1  H    12    28       P1 10171  0.93
      L1  H    14    29       P1 10171  0.97
      P1  H 10785 10796       L1    16  0.19

> <Gold.Chemscore.Hbond.Weighted>
-10.9808

> <Gold.Chemscore.Metal.Weighted>
-0.0000

> <Gold.Chemscore.Lipo.Weighted>
-2.2610

> <Gold.Chemscore.Internal_Hbond.Weighted>
0.0000

> <Gold.Chemscore.DEClash.Weighted>
0.0310

> <Gold.Chemscore.DEInternal.Weighted>
0.0865

> <Gold.Chemscore.Rot.Weighted>
10.3936

> <Gold.Chemscore.Internal.Correction.Weighted>
   9.000000E+99

> <Gold.Protein.RotatedTorsions>
[ 6907 6896 6895 6894 ] final   51.45 input  -60.11 | X-H torsion
[ 7974 7965 7964 7962 ] final  131.62 input  175.53 | X-H torsion
[ 8008 7997 7996 7995 ] final   57.05 input   59.86 | X-H torsion
[ 10167 10162 10161 10158 ] final  145.69 input  -65.29 | X-H torsion
[ 10718 10713 10712 10709 ] final   31.73 input   66.30 | X-H torsion
[ 10763 10752 10751 10750 ] final   15.82 input  -60.55 | X-H torsion
[ 11005 11000 10999 10996 ] final  130.07 input  -57.11 | X-H torsion

> <Gold.Protein.ActiveResidues>
 VAL166  LYS551  ARG553  GLY616  TRP617  ASP618  TYR619  PRO620  LYS621  CYS622 
 ASP623  PHE694  ASN695  SER759  ASP760  ASP761  ALA762  ILE779  LEU786  VAL792 
 PHE793  MET794  SER795  GLU796  ALA797  LYS798  CYS799  TRP800  GLU811  SER814 

> <Gold.Protein.RotatedAtoms>
  152.3128  134.7477  160.0332 H   0  0  0  0  0  0  0  0  0  0  0  0  # atno 6907 bound_to 6896
  151.7952  133.3358  159.3519 H   0  0  0  0  0  0  0  0  0  0  0  0  # atno 6908 bound_to 6896
  150.7329  134.5736  159.5947 H   0  0  0  0  0  0  0  0  0  0  0  0  # atno 6909 bound_to 6896
  145.0054  139.4272  143.5271 H   0  0  0  0  0  0  0  0  0  0  0  0  # atno 7974 bound_to 7965
  155.5274  140.3481  155.4419 H   0  0  0  0  0  0  0  0  0  0  0  0  # atno 8008 bound_to 7997
  156.0742  140.1370  156.9818 H   0  0  0  0  0  0  0  0  0  0  0  0  # atno 8009 bound_to 7997
  154.4544  140.0959  156.6690 H   0  0  0  0  0  0  0  0  0  0  0  0  # atno 8010 bound_to 7997
  139.4921  144.5883  151.6733 H   0  0  0  0  0  0  0  0  0  0  0  0  # atno 10167 bound_to 10162
  157.2762  130.7232  149.6531 H   0  0  0  0  0  0  0  0  0  0  0  0  # atno 10718 bound_to 10713
  153.1489  135.6774  153.8913 H   0  0  0  0  0  0  0  0  0  0  0  0  # atno 10763 bound_to 10752
  153.8346  135.3113  155.3422 H   0  0  0  0  0  0  0  0  0  0  0  0  # atno 10764 bound_to 10752
  154.7846  135.4869  154.0005 H   0  0  0  0  0  0  0  0  0  0  0  0  # atno 10765 bound_to 10752
  139.9651  134.9592  156.9239 H   0  0  0  0  0  0  0  0  0  0  0  0  # atno 11005 bound_to 11000
  146.3460  139.9466  142.8734 LP  0  0  0  0  0  0  0  0  0  0  0  0  # atno 17320 bound_to 7965
  145.2096  140.9890  143.4108 LP  0  0  0  0  0  0  0  0  0  0  0  0  # atno 17321 bound_to 7965
  140.5504  144.0434  150.6125 LP  0  0  0  0  0  0  0  0  0  0  0  0  # atno 17342 bound_to 10162
  140.3486  143.2976  152.0511 LP  0  0  0  0  0  0  0  0  0  0  0  0  # atno 17343 bound_to 10162
  155.9664  130.4352  150.5082 LP  0  0  0  0  0  0  0  0  0  0  0  0  # atno 17370 bound_to 10713
  157.3016  131.0646  151.2064 LP  0  0  0  0  0  0  0  0  0  0  0  0  # atno 17371 bound_to 10713
  140.5415  134.0715  155.7343 LP  0  0  0  0  0  0  0  0  0  0  0  0  # atno 17394 bound_to 11000
  141.1330  133.9270  157.2495 LP  0  0  0  0  0  0  0  0  0  0  0  0  # atno 17395 bound_to 11000

$$$$
