AV-unprocessed.smi:1005|AV-procd|sdf|4388|dock6
  -GOLD-   22720 2313D 1   1.00000     0.00000
 Structure written by MMmdl.
 55 57  0  0  0  0  0  0  0  0  1 V2000
  153.4101  142.2844  161.1418 C   0  0  0  0  0  0  0  0  0  0  0  0
  152.5463  142.1646  159.8987 C   0  0  0  0  0  0  0  0  0  0  0  0
  152.4059  140.9026  159.2786 C   0  0  0  0  0  0  0  0  0  0  0  0
  151.6136  140.7491  158.1198 C   0  0  0  0  0  0  0  0  0  0  0  0
  151.3425  139.6244  157.3594 N   0  0  0  0  0  0  0  0  0  0  0  0
  150.5496  140.1241  156.4159 C   0  0  0  0  0  0  0  0  0  0  0  0
  150.2722  141.4405  156.4762 N   0  0  0  0  0  0  0  0  0  0  0  0
  149.4372  142.1984  155.5606 C   0  0  0  0  0  0  0  0  0  0  0  0
  148.8209  141.3178  154.4567 C   0  0  2  0  0  0  0  0  0  0  0  0
  149.7923  141.0735  153.4574 O   0  0  0  0  0  0  0  0  0  0  0  0
  147.6006  142.0023  153.8071 C   0  0  0  0  0  0  0  0  0  0  0  0
  146.6008  142.5367  154.7339 N   0  0  0  0  0  0  0  0  0  0  0  0
  145.7413  141.4729  155.2401 C   0  0  0  0  0  0  0  0  0  0  0  0
  144.6794  142.0068  156.2147 C   0  0  0  0  0  0  0  0  0  0  0  0
  143.9188  143.0232  155.5705 O   0  0  0  0  0  0  0  0  0  0  0  0
  144.7143  144.1207  155.1273 C   0  0  2  0  0  0  0  0  0  0  0  0
  143.7692  145.1623  154.4925 C   0  0  0  0  0  0  0  0  0  0  0  0
  142.8946  145.8763  155.4245 N   0  0  0  0  0  0  0  0  0  0  0  0
  143.5751  146.9676  156.1103 C   0  0  0  0  0  0  0  0  0  0  0  0
  141.7080  146.3715  154.7410 C   0  0  0  0  0  0  0  0  0  0  0  0
  145.7635  143.5738  154.1335 C   0  0  0  0  0  0  0  0  0  0  0  0
  150.9588  141.9015  157.5947 C   0  0  0  0  0  0  0  0  0  0  0  0
  151.0906  143.1623  158.2031 C   0  0  0  0  0  0  0  0  0  0  0  0
  151.8866  143.2984  159.3597 C   0  0  0  0  0  0  0  0  0  0  0  0
  152.0242  144.6646  160.0079 C   0  0  0  0  0  0  0  0  0  0  0  0
  153.8684  141.3298  161.4015 H   0  0  0  0  0  0  0  0  0  0  0  0
  152.8118  142.6112  161.9924 H   0  0  0  0  0  0  0  0  0  0  0  0
  154.2110  143.0066  160.9832 H   0  0  0  0  0  0  0  0  0  0  0  0
  152.9086  140.0391  159.6885 H   0  0  0  0  0  0  0  0  0  0  0  0
  150.1463  139.4970  155.6343 H   0  0  0  0  0  0  0  0  0  0  0  0
  148.6479  142.6783  156.1410 H   0  0  0  0  0  0  0  0  0  0  0  0
  150.0334  143.0014  155.1252 H   0  0  0  0  0  0  0  0  0  0  0  0
  148.5385  140.3645  154.9016 H   0  0  0  0  0  0  0  0  0  0  0  0
  149.4202  140.4931  152.8112 H   0  0  0  0  0  0  0  0  0  0  0  0
  147.9484  142.8077  153.1581 H   0  0  0  0  0  0  0  0  0  0  0  0
  147.1228  141.2778  153.1456 H   0  0  0  0  0  0  0  0  0  0  0  0
  145.2443  140.9715  154.4080 H   0  0  0  0  0  0  0  0  0  0  0  0
  146.3443  140.7169  155.7441 H   0  0  0  0  0  0  0  0  0  0  0  0
  144.0109  141.2039  156.5253 H   0  0  0  0  0  0  0  0  0  0  0  0
  145.1449  142.4044  157.1179 H   0  0  0  0  0  0  0  0  0  0  0  0
  145.2069  144.5553  155.9995 H   0  0  0  0  0  0  0  0  0  0  0  0
  144.3389  145.8693  153.8872 H   0  0  0  0  0  0  0  0  0  0  0  0
  143.1303  144.6298  153.7861 H   0  0  0  0  0  0  0  0  0  0  0  0
  142.8849  147.5035  156.7628 H   0  0  0  0  0  0  0  0  0  0  0  0
  143.9929  147.6818  155.3993 H   0  0  0  0  0  0  0  0  0  0  0  0
  144.3814  146.5937  156.7406 H   0  0  0  0  0  0  0  0  0  0  0  0
  141.0304  146.8575  155.4438 H   0  0  0  0  0  0  0  0  0  0  0  0
  141.1608  145.5535  154.2709 H   0  0  0  0  0  0  0  0  0  0  0  0
  141.9713  147.0942  153.9675 H   0  0  0  0  0  0  0  0  0  0  0  0
  146.3811  144.3977  153.7839 H   0  0  0  0  0  0  0  0  0  0  0  0
  145.2569  143.1733  153.2539 H   0  0  0  0  0  0  0  0  0  0  0  0
  150.5851  144.0179  157.7806 H   0  0  0  0  0  0  0  0  0  0  0  0
  151.4361  145.4163  159.4807 H   0  0  0  0  0  0  0  0  0  0  0  0
  153.0657  144.9870  159.9984 H   0  0  0  0  0  0  0  0  0  0  0  0
  151.6794  144.6346  161.0417 H   0  0  0  0  0  0  0  0  0  0  0  0
  1  2  1  0  0  0  0
  1 26  1  0  0  0  0
  1 27  1  0  0  0  0
  1 28  1  0  0  0  0
  2 24  1  0  0  0  0
  2  3  2  0  0  0  0
  3  4  1  0  0  0  0
  3 29  1  0  0  0  0
  4 22  2  0  0  0  0
  4  5  1  0  0  0  0
  5  6  2  0  0  0  0
  6  7  1  0  0  0  0
  6 30  1  0  0  0  0
  7  8  1  0  0  0  0
  7 22  1  0  0  0  0
  8  9  1  0  0  0  0
  8 31  1  0  0  0  0
  8 32  1  0  0  0  0
  9 10  1  0  0  0  0
  9 11  1  0  0  0  0
  9 33  1  0  0  0  0
 10 34  1  0  0  0  0
 11 12  1  0  0  0  0
 11 35  1  0  0  0  0
 11 36  1  0  0  0  0
 12 21  1  0  0  0  0
 12 13  1  0  0  0  0
 13 14  1  0  0  0  0
 13 37  1  0  0  0  0
 13 38  1  0  0  0  0
 14 15  1  0  0  0  0
 14 39  1  0  0  0  0
 14 40  1  0  0  0  0
 15 16  1  0  0  0  0
 16 17  1  0  0  0  0
 16 21  1  0  0  0  0
 16 41  1  0  0  0  0
 17 18  1  0  0  0  0
 17 42  1  0  0  0  0
 17 43  1  0  0  0  0
 18 19  1  0  0  0  0
 18 20  1  0  0  0  0
 19 44  1  0  0  0  0
 19 45  1  0  0  0  0
 19 46  1  0  0  0  0
 20 47  1  0  0  0  0
 20 48  1  0  0  0  0
 20 49  1  0  0  0  0
 21 50  1  0  0  0  0
 21 51  1  0  0  0  0
 22 23  1  0  0  0  0
 23 24  2  0  0  0  0
 23 52  1  0  0  0  0
 24 25  1  0  0  0  0
 25 53  1  0  0  0  0
 25 54  1  0  0  0  0
 25 55  1  0  0  0  0
M  END
> <s_m_source_file>
AV-unprocessed.smi

> <i_m_source_file_index>
1005

> <i_lp_mmshare_version>
43012

> <i_f3d_flags>
0

> <s_epik_input>
W0NIM11jKFtjSF0xKWMoW0NIM10pW2NIXWMoYzEyKW4oW2NIXW4yKVtDSDJdW0NASF0oW09IXSlbQ0gyXU4zW0NIMl1bQ0gyXU9bQ0BIXShbQ0gyXTMpW0NIMl1OKFtDSDNdKVtDSDNd

> <s_epik_cmdline>
J2VwaWtfcHl0aG9uJywgJy1waCcsICc3LjAnLCAnLXRuJywgJzgnLCAnLW1hJywgJzIwMCcsICctbWV0YWxfYmluZGluZycsICctaW1hZScsICc8aW5maWxlLm1hZT4nLCAnLW9tYWUnLCAnPG91dGZpbGUubWFlPic=

> <r_epik_Ionization_Penalty>
2.78613

> <r_epik_Ionization_Penalty_Charging>
0

> <r_epik_Ionization_Penalty_Neutral>
2.78613

> <r_epik_State_Penalty>
2.57336

> <r_epik_Charging_Adjusted_Penalty>
2.57336

> <i_epik_Tot_Q>
0

> <i_epik_Tot_abs_Q>
0

> <r_epik_Metal_State_Penalty>
2.49087

> <b_epik_Metal_Only>
0

> <s_lp_Force_Field>
OPLS_2005

> <r_lp_Energy>
40.4742

> <b_lp_Chiralities_Consistent>
1

> <s_lp_Variant>
AV-unprocessed.smi:1005-27

> <Gold.Version>
5.8.1

> <Gold.Id.Protein>
6NUR|6NUR_protein|mol2

> <Gold.PLP.Fitness>
56.1925

> <Gold.PLP.PLP>
-51.5748

> <Gold.PLP.part.hbond>
-2.4370

> <Gold.PLP.part.metal>
0.0000

> <Gold.PLP.part.buried>
-4.2347

> <Gold.PLP.part.nonpolar>
-44.0756

> <Gold.PLP.part.repulsive>
0.3387

> <Gold.PLP.ligand.clash>
0.0000

> <Gold.PLP.ligand.torsion>
0.7000

> <Gold.PLP.Chemscore.Hbond>
1.9440

> <Gold.PLP.Chemscore.CHOScore>
0.0000

> <Gold.PLP.Chemscore.Metal>
0.0000

> <Gold.Chemscore.Hbonds>
donor molecule, donor type, donor heavy atom, donor atom, acceptor molecule, acceptor atom, score
      L1  H    10    34       P1  7957  0.80
      P1  H  7989  7998       L1    10  0.21
      P1  H  8011  8017       L1    10  0.60

> <Gold.PLP.Chemscore.Internal.Correction>
0.1856

> <Gold.Rescore>
     Score         DG    S(hbond)    S(metal)    S(lipo)     H(rot)  DE(clash)    DE(int)     intcor
     17.91     -20.44       1.27        0.00     141.79       2.29       1.75       0.78       ----

> <Gold.Chemscore.Fitness>
17.9143

> <Gold.Chemscore.DG>
-20.4420

> <Gold.Chemscore.ZeroCoef>
-5.4800

> <Gold.Chemscore.Hbond>
1.2677

> <Gold.Chemscore.Metal>
0.0000

> <Gold.Chemscore.Lipo>
141.7856

> <Gold.Chemscore.Internal_Hbond>
0.0000

> <Gold.Chemscore.DEClash>
1.7507

> <Gold.Chemscore.DEInternal>
0.7770

> <Gold.Chemscore.Rot>
2.2895

> <Gold.Chemscore.Internal.Correction>
   9.000000E+99

> <Gold.Chemscore.Hbonds>
donor molecule, donor type, donor heavy atom, donor atom, acceptor molecule, acceptor atom, score
      L1  H    10    34       P1  7957  0.80
      P1  H  7989  7998       L1    10  0.16
      P1  H  8011  8017       L1    10  0.03

> <Gold.Chemscore.Hbond.Weighted>
-4.2342

> <Gold.Chemscore.Metal.Weighted>
-0.0000

> <Gold.Chemscore.Lipo.Weighted>
-16.5889

> <Gold.Chemscore.Internal_Hbond.Weighted>
0.0000

> <Gold.Chemscore.DEClash.Weighted>
1.7507

> <Gold.Chemscore.DEInternal.Weighted>
0.7770

> <Gold.Chemscore.Rot.Weighted>
5.8612

> <Gold.Chemscore.Internal.Correction.Weighted>
   9.000000E+99

> <Gold.Protein.RotatedTorsions>
[ 6907 6896 6895 6894 ] final  -39.94 input  -60.11 | X-H torsion
[ 7974 7965 7964 7962 ] final   11.34 input  175.53 | X-H torsion
[ 8008 7997 7996 7995 ] final  -48.76 input   59.86 | X-H torsion
[ 10167 10162 10161 10158 ] final  165.80 input  -65.29 | X-H torsion
[ 10718 10713 10712 10709 ] final   80.54 input   66.30 | X-H torsion
[ 10763 10752 10751 10750 ] final  135.95 input  -60.55 | X-H torsion
[ 11005 11000 10999 10996 ] final -158.57 input  -57.11 | X-H torsion

> <Gold.Protein.ActiveResidues>
 VAL166  LYS551  ARG553  GLY616  TRP617  ASP618  TYR619  PRO620  LYS621  CYS622 
 ASP623  PHE694  ASN695  SER759  ASP760  ASP761  ALA762  ILE779  LEU786  VAL792 
 PHE793  MET794  SER795  GLU796  ALA797  LYS798  CYS799  TRP800  GLU811  SER814 

> <Gold.Protein.RotatedAtoms>
  150.9844  134.9192  159.7862 H   0  0  0  0  0  0  0  0  0  0  0  0  # atno 6907 bound_to 6896
  152.5232  134.3367  159.9212 H   0  0  0  0  0  0  0  0  0  0  0  0  # atno 6908 bound_to 6896
  151.3373  133.3935  159.2702 H   0  0  0  0  0  0  0  0  0  0  0  0  # atno 6909 bound_to 6896
  146.2372  139.9499  142.8472 H   0  0  0  0  0  0  0  0  0  0  0  0  # atno 7974 bound_to 7965
  154.4033  140.1313  156.4392 H   0  0  0  0  0  0  0  0  0  0  0  0  # atno 8008 bound_to 7997
  155.7475  140.3488  155.5114 H   0  0  0  0  0  0  0  0  0  0  0  0  # atno 8009 bound_to 7997
  155.8981  140.1014  157.1360 H   0  0  0  0  0  0  0  0  0  0  0  0  # atno 8010 bound_to 7997
  139.4912  144.4094  151.9317 H   0  0  0  0  0  0  0  0  0  0  0  0  # atno 10167 bound_to 10162
  157.6809  130.9964  150.2094 H   0  0  0  0  0  0  0  0  0  0  0  0  # atno 10718 bound_to 10713
  153.8485  135.3082  155.3431 H   0  0  0  0  0  0  0  0  0  0  0  0  # atno 10763 bound_to 10752
  154.7901  135.4787  154.0037 H   0  0  0  0  0  0  0  0  0  0  0  0  # atno 10764 bound_to 10752
  153.1532  135.6847  153.8943 H   0  0  0  0  0  0  0  0  0  0  0  0  # atno 10765 bound_to 10752
  140.6522  134.4438  157.5235 H   0  0  0  0  0  0  0  0  0  0  0  0  # atno 11005 bound_to 11000
  145.1871  140.9794  143.4232 LP  0  0  0  0  0  0  0  0  0  0  0  0  # atno 17320 bound_to 7965
  144.9890  139.3708  143.6224 LP  0  0  0  0  0  0  0  0  0  0  0  0  # atno 17321 bound_to 7965
  140.3535  144.3060  150.5945 LP  0  0  0  0  0  0  0  0  0  0  0  0  # atno 17342 bound_to 10162
  140.5465  143.2214  151.7999 LP  0  0  0  0  0  0  0  0  0  0  0  0  # atno 17343 bound_to 10162
  156.2768  130.3728  149.7976 LP  0  0  0  0  0  0  0  0  0  0  0  0  # atno 17370 bound_to 10713
  156.5676  130.8411  151.3347 LP  0  0  0  0  0  0  0  0  0  0  0  0  # atno 17371 bound_to 10713
  139.9042  134.8487  156.1773 LP  0  0  0  0  0  0  0  0  0  0  0  0  # atno 17394 bound_to 11000
  141.0528  133.6880  156.1804 LP  0  0  0  0  0  0  0  0  0  0  0  0  # atno 17395 bound_to 11000

$$$$
