AV-unprocessed.smi:828|AV-procd|sdf|3858|dock8
  -GOLD-   22720 1313D 1   1.00000     0.00000
 Structure written by MMmdl.
 35 36  0  0  0  0  0  0  0  0  2 V2000
  150.9858  142.8431  157.0052 C   0  0  0  0  0  0  0  0  0  0  0  0
  150.7508  141.7289  156.0436 C   0  0  0  0  0  0  0  0  0  0  0  0
  151.7433  140.9802  155.5469 N   0  0  0  0  0  0  0  0  0  0  0  0
  151.2815  140.0093  154.6693 N   0  0  0  0  0  0  0  0  0  0  0  0
  149.9496  140.0553  154.5290 C   0  0  0  0  0  0  0  0  0  0  0  0
  149.2146  139.1786  153.6875 N   0  0  0  0  0  0  0  0  0  0  0  0
  147.9529  139.3155  153.2433 C   0  0  0  0  0  0  0  0  0  0  0  0
  147.2111  140.2686  153.4830 O   0  0  0  0  0  0  0  0  0  0  0  0
  147.5833  138.2688  152.4912 N   0  0  0  0  0  0  0  0  0  0  0  0
  146.2744  138.1197  151.8630 C   0  0  0  0  0  0  0  0  0  0  0  0
  145.5385  136.8461  152.3295 C   0  0  2  0  0  0  0  0  0  0  0  0
  146.2483  135.5384  151.9230 C   0  0  0  0  0  0  0  0  0  0  0  0
  145.3699  134.9320  150.8334 C   0  0  0  0  0  0  0  0  0  0  0  0
  143.9765  135.4197  151.2085 C   0  0  0  0  0  0  0  0  0  0  0  0
  144.1830  136.7850  151.7285 N   0  3  1  0  0  0  0  0  0  0  0  0
  143.0969  137.2652  152.6095 C   0  0  0  0  0  0  0  0  0  0  0  0
  149.1444  141.3021  155.4663 S   0  0  0  0  0  0  0  0  0  0  0  0
  151.8785  142.6507  157.6011 H   0  0  0  0  0  0  0  0  0  0  0  0
  150.1344  142.9457  157.6781 H   0  0  0  0  0  0  0  0  0  0  0  0
  151.1204  143.7795  156.4636 H   0  0  0  0  0  0  0  0  0  0  0  0
  149.7066  138.3469  153.3964 H   0  0  0  0  0  0  0  0  0  0  0  0
  148.2525  137.5282  152.3393 H   0  0  0  0  0  0  0  0  0  0  0  0
  145.6716  139.0051  152.0716 H   0  0  0  0  0  0  0  0  0  0  0  0
  146.4174  138.0938  150.7822 H   0  0  0  0  0  0  0  0  0  0  0  0
  145.4473  136.8583  153.4170 H   0  0  0  0  0  0  0  0  0  0  0  0
  147.2755  135.6820  151.5864 H   0  0  0  0  0  0  0  0  0  0  0  0
  146.2809  134.8632  152.7790 H   0  0  0  0  0  0  0  0  0  0  0  0
  145.6550  135.3340  149.8603 H   0  0  0  0  0  0  0  0  0  0  0  0
  145.4411  133.8449  150.7847 H   0  0  0  0  0  0  0  0  0  0  0  0
  143.2855  135.4102  150.3652 H   0  0  0  0  0  0  0  0  0  0  0  0
  143.5645  134.7822  151.9925 H   0  0  0  0  0  0  0  0  0  0  0  0
  143.0132  136.6479  153.5049 H   0  0  0  0  0  0  0  0  0  0  0  0
  142.1415  137.2398  152.0847 H   0  0  0  0  0  0  0  0  0  0  0  0
  143.2841  138.2938  152.9193 H   0  0  0  0  0  0  0  0  0  0  0  0
  144.2081  137.3917  150.9213 H   0  0  0  0  0  0  0  0  0  0  0  0
  1  2  1  0  0  0  0
  1 18  1  0  0  0  0
  1 19  1  0  0  0  0
  1 20  1  0  0  0  0
  2 17  1  0  0  0  0
  2  3  2  0  0  0  0
  3  4  1  0  0  0  0
  4  5  2  0  0  0  0
  5  6  1  0  0  0  0
  5 17  1  0  0  0  0
  6  7  1  0  0  0  0
  6 21  1  0  0  0  0
  7  8  2  0  0  0  0
  7  9  1  0  0  0  0
  9 10  1  0  0  0  0
  9 22  1  0  0  0  0
 10 11  1  0  0  0  0
 10 23  1  0  0  0  0
 10 24  1  0  0  0  0
 11 15  1  0  0  0  0
 11 12  1  0  0  0  0
 11 25  1  0  0  0  0
 12 13  1  0  0  0  0
 12 26  1  0  0  0  0
 12 27  1  0  0  0  0
 13 14  1  0  0  0  0
 13 28  1  0  0  0  0
 13 29  1  0  0  0  0
 14 15  1  0  0  0  0
 14 30  1  0  0  0  0
 14 31  1  0  0  0  0
 15 16  1  0  0  0  0
 15 35  1  0  0  0  0
 16 32  1  0  0  0  0
 16 33  1  0  0  0  0
 16 34  1  0  0  0  0
M  CHG  1  15   1
M  END
> <s_m_source_file>
AV-unprocessed.smi

> <i_m_source_file_index>
828

> <i_lp_mmshare_version>
43012

> <i_f3d_flags>
0

> <s_epik_input>
W0NIM11jMW5uYyhzMSlbTkhdQyg9TylbTkhdW0NIMl1bQ0BASF0yW0NIMl1bQ0gyXVtDSDJdTjJbQ0gzXQ==

> <s_epik_cmdline>
J2VwaWtfcHl0aG9uJywgJy1waCcsICc3LjAnLCAnLXRuJywgJzgnLCAnLW1hJywgJzIwMCcsICctbWV0YWxfYmluZGluZycsICctaW1hZScsICc8aW5maWxlLm1hZT4nLCAnLW9tYWUnLCAnPG91dGZpbGUubWFlPic=

> <r_lp_tautomer_probability>
1

> <r_epik_Ionization_Penalty>
0.00466477

> <r_epik_Ionization_Penalty_Charging>
0.00372199

> <r_epik_Ionization_Penalty_Neutral>
0.000942783

> <r_epik_State_Penalty>
-0

> <r_epik_Charging_Adjusted_Penalty>
0.00372199

> <i_epik_Tot_Q>
1

> <i_epik_Tot_abs_Q>
1

> <r_epik_Metal_State_Penalty>
0.28212

> <b_epik_Metal_Only>
0

> <s_lp_Force_Field>
OPLS_2005

> <r_lp_Energy>
24.623

> <b_lp_Chiralities_Consistent>
1

> <s_lp_Variant>
AV-unprocessed.smi:828-1

> <Gold.Version>
5.8.1

> <Gold.Id.Protein>
6NUR|6NUR_protein|mol2

> <Gold.PLP.Fitness>
36.4390

> <Gold.PLP.PLP>
-28.4730

> <Gold.PLP.part.hbond>
-5.8184

> <Gold.PLP.part.metal>
0.0000

> <Gold.PLP.part.buried>
1.2213

> <Gold.PLP.part.nonpolar>
-24.5827

> <Gold.PLP.part.repulsive>
0.4046

> <Gold.PLP.ligand.clash>
0.0000

> <Gold.PLP.ligand.torsion>
0.0673

> <Gold.PLP.Chemscore.Hbond>
2.7000

> <Gold.PLP.Chemscore.CHOScore>
0.0000

> <Gold.PLP.Chemscore.Metal>
0.0000

> <Gold.Chemscore.Hbonds>
donor molecule, donor type, donor heavy atom, donor atom, acceptor molecule, acceptor atom, score
      L1  H     9    22       P1  7948  0.99
      L1  H    15    35       P1 10171  1.00
      P1  H  7989  7998       L1     4  0.45

> <Gold.PLP.Chemscore.Internal.Correction>
0.0005

> <Gold.Rescore>
     Score         DG    S(hbond)    S(metal)    S(lipo)     H(rot)  DE(clash)    DE(int)     intcor
     14.39     -15.99       2.33        0.00      52.33       1.33       0.36       1.25       ----

> <Gold.Chemscore.Fitness>
14.3904

> <Gold.Chemscore.DG>
-15.9924

> <Gold.Chemscore.ZeroCoef>
-5.4800

> <Gold.Chemscore.Hbond>
2.3334

> <Gold.Chemscore.Metal>
0.0000

> <Gold.Chemscore.Lipo>
52.3268

> <Gold.Chemscore.Internal_Hbond>
0.0000

> <Gold.Chemscore.DEClash>
0.3563

> <Gold.Chemscore.DEInternal>
1.2456

> <Gold.Chemscore.Rot>
1.3294

> <Gold.Chemscore.Internal.Correction>
   9.000000E+99

> <Gold.Chemscore.Hbonds>
donor molecule, donor type, donor heavy atom, donor atom, acceptor molecule, acceptor atom, score
      L1  H     9    22       P1  7948  0.92
      L1  H    15    35       P1 10171  1.00

> <Gold.Chemscore.Hbond.Weighted>
-7.7934

> <Gold.Chemscore.Metal.Weighted>
-0.0000

> <Gold.Chemscore.Lipo.Weighted>
-6.1222

> <Gold.Chemscore.Internal_Hbond.Weighted>
0.0000

> <Gold.Chemscore.DEClash.Weighted>
0.3563

> <Gold.Chemscore.DEInternal.Weighted>
1.2456

> <Gold.Chemscore.Rot.Weighted>
3.4033

> <Gold.Chemscore.Internal.Correction.Weighted>
   9.000000E+99

> <Gold.Protein.RotatedTorsions>
[ 6907 6896 6895 6894 ] final  -97.29 input  -60.11 | X-H torsion
[ 7974 7965 7964 7962 ] final   76.09 input  175.53 | X-H torsion
[ 8008 7997 7996 7995 ] final  -11.67 input   59.86 | X-H torsion
[ 10167 10162 10161 10158 ] final   28.50 input  -65.29 | X-H torsion
[ 10718 10713 10712 10709 ] final  -29.49 input   66.30 | X-H torsion
[ 10763 10752 10751 10750 ] final -145.13 input  -60.55 | X-H torsion
[ 11005 11000 10999 10996 ] final   93.73 input  -57.11 | X-H torsion

> <Gold.Protein.ActiveResidues>
 VAL166  LYS551  ARG553  GLY616  TRP617  ASP618  TYR619  PRO620  LYS621  CYS622 
 ASP623  PHE694  ASN695  SER759  ASP760  ASP761  ALA762  ILE779  LEU786  VAL792 
 PHE793  MET794  SER795  GLU796  ALA797  LYS798  CYS799  TRP800  GLU811  SER814 

> <Gold.Protein.RotatedAtoms>
  150.7012  134.1371  159.4090 H   0  0  0  0  0  0  0  0  0  0  0  0  # atno 6907 bound_to 6896
  151.9356  135.0234  160.0541 H   0  0  0  0  0  0  0  0  0  0  0  0  # atno 6908 bound_to 6896
  152.2138  133.4896  159.5161 H   0  0  0  0  0  0  0  0  0  0  0  0  # atno 6909 bound_to 6896
  145.7073  139.2602  143.1671 H   0  0  0  0  0  0  0  0  0  0  0  0  # atno 7974 bound_to 7965
  154.5444  140.2296  155.8587 H   0  0  0  0  0  0  0  0  0  0  0  0  # atno 8008 bound_to 7997
  156.1889  140.3082  155.9255 H   0  0  0  0  0  0  0  0  0  0  0  0  # atno 8009 bound_to 7997
  155.3193  140.0439  157.3029 H   0  0  0  0  0  0  0  0  0  0  0  0  # atno 8010 bound_to 7997
  140.4847  144.0561  150.6276 H   0  0  0  0  0  0  0  0  0  0  0  0  # atno 10167 bound_to 10162
  156.4118  130.4409  149.7246 H   0  0  0  0  0  0  0  0  0  0  0  0  # atno 10718 bound_to 10713
  154.8397  135.3421  154.6456 H   0  0  0  0  0  0  0  0  0  0  0  0  # atno 10763 bound_to 10752
  153.7068  135.6966  153.5053 H   0  0  0  0  0  0  0  0  0  0  0  0  # atno 10764 bound_to 10752
  153.2482  135.4362  155.0723 H   0  0  0  0  0  0  0  0  0  0  0  0  # atno 10765 bound_to 10752
  139.8806  134.8806  156.3760 H   0  0  0  0  0  0  0  0  0  0  0  0  # atno 11005 bound_to 11000
  146.0744  140.7833  142.9672 LP  0  0  0  0  0  0  0  0  0  0  0  0  # atno 17320 bound_to 7965
  144.6952  140.3392  143.7202 LP  0  0  0  0  0  0  0  0  0  0  0  0  # atno 17321 bound_to 7965
  140.3813  143.2801  152.0166 LP  0  0  0  0  0  0  0  0  0  0  0  0  # atno 17342 bound_to 10162
  139.4840  144.6152  151.7359 LP  0  0  0  0  0  0  0  0  0  0  0  0  # atno 17343 bound_to 10162
  156.4222  130.7774  151.2792 LP  0  0  0  0  0  0  0  0  0  0  0  0  # atno 17370 bound_to 10713
  157.7507  131.0179  150.3605 LP  0  0  0  0  0  0  0  0  0  0  0  0  # atno 17371 bound_to 10713
  140.9431  133.7501  156.0173 LP  0  0  0  0  0  0  0  0  0  0  0  0  # atno 17394 bound_to 11000
  140.8195  134.3306  157.5386 LP  0  0  0  0  0  0  0  0  0  0  0  0  # atno 17395 bound_to 11000

$$$$
