AV-unprocessed.smi:2760|AV-procd|sdf|10628|dock1
  -GOLD-   2272015 73D 1   1.00000     0.00000
 Structure written by MMmdl.
 32 33  0  0  0  0  0  0  0  0  1 V2000
  153.3389  136.4743  160.4614 O   0  0  0  0  0  0  0  0  0  0  0  0
  152.8734  137.5560  160.1098 C   0  0  0  0  0  0  0  0  0  0  0  0
  153.5772  138.8317  160.2382 C   0  0  0  0  0  0  0  0  0  0  0  0
  152.9946  139.9859  159.8249 C   0  0  0  0  0  0  0  0  0  0  0  0
  153.6521  141.3228  159.9269 C   0  0  0  0  0  0  0  0  0  0  0  0
  154.0169  141.9448  161.2576 C   0  0  0  0  0  0  0  0  0  0  0  0
  152.9079  142.5423  160.4258 C   0  0  0  0  0  0  0  0  0  0  0  0
  151.7080  139.9718  159.2680 N   0  0  0  0  0  0  0  0  0  0  0  0
  151.0625  138.8537  159.1454 C   0  0  0  0  0  0  0  0  0  0  0  0
  149.4013  138.5544  158.4745 S   0  0  0  0  0  0  0  0  0  0  0  0
  148.8277  137.1960  159.5342 C   0  0  0  0  0  0  0  0  0  0  0  0
  147.5399  137.5613  160.2801 C   0  0  0  0  0  0  0  0  0  0  0  0
  147.7420  137.4060  161.6754 O   0  0  0  0  0  0  0  0  0  0  0  0
  147.7597  136.0463  162.0807 C   0  0  0  0  0  0  0  0  0  0  0  0
  147.4730  135.9550  163.5846 C   0  0  0  0  0  0  0  0  0  0  0  0
  148.3058  136.7619  164.2410 F   0  0  0  0  0  0  0  0  0  0  0  0
  146.2209  136.3344  163.8387 F   0  0  0  0  0  0  0  0  0  0  0  0
  147.6588  134.7072  164.0145 F   0  0  0  0  0  0  0  0  0  0  0  0
  151.6401  137.6498  159.5624 N   0  0  0  0  0  0  0  0  0  0  0  0
  151.1112  136.7972  159.4506 H   0  0  0  0  0  0  0  0  0  0  0  0
  154.5672  138.8389  160.6695 H   0  0  0  0  0  0  0  0  0  0  0  0
  154.3580  141.4968  159.1161 H   0  0  0  0  0  0  0  0  0  0  0  0
  153.7358  141.4207  162.1686 H   0  0  0  0  0  0  0  0  0  0  0  0
  154.9541  142.4949  161.3118 H   0  0  0  0  0  0  0  0  0  0  0  0
  153.1083  143.4881  159.9271 H   0  0  0  0  0  0  0  0  0  0  0  0
  151.8875  142.4133  160.7809 H   0  0  0  0  0  0  0  0  0  0  0  0
  149.6136  136.9356  160.2438 H   0  0  0  0  0  0  0  0  0  0  0  0
  148.6521  136.3183  158.9118 H   0  0  0  0  0  0  0  0  0  0  0  0
  147.2512  138.5877  160.0486 H   0  0  0  0  0  0  0  0  0  0  0  0
  146.7282  136.9109  159.9508 H   0  0  0  0  0  0  0  0  0  0  0  0
  147.0092  135.4809  161.5255 H   0  0  0  0  0  0  0  0  0  0  0  0
  148.7321  135.6034  161.8600 H   0  0  0  0  0  0  0  0  0  0  0  0
  1  2  2  0  0  0  0
  2 19  1  0  0  0  0
  2  3  1  0  0  0  0
  3 21  1  0  0  0  0
  3  4  2  0  0  0  0
  4  5  1  0  0  0  0
  4  8  1  0  0  0  0
  5  7  1  0  0  0  0
  5  6  1  0  0  0  0
  5 22  1  0  0  0  0
  6  7  1  0  0  0  0
  6 23  1  0  0  0  0
  6 24  1  0  0  0  0
  7 25  1  0  0  0  0
  7 26  1  0  0  0  0
  8  9  2  0  0  0  0
  9 10  1  0  0  0  0
  9 19  1  0  0  0  0
 10 11  1  0  0  0  0
 11 12  1  0  0  0  0
 11 27  1  0  0  0  0
 11 28  1  0  0  0  0
 12 13  1  0  0  0  0
 12 29  1  0  0  0  0
 12 30  1  0  0  0  0
 13 14  1  0  0  0  0
 14 15  1  0  0  0  0
 14 31  1  0  0  0  0
 14 32  1  0  0  0  0
 15 16  1  0  0  0  0
 15 17  1  0  0  0  0
 15 18  1  0  0  0  0
 19 20  1  0  0  0  0
M  END
> <s_m_source_file>
AV-unprocessed.smi

> <i_m_source_file_index>
2760

> <i_lp_mmshare_version>
43012

> <i_f3d_flags>
0

> <s_epik_input>
W09IXWMxW2NIXWMoW0NIXTJbQ0gyXVtDSDJdMiluYyhuMSlTW0NIMl1bQ0gyXU9bQ0gyXUMoRikoRilG

> <s_epik_cmdline>
J2VwaWtfcHl0aG9uJywgJy1waCcsICc3LjAnLCAnLXRuJywgJzgnLCAnLW1hJywgJzIwMCcsICctbWV0YWxfYmluZGluZycsICctaW1hZScsICc8aW5maWxlLm1hZT4nLCAnLW9tYWUnLCAnPG91dGZpbGUubWFlPic=

> <r_lp_tautomer_probability>
0.660323

> <r_epik_Ionization_Penalty>
0.00540315

> <r_epik_Ionization_Penalty_Charging>
0.00540219

> <r_epik_Ionization_Penalty_Neutral>
9.53041e-07

> <r_epik_State_Penalty>
0.139188

> <r_epik_Charging_Adjusted_Penalty>
0.14459

> <i_epik_Tot_Q>
0

> <i_epik_Tot_abs_Q>
0

> <r_epik_Metal_State_Penalty>
0.790013

> <b_epik_Metal_Only>
0

> <s_lp_Force_Field>
OPLS_2005

> <r_lp_Energy>
15.5574

> <b_lp_Chiralities_Consistent>
1

> <s_lp_Variant>
AV-unprocessed.smi:2760-1

> <Gold.Version>
5.8.1

> <Gold.Id.Protein>
6NUR|6NUR_protein|mol2

> <Gold.PLP.Fitness>
45.0045

> <Gold.PLP.PLP>
-41.0055

> <Gold.PLP.part.hbond>
-2.8694

> <Gold.PLP.part.metal>
0.0000

> <Gold.PLP.part.buried>
-5.7029

> <Gold.PLP.part.nonpolar>
-33.2284

> <Gold.PLP.part.repulsive>
0.1288

> <Gold.PLP.ligand.clash>
0.0000

> <Gold.PLP.ligand.torsion>
1.4993

> <Gold.PLP.Chemscore.Hbond>
2.2661

> <Gold.PLP.Chemscore.CHOScore>
0.0000

> <Gold.PLP.Chemscore.Metal>
0.0000

> <Gold.Chemscore.Hbonds>
donor molecule, donor type, donor heavy atom, donor atom, acceptor molecule, acceptor atom, score
      P1  H  6896  6907       L1     1  1.00
      P1  H  6931  6943       L1    13  0.93

> <Gold.PLP.Chemscore.Internal.Correction>
0.1992

> <Gold.Rescore>
     Score         DG    S(hbond)    S(metal)    S(lipo)     H(rot)  DE(clash)    DE(int)     intcor
     11.46     -12.82       1.94        0.00      63.66       2.57       0.00       1.36       ----

> <Gold.Chemscore.Fitness>
11.4611

> <Gold.Chemscore.DG>
-12.8189

> <Gold.Chemscore.ZeroCoef>
-5.4800

> <Gold.Chemscore.Hbond>
1.9357

> <Gold.Chemscore.Metal>
0.0000

> <Gold.Chemscore.Lipo>
63.6555

> <Gold.Chemscore.Internal_Hbond>
0.0000

> <Gold.Chemscore.DEClash>
0.0014

> <Gold.Chemscore.DEInternal>
1.3564

> <Gold.Chemscore.Rot>
2.5680

> <Gold.Chemscore.Internal.Correction>
   9.000000E+99

> <Gold.Chemscore.Hbonds>
donor molecule, donor type, donor heavy atom, donor atom, acceptor molecule, acceptor atom, score
      P1  H  6896  6907       L1     1  0.84
      P1  H  6931  6943       L1    13  0.28

> <Gold.Chemscore.Hbond.Weighted>
-6.4653

> <Gold.Chemscore.Metal.Weighted>
-0.0000

> <Gold.Chemscore.Lipo.Weighted>
-7.4477

> <Gold.Chemscore.Internal_Hbond.Weighted>
0.0000

> <Gold.Chemscore.DEClash.Weighted>
0.0014

> <Gold.Chemscore.DEInternal.Weighted>
1.3564

> <Gold.Chemscore.Rot.Weighted>
6.5741

> <Gold.Chemscore.Internal.Correction.Weighted>
   9.000000E+99

> <Gold.Protein.RotatedTorsions>
[ 6907 6896 6895 6894 ] final   34.86 input  -60.11 | X-H torsion
[ 7974 7965 7964 7962 ] final  -43.06 input  175.53 | X-H torsion
[ 8008 7997 7996 7995 ] final  108.61 input   59.86 | X-H torsion
[ 10167 10162 10161 10158 ] final   85.59 input  -65.29 | X-H torsion
[ 10718 10713 10712 10709 ] final  106.29 input   66.30 | X-H torsion
[ 10763 10752 10751 10750 ] final  127.53 input  -60.55 | X-H torsion
[ 11005 11000 10999 10996 ] final  -23.29 input  -57.11 | X-H torsion

> <Gold.Protein.ActiveResidues>
 VAL166  LYS551  ARG553  GLY616  TRP617  ASP618  TYR619  PRO620  LYS621  CYS622 
 ASP623  PHE694  ASN695  SER759  ASP760  ASP761  ALA762  ILE779  LEU786  VAL792 
 PHE793  MET794  SER795  GLU796  ALA797  LYS798  CYS799  TRP800  GLU811  SER814 

> <Gold.Protein.RotatedAtoms>
  152.1082  134.9293  160.0567 H   0  0  0  0  0  0  0  0  0  0  0  0  # atno 6907 bound_to 6896
  152.0481  133.4002  159.4373 H   0  0  0  0  0  0  0  0  0  0  0  0  # atno 6908 bound_to 6896
  150.6842  134.3259  159.4850 H   0  0  0  0  0  0  0  0  0  0  0  0  # atno 6909 bound_to 6896
  146.0055  140.7025  142.9249 H   0  0  0  0  0  0  0  0  0  0  0  0  # atno 7974 bound_to 7965
  156.1916  140.3073  155.9345 H   0  0  0  0  0  0  0  0  0  0  0  0  # atno 8008 bound_to 7997
  155.3159  140.0453  157.3054 H   0  0  0  0  0  0  0  0  0  0  0  0  # atno 8009 bound_to 7997
  154.5460  140.2276  155.8572 H   0  0  0  0  0  0  0  0  0  0  0  0  # atno 8010 bound_to 7997
  139.8962  144.6357  150.8686 H   0  0  0  0  0  0  0  0  0  0  0  0  # atno 10167 bound_to 10162
  157.6674  131.0847  150.5985 H   0  0  0  0  0  0  0  0  0  0  0  0  # atno 10718 bound_to 10713
  153.7109  135.3268  155.3246 H   0  0  0  0  0  0  0  0  0  0  0  0  # atno 10763 bound_to 10752
  154.8385  135.4477  154.1314 H   0  0  0  0  0  0  0  0  0  0  0  0  # atno 10764 bound_to 10752
  153.2408  135.6970  153.7864 H   0  0  0  0  0  0  0  0  0  0  0  0  # atno 10765 bound_to 10752
  140.8738  133.7702  156.0218 H   0  0  0  0  0  0  0  0  0  0  0  0  # atno 11005 bound_to 11000
  144.6934  140.3308  143.7216 LP  0  0  0  0  0  0  0  0  0  0  0  0  # atno 17320 bound_to 7965
  145.7422  139.1767  143.2369 LP  0  0  0  0  0  0  0  0  0  0  0  0  # atno 17321 bound_to 7965
  140.7716  143.3472  151.2087 LP  0  0  0  0  0  0  0  0  0  0  0  0  # atno 17342 bound_to 10162
  139.7066  143.9445  152.2929 LP  0  0  0  0  0  0  0  0  0  0  0  0  # atno 17343 bound_to 10162
  156.6285  130.4425  149.5795 LP  0  0  0  0  0  0  0  0  0  0  0  0  # atno 17370 bound_to 10713
  156.2300  130.6789  151.1454 LP  0  0  0  0  0  0  0  0  0  0  0  0  # atno 17371 bound_to 10713
  140.8542  134.2917  157.5262 LP  0  0  0  0  0  0  0  0  0  0  0  0  # atno 17394 bound_to 11000
  139.8714  134.9484  156.3995 LP  0  0  0  0  0  0  0  0  0  0  0  0  # atno 17395 bound_to 11000

$$$$
