AV-unprocessed.smi:3193|AV-procd|sdf|12205|dock3
  -GOLD-   2272018 43D 1   1.00000     0.00000
 Structure written by MMmdl.
 41 42  0  0  0  0  0  0  0  0  3 V2000
  152.8851  140.9459  158.9231 C   0  0  0  0  0  0  0  0  0  0  0  0
  152.6569  142.3733  159.4526 C   0  0  2  0  0  0  0  0  0  0  0  0
  152.6550  142.3549  160.9960 C   0  0  0  0  0  0  0  0  0  0  0  0
  152.4864  143.7596  161.5895 C   0  0  0  0  0  0  0  0  0  0  0  0
  151.2104  144.4234  161.0612 C   0  0  0  0  0  0  0  0  0  0  0  0
  151.2076  144.4569  159.5265 C   0  0  0  0  0  0  0  0  0  0  0  0
  151.3626  143.0489  158.9087 C   0  0  1  0  0  0  0  0  0  0  0  0
  151.3213  143.1586  157.3672 C   0  0  0  0  0  0  0  0  0  0  0  0
  150.0577  142.6397  156.8053 N   0  3  0  0  0  0  0  0  0  0  0  0
  150.2373  141.7083  155.6747 C   0  0  0  0  0  0  0  0  0  0  0  0
  151.3756  140.7160  155.9520 C   0  0  0  0  0  0  0  0  0  0  0  0
  151.2385  139.4910  155.1601 N   0  0  0  0  0  0  0  0  0  0  0  0
  152.1179  138.4405  155.0930 C   0  0  0  0  0  0  0  0  0  0  0  0
  151.5696  137.5258  154.2310 C   0  0  0  0  0  0  0  0  0  0  0  0
  150.3807  138.0566  153.8074 N   0  3  0  0  0  0  0  0  0  0  0  0
  150.1807  139.2515  154.3736 C   0  0  0  0  0  0  0  0  0  0  0  0
  152.0231  140.3065  159.1161 H   0  0  0  0  0  0  0  0  0  0  0  0
  153.7501  140.4857  159.4019 H   0  0  0  0  0  0  0  0  0  0  0  0
  153.0839  140.9388  157.8521 H   0  0  0  0  0  0  0  0  0  0  0  0
  153.5107  142.9743  159.1352 H   0  0  0  0  0  0  0  0  0  0  0  0
  151.8517  141.7100  161.3557 H   0  0  0  0  0  0  0  0  0  0  0  0
  153.5847  141.9211  161.3664 H   0  0  0  0  0  0  0  0  0  0  0  0
  152.4541  143.7034  162.6781 H   0  0  0  0  0  0  0  0  0  0  0  0
  153.3523  144.3725  161.3358 H   0  0  0  0  0  0  0  0  0  0  0  0
  150.3362  143.8787  161.4199 H   0  0  0  0  0  0  0  0  0  0  0  0
  151.1279  145.4364  161.4562 H   0  0  0  0  0  0  0  0  0  0  0  0
  150.2785  144.9157  159.1856 H   0  0  0  0  0  0  0  0  0  0  0  0
  152.0144  145.1033  159.1777 H   0  0  0  0  0  0  0  0  0  0  0  0
  150.5015  142.4617  159.2330 H   0  0  0  0  0  0  0  0  0  0  0  0
  151.4025  144.2026  157.0612 H   0  0  0  0  0  0  0  0  0  0  0  0
  152.1733  142.6374  156.9281 H   0  0  0  0  0  0  0  0  0  0  0  0
  149.5627  142.1572  157.5420 H   0  0  0  0  0  0  0  0  0  0  0  0
  149.3045  141.1704  155.4991 H   0  0  0  0  0  0  0  0  0  0  0  0
  150.4551  142.2815  154.7725 H   0  0  0  0  0  0  0  0  0  0  0  0
  152.3447  141.1622  155.7225 H   0  0  0  0  0  0  0  0  0  0  0  0
  151.3934  140.4329  157.0055 H   0  0  0  0  0  0  0  0  0  0  0  0
  153.0453  138.4208  155.6471 H   0  0  0  0  0  0  0  0  0  0  0  0
  151.9273  136.5633  153.8947 H   0  0  0  0  0  0  0  0  0  0  0  0
  149.3314  139.8942  154.2230 H   0  0  0  0  0  0  0  0  0  0  0  0
  149.4970  143.4228  156.4999 H   0  0  0  0  0  0  0  0  0  0  0  0
  149.7441  137.6117  153.1573 H   0  0  0  0  0  0  0  0  0  0  0  0
  1  2  1  0  0  0  0
  1 17  1  0  0  0  0
  1 18  1  0  0  0  0
  1 19  1  0  0  0  0
  2  7  1  0  0  0  0
  2  3  1  0  0  0  0
  2 20  1  0  0  0  0
  3  4  1  0  0  0  0
  3 21  1  0  0  0  0
  3 22  1  0  0  0  0
  4  5  1  0  0  0  0
  4 23  1  0  0  0  0
  4 24  1  0  0  0  0
  5  6  1  0  0  0  0
  5 25  1  0  0  0  0
  5 26  1  0  0  0  0
  6  7  1  0  0  0  0
  6 27  1  0  0  0  0
  6 28  1  0  0  0  0
  7  8  1  0  0  0  0
  7 29  1  0  0  0  0
  8  9  1  0  0  0  0
  8 30  1  0  0  0  0
  8 31  1  0  0  0  0
  9 10  1  0  0  0  0
  9 32  1  0  0  0  0
  9 40  1  0  0  0  0
 10 11  1  0  0  0  0
 10 33  1  0  0  0  0
 10 34  1  0  0  0  0
 11 12  1  0  0  0  0
 11 35  1  0  0  0  0
 11 36  1  0  0  0  0
 12 16  1  0  0  0  0
 12 13  1  0  0  0  0
 13 14  2  0  0  0  0
 13 37  1  0  0  0  0
 14 15  1  0  0  0  0
 14 38  1  0  0  0  0
 15 16  2  0  0  0  0
 15 41  1  0  0  0  0
 16 39  1  0  0  0  0
M  CHG  1   9   1
M  CHG  1  15   1
M  END
> <s_m_source_file>
AV-unprocessed.smi

> <i_m_source_file_index>
3193

> <i_lp_mmshare_version>
43012

> <i_f3d_flags>
0

> <s_epik_input>
W0NIM11bQ0BASF0xW0NIMl1bQ0gyXVtDSDJdW0NIMl1bQ0BIXTFbQ0gyXVtOSF1bQ0gyXVtDSDJdbjJbY0hdW2NIXW5bY0hdMg==

> <s_epik_cmdline>
J2VwaWtfcHl0aG9uJywgJy1waCcsICc3LjAnLCAnLXRuJywgJzgnLCAnLW1hJywgJzIwMCcsICctbWV0YWxfYmluZGluZycsICctaW1hZScsICc8aW5maWxlLm1hZT4nLCAnLW9tYWUnLCAnPG91dGZpbGUubWFlPic=

> <r_lp_tautomer_probability>
1

> <r_epik_Ionization_Penalty>
1.50262

> <r_epik_Ionization_Penalty_Charging>
0.00193432

> <r_epik_Ionization_Penalty_Neutral>
1.50068

> <r_epik_State_Penalty>
1.11854

> <r_epik_Charging_Adjusted_Penalty>
1.12048

> <i_epik_Tot_Q>
2

> <i_epik_Tot_abs_Q>
2

> <r_epik_Metal_State_Penalty>
5.11322

> <b_epik_Metal_Only>
0

> <s_lp_Force_Field>
OPLS_2005

> <r_lp_Energy>
26.3387

> <b_lp_Chiralities_Consistent>
1

> <s_lp_Variant>
AV-unprocessed.smi:3193-5

> <Gold.Version>
5.8.1

> <Gold.Id.Protein>
6NUR|6NUR_protein|mol2

> <Gold.PLP.Fitness>
52.5266

> <Gold.PLP.PLP>
-42.9551

> <Gold.PLP.part.hbond>
-2.3614

> <Gold.PLP.part.metal>
0.0000

> <Gold.PLP.part.buried>
-2.6272

> <Gold.PLP.part.nonpolar>
-38.0348

> <Gold.PLP.part.repulsive>
0.1041

> <Gold.PLP.ligand.clash>
0.0000

> <Gold.PLP.ligand.torsion>
1.2421

> <Gold.PLP.Chemscore.Hbond>
4.0000

> <Gold.PLP.Chemscore.CHOScore>
0.0000

> <Gold.PLP.Chemscore.Metal>
0.0000

> <Gold.Chemscore.Hbonds>
donor molecule, donor type, donor heavy atom, donor atom, acceptor molecule, acceptor atom, score
      L1  H     9    40       P1  8028  2.00
      L1  H    15    41       P1  7948  2.00

> <Gold.PLP.Chemscore.Internal.Correction>
0.0556

> <Gold.Rescore>
     Score         DG    S(hbond)    S(metal)    S(lipo)     H(rot)  DE(clash)    DE(int)     intcor
     18.90     -20.16       1.88        0.00     115.12       1.98       0.01       1.25       ----

> <Gold.Chemscore.Fitness>
18.9019

> <Gold.Chemscore.DG>
-20.1618

> <Gold.Chemscore.ZeroCoef>
-5.4800

> <Gold.Chemscore.Hbond>
1.8789

> <Gold.Chemscore.Metal>
0.0000

> <Gold.Chemscore.Lipo>
115.1161

> <Gold.Chemscore.Internal_Hbond>
0.0000

> <Gold.Chemscore.DEClash>
0.0124

> <Gold.Chemscore.DEInternal>
1.2474

> <Gold.Chemscore.Rot>
1.9774

> <Gold.Chemscore.Internal.Correction>
   9.000000E+99

> <Gold.Chemscore.Hbonds>
donor molecule, donor type, donor heavy atom, donor atom, acceptor molecule, acceptor atom, score
      L1  H     9    40       P1  8028  1.00
      L1  H    15    41       P1  7948  0.62

> <Gold.Chemscore.Hbond.Weighted>
-6.2754

> <Gold.Chemscore.Metal.Weighted>
-0.0000

> <Gold.Chemscore.Lipo.Weighted>
-13.4686

> <Gold.Chemscore.Internal_Hbond.Weighted>
0.0000

> <Gold.Chemscore.DEClash.Weighted>
0.0124

> <Gold.Chemscore.DEInternal.Weighted>
1.2474

> <Gold.Chemscore.Rot.Weighted>
5.0622

> <Gold.Chemscore.Internal.Correction.Weighted>
   9.000000E+99

> <Gold.Protein.RotatedTorsions>
[ 6907 6896 6895 6894 ] final   38.46 input  -60.11 | X-H torsion
[ 7974 7965 7964 7962 ] final -176.49 input  175.53 | X-H torsion
[ 8008 7997 7996 7995 ] final   73.10 input   59.86 | X-H torsion
[ 10167 10162 10161 10158 ] final  129.36 input  -65.29 | X-H torsion
[ 10718 10713 10712 10709 ] final  166.30 input   66.30 | X-H torsion
[ 10763 10752 10751 10750 ] final  -51.94 input  -60.55 | X-H torsion
[ 11005 11000 10999 10996 ] final  -20.71 input  -57.11 | X-H torsion

> <Gold.Protein.ActiveResidues>
 VAL166  LYS551  ARG553  GLY616  TRP617  ASP618  TYR619  PRO620  LYS621  CYS622 
 ASP623  PHE694  ASN695  SER759  ASP760  ASP761  ALA762  ILE779  LEU786  VAL792 
 PHE793  MET794  SER795  GLU796  ALA797  LYS798  CYS799  TRP800  GLU811  SER814 

> <Gold.Protein.RotatedAtoms>
  152.1568  134.8944  160.0544 H   0  0  0  0  0  0  0  0  0  0  0  0  # atno 6907 bound_to 6896
  151.9955  133.3801  159.4169 H   0  0  0  0  0  0  0  0  0  0  0  0  # atno 6908 bound_to 6896
  150.6882  134.3812  159.5079 H   0  0  0  0  0  0  0  0  0  0  0  0  # atno 6909 bound_to 6896
  144.7127  140.1162  143.6408 H   0  0  0  0  0  0  0  0  0  0  0  0  # atno 7974 bound_to 7965
  155.7786  140.3482  155.5285 H   0  0  0  0  0  0  0  0  0  0  0  0  # atno 8008 bound_to 7997
  155.8750  140.0993  157.1545 H   0  0  0  0  0  0  0  0  0  0  0  0  # atno 8009 bound_to 7997
  154.4020  140.1333  156.4113 H   0  0  0  0  0  0  0  0  0  0  0  0  # atno 8010 bound_to 7997
  139.5481  144.6791  151.4408 H   0  0  0  0  0  0  0  0  0  0  0  0  # atno 10167 bound_to 10162
  157.0678  131.0358  151.2623 H   0  0  0  0  0  0  0  0  0  0  0  0  # atno 10718 bound_to 10713
  154.1347  135.6514  153.4929 H   0  0  0  0  0  0  0  0  0  0  0  0  # atno 10763 bound_to 10752
  153.0184  135.5301  154.6965 H   0  0  0  0  0  0  0  0  0  0  0  0  # atno 10764 bound_to 10752
  154.6210  135.2964  155.0296 H   0  0  0  0  0  0  0  0  0  0  0  0  # atno 10765 bound_to 10752
  140.8490  133.7870  155.9945 H   0  0  0  0  0  0  0  0  0  0  0  0  # atno 11005 bound_to 11000
  145.9411  139.2669  143.1268 LP  0  0  0  0  0  0  0  0  0  0  0  0  # atno 17320 bound_to 7965
  145.9423  140.8971  143.0301 LP  0  0  0  0  0  0  0  0  0  0  0  0  # atno 17321 bound_to 7965
  140.6736  143.8239  150.7030 LP  0  0  0  0  0  0  0  0  0  0  0  0  # atno 17342 bound_to 10162
  140.1671  143.4226  152.2027 LP  0  0  0  0  0  0  0  0  0  0  0  0  # atno 17343 bound_to 10162
  157.4903  130.7818  149.7501 LP  0  0  0  0  0  0  0  0  0  0  0  0  # atno 17370 bound_to 10713
  155.9959  130.3909  150.2799 LP  0  0  0  0  0  0  0  0  0  0  0  0  # atno 17371 bound_to 10713
  140.8811  134.2610  157.5143 LP  0  0  0  0  0  0  0  0  0  0  0  0  # atno 17394 bound_to 11000
  139.8704  134.9615  156.4399 LP  0  0  0  0  0  0  0  0  0  0  0  0  # atno 17395 bound_to 11000

$$$$
