AV-unprocessed.smi:556|AV-procd|sdf|2912|dock2
  -GOLD-   2262023403D 1   1.00000     0.00000
 Structure written by MMmdl.
 38 39  0  0  0  0  0  0  0  0  1 V2000
  150.1969  139.4158  157.8498 C   0  0  0  0  0  0  0  0  0  0  0  0
  151.4545  140.1762  157.3960 C   0  0  2  0  0  0  0  0  0  0  0  0
  151.3331  140.7683  155.9756 C   0  0  0  0  0  0  0  0  0  0  0  0
  151.4412  139.7585  154.9838 O   0  0  0  0  0  0  0  0  0  0  0  0
  152.6949  139.0969  155.0449 C   0  0  0  0  0  0  0  0  0  0  0  0
  152.8170  138.3781  156.3953 C   0  0  0  0  0  0  0  0  0  0  0  0
  152.6618  139.3259  157.5116 N   0  0  0  0  0  0  0  0  0  0  0  0
  153.5623  139.3649  158.5289 C   0  0  0  0  0  0  0  0  0  0  0  0
  154.6887  138.8709  158.4576 O   0  0  0  0  0  0  0  0  0  0  0  0
  153.1164  139.9443  159.6558 N   0  0  0  0  0  0  0  0  0  0  0  0
  153.8897  140.0802  160.8820 C   0  0  0  0  0  0  0  0  0  0  0  0
  154.4151  141.5139  161.0307 C   0  0  0  0  0  0  0  0  0  0  0  0
  153.3576  142.5271  160.6925 C   0  0  0  0  0  0  0  0  0  0  0  0
  152.3283  143.0301  161.5385 C   0  0  0  0  0  0  0  0  0  0  0  0
  151.5535  143.9171  160.9357 N   0  0  0  0  0  0  0  0  0  0  0  0
  152.0594  144.0120  159.6890 N   0  0  0  0  0  0  0  0  0  0  0  0
  151.4448  144.9122  158.7372 C   0  0  0  0  0  0  0  0  0  0  0  0
  153.1474  143.1843  159.5130 C   0  0  0  0  0  0  0  0  0  0  0  0
  149.3210  140.0647  157.8301 H   0  0  0  0  0  0  0  0  0  0  0  0
  150.3075  139.0447  158.8690 H   0  0  0  0  0  0  0  0  0  0  0  0
  149.9865  138.5626  157.2045 H   0  0  0  0  0  0  0  0  0  0  0  0
  151.5317  141.0497  158.0440 H   0  0  0  0  0  0  0  0  0  0  0  0
  150.3784  141.2812  155.8574 H   0  0  0  0  0  0  0  0  0  0  0  0
  152.1083  141.5187  155.8112 H   0  0  0  0  0  0  0  0  0  0  0  0
  152.7524  138.3754  154.2298 H   0  0  0  0  0  0  0  0  0  0  0  0
  153.5115  139.8067  154.9011 H   0  0  0  0  0  0  0  0  0  0  0  0
  152.0467  137.6107  156.4764 H   0  0  0  0  0  0  0  0  0  0  0  0
  153.7681  137.8447  156.4176 H   0  0  0  0  0  0  0  0  0  0  0  0
  152.1770  140.3141  159.6616 H   0  0  0  0  0  0  0  0  0  0  0  0
  153.2647  139.8199  161.7378 H   0  0  0  0  0  0  0  0  0  0  0  0
  154.7216  139.3743  160.8606 H   0  0  0  0  0  0  0  0  0  0  0  0
  154.7706  141.6638  162.0509 H   0  0  0  0  0  0  0  0  0  0  0  0
  155.2887  141.6450  160.3906 H   0  0  0  0  0  0  0  0  0  0  0  0
  152.1226  142.7766  162.5680 H   0  0  0  0  0  0  0  0  0  0  0  0
  152.0165  144.9226  157.8088 H   0  0  0  0  0  0  0  0  0  0  0  0
  151.4179  145.9223  159.1475 H   0  0  0  0  0  0  0  0  0  0  0  0
  150.4270  144.5844  158.5240 H   0  0  0  0  0  0  0  0  0  0  0  0
  153.6771  143.1314  158.5731 H   0  0  0  0  0  0  0  0  0  0  0  0
  1  2  1  0  0  0  0
  1 19  1  0  0  0  0
  1 20  1  0  0  0  0
  1 21  1  0  0  0  0
  2  7  1  0  0  0  0
  2  3  1  0  0  0  0
  2 22  1  0  0  0  0
  3  4  1  0  0  0  0
  3 23  1  0  0  0  0
  3 24  1  0  0  0  0
  4  5  1  0  0  0  0
  5  6  1  0  0  0  0
  5 25  1  0  0  0  0
  5 26  1  0  0  0  0
  6  7  1  0  0  0  0
  6 27  1  0  0  0  0
  6 28  1  0  0  0  0
  7  8  1  0  0  0  0
  8  9  2  0  0  0  0
  8 10  1  0  0  0  0
 10 11  1  0  0  0  0
 10 29  1  0  0  0  0
 11 12  1  0  0  0  0
 11 30  1  0  0  0  0
 11 31  1  0  0  0  0
 12 13  1  0  0  0  0
 12 32  1  0  0  0  0
 12 33  1  0  0  0  0
 13 18  2  0  0  0  0
 13 14  1  0  0  0  0
 14 15  2  0  0  0  0
 14 34  1  0  0  0  0
 15 16  1  0  0  0  0
 16 17  1  0  0  0  0
 16 18  1  0  0  0  0
 17 35  1  0  0  0  0
 17 36  1  0  0  0  0
 17 37  1  0  0  0  0
 18 38  1  0  0  0  0
M  END
> <s_m_source_file>
AV-unprocessed.smi

> <i_m_source_file_index>
556

> <i_lp_mmshare_version>
43012

> <i_f3d_flags>
0

> <s_epik_input>
W0NIM11bQ0BASF0xW0NIMl1PW0NIMl1bQ0gyXU4xQyg9TylbTkhdW0NIMl1bQ0gyXWMyW2NIXW5uKFtDSDNdKVtjSF0y

> <s_epik_cmdline>
J2VwaWtfcHl0aG9uJywgJy1waCcsICc3LjAnLCAnLXRuJywgJzgnLCAnLW1hJywgJzIwMCcsICctbWV0YWxfYmluZGluZycsICctaW1hZScsICc8aW5maWxlLm1hZT4nLCAnLW9tYWUnLCAnPG91dGZpbGUubWFlPic=

> <r_lp_tautomer_probability>
1

> <r_epik_Ionization_Penalty>
0.000536334

> <r_epik_Ionization_Penalty_Charging>
0

> <r_epik_Ionization_Penalty_Neutral>
0.000536334

> <r_epik_State_Penalty>
-0

> <r_epik_Charging_Adjusted_Penalty>
0

> <i_epik_Tot_Q>
0

> <i_epik_Tot_abs_Q>
0

> <r_epik_Metal_State_Penalty>
-0

> <b_epik_Metal_Only>
0

> <s_lp_Force_Field>
OPLS_2005

> <r_lp_Energy>
29.3296

> <b_lp_Chiralities_Consistent>
1

> <s_lp_Variant>
AV-unprocessed.smi:556-1

> <Gold.Version>
5.8.1

> <Gold.Id.Protein>
6NUR|6NUR_protein|mol2

> <Gold.PLP.Fitness>
43.7070

> <Gold.PLP.PLP>
-39.9283

> <Gold.PLP.part.hbond>
-2.0000

> <Gold.PLP.part.metal>
0.0000

> <Gold.PLP.part.buried>
-3.0408

> <Gold.PLP.part.nonpolar>
-34.0472

> <Gold.PLP.part.repulsive>
0.2929

> <Gold.PLP.ligand.clash>
0.0000

> <Gold.PLP.ligand.torsion>
0.6579

> <Gold.PLP.Chemscore.Hbond>
1.6936

> <Gold.PLP.Chemscore.CHOScore>
0.0000

> <Gold.PLP.Chemscore.Metal>
0.0000

> <Gold.Chemscore.Hbonds>
donor molecule, donor type, donor heavy atom, donor atom, acceptor molecule, acceptor atom, score
      P1  H  7989  7998       L1     4  0.90
      P1  H  7997  8009       L1     9  0.65

> <Gold.PLP.Chemscore.Internal.Correction>
0.0137

> <Gold.Rescore>
     Score         DG    S(hbond)    S(metal)    S(lipo)     H(rot)  DE(clash)    DE(int)     intcor
     13.81     -14.52       0.39        0.00      96.84       1.40       0.03       0.67       ----

> <Gold.Chemscore.Fitness>
13.8130

> <Gold.Chemscore.DG>
-14.5181

> <Gold.Chemscore.ZeroCoef>
-5.4800

> <Gold.Chemscore.Hbond>
0.3868

> <Gold.Chemscore.Metal>
0.0000

> <Gold.Chemscore.Lipo>
96.8402

> <Gold.Chemscore.Internal_Hbond>
0.0000

> <Gold.Chemscore.DEClash>
0.0335

> <Gold.Chemscore.DEInternal>
0.6716

> <Gold.Chemscore.Rot>
1.4001

> <Gold.Chemscore.Internal.Correction>
   9.000000E+99

> <Gold.Chemscore.Hbonds>
donor molecule, donor type, donor heavy atom, donor atom, acceptor molecule, acceptor atom, score
      P1  H  7989  7998       L1     4  0.06
      P1  H  7997  8009       L1     9  0.06

> <Gold.Chemscore.Hbond.Weighted>
-1.2920

> <Gold.Chemscore.Metal.Weighted>
-0.0000

> <Gold.Chemscore.Lipo.Weighted>
-11.3303

> <Gold.Chemscore.Internal_Hbond.Weighted>
0.0000

> <Gold.Chemscore.DEClash.Weighted>
0.0335

> <Gold.Chemscore.DEInternal.Weighted>
0.6716

> <Gold.Chemscore.Rot.Weighted>
3.5842

> <Gold.Chemscore.Internal.Correction.Weighted>
   9.000000E+99

> <Gold.Protein.RotatedTorsions>
[ 6907 6896 6895 6894 ] final -170.31 input  -60.11 | X-H torsion
[ 7974 7965 7964 7962 ] final  166.04 input  175.53 | X-H torsion
[ 8008 7997 7996 7995 ] final  113.05 input   59.86 | X-H torsion
[ 10167 10162 10161 10158 ] final -120.73 input  -65.29 | X-H torsion
[ 10718 10713 10712 10709 ] final  120.14 input   66.30 | X-H torsion
[ 10763 10752 10751 10750 ] final  -89.46 input  -60.55 | X-H torsion
[ 11005 11000 10999 10996 ] final   23.30 input  -57.11 | X-H torsion

> <Gold.Protein.ActiveResidues>
 VAL166  LYS551  ARG553  GLY616  TRP617  ASP618  TYR619  PRO620  LYS621  CYS622 
 ASP623  PHE694  ASN695  SER759  ASP760  ASP761  ALA762  ILE779  LEU786  VAL792 
 PHE793  MET794  SER795  GLU796  ALA797  LYS798  CYS799  TRP800  GLU811  SER814 

> <Gold.Protein.RotatedAtoms>
  151.5057  133.3495  159.2876 H   0  0  0  0  0  0  0  0  0  0  0  0  # atno 6907 bound_to 6896
  150.8744  134.8127  159.7190 H   0  0  0  0  0  0  0  0  0  0  0  0  # atno 6908 bound_to 6896
  152.4721  134.4946  159.9757 H   0  0  0  0  0  0  0  0  0  0  0  0  # atno 6909 bound_to 6896
  144.7478  139.8557  143.6376 H   0  0  0  0  0  0  0  0  0  0  0  0  # atno 7974 bound_to 7965
  156.2232  140.2987  156.0004 H   0  0  0  0  0  0  0  0  0  0  0  0  # atno 8008 bound_to 7997
  155.2425  140.0423  157.2994 H   0  0  0  0  0  0  0  0  0  0  0  0  # atno 8009 bound_to 7997
  154.5874  140.2392  155.7976 H   0  0  0  0  0  0  0  0  0  0  0  0  # atno 8010 bound_to 7997
  140.0327  143.5232  152.2169 H   0  0  0  0  0  0  0  0  0  0  0  0  # atno 10167 bound_to 10162
  157.5912  131.1064  150.7994 H   0  0  0  0  0  0  0  0  0  0  0  0  # atno 10718 bound_to 10713
  154.6555  135.5340  153.7953 H   0  0  0  0  0  0  0  0  0  0  0  0  # atno 10763 bound_to 10752
  153.0411  135.6493  154.0952 H   0  0  0  0  0  0  0  0  0  0  0  0  # atno 10764 bound_to 10752
  154.0866  135.2943  155.3260 H   0  0  0  0  0  0  0  0  0  0  0  0  # atno 10765 bound_to 10752
  140.3711  134.2021  155.7667 H   0  0  0  0  0  0  0  0  0  0  0  0  # atno 11005 bound_to 11000
  146.1384  139.4435  143.0124 LP  0  0  0  0  0  0  0  0  0  0  0  0  # atno 17320 bound_to 7965
  145.7056  141.0122  143.1481 LP  0  0  0  0  0  0  0  0  0  0  0  0  # atno 17321 bound_to 7965
  139.6066  144.7598  151.3049 LP  0  0  0  0  0  0  0  0  0  0  0  0  # atno 17342 bound_to 10162
  140.7295  143.6906  150.7925 LP  0  0  0  0  0  0  0  0  0  0  0  0  # atno 17343 bound_to 10162
  156.8416  130.5050  149.5320 LP  0  0  0  0  0  0  0  0  0  0  0  0  # atno 17370 bound_to 10713
  156.0967  130.5937  150.9825 LP  0  0  0  0  0  0  0  0  0  0  0  0  # atno 17371 bound_to 10713
  141.1954  133.8106  157.0716 LP  0  0  0  0  0  0  0  0  0  0  0  0  # atno 17394 bound_to 11000
  140.0551  134.9785  157.1206 LP  0  0  0  0  0  0  0  0  0  0  0  0  # atno 17395 bound_to 11000

$$$$
