AV-unprocessed.smi:1686|AV-procd|sdf|6762|dock2
  -GOLD-   22720 7523D 1   1.00000     0.00000
 Structure written by MMmdl.
 41 43  0  0  0  0  0  0  0  0  1 V2000
  150.0902  134.8111  156.5138 C   0  0  0  0  0  0  0  0  0  0  0  0
  150.0460  133.3264  156.2918 C   0  0  0  0  0  0  0  0  0  0  0  0
  150.2136  132.5097  157.3234 N   0  0  0  0  0  0  0  0  0  0  0  0
  150.1134  131.2089  156.8168 O   0  0  0  0  0  0  0  0  0  0  0  0
  149.8891  131.3176  155.4875 C   0  0  0  0  0  0  0  0  0  0  0  0
  149.6859  129.9445  154.4737 Cl  0  0  0  0  0  0  0  0  0  0  0  0
  149.8332  132.6175  155.0730 C   0  0  0  0  0  0  0  0  0  0  0  0
  149.5880  133.1740  153.6909 C   0  0  0  0  0  0  0  0  0  0  0  0
  148.0897  133.1566  153.3827 C   0  0  0  0  0  0  0  0  0  0  0  0
  147.4406  132.1230  153.5374 O   0  0  0  0  0  0  0  0  0  0  0  0
  147.5561  134.3156  152.9659 N   0  0  0  0  0  0  0  0  0  0  0  0
  146.1367  134.5845  152.7543 C   0  0  2  0  0  0  0  0  0  0  0  0
  145.3366  133.9353  153.8961 C   0  0  0  0  0  0  0  0  0  0  0  0
  145.7320  134.0618  151.3536 C   0  0  2  0  0  0  0  0  0  0  0  0
  144.2587  134.3678  150.9776 C   0  0  0  0  0  0  0  0  0  0  0  0
  143.6993  132.9899  150.5849 C   0  0  1  0  0  0  0  0  0  0  0  0
  144.3391  132.5320  149.2619 C   0  0  0  0  0  0  0  0  0  0  0  0
  145.7766  132.1790  149.6867 C   0  0  0  0  0  0  0  0  0  0  0  0
  145.7820  132.5217  151.1893 C   0  0  2  0  0  0  0  0  0  0  0  0
  144.3803  132.0841  151.6018 C   0  0  0  0  0  0  0  0  0  0  0  0
  149.4047  135.3306  155.8442 H   0  0  0  0  0  0  0  0  0  0  0  0
  151.0917  135.2017  156.3333 H   0  0  0  0  0  0  0  0  0  0  0  0
  149.8099  135.0721  157.5350 H   0  0  0  0  0  0  0  0  0  0  0  0
  149.9519  134.1975  153.5988 H   0  0  0  0  0  0  0  0  0  0  0  0
  150.1176  132.5943  152.9336 H   0  0  0  0  0  0  0  0  0  0  0  0
  148.1799  135.1025  152.8612 H   0  0  0  0  0  0  0  0  0  0  0  0
  145.9596  135.6609  152.7842 H   0  0  0  0  0  0  0  0  0  0  0  0
  144.2749  134.1693  153.8305 H   0  0  0  0  0  0  0  0  0  0  0  0
  145.6818  134.2931  154.8667 H   0  0  0  0  0  0  0  0  0  0  0  0
  145.4404  132.8500  153.8874 H   0  0  0  0  0  0  0  0  0  0  0  0
  146.3943  134.5257  150.6207 H   0  0  0  0  0  0  0  0  0  0  0  0
  143.6981  134.7596  151.8276 H   0  0  0  0  0  0  0  0  0  0  0  0
  144.1788  135.0966  150.1701 H   0  0  0  0  0  0  0  0  0  0  0  0
  142.6100  132.9445  150.5841 H   0  0  0  0  0  0  0  0  0  0  0  0
  143.8294  131.6532  148.8647 H   0  0  0  0  0  0  0  0  0  0  0  0
  144.3093  133.3112  148.4992 H   0  0  0  0  0  0  0  0  0  0  0  0
  145.9695  131.1166  149.5325 H   0  0  0  0  0  0  0  0  0  0  0  0
  146.5273  132.7373  149.1263 H   0  0  0  0  0  0  0  0  0  0  0  0
  146.5894  132.0296  151.7299 H   0  0  0  0  0  0  0  0  0  0  0  0
  144.1322  132.3288  152.6358 H   0  0  0  0  0  0  0  0  0  0  0  0
  144.1910  131.0227  151.4314 H   0  0  0  0  0  0  0  0  0  0  0  0
  1  2  1  0  0  0  0
  1 21  1  0  0  0  0
  1 22  1  0  0  0  0
  1 23  1  0  0  0  0
  2  7  1  0  0  0  0
  2  3  2  0  0  0  0
  3  4  1  0  0  0  0
  4  5  1  0  0  0  0
  5  6  1  0  0  0  0
  5  7  2  0  0  0  0
  7  8  1  0  0  0  0
  8  9  1  0  0  0  0
  8 24  1  0  0  0  0
  8 25  1  0  0  0  0
  9 10  2  0  0  0  0
  9 11  1  0  0  0  0
 11 12  1  0  0  0  0
 11 26  1  0  0  0  0
 12 13  1  0  0  0  0
 12 14  1  0  0  0  0
 12 27  1  0  0  0  0
 13 28  1  0  0  0  0
 13 29  1  0  0  0  0
 13 30  1  0  0  0  0
 14 19  1  0  0  0  0
 14 15  1  0  0  0  0
 14 31  1  0  0  0  0
 15 16  1  0  0  0  0
 15 32  1  0  0  0  0
 15 33  1  0  0  0  0
 16 20  1  0  0  0  0
 16 17  1  0  0  0  0
 16 34  1  0  0  0  0
 17 18  1  0  0  0  0
 17 35  1  0  0  0  0
 17 36  1  0  0  0  0
 18 19  1  0  0  0  0
 18 37  1  0  0  0  0
 18 38  1  0  0  0  0
 19 20  1  0  0  0  0
 19 39  1  0  0  0  0
 20 40  1  0  0  0  0
 20 41  1  0  0  0  0
M  END
> <s_m_source_file>
AV-unprocessed.smi

> <i_m_source_file_index>
1686

> <i_lp_mmshare_version>
43012

> <i_f3d_flags>
0

> <s_epik_input>
W0NIM11jMW5vYyhDbCljMVtDSDJdQyg9TylbTkhdW0NASF0oW0NIM10pW0NASF0oW0NIMl1bQ0BIXTIzKVtDQEhdKFtDSDJdMylbQ0gyXVtDSDJdMg==

> <s_epik_cmdline>
J2VwaWtfcHl0aG9uJywgJy1waCcsICc3LjAnLCAnLXRuJywgJzgnLCAnLW1hJywgJzIwMCcsICctbWV0YWxfYmluZGluZycsICctaW1hZScsICc8aW5maWxlLm1hZT4nLCAnLW9tYWUnLCAnPG91dGZpbGUubWFlPic=

> <r_lp_tautomer_probability>
1

> <r_epik_Ionization_Penalty>
2.01576e-08

> <r_epik_Ionization_Penalty_Charging>
0

> <r_epik_Ionization_Penalty_Neutral>
2.01576e-08

> <r_epik_State_Penalty>
-0

> <r_epik_Charging_Adjusted_Penalty>
0

> <i_epik_Tot_Q>
0

> <i_epik_Tot_abs_Q>
0

> <r_epik_Metal_State_Penalty>
-0

> <b_epik_Metal_Only>
0

> <s_lp_Force_Field>
OPLS_2005

> <r_lp_Energy>
45.7389

> <b_lp_Chiralities_Consistent>
1

> <s_lp_Variant>
AV-unprocessed.smi:1686-5

> <Gold.Version>
5.8.1

> <Gold.Id.Protein>
6NUR|6NUR_protein|mol2

> <Gold.PLP.Fitness>
41.1555

> <Gold.PLP.PLP>
-36.6029

> <Gold.PLP.part.hbond>
-1.7717

> <Gold.PLP.part.metal>
0.0000

> <Gold.PLP.part.buried>
-5.3490

> <Gold.PLP.part.nonpolar>
-30.3566

> <Gold.PLP.part.repulsive>
0.0818

> <Gold.PLP.ligand.clash>
0.0000

> <Gold.PLP.ligand.torsion>
0.6781

> <Gold.PLP.Chemscore.Hbond>
1.9600

> <Gold.PLP.Chemscore.CHOScore>
0.0000

> <Gold.PLP.Chemscore.Metal>
0.0000

> <Gold.Chemscore.Hbonds>
donor molecule, donor type, donor heavy atom, donor atom, acceptor molecule, acceptor atom, score
      L1  H    11    26       P1  7948  0.98
      P1  H  6896  6909       L1     3  0.34

> <Gold.PLP.Chemscore.Internal.Correction>
0.0288

> <Gold.Rescore>
     Score         DG    S(hbond)    S(metal)    S(lipo)     H(rot)  DE(clash)    DE(int)     intcor
     15.59     -19.03       1.88        0.00      94.26       1.46       0.01       3.43       ----

> <Gold.Chemscore.Fitness>
15.5928

> <Gold.Chemscore.DG>
-19.0268

> <Gold.Chemscore.ZeroCoef>
-5.4800

> <Gold.Chemscore.Hbond>
1.8768

> <Gold.Chemscore.Metal>
0.0000

> <Gold.Chemscore.Lipo>
94.2571

> <Gold.Chemscore.Internal_Hbond>
0.0000

> <Gold.Chemscore.DEClash>
0.0077

> <Gold.Chemscore.DEInternal>
3.4262

> <Gold.Chemscore.Rot>
1.4648

> <Gold.Chemscore.Internal.Correction>
   9.000000E+99

> <Gold.Chemscore.Hbonds>
donor molecule, donor type, donor heavy atom, donor atom, acceptor molecule, acceptor atom, score
      L1  H    11    26       P1  7948  0.86
      P1  H  6896  6909       L1     3  0.32

> <Gold.Chemscore.Hbond.Weighted>
-6.2687

> <Gold.Chemscore.Metal.Weighted>
-0.0000

> <Gold.Chemscore.Lipo.Weighted>
-11.0281

> <Gold.Chemscore.Internal_Hbond.Weighted>
0.0000

> <Gold.Chemscore.DEClash.Weighted>
0.0077

> <Gold.Chemscore.DEInternal.Weighted>
3.4262

> <Gold.Chemscore.Rot.Weighted>
3.7500

> <Gold.Chemscore.Internal.Correction.Weighted>
   9.000000E+99

> <Gold.Protein.RotatedTorsions>
[ 6907 6896 6895 6894 ] final  -21.96 input  -60.11 | X-H torsion
[ 7974 7965 7964 7962 ] final   74.40 input  175.53 | X-H torsion
[ 8008 7997 7996 7995 ] final -173.06 input   59.86 | X-H torsion
[ 10167 10162 10161 10158 ] final  107.15 input  -65.29 | X-H torsion
[ 10718 10713 10712 10709 ] final   21.76 input   66.30 | X-H torsion
[ 10763 10752 10751 10750 ] final  178.03 input  -60.55 | X-H torsion
[ 11005 11000 10999 10996 ] final  -26.67 input  -57.11 | X-H torsion

> <Gold.Protein.ActiveResidues>
 VAL166  LYS551  ARG553  GLY616  TRP617  ASP618  TYR619  PRO620  LYS621  CYS622 
 ASP623  PHE694  ASN695  SER759  ASP760  ASP761  ALA762  ILE779  LEU786  VAL792 
 PHE793  MET794  SER795  GLU796  ALA797  LYS798  CYS799  TRP800  GLU811  SER814 

> <Gold.Protein.RotatedAtoms>
  151.2256  135.0535  159.8966 H   0  0  0  0  0  0  0  0  0  0  0  0  # atno 6907 bound_to 6896
  152.5410  134.0593  159.8155 H   0  0  0  0  0  0  0  0  0  0  0  0  # atno 6908 bound_to 6896
  151.0765  133.5376  159.2655 H   0  0  0  0  0  0  0  0  0  0  0  0  # atno 6909 bound_to 6896
  145.7287  139.2675  143.1553 H   0  0  0  0  0  0  0  0  0  0  0  0  # atno 7974 bound_to 7965
  155.9525  140.1129  157.0964 H   0  0  0  0  0  0  0  0  0  0  0  0  # atno 8008 bound_to 7997
  154.4113  140.1197  156.5138 H   0  0  0  0  0  0  0  0  0  0  0  0  # atno 8009 bound_to 7997
  155.6824  140.3473  155.4862 H   0  0  0  0  0  0  0  0  0  0  0  0  # atno 8010 bound_to 7997
  139.6950  144.7102  151.1282 H   0  0  0  0  0  0  0  0  0  0  0  0  # atno 10167 bound_to 10162
  157.1430  130.6641  149.5987 H   0  0  0  0  0  0  0  0  0  0  0  0  # atno 10718 bound_to 10713
  154.5023  135.2784  155.1410 H   0  0  0  0  0  0  0  0  0  0  0  0  # atno 10763 bound_to 10752
  154.3039  135.6242  153.5440 H   0  0  0  0  0  0  0  0  0  0  0  0  # atno 10764 bound_to 10752
  152.9904  135.5703  154.5469 H   0  0  0  0  0  0  0  0  0  0  0  0  # atno 10765 bound_to 10752
  140.9050  133.7498  156.0594 H   0  0  0  0  0  0  0  0  0  0  0  0  # atno 11005 bound_to 11000
  146.0557  140.8023  142.9759 LP  0  0  0  0  0  0  0  0  0  0  0  0  # atno 17320 bound_to 7965
  144.6898  140.3121  143.7246 LP  0  0  0  0  0  0  0  0  0  0  0  0  # atno 17321 bound_to 7965
  140.7694  143.5504  150.9211 LP  0  0  0  0  0  0  0  0  0  0  0  0  # atno 17342 bound_to 10162
  139.9183  143.6636  152.3102 LP  0  0  0  0  0  0  0  0  0  0  0  0  # atno 17343 bound_to 10162
  155.9785  130.4771  150.6658 LP  0  0  0  0  0  0  0  0  0  0  0  0  # atno 17370 bound_to 10713
  157.4290  131.0847  151.1057 LP  0  0  0  0  0  0  0  0  0  0  0  0  # atno 17371 bound_to 10713
  140.8182  134.3320  157.5390 LP  0  0  0  0  0  0  0  0  0  0  0  0  # atno 17394 bound_to 11000
  139.8748  134.9294  156.3475 LP  0  0  0  0  0  0  0  0  0  0  0  0  # atno 17395 bound_to 11000

$$$$
