AV-unprocessed.smi:51|AV-procd|sdf|503|dock5
  -GOLD-   2262016373D 1   1.00000     0.00000
 Structure written by MMmdl.
 26 27  0  0  0  0  0  0  0  0  3 V2000
  153.7192  139.7978  158.6729 O   0  0  0  0  0  0  0  0  0  0  0  0
  152.5223  140.1576  158.6852 C   0  0  0  0  0  0  0  0  0  0  0  0
  151.6630  139.7896  159.5168 O   0  5  0  0  0  0  0  0  0  0  0  0
  152.0795  141.1167  157.5695 C   0  0  2  0  0  0  0  0  0  0  0  0
  151.5937  142.4714  158.1170 C   0  0  0  0  0  0  0  0  0  0  0  0
  150.0711  142.3228  158.1695 C   0  0  1  0  0  0  0  0  0  0  0  0
  149.4031  143.5648  158.1048 O   0  0  0  0  0  0  0  0  0  0  0  0
  149.7674  141.4341  156.9624 C   0  0  0  0  0  0  0  0  0  0  0  0
  150.9379  140.5769  156.8336 N   0  0  0  0  0  0  0  0  0  0  0  0
  151.0602  139.6281  155.7982 C   0  0  0  0  0  0  0  0  0  0  0  0
  152.2955  139.0336  155.4618 C   0  0  0  0  0  0  0  0  0  0  0  0
  152.2969  138.0918  154.4172 C   0  0  0  0  0  0  0  0  0  0  0  0
  151.1476  137.7845  153.7699 N   0  3  0  0  0  0  0  0  0  0  0  0
  150.0060  138.3857  154.1334 C   0  0  0  0  0  0  0  0  0  0  0  0
  149.9405  139.2879  155.1189 N   0  0  0  0  0  0  0  0  0  0  0  0
  152.9188  141.2880  156.8941 H   0  0  0  0  0  0  0  0  0  0  0  0
  152.0231  142.7354  159.0847 H   0  0  0  0  0  0  0  0  0  0  0  0
  151.8691  143.2581  157.4130 H   0  0  0  0  0  0  0  0  0  0  0  0
  149.7843  141.8076  159.0873 H   0  0  0  0  0  0  0  0  0  0  0  0
  149.3708  143.8386  157.2009 H   0  0  0  0  0  0  0  0  0  0  0  0
  148.8518  140.8602  157.1108 H   0  0  0  0  0  0  0  0  0  0  0  0
  149.6608  142.0275  156.0528 H   0  0  0  0  0  0  0  0  0  0  0  0
  153.2137  139.2713  155.9777 H   0  0  0  0  0  0  0  0  0  0  0  0
  153.1816  137.5726  154.0794 H   0  0  0  0  0  0  0  0  0  0  0  0
  149.1153  138.1080  153.5895 H   0  0  0  0  0  0  0  0  0  0  0  0
  151.1600  137.0990  153.0148 H   0  0  0  0  0  0  0  0  0  0  0  0
  1  2  2  0  0  0  0
  2  3  1  0  0  0  0
  2  4  1  0  0  0  0
  4  9  1  0  0  0  0
  4  5  1  0  0  0  0
  4 16  1  0  0  0  0
  5  6  1  0  0  0  0
  5 17  1  0  0  0  0
  5 18  1  0  0  0  0
  6  7  1  0  0  0  0
  6  8  1  0  0  0  0
  6 19  1  0  0  0  0
  7 20  1  0  0  0  0
  8  9  1  0  0  0  0
  8 21  1  0  0  0  0
  8 22  1  0  0  0  0
  9 10  1  0  0  0  0
 10 15  1  0  0  0  0
 10 11  2  0  0  0  0
 11 12  1  0  0  0  0
 11 23  1  0  0  0  0
 12 13  2  0  0  0  0
 12 24  1  0  0  0  0
 13 14  1  0  0  0  0
 13 26  1  0  0  0  0
 14 15  2  0  0  0  0
 14 25  1  0  0  0  0
M  CHG  1   3  -1
M  CHG  1  13   1
M  END
> <s_m_source_file>
AV-unprocessed.smi

> <i_m_source_file_index>
51

> <i_lp_mmshare_version>
43012

> <i_f3d_flags>
0

> <s_epik_input>
Tz1DKFtPSF0pW0NAQEhdMVtDSDJdW0NAQEhdKFtPSF0pW0NIMl1OMWMyW2NIXVtjSF1uW2NIXW4y

> <s_epik_cmdline>
J2VwaWtfcHl0aG9uJywgJy1waCcsICc3LjAnLCAnLXRuJywgJzgnLCAnLW1hJywgJzIwMCcsICctbWV0YWxfYmluZGluZycsICctaW1hZScsICc8aW5maWxlLm1hZT4nLCAnLW9tYWUnLCAnPG91dGZpbGUubWFlPic=

> <r_lp_tautomer_probability>
0.999336

> <r_epik_Ionization_Penalty>
0.688427

> <r_epik_Ionization_Penalty_Charging>
0.688427

> <r_epik_Ionization_Penalty_Neutral>
1.98379e-07

> <r_epik_State_Penalty>
0.709817

> <r_epik_Charging_Adjusted_Penalty>
1.39824

> <i_epik_Tot_Q>
0

> <i_epik_Tot_abs_Q>
2

> <r_epik_Metal_State_Penalty>
0.873261

> <b_epik_Metal_Only>
0

> <s_lp_Force_Field>
OPLS_2005

> <r_lp_Energy>
13.2296

> <b_lp_Chiralities_Consistent>
1

> <s_lp_Variant>
AV-unprocessed.smi:51-5

> <Gold.Version>
5.8.1

> <Gold.Id.Protein>
6NUR|6NUR_protein|mol2

> <Gold.PLP.Fitness>
41.2589

> <Gold.PLP.PLP>
-23.6733

> <Gold.PLP.part.hbond>
-4.3859

> <Gold.PLP.part.metal>
0.0000

> <Gold.PLP.part.buried>
-0.9680

> <Gold.PLP.part.nonpolar>
-17.7076

> <Gold.PLP.part.repulsive>
0.1916

> <Gold.PLP.ligand.clash>
0.0000

> <Gold.PLP.ligand.torsion>
0.0980

> <Gold.PLP.Chemscore.Hbond>
5.0000

> <Gold.PLP.Chemscore.CHOScore>
0.8893

> <Gold.PLP.Chemscore.Metal>
0.0000

> <Gold.Chemscore.Hbonds>
donor molecule, donor type, donor heavy atom, donor atom, acceptor molecule, acceptor atom, score
      L1  H     7    20       P1  8028  1.00
      L1  H    13    26       P1  7949  2.00
      P1  H  7997  8010       L1     1  2.00
      L1  C    14    25       P1  7948  0.89

> <Gold.PLP.Chemscore.Internal.Correction>
0.1136

> <Gold.Rescore>
     Score         DG    S(hbond)    S(metal)    S(lipo)     H(rot)  DE(clash)    DE(int)     intcor
     14.33     -14.75       2.59        0.00      42.57       1.70       0.34       0.09       ----

> <Gold.Chemscore.Fitness>
14.3283

> <Gold.Chemscore.DG>
-14.7545

> <Gold.Chemscore.ZeroCoef>
-5.4800

> <Gold.Chemscore.Hbond>
2.5900

> <Gold.Chemscore.Metal>
0.0000

> <Gold.Chemscore.Lipo>
42.5728

> <Gold.Chemscore.Internal_Hbond>
0.0000

> <Gold.Chemscore.DEClash>
0.3375

> <Gold.Chemscore.DEInternal>
0.0887

> <Gold.Chemscore.Rot>
1.7020

> <Gold.Chemscore.Internal.Correction>
   9.000000E+99

> <Gold.Chemscore.Hbonds>
donor molecule, donor type, donor heavy atom, donor atom, acceptor molecule, acceptor atom, score
      L1  H     7    20       P1  8028  0.55
      L1  H    13    26       P1  7949  0.50
      P1  H  7997  8010       L1     1  0.98

> <Gold.Chemscore.Hbond.Weighted>
-8.6506

> <Gold.Chemscore.Metal.Weighted>
-0.0000

> <Gold.Chemscore.Lipo.Weighted>
-4.9810

> <Gold.Chemscore.Internal_Hbond.Weighted>
0.0000

> <Gold.Chemscore.DEClash.Weighted>
0.3375

> <Gold.Chemscore.DEInternal.Weighted>
0.0887

> <Gold.Chemscore.Rot.Weighted>
4.3571

> <Gold.Chemscore.Internal.Correction.Weighted>
   9.000000E+99

> <Gold.Protein.RotatedTorsions>
[ 6907 6896 6895 6894 ] final  -59.00 input  -60.11 | X-H torsion
[ 7974 7965 7964 7962 ] final   51.11 input  175.53 | X-H torsion
[ 8008 7997 7996 7995 ] final   15.32 input   59.86 | X-H torsion
[ 10167 10162 10161 10158 ] final  120.21 input  -65.29 | X-H torsion
[ 10718 10713 10712 10709 ] final   80.53 input   66.30 | X-H torsion
[ 10763 10752 10751 10750 ] final -112.31 input  -60.55 | X-H torsion
[ 11005 11000 10999 10996 ] final  -82.33 input  -57.11 | X-H torsion

> <Gold.Protein.ActiveResidues>
 VAL166  LYS551  ARG553  GLY616  TRP617  ASP618  TYR619  PRO620  LYS621  CYS622 
 ASP623  PHE694  ASN695  SER759  ASP760  ASP761  ALA762  ILE779  LEU786  VAL792 
 PHE793  MET794  SER795  GLU796  ALA797  LYS798  CYS799  TRP800  GLU811  SER814 

> <Gold.Protein.RotatedAtoms>
  150.7964  134.7026  159.6558 H   0  0  0  0  0  0  0  0  0  0  0  0  # atno 6907 bound_to 6896
  152.4076  134.6176  160.0052 H   0  0  0  0  0  0  0  0  0  0  0  0  # atno 6908 bound_to 6896
  151.6428  133.3288  159.3170 H   0  0  0  0  0  0  0  0  0  0  0  0  # atno 6909 bound_to 6896
  145.9945  139.4374  143.0053 H   0  0  0  0  0  0  0  0  0  0  0  0  # atno 7974 bound_to 7965
  154.8609  140.2944  155.5539 H   0  0  0  0  0  0  0  0  0  0  0  0  # atno 8008 bound_to 7997
  156.3019  140.2478  156.3516 H   0  0  0  0  0  0  0  0  0  0  0  0  # atno 8009 bound_to 7997
  154.8919  140.0394  157.1833 H   0  0  0  0  0  0  0  0  0  0  0  0  # atno 8010 bound_to 7997
  139.5997  144.7053  151.3093 H   0  0  0  0  0  0  0  0  0  0  0  0  # atno 10167 bound_to 10162
  157.6808  130.9964  150.2093 H   0  0  0  0  0  0  0  0  0  0  0  0  # atno 10718 bound_to 10713
  154.8343  135.4495  154.1174 H   0  0  0  0  0  0  0  0  0  0  0  0  # atno 10763 bound_to 10752
  153.2420  135.6917  153.7779 H   0  0  0  0  0  0  0  0  0  0  0  0  # atno 10764 bound_to 10752
  153.7123  135.3354  155.3225 H   0  0  0  0  0  0  0  0  0  0  0  0  # atno 10765 bound_to 10752
  141.1663  133.7239  156.8556 H   0  0  0  0  0  0  0  0  0  0  0  0  # atno 11005 bound_to 11000
  145.7580  140.9946  143.1215 LP  0  0  0  0  0  0  0  0  0  0  0  0  # atno 17320 bound_to 7965
  144.6899  139.9295  143.7471 LP  0  0  0  0  0  0  0  0  0  0  0  0  # atno 17321 bound_to 7965
  140.7240  143.7057  150.7809 LP  0  0  0  0  0  0  0  0  0  0  0  0  # atno 17342 bound_to 10162
  140.0631  143.5135  152.2618 LP  0  0  0  0  0  0  0  0  0  0  0  0  # atno 17343 bound_to 10162
  156.2767  130.3728  149.7976 LP  0  0  0  0  0  0  0  0  0  0  0  0  # atno 17370 bound_to 10713
  156.5677  130.8411  151.3347 LP  0  0  0  0  0  0  0  0  0  0  0  0  # atno 17371 bound_to 10713
  140.1885  134.8983  157.3032 LP  0  0  0  0  0  0  0  0  0  0  0  0  # atno 17394 bound_to 11000
  140.2316  134.3902  155.7519 LP  0  0  0  0  0  0  0  0  0  0  0  0  # atno 17395 bound_to 11000

$$$$
