AV-unprocessed.smi:1419|AV-procd|sdf|5779|dock10
  -GOLD-   22720 5423D 1   1.00000     0.00000
 Structure written by MMmdl.
 42 43  0  0  0  0  0  0  0  0  2 V2000
  154.0061  141.2689  159.6008 C   0  0  0  0  0  0  0  0  0  0  0  0
  152.5182  141.6518  159.5465 C   0  0  1  0  0  0  0  0  0  0  0  0
  152.2520  143.1088  159.9863 C   0  0  0  0  0  0  0  0  0  0  0  0
  152.5658  143.3472  161.3976 N   0  0  0  0  0  0  0  0  0  0  0  0
  153.2527  142.5223  162.2511 C   0  0  0  0  0  0  0  0  0  0  0  0
  153.3001  143.1652  163.4614 C   0  0  0  0  0  0  0  0  0  0  0  0
  152.6438  144.3554  163.2944 N   0  3  0  0  0  0  0  0  0  0  0  0
  152.2004  144.4653  162.0377 C   0  0  0  0  0  0  0  0  0  0  0  0
  152.0188  141.4328  158.1925 N   0  0  0  0  0  0  0  0  0  0  0  0
  152.2589  140.3479  157.4360 C   0  0  0  0  0  0  0  0  0  0  0  0
  152.9484  139.4097  157.8387 O   0  0  0  0  0  0  0  0  0  0  0  0
  151.6779  140.3708  156.2110 N   0  0  0  0  0  0  0  0  0  0  0  0
  150.7110  141.3549  155.7070 C   0  0  0  0  0  0  0  0  0  0  0  0
  149.3419  140.6606  155.5737 C   0  0  1  0  0  0  0  0  0  0  0  0
  148.2783  141.5931  154.9840 C   0  0  0  0  0  0  0  0  0  0  0  0
  149.4636  139.5282  154.7087 O   0  0  0  0  0  0  0  0  0  0  0  0
  150.4642  138.5713  155.0728 C   0  0  2  0  0  0  0  0  0  0  0  0
  150.0301  137.7433  156.2962 C   0  0  0  0  0  0  0  0  0  0  0  0
  151.8251  139.2789  155.2459 C   0  0  0  0  0  0  0  0  0  0  0  0
  154.3983  141.3268  160.6163 H   0  0  0  0  0  0  0  0  0  0  0  0
  154.6076  141.9270  158.9728 H   0  0  0  0  0  0  0  0  0  0  0  0
  154.1602  140.2463  159.2543 H   0  0  0  0  0  0  0  0  0  0  0  0
  151.9837  140.9789  160.2198 H   0  0  0  0  0  0  0  0  0  0  0  0
  152.8462  143.8031  159.3905 H   0  0  0  0  0  0  0  0  0  0  0  0
  151.2059  143.3785  159.8334 H   0  0  0  0  0  0  0  0  0  0  0  0
  153.6436  141.5635  161.9428 H   0  0  0  0  0  0  0  0  0  0  0  0
  153.7403  142.8726  164.4037 H   0  0  0  0  0  0  0  0  0  0  0  0
  151.6529  145.2928  161.6220 H   0  0  0  0  0  0  0  0  0  0  0  0
  151.4451  142.1625  157.7953 H   0  0  0  0  0  0  0  0  0  0  0  0
  150.6189  142.2437  156.3311 H   0  0  0  0  0  0  0  0  0  0  0  0
  151.0448  141.7172  154.7334 H   0  0  0  0  0  0  0  0  0  0  0  0
  149.0006  140.3344  156.5567 H   0  0  0  0  0  0  0  0  0  0  0  0
  148.1360  142.4735  155.6110 H   0  0  0  0  0  0  0  0  0  0  0  0
  147.3172  141.0850  154.9020 H   0  0  0  0  0  0  0  0  0  0  0  0
  148.5610  141.9338  153.9874 H   0  0  0  0  0  0  0  0  0  0  0  0
  150.5498  137.8814  154.2328 H   0  0  0  0  0  0  0  0  0  0  0  0
  150.7577  136.9599  156.5091 H   0  0  0  0  0  0  0  0  0  0  0  0
  149.0693  137.2605  156.1160 H   0  0  0  0  0  0  0  0  0  0  0  0
  149.9331  138.3487  157.1969 H   0  0  0  0  0  0  0  0  0  0  0  0
  152.1531  139.6910  154.2905 H   0  0  0  0  0  0  0  0  0  0  0  0
  152.5899  138.5558  155.5323 H   0  0  0  0  0  0  0  0  0  0  0  0
  152.5122  145.0536  164.0157 H   0  0  0  0  0  0  0  0  0  0  0  0
  1  2  1  0  0  0  0
  1 20  1  0  0  0  0
  1 21  1  0  0  0  0
  1 22  1  0  0  0  0
  2  3  1  0  0  0  0
  2  9  1  0  0  0  0
  2 23  1  0  0  0  0
  3  4  1  0  0  0  0
  3 24  1  0  0  0  0
  3 25  1  0  0  0  0
  4  8  1  0  0  0  0
  4  5  1  0  0  0  0
  5  6  2  0  0  0  0
  5 26  1  0  0  0  0
  6  7  1  0  0  0  0
  6 27  1  0  0  0  0
  7  8  2  0  0  0  0
  7 42  1  0  0  0  0
  8 28  1  0  0  0  0
  9 10  1  0  0  0  0
  9 29  1  0  0  0  0
 10 11  2  0  0  0  0
 10 12  1  0  0  0  0
 12 19  1  0  0  0  0
 12 13  1  0  0  0  0
 13 14  1  0  0  0  0
 13 30  1  0  0  0  0
 13 31  1  0  0  0  0
 14 15  1  0  0  0  0
 14 16  1  0  0  0  0
 14 32  1  0  0  0  0
 15 33  1  0  0  0  0
 15 34  1  0  0  0  0
 15 35  1  0  0  0  0
 16 17  1  0  0  0  0
 17 18  1  0  0  0  0
 17 19  1  0  0  0  0
 17 36  1  0  0  0  0
 18 37  1  0  0  0  0
 18 38  1  0  0  0  0
 18 39  1  0  0  0  0
 19 40  1  0  0  0  0
 19 41  1  0  0  0  0
M  CHG  1   7   1
M  END
> <s_m_source_file>
AV-unprocessed.smi

> <i_m_source_file_index>
1419

> <i_lp_mmshare_version>
43012

> <i_f3d_flags>
0

> <s_epik_input>
W2NIXTFuW2NIXVtjSF1uMVtDSDJdW0NAQEhdKFtDSDNdKVtOSF1DKD1PKU4yW0NIMl1bQ0BASF0oW0NIM10pT1tDQEBIXShbQ0gzXSlbQ0gyXTI=

> <s_epik_cmdline>
J2VwaWtfcHl0aG9uJywgJy1waCcsICc3LjAnLCAnLXRuJywgJzgnLCAnLW1hJywgJzIwMCcsICctbWV0YWxfYmluZGluZycsICctaW1hZScsICc8aW5maWxlLm1hZT4nLCAnLW9tYWUnLCAnPG91dGZpbGUubWFlPic=

> <r_lp_tautomer_probability>
1

> <r_epik_Ionization_Penalty>
0.253607

> <r_epik_Ionization_Penalty_Charging>
0

> <r_epik_Ionization_Penalty_Neutral>
0.253607

> <r_epik_State_Penalty>
0.245018

> <r_epik_Charging_Adjusted_Penalty>
0.245018

> <i_epik_Tot_Q>
1

> <i_epik_Tot_abs_Q>
1

> <r_epik_Metal_State_Penalty>
0.535379

> <b_epik_Metal_Only>
0

> <s_lp_Force_Field>
OPLS_2005

> <r_lp_Energy>
32.7532

> <b_lp_Chiralities_Consistent>
1

> <s_lp_Variant>
AV-unprocessed.smi:1419-6

> <Gold.Version>
5.8.1

> <Gold.Id.Protein>
6NUR|6NUR_protein|mol2

> <Gold.PLP.Fitness>
43.7667

> <Gold.PLP.PLP>
-41.3669

> <Gold.PLP.part.hbond>
-3.0000

> <Gold.PLP.part.metal>
0.0000

> <Gold.PLP.part.buried>
-0.6677

> <Gold.PLP.part.nonpolar>
-35.8380

> <Gold.PLP.part.repulsive>
0.2767

> <Gold.PLP.ligand.clash>
0.0000

> <Gold.PLP.ligand.torsion>
0.3054

> <Gold.PLP.Chemscore.Hbond>
0.9920

> <Gold.PLP.Chemscore.CHOScore>
0.0000

> <Gold.PLP.Chemscore.Metal>
0.0000

> <Gold.Chemscore.Hbonds>
donor molecule, donor type, donor heavy atom, donor atom, acceptor molecule, acceptor atom, score
      P1  H  7997  8009       L1    11  0.90

> <Gold.PLP.Chemscore.Internal.Correction>
0.0347

> <Gold.Rescore>
     Score         DG    S(hbond)    S(metal)    S(lipo)     H(rot)  DE(clash)    DE(int)     intcor
      8.74     -12.55       0.31        0.00      87.30       1.63       1.02       2.79       ----

> <Gold.Chemscore.Fitness>
8.7387

> <Gold.Chemscore.DG>
-12.5536

> <Gold.Chemscore.ZeroCoef>
-5.4800

> <Gold.Chemscore.Hbond>
0.3069

> <Gold.Chemscore.Metal>
0.0000

> <Gold.Chemscore.Lipo>
87.3017

> <Gold.Chemscore.Internal_Hbond>
0.0000

> <Gold.Chemscore.DEClash>
1.0216

> <Gold.Chemscore.DEInternal>
2.7934

> <Gold.Chemscore.Rot>
1.6273

> <Gold.Chemscore.Internal.Correction>
   9.000000E+99

> <Gold.Chemscore.Hbonds>
donor molecule, donor type, donor heavy atom, donor atom, acceptor molecule, acceptor atom, score
      P1  H  7997  8009       L1    11  0.17

> <Gold.Chemscore.Hbond.Weighted>
-1.0252

> <Gold.Chemscore.Metal.Weighted>
-0.0000

> <Gold.Chemscore.Lipo.Weighted>
-10.2143

> <Gold.Chemscore.Internal_Hbond.Weighted>
0.0000

> <Gold.Chemscore.DEClash.Weighted>
1.0216

> <Gold.Chemscore.DEInternal.Weighted>
2.7934

> <Gold.Chemscore.Rot.Weighted>
4.1658

> <Gold.Chemscore.Internal.Correction.Weighted>
   9.000000E+99

> <Gold.Protein.RotatedTorsions>
[ 6907 6896 6895 6894 ] final   -3.41 input  -60.11 | X-H torsion
[ 7974 7965 7964 7962 ] final   66.24 input  175.53 | X-H torsion
[ 8008 7997 7996 7995 ] final  144.41 input   59.86 | X-H torsion
[ 10167 10162 10161 10158 ] final  131.04 input  -65.29 | X-H torsion
[ 10718 10713 10712 10709 ] final  -15.60 input   66.30 | X-H torsion
[ 10763 10752 10751 10750 ] final   45.79 input  -60.55 | X-H torsion
[ 11005 11000 10999 10996 ] final  -66.03 input  -57.11 | X-H torsion

> <Gold.Protein.ActiveResidues>
 VAL166  LYS551  ARG553  GLY616  TRP617  ASP618  TYR619  PRO620  LYS621  CYS622 
 ASP623  PHE694  ASN695  SER759  ASP760  ASP761  ALA762  ILE779  LEU786  VAL792 
 PHE793  MET794  SER795  GLU796  ALA797  LYS798  CYS799  TRP800  GLU811  SER814 

> <Gold.Protein.RotatedAtoms>
  151.5142  135.1066  159.9861 H   0  0  0  0  0  0  0  0  0  0  0  0  # atno 6907 bound_to 6896
  152.4648  133.7896  159.6905 H   0  0  0  0  0  0  0  0  0  0  0  0  # atno 6908 bound_to 6896
  150.8627  133.7556  159.3012 H   0  0  0  0  0  0  0  0  0  0  0  0  # atno 6909 bound_to 6896
  145.8290  139.3128  143.0999 H   0  0  0  0  0  0  0  0  0  0  0  0  # atno 7974 bound_to 7965
  156.2909  140.2236  156.5048 H   0  0  0  0  0  0  0  0  0  0  0  0  # atno 8008 bound_to 7997
  154.7659  140.0470  157.1033 H   0  0  0  0  0  0  0  0  0  0  0  0  # atno 8009 bound_to 7997
  154.9934  140.3093  155.4900 H   0  0  0  0  0  0  0  0  0  0  0  0  # atno 8010 bound_to 7997
  139.5402  144.6723  151.4650 H   0  0  0  0  0  0  0  0  0  0  0  0  # atno 10167 bound_to 10162
  156.5995  130.4820  149.6246 H   0  0  0  0  0  0  0  0  0  0  0  0  # atno 10718 bound_to 10713
  152.9819  135.6028  154.3494 H   0  0  0  0  0  0  0  0  0  0  0  0  # atno 10763 bound_to 10752
  154.3184  135.2770  155.2533 H   0  0  0  0  0  0  0  0  0  0  0  0  # atno 10764 bound_to 10752
  154.4711  135.5941  153.6378 H   0  0  0  0  0  0  0  0  0  0  0  0  # atno 10765 bound_to 10752
  141.1471  133.6692  156.6076 H   0  0  0  0  0  0  0  0  0  0  0  0  # atno 11005 bound_to 11000
  145.9592  140.8849  143.0219 LP  0  0  0  0  0  0  0  0  0  0  0  0  # atno 17320 bound_to 7965
  144.6741  140.1788  143.7407 LP  0  0  0  0  0  0  0  0  0  0  0  0  # atno 17321 bound_to 7965
  140.6628  143.8461  150.6908 LP  0  0  0  0  0  0  0  0  0  0  0  0  # atno 17342 bound_to 10162
  140.1861  143.4075  152.1897 LP  0  0  0  0  0  0  0  0  0  0  0  0  # atno 17343 bound_to 10162
  156.2481  130.6891  151.1619 LP  0  0  0  0  0  0  0  0  0  0  0  0  # atno 17370 bound_to 10713
  157.7283  131.0632  150.5825 LP  0  0  0  0  0  0  0  0  0  0  0  0  # atno 17371 bound_to 10713
  140.3639  134.7663  157.4553 LP  0  0  0  0  0  0  0  0  0  0  0  0  # atno 17394 bound_to 11000
  140.0763  134.5793  155.8588 LP  0  0  0  0  0  0  0  0  0  0  0  0  # atno 17395 bound_to 11000

$$$$
