AV-unprocessed.smi:1273|AV-procd|sdf|5338|dock10
  -GOLD-   22720 4473D 1   1.00000     0.00000
 Structure written by MMmdl.
 40 41  0  0  0  0  0  0  0  0  1 V2000
  154.2665  135.9351  162.9900 C   0  0  0  0  0  0  0  0  0  0  0  0
  155.3013  136.2453  161.8964 C   0  0  2  0  0  0  0  0  0  0  0  0
  154.8841  137.4505  161.0422 C   0  0  0  0  0  0  0  0  0  0  0  0
  154.9484  137.3834  159.8152 O   0  0  0  0  0  0  0  0  0  0  0  0
  154.4786  138.5372  161.7261 N   0  0  0  0  0  0  0  0  0  0  0  0
  154.0455  139.7932  161.2230 C   0  0  0  0  0  0  0  0  0  0  0  0
  154.1646  140.9173  162.0628 C   0  0  0  0  0  0  0  0  0  0  0  0
  153.7263  142.1727  161.6010 C   0  0  0  0  0  0  0  0  0  0  0  0
  153.1704  142.2751  160.3040 C   0  0  0  0  0  0  0  0  0  0  0  0
  152.7259  143.5237  159.8164 N   0  0  0  0  0  0  0  0  0  0  0  0
  151.9946  144.3971  160.7330 C   0  0  0  0  0  0  0  0  0  0  0  0
  151.8520  145.8060  160.1333 C   0  0  0  0  0  0  0  0  0  0  0  0
  151.2413  145.7215  158.8503 O   0  0  0  0  0  0  0  0  0  0  0  0
  152.0272  144.9594  157.9404 C   0  0  0  0  0  0  0  0  0  0  0  0
  152.1794  143.5197  158.4613 C   0  0  0  0  0  0  0  0  0  0  0  0
  153.0374  141.1886  159.5042 N   0  0  0  0  0  0  0  0  0  0  0  0
  153.4601  139.9867  159.9495 C   0  0  0  0  0  0  0  0  0  0  0  0
  155.5469  134.7560  160.8190 S   0  0  0  0  0  0  0  0  0  0  0  0
  155.7369  133.3850  162.0354 C   0  0  0  0  0  0  0  0  0  0  0  0
  154.3039  134.5312  160.0651 O   0  0  0  0  0  0  0  0  0  0  0  0
  156.8161  134.8965  160.0886 O   0  0  0  0  0  0  0  0  0  0  0  0
  154.0817  136.8055  163.6207 H   0  0  0  0  0  0  0  0  0  0  0  0
  154.6164  135.1305  163.6369 H   0  0  0  0  0  0  0  0  0  0  0  0
  153.3130  135.6215  162.5633 H   0  0  0  0  0  0  0  0  0  0  0  0
  156.2586  136.4558  162.3749 H   0  0  0  0  0  0  0  0  0  0  0  0
  154.5457  138.4764  162.7317 H   0  0  0  0  0  0  0  0  0  0  0  0
  154.5871  140.8230  163.0526 H   0  0  0  0  0  0  0  0  0  0  0  0
  153.8069  143.0322  162.2495 H   0  0  0  0  0  0  0  0  0  0  0  0
  151.0087  143.9725  160.9270 H   0  0  0  0  0  0  0  0  0  0  0  0
  152.5154  144.4646  161.6891 H   0  0  0  0  0  0  0  0  0  0  0  0
  151.2345  146.4288  160.7806 H   0  0  0  0  0  0  0  0  0  0  0  0
  152.8243  146.2952  160.0541 H   0  0  0  0  0  0  0  0  0  0  0  0
  151.5376  144.9557  156.9664 H   0  0  0  0  0  0  0  0  0  0  0  0
  153.0029  145.4284  157.8041 H   0  0  0  0  0  0  0  0  0  0  0  0
  152.8090  142.9602  157.7713 H   0  0  0  0  0  0  0  0  0  0  0  0
  151.2078  143.0246  158.4762 H   0  0  0  0  0  0  0  0  0  0  0  0
  153.2963  139.1712  159.2630 H   0  0  0  0  0  0  0  0  0  0  0  0
  155.8001  132.4376  161.5003 H   0  0  0  0  0  0  0  0  0  0  0  0
  154.8760  133.3650  162.7031 H   0  0  0  0  0  0  0  0  0  0  0  0
  156.6488  133.5255  162.6153 H   0  0  0  0  0  0  0  0  0  0  0  0
  1  2  1  0  0  0  0
  1 22  1  0  0  0  0
  1 23  1  0  0  0  0
  1 24  1  0  0  0  0
  2  3  1  0  0  0  0
  2 18  1  0  0  0  0
  2 25  1  0  0  0  0
  3  4  2  0  0  0  0
  3  5  1  0  0  0  0
  5  6  1  0  0  0  0
  5 26  1  0  0  0  0
  6 17  1  0  0  0  0
  6  7  2  0  0  0  0
  7  8  1  0  0  0  0
  7 27  1  0  0  0  0
  8  9  2  0  0  0  0
  8 28  1  0  0  0  0
  9 10  1  0  0  0  0
  9 16  1  0  0  0  0
 10 15  1  0  0  0  0
 10 11  1  0  0  0  0
 11 12  1  0  0  0  0
 11 29  1  0  0  0  0
 11 30  1  0  0  0  0
 12 13  1  0  0  0  0
 12 31  1  0  0  0  0
 12 32  1  0  0  0  0
 13 14  1  0  0  0  0
 14 15  1  0  0  0  0
 14 33  1  0  0  0  0
 14 34  1  0  0  0  0
 15 35  1  0  0  0  0
 15 36  1  0  0  0  0
 16 17  2  0  0  0  0
 17 37  1  0  0  0  0
 18 19  1  0  0  0  0
 18 20  2  0  0  0  0
 18 21  2  0  0  0  0
 19 38  1  0  0  0  0
 19 39  1  0  0  0  0
 19 40  1  0  0  0  0
M  END
> <s_m_source_file>
AV-unprocessed.smi

> <i_m_source_file_index>
1273

> <i_lp_mmshare_version>
43012

> <i_f3d_flags>
0

> <s_epik_input>
W0NIM11TKD1PKSg9TylbQ0BIXShbQ0gzXSlDKD1PKVtOSF1jMVtjSF1bY0hdYyhuW2NIXTEpTjJbQ0gyXVtDSDJdT1tDSDJdW0NIMl0y

> <s_epik_cmdline>
J2VwaWtfcHl0aG9uJywgJy1waCcsICc3LjAnLCAnLXRuJywgJzgnLCAnLW1hJywgJzIwMCcsICctbWV0YWxfYmluZGluZycsICctaW1hZScsICc8aW5maWxlLm1hZT4nLCAnLW9tYWUnLCAnPG91dGZpbGUubWFlPic=

> <r_lp_tautomer_probability>
1

> <r_epik_Ionization_Penalty>
0.000253983

> <r_epik_Ionization_Penalty_Charging>
0

> <r_epik_Ionization_Penalty_Neutral>
0.000253983

> <r_epik_State_Penalty>
-0

> <r_epik_Charging_Adjusted_Penalty>
0

> <i_epik_Tot_Q>
0

> <i_epik_Tot_abs_Q>
0

> <r_epik_Metal_State_Penalty>
-0

> <b_epik_Metal_Only>
0

> <s_lp_Force_Field>
OPLS_2005

> <r_lp_Energy>
19.002

> <b_lp_Chiralities_Consistent>
1

> <s_lp_Variant>
AV-unprocessed.smi:1273-1

> <Gold.Version>
5.8.1

> <Gold.Id.Protein>
6NUR|6NUR_protein|mol2

> <Gold.PLP.Fitness>
38.9784

> <Gold.PLP.PLP>
-37.4830

> <Gold.PLP.part.hbond>
-2.0000

> <Gold.PLP.part.metal>
0.0000

> <Gold.PLP.part.buried>
-4.4087

> <Gold.PLP.part.nonpolar>
-30.2327

> <Gold.PLP.part.repulsive>
0.1528

> <Gold.PLP.ligand.clash>
0.0000

> <Gold.PLP.ligand.torsion>
0.9983

> <Gold.PLP.Chemscore.Hbond>
1.0000

> <Gold.PLP.Chemscore.CHOScore>
0.0000

> <Gold.PLP.Chemscore.Metal>
0.0000

> <Gold.Chemscore.Hbonds>
donor molecule, donor type, donor heavy atom, donor atom, acceptor molecule, acceptor atom, score
      P1  H  6896  6908       L1    20  1.00

> <Gold.PLP.Chemscore.Internal.Correction>
0.4921

> <Gold.Rescore>
     Score         DG    S(hbond)    S(metal)    S(lipo)     H(rot)  DE(clash)    DE(int)     intcor
     12.89     -16.10       1.00        0.00      96.48       1.56       0.02       3.20       ----

> <Gold.Chemscore.Fitness>
12.8886

> <Gold.Chemscore.DG>
-16.1049

> <Gold.Chemscore.ZeroCoef>
-5.4800

> <Gold.Chemscore.Hbond>
0.9991

> <Gold.Chemscore.Metal>
0.0000

> <Gold.Chemscore.Lipo>
96.4751

> <Gold.Chemscore.Internal_Hbond>
0.0000

> <Gold.Chemscore.DEClash>
0.0174

> <Gold.Chemscore.DEInternal>
3.1988

> <Gold.Chemscore.Rot>
1.5624

> <Gold.Chemscore.Internal.Correction>
   9.000000E+99

> <Gold.Chemscore.Hbonds>
donor molecule, donor type, donor heavy atom, donor atom, acceptor molecule, acceptor atom, score
      P1  H  6896  6908       L1    20  1.00

> <Gold.Chemscore.Hbond.Weighted>
-3.3369

> <Gold.Chemscore.Metal.Weighted>
-0.0000

> <Gold.Chemscore.Lipo.Weighted>
-11.2876

> <Gold.Chemscore.Internal_Hbond.Weighted>
0.0000

> <Gold.Chemscore.DEClash.Weighted>
0.0174

> <Gold.Chemscore.DEInternal.Weighted>
3.1988

> <Gold.Chemscore.Rot.Weighted>
3.9996

> <Gold.Chemscore.Internal.Correction.Weighted>
   9.000000E+99

> <Gold.Protein.RotatedTorsions>
[ 6907 6896 6895 6894 ] final  -48.85 input  -60.11 | X-H torsion
[ 7974 7965 7964 7962 ] final  113.46 input  175.53 | X-H torsion
[ 8008 7997 7996 7995 ] final  -51.57 input   59.86 | X-H torsion
[ 10167 10162 10161 10158 ] final   53.10 input  -65.29 | X-H torsion
[ 10718 10713 10712 10709 ] final  -47.94 input   66.30 | X-H torsion
[ 10763 10752 10751 10750 ] final  -84.14 input  -60.55 | X-H torsion
[ 11005 11000 10999 10996 ] final   89.96 input  -57.11 | X-H torsion

> <Gold.Protein.ActiveResidues>
 VAL166  LYS551  ARG553  GLY616  TRP617  ASP618  TYR619  PRO620  LYS621  CYS622 
 ASP623  PHE694  ASN695  SER759  ASP760  ASP761  ALA762  ILE779  LEU786  VAL792 
 PHE793  MET794  SER795  GLU796  ALA797  LYS798  CYS799  TRP800  GLU811  SER814 

> <Gold.Protein.RotatedAtoms>
  150.8864  134.8262  159.7261 H   0  0  0  0  0  0  0  0  0  0  0  0  # atno 6907 bound_to 6896
  152.4810  134.4716  159.9647 H   0  0  0  0  0  0  0  0  0  0  0  0  # atno 6908 bound_to 6896
  151.4784  133.3513  159.2870 H   0  0  0  0  0  0  0  0  0  0  0  0  # atno 6909 bound_to 6896
  145.2166  139.2881  143.4240 H   0  0  0  0  0  0  0  0  0  0  0  0  # atno 7974 bound_to 7965
  154.4086  140.1245  156.4850 H   0  0  0  0  0  0  0  0  0  0  0  0  # atno 8008 bound_to 7997
  155.7047  140.3494  155.4928 H   0  0  0  0  0  0  0  0  0  0  0  0  # atno 8009 bound_to 7997
  155.9354  140.1077  157.1089 H   0  0  0  0  0  0  0  0  0  0  0  0  # atno 8010 bound_to 7997
  140.2444  144.3549  150.6369 H   0  0  0  0  0  0  0  0  0  0  0  0  # atno 10167 bound_to 10162
  156.2036  130.4157  149.9208 H   0  0  0  0  0  0  0  0  0  0  0  0  # atno 10718 bound_to 10713
  154.5960  135.5531  153.7326 H   0  0  0  0  0  0  0  0  0  0  0  0  # atno 10763 bound_to 10752
  153.0135  135.6354  154.1782 H   0  0  0  0  0  0  0  0  0  0  0  0  # atno 10764 bound_to 10752
  154.1723  135.2891  155.3057 H   0  0  0  0  0  0  0  0  0  0  0  0  # atno 10765 bound_to 10752
  139.8865  134.8584  156.3217 H   0  0  0  0  0  0  0  0  0  0  0  0  # atno 11005 bound_to 11000
  146.3385  140.2459  142.8597 LP  0  0  0  0  0  0  0  0  0  0  0  0  # atno 17320 bound_to 7965
  144.9805  140.8454  143.5400 LP  0  0  0  0  0  0  0  0  0  0  0  0  # atno 17321 bound_to 7965
  140.6089  143.2168  151.6925 LP  0  0  0  0  0  0  0  0  0  0  0  0  # atno 17342 bound_to 10162
  139.5067  144.3673  152.0504 LP  0  0  0  0  0  0  0  0  0  0  0  0  # atno 17343 bound_to 10162
  156.6909  130.8895  151.3588 LP  0  0  0  0  0  0  0  0  0  0  0  0  # atno 17370 bound_to 10713
  157.6999  130.9322  150.0755 LP  0  0  0  0  0  0  0  0  0  0  0  0  # atno 17371 bound_to 10713
  140.9782  133.7284  156.0634 LP  0  0  0  0  0  0  0  0  0  0  0  0  # atno 17394 bound_to 11000
  140.7783  134.3754  157.5493 LP  0  0  0  0  0  0  0  0  0  0  0  0  # atno 17395 bound_to 11000

$$$$
