AV-unprocessed.smi:1007|AV-procd|sdf|4406|dock5
  -GOLD-   22720 2353D 1   1.00000     0.00000
 Structure written by MMmdl.
 57 59  0  0  0  0  0  0  0  0  3 V2000
  144.0759  133.3979  150.7838 C   0  0  0  0  0  0  0  0  0  0  0  0
  143.9959  134.8039  150.9439 O   0  0  0  0  0  0  0  0  0  0  0  0
  145.1909  135.3606  151.4660 C   0  0  0  0  0  0  0  0  0  0  0  0
  145.4060  136.7484  150.8423 C   0  0  0  0  0  0  0  0  0  0  0  0
  146.0894  137.6897  151.7659 N   0  3  2  0  0  0  0  0  0  0  0  0
  145.4068  137.8354  153.0771 C   0  0  0  0  0  0  0  0  0  0  0  0
  146.1988  138.7616  154.0176 C   0  0  0  0  0  0  0  0  0  0  0  0
  146.4373  140.0872  153.3916 N   0  3  1  0  0  0  0  0  0  0  0  0
  147.1327  141.0485  154.2854 C   0  0  0  0  0  0  0  0  0  0  0  0
  148.4330  140.4703  154.8871 C   0  0  2  0  0  0  0  0  0  0  0  0
  148.1334  139.9337  156.1611 O   0  0  0  0  0  0  0  0  0  0  0  0
  149.5625  141.5145  155.0306 C   0  0  0  0  0  0  0  0  0  0  0  0
  150.6482  141.0828  155.8961 N   0  0  0  0  0  0  0  0  0  0  0  0
  151.3957  139.9688  155.7699 C   0  0  0  0  0  0  0  0  0  0  0  0
  152.3330  139.7569  156.6884 N   0  0  0  0  0  0  0  0  0  0  0  0
  152.1853  140.8679  157.5004 C   0  0  0  0  0  0  0  0  0  0  0  0
  152.8821  141.2500  158.6672 C   0  0  0  0  0  0  0  0  0  0  0  0
  152.5583  142.4464  159.3459 C   0  0  0  0  0  0  0  0  0  0  0  0
  153.3360  142.8202  160.5956 C   0  0  0  0  0  0  0  0  0  0  0  0
  151.5219  143.2819  158.8578 C   0  0  0  0  0  0  0  0  0  0  0  0
  151.1614  144.5753  159.5667 C   0  0  0  0  0  0  0  0  0  0  0  0
  150.8134  142.9136  157.6952 C   0  0  0  0  0  0  0  0  0  0  0  0
  151.1442  141.7201  157.0290 C   0  0  0  0  0  0  0  0  0  0  0  0
  147.1189  139.9406  152.0821 C   0  0  0  0  0  0  0  0  0  0  0  0
  146.3271  139.0148  151.1423 C   0  0  0  0  0  0  0  0  0  0  0  0
  143.1392  133.0222  150.3720 H   0  0  0  0  0  0  0  0  0  0  0  0
  144.2450  132.9011  151.7401 H   0  0  0  0  0  0  0  0  0  0  0  0
  144.8793  133.1226  150.0992 H   0  0  0  0  0  0  0  0  0  0  0  0
  145.1014  135.4637  152.5486 H   0  0  0  0  0  0  0  0  0  0  0  0
  146.0380  134.7003  151.2789 H   0  0  0  0  0  0  0  0  0  0  0  0
  146.0043  136.6205  149.9388 H   0  0  0  0  0  0  0  0  0  0  0  0
  144.4542  137.1741  150.5210 H   0  0  0  0  0  0  0  0  0  0  0  0
  144.4026  138.2336  152.9222 H   0  0  0  0  0  0  0  0  0  0  0  0
  145.2897  136.8630  153.5542 H   0  0  0  0  0  0  0  0  0  0  0  0
  145.6474  138.8759  154.9503 H   0  0  0  0  0  0  0  0  0  0  0  0
  147.1554  138.3018  154.2717 H   0  0  0  0  0  0  0  0  0  0  0  0
  147.3403  141.9675  153.7353 H   0  0  0  0  0  0  0  0  0  0  0  0
  146.4631  141.3278  155.1006 H   0  0  0  0  0  0  0  0  0  0  0  0
  148.8107  139.6578  154.2674 H   0  0  0  0  0  0  0  0  0  0  0  0
  147.6841  140.5934  156.6687 H   0  0  0  0  0  0  0  0  0  0  0  0
  149.9768  141.7650  154.0529 H   0  0  0  0  0  0  0  0  0  0  0  0
  149.1555  142.4430  155.4327 H   0  0  0  0  0  0  0  0  0  0  0  0
  151.2362  139.2689  154.9625 H   0  0  0  0  0  0  0  0  0  0  0  0
  153.6727  140.6140  159.0380 H   0  0  0  0  0  0  0  0  0  0  0  0
  153.8461  143.7736  160.4568 H   0  0  0  0  0  0  0  0  0  0  0  0
  154.0895  142.0694  160.8354 H   0  0  0  0  0  0  0  0  0  0  0  0
  152.6668  142.9069  161.4516 H   0  0  0  0  0  0  0  0  0  0  0  0
  150.3384  145.0870  159.0671 H   0  0  0  0  0  0  0  0  0  0  0  0
  152.0159  145.2518  159.5818 H   0  0  0  0  0  0  0  0  0  0  0  0
  150.8578  144.3776  160.5950 H   0  0  0  0  0  0  0  0  0  0  0  0
  150.0228  143.5425  157.3140 H   0  0  0  0  0  0  0  0  0  0  0  0
  147.2281  140.9188  151.6118 H   0  0  0  0  0  0  0  0  0  0  0  0
  148.1253  139.5483  152.2369 H   0  0  0  0  0  0  0  0  0  0  0  0
  146.8812  138.8901  150.2111 H   0  0  0  0  0  0  0  0  0  0  0  0
  145.3702  139.4717  150.8838 H   0  0  0  0  0  0  0  0  0  0  0  0
  145.5334  140.4944  153.1951 H   0  0  0  0  0  0  0  0  0  0  0  0
  147.0018  137.2940  151.9459 H   0  0  0  0  0  0  0  0  0  0  0  0
  1  2  1  0  0  0  0
  1 26  1  0  0  0  0
  1 27  1  0  0  0  0
  1 28  1  0  0  0  0
  2  3  1  0  0  0  0
  3  4  1  0  0  0  0
  3 29  1  0  0  0  0
  3 30  1  0  0  0  0
  4  5  1  0  0  0  0
  4 31  1  0  0  0  0
  4 32  1  0  0  0  0
  5 25  1  0  0  0  0
  5  6  1  0  0  0  0
  5 57  1  0  0  0  0
  6  7  1  0  0  0  0
  6 33  1  0  0  0  0
  6 34  1  0  0  0  0
  7  8  1  0  0  0  0
  7 35  1  0  0  0  0
  7 36  1  0  0  0  0
  8  9  1  0  0  0  0
  8 24  1  0  0  0  0
  8 56  1  0  0  0  0
  9 10  1  0  0  0  0
  9 37  1  0  0  0  0
  9 38  1  0  0  0  0
 10 11  1  0  0  0  0
 10 12  1  0  0  0  0
 10 39  1  0  0  0  0
 11 40  1  0  0  0  0
 12 13  1  0  0  0  0
 12 41  1  0  0  0  0
 12 42  1  0  0  0  0
 13 23  1  0  0  0  0
 13 14  1  0  0  0  0
 14 15  2  0  0  0  0
 14 43  1  0  0  0  0
 15 16  1  0  0  0  0
 16 23  2  0  0  0  0
 16 17  1  0  0  0  0
 17 18  2  0  0  0  0
 17 44  1  0  0  0  0
 18 19  1  0  0  0  0
 18 20  1  0  0  0  0
 19 45  1  0  0  0  0
 19 46  1  0  0  0  0
 19 47  1  0  0  0  0
 20 21  1  0  0  0  0
 20 22  2  0  0  0  0
 21 48  1  0  0  0  0
 21 49  1  0  0  0  0
 21 50  1  0  0  0  0
 22 23  1  0  0  0  0
 22 51  1  0  0  0  0
 24 25  1  0  0  0  0
 24 52  1  0  0  0  0
 24 53  1  0  0  0  0
 25 54  1  0  0  0  0
 25 55  1  0  0  0  0
M  CHG  1   5   1
M  CHG  1   8   1
M  END
> <s_m_source_file>
AV-unprocessed.smi

> <i_m_source_file_index>
1007

> <i_lp_mmshare_version>
43012

> <i_f3d_flags>
0

> <s_epik_input>
W0NIM11PW0NIMl1bQ0gyXU4xW0NIMl1bQ0gyXU4oW0NIMl1bQ0gyXTEpW0NIMl1bQ0BIXShbT0hdKVtDSDJdbihbY0hdbjIpYyhjMjMpW2NIXWMoW0NIM10pYyhbY0hdMylbQ0gzXQ==

> <s_epik_cmdline>
J2VwaWtfcHl0aG9uJywgJy1waCcsICc3LjAnLCAnLXRuJywgJzgnLCAnLW1hJywgJzIwMCcsICctbWV0YWxfYmluZGluZycsICctaW1hZScsICc8aW5maWxlLm1hZT4nLCAnLW9tYWUnLCAnPG91dGZpbGUubWFlPic=

> <r_epik_Ionization_Penalty>
3.88944

> <r_epik_Ionization_Penalty_Charging>
3.80608

> <r_epik_Ionization_Penalty_Neutral>
0.0833653

> <r_epik_State_Penalty>
2.70739

> <r_epik_Charging_Adjusted_Penalty>
6.51347

> <i_epik_Tot_Q>
2

> <i_epik_Tot_abs_Q>
2

> <r_epik_Metal_State_Penalty>
2.62239

> <b_epik_Metal_Only>
0

> <s_lp_Force_Field>
OPLS_2005

> <r_lp_Energy>
26.7916

> <b_lp_Chiralities_Consistent>
1

> <s_lp_Variant>
AV-unprocessed.smi:1007-9

> <Gold.Version>
5.8.1

> <Gold.Id.Protein>
6NUR|6NUR_protein|mol2

> <Gold.PLP.Fitness>
59.9271

> <Gold.PLP.PLP>
-47.0609

> <Gold.PLP.part.hbond>
-3.3848

> <Gold.PLP.part.metal>
0.0000

> <Gold.PLP.part.buried>
2.3009

> <Gold.PLP.part.nonpolar>
-46.7456

> <Gold.PLP.part.repulsive>
0.2792

> <Gold.PLP.ligand.clash>
0.0000

> <Gold.PLP.ligand.torsion>
1.1291

> <Gold.PLP.Chemscore.Hbond>
5.0000

> <Gold.PLP.Chemscore.CHOScore>
0.0000

> <Gold.PLP.Chemscore.Metal>
0.0000

> <Gold.Chemscore.Hbonds>
donor molecule, donor type, donor heavy atom, donor atom, acceptor molecule, acceptor atom, score
      L1  H     5    57       P1  7948  1.14
      L1  H     8    56       P1 10175  2.00
      P1  H  7997  8009       L1    15  0.58

> <Gold.PLP.Chemscore.Internal.Correction>
0.1243

> <Gold.Rescore>
     Score         DG    S(hbond)    S(metal)    S(lipo)     H(rot)  DE(clash)    DE(int)     intcor
     20.34     -23.92       2.69        0.00     138.45       2.63       2.22       1.36       ----

> <Gold.Chemscore.Fitness>
20.3392

> <Gold.Chemscore.DG>
-23.9241

> <Gold.Chemscore.ZeroCoef>
-5.4800

> <Gold.Chemscore.Hbond>
2.6918

> <Gold.Chemscore.Metal>
0.0000

> <Gold.Chemscore.Lipo>
138.4477

> <Gold.Chemscore.Internal_Hbond>
0.0000

> <Gold.Chemscore.DEClash>
2.2207

> <Gold.Chemscore.DEInternal>
1.3642

> <Gold.Chemscore.Rot>
2.6347

> <Gold.Chemscore.Internal.Correction>
   9.000000E+99

> <Gold.Chemscore.Hbonds>
donor molecule, donor type, donor heavy atom, donor atom, acceptor molecule, acceptor atom, score
      L1  H     5    57       P1  7948  0.56
      L1  H     8    56       P1 10175  0.88
      P1  H  7997  8009       L1    15  0.04

> <Gold.Chemscore.Hbond.Weighted>
-8.9905

> <Gold.Chemscore.Metal.Weighted>
-0.0000

> <Gold.Chemscore.Lipo.Weighted>
-16.1984

> <Gold.Chemscore.Internal_Hbond.Weighted>
0.0000

> <Gold.Chemscore.DEClash.Weighted>
2.2207

> <Gold.Chemscore.DEInternal.Weighted>
1.3642

> <Gold.Chemscore.Rot.Weighted>
6.7448

> <Gold.Chemscore.Internal.Correction.Weighted>
   9.000000E+99

> <Gold.Protein.RotatedTorsions>
[ 6907 6896 6895 6894 ] final  -45.71 input  -60.11 | X-H torsion
[ 7974 7965 7964 7962 ] final -158.88 input  175.53 | X-H torsion
[ 8008 7997 7996 7995 ] final -168.39 input   59.86 | X-H torsion
[ 10167 10162 10161 10158 ] final   93.55 input  -65.29 | X-H torsion
[ 10718 10713 10712 10709 ] final  161.45 input   66.30 | X-H torsion
[ 10763 10752 10751 10750 ] final -172.04 input  -60.55 | X-H torsion
[ 11005 11000 10999 10996 ] final  144.71 input  -57.11 | X-H torsion

> <Gold.Protein.ActiveResidues>
 VAL166  LYS551  ARG553  GLY616  TRP617  ASP618  TYR619  PRO620  LYS621  CYS622 
 ASP623  PHE694  ASN695  SER759  ASP760  ASP761  ALA762  ILE779  LEU786  VAL792 
 PHE793  MET794  SER795  GLU796  ALA797  LYS798  CYS799  TRP800  GLU811  SER814 

> <Gold.Protein.RotatedAtoms>
  150.9190  134.8608  159.7475 H   0  0  0  0  0  0  0  0  0  0  0  0  # atno 6907 bound_to 6896
  152.4983  134.4246  159.9502 H   0  0  0  0  0  0  0  0  0  0  0  0  # atno 6908 bound_to 6896
  151.4282  133.3638  159.2800 H   0  0  0  0  0  0  0  0  0  0  0  0  # atno 6909 bound_to 6896
  144.7488  140.3765  143.6064 H   0  0  0  0  0  0  0  0  0  0  0  0  # atno 7974 bound_to 7965
  155.8907  140.1024  157.1420 H   0  0  0  0  0  0  0  0  0  0  0  0  # atno 8008 bound_to 7997
  154.4014  140.1311  156.4376 H   0  0  0  0  0  0  0  0  0  0  0  0  # atno 8009 bound_to 7997
  155.7537  140.3464  155.5165 H   0  0  0  0  0  0  0  0  0  0  0  0  # atno 8010 bound_to 7997
  139.8168  144.6749  150.9569 H   0  0  0  0  0  0  0  0  0  0  0  0  # atno 10167 bound_to 10162
  157.1363  131.0529  151.2348 H   0  0  0  0  0  0  0  0  0  0  0  0  # atno 10718 bound_to 10713
  154.6237  135.2878  155.0296 H   0  0  0  0  0  0  0  0  0  0  0  0  # atno 10763 bound_to 10752
  154.1482  135.6508  153.4961 H   0  0  0  0  0  0  0  0  0  0  0  0  # atno 10764 bound_to 10752
  153.0248  135.5349  154.7037 H   0  0  0  0  0  0  0  0  0  0  0  0  # atno 10765 bound_to 10752
  140.0654  134.9182  157.1255 H   0  0  0  0  0  0  0  0  0  0  0  0  # atno 11005 bound_to 11000
  145.7023  139.1664  143.2586 LP  0  0  0  0  0  0  0  0  0  0  0  0  # atno 17320 bound_to 7965
  146.1407  140.7062  142.9368 LP  0  0  0  0  0  0  0  0  0  0  0  0  # atno 17321 bound_to 7965
  140.7815  143.4130  151.0962 LP  0  0  0  0  0  0  0  0  0  0  0  0  # atno 17342 bound_to 10162
  139.7793  143.8379  152.3135 LP  0  0  0  0  0  0  0  0  0  0  0  0  # atno 17343 bound_to 10162
  157.4347  130.7510  149.7019 LP  0  0  0  0  0  0  0  0  0  0  0  0  # atno 17370 bound_to 10713
  155.9797  130.4037  150.3569 LP  0  0  0  0  0  0  0  0  0  0  0  0  # atno 17371 bound_to 10713
  140.3707  134.2393  155.7178 LP  0  0  0  0  0  0  0  0  0  0  0  0  # atno 17394 bound_to 11000
  141.1990  133.8021  157.0555 LP  0  0  0  0  0  0  0  0  0  0  0  0  # atno 17395 bound_to 11000

$$$$
