AV-unprocessed.smi:386|AV-procd|sdf|2473|dock1
  -GOLD-   2262022413D 1   1.00000     0.00000
 Structure written by MMmdl.
 27 28  0  0  0  0  0  0  0  0  1 V2000
  152.5856  136.9687  159.7715 N   0  0  0  0  0  0  0  0  0  0  0  0
  152.3592  137.9161  159.1463 C   0  0  0  0  0  0  0  0  0  0  0  0
  152.0503  139.0790  158.3821 C   0  0  0  0  0  0  0  0  0  0  0  0
  151.9564  140.2988  158.9500 C   0  0  0  0  0  0  0  0  0  0  0  0
  151.6667  141.4341  158.2249 N   0  0  0  0  0  0  0  0  0  0  0  0
  151.4145  142.6912  158.8715 C   0  0  0  0  0  0  0  0  0  0  0  0
  152.1570  143.9397  158.4363 C   0  0  0  0  0  0  0  0  0  0  0  0
  152.4858  143.2885  159.7576 C   0  0  0  0  0  0  0  0  0  0  0  0
  151.3755  141.3403  156.8463 C   0  0  0  0  0  0  0  0  0  0  0  0
  151.0173  142.3286  156.2009 O   0  0  0  0  0  0  0  0  0  0  0  0
  151.4945  140.0716  156.2286 N   0  0  0  0  0  0  0  0  0  0  0  0
  151.2106  139.9585  154.7807 C   0  0  0  0  0  0  0  0  0  0  0  0
  150.1925  138.8595  154.4376 C   0  0  0  0  0  0  0  0  0  0  0  0
  149.9441  138.6641  153.1408 N   0  0  0  0  0  0  0  0  0  0  0  0
  149.6376  138.1985  155.3144 O   0  0  0  0  0  0  0  0  0  0  0  0
  151.8310  138.8970  156.9491 C   0  0  0  0  0  0  0  0  0  0  0  0
  151.9140  137.8060  156.3821 O   0  0  0  0  0  0  0  0  0  0  0  0
  152.1187  140.3934  160.0141 H   0  0  0  0  0  0  0  0  0  0  0  0
  150.3884  142.8440  159.2015 H   0  0  0  0  0  0  0  0  0  0  0  0
  152.8956  143.8504  157.6419 H   0  0  0  0  0  0  0  0  0  0  0  0
  151.6108  144.8804  158.4599 H   0  0  0  0  0  0  0  0  0  0  0  0
  152.1620  143.7978  160.6628 H   0  0  0  0  0  0  0  0  0  0  0  0
  153.4389  142.7683  159.8319 H   0  0  0  0  0  0  0  0  0  0  0  0
  150.8444  140.9054  154.3806 H   0  0  0  0  0  0  0  0  0  0  0  0
  152.1265  139.7719  154.2177 H   0  0  0  0  0  0  0  0  0  0  0  0
  149.2834  137.9567  152.8538 H   0  0  0  0  0  0  0  0  0  0  0  0
  150.4186  139.2274  152.4500 H   0  0  0  0  0  0  0  0  0  0  0  0
  1  2  3  0  0  0  0
  2  3  1  0  0  0  0
  3 16  1  0  0  0  0
  3  4  2  0  0  0  0
  4  5  1  0  0  0  0
  4 18  1  0  0  0  0
  5  6  1  0  0  0  0
  5  9  1  0  0  0  0
  6  8  1  0  0  0  0
  6  7  1  0  0  0  0
  6 19  1  0  0  0  0
  7  8  1  0  0  0  0
  7 20  1  0  0  0  0
  7 21  1  0  0  0  0
  8 22  1  0  0  0  0
  8 23  1  0  0  0  0
  9 10  2  0  0  0  0
  9 11  1  0  0  0  0
 11 12  1  0  0  0  0
 11 16  1  0  0  0  0
 12 13  1  0  0  0  0
 12 24  1  0  0  0  0
 12 25  1  0  0  0  0
 13 14  1  0  0  0  0
 13 15  2  0  0  0  0
 14 26  1  0  0  0  0
 14 27  1  0  0  0  0
 16 17  2  0  0  0  0
M  END
> <s_m_source_file>
AV-unprocessed.smi

> <i_m_source_file_index>
386

> <i_lp_mmshare_version>
43012

> <i_f3d_flags>
0

> <s_epik_input>
TiNDYzFbY0hdbihbQ0hdMltDSDJdW0NIMl0yKWMoPU8pbihjMT1PKVtDSDJdQyg9TylbTkgyXQ==

> <s_epik_cmdline>
J2VwaWtfcHl0aG9uJywgJy1waCcsICc3LjAnLCAnLXRuJywgJzgnLCAnLW1hJywgJzIwMCcsICctbWV0YWxfYmluZGluZycsICctaW1hZScsICc8aW5maWxlLm1hZT4nLCAnLW9tYWUnLCAnPG91dGZpbGUubWFlPic=

> <r_lp_tautomer_probability>
1

> <r_epik_Ionization_Penalty>
3.46323e-08

> <r_epik_Ionization_Penalty_Charging>
7.2855e-11

> <r_epik_Ionization_Penalty_Neutral>
3.45594e-08

> <r_epik_State_Penalty>
-0

> <r_epik_Charging_Adjusted_Penalty>
7.2855e-11

> <i_epik_Tot_Q>
0

> <i_epik_Tot_abs_Q>
0

> <r_epik_Metal_State_Penalty>
-0

> <b_epik_Metal_Only>
0

> <s_lp_Force_Field>
OPLS_2005

> <r_lp_Energy>
26.3068

> <b_lp_Chiralities_Consistent>
1

> <s_lp_Variant>
AV-unprocessed.smi:386-1

> <Gold.Version>
5.8.1

> <Gold.Id.Protein>
6NUR|6NUR_protein|mol2

> <Gold.PLP.Fitness>
37.6626

> <Gold.PLP.PLP>
-30.3106

> <Gold.PLP.part.hbond>
-3.0000

> <Gold.PLP.part.metal>
0.0000

> <Gold.PLP.part.buried>
-1.9860

> <Gold.PLP.part.nonpolar>
-25.7878

> <Gold.PLP.part.repulsive>
0.2591

> <Gold.PLP.ligand.clash>
0.0000

> <Gold.PLP.ligand.torsion>
0.1898

> <Gold.PLP.Chemscore.Hbond>
2.5040

> <Gold.PLP.Chemscore.CHOScore>
0.0000

> <Gold.PLP.Chemscore.Metal>
0.0000

> <Gold.Chemscore.Hbonds>
donor molecule, donor type, donor heavy atom, donor atom, acceptor molecule, acceptor atom, score
      L1  H    14    26       P1  7948  0.93
      L1  H    14    27       P1  7957  0.50
      P1  H  6896  6907       L1     1  1.00

> <Gold.PLP.Chemscore.Internal.Correction>
0.2196

> <Gold.Rescore>
     Score         DG    S(hbond)    S(metal)    S(lipo)     H(rot)  DE(clash)    DE(int)     intcor
      9.22     -13.95       2.39        0.00      48.72       2.03       0.05       4.68       ----

> <Gold.Chemscore.Fitness>
9.2229

> <Gold.Chemscore.DG>
-13.9494

> <Gold.Chemscore.ZeroCoef>
-5.4800

> <Gold.Chemscore.Hbond>
2.3862

> <Gold.Chemscore.Metal>
0.0000

> <Gold.Chemscore.Lipo>
48.7154

> <Gold.Chemscore.Internal_Hbond>
0.0000

> <Gold.Chemscore.DEClash>
0.0515

> <Gold.Chemscore.DEInternal>
4.6750

> <Gold.Chemscore.Rot>
2.0313

> <Gold.Chemscore.Internal.Correction>
   9.000000E+99

> <Gold.Chemscore.Hbonds>
donor molecule, donor type, donor heavy atom, donor atom, acceptor molecule, acceptor atom, score
      L1  H    14    26       P1  7948  0.83
      L1  H    14    27       P1  7957  0.15
      P1  H  6896  6907       L1     1  0.96

> <Gold.Chemscore.Hbond.Weighted>
-7.9698

> <Gold.Chemscore.Metal.Weighted>
-0.0000

> <Gold.Chemscore.Lipo.Weighted>
-5.6997

> <Gold.Chemscore.Internal_Hbond.Weighted>
0.0000

> <Gold.Chemscore.DEClash.Weighted>
0.0515

> <Gold.Chemscore.DEInternal.Weighted>
4.6750

> <Gold.Chemscore.Rot.Weighted>
5.2001

> <Gold.Chemscore.Internal.Correction.Weighted>
   9.000000E+99

> <Gold.Protein.RotatedTorsions>
[ 6907 6896 6895 6894 ] final   20.24 input  -60.11 | X-H torsion
[ 7974 7965 7964 7962 ] final -103.27 input  175.53 | X-H torsion
[ 8008 7997 7996 7995 ] final   11.23 input   59.86 | X-H torsion
[ 10167 10162 10161 10158 ] final   28.12 input  -65.29 | X-H torsion
[ 10718 10713 10712 10709 ] final  -55.41 input   66.30 | X-H torsion
[ 10763 10752 10751 10750 ] final  109.03 input  -60.55 | X-H torsion
[ 11005 11000 10999 10996 ] final  169.10 input  -57.11 | X-H torsion

> <Gold.Protein.ActiveResidues>
 VAL166  LYS551  ARG553  GLY616  TRP617  ASP618  TYR619  PRO620  LYS621  CYS622 
 ASP623  PHE694  ASN695  SER759  ASP760  ASP761  ALA762  ILE779  LEU786  VAL792 
 PHE793  MET794  SER795  GLU796  ALA797  LYS798  CYS799  TRP800  GLU811  SER814 

> <Gold.Protein.RotatedAtoms>
  151.8933  135.0408  160.0499 H   0  0  0  0  0  0  0  0  0  0  0  0  # atno 6907 bound_to 6896
  152.2418  133.5137  159.5283 H   0  0  0  0  0  0  0  0  0  0  0  0  # atno 6908 bound_to 6896
  150.7056  134.0994  159.4003 H   0  0  0  0  0  0  0  0  0  0  0  0  # atno 6909 bound_to 6896
  145.2580  140.9260  143.3057 H   0  0  0  0  0  0  0  0  0  0  0  0  # atno 7974 bound_to 7965
  154.8041  140.2857  155.5900 H   0  0  0  0  0  0  0  0  0  0  0  0  # atno 8008 bound_to 7997
  156.2981  140.2581  156.2845 H   0  0  0  0  0  0  0  0  0  0  0  0  # atno 8009 bound_to 7997
  154.9523  140.0379  157.2140 H   0  0  0  0  0  0  0  0  0  0  0  0  # atno 8010 bound_to 7997
  140.4879  144.0513  150.6287 H   0  0  0  0  0  0  0  0  0  0  0  0  # atno 10167 bound_to 10162
  156.1370  130.4156  150.0168 H   0  0  0  0  0  0  0  0  0  0  0  0  # atno 10718 bound_to 10713
  153.4290  135.3793  155.2158 H   0  0  0  0  0  0  0  0  0  0  0  0  # atno 10763 bound_to 10752
  154.8749  135.3835  154.4291 H   0  0  0  0  0  0  0  0  0  0  0  0  # atno 10764 bound_to 10752
  153.4821  135.7088  153.5995 H   0  0  0  0  0  0  0  0  0  0  0  0  # atno 10765 bound_to 10752
  140.2942  134.7648  157.3863 H   0  0  0  0  0  0  0  0  0  0  0  0  # atno 11005 bound_to 11000
  144.9444  139.4153  143.6433 LP  0  0  0  0  0  0  0  0  0  0  0  0  # atno 17320 bound_to 7965
  146.3283  139.8419  142.8889 LP  0  0  0  0  0  0  0  0  0  0  0  0  # atno 17321 bound_to 7965
  140.3773  143.2821  152.0210 LP  0  0  0  0  0  0  0  0  0  0  0  0  # atno 17342 bound_to 10162
  139.4845  144.6182  151.7305 LP  0  0  0  0  0  0  0  0  0  0  0  0  # atno 17343 bound_to 10162
  156.8064  130.9309  151.3645 LP  0  0  0  0  0  0  0  0  0  0  0  0  # atno 17370 bound_to 10713
  157.6542  130.8910  149.9694 LP  0  0  0  0  0  0  0  0  0  0  0  0  # atno 17371 bound_to 10713
  140.1168  134.5273  155.8218 LP  0  0  0  0  0  0  0  0  0  0  0  0  # atno 17394 bound_to 11000
  141.2140  133.6742  156.6791 LP  0  0  0  0  0  0  0  0  0  0  0  0  # atno 17395 bound_to 11000

$$$$
