AV-unprocessed.smi:2069|AV-procd|sdf|8437|dock4
  -GOLD-   2272011133D 1   1.00000     0.00000
 Structure written by MMmdl.
 38 39  0  0  0  0  0  0  0  0  3 V2000
  146.2443  136.2775  162.4443 C   0  0  0  0  0  0  0  0  0  0  0  0
  147.1220  136.0246  161.2669 C   0  0  0  0  0  0  0  0  0  0  0  0
  147.6768  137.0087  160.5551 N   0  0  0  0  0  0  0  0  0  0  0  0
  148.4485  136.5255  159.5081 N   0  0  0  0  0  0  0  0  0  0  0  0
  148.4564  135.1871  159.4346 C   0  0  0  0  0  0  0  0  0  0  0  0
  149.1435  134.5219  158.4912 N   0  5  0  0  0  0  0  0  0  0  0  0
  149.1944  135.0026  157.2286 C   0  0  0  0  0  0  0  0  0  0  0  0
  150.1295  135.6225  156.7169 O   0  0  0  0  0  0  0  0  0  0  0  0
  148.0912  134.7516  156.5124 N   0  0  0  0  0  0  0  0  0  0  0  0
  147.8805  135.1552  155.1270 C   0  0  0  0  0  0  0  0  0  0  0  0
  147.7020  133.9394  154.1799 C   0  0  2  0  0  0  0  0  0  0  0  0
  149.0456  133.1890  154.0150 C   0  0  0  0  0  0  0  0  0  0  0  0
  147.1365  134.3142  152.8406 N   0  3  0  0  0  0  0  0  0  0  0  0
  146.9147  133.1369  151.9554 C   0  0  0  0  0  0  0  0  0  0  0  0
  146.3868  133.5632  150.5758 C   0  0  0  0  0  0  0  0  0  0  0  0
  145.1825  134.2968  150.7327 O   0  0  0  0  0  0  0  0  0  0  0  0
  145.3977  135.4864  151.4754 C   0  0  0  0  0  0  0  0  0  0  0  0
  145.8972  135.1399  152.8883 C   0  0  0  0  0  0  0  0  0  0  0  0
  147.5071  134.4082  160.7005 S   0  0  0  0  0  0  0  0  0  0  0  0
  145.2458  136.5587  162.1099 H   0  0  0  0  0  0  0  0  0  0  0  0
  146.6522  137.0843  163.0536 H   0  0  0  0  0  0  0  0  0  0  0  0
  146.1685  135.3808  163.0595 H   0  0  0  0  0  0  0  0  0  0  0  0
  147.3472  134.2407  156.9650 H   0  0  0  0  0  0  0  0  0  0  0  0
  146.9904  135.7847  155.1292 H   0  0  0  0  0  0  0  0  0  0  0  0
  148.7196  135.7699  154.7964 H   0  0  0  0  0  0  0  0  0  0  0  0
  146.9911  133.2638  154.6591 H   0  0  0  0  0  0  0  0  0  0  0  0
  149.4868  132.9236  154.9754 H   0  0  0  0  0  0  0  0  0  0  0  0
  149.7739  133.7992  153.4802 H   0  0  0  0  0  0  0  0  0  0  0  0
  148.9392  132.2482  153.4784 H   0  0  0  0  0  0  0  0  0  0  0  0
  147.8359  132.5798  151.7998 H   0  0  0  0  0  0  0  0  0  0  0  0
  146.2051  132.4550  152.4267 H   0  0  0  0  0  0  0  0  0  0  0  0
  147.1278  134.1586  150.0398 H   0  0  0  0  0  0  0  0  0  0  0  0
  146.1842  132.6832  149.9650 H   0  0  0  0  0  0  0  0  0  0  0  0
  146.1105  136.1305  150.9575 H   0  0  0  0  0  0  0  0  0  0  0  0
  144.4592  136.0375  151.5356 H   0  0  0  0  0  0  0  0  0  0  0  0
  145.1223  134.6059  153.4408 H   0  0  0  0  0  0  0  0  0  0  0  0
  146.0765  136.0836  153.4014 H   0  0  0  0  0  0  0  0  0  0  0  0
  147.8342  134.8906  152.3921 H   0  0  0  0  0  0  0  0  0  0  0  0
  1  2  1  0  0  0  0
  1 20  1  0  0  0  0
  1 21  1  0  0  0  0
  1 22  1  0  0  0  0
  2 19  1  0  0  0  0
  2  3  2  0  0  0  0
  3  4  1  0  0  0  0
  4  5  2  0  0  0  0
  5  6  1  0  0  0  0
  5 19  1  0  0  0  0
  6  7  1  0  0  0  0
  7  8  2  0  0  0  0
  7  9  1  0  0  0  0
  9 10  1  0  0  0  0
  9 23  1  0  0  0  0
 10 11  1  0  0  0  0
 10 24  1  0  0  0  0
 10 25  1  0  0  0  0
 11 12  1  0  0  0  0
 11 13  1  0  0  0  0
 11 26  1  0  0  0  0
 12 27  1  0  0  0  0
 12 28  1  0  0  0  0
 12 29  1  0  0  0  0
 13 18  1  0  0  0  0
 13 14  1  0  0  0  0
 13 38  1  0  0  0  0
 14 15  1  0  0  0  0
 14 30  1  0  0  0  0
 14 31  1  0  0  0  0
 15 16  1  0  0  0  0
 15 32  1  0  0  0  0
 15 33  1  0  0  0  0
 16 17  1  0  0  0  0
 17 18  1  0  0  0  0
 17 34  1  0  0  0  0
 17 35  1  0  0  0  0
 18 36  1  0  0  0  0
 18 37  1  0  0  0  0
M  CHG  1   6  -1
M  CHG  1  13   1
M  END
> <s_m_source_file>
AV-unprocessed.smi

> <i_m_source_file_index>
2069

> <i_lp_mmshare_version>
43012

> <i_f3d_flags>
0

> <s_epik_input>
W0NIM11jMW5uYyhzMSlbTkhdQyg9TylbTkhdW0NIMl1bQ0BIXShbQ0gzXSlOMltDSDJdW0NIMl1PW0NIMl1bQ0gyXTI=

> <s_epik_cmdline>
J2VwaWtfcHl0aG9uJywgJy1waCcsICc3LjAnLCAnLXRuJywgJzgnLCAnLW1hJywgJzIwMCcsICctbWV0YWxfYmluZGluZycsICctaW1hZScsICc8aW5maWxlLm1hZT4nLCAnLW9tYWUnLCAnPG91dGZpbGUubWFlPic=

> <r_lp_tautomer_probability>
1

> <r_epik_Ionization_Penalty>
3.53072

> <r_epik_Ionization_Penalty_Charging>
3.4216

> <r_epik_Ionization_Penalty_Neutral>
0.109115

> <r_epik_State_Penalty>
3.61496

> <r_epik_Charging_Adjusted_Penalty>
7.03656

> <i_epik_Tot_Q>
0

> <i_epik_Tot_abs_Q>
2

> <r_epik_Metal_State_Penalty>
1.13918

> <b_epik_Metal_Only>
1

> <s_lp_Force_Field>
OPLS_2005

> <r_lp_Energy>
13.5119

> <b_lp_Chiralities_Consistent>
1

> <s_lp_Variant>
AV-unprocessed.smi:2069-7

> <Gold.Version>
5.8.1

> <Gold.Id.Protein>
6NUR|6NUR_protein|mol2

> <Gold.PLP.Fitness>
39.8826

> <Gold.PLP.PLP>
-25.4666

> <Gold.PLP.part.hbond>
-4.0000

> <Gold.PLP.part.metal>
0.0000

> <Gold.PLP.part.buried>
-3.3805

> <Gold.PLP.part.nonpolar>
-18.7514

> <Gold.PLP.part.repulsive>
0.1688

> <Gold.PLP.ligand.clash>
0.0000

> <Gold.PLP.ligand.torsion>
1.1209

> <Gold.PLP.Chemscore.Hbond>
5.5301

> <Gold.PLP.Chemscore.CHOScore>
0.0000

> <Gold.PLP.Chemscore.Metal>
0.0000

> <Gold.Chemscore.Hbonds>
donor molecule, donor type, donor heavy atom, donor atom, acceptor molecule, acceptor atom, score
      L1  H    13    38       P1  7948  2.00
      P1  H  6896  6907       L1     6  1.90
      P1  H  6931  6943       L1     3  0.32
      P1  H  6934  6947       L1     3  0.78

> <Gold.PLP.Chemscore.Internal.Correction>
0.0674

> <Gold.Rescore>
     Score         DG    S(hbond)    S(metal)    S(lipo)     H(rot)  DE(clash)    DE(int)     intcor
     16.08     -17.07       2.84        0.00      53.44       1.62       0.00       0.99       ----

> <Gold.Chemscore.Fitness>
16.0810

> <Gold.Chemscore.DG>
-17.0706

> <Gold.Chemscore.ZeroCoef>
-5.4800

> <Gold.Chemscore.Hbond>
2.8392

> <Gold.Chemscore.Metal>
0.0000

> <Gold.Chemscore.Lipo>
53.4435

> <Gold.Chemscore.Internal_Hbond>
0.0000

> <Gold.Chemscore.DEClash>
0.0000

> <Gold.Chemscore.DEInternal>
0.9896

> <Gold.Chemscore.Rot>
1.6192

> <Gold.Chemscore.Internal.Correction>
   9.000000E+99

> <Gold.Chemscore.Hbonds>
donor molecule, donor type, donor heavy atom, donor atom, acceptor molecule, acceptor atom, score
      L1  H    13    38       P1  7948  0.85
      P1  H  6896  6907       L1     6  0.21
      P1  H  6931  6943       L1     3  0.16
      P1  H  6934  6947       L1     3  0.73

> <Gold.Chemscore.Hbond.Weighted>
-9.4829

> <Gold.Chemscore.Metal.Weighted>
-0.0000

> <Gold.Chemscore.Lipo.Weighted>
-6.2529

> <Gold.Chemscore.Internal_Hbond.Weighted>
0.0000

> <Gold.Chemscore.DEClash.Weighted>
0.0000

> <Gold.Chemscore.DEInternal.Weighted>
0.9896

> <Gold.Chemscore.Rot.Weighted>
4.1452

> <Gold.Chemscore.Internal.Correction.Weighted>
   9.000000E+99

> <Gold.Protein.RotatedTorsions>
[ 6907 6896 6895 6894 ] final  -91.95 input  -60.11 | X-H torsion
[ 7974 7965 7964 7962 ] final -177.15 input  175.53 | X-H torsion
[ 8008 7997 7996 7995 ] final   76.68 input   59.86 | X-H torsion
[ 10167 10162 10161 10158 ] final  141.28 input  -65.29 | X-H torsion
[ 10718 10713 10712 10709 ] final  -59.45 input   66.30 | X-H torsion
[ 10763 10752 10751 10750 ] final -127.05 input  -60.55 | X-H torsion
[ 11005 11000 10999 10996 ] final  126.45 input  -57.11 | X-H torsion

> <Gold.Protein.ActiveResidues>
 VAL166  LYS551  ARG553  GLY616  TRP617  ASP618  TYR619  PRO620  LYS621  CYS622 
 ASP623  PHE694  ASN695  SER759  ASP760  ASP761  ALA762  ILE779  LEU786  VAL792 
 PHE793  MET794  SER795  GLU796  ALA797  LYS798  CYS799  TRP800  GLU811  SER814 

> <Gold.Protein.RotatedAtoms>
  150.6899  134.2197  159.4391 H   0  0  0  0  0  0  0  0  0  0  0  0  # atno 6907 bound_to 6896
  152.0154  134.9850  160.0578 H   0  0  0  0  0  0  0  0  0  0  0  0  # atno 6908 bound_to 6896
  152.1448  133.4451  159.4821 H   0  0  0  0  0  0  0  0  0  0  0  0  # atno 6909 bound_to 6896
  144.7127  140.1062  143.6413 H   0  0  0  0  0  0  0  0  0  0  0  0  # atno 7974 bound_to 7965
  155.8308  140.3466  155.5571 H   0  0  0  0  0  0  0  0  0  0  0  0  # atno 8008 bound_to 7997
  155.8243  140.0917  157.1850 H   0  0  0  0  0  0  0  0  0  0  0  0  # atno 8009 bound_to 7997
  154.4004  140.1424  156.3525 H   0  0  0  0  0  0  0  0  0  0  0  0  # atno 8010 bound_to 7997
  139.5025  144.6181  151.6115 H   0  0  0  0  0  0  0  0  0  0  0  0  # atno 10167 bound_to 10162
  156.1061  130.4180  150.0716 H   0  0  0  0  0  0  0  0  0  0  0  0  # atno 10718 bound_to 10713
  154.8750  135.3975  154.3530 H   0  0  0  0  0  0  0  0  0  0  0  0  # atno 10763 bound_to 10752
  153.4313  135.7025  153.6234 H   0  0  0  0  0  0  0  0  0  0  0  0  # atno 10764 bound_to 10752
  153.4854  135.3760  155.2434 H   0  0  0  0  0  0  0  0  0  0  0  0  # atno 10765 bound_to 10752
  139.9457  134.9630  156.8709 H   0  0  0  0  0  0  0  0  0  0  0  0  # atno 11005 bound_to 11000
  145.9494  139.2723  143.1221 LP  0  0  0  0  0  0  0  0  0  0  0  0  # atno 17320 bound_to 7965
  145.9339  140.9029  143.0342 LP  0  0  0  0  0  0  0  0  0  0  0  0  # atno 17321 bound_to 7965
  140.5875  143.9837  150.6304 LP  0  0  0  0  0  0  0  0  0  0  0  0  # atno 17342 bound_to 10162
  140.3007  143.3262  152.0974 LP  0  0  0  0  0  0  0  0  0  0  0  0  # atno 17343 bound_to 10162
  156.8691  130.9518  151.3611 LP  0  0  0  0  0  0  0  0  0  0  0  0  # atno 17370 bound_to 10713
  157.6238  130.8675  149.9154 LP  0  0  0  0  0  0  0  0  0  0  0  0  # atno 17371 bound_to 10713
  140.5841  134.0324  155.7475 LP  0  0  0  0  0  0  0  0  0  0  0  0  # atno 17394 bound_to 11000
  141.1106  133.9622  157.2917 LP  0  0  0  0  0  0  0  0  0  0  0  0  # atno 17395 bound_to 11000

$$$$
