AV-unprocessed.smi:786|AV-procd|sdf|3724|dock7
  -GOLD-   22720 1153D 1   1.00000     0.00000
 Structure written by MMmdl.
 39 40  0  0  0  0  0  0  0  0  3 V2000
  150.9534  136.7214  159.3494 O   0  0  0  0  0  0  0  0  0  0  0  0
  149.9848  137.4862  158.5480 S   0  0  0  0  0  0  0  0  0  0  0  0
  149.8257  137.0819  157.1418 O   0  0  0  0  0  0  0  0  0  0  0  0
  148.3227  137.2275  159.3251 C   0  0  0  0  0  0  0  0  0  0  0  0
  148.2899  136.2379  160.5156 C   0  0  0  0  0  0  0  0  0  0  0  0
  148.2431  134.7502  160.1187 C   0  0  0  0  0  0  0  0  0  0  0  0
  148.0860  133.8497  161.3555 C   0  0  0  0  0  0  0  0  0  0  0  0
  146.9307  134.2224  162.0971 O   0  0  0  0  0  0  0  0  0  0  0  0
  147.0076  135.5519  162.5966 C   0  0  0  0  0  0  0  0  0  0  0  0
  147.0872  136.5434  161.4253 C   0  0  0  0  0  0  0  0  0  0  0  0
  150.1612  139.0927  158.7022 N   0  5  0  0  0  0  0  0  0  0  0  0
  149.3736  140.0075  157.8856 C   0  0  0  0  0  0  0  0  0  0  0  0
  150.2593  140.8811  156.9642 C   0  0  0  0  0  0  0  0  0  0  0  0
  150.9832  142.0293  157.6604 C   0  0  0  0  0  0  0  0  0  0  0  0
  151.8897  141.8137  158.7234 C   0  0  0  0  0  0  0  0  0  0  0  0
  152.5289  142.9192  159.3221 C   0  0  0  0  0  0  0  0  0  0  0  0
  152.2550  144.2178  158.8453 C   0  0  0  0  0  0  0  0  0  0  0  0
  151.3474  144.3783  157.7788 C   0  0  0  0  0  0  0  0  0  0  0  0
  150.7559  143.2946  157.2319 N   0  3  0  0  0  0  0  0  0  0  0  0
  147.9704  138.2056  159.6525 H   0  0  0  0  0  0  0  0  0  0  0  0
  147.6463  136.8962  158.5372 H   0  0  0  0  0  0  0  0  0  0  0  0
  149.1907  136.3927  161.1106 H   0  0  0  0  0  0  0  0  0  0  0  0
  147.4168  134.5747  159.4288 H   0  0  0  0  0  0  0  0  0  0  0  0
  149.1564  134.4583  159.6034 H   0  0  0  0  0  0  0  0  0  0  0  0
  147.9855  132.8087  161.0482 H   0  0  0  0  0  0  0  0  0  0  0  0
  148.9712  133.9078  161.9907 H   0  0  0  0  0  0  0  0  0  0  0  0
  146.1210  135.7539  163.1978 H   0  0  0  0  0  0  0  0  0  0  0  0
  147.8704  135.6570  163.2563 H   0  0  0  0  0  0  0  0  0  0  0  0
  147.1548  137.5615  161.8098 H   0  0  0  0  0  0  0  0  0  0  0  0
  146.1638  136.4898  160.8469 H   0  0  0  0  0  0  0  0  0  0  0  0
  148.6680  139.4583  157.2615 H   0  0  0  0  0  0  0  0  0  0  0  0
  148.7591  140.6620  158.5040 H   0  0  0  0  0  0  0  0  0  0  0  0
  151.0117  140.2435  156.4990 H   0  0  0  0  0  0  0  0  0  0  0  0
  149.6712  141.2788  156.1366 H   0  0  0  0  0  0  0  0  0  0  0  0
  152.0885  140.8134  159.0793 H   0  0  0  0  0  0  0  0  0  0  0  0
  153.2212  142.7724  160.1381 H   0  0  0  0  0  0  0  0  0  0  0  0
  152.7330  145.0774  159.2915 H   0  0  0  0  0  0  0  0  0  0  0  0
  151.0763  145.3321  157.3506 H   0  0  0  0  0  0  0  0  0  0  0  0
  150.0946  143.4325  156.4654 H   0  0  0  0  0  0  0  0  0  0  0  0
  1  2  2  0  0  0  0
  2  3  2  0  0  0  0
  2  4  1  0  0  0  0
  2 11  1  0  0  0  0
  4  5  1  0  0  0  0
  4 20  1  0  0  0  0
  4 21  1  0  0  0  0
  5 10  1  0  0  0  0
  5  6  1  0  0  0  0
  5 22  1  0  0  0  0
  6  7  1  0  0  0  0
  6 23  1  0  0  0  0
  6 24  1  0  0  0  0
  7  8  1  0  0  0  0
  7 25  1  0  0  0  0
  7 26  1  0  0  0  0
  8  9  1  0  0  0  0
  9 10  1  0  0  0  0
  9 27  1  0  0  0  0
  9 28  1  0  0  0  0
 10 29  1  0  0  0  0
 10 30  1  0  0  0  0
 11 12  1  0  0  0  0
 12 13  1  0  0  0  0
 12 31  1  0  0  0  0
 12 32  1  0  0  0  0
 13 14  1  0  0  0  0
 13 33  1  0  0  0  0
 13 34  1  0  0  0  0
 14 19  1  0  0  0  0
 14 15  2  0  0  0  0
 15 16  1  0  0  0  0
 15 35  1  0  0  0  0
 16 17  2  0  0  0  0
 16 36  1  0  0  0  0
 17 18  1  0  0  0  0
 17 37  1  0  0  0  0
 18 19  2  0  0  0  0
 18 38  1  0  0  0  0
 19 39  1  0  0  0  0
M  CHG  1  11  -1
M  CHG  1  19   1
M  END
> <s_m_source_file>
AV-unprocessed.smi

> <i_m_source_file_index>
786

> <i_lp_mmshare_version>
43012

> <i_f3d_flags>
0

> <s_epik_input>
W0NIMl0xW0NIMl1PW0NIMl1bQ0gyXVtDSF0xW0NIMl1TKD1PKSg9TylbTkhdW0NIMl1bQ0gyXWMyW2NIXVtjSF1bY0hdW2NIXW4y

> <s_epik_cmdline>
J2VwaWtfcHl0aG9uJywgJy1waCcsICc3LjAnLCAnLXRuJywgJzgnLCAnLW1hJywgJzIwMCcsICctbWV0YWxfYmluZGluZycsICctaW1hZScsICc8aW5maWxlLm1hZT4nLCAnLW9tYWUnLCAnPG91dGZpbGUubWFlPic=

> <r_epik_Ionization_Penalty>
7.39271

> <r_epik_Ionization_Penalty_Charging>
7.39271

> <r_epik_Ionization_Penalty_Neutral>
5.66014e-11

> <r_epik_State_Penalty>
8.23716

> <r_epik_Charging_Adjusted_Penalty>
15.6299

> <i_epik_Tot_Q>
0

> <i_epik_Tot_abs_Q>
2

> <r_epik_Metal_State_Penalty>
4.19267

> <b_epik_Metal_Only>
1

> <s_lp_Force_Field>
OPLS_2005

> <r_lp_Energy>
3.22126

> <b_lp_Chiralities_Consistent>
1

> <s_lp_Variant>
AV-unprocessed.smi:786-4

> <Gold.Version>
5.8.1

> <Gold.Id.Protein>
6NUR|6NUR_protein|mol2

> <Gold.PLP.Fitness>
45.8925

> <Gold.PLP.PLP>
-37.4576

> <Gold.PLP.part.hbond>
-2.0000

> <Gold.PLP.part.metal>
0.0000

> <Gold.PLP.part.buried>
-5.7130

> <Gold.PLP.part.nonpolar>
-30.3738

> <Gold.PLP.part.repulsive>
0.0054

> <Gold.PLP.ligand.clash>
0.0000

> <Gold.PLP.ligand.torsion>
0.8129

> <Gold.PLP.Chemscore.Hbond>
3.0000

> <Gold.PLP.Chemscore.CHOScore>
0.0000

> <Gold.PLP.Chemscore.Metal>
0.0000

> <Gold.Chemscore.Hbonds>
donor molecule, donor type, donor heavy atom, donor atom, acceptor molecule, acceptor atom, score
      L1  H    19    39       P1  8028  1.70
      P1  H  6896  6909       L1     1  0.99

> <Gold.PLP.Chemscore.Internal.Correction>
1.0608

> <Gold.Rescore>
     Score         DG    S(hbond)    S(metal)    S(lipo)     H(rot)  DE(clash)    DE(int)     intcor
     18.95     -19.79       1.98        0.00     102.67       1.68       0.09       0.74       ----

> <Gold.Chemscore.Fitness>
18.9486

> <Gold.Chemscore.DG>
-19.7852

> <Gold.Chemscore.ZeroCoef>
-5.4800

> <Gold.Chemscore.Hbond>
1.9761

> <Gold.Chemscore.Metal>
0.0000

> <Gold.Chemscore.Lipo>
102.6685

> <Gold.Chemscore.Internal_Hbond>
0.0000

> <Gold.Chemscore.DEClash>
0.0922

> <Gold.Chemscore.DEInternal>
0.7444

> <Gold.Chemscore.Rot>
1.6824

> <Gold.Chemscore.Internal.Correction>
   9.000000E+99

> <Gold.Chemscore.Hbonds>
donor molecule, donor type, donor heavy atom, donor atom, acceptor molecule, acceptor atom, score
      L1  H    19    39       P1  8028  0.84
      P1  H  6896  6909       L1     1  0.93

> <Gold.Chemscore.Hbond.Weighted>
-6.6001

> <Gold.Chemscore.Metal.Weighted>
-0.0000

> <Gold.Chemscore.Lipo.Weighted>
-12.0122

> <Gold.Chemscore.Internal_Hbond.Weighted>
0.0000

> <Gold.Chemscore.DEClash.Weighted>
0.0922

> <Gold.Chemscore.DEInternal.Weighted>
0.7444

> <Gold.Chemscore.Rot.Weighted>
4.3070

> <Gold.Chemscore.Internal.Correction.Weighted>
   9.000000E+99

> <Gold.Protein.RotatedTorsions>
[ 6907 6896 6895 6894 ] final   81.77 input  -60.11 | X-H torsion
[ 7974 7965 7964 7962 ] final   71.20 input  175.53 | X-H torsion
[ 8008 7997 7996 7995 ] final   71.96 input   59.86 | X-H torsion
[ 10167 10162 10161 10158 ] final -103.24 input  -65.29 | X-H torsion
[ 10718 10713 10712 10709 ] final  -40.09 input   66.30 | X-H torsion
[ 10763 10752 10751 10750 ] final  130.26 input  -60.55 | X-H torsion
[ 11005 11000 10999 10996 ] final  -82.84 input  -57.11 | X-H torsion

> <Gold.Protein.ActiveResidues>
 VAL166  LYS551  ARG553  GLY616  TRP617  ASP618  TYR619  PRO620  LYS621  CYS622 
 ASP623  PHE694  ASN695  SER759  ASP760  ASP761  ALA762  ILE779  LEU786  VAL792 
 PHE793  MET794  SER795  GLU796  ALA797  LYS798  CYS799  TRP800  GLU811  SER814 

> <Gold.Protein.RotatedAtoms>
  152.5279  134.3152  159.9127 H   0  0  0  0  0  0  0  0  0  0  0  0  # atno 6907 bound_to 6896
  151.3101  133.4078  159.2654 H   0  0  0  0  0  0  0  0  0  0  0  0  # atno 6908 bound_to 6896
  151.0045  134.9365  159.8030 H   0  0  0  0  0  0  0  0  0  0  0  0  # atno 6909 bound_to 6896
  145.7688  139.2834  143.1333 H   0  0  0  0  0  0  0  0  0  0  0  0  # atno 7974 bound_to 7965
  155.7617  140.3486  155.5201 H   0  0  0  0  0  0  0  0  0  0  0  0  # atno 8008 bound_to 7997
  155.8907  140.1017  157.1441 H   0  0  0  0  0  0  0  0  0  0  0  0  # atno 8009 bound_to 7997
  154.4033  140.1305  156.4300 H   0  0  0  0  0  0  0  0  0  0  0  0  # atno 8010 bound_to 7997
  140.2221  143.3668  152.0961 H   0  0  0  0  0  0  0  0  0  0  0  0  # atno 10167 bound_to 10162
  156.2852  130.4222  149.8295 H   0  0  0  0  0  0  0  0  0  0  0  0  # atno 10718 bound_to 10713
  153.7551  135.3204  155.3328 H   0  0  0  0  0  0  0  0  0  0  0  0  # atno 10763 bound_to 10752
  154.8249  135.4576  154.0893 H   0  0  0  0  0  0  0  0  0  0  0  0  # atno 10764 bound_to 10752
  153.2107  135.6935  153.8200 H   0  0  0  0  0  0  0  0  0  0  0  0  # atno 10765 bound_to 10752
  141.1661  133.7264  156.8632 H   0  0  0  0  0  0  0  0  0  0  0  0  # atno 11005 bound_to 11000
  146.0190  140.8365  142.9932 LP  0  0  0  0  0  0  0  0  0  0  0  0  # atno 17320 bound_to 7965
  144.6816  140.2601  143.7320 LP  0  0  0  0  0  0  0  0  0  0  0  0  # atno 17321 bound_to 7965
  139.5140  144.6942  151.5677 LP  0  0  0  0  0  0  0  0  0  0  0  0  # atno 17342 bound_to 10162
  140.6247  143.9190  150.6555 LP  0  0  0  0  0  0  0  0  0  0  0  0  # atno 17343 bound_to 10162
  156.5728  130.8432  151.3361 LP  0  0  0  0  0  0  0  0  0  0  0  0  # atno 17370 bound_to 10713
  157.7326  130.9718  150.1938 LP  0  0  0  0  0  0  0  0  0  0  0  0  # atno 17371 bound_to 10713
  140.1834  134.9017  157.2975 LP  0  0  0  0  0  0  0  0  0  0  0  0  # atno 17394 bound_to 11000
  140.2370  134.3841  155.7497 LP  0  0  0  0  0  0  0  0  0  0  0  0  # atno 17395 bound_to 11000

$$$$
