AV-unprocessed.smi:2443|AV-procd|sdf|9631|dock4
  -GOLD-   2272013263D 1   1.00000     0.00000
 Structure written by MMmdl.
 37 39  0  0  0  0  0  0  0  0  1 V2000
  145.6523  129.6568  151.6228 C   0  0  0  0  0  0  0  0  0  0  0  0
  146.3754  130.8696  151.7995 O   0  0  0  0  0  0  0  0  0  0  0  0
  145.7045  132.0607  151.6146 C   0  0  0  0  0  0  0  0  0  0  0  0
  146.3765  133.2769  151.8546 C   0  0  0  0  0  0  0  0  0  0  0  0
  145.6518  134.4736  151.6571 C   0  0  0  0  0  0  0  0  0  0  0  0
  146.3640  135.6753  151.9108 N   0  0  0  0  0  0  0  0  0  0  0  0
  145.8661  136.8809  152.2368 C   0  0  0  0  0  0  0  0  0  0  0  0
  144.6720  137.1420  152.3849 O   0  0  0  0  0  0  0  0  0  0  0  0
  146.8443  137.7850  152.3869 N   0  0  0  0  0  0  0  0  0  0  0  0
  146.6414  139.1873  152.7331 C   0  0  0  0  0  0  0  0  0  0  0  0
  147.5595  139.7491  153.8129 C   0  0  0  0  0  0  0  0  0  0  0  0
  147.5988  141.2718  153.9077 C   0  0  0  0  0  0  0  0  0  0  0  0
  147.1325  141.9608  155.1698 C   0  0  0  0  0  0  0  0  0  0  0  0
  146.3668  142.1560  153.8863 C   0  0  0  0  0  0  0  0  0  0  0  0
  147.6543  138.9890  155.1225 C   0  0  0  0  0  0  0  0  0  0  0  0
  148.7935  138.9240  154.1463 C   0  0  0  0  0  0  0  0  0  0  0  0
  144.3599  134.4225  151.2481 N   0  0  0  0  0  0  0  0  0  0  0  0
  143.8149  133.2214  151.0468 C   0  0  0  0  0  0  0  0  0  0  0  0
  144.4128  132.0403  151.2065 N   0  0  0  0  0  0  0  0  0  0  0  0
  146.3148  128.8114  151.8073 H   0  0  0  0  0  0  0  0  0  0  0  0
  145.2725  129.5635  150.6044 H   0  0  0  0  0  0  0  0  0  0  0  0
  144.8195  129.5830  152.3238 H   0  0  0  0  0  0  0  0  0  0  0  0
  147.4064  133.2852  152.1806 H   0  0  0  0  0  0  0  0  0  0  0  0
  147.3683  135.6093  151.8361 H   0  0  0  0  0  0  0  0  0  0  0  0
  147.7979  137.4856  152.2454 H   0  0  0  0  0  0  0  0  0  0  0  0
  146.7084  139.7988  151.8316 H   0  0  0  0  0  0  0  0  0  0  0  0
  145.6138  139.2854  153.0836 H   0  0  0  0  0  0  0  0  0  0  0  0
  148.4797  141.7149  153.4467 H   0  0  0  0  0  0  0  0  0  0  0  0
  146.6695  141.3469  155.9396 H   0  0  0  0  0  0  0  0  0  0  0  0
  147.7273  142.7958  155.5346 H   0  0  0  0  0  0  0  0  0  0  0  0
  146.4565  143.1218  153.3934 H   0  0  0  0  0  0  0  0  0  0  0  0
  145.3767  141.7111  153.8424 H   0  0  0  0  0  0  0  0  0  0  0  0
  147.8080  139.5673  156.0316 H   0  0  0  0  0  0  0  0  0  0  0  0
  147.0437  138.0961  155.2413 H   0  0  0  0  0  0  0  0  0  0  0  0
  148.9337  137.9870  153.6109 H   0  0  0  0  0  0  0  0  0  0  0  0
  149.7145  139.4172  154.4433 H   0  0  0  0  0  0  0  0  0  0  0  0
  142.7858  133.2040  150.7205 H   0  0  0  0  0  0  0  0  0  0  0  0
  1  2  1  0  0  0  0
  1 20  1  0  0  0  0
  1 21  1  0  0  0  0
  1 22  1  0  0  0  0
  2  3  1  0  0  0  0
  3 19  1  0  0  0  0
  3  4  2  0  0  0  0
  4  5  1  0  0  0  0
  4 23  1  0  0  0  0
  5  6  1  0  0  0  0
  5 17  2  0  0  0  0
  6  7  1  0  0  0  0
  6 24  1  0  0  0  0
  7  8  2  0  0  0  0
  7  9  1  0  0  0  0
  9 10  1  0  0  0  0
  9 25  1  0  0  0  0
 10 11  1  0  0  0  0
 10 26  1  0  0  0  0
 10 27  1  0  0  0  0
 11 16  1  0  0  0  0
 11 12  1  0  0  0  0
 11 15  1  0  0  0  0
 12 14  1  0  0  0  0
 12 13  1  0  0  0  0
 12 28  1  0  0  0  0
 13 14  1  0  0  0  0
 13 29  1  0  0  0  0
 13 30  1  0  0  0  0
 14 31  1  0  0  0  0
 14 32  1  0  0  0  0
 15 16  1  0  0  0  0
 15 33  1  0  0  0  0
 15 34  1  0  0  0  0
 16 35  1  0  0  0  0
 16 36  1  0  0  0  0
 17 18  1  0  0  0  0
 18 19  2  0  0  0  0
 18 37  1  0  0  0  0
M  END
> <s_m_source_file>
AV-unprocessed.smi

> <i_m_source_file_index>
2443

> <i_lp_mmshare_version>
43012

> <i_f3d_flags>
0

> <s_epik_input>
W0NIM11PYzFbY0hdYyhuW2NIXW4xKVtOSF1DKD1PKVtOSF1bQ0gyXUMyKFtDSDJdW0NIMl0yKVtDSF0zW0NIMl1bQ0gyXTM=

> <s_epik_cmdline>
J2VwaWtfcHl0aG9uJywgJy1waCcsICc3LjAnLCAnLXRuJywgJzgnLCAnLW1hJywgJzIwMCcsICctbWV0YWxfYmluZGluZycsICctaW1hZScsICc8aW5maWxlLm1hZT4nLCAnLW9tYWUnLCAnPG91dGZpbGUubWFlPic=

> <r_lp_tautomer_probability>
1

> <r_epik_Ionization_Penalty>
2.73859e-05

> <r_epik_Ionization_Penalty_Charging>
0

> <r_epik_Ionization_Penalty_Neutral>
2.73859e-05

> <r_epik_State_Penalty>
-0

> <r_epik_Charging_Adjusted_Penalty>
0

> <i_epik_Tot_Q>
0

> <i_epik_Tot_abs_Q>
0

> <r_epik_Metal_State_Penalty>
-0

> <b_epik_Metal_Only>
0

> <s_lp_Force_Field>
OPLS_2005

> <r_lp_Energy>
26.0575

> <b_lp_Chiralities_Consistent>
1

> <s_lp_Variant>
AV-unprocessed.smi:2443-1

> <Gold.Version>
5.8.1

> <Gold.Id.Protein>
6NUR|6NUR_protein|mol2

> <Gold.PLP.Fitness>
39.6304

> <Gold.PLP.PLP>
-31.6888

> <Gold.PLP.part.hbond>
-2.0000

> <Gold.PLP.part.metal>
0.0000

> <Gold.PLP.part.buried>
-5.2438

> <Gold.PLP.part.nonpolar>
-25.6729

> <Gold.PLP.part.repulsive>
1.6880

> <Gold.PLP.ligand.clash>
0.0000

> <Gold.PLP.ligand.torsion>
1.8090

> <Gold.PLP.Chemscore.Hbond>
2.0000

> <Gold.PLP.Chemscore.CHOScore>
1.0000

> <Gold.PLP.Chemscore.Metal>
0.0000

> <Gold.Chemscore.Hbonds>
donor molecule, donor type, donor heavy atom, donor atom, acceptor molecule, acceptor atom, score
      L1  H     6    24       P1  7948  1.00
      L1  H     9    25       P1  7948  1.00
      L1  C    18    37       P1 10186  1.00

> <Gold.PLP.Chemscore.Internal.Correction>
2.5596

> <Gold.Rescore>
     Score         DG    S(hbond)    S(metal)    S(lipo)     H(rot)  DE(clash)    DE(int)     intcor
     11.10     -14.07       1.95        0.00      58.51       1.86       0.10       2.86       ----

> <Gold.Chemscore.Fitness>
11.1006

> <Gold.Chemscore.DG>
-14.0692

> <Gold.Chemscore.ZeroCoef>
-5.4800

> <Gold.Chemscore.Hbond>
1.9491

> <Gold.Chemscore.Metal>
0.0000

> <Gold.Chemscore.Lipo>
58.5116

> <Gold.Chemscore.Internal_Hbond>
0.0000

> <Gold.Chemscore.DEClash>
0.1049

> <Gold.Chemscore.DEInternal>
2.8638

> <Gold.Chemscore.Rot>
1.8619

> <Gold.Chemscore.Internal.Correction>
   9.000000E+99

> <Gold.Chemscore.Hbonds>
donor molecule, donor type, donor heavy atom, donor atom, acceptor molecule, acceptor atom, score
      L1  H     6    24       P1  7948  0.98
      L1  H     9    25       P1  7948  0.95

> <Gold.Chemscore.Hbond.Weighted>
-6.5098

> <Gold.Chemscore.Metal.Weighted>
-0.0000

> <Gold.Chemscore.Lipo.Weighted>
-6.8459

> <Gold.Chemscore.Internal_Hbond.Weighted>
0.0000

> <Gold.Chemscore.DEClash.Weighted>
0.1049

> <Gold.Chemscore.DEInternal.Weighted>
2.8638

> <Gold.Chemscore.Rot.Weighted>
4.7665

> <Gold.Chemscore.Internal.Correction.Weighted>
   9.000000E+99

> <Gold.Protein.RotatedTorsions>
[ 6907 6896 6895 6894 ] final  145.35 input  -60.11 | X-H torsion
[ 7974 7965 7964 7962 ] final  -64.79 input  175.53 | X-H torsion
[ 8008 7997 7996 7995 ] final  139.95 input   59.86 | X-H torsion
[ 10167 10162 10161 10158 ] final -116.66 input  -65.29 | X-H torsion
[ 10718 10713 10712 10709 ] final -127.19 input   66.30 | X-H torsion
[ 10763 10752 10751 10750 ] final   38.03 input  -60.55 | X-H torsion
[ 11005 11000 10999 10996 ] final  -52.32 input  -57.11 | X-H torsion

> <Gold.Protein.ActiveResidues>
 VAL166  LYS551  ARG553  GLY616  TRP617  ASP618  TYR619  PRO620  LYS621  CYS622 
 ASP623  PHE694  ASN695  SER759  ASP760  ASP761  ALA762  ILE779  LEU786  VAL792 
 PHE793  MET794  SER795  GLU796  ALA797  LYS798  CYS799  TRP800  GLU811  SER814 

> <Gold.Protein.RotatedAtoms>
  152.1820  133.4714  159.4962 H   0  0  0  0  0  0  0  0  0  0  0  0  # atno 6907 bound_to 6896
  150.6936  134.1821  159.4261 H   0  0  0  0  0  0  0  0  0  0  0  0  # atno 6908 bound_to 6896
  151.9732  135.0066  160.0604 H   0  0  0  0  0  0  0  0  0  0  0  0  # atno 6909 bound_to 6896
  145.7624  140.8855  143.0423 H   0  0  0  0  0  0  0  0  0  0  0  0  # atno 7974 bound_to 7965
  156.2984  140.2354  156.4321 H   0  0  0  0  0  0  0  0  0  0  0  0  # atno 8008 bound_to 7997
  154.8261  140.0435  157.1465 H   0  0  0  0  0  0  0  0  0  0  0  0  # atno 8009 bound_to 7997
  154.9260  140.3010  155.5195 H   0  0  0  0  0  0  0  0  0  0  0  0  # atno 8010 bound_to 7997
  140.0768  143.4825  152.1948 H   0  0  0  0  0  0  0  0  0  0  0  0  # atno 10167 bound_to 10162
  156.1834  130.6747  151.0334 H   0  0  0  0  0  0  0  0  0  0  0  0  # atno 10718 bound_to 10713
  153.0015  135.6261  154.2240 H   0  0  0  0  0  0  0  0  0  0  0  0  # atno 10763 bound_to 10752
  154.1982  135.2805  155.3001 H   0  0  0  0  0  0  0  0  0  0  0  0  # atno 10764 bound_to 10752
  154.5705  135.5678  153.7149 H   0  0  0  0  0  0  0  0  0  0  0  0  # atno 10765 bound_to 10752
  141.0918  133.6631  156.4007 H   0  0  0  0  0  0  0  0  0  0  0  0  # atno 11005 bound_to 11000
  144.6828  139.9741  143.7482 LP  0  0  0  0  0  0  0  0  0  0  0  0  # atno 17320 bound_to 7965
  146.0251  139.3285  143.0789 LP  0  0  0  0  0  0  0  0  0  0  0  0  # atno 17321 bound_to 7965
  139.5803  144.7507  151.3657 LP  0  0  0  0  0  0  0  0  0  0  0  0  # atno 17342 bound_to 10162
  140.7098  143.7420  150.7546 LP  0  0  0  0  0  0  0  0  0  0  0  0  # atno 17343 bound_to 10162
  157.6883  131.0818  150.7180 LP  0  0  0  0  0  0  0  0  0  0  0  0  # atno 17370 bound_to 10713
  156.7237  130.4688  149.5516 LP  0  0  0  0  0  0  0  0  0  0  0  0  # atno 17371 bound_to 10713
  140.5234  134.6283  157.5326 LP  0  0  0  0  0  0  0  0  0  0  0  0  # atno 17394 bound_to 11000
  139.9746  134.7237  155.9975 LP  0  0  0  0  0  0  0  0  0  0  0  0  # atno 17395 bound_to 11000

$$$$
