AV-unprocessed.smi:155|AV-procd|sdf|1285|dock10
  -GOLD-   2262018563D 1   1.00000     0.00000
 Structure written by MMmdl.
 64 67  0  0  0  0  0  0  0  0  3 V2000
  144.3478  133.2784  150.5881 C   0  0  0  0  0  0  0  0  0  0  0  0
  145.4106  134.2995  150.4402 N   0  3  0  0  0  0  0  0  0  0  0  0
  144.8696  135.6698  150.5815 C   0  0  0  0  0  0  0  0  0  0  0  0
  146.5779  134.0670  151.3287 C   0  0  0  0  0  0  0  0  0  0  0  0
  146.2424  134.2724  152.8216 C   0  0  0  0  0  0  0  0  0  0  0  0
  147.4298  134.6340  153.6418 N   0  3  2  0  0  0  0  0  0  0  0  0
  148.1596  133.4414  154.1490 C   0  0  0  0  0  0  0  0  0  0  0  0
  149.6786  133.6453  154.0234 C   0  0  0  0  0  0  0  0  0  0  0  0
  150.2857  134.6124  155.0511 C   0  0  0  0  0  0  0  0  0  0  0  0
  149.6012  135.9067  155.0701 N   0  0  0  0  0  0  0  0  0  0  0  0
  150.3178  137.0611  155.0813 C   0  0  0  0  0  0  0  0  0  0  0  0
  151.4887  137.1330  154.3943 N   0  0  0  0  0  0  0  0  0  0  0  0
  152.2131  138.2558  154.4042 C   0  0  0  0  0  0  0  0  0  0  0  0
  151.9569  139.4078  155.0259 N   0  0  0  0  0  0  0  0  0  0  0  0
  150.7813  139.3459  155.7134 C   0  0  0  0  0  0  0  0  0  0  0  0
  149.9078  138.2243  155.7947 C   0  0  0  0  0  0  0  0  0  0  0  0
  148.8030  138.5447  156.5767 N   0  0  0  0  0  0  0  0  0  0  0  0
  149.0173  139.7788  156.9444 C   0  0  0  0  0  0  0  0  0  0  0  0
  150.1812  140.3369  156.4680 N   0  0  0  0  0  0  0  0  0  0  0  0
  150.6682  141.6837  156.7090 C   0  0  0  0  0  0  0  0  0  0  0  0
  151.3503  141.8236  158.0871 C   0  0  1  0  0  0  0  0  0  0  0  0
  152.5458  141.0665  158.0622 O   0  0  0  0  0  0  0  0  0  0  0  0
  151.7193  143.2796  158.4345 C   0  0  1  0  0  0  0  0  0  0  0  0
  150.5293  144.2394  158.5190 C   0  0  0  0  0  0  0  0  0  0  0  0
  151.0062  145.3321  159.4628 C   0  0  0  0  0  0  0  0  0  0  0  0
  152.2323  144.7209  160.1433 C   0  0  0  0  0  0  0  0  0  0  0  0
  152.2174  143.3530  159.7622 O   0  0  0  0  0  0  0  0  0  0  0  0
  148.2715  135.9448  155.6765 C   0  0  0  0  0  0  0  0  0  0  0  0
  147.1210  135.6429  154.6937 C   0  0  0  0  0  0  0  0  0  0  0  0
  143.9548  133.2657  151.6056 H   0  0  0  0  0  0  0  0  0  0  0  0
  144.7177  132.2815  150.3501 H   0  0  0  0  0  0  0  0  0  0  0  0
  143.5202  133.4847  149.9082 H   0  0  0  0  0  0  0  0  0  0  0  0
  144.4858  135.8367  151.5890 H   0  0  0  0  0  0  0  0  0  0  0  0
  144.0570  135.8392  149.8739 H   0  0  0  0  0  0  0  0  0  0  0  0
  145.6401  136.4150  150.3807 H   0  0  0  0  0  0  0  0  0  0  0  0
  146.9106  133.0368  151.1911 H   0  0  0  0  0  0  0  0  0  0  0  0
  147.4047  134.7074  151.0182 H   0  0  0  0  0  0  0  0  0  0  0  0
  145.4674  135.0289  152.9506 H   0  0  0  0  0  0  0  0  0  0  0  0
  145.8347  133.3345  153.2020 H   0  0  0  0  0  0  0  0  0  0  0  0
  147.8643  133.1971  155.1704 H   0  0  0  0  0  0  0  0  0  0  0  0
  147.9036  132.5648  153.5528 H   0  0  0  0  0  0  0  0  0  0  0  0
  150.1738  132.6800  154.1349 H   0  0  0  0  0  0  0  0  0  0  0  0
  149.9179  133.9859  153.0151 H   0  0  0  0  0  0  0  0  0  0  0  0
  150.2342  134.1735  156.0481 H   0  0  0  0  0  0  0  0  0  0  0  0
  151.3457  134.7190  154.8202 H   0  0  0  0  0  0  0  0  0  0  0  0
  153.1299  138.2264  153.8335 H   0  0  0  0  0  0  0  0  0  0  0  0
  148.3257  140.3223  157.5717 H   0  0  0  0  0  0  0  0  0  0  0  0
  151.3592  141.9560  155.9099 H   0  0  0  0  0  0  0  0  0  0  0  0
  149.8173  142.3607  156.6280 H   0  0  0  0  0  0  0  0  0  0  0  0
  150.6928  141.4184  158.8577 H   0  0  0  0  0  0  0  0  0  0  0  0
  152.6107  140.6364  157.2234 H   0  0  0  0  0  0  0  0  0  0  0  0
  152.4625  143.6743  157.7381 H   0  0  0  0  0  0  0  0  0  0  0  0
  150.2291  144.6262  157.5447 H   0  0  0  0  0  0  0  0  0  0  0  0
  149.6692  143.7326  158.9591 H   0  0  0  0  0  0  0  0  0  0  0  0
  151.2794  146.2389  158.9220 H   0  0  0  0  0  0  0  0  0  0  0  0
  150.2298  145.5898  160.1838 H   0  0  0  0  0  0  0  0  0  0  0  0
  153.1477  145.1867  159.7755 H   0  0  0  0  0  0  0  0  0  0  0  0
  152.2077  144.8265  161.2280 H   0  0  0  0  0  0  0  0  0  0  0  0
  148.2516  135.2020  156.4748 H   0  0  0  0  0  0  0  0  0  0  0  0
  148.0899  136.8964  156.1782 H   0  0  0  0  0  0  0  0  0  0  0  0
  146.8487  136.5736  154.1982 H   0  0  0  0  0  0  0  0  0  0  0  0
  146.2433  135.3306  155.2611 H   0  0  0  0  0  0  0  0  0  0  0  0
  145.7487  134.2316  149.4905 H   0  0  0  0  0  0  0  0  0  0  0  0
  148.0757  135.0806  153.0063 H   0  0  0  0  0  0  0  0  0  0  0  0
  1  2  1  0  0  0  0
  1 30  1  0  0  0  0
  1 31  1  0  0  0  0
  1 32  1  0  0  0  0
  2  3  1  0  0  0  0
  2  4  1  0  0  0  0
  2 63  1  0  0  0  0
  3 33  1  0  0  0  0
  3 34  1  0  0  0  0
  3 35  1  0  0  0  0
  4  5  1  0  0  0  0
  4 36  1  0  0  0  0
  4 37  1  0  0  0  0
  5  6  1  0  0  0  0
  5 38  1  0  0  0  0
  5 39  1  0  0  0  0
  6 29  1  0  0  0  0
  6  7  1  0  0  0  0
  6 64  1  0  0  0  0
  7  8  1  0  0  0  0
  7 40  1  0  0  0  0
  7 41  1  0  0  0  0
  8  9  1  0  0  0  0
  8 42  1  0  0  0  0
  8 43  1  0  0  0  0
  9 10  1  0  0  0  0
  9 44  1  0  0  0  0
  9 45  1  0  0  0  0
 10 11  1  0  0  0  0
 10 28  1  0  0  0  0
 11 16  1  0  0  0  0
 11 12  2  0  0  0  0
 12 13  1  0  0  0  0
 13 14  2  0  0  0  0
 13 46  1  0  0  0  0
 14 15  1  0  0  0  0
 15 19  1  0  0  0  0
 15 16  2  0  0  0  0
 16 17  1  0  0  0  0
 17 18  2  0  0  0  0
 18 19  1  0  0  0  0
 18 47  1  0  0  0  0
 19 20  1  0  0  0  0
 20 21  1  0  0  0  0
 20 48  1  0  0  0  0
 20 49  1  0  0  0  0
 21 22  1  0  0  0  0
 21 23  1  0  0  0  0
 21 50  1  0  0  0  0
 22 51  1  0  0  0  0
 23 27  1  0  0  0  0
 23 24  1  0  0  0  0
 23 52  1  0  0  0  0
 24 25  1  0  0  0  0
 24 53  1  0  0  0  0
 24 54  1  0  0  0  0
 25 26  1  0  0  0  0
 25 55  1  0  0  0  0
 25 56  1  0  0  0  0
 26 27  1  0  0  0  0
 26 57  1  0  0  0  0
 26 58  1  0  0  0  0
 28 29  1  0  0  0  0
 28 59  1  0  0  0  0
 28 60  1  0  0  0  0
 29 61  1  0  0  0  0
 29 62  1  0  0  0  0
M  CHG  1   2   1
M  CHG  1   6   1
M  END
> <s_m_source_file>
AV-unprocessed.smi

> <i_m_source_file_index>
155

> <i_lp_mmshare_version>
43012

> <i_f3d_flags>
0

> <s_epik_input>
W0NIM11OKFtDSDNdKVtDSDJdW0NIMl1OMVtDSDJdW0NIMl1bQ0gyXU4oW0NIMl1bQ0gyXTEpYyhuW2NIXW4yKWMoYzIzKW5bY0hdbjNbQ0gyXVtDQEhdKFtPSF0pW0NAQEhdNFtDSDJdW0NIMl1bQ0gyXU80

> <s_epik_cmdline>
J2VwaWtfcHl0aG9uJywgJy1waCcsICc3LjAnLCAnLXRuJywgJzgnLCAnLW1hJywgJzIwMCcsICctbWV0YWxfYmluZGluZycsICctaW1hZScsICc8aW5maWxlLm1hZT4nLCAnLW9tYWUnLCAnPG91dGZpbGUubWFlPic=

> <r_lp_tautomer_probability>
1

> <r_epik_Ionization_Penalty>
3.0333

> <r_epik_Ionization_Penalty_Charging>
3.03317

> <r_epik_Ionization_Penalty_Neutral>
0.000131872

> <r_epik_State_Penalty>
1.99939

> <r_epik_Charging_Adjusted_Penalty>
5.03256

> <i_epik_Tot_Q>
2

> <i_epik_Tot_abs_Q>
2

> <r_epik_Metal_State_Penalty>
2.00021

> <b_epik_Metal_Only>
0

> <s_lp_Force_Field>
OPLS_2005

> <r_lp_Energy>
63.1179

> <b_lp_Chiralities_Consistent>
1

> <s_lp_Variant>
AV-unprocessed.smi:155-19

> <Gold.Version>
5.8.1

> <Gold.Id.Protein>
6NUR|6NUR_protein|mol2

> <Gold.PLP.Fitness>
59.3225

> <Gold.PLP.PLP>
-47.2436

> <Gold.PLP.part.hbond>
-4.4819

> <Gold.PLP.part.metal>
0.0000

> <Gold.PLP.part.buried>
-7.0059

> <Gold.PLP.part.nonpolar>
-35.4028

> <Gold.PLP.part.repulsive>
0.2661

> <Gold.PLP.ligand.clash>
0.0000

> <Gold.PLP.ligand.torsion>
1.1841

> <Gold.PLP.Chemscore.Hbond>
4.7056

> <Gold.PLP.Chemscore.CHOScore>
0.0000

> <Gold.PLP.Chemscore.Metal>
0.0000

> <Gold.Chemscore.Hbonds>
donor molecule, donor type, donor heavy atom, donor atom, acceptor molecule, acceptor atom, score
      L1  H     2    63       P1  7921  1.00
      L1  H     6    64       P1  7948  2.00
      P1  H  7989  7998       L1    14  0.73
      P1  H 10752 10763       L1    12  0.91

> <Gold.PLP.Chemscore.Internal.Correction>
0.3302

> <Gold.Rescore>
     Score         DG    S(hbond)    S(metal)    S(lipo)     H(rot)  DE(clash)    DE(int)     intcor
     15.76     -18.50       2.36        0.00     104.08       2.75       0.16       2.58       ----

> <Gold.Chemscore.Fitness>
15.7584

> <Gold.Chemscore.DG>
-18.4956

> <Gold.Chemscore.ZeroCoef>
-5.4800

> <Gold.Chemscore.Hbond>
2.3581

> <Gold.Chemscore.Metal>
0.0000

> <Gold.Chemscore.Lipo>
104.0840

> <Gold.Chemscore.Internal_Hbond>
0.0000

> <Gold.Chemscore.DEClash>
0.1570

> <Gold.Chemscore.DEInternal>
2.5801

> <Gold.Chemscore.Rot>
2.7493

> <Gold.Chemscore.Internal.Correction>
   9.000000E+99

> <Gold.Chemscore.Hbonds>
donor molecule, donor type, donor heavy atom, donor atom, acceptor molecule, acceptor atom, score
      L1  H     2    63       P1  7921  0.63
      L1  H     6    64       P1  7948  0.97
      P1  H  7989  7998       L1    14  0.21
      P1  H 10752 10763       L1    12  0.30

> <Gold.Chemscore.Hbond.Weighted>
-7.8760

> <Gold.Chemscore.Metal.Weighted>
-0.0000

> <Gold.Chemscore.Lipo.Weighted>
-12.1778

> <Gold.Chemscore.Internal_Hbond.Weighted>
0.0000

> <Gold.Chemscore.DEClash.Weighted>
0.1570

> <Gold.Chemscore.DEInternal.Weighted>
2.5801

> <Gold.Chemscore.Rot.Weighted>
7.0383

> <Gold.Chemscore.Internal.Correction.Weighted>
   9.000000E+99

> <Gold.Protein.RotatedTorsions>
[ 6907 6896 6895 6894 ] final  173.88 input  -60.11 | X-H torsion
[ 7974 7965 7964 7962 ] final  -28.19 input  175.53 | X-H torsion
[ 8008 7997 7996 7995 ] final -107.27 input   59.86 | X-H torsion
[ 10167 10162 10161 10158 ] final   50.46 input  -65.29 | X-H torsion
[ 10718 10713 10712 10709 ] final -106.96 input   66.30 | X-H torsion
[ 10763 10752 10751 10750 ] final   40.95 input  -60.55 | X-H torsion
[ 11005 11000 10999 10996 ] final   31.66 input  -57.11 | X-H torsion

> <Gold.Protein.ActiveResidues>
 VAL166  LYS551  ARG553  GLY616  TRP617  ASP618  TYR619  PRO620  LYS621  CYS622 
 ASP623  PHE694  ASN695  SER759  ASP760  ASP761  ALA762  ILE779  LEU786  VAL792 
 PHE793  MET794  SER795  GLU796  ALA797  LYS798  CYS799  TRP800  GLU811  SER814 

> <Gold.Protein.RotatedAtoms>
  151.7613  133.3334  159.3418 H   0  0  0  0  0  0  0  0  0  0  0  0  # atno 6907 bound_to 6896
  150.7497  134.6103  159.6092 H   0  0  0  0  0  0  0  0  0  0  0  0  # atno 6908 bound_to 6896
  152.3403  134.7144  160.0317 H   0  0  0  0  0  0  0  0  0  0  0  0  # atno 6909 bound_to 6896
  146.1305  140.5250  142.8695 H   0  0  0  0  0  0  0  0  0  0  0  0  # atno 7974 bound_to 7965
  154.9268  140.0406  157.2027 H   0  0  0  0  0  0  0  0  0  0  0  0  # atno 8008 bound_to 7997
  154.8200  140.2882  155.5772 H   0  0  0  0  0  0  0  0  0  0  0  0  # atno 8009 bound_to 7997
  156.2979  140.2520  156.3105 H   0  0  0  0  0  0  0  0  0  0  0  0  # atno 8010 bound_to 7997
  140.2721  144.3253  150.6287 H   0  0  0  0  0  0  0  0  0  0  0  0  # atno 10167 bound_to 10162
  156.0414  130.5639  150.7755 H   0  0  0  0  0  0  0  0  0  0  0  0  # atno 10718 bound_to 10713
  152.9922  135.6176  154.2708 H   0  0  0  0  0  0  0  0  0  0  0  0  # atno 10763 bound_to 10752
  154.2441  135.2787  155.2844 H   0  0  0  0  0  0  0  0  0  0  0  0  # atno 10764 bound_to 10752
  154.5344  135.5779  153.6843 H   0  0  0  0  0  0  0  0  0  0  0  0  # atno 10765 bound_to 10752
  140.2816  134.2967  155.7799 H   0  0  0  0  0  0  0  0  0  0  0  0  # atno 11005 bound_to 11000
  144.7686  140.5586  143.6686 LP  0  0  0  0  0  0  0  0  0  0  0  0  # atno 17320 bound_to 7965
  145.5270  139.1476  143.3520 LP  0  0  0  0  0  0  0  0  0  0  0  0  # atno 17321 bound_to 7965
  140.5881  143.2169  151.7305 LP  0  0  0  0  0  0  0  0  0  0  0  0  # atno 17342 bound_to 10162
  139.4986  144.3981  152.0210 LP  0  0  0  0  0  0  0  0  0  0  0  0  # atno 17343 bound_to 10162
  157.5237  131.0933  151.0046 LP  0  0  0  0  0  0  0  0  0  0  0  0  # atno 17370 bound_to 10713
  157.0370  130.5734  149.5351 LP  0  0  0  0  0  0  0  0  0  0  0  0  # atno 17371 bound_to 10713
  141.2162  133.7529  156.9488 LP  0  0  0  0  0  0  0  0  0  0  0  0  # atno 17394 bound_to 11000
  140.1278  134.9375  157.2295 LP  0  0  0  0  0  0  0  0  0  0  0  0  # atno 17395 bound_to 11000

$$$$
