AV-unprocessed.smi:1560|AV-procd|sdf|6277|dock10
  -GOLD-   22720 6473D 1   1.00000     0.00000
 Structure written by MMmdl.
 48 49  0  0  0  0  0  0  0  0  2 V2000
  142.8889  135.4743  153.3833 C   0  0  0  0  0  0  0  0  0  0  0  0
  143.7140  136.1642  152.2822 C   0  0  0  0  0  0  0  0  0  0  0  0
  145.1357  135.5717  152.0309 C   0  0  1  0  0  0  0  0  0  0  0  0
  145.7004  136.2592  150.7594 C   0  0  0  0  0  0  0  0  0  0  0  0
  146.0713  135.8992  153.2375 C   0  0  0  0  0  0  0  0  0  0  0  0
  146.7546  137.1858  153.1121 N   0  0  0  0  0  0  0  0  0  0  0  0
  146.4981  138.2836  153.8395 C   0  0  0  0  0  0  0  0  0  0  0  0
  145.6675  138.3144  154.7482 O   0  0  0  0  0  0  0  0  0  0  0  0
  147.3054  139.5384  153.4828 C   0  0  0  0  0  0  0  0  0  0  0  0
  148.6062  139.5767  154.1661 N   0  0  0  0  0  0  0  0  0  0  0  0
  149.2712  138.3996  154.4793 C   0  0  0  0  0  0  0  0  0  0  0  0
  150.4670  138.3654  155.1137 C   0  0  0  0  0  0  0  0  0  0  0  0
  151.1296  139.6038  155.5092 C   0  0  0  0  0  0  0  0  0  0  0  0
  152.2125  139.6756  156.0861 O   0  0  0  0  0  0  0  0  0  0  0  0
  150.4284  140.7665  155.1788 N   0  0  0  0  0  0  0  0  0  0  0  0
  149.1956  140.8091  154.5259 C   0  0  0  0  0  0  0  0  0  0  0  0
  148.6599  141.8909  154.2851 O   0  0  0  0  0  0  0  0  0  0  0  0
  145.0396  134.0806  151.8218 N   0  3  0  0  0  0  0  0  0  0  0  0
  144.1491  133.6287  150.7151 C   0  0  0  0  0  0  0  0  0  0  0  0
  143.9903  132.0989  150.7413 C   0  0  0  0  0  0  0  0  0  0  0  0
  145.2655  131.4788  150.6536 O   0  0  0  0  0  0  0  0  0  0  0  0
  146.0974  131.8307  151.7499 C   0  0  0  0  0  0  0  0  0  0  0  0
  146.3362  133.3491  151.7452 C   0  0  0  0  0  0  0  0  0  0  0  0
  150.8481  141.6484  155.4349 H   0  0  0  0  0  0  0  0  0  0  0  0
  141.9146  135.9534  153.4824 H   0  0  0  0  0  0  0  0  0  0  0  0
  143.3769  135.5314  154.3561 H   0  0  0  0  0  0  0  0  0  0  0  0
  142.7089  134.4238  153.1569 H   0  0  0  0  0  0  0  0  0  0  0  0
  143.1284  136.1132  151.3644 H   0  0  0  0  0  0  0  0  0  0  0  0
  143.7776  137.2296  152.5023 H   0  0  0  0  0  0  0  0  0  0  0  0
  145.5665  137.3412  150.7923 H   0  0  0  0  0  0  0  0  0  0  0  0
  145.2095  135.9034  149.8533 H   0  0  0  0  0  0  0  0  0  0  0  0
  146.7709  136.0886  150.6424 H   0  0  0  0  0  0  0  0  0  0  0  0
  145.5237  135.8708  154.1799 H   0  0  0  0  0  0  0  0  0  0  0  0
  146.8533  135.1460  153.3272 H   0  0  0  0  0  0  0  0  0  0  0  0
  147.4601  137.2555  152.3926 H   0  0  0  0  0  0  0  0  0  0  0  0
  147.4377  139.5590  152.4000 H   0  0  0  0  0  0  0  0  0  0  0  0
  146.7366  140.4397  153.7219 H   0  0  0  0  0  0  0  0  0  0  0  0
  148.8168  137.4568  154.2092 H   0  0  0  0  0  0  0  0  0  0  0  0
  150.9354  137.4164  155.3307 H   0  0  0  0  0  0  0  0  0  0  0  0
  143.1541  134.0622  150.7951 H   0  0  0  0  0  0  0  0  0  0  0  0
  144.5588  133.9355  149.7525 H   0  0  0  0  0  0  0  0  0  0  0  0
  143.4772  131.7764  151.6488 H   0  0  0  0  0  0  0  0  0  0  0  0
  143.3810  131.7708  149.8989 H   0  0  0  0  0  0  0  0  0  0  0  0
  145.6447  131.5084  152.6890 H   0  0  0  0  0  0  0  0  0  0  0  0
  147.0456  131.3013  151.6552 H   0  0  0  0  0  0  0  0  0  0  0  0
  146.8721  133.6201  150.8355 H   0  0  0  0  0  0  0  0  0  0  0  0
  146.9852  133.5913  152.5843 H   0  0  0  0  0  0  0  0  0  0  0  0
  144.5971  133.7416  152.6644 H   0  0  0  0  0  0  0  0  0  0  0  0
  1  2  1  0  0  0  0
  1 25  1  0  0  0  0
  1 26  1  0  0  0  0
  1 27  1  0  0  0  0
  2  3  1  0  0  0  0
  2 28  1  0  0  0  0
  2 29  1  0  0  0  0
  3  4  1  0  0  0  0
  3  5  1  0  0  0  0
  3 18  1  0  0  0  0
  4 30  1  0  0  0  0
  4 31  1  0  0  0  0
  4 32  1  0  0  0  0
  5  6  1  0  0  0  0
  5 33  1  0  0  0  0
  5 34  1  0  0  0  0
  6  7  1  0  0  0  0
  6 35  1  0  0  0  0
  7  8  2  0  0  0  0
  7  9  1  0  0  0  0
  9 10  1  0  0  0  0
  9 36  1  0  0  0  0
  9 37  1  0  0  0  0
 10 16  1  0  0  0  0
 10 11  1  0  0  0  0
 11 12  2  0  0  0  0
 11 38  1  0  0  0  0
 12 13  1  0  0  0  0
 12 39  1  0  0  0  0
 13 14  2  0  0  0  0
 13 15  1  0  0  0  0
 15 24  1  0  0  0  0
 15 16  1  0  0  0  0
 16 17  2  0  0  0  0
 18 23  1  0  0  0  0
 18 19  1  0  0  0  0
 18 48  1  0  0  0  0
 19 20  1  0  0  0  0
 19 40  1  0  0  0  0
 19 41  1  0  0  0  0
 20 21  1  0  0  0  0
 20 42  1  0  0  0  0
 20 43  1  0  0  0  0
 21 22  1  0  0  0  0
 22 23  1  0  0  0  0
 22 44  1  0  0  0  0
 22 45  1  0  0  0  0
 23 46  1  0  0  0  0
 23 47  1  0  0  0  0
M  CHG  1  18   1
M  END
> <s_m_source_file>
AV-unprocessed.smi

> <i_m_source_file_index>
1560

> <i_lp_mmshare_version>
43012

> <i_f3d_flags>
0

> <s_epik_input>
W0NIMl0xW0NIMl1PW0NIMl1bQ0gyXU4xW0NAQF0oW0NIM10pKFtDSDJdW0NIM10pW0NIMl1bTkhdQyg9TylbQ0gyXW4yW2NIXVtjSF1jKD1PKVtuSF1jMj1P

> <s_epik_cmdline>
J2VwaWtfcHl0aG9uJywgJy1waCcsICc3LjAnLCAnLXRuJywgJzgnLCAnLW1hJywgJzIwMCcsICctbWV0YWxfYmluZGluZycsICctaW1hZScsICc8aW5maWxlLm1hZT4nLCAnLW9tYWUnLCAnPG91dGZpbGUubWFlPic=

> <r_lp_tautomer_probability>
0.999537

> <r_epik_Ionization_Penalty>
0.523885

> <r_epik_Ionization_Penalty_Charging>
0.523885

> <r_epik_Ionization_Penalty_Neutral>
8.70177e-08

> <r_epik_State_Penalty>
0.572334

> <r_epik_Charging_Adjusted_Penalty>
1.09622

> <i_epik_Tot_Q>
1

> <i_epik_Tot_abs_Q>
1

> <r_epik_Metal_State_Penalty>
0.938906

> <b_epik_Metal_Only>
0

> <s_lp_Force_Field>
OPLS_2005

> <r_lp_Energy>
27.5913

> <b_lp_Chiralities_Consistent>
1

> <s_lp_Variant>
AV-unprocessed.smi:1560-3

> <Gold.Version>
5.8.1

> <Gold.Id.Protein>
6NUR|6NUR_protein|mol2

> <Gold.PLP.Fitness>
40.9759

> <Gold.PLP.PLP>
-35.4726

> <Gold.PLP.part.hbond>
-2.9883

> <Gold.PLP.part.metal>
0.0000

> <Gold.PLP.part.buried>
-3.2123

> <Gold.PLP.part.nonpolar>
-30.8827

> <Gold.PLP.part.repulsive>
2.9438

> <Gold.PLP.ligand.clash>
0.3810

> <Gold.PLP.ligand.torsion>
1.4563

> <Gold.PLP.Chemscore.Hbond>
1.9217

> <Gold.PLP.Chemscore.CHOScore>
0.9460

> <Gold.PLP.Chemscore.Metal>
0.0000

> <Gold.Chemscore.Hbonds>
donor molecule, donor type, donor heavy atom, donor atom, acceptor molecule, acceptor atom, score
      L1  H     6    35       P1  7948  0.74
      P1  H  7997  8009       L1    14  0.62
      P1  H  8011  8017       L1    17  0.13
      L1  C    11    38       P1  7948  0.68

> <Gold.PLP.Chemscore.Internal.Correction>
0.1936

> <Gold.Rescore>
     Score         DG    S(hbond)    S(metal)    S(lipo)     H(rot)  DE(clash)    DE(int)     intcor
     11.09     -13.02       1.91        0.00      65.97       2.56       0.34       1.59       ----

> <Gold.Chemscore.Fitness>
11.0874

> <Gold.Chemscore.DG>
-13.0220

> <Gold.Chemscore.ZeroCoef>
-5.4800

> <Gold.Chemscore.Hbond>
1.9121

> <Gold.Chemscore.Metal>
0.0000

> <Gold.Chemscore.Lipo>
65.9651

> <Gold.Chemscore.Internal_Hbond>
0.0000

> <Gold.Chemscore.DEClash>
0.3409

> <Gold.Chemscore.DEInternal>
1.5937

> <Gold.Chemscore.Rot>
2.5634

> <Gold.Chemscore.Internal.Correction>
   9.000000E+99

> <Gold.Chemscore.Hbonds>
donor molecule, donor type, donor heavy atom, donor atom, acceptor molecule, acceptor atom, score
      L1  H     6    35       P1  7948  0.74
      P1  H  7997  8009       L1    14  0.60
      P1  H  8011  8017       L1    17  0.03

> <Gold.Chemscore.Hbond.Weighted>
-6.3865

> <Gold.Chemscore.Metal.Weighted>
-0.0000

> <Gold.Chemscore.Lipo.Weighted>
-7.7179

> <Gold.Chemscore.Internal_Hbond.Weighted>
0.0000

> <Gold.Chemscore.DEClash.Weighted>
0.3409

> <Gold.Chemscore.DEInternal.Weighted>
1.5937

> <Gold.Chemscore.Rot.Weighted>
6.5624

> <Gold.Chemscore.Internal.Correction.Weighted>
   9.000000E+99

> <Gold.Protein.RotatedTorsions>
[ 6907 6896 6895 6894 ] final   51.10 input  -60.11 | X-H torsion
[ 7974 7965 7964 7962 ] final -167.64 input  175.53 | X-H torsion
[ 8008 7997 7996 7995 ] final -153.99 input   59.86 | X-H torsion
[ 10167 10162 10161 10158 ] final   25.06 input  -65.29 | X-H torsion
[ 10718 10713 10712 10709 ] final -127.80 input   66.30 | X-H torsion
[ 10763 10752 10751 10750 ] final   69.65 input  -60.55 | X-H torsion
[ 11005 11000 10999 10996 ] final   16.05 input  -57.11 | X-H torsion

> <Gold.Protein.ActiveResidues>
 VAL166  LYS551  ARG553  GLY616  TRP617  ASP618  TYR619  PRO620  LYS621  CYS622 
 ASP623  PHE694  ASN695  SER759  ASP760  ASP761  ALA762  ILE779  LEU786  VAL792 
 PHE793  MET794  SER795  GLU796  ALA797  LYS798  CYS799  TRP800  GLU811  SER814 

> <Gold.Protein.RotatedAtoms>
  152.3090  134.7521  160.0340 H   0  0  0  0  0  0  0  0  0  0  0  0  # atno 6907 bound_to 6896
  151.8008  133.3364  159.3534 H   0  0  0  0  0  0  0  0  0  0  0  0  # atno 6908 bound_to 6896
  150.7310  134.5685  159.5923 H   0  0  0  0  0  0  0  0  0  0  0  0  # atno 6909 bound_to 6896
  144.7219  140.2489  143.6281 H   0  0  0  0  0  0  0  0  0  0  0  0  # atno 7974 bound_to 7965
  155.6794  140.0742  157.2490 H   0  0  0  0  0  0  0  0  0  0  0  0  # atno 8008 bound_to 7997
  154.4108  140.1684  156.2018 H   0  0  0  0  0  0  0  0  0  0  0  0  # atno 8009 bound_to 7997
  155.9548  140.3374  155.6442 H   0  0  0  0  0  0  0  0  0  0  0  0  # atno 8010 bound_to 7997
  140.5137  144.0118  150.6384 H   0  0  0  0  0  0  0  0  0  0  0  0  # atno 10167 bound_to 10162
  156.1891  130.6783  151.0401 H   0  0  0  0  0  0  0  0  0  0  0  0  # atno 10718 bound_to 10713
  153.0299  135.5202  154.7321 H   0  0  0  0  0  0  0  0  0  0  0  0  # atno 10763 bound_to 10752
  154.6346  135.2904  155.0179 H   0  0  0  0  0  0  0  0  0  0  0  0  # atno 10764 bound_to 10752
  154.1118  135.6621  153.4939 H   0  0  0  0  0  0  0  0  0  0  0  0  # atno 10765 bound_to 10752
  140.4514  134.1220  155.7703 H   0  0  0  0  0  0  0  0  0  0  0  0  # atno 11005 bound_to 11000
  145.8247  139.2059  143.1917 LP  0  0  0  0  0  0  0  0  0  0  0  0  # atno 17320 bound_to 7965
  146.0483  140.8095  142.9794 LP  0  0  0  0  0  0  0  0  0  0  0  0  # atno 17321 bound_to 7965
  140.3447  143.2998  152.0550 LP  0  0  0  0  0  0  0  0  0  0  0  0  # atno 17342 bound_to 10162
  139.4903  144.6417  151.6863 LP  0  0  0  0  0  0  0  0  0  0  0  0  # atno 17343 bound_to 10162
  157.6917  131.0807  150.7087 LP  0  0  0  0  0  0  0  0  0  0  0  0  # atno 17370 bound_to 10713
  156.7143  130.4661  149.5539 LP  0  0  0  0  0  0  0  0  0  0  0  0  # atno 17371 bound_to 10713
  141.1662  133.8698  157.1707 LP  0  0  0  0  0  0  0  0  0  0  0  0  # atno 17394 bound_to 11000
  140.0004  135.0030  157.0177 LP  0  0  0  0  0  0  0  0  0  0  0  0  # atno 17395 bound_to 11000

$$$$
