AV-unprocessed.smi:134|AV-procd|sdf|1167|dock9
  -GOLD-   2262018313D 1   1.00000     0.00000
 Structure written by MMmdl.
 51 54  0  0  0  0  0  0  0  0  1 V2000
  151.1707  137.2065  159.8806 O   0  0  0  0  0  0  0  0  0  0  0  0
  151.2388  137.4252  158.6701 C   0  0  0  0  0  0  0  0  0  0  0  0
  152.3653  138.2987  158.0956 C   0  0  0  0  0  0  0  0  0  0  0  0
  152.6493  139.5019  158.9087 N   0  0  0  0  0  0  0  0  0  0  0  0
  153.5827  139.3939  159.9693 C   0  0  0  0  0  0  0  0  0  0  0  0
  154.1306  138.3224  160.2315 O   0  0  0  0  0  0  0  0  0  0  0  0
  153.8466  140.6253  160.7033 C   0  0  0  0  0  0  0  0  0  0  0  0
  154.7303  140.6209  161.7158 F   0  0  0  0  0  0  0  0  0  0  0  0
  153.2191  141.7742  160.3792 C   0  0  0  0  0  0  0  0  0  0  0  0
  152.2943  141.8638  159.3570 N   0  0  0  0  0  0  0  0  0  0  0  0
  151.6826  143.2119  159.0417 C   0  0  2  0  0  0  0  0  0  0  0  0
  152.6917  144.2426  158.5134 C   0  0  0  0  0  0  0  0  0  0  0  0
  152.1424  145.5209  159.1084 C   0  0  0  0  0  0  0  0  0  0  0  0
  151.6068  145.0396  160.4528 C   0  0  0  0  0  0  0  0  0  0  0  0
  151.0966  143.7330  160.1994 O   0  0  0  0  0  0  0  0  0  0  0  0
  152.0113  140.7205  158.5728 C   0  0  0  0  0  0  0  0  0  0  0  0
  151.2385  140.7796  157.6156 O   0  0  0  0  0  0  0  0  0  0  0  0
  150.3655  136.9484  157.7660 N   0  0  0  0  0  0  0  0  0  0  0  0
  149.2119  136.1537  158.0075 C   0  0  0  0  0  0  0  0  0  0  0  0
  148.6281  136.0563  159.2938 C   0  0  0  0  0  0  0  0  0  0  0  0
  147.4981  135.2435  159.5046 C   0  0  0  0  0  0  0  0  0  0  0  0
  146.9457  134.5124  158.4370 C   0  0  0  0  0  0  0  0  0  0  0  0
  147.5286  134.5890  157.1586 C   0  0  0  0  0  0  0  0  0  0  0  0
  148.6600  135.4010  156.9420 C   0  0  0  0  0  0  0  0  0  0  0  0
  149.3539  135.4717  155.3165 S   0  0  0  0  0  0  0  0  0  0  0  0
  149.4299  133.7522  154.9376 C   0  0  0  0  0  0  0  0  0  0  0  0
  150.2065  132.8893  155.7360 C   0  0  0  0  0  0  0  0  0  0  0  0
  150.2555  131.5133  155.4384 C   0  0  0  0  0  0  0  0  0  0  0  0
  149.5304  131.0021  154.3435 C   0  0  0  0  0  0  0  0  0  0  0  0
  149.5883  129.3162  153.9814 Cl  0  0  0  0  0  0  0  0  0  0  0  0
  148.7581  131.8674  153.5439 C   0  0  0  0  0  0  0  0  0  0  0  0
  148.7089  133.2434  153.8395 C   0  0  0  0  0  0  0  0  0  0  0  0
  153.2541  137.6762  157.9829 H   0  0  0  0  0  0  0  0  0  0  0  0
  152.1107  138.5794  157.0720 H   0  0  0  0  0  0  0  0  0  0  0  0
  153.4553  142.6587  160.9526 H   0  0  0  0  0  0  0  0  0  0  0  0
  150.8871  143.0208  158.3203 H   0  0  0  0  0  0  0  0  0  0  0  0
  153.6972  144.0490  158.8837 H   0  0  0  0  0  0  0  0  0  0  0  0
  152.7149  144.2432  157.4235 H   0  0  0  0  0  0  0  0  0  0  0  0
  152.8919  146.3069  159.2036 H   0  0  0  0  0  0  0  0  0  0  0  0
  151.3247  145.8989  158.4934 H   0  0  0  0  0  0  0  0  0  0  0  0
  152.4114  144.9793  161.1860 H   0  0  0  0  0  0  0  0  0  0  0  0
  150.8354  145.6965  160.8549 H   0  0  0  0  0  0  0  0  0  0  0  0
  150.4714  137.2878  156.8208 H   0  0  0  0  0  0  0  0  0  0  0  0
  149.0437  136.5915  160.1344 H   0  0  0  0  0  0  0  0  0  0  0  0
  147.0581  135.1777  160.4886 H   0  0  0  0  0  0  0  0  0  0  0  0
  146.0790  133.8888  158.5996 H   0  0  0  0  0  0  0  0  0  0  0  0
  147.1040  134.0231  156.3423 H   0  0  0  0  0  0  0  0  0  0  0  0
  150.7597  133.2781  156.5783 H   0  0  0  0  0  0  0  0  0  0  0  0
  150.8484  130.8511  156.0519 H   0  0  0  0  0  0  0  0  0  0  0  0
  148.2026  131.4773  152.7039 H   0  0  0  0  0  0  0  0  0  0  0  0
  148.1167  133.9038  153.2241 H   0  0  0  0  0  0  0  0  0  0  0  0
  1  2  2  0  0  0  0
  2  3  1  0  0  0  0
  2 18  1  0  0  0  0
  3  4  1  0  0  0  0
  3 33  1  0  0  0  0
  3 34  1  0  0  0  0
  4 16  1  0  0  0  0
  4  5  1  0  0  0  0
  5  6  2  0  0  0  0
  5  7  1  0  0  0  0
  7  8  1  0  0  0  0
  7  9  2  0  0  0  0
  9 10  1  0  0  0  0
  9 35  1  0  0  0  0
 10 11  1  0  0  0  0
 10 16  1  0  0  0  0
 11 15  1  0  0  0  0
 11 12  1  0  0  0  0
 11 36  1  0  0  0  0
 12 13  1  0  0  0  0
 12 37  1  0  0  0  0
 12 38  1  0  0  0  0
 13 14  1  0  0  0  0
 13 39  1  0  0  0  0
 13 40  1  0  0  0  0
 14 15  1  0  0  0  0
 14 41  1  0  0  0  0
 14 42  1  0  0  0  0
 16 17  2  0  0  0  0
 18 19  1  0  0  0  0
 18 43  1  0  0  0  0
 19 24  1  0  0  0  0
 19 20  2  0  0  0  0
 20 21  1  0  0  0  0
 20 44  1  0  0  0  0
 21 22  2  0  0  0  0
 21 45  1  0  0  0  0
 22 23  1  0  0  0  0
 22 46  1  0  0  0  0
 23 24  2  0  0  0  0
 23 47  1  0  0  0  0
 24 25  1  0  0  0  0
 25 26  1  0  0  0  0
 26 32  1  0  0  0  0
 26 27  2  0  0  0  0
 27 28  1  0  0  0  0
 27 48  1  0  0  0  0
 28 29  2  0  0  0  0
 28 49  1  0  0  0  0
 29 30  1  0  0  0  0
 29 31  1  0  0  0  0
 31 32  2  0  0  0  0
 31 50  1  0  0  0  0
 32 51  1  0  0  0  0
M  END
> <s_m_source_file>
AV-unprocessed.smi

> <i_m_source_file_index>
134

> <i_lp_mmshare_version>
43012

> <i_f3d_flags>
0

> <s_epik_input>
TzFbQ0gyXVtDSDJdW0NIMl1bQ0BIXTFuKGMyPU8pW2NIXWMoRiljKD1PKW4yW0NIMl1DKD1PKVtOSF1jM1tjSF1bY0hdW2NIXVtjSF1jM1NjNFtjSF1bY0hdYyhDbClbY0hdW2NIXTQ=

> <s_epik_cmdline>
J2VwaWtfcHl0aG9uJywgJy1waCcsICc3LjAnLCAnLXRuJywgJzgnLCAnLW1hJywgJzIwMCcsICctbWV0YWxfYmluZGluZycsICctaW1hZScsICc8aW5maWxlLm1hZT4nLCAnLW9tYWUnLCAnPG91dGZpbGUubWFlPic=

> <r_lp_tautomer_probability>
1

> <r_epik_Ionization_Penalty>
2.01717e-06

> <r_epik_Ionization_Penalty_Charging>
3.88729e-08

> <r_epik_Ionization_Penalty_Neutral>
1.9783e-06

> <r_epik_State_Penalty>
-0

> <r_epik_Charging_Adjusted_Penalty>
3.88729e-08

> <i_epik_Tot_Q>
0

> <i_epik_Tot_abs_Q>
0

> <r_epik_Metal_State_Penalty>
-0

> <b_epik_Metal_Only>
0

> <s_epik_Chemistry_Notes>
This compound contains an acetal/aminal-like group ( X-CH(R)-Y where X, Y are N, S, or O) that may be acid/base labile, releasing an aldehyde.

> <s_lp_Force_Field>
OPLS_2005

> <r_lp_Energy>
29.8469

> <b_lp_Chiralities_Consistent>
1

> <s_lp_Variant>
AV-unprocessed.smi:134-1

> <Gold.Version>
5.8.1

> <Gold.Id.Protein>
6NUR|6NUR_protein|mol2

> <Gold.PLP.Fitness>
59.4674

> <Gold.PLP.PLP>
-58.3104

> <Gold.PLP.part.hbond>
-0.9973

> <Gold.PLP.part.metal>
0.0000

> <Gold.PLP.part.buried>
-7.2103

> <Gold.PLP.part.nonpolar>
-50.6569

> <Gold.PLP.part.repulsive>
0.1452

> <Gold.PLP.ligand.clash>
0.0000

> <Gold.PLP.ligand.torsion>
0.9230

> <Gold.PLP.Chemscore.Hbond>
0.9913

> <Gold.PLP.Chemscore.CHOScore>
0.0000

> <Gold.PLP.Chemscore.Metal>
0.0000

> <Gold.Chemscore.Hbonds>
donor molecule, donor type, donor heavy atom, donor atom, acceptor molecule, acceptor atom, score
      P1  H  6896  6907       L1     1  0.94

> <Gold.PLP.Chemscore.Internal.Correction>
0.0292

> <Gold.Rescore>
     Score         DG    S(hbond)    S(metal)    S(lipo)     H(rot)  DE(clash)    DE(int)     intcor
     15.40     -17.77       0.94        0.00     121.06       1.95       0.14       2.24       ----

> <Gold.Chemscore.Fitness>
15.3996

> <Gold.Chemscore.DG>
-17.7732

> <Gold.Chemscore.ZeroCoef>
-5.4800

> <Gold.Chemscore.Hbond>
0.9384

> <Gold.Chemscore.Metal>
0.0000

> <Gold.Chemscore.Lipo>
121.0564

> <Gold.Chemscore.Internal_Hbond>
0.0000

> <Gold.Chemscore.DEClash>
0.1354

> <Gold.Chemscore.DEInternal>
2.2382

> <Gold.Chemscore.Rot>
1.9549

> <Gold.Chemscore.Internal.Correction>
   9.000000E+99

> <Gold.Chemscore.Hbonds>
donor molecule, donor type, donor heavy atom, donor atom, acceptor molecule, acceptor atom, score
      P1  H  6896  6907       L1     1  0.31

> <Gold.Chemscore.Hbond.Weighted>
-3.1343

> <Gold.Chemscore.Metal.Weighted>
-0.0000

> <Gold.Chemscore.Lipo.Weighted>
-14.1636

> <Gold.Chemscore.Internal_Hbond.Weighted>
0.0000

> <Gold.Chemscore.DEClash.Weighted>
0.1354

> <Gold.Chemscore.DEInternal.Weighted>
2.2382

> <Gold.Chemscore.Rot.Weighted>
5.0046

> <Gold.Chemscore.Internal.Correction.Weighted>
   9.000000E+99

> <Gold.Protein.RotatedTorsions>
[ 6907 6896 6895 6894 ] final  -13.21 input  -60.11 | X-H torsion
[ 7974 7965 7964 7962 ] final   56.90 input  175.53 | X-H torsion
[ 8008 7997 7996 7995 ] final    2.42 input   59.86 | X-H torsion
[ 10167 10162 10161 10158 ] final   26.25 input  -65.29 | X-H torsion
[ 10718 10713 10712 10709 ] final  101.24 input   66.30 | X-H torsion
[ 10763 10752 10751 10750 ] final  -34.03 input  -60.55 | X-H torsion
[ 11005 11000 10999 10996 ] final   -1.00 input  -57.11 | X-H torsion

> <Gold.Protein.ActiveResidues>
 VAL166  LYS551  ARG553  GLY616  TRP617  ASP618  TYR619  PRO620  LYS621  CYS622 
 ASP623  PHE694  ASN695  SER759  ASP760  ASP761  ALA762  ILE779  LEU786  VAL792 
 PHE793  MET794  SER795  GLU796  ALA797  LYS798  CYS799  TRP800  GLU811  SER814 

> <Gold.Protein.RotatedAtoms>
  151.3585  135.0899  159.9426 H   0  0  0  0  0  0  0  0  0  0  0  0  # atno 6907 bound_to 6896
  152.5168  133.9282  159.7578 H   0  0  0  0  0  0  0  0  0  0  0  0  # atno 6908 bound_to 6896
  150.9671  133.6328  159.2773 H   0  0  0  0  0  0  0  0  0  0  0  0  # atno 6909 bound_to 6896
  145.9348  139.3838  143.0399 H   0  0  0  0  0  0  0  0  0  0  0  0  # atno 7974 bound_to 7965
  154.6914  140.2654  155.6809 H   0  0  0  0  0  0  0  0  0  0  0  0  # atno 8008 bound_to 7997
  156.2733  140.2790  156.1417 H   0  0  0  0  0  0  0  0  0  0  0  0  # atno 8009 bound_to 7997
  155.0891  140.0373  157.2653 H   0  0  0  0  0  0  0  0  0  0  0  0  # atno 8010 bound_to 7997
  140.5039  144.0271  150.6344 H   0  0  0  0  0  0  0  0  0  0  0  0  # atno 10167 bound_to 10162
  157.6834  131.0721  150.5223 H   0  0  0  0  0  0  0  0  0  0  0  0  # atno 10718 bound_to 10713
  153.8399  135.6858  153.4804 H   0  0  0  0  0  0  0  0  0  0  0  0  # atno 10763 bound_to 10752
  153.1460  135.4638  154.9564 H   0  0  0  0  0  0  0  0  0  0  0  0  # atno 10764 bound_to 10752
  154.7849  135.3281  154.7854 H   0  0  0  0  0  0  0  0  0  0  0  0  # atno 10765 bound_to 10752
  140.6424  133.9477  155.8334 H   0  0  0  0  0  0  0  0  0  0  0  0  # atno 11005 bound_to 11000
  145.8378  140.9597  143.0815 LP  0  0  0  0  0  0  0  0  0  0  0  0  # atno 17320 bound_to 7965
  144.6770  140.0245  143.7483 LP  0  0  0  0  0  0  0  0  0  0  0  0  # atno 17321 bound_to 7965
  140.3574  143.2927  152.0421 LP  0  0  0  0  0  0  0  0  0  0  0  0  # atno 17342 bound_to 10162
  139.4879  144.6328  151.7035 LP  0  0  0  0  0  0  0  0  0  0  0  0  # atno 17343 bound_to 10162
  156.5536  130.4238  149.6096 LP  0  0  0  0  0  0  0  0  0  0  0  0  # atno 17370 bound_to 10713
  156.2881  130.7109  151.1951 LP  0  0  0  0  0  0  0  0  0  0  0  0  # atno 17371 bound_to 10713
  141.0597  134.0365  157.3675 LP  0  0  0  0  0  0  0  0  0  0  0  0  # atno 17394 bound_to 11000
  139.9075  135.0183  156.7550 LP  0  0  0  0  0  0  0  0  0  0  0  0  # atno 17395 bound_to 11000

$$$$
