AV-unprocessed.smi:2505|AV-procd|sdf|9855|dock2
  -GOLD-   2272013483D 1   1.00000     0.00000
 Structure written by MMmdl.
 48 52  0  0  0  0  0  0  0  0  1 V2000
  145.9115  138.8008  153.5431 O   0  0  0  0  0  0  0  0  0  0  0  0
  146.7448  137.9554  153.2249 C   0  0  0  0  0  0  0  0  0  0  0  0
  148.0527  138.0071  153.5422 N   0  0  0  0  0  0  0  0  0  0  0  0
  148.7389  138.9804  154.3150 C   0  0  0  0  0  0  0  0  0  0  0  0
  148.1940  139.6752  155.4230 C   0  0  0  0  0  0  0  0  0  0  0  0
  148.9184  140.5781  156.1193 N   0  0  0  0  0  0  0  0  0  0  0  0
  150.1728  140.7924  155.7131 C   0  0  0  0  0  0  0  0  0  0  0  0
  150.9803  141.7682  156.5116 C   0  0  0  0  0  0  0  0  0  0  0  0
  151.4521  141.4249  157.9100 C   0  0  0  0  0  0  0  0  0  0  0  0
  150.3838  142.4649  157.7179 C   0  0  0  0  0  0  0  0  0  0  0  0
  150.7977  140.1814  154.7027 N   0  0  0  0  0  0  0  0  0  0  0  0
  150.0819  139.2762  154.0020 C   0  0  0  0  0  0  0  0  0  0  0  0
  146.4104  136.8991  152.4644 N   0  0  0  0  0  0  0  0  0  0  0  0
  145.0807  136.5498  151.9484 C   0  0  2  0  0  0  0  0  0  0  0  0
  144.0243  136.3077  153.0546 C   0  0  2  0  0  0  0  0  0  0  0  0
  144.2399  136.6778  154.5026 C   0  0  0  0  0  0  0  0  0  0  0  0
  144.7219  135.3635  155.1239 C   0  0  0  0  0  0  0  0  0  0  0  0
  145.1888  134.5865  154.0234 O   0  0  0  0  0  0  0  0  0  0  0  0
  144.3147  134.8212  152.9226 C   0  0  2  0  0  0  0  0  0  0  0  0
  144.9844  135.0571  151.5537 C   0  0  0  0  0  0  0  0  0  0  0  0
  146.2466  134.2559  151.2322 C   0  0  0  0  0  0  0  0  0  0  0  0
  145.7881  132.9583  150.5647 C   0  0  0  0  0  0  0  0  0  0  0  0
  144.4285  133.2795  149.9373 C   0  0  0  0  0  0  0  0  0  0  0  0
  144.1130  134.7230  150.3432 C   0  0  0  0  0  0  0  0  0  0  0  0
  148.6319  137.2846  153.1402 H   0  0  0  0  0  0  0  0  0  0  0  0
  147.1908  139.5085  155.7823 H   0  0  0  0  0  0  0  0  0  0  0  0
  151.6534  142.3388  155.8747 H   0  0  0  0  0  0  0  0  0  0  0  0
  151.1487  140.4670  158.3283 H   0  0  0  0  0  0  0  0  0  0  0  0
  152.4418  141.7688  158.2032 H   0  0  0  0  0  0  0  0  0  0  0  0
  150.6583  143.5047  157.8825 H   0  0  0  0  0  0  0  0  0  0  0  0
  149.3695  142.1991  158.0093 H   0  0  0  0  0  0  0  0  0  0  0  0
  150.5875  138.7853  153.1829 H   0  0  0  0  0  0  0  0  0  0  0  0
  147.1665  136.2996  152.1662 H   0  0  0  0  0  0  0  0  0  0  0  0
  144.7252  137.2073  151.1532 H   0  0  0  0  0  0  0  0  0  0  0  0
  143.0240  136.5432  152.6878 H   0  0  0  0  0  0  0  0  0  0  0  0
  144.9799  137.4674  154.6238 H   0  0  0  0  0  0  0  0  0  0  0  0
  143.3217  137.0211  154.9800 H   0  0  0  0  0  0  0  0  0  0  0  0
  145.5045  135.5129  155.8678 H   0  0  0  0  0  0  0  0  0  0  0  0
  143.8925  134.8388  155.6005 H   0  0  0  0  0  0  0  0  0  0  0  0
  143.4260  134.1886  152.9258 H   0  0  0  0  0  0  0  0  0  0  0  0
  146.8737  134.8157  150.5367 H   0  0  0  0  0  0  0  0  0  0  0  0
  146.8575  134.0538  152.1125 H   0  0  0  0  0  0  0  0  0  0  0  0
  146.5107  132.6038  149.8292 H   0  0  0  0  0  0  0  0  0  0  0  0
  145.6708  132.1755  151.3153 H   0  0  0  0  0  0  0  0  0  0  0  0
  144.4453  133.1700  148.8524 H   0  0  0  0  0  0  0  0  0  0  0  0
  143.6696  132.5988  150.3248 H   0  0  0  0  0  0  0  0  0  0  0  0
  143.0492  134.8550  150.5438 H   0  0  0  0  0  0  0  0  0  0  0  0
  144.3586  135.3893  149.5152 H   0  0  0  0  0  0  0  0  0  0  0  0
  1  2  2  0  0  0  0
  2  3  1  0  0  0  0
  2 13  1  0  0  0  0
  3  4  1  0  0  0  0
  3 25  1  0  0  0  0
  4 12  1  0  0  0  0
  4  5  2  0  0  0  0
  5  6  1  0  0  0  0
  5 26  1  0  0  0  0
  6  7  2  0  0  0  0
  7  8  1  0  0  0  0
  7 11  1  0  0  0  0
  8 10  1  0  0  0  0
  8  9  1  0  0  0  0
  8 27  1  0  0  0  0
  9 10  1  0  0  0  0
  9 28  1  0  0  0  0
  9 29  1  0  0  0  0
 10 30  1  0  0  0  0
 10 31  1  0  0  0  0
 11 12  2  0  0  0  0
 12 32  1  0  0  0  0
 13 14  1  0  0  0  0
 13 33  1  0  0  0  0
 14 20  1  0  0  0  0
 14 15  1  0  0  0  0
 14 34  1  0  0  0  0
 15 19  1  0  0  0  0
 15 16  1  0  0  0  0
 15 35  1  0  0  0  0
 16 17  1  0  0  0  0
 16 36  1  0  0  0  0
 16 37  1  0  0  0  0
 17 18  1  0  0  0  0
 17 38  1  0  0  0  0
 17 39  1  0  0  0  0
 18 19  1  0  0  0  0
 19 20  1  0  0  0  0
 19 40  1  0  0  0  0
 20 24  1  0  0  0  0
 20 21  1  0  0  0  0
 21 22  1  0  0  0  0
 21 41  1  0  0  0  0
 21 42  1  0  0  0  0
 22 23  1  0  0  0  0
 22 43  1  0  0  0  0
 22 44  1  0  0  0  0
 23 24  1  0  0  0  0
 23 45  1  0  0  0  0
 23 46  1  0  0  0  0
 24 47  1  0  0  0  0
 24 48  1  0  0  0  0
M  END
> <s_m_source_file>
AV-unprocessed.smi

> <i_m_source_file_index>
2505

> <i_lp_mmshare_version>
43012

> <i_f3d_flags>
0

> <s_epik_input>
W0NIMl0xW0NIMl1bQ0hdMWMobltjSF0yKW5bY0hdYzJbTkhdQyg9TylbTkhdW0NAQEhdM1tDQEBIXShbQ0gyXVtDSDJdTzQpW0NASF00QzM1W0NIMl1bQ0gyXVtDSDJdW0NIMl01

> <s_epik_cmdline>
J2VwaWtfcHl0aG9uJywgJy1waCcsICc3LjAnLCAnLXRuJywgJzgnLCAnLW1hJywgJzIwMCcsICctbWV0YWxfYmluZGluZycsICctaW1hZScsICc8aW5maWxlLm1hZT4nLCAnLW9tYWUnLCAnPG91dGZpbGUubWFlPic=

> <r_lp_tautomer_probability>
1

> <r_epik_Ionization_Penalty>
2.6075e-05

> <r_epik_Ionization_Penalty_Charging>
0

> <r_epik_Ionization_Penalty_Neutral>
2.6075e-05

> <r_epik_State_Penalty>
-0

> <r_epik_Charging_Adjusted_Penalty>
0

> <i_epik_Tot_Q>
0

> <i_epik_Tot_abs_Q>
0

> <r_epik_Metal_State_Penalty>
-0

> <b_epik_Metal_Only>
0

> <s_lp_Force_Field>
OPLS_2005

> <r_lp_Energy>
63.7277

> <b_lp_Chiralities_Consistent>
1

> <s_lp_Variant>
AV-unprocessed.smi:2505-3

> <Gold.Version>
5.8.1

> <Gold.Id.Protein>
6NUR|6NUR_protein|mol2

> <Gold.PLP.Fitness>
41.8124

> <Gold.PLP.PLP>
-32.2796

> <Gold.PLP.part.hbond>
-3.0000

> <Gold.PLP.part.metal>
0.0000

> <Gold.PLP.part.buried>
-2.8628

> <Gold.PLP.part.nonpolar>
-26.9481

> <Gold.PLP.part.repulsive>
0.9493

> <Gold.PLP.ligand.clash>
0.0000

> <Gold.PLP.ligand.torsion>
0.4994

> <Gold.PLP.Chemscore.Hbond>
2.9120

> <Gold.PLP.Chemscore.CHOScore>
0.4928

> <Gold.PLP.Chemscore.Metal>
0.0000

> <Gold.Chemscore.Hbonds>
donor molecule, donor type, donor heavy atom, donor atom, acceptor molecule, acceptor atom, score
      L1  H     3    25       P1  7948  0.99
      L1  H    13    33       P1  7948  0.90
      P1  H  7989  7998       L1    11  1.00
      L1  C    12    32       P1  7957  0.42

> <Gold.PLP.Chemscore.Internal.Correction>
0.3173

> <Gold.Rescore>
     Score         DG    S(hbond)    S(metal)    S(lipo)     H(rot)  DE(clash)    DE(int)     intcor
     16.59     -20.30       2.32        0.00      86.08       1.17       1.26       2.45       ----

> <Gold.Chemscore.Fitness>
16.5884

> <Gold.Chemscore.DG>
-20.2954

> <Gold.Chemscore.ZeroCoef>
-5.4800

> <Gold.Chemscore.Hbond>
2.3206

> <Gold.Chemscore.Metal>
0.0000

> <Gold.Chemscore.Lipo>
86.0773

> <Gold.Chemscore.Internal_Hbond>
0.0000

> <Gold.Chemscore.DEClash>
1.2583

> <Gold.Chemscore.DEInternal>
2.4487

> <Gold.Chemscore.Rot>
1.1744

> <Gold.Chemscore.Internal.Correction>
   9.000000E+99

> <Gold.Chemscore.Hbonds>
donor molecule, donor type, donor heavy atom, donor atom, acceptor molecule, acceptor atom, score
      L1  H     3    25       P1  7948  0.93
      L1  H    13    33       P1  7948  0.88
      P1  H  7989  7998       L1    11  0.25

> <Gold.Chemscore.Hbond.Weighted>
-7.7508

> <Gold.Chemscore.Metal.Weighted>
-0.0000

> <Gold.Chemscore.Lipo.Weighted>
-10.0710

> <Gold.Chemscore.Internal_Hbond.Weighted>
0.0000

> <Gold.Chemscore.DEClash.Weighted>
1.2583

> <Gold.Chemscore.DEInternal.Weighted>
2.4487

> <Gold.Chemscore.Rot.Weighted>
3.0064

> <Gold.Chemscore.Internal.Correction.Weighted>
   9.000000E+99

> <Gold.Protein.RotatedTorsions>
[ 6907 6896 6895 6894 ] final  -43.57 input  -60.11 | X-H torsion
[ 7974 7965 7964 7962 ] final  -69.12 input  175.53 | X-H torsion
[ 8008 7997 7996 7995 ] final  -28.84 input   59.86 | X-H torsion
[ 10167 10162 10161 10158 ] final   83.21 input  -65.29 | X-H torsion
[ 10718 10713 10712 10709 ] final   14.10 input   66.30 | X-H torsion
[ 10763 10752 10751 10750 ] final   51.84 input  -60.55 | X-H torsion
[ 11005 11000 10999 10996 ] final   33.44 input  -57.11 | X-H torsion

> <Gold.Protein.ActiveResidues>
 VAL166  LYS551  ARG553  GLY616  TRP617  ASP618  TYR619  PRO620  LYS621  CYS622 
 ASP623  PHE694  ASN695  SER759  ASP760  ASP761  ALA762  ILE779  LEU786  VAL792 
 PHE793  MET794  SER795  GLU796  ALA797  LYS798  CYS799  TRP800  GLU811  SER814 

> <Gold.Protein.RotatedAtoms>
  150.9424  134.8832  159.7620 H   0  0  0  0  0  0  0  0  0  0  0  0  # atno 6907 bound_to 6896
  152.5086  134.3922  159.9398 H   0  0  0  0  0  0  0  0  0  0  0  0  # atno 6908 bound_to 6896
  151.3943  133.3738  159.2759 H   0  0  0  0  0  0  0  0  0  0  0  0  # atno 6909 bound_to 6896
  145.7078  140.9090  143.0696 H   0  0  0  0  0  0  0  0  0  0  0  0  # atno 7974 bound_to 7965
  154.4315  140.1834  156.1152 H   0  0  0  0  0  0  0  0  0  0  0  0  # atno 8008 bound_to 7997
  156.0186  140.3343  155.6989 H   0  0  0  0  0  0  0  0  0  0  0  0  # atno 8009 bound_to 7997
  155.6009  140.0640  157.2724 H   0  0  0  0  0  0  0  0  0  0  0  0  # atno 8010 bound_to 7997
  139.9207  144.6214  150.8443 H   0  0  0  0  0  0  0  0  0  0  0  0  # atno 10167 bound_to 10162
  157.0342  130.6205  149.5740 H   0  0  0  0  0  0  0  0  0  0  0  0  # atno 10718 bound_to 10713
  152.9786  135.5832  154.4481 H   0  0  0  0  0  0  0  0  0  0  0  0  # atno 10763 bound_to 10752
  154.4074  135.2769  155.2060 H   0  0  0  0  0  0  0  0  0  0  0  0  # atno 10764 bound_to 10752
  154.3865  135.6135  153.5874 H   0  0  0  0  0  0  0  0  0  0  0  0  # atno 10765 bound_to 10752
  140.2631  134.3169  155.7851 H   0  0  0  0  0  0  0  0  0  0  0  0  # atno 11005 bound_to 11000
  144.6950  139.9034  143.7460 LP  0  0  0  0  0  0  0  0  0  0  0  0  # atno 17320 bound_to 7965
  146.0739  139.3728  143.0506 LP  0  0  0  0  0  0  0  0  0  0  0  0  # atno 17321 bound_to 7965
  140.7663  143.3299  151.2433 LP  0  0  0  0  0  0  0  0  0  0  0  0  # atno 17342 bound_to 10162
  139.6864  143.9767  152.2836 LP  0  0  0  0  0  0  0  0  0  0  0  0  # atno 17343 bound_to 10162
  156.0059  130.5146  150.7828 LP  0  0  0  0  0  0  0  0  0  0  0  0  # atno 17370 bound_to 10713
  157.5154  131.0928  151.0145 LP  0  0  0  0  0  0  0  0  0  0  0  0  # atno 17371 bound_to 10713
  141.2187  133.7421  156.9218 LP  0  0  0  0  0  0  0  0  0  0  0  0  # atno 17394 bound_to 11000
  140.1445  134.9271  157.2511 LP  0  0  0  0  0  0  0  0  0  0  0  0  # atno 17395 bound_to 11000

$$$$
