AV-unprocessed.smi:671|AV-procd|sdf|3286|dock4
  -GOLD-   22720 0243D 1   1.00000     0.00000
 Structure written by MMmdl.
 50 51  0  0  0  0  0  0  0  0  2 V2000
  147.2905  141.8946  154.1264 C   0  0  0  0  0  0  0  0  0  0  0  0
  148.5402  141.4767  154.8261 C   0  0  0  0  0  0  0  0  0  0  0  0
  149.2336  142.2665  155.6891 N   0  3  0  0  0  0  0  0  0  0  0  0
  150.3079  141.6136  156.1537 N   0  0  0  0  0  0  0  0  0  0  0  0
  151.1976  142.2850  157.1013 C   0  0  0  0  0  0  0  0  0  0  0  0
  150.3703  140.3644  155.6126 C   0  0  0  0  0  0  0  0  0  0  0  0
  151.4435  139.3684  155.9077 C   0  0  0  0  0  0  0  0  0  0  0  0
  149.2564  140.2743  154.7685 C   0  0  0  0  0  0  0  0  0  0  0  0
  148.8934  139.0787  153.9292 C   0  0  0  0  0  0  0  0  0  0  0  0
  147.7548  138.2319  154.5342 C   0  0  1  0  0  0  0  0  0  0  0  0
  146.4928  139.0680  154.7853 C   0  0  0  0  0  0  0  0  0  0  0  0
  147.4281  137.1121  153.6446 N   0  0  0  0  0  0  0  0  0  0  0  0
  146.4155  136.2299  153.7215 C   0  0  0  0  0  0  0  0  0  0  0  0
  145.5999  136.2685  154.6403 O   0  0  0  0  0  0  0  0  0  0  0  0
  146.3889  135.3106  152.7424 N   0  0  0  0  0  0  0  0  0  0  0  0
  145.3977  134.2442  152.5928 C   0  0  2  0  0  0  0  0  0  0  0  0
  146.0745  132.8664  152.7478 C   0  0  0  0  0  0  0  0  0  0  0  0
  145.8271  132.1044  151.4411 C   0  0  0  0  0  0  0  0  0  0  0  0
  145.5223  133.1823  150.4051 C   0  0  0  0  0  0  0  0  0  0  0  0
  144.7407  134.2350  151.1923 C   0  0  2  0  0  0  0  0  0  0  0  0
  144.6293  135.5872  150.4682 C   0  0  0  0  0  0  0  0  0  0  0  0
  147.4739  141.9990  153.0570 H   0  0  0  0  0  0  0  0  0  0  0  0
  146.9364  142.8513  154.5112 H   0  0  0  0  0  0  0  0  0  0  0  0
  146.5074  141.1512  154.2764 H   0  0  0  0  0  0  0  0  0  0  0  0
  152.1850  142.3877  156.6505 H   0  0  0  0  0  0  0  0  0  0  0  0
  151.2710  141.6832  158.0074 H   0  0  0  0  0  0  0  0  0  0  0  0
  150.8085  143.2729  157.3521 H   0  0  0  0  0  0  0  0  0  0  0  0
  151.4716  138.5912  155.1447 H   0  0  0  0  0  0  0  0  0  0  0  0
  151.2632  138.8998  156.8749 H   0  0  0  0  0  0  0  0  0  0  0  0
  152.4182  139.8563  155.9325 H   0  0  0  0  0  0  0  0  0  0  0  0
  148.6045  139.4067  152.9300 H   0  0  0  0  0  0  0  0  0  0  0  0
  149.7713  138.4488  153.7806 H   0  0  0  0  0  0  0  0  0  0  0  0
  148.1020  137.8740  155.5037 H   0  0  0  0  0  0  0  0  0  0  0  0
  146.7011  139.9008  155.4576 H   0  0  0  0  0  0  0  0  0  0  0  0
  145.7078  138.4651  155.2431 H   0  0  0  0  0  0  0  0  0  0  0  0
  146.0972  139.4811  153.8567 H   0  0  0  0  0  0  0  0  0  0  0  0
  148.1183  136.9194  152.9330 H   0  0  0  0  0  0  0  0  0  0  0  0
  147.1150  135.3498  152.0422 H   0  0  0  0  0  0  0  0  0  0  0  0
  144.6199  134.3485  153.3513 H   0  0  0  0  0  0  0  0  0  0  0  0
  147.1479  132.9707  152.9149 H   0  0  0  0  0  0  0  0  0  0  0  0
  145.6742  132.3174  153.6012 H   0  0  0  0  0  0  0  0  0  0  0  0
  146.6720  131.4767  151.1558 H   0  0  0  0  0  0  0  0  0  0  0  0
  144.9578  131.4552  151.5563 H   0  0  0  0  0  0  0  0  0  0  0  0
  146.4546  133.6075  150.0299 H   0  0  0  0  0  0  0  0  0  0  0  0
  144.9638  132.7948  149.5524 H   0  0  0  0  0  0  0  0  0  0  0  0
  143.7274  133.8503  151.3201 H   0  0  0  0  0  0  0  0  0  0  0  0
  145.6121  135.9933  150.2343 H   0  0  0  0  0  0  0  0  0  0  0  0
  144.0975  136.3189  151.0771 H   0  0  0  0  0  0  0  0  0  0  0  0
  144.0875  135.4814  149.5284 H   0  0  0  0  0  0  0  0  0  0  0  0
  149.0287  143.2134  155.9827 H   0  0  0  0  0  0  0  0  0  0  0  0
  1  2  1  0  0  0  0
  1 22  1  0  0  0  0
  1 23  1  0  0  0  0
  1 24  1  0  0  0  0
  2  8  1  0  0  0  0
  2  3  2  0  0  0  0
  3  4  1  0  0  0  0
  3 50  1  0  0  0  0
  4  5  1  0  0  0  0
  4  6  1  0  0  0  0
  5 25  1  0  0  0  0
  5 26  1  0  0  0  0
  5 27  1  0  0  0  0
  6  7  1  0  0  0  0
  6  8  2  0  0  0  0
  7 28  1  0  0  0  0
  7 29  1  0  0  0  0
  7 30  1  0  0  0  0
  8  9  1  0  0  0  0
  9 10  1  0  0  0  0
  9 31  1  0  0  0  0
  9 32  1  0  0  0  0
 10 11  1  0  0  0  0
 10 12  1  0  0  0  0
 10 33  1  0  0  0  0
 11 34  1  0  0  0  0
 11 35  1  0  0  0  0
 11 36  1  0  0  0  0
 12 13  1  0  0  0  0
 12 37  1  0  0  0  0
 13 14  2  0  0  0  0
 13 15  1  0  0  0  0
 15 16  1  0  0  0  0
 15 38  1  0  0  0  0
 16 20  1  0  0  0  0
 16 17  1  0  0  0  0
 16 39  1  0  0  0  0
 17 18  1  0  0  0  0
 17 40  1  0  0  0  0
 17 41  1  0  0  0  0
 18 19  1  0  0  0  0
 18 42  1  0  0  0  0
 18 43  1  0  0  0  0
 19 20  1  0  0  0  0
 19 44  1  0  0  0  0
 19 45  1  0  0  0  0
 20 21  1  0  0  0  0
 20 46  1  0  0  0  0
 21 47  1  0  0  0  0
 21 48  1  0  0  0  0
 21 49  1  0  0  0  0
M  CHG  1   3   1
M  END
> <s_m_source_file>
AV-unprocessed.smi

> <i_m_source_file_index>
671

> <i_lp_mmshare_version>
43012

> <i_f3d_flags>
0

> <s_epik_input>
W0NIM11jMW5uKFtDSDNdKWMoW0NIM10pYzFbQ0gyXVtDQEhdKFtDSDNdKVtOSF1DKD1PKVtOSF1bQ0BASF0yW0NIMl1bQ0gyXVtDSDJdW0NASF0yW0NIM10=

> <s_epik_cmdline>
J2VwaWtfcHl0aG9uJywgJy1waCcsICc3LjAnLCAnLXRuJywgJzgnLCAnLW1hJywgJzIwMCcsICctbWV0YWxfYmluZGluZycsICctaW1hZScsICc8aW5maWxlLm1hZT4nLCAnLW9tYWUnLCAnPG91dGZpbGUubWFlPic=

> <r_lp_tautomer_probability>
1

> <r_epik_Ionization_Penalty>
2.28705

> <r_epik_Ionization_Penalty_Charging>
2.28698

> <r_epik_Ionization_Penalty_Neutral>
6.23157e-05

> <r_epik_State_Penalty>
2.43671

> <r_epik_Charging_Adjusted_Penalty>
4.72369

> <i_epik_Tot_Q>
1

> <i_epik_Tot_abs_Q>
1

> <r_epik_Metal_State_Penalty>
2.44911

> <b_epik_Metal_Only>
0

> <s_lp_Force_Field>
OPLS_2005

> <r_lp_Energy>
35.2288

> <b_lp_Chiralities_Consistent>
1

> <s_lp_Variant>
AV-unprocessed.smi:671-14

> <Gold.Version>
5.8.1

> <Gold.Id.Protein>
6NUR|6NUR_protein|mol2

> <Gold.PLP.Fitness>
46.2799

> <Gold.PLP.PLP>
-35.7161

> <Gold.PLP.part.hbond>
-2.6973

> <Gold.PLP.part.metal>
0.0000

> <Gold.PLP.part.buried>
-4.6484

> <Gold.PLP.part.nonpolar>
-29.8118

> <Gold.PLP.part.repulsive>
0.1814

> <Gold.PLP.ligand.clash>
0.0000

> <Gold.PLP.ligand.torsion>
0.3684

> <Gold.PLP.Chemscore.Hbond>
3.7593

> <Gold.PLP.Chemscore.CHOScore>
0.0000

> <Gold.PLP.Chemscore.Metal>
0.0000

> <Gold.Chemscore.Hbonds>
donor molecule, donor type, donor heavy atom, donor atom, acceptor molecule, acceptor atom, score
      L1  H     3    50       P1  8028  2.00
      L1  H    12    37       P1  7948  0.98
      L1  H    15    38       P1  7948  0.75

> <Gold.PLP.Chemscore.Internal.Correction>
0.0229

> <Gold.Rescore>
     Score         DG    S(hbond)    S(metal)    S(lipo)     H(rot)  DE(clash)    DE(int)     intcor
     18.76     -20.35       2.72        0.00      82.44       1.51       0.05       1.55       ----

> <Gold.Chemscore.Fitness>
18.7571

> <Gold.Chemscore.DG>
-20.3511

> <Gold.Chemscore.ZeroCoef>
-5.4800

> <Gold.Chemscore.Hbond>
2.7185

> <Gold.Chemscore.Metal>
0.0000

> <Gold.Chemscore.Lipo>
82.4431

> <Gold.Chemscore.Internal_Hbond>
0.0000

> <Gold.Chemscore.DEClash>
0.0452

> <Gold.Chemscore.DEInternal>
1.5487

> <Gold.Chemscore.Rot>
1.5057

> <Gold.Chemscore.Internal.Correction>
   9.000000E+99

> <Gold.Chemscore.Hbonds>
donor molecule, donor type, donor heavy atom, donor atom, acceptor molecule, acceptor atom, score
      L1  H     3    50       P1  8028  0.89
      L1  H    12    37       P1  7948  0.91
      L1  H    15    38       P1  7948  0.72

> <Gold.Chemscore.Hbond.Weighted>
-9.0799

> <Gold.Chemscore.Metal.Weighted>
-0.0000

> <Gold.Chemscore.Lipo.Weighted>
-9.6458

> <Gold.Chemscore.Internal_Hbond.Weighted>
0.0000

> <Gold.Chemscore.DEClash.Weighted>
0.0452

> <Gold.Chemscore.DEInternal.Weighted>
1.5487

> <Gold.Chemscore.Rot.Weighted>
3.8547

> <Gold.Chemscore.Internal.Correction.Weighted>
   9.000000E+99

> <Gold.Protein.RotatedTorsions>
[ 6907 6896 6895 6894 ] final  166.66 input  -60.11 | X-H torsion
[ 7974 7965 7964 7962 ] final -137.76 input  175.53 | X-H torsion
[ 8008 7997 7996 7995 ] final  147.60 input   59.86 | X-H torsion
[ 10167 10162 10161 10158 ] final -162.87 input  -65.29 | X-H torsion
[ 10718 10713 10712 10709 ] final   44.61 input   66.30 | X-H torsion
[ 10763 10752 10751 10750 ] final -106.44 input  -60.55 | X-H torsion
[ 11005 11000 10999 10996 ] final  -18.63 input  -57.11 | X-H torsion

> <Gold.Protein.ActiveResidues>
 VAL166  LYS551  ARG553  GLY616  TRP617  ASP618  TYR619  PRO620  LYS621  CYS622 
 ASP623  PHE694  ASN695  SER759  ASP760  ASP761  ALA762  ILE779  LEU786  VAL792 
 PHE793  MET794  SER795  GLU796  ALA797  LYS798  CYS799  TRP800  GLU811  SER814 

> <Gold.Protein.RotatedAtoms>
  151.8754  133.3484  159.3748 H   0  0  0  0  0  0  0  0  0  0  0  0  # atno 6907 bound_to 6896
  150.7141  134.5071  159.5599 H   0  0  0  0  0  0  0  0  0  0  0  0  # atno 6908 bound_to 6896
  152.2612  134.8032  160.0481 H   0  0  0  0  0  0  0  0  0  0  0  0  # atno 6909 bound_to 6896
  144.8814  140.6513  143.5203 H   0  0  0  0  0  0  0  0  0  0  0  0  # atno 7974 bound_to 7965
  156.2819  140.2151  156.5563 H   0  0  0  0  0  0  0  0  0  0  0  0  # atno 8008 bound_to 7997
  154.7249  140.0500  157.0696 H   0  0  0  0  0  0  0  0  0  0  0  0  # atno 8009 bound_to 7997
  155.0429  140.3147  155.4721 H   0  0  0  0  0  0  0  0  0  0  0  0  # atno 8010 bound_to 7997
  139.6361  144.0347  152.2055 H   0  0  0  0  0  0  0  0  0  0  0  0  # atno 10167 bound_to 10162
  157.4287  130.8012  149.7582 H   0  0  0  0  0  0  0  0  0  0  0  0  # atno 10718 bound_to 10713
  154.8012  135.4712  154.0281 H   0  0  0  0  0  0  0  0  0  0  0  0  # atno 10763 bound_to 10752
  153.1785  135.6836  153.8517 H   0  0  0  0  0  0  0  0  0  0  0  0  # atno 10764 bound_to 10752
  153.8075  135.3221  155.3375 H   0  0  0  0  0  0  0  0  0  0  0  0  # atno 10765 bound_to 10752
  140.8287  133.8013  155.9735 H   0  0  0  0  0  0  0  0  0  0  0  0  # atno 11005 bound_to 11000
  145.3947  139.1609  143.4210 LP  0  0  0  0  0  0  0  0  0  0  0  0  # atno 17320 bound_to 7965
  146.2997  140.4039  142.8708 LP  0  0  0  0  0  0  0  0  0  0  0  0  # atno 17321 bound_to 7965
  140.0025  144.6283  150.7717 LP  0  0  0  0  0  0  0  0  0  0  0  0  # atno 17342 bound_to 10162
  140.7466  143.2893  151.3375 LP  0  0  0  0  0  0  0  0  0  0  0  0  # atno 17343 bound_to 10162
  155.9905  130.3944  150.3024 LP  0  0  0  0  0  0  0  0  0  0  0  0  # atno 17370 bound_to 10713
  157.1179  131.0239  151.3021 LP  0  0  0  0  0  0  0  0  0  0  0  0  # atno 17371 bound_to 10713
  140.9022  134.2364  157.5035 LP  0  0  0  0  0  0  0  0  0  0  0  0  # atno 17394 bound_to 11000
  139.8705  134.9712  156.4727 LP  0  0  0  0  0  0  0  0  0  0  0  0  # atno 17395 bound_to 11000

$$$$
