AV-unprocessed.smi:153|AV-procd|sdf|1257|dock5
  -GOLD-   2262018493D 1   1.00000     0.00000
 Structure written by MMmdl.
 60 63  0  0  0  0  0  0  0  0  2 V2000
  151.9697  139.6183  155.5321 C   0  0  0  0  0  0  0  0  0  0  0  0
  151.2817  139.8833  156.8810 C   0  0  1  0  0  0  0  0  0  0  0  0
  152.3505  140.1607  157.7887 O   0  0  0  0  0  0  0  0  0  0  0  0
  152.0813  141.3340  158.5396 C   0  0  0  0  0  0  0  0  0  0  0  0
  151.2095  142.1661  157.6107 C   0  0  0  0  0  0  0  0  0  0  0  0
  150.3334  141.1130  156.9485 C   0  0  2  0  0  0  0  0  0  0  0  0
  149.2867  140.8078  157.8551 O   0  0  0  0  0  0  0  0  0  0  0  0
  149.6886  141.6230  155.6295 C   0  0  0  0  0  0  0  0  0  0  0  0
  148.9147  140.6393  154.8773 N   0  0  0  0  0  0  0  0  0  0  0  0
  149.3554  139.7965  153.8801 C   0  0  0  0  0  0  0  0  0  0  0  0
  148.4538  138.9902  153.3926 N   0  0  0  0  0  0  0  0  0  0  0  0
  147.3025  139.2751  154.1172 C   0  0  0  0  0  0  0  0  0  0  0  0
  145.9688  138.7641  154.1227 C   0  0  0  0  0  0  0  0  0  0  0  0
  145.5080  137.7860  153.2947 N   0  0  0  0  0  0  0  0  0  0  0  0
  144.2590  137.1052  153.6118 C   0  0  0  0  0  0  0  0  0  0  0  0
  146.0764  137.6312  151.9512 C   0  0  0  0  0  0  0  0  0  0  0  0
  145.3683  136.5633  151.0853 C   0  0  1  0  0  0  0  0  0  0  0  0
  145.6430  136.8112  149.7209 O   0  0  0  0  0  0  0  0  0  0  0  0
  145.7170  135.1023  151.4437 C   0  0  0  0  0  0  0  0  0  0  0  0
  145.3429  134.1459  150.3721 N   0  3  0  0  0  0  0  0  0  0  0  0
  145.9224  132.7985  150.5877 C   0  0  0  0  0  0  0  0  0  0  0  0
  145.5544  131.8617  149.4249 C   0  0  0  0  0  0  0  0  0  0  0  0
  144.1400  131.8000  149.2910 O   0  0  0  0  0  0  0  0  0  0  0  0
  143.5780  133.0727  148.9961 C   0  0  0  0  0  0  0  0  0  0  0  0
  143.8793  134.0494  150.1453 C   0  0  0  0  0  0  0  0  0  0  0  0
  145.1130  139.2853  155.0409 N   0  0  0  0  0  0  0  0  0  0  0  0
  145.5139  140.2404  155.8833 C   0  0  0  0  0  0  0  0  0  0  0  0
  146.7142  140.8105  155.9838 N   0  0  0  0  0  0  0  0  0  0  0  0
  147.5868  140.2934  155.0727 C   0  0  0  0  0  0  0  0  0  0  0  0
  151.2724  139.2378  154.7894 H   0  0  0  0  0  0  0  0  0  0  0  0
  152.7484  138.8631  155.6417 H   0  0  0  0  0  0  0  0  0  0  0  0
  152.4391  140.5191  155.1363 H   0  0  0  0  0  0  0  0  0  0  0  0
  150.7684  138.9740  157.1985 H   0  0  0  0  0  0  0  0  0  0  0  0
  151.5395  141.0661  159.4476 H   0  0  0  0  0  0  0  0  0  0  0  0
  153.0002  141.8452  158.8270 H   0  0  0  0  0  0  0  0  0  0  0  0
  150.6478  142.9422  158.1322 H   0  0  0  0  0  0  0  0  0  0  0  0
  151.8418  142.6542  156.8675 H   0  0  0  0  0  0  0  0  0  0  0  0
  149.6580  140.7041  158.7178 H   0  0  0  0  0  0  0  0  0  0  0  0
  149.0331  142.4689  155.8395 H   0  0  0  0  0  0  0  0  0  0  0  0
  150.4687  142.0140  154.9758 H   0  0  0  0  0  0  0  0  0  0  0  0
  150.3719  139.7843  153.5174 H   0  0  0  0  0  0  0  0  0  0  0  0
  144.2029  136.8662  154.6745 H   0  0  0  0  0  0  0  0  0  0  0  0
  144.1828  136.1687  153.0589 H   0  0  0  0  0  0  0  0  0  0  0  0
  143.4025  137.7244  153.3442 H   0  0  0  0  0  0  0  0  0  0  0  0
  146.0612  138.5813  151.4179 H   0  0  0  0  0  0  0  0  0  0  0  0
  147.1348  137.3847  152.0448 H   0  0  0  0  0  0  0  0  0  0  0  0
  144.2980  136.7224  151.2106 H   0  0  0  0  0  0  0  0  0  0  0  0
  145.6414  135.9862  149.2591 H   0  0  0  0  0  0  0  0  0  0  0  0
  146.7908  135.0343  151.6241 H   0  0  0  0  0  0  0  0  0  0  0  0
  145.2304  134.8077  152.3749 H   0  0  0  0  0  0  0  0  0  0  0  0
  147.0078  132.8694  150.6682 H   0  0  0  0  0  0  0  0  0  0  0  0
  145.5566  132.3887  151.5305 H   0  0  0  0  0  0  0  0  0  0  0  0
  146.0062  132.2019  148.4918 H   0  0  0  0  0  0  0  0  0  0  0  0
  145.9357  130.8584  149.6159 H   0  0  0  0  0  0  0  0  0  0  0  0
  143.9725  133.4490  148.0508 H   0  0  0  0  0  0  0  0  0  0  0  0
  142.5009  132.9620  148.8700 H   0  0  0  0  0  0  0  0  0  0  0  0
  143.3880  133.7093  151.0583 H   0  0  0  0  0  0  0  0  0  0  0  0
  143.4633  135.0272  149.9051 H   0  0  0  0  0  0  0  0  0  0  0  0
  144.7658  140.6002  156.5742 H   0  0  0  0  0  0  0  0  0  0  0  0
  145.7549  134.4982  149.5192 H   0  0  0  0  0  0  0  0  0  0  0  0
  1  2  1  0  0  0  0
  1 30  1  0  0  0  0
  1 31  1  0  0  0  0
  1 32  1  0  0  0  0
  2  6  1  0  0  0  0
  2  3  1  0  0  0  0
  2 33  1  0  0  0  0
  3  4  1  0  0  0  0
  4  5  1  0  0  0  0
  4 34  1  0  0  0  0
  4 35  1  0  0  0  0
  5  6  1  0  0  0  0
  5 36  1  0  0  0  0
  5 37  1  0  0  0  0
  6  7  1  0  0  0  0
  6  8  1  0  0  0  0
  7 38  1  0  0  0  0
  8  9  1  0  0  0  0
  8 39  1  0  0  0  0
  8 40  1  0  0  0  0
  9 29  1  0  0  0  0
  9 10  1  0  0  0  0
 10 11  2  0  0  0  0
 10 41  1  0  0  0  0
 11 12  1  0  0  0  0
 12 29  2  0  0  0  0
 12 13  1  0  0  0  0
 13 14  1  0  0  0  0
 13 26  2  0  0  0  0
 14 15  1  0  0  0  0
 14 16  1  0  0  0  0
 15 42  1  0  0  0  0
 15 43  1  0  0  0  0
 15 44  1  0  0  0  0
 16 17  1  0  0  0  0
 16 45  1  0  0  0  0
 16 46  1  0  0  0  0
 17 18  1  0  0  0  0
 17 19  1  0  0  0  0
 17 47  1  0  0  0  0
 18 48  1  0  0  0  0
 19 20  1  0  0  0  0
 19 49  1  0  0  0  0
 19 50  1  0  0  0  0
 20 25  1  0  0  0  0
 20 21  1  0  0  0  0
 20 60  1  0  0  0  0
 21 22  1  0  0  0  0
 21 51  1  0  0  0  0
 21 52  1  0  0  0  0
 22 23  1  0  0  0  0
 22 53  1  0  0  0  0
 22 54  1  0  0  0  0
 23 24  1  0  0  0  0
 24 25  1  0  0  0  0
 24 55  1  0  0  0  0
 24 56  1  0  0  0  0
 25 57  1  0  0  0  0
 25 58  1  0  0  0  0
 26 27  1  0  0  0  0
 27 28  2  0  0  0  0
 27 59  1  0  0  0  0
 28 29  1  0  0  0  0
M  CHG  1  20   1
M  END
> <s_m_source_file>
AV-unprocessed.smi

> <i_m_source_file_index>
153

> <i_lp_mmshare_version>
43012

> <i_f3d_flags>
0

> <s_epik_input>
W0NIMl0xW0NIMl1PW0NAQEhdKFtDSDNdKVtDQEBdMShbT0hdKVtDSDJdbihbY0hdbjIpYyhjMjMpbltjSF1uYzNOKFtDSDNdKVtDSDJdW0NASF0oW09IXSlbQ0gyXU40W0NIMl1bQ0gyXU9bQ0gyXVtDSDJdNA==

> <s_epik_cmdline>
J2VwaWtfcHl0aG9uJywgJy1waCcsICc3LjAnLCAnLXRuJywgJzgnLCAnLW1hJywgJzIwMCcsICctbWV0YWxfYmluZGluZycsICctaW1hZScsICc8aW5maWxlLm1hZT4nLCAnLW9tYWUnLCAnPG91dGZpbGUubWFlPic=

> <r_lp_tautomer_probability>
1

> <r_epik_Ionization_Penalty>
0.403509

> <r_epik_Ionization_Penalty_Charging>
0.40072

> <r_epik_Ionization_Penalty_Neutral>
0.00278876

> <r_epik_State_Penalty>
0.400058

> <r_epik_Charging_Adjusted_Penalty>
0.800778

> <i_epik_Tot_Q>
1

> <i_epik_Tot_abs_Q>
1

> <r_epik_Metal_State_Penalty>
0.400321

> <b_epik_Metal_Only>
0

> <s_lp_Force_Field>
OPLS_2005

> <r_lp_Energy>
51.1355

> <b_lp_Chiralities_Consistent>
1

> <s_lp_Variant>
AV-unprocessed.smi:153-8

> <Gold.Version>
5.8.1

> <Gold.Id.Protein>
6NUR|6NUR_protein|mol2

> <Gold.PLP.Fitness>
46.7848

> <Gold.PLP.PLP>
-37.4007

> <Gold.PLP.part.hbond>
-5.0000

> <Gold.PLP.part.metal>
0.0000

> <Gold.PLP.part.buried>
3.8138

> <Gold.PLP.part.nonpolar>
-40.0768

> <Gold.PLP.part.repulsive>
3.4903

> <Gold.PLP.ligand.clash>
0.0000

> <Gold.PLP.ligand.torsion>
1.0408

> <Gold.PLP.Chemscore.Hbond>
3.3528

> <Gold.PLP.Chemscore.CHOScore>
0.2791

> <Gold.PLP.Chemscore.Metal>
0.0000

> <Gold.Chemscore.Hbonds>
donor molecule, donor type, donor heavy atom, donor atom, acceptor molecule, acceptor atom, score
      L1  H    18    48       P1  7921  0.98
      L1  H    20    60       P1  7921  1.00
      P1  H  7997  8010       L1     3  0.29
      P1  H 10785 10796       L1    23  0.62
      L1  C    10    41       P1  7957  0.25

> <Gold.PLP.Chemscore.Internal.Correction>
0.5701

> <Gold.Rescore>
     Score         DG    S(hbond)    S(metal)    S(lipo)     H(rot)  DE(clash)    DE(int)     intcor
      9.99     -15.05       1.95        0.00     105.27       3.62       4.09       0.97       ----

> <Gold.Chemscore.Fitness>
9.9877

> <Gold.Chemscore.DG>
-15.0499

> <Gold.Chemscore.ZeroCoef>
-5.4800

> <Gold.Chemscore.Hbond>
1.9510

> <Gold.Chemscore.Metal>
0.0000

> <Gold.Chemscore.Lipo>
105.2667

> <Gold.Chemscore.Internal_Hbond>
0.0000

> <Gold.Chemscore.DEClash>
4.0904

> <Gold.Chemscore.DEInternal>
0.9718

> <Gold.Chemscore.Rot>
3.6182

> <Gold.Chemscore.Internal.Correction>
   9.000000E+99

> <Gold.Chemscore.Hbonds>
donor molecule, donor type, donor heavy atom, donor atom, acceptor molecule, acceptor atom, score
      L1  H    18    48       P1  7921  0.86
      L1  H    20    60       P1  7921  0.78
      P1  H  7997  8010       L1     3  0.24
      P1  H 10785 10796       L1    23  0.59

> <Gold.Chemscore.Hbond.Weighted>
-6.5162

> <Gold.Chemscore.Metal.Weighted>
-0.0000

> <Gold.Chemscore.Lipo.Weighted>
-12.3162

> <Gold.Chemscore.Internal_Hbond.Weighted>
0.0000

> <Gold.Chemscore.DEClash.Weighted>
4.0904

> <Gold.Chemscore.DEInternal.Weighted>
0.9718

> <Gold.Chemscore.Rot.Weighted>
9.2625

> <Gold.Chemscore.Internal.Correction.Weighted>
   9.000000E+99

> <Gold.Protein.RotatedTorsions>
[ 6907 6896 6895 6894 ] final  -65.33 input  -60.11 | X-H torsion
[ 7974 7965 7964 7962 ] final -165.19 input  175.53 | X-H torsion
[ 8008 7997 7996 7995 ] final   46.83 input   59.86 | X-H torsion
[ 10167 10162 10161 10158 ] final -110.22 input  -65.29 | X-H torsion
[ 10718 10713 10712 10709 ] final -170.49 input   66.30 | X-H torsion
[ 10763 10752 10751 10750 ] final   47.77 input  -60.55 | X-H torsion
[ 11005 11000 10999 10996 ] final  -38.23 input  -57.11 | X-H torsion

> <Gold.Protein.ActiveResidues>
 VAL166  LYS551  ARG553  GLY616  TRP617  ASP618  TYR619  PRO620  LYS621  CYS622 
 ASP623  PHE694  ASN695  SER759  ASP760  ASP761  ALA762  ILE779  LEU786  VAL792 
 PHE793  MET794  SER795  GLU796  ALA797  LYS798  CYS799  TRP800  GLU811  SER814 

> <Gold.Protein.RotatedAtoms>
  150.7531  134.6176  159.6118 H   0  0  0  0  0  0  0  0  0  0  0  0  # atno 6907 bound_to 6896
  152.3491  134.7027  160.0250 H   0  0  0  0  0  0  0  0  0  0  0  0  # atno 6908 bound_to 6896
  151.7453  133.3288  159.3413 H   0  0  0  0  0  0  0  0  0  0  0  0  # atno 6909 bound_to 6896
  144.7276  140.2850  143.6230 H   0  0  0  0  0  0  0  0  0  0  0  0  # atno 7974 bound_to 7965
  155.3590  140.3417  155.4240 H   0  0  0  0  0  0  0  0  0  0  0  0  # atno 8008 bound_to 7997
  156.1724  140.1636  156.8459 H   0  0  0  0  0  0  0  0  0  0  0  0  # atno 8009 bound_to 7997
  154.5246  140.0759  156.8218 H   0  0  0  0  0  0  0  0  0  0  0  0  # atno 8010 bound_to 7997
  140.1469  143.4232  152.1523 H   0  0  0  0  0  0  0  0  0  0  0  0  # atno 10167 bound_to 10162
  156.7270  130.9292  151.3102 H   0  0  0  0  0  0  0  0  0  0  0  0  # atno 10718 bound_to 10713
  152.9797  135.5965  154.3817 H   0  0  0  0  0  0  0  0  0  0  0  0  # atno 10763 bound_to 10752
  154.3481  135.2767  155.2388 H   0  0  0  0  0  0  0  0  0  0  0  0  # atno 10764 bound_to 10752
  154.4440  135.6006  153.6203 H   0  0  0  0  0  0  0  0  0  0  0  0  # atno 10765 bound_to 10752
  141.0012  133.6954  156.2026 H   0  0  0  0  0  0  0  0  0  0  0  0  # atno 11005 bound_to 11000
  145.7911  139.1927  143.2102 LP  0  0  0  0  0  0  0  0  0  0  0  0  # atno 17320 bound_to 7965
  146.0755  140.7822  142.9667 LP  0  0  0  0  0  0  0  0  0  0  0  0  # atno 17321 bound_to 7965
  139.5445  144.7286  151.4628 LP  0  0  0  0  0  0  0  0  0  0  0  0  # atno 17342 bound_to 10162
  140.6726  143.8259  150.7019 LP  0  0  0  0  0  0  0  0  0  0  0  0  # atno 17343 bound_to 10162
  157.6874  130.9199  150.0424 LP  0  0  0  0  0  0  0  0  0  0  0  0  # atno 17370 bound_to 10713
  156.1555  130.3643  149.9375 LP  0  0  0  0  0  0  0  0  0  0  0  0  # atno 17371 bound_to 10713
  140.6886  134.4690  157.5589 LP  0  0  0  0  0  0  0  0  0  0  0  0  # atno 17394 bound_to 11000
  139.9040  134.8492  156.1781 LP  0  0  0  0  0  0  0  0  0  0  0  0  # atno 17395 bound_to 11000

$$$$
