AV-unprocessed.smi:1056|AV-procd|sdf|4645|dock3
  -GOLD-   22720 3153D 1   1.00000     0.00000
 Structure written by MMmdl.
 44 46  0  0  0  0  0  0  0  0  3 V2000
  153.7381  142.0654  162.2249 C   0  0  0  0  0  0  0  0  0  0  0  0
  153.1203  141.8784  160.8499 C   0  0  0  0  0  0  0  0  0  0  0  0
  153.4579  140.7324  160.0954 C   0  0  0  0  0  0  0  0  0  0  0  0
  152.9026  140.5189  158.8150 C   0  0  0  0  0  0  0  0  0  0  0  0
  153.0919  139.4847  157.9145 N   0  0  0  0  0  0  0  0  0  0  0  0
  152.3021  139.8545  156.9110 C   0  0  0  0  0  0  0  0  0  0  0  0
  151.6255  141.0104  157.0524 N   0  0  0  0  0  0  0  0  0  0  0  0
  150.7135  141.6079  156.0942 C   0  0  0  0  0  0  0  0  0  0  0  0
  149.2350  141.3357  156.4333 C   0  0  1  0  0  0  0  0  0  0  0  0
  148.7599  142.4442  157.1712 O   0  0  0  0  0  0  0  0  0  0  0  0
  148.3482  141.1422  155.1825 C   0  0  0  0  0  0  0  0  0  0  0  0
  147.2653  142.1530  155.0772 N   0  3  1  0  0  0  0  0  0  0  0  0
  146.8631  142.4124  153.6711 C   0  0  0  0  0  0  0  0  0  0  0  0
  145.9817  143.6734  153.5908 C   0  0  0  0  0  0  0  0  0  0  0  0
  144.9305  143.6273  154.6138 N   0  5  0  0  0  0  0  0  0  0  0  0
  144.9542  142.8978  155.7724 C   0  0  0  0  0  0  0  0  0  0  0  0
  144.1278  142.9731  156.6788 O   0  0  0  0  0  0  0  0  0  0  0  0
  146.0882  141.8509  155.9419 C   0  0  0  0  0  0  0  0  0  0  0  0
  151.9913  141.4899  158.3060 C   0  0  0  0  0  0  0  0  0  0  0  0
  151.6495  142.6356  159.0460 C   0  0  0  0  0  0  0  0  0  0  0  0
  152.2154  142.8345  160.3228 C   0  0  0  0  0  0  0  0  0  0  0  0
  151.8403  144.0748  161.1142 C   0  0  0  0  0  0  0  0  0  0  0  0
  154.3651  141.2164  162.4988 H   0  0  0  0  0  0  0  0  0  0  0  0
  152.9620  142.1638  162.9839 H   0  0  0  0  0  0  0  0  0  0  0  0
  154.3594  142.9610  162.2461 H   0  0  0  0  0  0  0  0  0  0  0  0
  154.1476  140.0042  160.4964 H   0  0  0  0  0  0  0  0  0  0  0  0
  152.2111  139.2516  156.0191 H   0  0  0  0  0  0  0  0  0  0  0  0
  150.9034  142.6820  156.0714 H   0  0  0  0  0  0  0  0  0  0  0  0
  150.9546  141.2299  155.0997 H   0  0  0  0  0  0  0  0  0  0  0  0
  149.1904  140.4580  157.0771 H   0  0  0  0  0  0  0  0  0  0  0  0
  148.6893  143.1895  156.5947 H   0  0  0  0  0  0  0  0  0  0  0  0
  148.9877  141.1911  154.2999 H   0  0  0  0  0  0  0  0  0  0  0  0
  147.8936  140.1513  155.1717 H   0  0  0  0  0  0  0  0  0  0  0  0
  147.7420  142.5572  153.0419 H   0  0  0  0  0  0  0  0  0  0  0  0
  146.3310  141.5443  153.2782 H   0  0  0  0  0  0  0  0  0  0  0  0
  146.6161  144.5489  153.7307 H   0  0  0  0  0  0  0  0  0  0  0  0
  145.5701  143.7626  152.5858 H   0  0  0  0  0  0  0  0  0  0  0  0
  145.6891  140.8654  155.6974 H   0  0  0  0  0  0  0  0  0  0  0  0
  146.3829  141.8295  156.9904 H   0  0  0  0  0  0  0  0  0  0  0  0
  150.9579  143.3557  158.6346 H   0  0  0  0  0  0  0  0  0  0  0  0
  151.1786  144.7265  160.5429 H   0  0  0  0  0  0  0  0  0  0  0  0
  152.7306  144.6479  161.3739 H   0  0  0  0  0  0  0  0  0  0  0  0
  151.3256  143.7975  162.0343 H   0  0  0  0  0  0  0  0  0  0  0  0
  147.6484  143.0272  155.4061 H   0  0  0  0  0  0  0  0  0  0  0  0
  1  2  1  0  0  0  0
  1 23  1  0  0  0  0
  1 24  1  0  0  0  0
  1 25  1  0  0  0  0
  2 21  1  0  0  0  0
  2  3  2  0  0  0  0
  3  4  1  0  0  0  0
  3 26  1  0  0  0  0
  4 19  2  0  0  0  0
  4  5  1  0  0  0  0
  5  6  2  0  0  0  0
  6  7  1  0  0  0  0
  6 27  1  0  0  0  0
  7  8  1  0  0  0  0
  7 19  1  0  0  0  0
  8  9  1  0  0  0  0
  8 28  1  0  0  0  0
  8 29  1  0  0  0  0
  9 10  1  0  0  0  0
  9 11  1  0  0  0  0
  9 30  1  0  0  0  0
 10 31  1  0  0  0  0
 11 12  1  0  0  0  0
 11 32  1  0  0  0  0
 11 33  1  0  0  0  0
 12 18  1  0  0  0  0
 12 13  1  0  0  0  0
 12 44  1  0  0  0  0
 13 14  1  0  0  0  0
 13 34  1  0  0  0  0
 13 35  1  0  0  0  0
 14 15  1  0  0  0  0
 14 36  1  0  0  0  0
 14 37  1  0  0  0  0
 15 16  1  0  0  0  0
 16 17  2  0  0  0  0
 16 18  1  0  0  0  0
 18 38  1  0  0  0  0
 18 39  1  0  0  0  0
 19 20  1  0  0  0  0
 20 21  2  0  0  0  0
 20 40  1  0  0  0  0
 21 22  1  0  0  0  0
 22 41  1  0  0  0  0
 22 42  1  0  0  0  0
 22 43  1  0  0  0  0
M  CHG  1  12   1
M  CHG  1  15  -1
M  END
> <s_m_source_file>
AV-unprocessed.smi

> <i_m_source_file_index>
1056

> <i_lp_mmshare_version>
43012

> <i_f3d_flags>
0

> <s_epik_input>
W0NIM11jKFtjSF0xKWMoW0NIM10pW2NIXWMoYzEyKW4oW2NIXW4yKVtDSDJdW0NASF0oW09IXSlbQ0gyXU4zW0NIMl1bQ0gyXVtOSF1DKD1PKVtDSDJdMw==

> <s_epik_cmdline>
J2VwaWtfcHl0aG9uJywgJy1waCcsICc3LjAnLCAnLXRuJywgJzgnLCAnLW1hJywgJzIwMCcsICctbWV0YWxfYmluZGluZycsICctaW1hZScsICc8aW5maWxlLm1hZT4nLCAnLW9tYWUnLCAnPG91dGZpbGUubWFlPic=

> <r_epik_Ionization_Penalty>
5.13411

> <r_epik_Ionization_Penalty_Charging>
5.04792

> <r_epik_Ionization_Penalty_Neutral>
0.0861879

> <r_epik_State_Penalty>
5.18224

> <r_epik_Charging_Adjusted_Penalty>
10.2302

> <i_epik_Tot_Q>
0

> <i_epik_Tot_abs_Q>
2

> <r_epik_Metal_State_Penalty>
1.33873

> <b_epik_Metal_Only>
1

> <s_lp_Force_Field>
OPLS_2005

> <r_lp_Energy>
19.55

> <b_lp_Chiralities_Consistent>
1

> <s_lp_Variant>
AV-unprocessed.smi:1056-16

> <Gold.Version>
5.8.1

> <Gold.Id.Protein>
6NUR|6NUR_protein|mol2

> <Gold.PLP.Fitness>
52.2970

> <Gold.PLP.PLP>
-44.0019

> <Gold.PLP.part.hbond>
-3.0000

> <Gold.PLP.part.metal>
0.0000

> <Gold.PLP.part.buried>
-4.7487

> <Gold.PLP.part.nonpolar>
-34.2042

> <Gold.PLP.part.repulsive>
0.2841

> <Gold.PLP.ligand.clash>
0.0000

> <Gold.PLP.ligand.torsion>
1.7742

> <Gold.PLP.Chemscore.Hbond>
3.9325

> <Gold.PLP.Chemscore.CHOScore>
0.0000

> <Gold.PLP.Chemscore.Metal>
0.0000

> <Gold.Chemscore.Hbonds>
donor molecule, donor type, donor heavy atom, donor atom, acceptor molecule, acceptor atom, score
      L1  H    10    31       P1  8028  1.00
      L1  H    12    44       P1  8028  1.76
      P1  H  7997  8008       L1     5  0.70

> <Gold.PLP.Chemscore.Internal.Correction>
0.0460

> <Gold.Rescore>
     Score         DG    S(hbond)    S(metal)    S(lipo)     H(rot)  DE(clash)    DE(int)     intcor
     13.92     -17.24       1.28        0.00     114.72       2.31       0.38       2.93       ----

> <Gold.Chemscore.Fitness>
13.9235

> <Gold.Chemscore.DG>
-17.2368

> <Gold.Chemscore.ZeroCoef>
-5.4800

> <Gold.Chemscore.Hbond>
1.2755

> <Gold.Chemscore.Metal>
0.0000

> <Gold.Chemscore.Lipo>
114.7181

> <Gold.Chemscore.Internal_Hbond>
0.0000

> <Gold.Chemscore.DEClash>
0.3843

> <Gold.Chemscore.DEInternal>
2.9290

> <Gold.Chemscore.Rot>
2.3147

> <Gold.Chemscore.Internal.Correction>
   9.000000E+99

> <Gold.Chemscore.Hbonds>
donor molecule, donor type, donor heavy atom, donor atom, acceptor molecule, acceptor atom, score
      L1  H    10    31       P1  8028  0.82
      L1  H    12    44       P1  8028  0.38
      P1  H  7997  8008       L1     5  0.02

> <Gold.Chemscore.Hbond.Weighted>
-4.2603

> <Gold.Chemscore.Metal.Weighted>
-0.0000

> <Gold.Chemscore.Lipo.Weighted>
-13.4220

> <Gold.Chemscore.Internal_Hbond.Weighted>
0.0000

> <Gold.Chemscore.DEClash.Weighted>
0.3843

> <Gold.Chemscore.DEInternal.Weighted>
2.9290

> <Gold.Chemscore.Rot.Weighted>
5.9256

> <Gold.Chemscore.Internal.Correction.Weighted>
   9.000000E+99

> <Gold.Protein.RotatedTorsions>
[ 6907 6896 6895 6894 ] final  -10.73 input  -60.11 | X-H torsion
[ 7974 7965 7964 7962 ] final   79.96 input  175.53 | X-H torsion
[ 8008 7997 7996 7995 ] final  -89.64 input   59.86 | X-H torsion
[ 10167 10162 10161 10158 ] final  -69.29 input  -65.29 | X-H torsion
[ 10718 10713 10712 10709 ] final    8.47 input   66.30 | X-H torsion
[ 10763 10752 10751 10750 ] final   67.46 input  -60.55 | X-H torsion
[ 11005 11000 10999 10996 ] final  -81.17 input  -57.11 | X-H torsion

> <Gold.Protein.ActiveResidues>
 VAL166  LYS551  ARG553  GLY616  TRP617  ASP618  TYR619  PRO620  LYS621  CYS622 
 ASP623  PHE694  ASN695  SER759  ASP760  ASP761  ALA762  ILE779  LEU786  VAL792 
 PHE793  MET794  SER795  GLU796  ALA797  LYS798  CYS799  TRP800  GLU811  SER814 

> <Gold.Protein.RotatedAtoms>
  151.3974  135.0966  159.9544 H   0  0  0  0  0  0  0  0  0  0  0  0  # atno 6907 bound_to 6896
  152.5061  133.8921  159.7409 H   0  0  0  0  0  0  0  0  0  0  0  0  # atno 6908 bound_to 6896
  150.9388  133.6625  159.2823 H   0  0  0  0  0  0  0  0  0  0  0  0  # atno 6909 bound_to 6896
  145.6575  139.2463  143.1942 H   0  0  0  0  0  0  0  0  0  0  0  0  # atno 7974 bound_to 7965
  154.6889  140.0539  157.0343 H   0  0  0  0  0  0  0  0  0  0  0  0  # atno 8008 bound_to 7997
  155.0844  140.3213  155.4573 H   0  0  0  0  0  0  0  0  0  0  0  0  # atno 8009 bound_to 7997
  156.2721  140.2059  156.5972 H   0  0  0  0  0  0  0  0  0  0  0  0  # atno 8010 bound_to 7997
  140.5442  143.2313  151.7033 H   0  0  0  0  0  0  0  0  0  0  0  0  # atno 10167 bound_to 10162
  156.9521  130.5901  149.5657 H   0  0  0  0  0  0  0  0  0  0  0  0  # atno 10718 bound_to 10713
  153.0187  135.5283  154.6983 H   0  0  0  0  0  0  0  0  0  0  0  0  # atno 10763 bound_to 10752
  154.6098  135.2877  155.0446 H   0  0  0  0  0  0  0  0  0  0  0  0  # atno 10764 bound_to 10752
  154.1472  135.6568  153.5008 H   0  0  0  0  0  0  0  0  0  0  0  0  # atno 10765 bound_to 10752
  141.1667  133.7184  156.8383 H   0  0  0  0  0  0  0  0  0  0  0  0  # atno 11005 bound_to 11000
  146.1153  140.7377  142.9483 LP  0  0  0  0  0  0  0  0  0  0  0  0  # atno 17320 bound_to 7965
  144.7101  140.4004  143.7087 LP  0  0  0  0  0  0  0  0  0  0  0  0  # atno 17321 bound_to 7965
  139.5001  144.3921  152.0269 LP  0  0  0  0  0  0  0  0  0  0  0  0  # atno 17342 bound_to 10162
  140.3032  144.3622  150.6054 LP  0  0  0  0  0  0  0  0  0  0  0  0  # atno 17343 bound_to 10162
  156.0358  130.5446  150.8650 LP  0  0  0  0  0  0  0  0  0  0  0  0  # atno 17370 bound_to 10713
  157.5715  131.0946  150.9410 LP  0  0  0  0  0  0  0  0  0  0  0  0  # atno 17371 bound_to 10713
  140.2001  134.8903  157.3159 LP  0  0  0  0  0  0  0  0  0  0  0  0  # atno 17394 bound_to 11000
  140.2196  134.4039  155.7572 LP  0  0  0  0  0  0  0  0  0  0  0  0  # atno 17395 bound_to 11000

$$$$
