AV-unprocessed.smi:526|AV-procd|sdf|2812|dock2
  -GOLD-   2262023293D 1   1.00000     0.00000
 Structure written by MMmdl.
 30 30  0  0  0  0  0  0  0  0  2 V2000
  153.1099  142.7896  160.0069 C   0  0  0  0  0  0  0  0  0  0  0  0
  152.2014  143.5612  160.6266 C   0  0  0  0  0  0  0  0  0  0  0  0
  152.3026  143.8918  162.1037 C   0  0  0  0  0  0  0  0  0  0  0  0
  151.0136  144.1558  159.8921 C   0  0  0  0  0  0  0  0  0  0  0  0
  151.3772  144.4807  158.1381 S   0  0  0  0  0  0  0  0  0  0  0  0
  151.2744  142.8390  157.3407 C   0  0  0  0  0  0  0  0  0  0  0  0
  150.3219  142.7914  156.3319 N   0  0  0  0  0  0  0  0  0  0  0  0
  150.1204  141.6054  155.6510 C   0  0  0  0  0  0  0  0  0  0  0  0
  149.0458  141.6681  154.5797 C   0  0  0  0  0  0  0  0  0  0  0  0
  150.8453  140.4990  155.9435 C   0  0  0  0  0  0  0  0  0  0  0  0
  150.6549  139.1643  155.2199 C   0  0  0  0  0  0  0  0  0  0  0  0
  151.9528  138.4699  154.7893 C   0  0  0  0  0  0  0  0  0  0  0  0
  151.8368  137.3128  154.3302 O   0  0  0  0  0  0  0  0  0  0  0  0
  153.0327  139.0890  154.9180 O   0  5  0  0  0  0  0  0  0  0  0  0
  151.8632  140.5924  157.0117 C   0  0  0  0  0  0  0  0  0  0  0  0
  152.5691  139.6322  157.3173 O   0  0  0  0  0  0  0  0  0  0  0  0
  152.0082  141.8199  157.6769 N   0  0  0  0  0  0  0  0  0  0  0  0
  149.7597  143.5872  156.0686 H   0  0  0  0  0  0  0  0  0  0  0  0
  153.9507  142.3735  160.5424 H   0  0  0  0  0  0  0  0  0  0  0  0
  153.0282  142.5622  158.9541 H   0  0  0  0  0  0  0  0  0  0  0  0
  151.4086  143.5546  162.6287 H   0  0  0  0  0  0  0  0  0  0  0  0
  152.4016  144.9673  162.2511 H   0  0  0  0  0  0  0  0  0  0  0  0
  153.1662  143.4081  162.5613 H   0  0  0  0  0  0  0  0  0  0  0  0
  150.1674  143.4705  159.9558 H   0  0  0  0  0  0  0  0  0  0  0  0
  150.7213  145.0824  160.3876 H   0  0  0  0  0  0  0  0  0  0  0  0
  149.4603  141.3959  153.6089 H   0  0  0  0  0  0  0  0  0  0  0  0
  148.6220  142.6692  154.4932 H   0  0  0  0  0  0  0  0  0  0  0  0
  148.2341  140.9794  154.8141 H   0  0  0  0  0  0  0  0  0  0  0  0
  150.0513  139.3297  154.3275 H   0  0  0  0  0  0  0  0  0  0  0  0
  150.0737  138.4727  155.8305 H   0  0  0  0  0  0  0  0  0  0  0  0
  1  2  2  0  0  0  0
  1 19  1  0  0  0  0
  1 20  1  0  0  0  0
  2  3  1  0  0  0  0
  2  4  1  0  0  0  0
  3 21  1  0  0  0  0
  3 22  1  0  0  0  0
  3 23  1  0  0  0  0
  4 24  1  0  0  0  0
  4 25  1  0  0  0  0
  4  5  1  0  0  0  0
  5  6  1  0  0  0  0
  6 17  2  0  0  0  0
  6  7  1  0  0  0  0
  7  8  1  0  0  0  0
  7 18  1  0  0  0  0
  8 10  2  0  0  0  0
  8  9  1  0  0  0  0
  9 26  1  0  0  0  0
  9 27  1  0  0  0  0
  9 28  1  0  0  0  0
 10 15  1  0  0  0  0
 10 11  1  0  0  0  0
 11 12  1  0  0  0  0
 11 29  1  0  0  0  0
 11 30  1  0  0  0  0
 12 13  2  0  0  0  0
 12 14  1  0  0  0  0
 15 17  1  0  0  0  0
 15 16  2  0  0  0  0
M  CHG  1  14  -1
M  END
> <s_m_source_file>
AV-unprocessed.smi

> <i_m_source_file_index>
526

> <i_lp_mmshare_version>
43012

> <i_f3d_flags>
0

> <s_epik_input>
W0NIMl09QyhbQ0gzXSlbQ0gyXVNjMW5jKFtDSDNdKWMoYyg9TylbbkhdMSlbQ0gyXUMoPU8pW09IXQ==

> <s_epik_cmdline>
J2VwaWtfcHl0aG9uJywgJy1waCcsICc3LjAnLCAnLXRuJywgJzgnLCAnLW1hJywgJzIwMCcsICctbWV0YWxfYmluZGluZycsICctaW1hZScsICc8aW5maWxlLm1hZT4nLCAnLW9tYWUnLCAnPG91dGZpbGUubWFlPic=

> <r_lp_tautomer_probability>
0.273662

> <r_epik_Ionization_Penalty>
0.012426

> <r_epik_Ionization_Penalty_Charging>
0.012254

> <r_epik_Ionization_Penalty_Neutral>
0.000171952

> <r_epik_State_Penalty>
0.787696

> <r_epik_Charging_Adjusted_Penalty>
0.79995

> <i_epik_Tot_Q>
-1

> <i_epik_Tot_abs_Q>
1

> <r_epik_Metal_State_Penalty>
0.901144

> <b_epik_Metal_Only>
0

> <s_lp_Force_Field>
OPLS_2005

> <r_lp_Energy>
7.99396

> <b_lp_Chiralities_Consistent>
1

> <s_lp_Variant>
AV-unprocessed.smi:526-2

> <Gold.Version>
5.8.1

> <Gold.Id.Protein>
6NUR|6NUR_protein|mol2

> <Gold.PLP.Fitness>
50.4400

> <Gold.PLP.PLP>
-39.7750

> <Gold.PLP.part.hbond>
-3.7788

> <Gold.PLP.part.metal>
0.0000

> <Gold.PLP.part.buried>
-3.8581

> <Gold.PLP.part.nonpolar>
-32.7393

> <Gold.PLP.part.repulsive>
0.2761

> <Gold.PLP.ligand.clash>
0.0000

> <Gold.PLP.ligand.torsion>
0.6851

> <Gold.PLP.Chemscore.Hbond>
4.0000

> <Gold.PLP.Chemscore.CHOScore>
0.0000

> <Gold.PLP.Chemscore.Metal>
0.0000

> <Gold.Chemscore.Hbonds>
donor molecule, donor type, donor heavy atom, donor atom, acceptor molecule, acceptor atom, score
      L1  H     7    18       P1  8028  0.89
      P1  H  7997  8008       L1    16  1.00
      P1  H 10752 10765       L1    13  1.98

> <Gold.PLP.Chemscore.Internal.Correction>
0.0351

> <Gold.Rescore>
     Score         DG    S(hbond)    S(metal)    S(lipo)     H(rot)  DE(clash)    DE(int)     intcor
     12.45     -17.83       2.60        0.00      82.57       2.34       0.21       5.17       ----

> <Gold.Chemscore.Fitness>
12.4533

> <Gold.Chemscore.DG>
-17.8341

> <Gold.Chemscore.ZeroCoef>
-5.4800

> <Gold.Chemscore.Hbond>
2.6014

> <Gold.Chemscore.Metal>
0.0000

> <Gold.Chemscore.Lipo>
82.5719

> <Gold.Chemscore.Internal_Hbond>
0.0000

> <Gold.Chemscore.DEClash>
0.2101

> <Gold.Chemscore.DEInternal>
5.1706

> <Gold.Chemscore.Rot>
2.3420

> <Gold.Chemscore.Internal.Correction>
   9.000000E+99

> <Gold.Chemscore.Hbonds>
donor molecule, donor type, donor heavy atom, donor atom, acceptor molecule, acceptor atom, score
      L1  H     7    18       P1  8028  0.86
      P1  H  7997  8008       L1    16  0.43
      P1  H 10752 10765       L1    13  0.90

> <Gold.Chemscore.Hbond.Weighted>
-8.6887

> <Gold.Chemscore.Metal.Weighted>
-0.0000

> <Gold.Chemscore.Lipo.Weighted>
-9.6609

> <Gold.Chemscore.Internal_Hbond.Weighted>
0.0000

> <Gold.Chemscore.DEClash.Weighted>
0.2101

> <Gold.Chemscore.DEInternal.Weighted>
5.1706

> <Gold.Chemscore.Rot.Weighted>
5.9955

> <Gold.Chemscore.Internal.Correction.Weighted>
   9.000000E+99

> <Gold.Protein.RotatedTorsions>
[ 6907 6896 6895 6894 ] final   62.38 input  -60.11 | X-H torsion
[ 7974 7965 7964 7962 ] final   86.92 input  175.53 | X-H torsion
[ 8008 7997 7996 7995 ] final  -54.16 input   59.86 | X-H torsion
[ 10167 10162 10161 10158 ] final   59.19 input  -65.29 | X-H torsion
[ 10718 10713 10712 10709 ] final  -54.32 input   66.30 | X-H torsion
[ 10763 10752 10751 10750 ] final  151.42 input  -60.55 | X-H torsion
[ 11005 11000 10999 10996 ] final   70.03 input  -57.11 | X-H torsion

> <Gold.Protein.ActiveResidues>
 VAL166  LYS551  ARG553  GLY616  TRP617  ASP618  TYR619  PRO620  LYS621  CYS622 
 ASP623  PHE694  ASN695  SER759  ASP760  ASP761  ALA762  ILE779  LEU786  VAL792 
 PHE793  MET794  SER795  GLU796  ALA797  LYS798  CYS799  TRP800  GLU811  SER814 

> <Gold.Protein.RotatedAtoms>
  152.4167  134.6028  160.0004 H   0  0  0  0  0  0  0  0  0  0  0  0  # atno 6907 bound_to 6896
  151.6189  133.3335  159.3091 H   0  0  0  0  0  0  0  0  0  0  0  0  # atno 6908 bound_to 6896
  150.8056  134.7218  159.6707 H   0  0  0  0  0  0  0  0  0  0  0  0  # atno 6909 bound_to 6896
  145.5659  139.2308  143.2433 H   0  0  0  0  0  0  0  0  0  0  0  0  # atno 7974 bound_to 7965
  154.4154  140.1183  156.5270 H   0  0  0  0  0  0  0  0  0  0  0  0  # atno 8008 bound_to 7997
  155.6644  140.3496  155.4775 H   0  0  0  0  0  0  0  0  0  0  0  0  # atno 8009 bound_to 7997
  155.9686  140.1137  157.0822 H   0  0  0  0  0  0  0  0  0  0  0  0  # atno 8010 bound_to 7997
  140.1791  144.4200  150.6624 H   0  0  0  0  0  0  0  0  0  0  0  0  # atno 10167 bound_to 10162
  156.1461  130.4153  150.0022 H   0  0  0  0  0  0  0  0  0  0  0  0  # atno 10718 bound_to 10713
  154.1036  135.2844  155.3246 H   0  0  0  0  0  0  0  0  0  0  0  0  # atno 10763 bound_to 10752
  154.6539  135.5359  153.7938 H   0  0  0  0  0  0  0  0  0  0  0  0  # atno 10764 bound_to 10752
  153.0370  135.6517  154.1198 H   0  0  0  0  0  0  0  0  0  0  0  0  # atno 10765 bound_to 10752
  139.9620  134.7044  156.0625 H   0  0  0  0  0  0  0  0  0  0  0  0  # atno 11005 bound_to 11000
  146.1819  140.6484  142.9185 LP  0  0  0  0  0  0  0  0  0  0  0  0  # atno 17320 bound_to 7965
  144.7461  140.5070  143.6835 LP  0  0  0  0  0  0  0  0  0  0  0  0  # atno 17321 bound_to 7965
  140.6532  143.2230  151.6030 LP  0  0  0  0  0  0  0  0  0  0  0  0  # atno 17342 bound_to 10162
  139.5304  144.2933  152.1134 LP  0  0  0  0  0  0  0  0  0  0  0  0  # atno 17343 bound_to 10162
  156.7893  130.9250  151.3646 LP  0  0  0  0  0  0  0  0  0  0  0  0  # atno 17370 bound_to 10713
  157.6618  130.8972  149.9845 LP  0  0  0  0  0  0  0  0  0  0  0  0  # atno 17371 bound_to 10713
  141.1298  133.6589  156.3433 LP  0  0  0  0  0  0  0  0  0  0  0  0  # atno 17394 bound_to 11000
  140.5479  134.6056  157.5399 LP  0  0  0  0  0  0  0  0  0  0  0  0  # atno 17395 bound_to 11000

$$$$
