AV-unprocessed.smi:2592|AV-procd|sdf|10161|dock7
  -GOLD-   2272014173D 1   1.00000     0.00000
 Structure written by MMmdl.
 42 43  0  0  0  0  0  0  0  0  3 V2000
  151.7982  144.2008  158.2127 C   0  0  0  0  0  0  0  0  0  0  0  0
  151.7030  142.7695  157.7823 C   0  0  0  0  0  0  0  0  0  0  0  0
  151.1224  142.4544  156.5510 N   0  0  0  0  0  0  0  0  0  0  0  0
  151.1086  141.1448  156.2839 C   0  0  0  0  0  0  0  0  0  0  0  0
  150.5931  140.6317  155.1548 N   0  5  0  0  0  0  0  0  0  0  0  0
  149.2527  140.5387  155.0049 C   0  0  0  0  0  0  0  0  0  0  0  0
  148.4088  140.6196  155.9007 O   0  0  0  0  0  0  0  0  0  0  0  0
  148.8639  140.3487  153.7358 N   0  0  0  0  0  0  0  0  0  0  0  0
  147.4850  140.2385  153.2731 C   0  0  0  0  0  0  0  0  0  0  0  0
  146.9149  138.8356  153.5388 C   0  0  0  0  0  0  0  0  0  0  0  0
  146.2068  138.2470  152.3083 C   0  0  0  0  0  0  0  0  0  0  0  0
  146.2976  136.7664  152.2615 N   0  3  0  0  0  0  0  0  0  0  0  0
  145.9138  136.1348  153.5467 C   0  0  0  0  0  0  0  0  0  0  0  0
  146.0758  134.6072  153.4669 C   0  0  0  0  0  0  0  0  0  0  0  0
  145.2966  134.1004  152.3910 O   0  0  0  0  0  0  0  0  0  0  0  0
  145.7115  134.6309  151.1385 C   0  0  0  0  0  0  0  0  0  0  0  0
  145.5379  136.1590  151.1401 C   0  0  0  0  0  0  0  0  0  0  0  0
  151.8190  140.1996  157.5928 S   0  0  0  0  0  0  0  0  0  0  0  0
  152.1343  141.6677  158.4787 C   0  0  0  0  0  0  0  0  0  0  0  0
  152.7955  141.6307  159.8160 C   0  0  0  0  0  0  0  0  0  0  0  0
  151.1534  144.3955  159.0698 H   0  0  0  0  0  0  0  0  0  0  0  0
  151.5009  144.8829  157.4154 H   0  0  0  0  0  0  0  0  0  0  0  0
  152.8180  144.4576  158.4999 H   0  0  0  0  0  0  0  0  0  0  0  0
  149.5885  140.2835  153.0358 H   0  0  0  0  0  0  0  0  0  0  0  0
  146.8930  140.9879  153.7985 H   0  0  0  0  0  0  0  0  0  0  0  0
  147.4259  140.4840  152.2114 H   0  0  0  0  0  0  0  0  0  0  0  0
  147.7247  138.1778  153.8532 H   0  0  0  0  0  0  0  0  0  0  0  0
  146.2142  138.8832  154.3734 H   0  0  0  0  0  0  0  0  0  0  0  0
  145.1560  138.5372  152.3530 H   0  0  0  0  0  0  0  0  0  0  0  0
  146.6072  138.6753  151.3879 H   0  0  0  0  0  0  0  0  0  0  0  0
  146.5351  136.5259  154.3533 H   0  0  0  0  0  0  0  0  0  0  0  0
  144.8799  136.3897  153.7848 H   0  0  0  0  0  0  0  0  0  0  0  0
  147.1234  134.3319  153.3359 H   0  0  0  0  0  0  0  0  0  0  0  0
  145.7389  134.1448  154.3951 H   0  0  0  0  0  0  0  0  0  0  0  0
  146.7487  134.3568  150.9386 H   0  0  0  0  0  0  0  0  0  0  0  0
  145.1069  134.1849  150.3487 H   0  0  0  0  0  0  0  0  0  0  0  0
  144.4806  136.4128  151.2325 H   0  0  0  0  0  0  0  0  0  0  0  0
  145.8794  136.5570  150.1855 H   0  0  0  0  0  0  0  0  0  0  0  0
  153.8299  141.9672  159.7428 H   0  0  0  0  0  0  0  0  0  0  0  0
  152.7971  140.6212  160.2271 H   0  0  0  0  0  0  0  0  0  0  0  0
  152.2781  142.2791  160.5234 H   0  0  0  0  0  0  0  0  0  0  0  0
  147.2715  136.5424  152.1151 H   0  0  0  0  0  0  0  0  0  0  0  0
  1  2  1  0  0  0  0
  1 21  1  0  0  0  0
  1 22  1  0  0  0  0
  1 23  1  0  0  0  0
  2 19  2  0  0  0  0
  2  3  1  0  0  0  0
  3  4  2  0  0  0  0
  4  5  1  0  0  0  0
  4 18  1  0  0  0  0
  5  6  1  0  0  0  0
  6  7  2  0  0  0  0
  6  8  1  0  0  0  0
  8  9  1  0  0  0  0
  8 24  1  0  0  0  0
  9 10  1  0  0  0  0
  9 25  1  0  0  0  0
  9 26  1  0  0  0  0
 10 11  1  0  0  0  0
 10 27  1  0  0  0  0
 10 28  1  0  0  0  0
 11 12  1  0  0  0  0
 11 29  1  0  0  0  0
 11 30  1  0  0  0  0
 12 17  1  0  0  0  0
 12 13  1  0  0  0  0
 12 42  1  0  0  0  0
 13 14  1  0  0  0  0
 13 31  1  0  0  0  0
 13 32  1  0  0  0  0
 14 15  1  0  0  0  0
 14 33  1  0  0  0  0
 14 34  1  0  0  0  0
 15 16  1  0  0  0  0
 16 17  1  0  0  0  0
 16 35  1  0  0  0  0
 16 36  1  0  0  0  0
 17 37  1  0  0  0  0
 17 38  1  0  0  0  0
 18 19  1  0  0  0  0
 19 20  1  0  0  0  0
 20 39  1  0  0  0  0
 20 40  1  0  0  0  0
 20 41  1  0  0  0  0
M  CHG  1   5  -1
M  CHG  1  12   1
M  END
> <s_m_source_file>
AV-unprocessed.smi

> <i_m_source_file_index>
2592

> <i_lp_mmshare_version>
43012

> <i_f3d_flags>
0

> <s_epik_input>
W0NIM11jMW5jKHNjMVtDSDNdKVtOSF1DKD1PKVtOSF1bQ0gyXVtDSDJdW0NIMl1OMltDSDJdW0NIMl1PW0NIMl1bQ0gyXTI=

> <s_epik_cmdline>
J2VwaWtfcHl0aG9uJywgJy1waCcsICc3LjAnLCAnLXRuJywgJzgnLCAnLW1hJywgJzIwMCcsICctbWV0YWxfYmluZGluZycsICctaW1hZScsICc8aW5maWxlLm1hZT4nLCAnLW9tYWUnLCAnPG91dGZpbGUubWFlPic=

> <r_lp_tautomer_probability>
0.999

> <r_epik_Ionization_Penalty>
7.73516

> <r_epik_Ionization_Penalty_Charging>
6.31615

> <r_epik_Ionization_Penalty_Neutral>
1.41901

> <r_epik_State_Penalty>
6.31054

> <r_epik_Charging_Adjusted_Penalty>
12.6267

> <i_epik_Tot_Q>
0

> <i_epik_Tot_abs_Q>
2

> <r_epik_Metal_State_Penalty>
2.25864

> <b_epik_Metal_Only>
1

> <s_lp_Force_Field>
OPLS_2005

> <r_lp_Energy>
6.70997

> <b_lp_Chiralities_Consistent>
1

> <s_lp_Variant>
AV-unprocessed.smi:2592-3

> <Gold.Version>
5.8.1

> <Gold.Id.Protein>
6NUR|6NUR_protein|mol2

> <Gold.PLP.Fitness>
43.9302

> <Gold.PLP.PLP>
-35.9377

> <Gold.PLP.part.hbond>
-3.0000

> <Gold.PLP.part.metal>
0.0000

> <Gold.PLP.part.buried>
-4.2506

> <Gold.PLP.part.nonpolar>
-29.6447

> <Gold.PLP.part.repulsive>
0.7721

> <Gold.PLP.ligand.clash>
0.0000

> <Gold.PLP.ligand.torsion>
1.4645

> <Gold.PLP.Chemscore.Hbond>
3.6160

> <Gold.PLP.Chemscore.CHOScore>
0.0000

> <Gold.PLP.Chemscore.Metal>
0.0000

> <Gold.Chemscore.Hbonds>
donor molecule, donor type, donor heavy atom, donor atom, acceptor molecule, acceptor atom, score
      L1  H     8    24       P1  7957  0.70
      L1  H    12    42       P1  7948  2.00
      P1  H  7989  7998       L1     5  0.93

> <Gold.PLP.Chemscore.Internal.Correction>
0.0734

> <Gold.Rescore>
     Score         DG    S(hbond)    S(metal)    S(lipo)     H(rot)  DE(clash)    DE(int)     intcor
     17.85     -19.27       2.56        0.00      82.29       1.72       0.04       1.38       ----

> <Gold.Chemscore.Fitness>
17.8529

> <Gold.Chemscore.DG>
-19.2681

> <Gold.Chemscore.ZeroCoef>
-5.4800

> <Gold.Chemscore.Hbond>
2.5602

> <Gold.Chemscore.Metal>
0.0000

> <Gold.Chemscore.Lipo>
82.2945

> <Gold.Chemscore.Internal_Hbond>
0.0000

> <Gold.Chemscore.DEClash>
0.0392

> <Gold.Chemscore.DEInternal>
1.3760

> <Gold.Chemscore.Rot>
1.7154

> <Gold.Chemscore.Internal.Correction>
   9.000000E+99

> <Gold.Chemscore.Hbonds>
donor molecule, donor type, donor heavy atom, donor atom, acceptor molecule, acceptor atom, score
      L1  H     8    24       P1  7957  0.70
      L1  H    12    42       P1  7948  1.00
      P1  H  7989  7998       L1     5  0.78

> <Gold.Chemscore.Hbond.Weighted>
-8.5510

> <Gold.Chemscore.Metal.Weighted>
-0.0000

> <Gold.Chemscore.Lipo.Weighted>
-9.6285

> <Gold.Chemscore.Internal_Hbond.Weighted>
0.0000

> <Gold.Chemscore.DEClash.Weighted>
0.0392

> <Gold.Chemscore.DEInternal.Weighted>
1.3760

> <Gold.Chemscore.Rot.Weighted>
4.3914

> <Gold.Chemscore.Internal.Correction.Weighted>
   9.000000E+99

> <Gold.Protein.RotatedTorsions>
[ 6907 6896 6895 6894 ] final  173.07 input  -60.11 | X-H torsion
[ 7974 7965 7964 7962 ] final -140.50 input  175.53 | X-H torsion
[ 8008 7997 7996 7995 ] final  -59.98 input   59.86 | X-H torsion
[ 10167 10162 10161 10158 ] final  -13.72 input  -65.29 | X-H torsion
[ 10718 10713 10712 10709 ] final -176.66 input   66.30 | X-H torsion
[ 10763 10752 10751 10750 ] final    5.47 input  -60.55 | X-H torsion
[ 11005 11000 10999 10996 ] final  -63.25 input  -57.11 | X-H torsion

> <Gold.Protein.ActiveResidues>
 VAL166  LYS551  ARG553  GLY616  TRP617  ASP618  TYR619  PRO620  LYS621  CYS622 
 ASP623  PHE694  ASN695  SER759  ASP760  ASP761  ALA762  ILE779  LEU786  VAL792 
 PHE793  MET794  SER795  GLU796  ALA797  LYS798  CYS799  TRP800  GLU811  SER814 

> <Gold.Protein.RotatedAtoms>
  151.7741  133.3344  159.3452 H   0  0  0  0  0  0  0  0  0  0  0  0  # atno 6907 bound_to 6896
  150.7450  134.5991  159.6037 H   0  0  0  0  0  0  0  0  0  0  0  0  # atno 6908 bound_to 6896
  152.3321  134.7247  160.0338 H   0  0  0  0  0  0  0  0  0  0  0  0  # atno 6909 bound_to 6896
  144.8592  140.6192  143.5339 H   0  0  0  0  0  0  0  0  0  0  0  0  # atno 7974 bound_to 7965
  154.4377  140.1050  156.6201 H   0  0  0  0  0  0  0  0  0  0  0  0  # atno 8008 bound_to 7997
  155.5717  140.3489  155.4498 H   0  0  0  0  0  0  0  0  0  0  0  0  # atno 8009 bound_to 7997
  156.0385  140.1276  157.0171 H   0  0  0  0  0  0  0  0  0  0  0  0  # atno 8010 bound_to 7997
  140.7187  143.5397  150.9424 H   0  0  0  0  0  0  0  0  0  0  0  0  # atno 10167 bound_to 10162
  156.8180  130.9610  151.3113 H   0  0  0  0  0  0  0  0  0  0  0  0  # atno 10718 bound_to 10713
  153.2590  135.6921  153.7598 H   0  0  0  0  0  0  0  0  0  0  0  0  # atno 10763 bound_to 10752
  153.6664  135.3351  155.3142 H   0  0  0  0  0  0  0  0  0  0  0  0  # atno 10764 bound_to 10752
  154.8423  135.4489  154.1574 H   0  0  0  0  0  0  0  0  0  0  0  0  # atno 10765 bound_to 10752
  141.1387  133.6649  156.5651 H   0  0  0  0  0  0  0  0  0  0  0  0  # atno 11005 bound_to 11000
  145.4345  139.1544  143.4004 LP  0  0  0  0  0  0  0  0  0  0  0  0  # atno 17320 bound_to 7965
  146.2847  140.4463  142.8762 LP  0  0  0  0  0  0  0  0  0  0  0  0  # atno 17321 bound_to 7965
  139.9119  143.6710  152.3113 LP  0  0  0  0  0  0  0  0  0  0  0  0  # atno 17342 bound_to 10162
  139.7096  144.7622  151.1135 LP  0  0  0  0  0  0  0  0  0  0  0  0  # atno 17343 bound_to 10162
  157.6471  130.8854  149.9560 LP  0  0  0  0  0  0  0  0  0  0  0  0  # atno 17370 bound_to 10713
  156.1005  130.3656  150.0226 LP  0  0  0  0  0  0  0  0  0  0  0  0  # atno 17371 bound_to 10713
  140.3957  134.7401  157.4749 LP  0  0  0  0  0  0  0  0  0  0  0  0  # atno 17394 bound_to 11000
  140.0533  134.6099  155.8835 LP  0  0  0  0  0  0  0  0  0  0  0  0  # atno 17395 bound_to 11000

$$$$
