AV-unprocessed.smi:181|AV-procd|sdf|1453|dock7
  -GOLD-   2262019253D 1   1.00000     0.00000
 Structure written by MMmdl.
 50 53  0  0  0  0  0  0  0  0  1 V2000
  147.2286  141.8316  154.2404 C   0  0  0  0  0  0  0  0  0  0  0  0
  148.5198  141.0696  153.9189 C   0  0  0  0  0  0  0  0  0  0  0  0
  148.7819  140.0113  154.8934 N   0  0  0  0  0  0  0  0  0  0  0  0
  147.8587  139.0225  154.9067 C   0  0  0  0  0  0  0  0  0  0  0  0
  147.5816  138.3676  156.0632 N   0  0  0  0  0  0  0  0  0  0  0  0
  146.6652  137.3949  156.0743 C   0  0  0  0  0  0  0  0  0  0  0  0
  145.9230  136.9348  155.0640 N   0  0  0  0  0  0  0  0  0  0  0  0
  146.1939  137.6023  153.9054 C   0  0  0  0  0  0  0  0  0  0  0  0
  147.1381  138.6529  153.7416 C   0  0  0  0  0  0  0  0  0  0  0  0
  147.1429  139.0926  152.4244 N   0  0  0  0  0  0  0  0  0  0  0  0
  146.2474  138.3434  151.8402 C   0  0  0  0  0  0  0  0  0  0  0  0
  145.6262  137.4240  152.6562 N   0  0  0  0  0  0  0  0  0  0  0  0
  144.5978  136.4704  152.2705 C   0  0  0  0  0  0  0  0  0  0  0  0
  145.0986  135.3601  151.3141 C   0  0  0  0  0  0  0  0  0  0  0  0
  145.5333  135.9871  150.1195 O   0  0  0  0  0  0  0  0  0  0  0  0
  146.2968  134.6158  151.9364 C   0  0  0  0  0  0  0  0  0  0  0  0
  146.7202  133.3954  151.1000 C   0  0  0  0  0  0  0  0  0  0  0  0
  145.6112  132.5242  150.9151 O   0  0  0  0  0  0  0  0  0  0  0  0
  144.5524  133.1300  150.1834 C   0  0  0  0  0  0  0  0  0  0  0  0
  143.9961  134.3386  150.9569 C   0  0  0  0  0  0  0  0  0  0  0  0
  149.5414  140.3134  156.1181 C   0  0  2  0  0  0  0  0  0  0  0  0
  149.0489  141.5659  156.8724 C   0  0  0  0  0  0  0  0  0  0  0  0
  150.3097  142.1335  157.5409 C   0  0  0  0  0  0  0  0  0  0  0  0
  151.4053  141.5886  156.7607 N   0  0  0  0  0  0  0  0  0  0  0  0
  151.0319  140.6017  155.9464 C   0  0  0  0  0  0  0  0  0  0  0  0
  151.7716  139.9873  155.1807 O   0  0  0  0  0  0  0  0  0  0  0  0
  147.0586  142.6263  153.5139 H   0  0  0  0  0  0  0  0  0  0  0  0
  147.2818  142.2901  155.2284 H   0  0  0  0  0  0  0  0  0  0  0  0
  146.3580  141.1762  154.2214 H   0  0  0  0  0  0  0  0  0  0  0  0
  148.4476  140.6357  152.9216 H   0  0  0  0  0  0  0  0  0  0  0  0
  149.3477  141.7805  153.8786 H   0  0  0  0  0  0  0  0  0  0  0  0
  146.5024  136.9184  157.0297 H   0  0  0  0  0  0  0  0  0  0  0  0
  146.0092  138.4438  150.7911 H   0  0  0  0  0  0  0  0  0  0  0  0
  144.1815  136.0311  153.1783 H   0  0  0  0  0  0  0  0  0  0  0  0
  143.7830  137.0251  151.8033 H   0  0  0  0  0  0  0  0  0  0  0  0
  145.7223  135.3169  149.4807 H   0  0  0  0  0  0  0  0  0  0  0  0
  147.1426  135.2922  152.0668 H   0  0  0  0  0  0  0  0  0  0  0  0
  146.0270  134.2702  152.9353 H   0  0  0  0  0  0  0  0  0  0  0  0
  147.1238  133.7001  150.1332 H   0  0  0  0  0  0  0  0  0  0  0  0
  147.5120  132.8497  151.6134 H   0  0  0  0  0  0  0  0  0  0  0  0
  144.9015  133.4239  149.1923 H   0  0  0  0  0  0  0  0  0  0  0  0
  143.7647  132.3916  150.0328 H   0  0  0  0  0  0  0  0  0  0  0  0
  143.5311  133.9769  151.8748 H   0  0  0  0  0  0  0  0  0  0  0  0
  143.2022  134.8093  150.3758 H   0  0  0  0  0  0  0  0  0  0  0  0
  149.4714  139.4570  156.7892 H   0  0  0  0  0  0  0  0  0  0  0  0
  148.6451  142.3233  156.2004 H   0  0  0  0  0  0  0  0  0  0  0  0
  148.2693  141.3297  157.5974 H   0  0  0  0  0  0  0  0  0  0  0  0
  150.3220  143.2237  157.5376 H   0  0  0  0  0  0  0  0  0  0  0  0
  150.3986  141.7893  158.5719 H   0  0  0  0  0  0  0  0  0  0  0  0
  152.3480  141.9448  156.8227 H   0  0  0  0  0  0  0  0  0  0  0  0
  1  2  1  0  0  0  0
  1 27  1  0  0  0  0
  1 28  1  0  0  0  0
  1 29  1  0  0  0  0
  2  3  1  0  0  0  0
  2 30  1  0  0  0  0
  2 31  1  0  0  0  0
  3  4  1  0  0  0  0
  3 21  1  0  0  0  0
  4  9  1  0  0  0  0
  4  5  2  0  0  0  0
  5  6  1  0  0  0  0
  6  7  2  0  0  0  0
  6 32  1  0  0  0  0
  7  8  1  0  0  0  0
  8 12  1  0  0  0  0
  8  9  2  0  0  0  0
  9 10  1  0  0  0  0
 10 11  2  0  0  0  0
 11 12  1  0  0  0  0
 11 33  1  0  0  0  0
 12 13  1  0  0  0  0
 13 14  1  0  0  0  0
 13 34  1  0  0  0  0
 13 35  1  0  0  0  0
 14 20  1  0  0  0  0
 14 15  1  0  0  0  0
 14 16  1  0  0  0  0
 15 36  1  0  0  0  0
 16 17  1  0  0  0  0
 16 37  1  0  0  0  0
 16 38  1  0  0  0  0
 17 18  1  0  0  0  0
 17 39  1  0  0  0  0
 17 40  1  0  0  0  0
 18 19  1  0  0  0  0
 19 20  1  0  0  0  0
 19 41  1  0  0  0  0
 19 42  1  0  0  0  0
 20 43  1  0  0  0  0
 20 44  1  0  0  0  0
 21 25  1  0  0  0  0
 21 22  1  0  0  0  0
 21 45  1  0  0  0  0
 22 23  1  0  0  0  0
 22 46  1  0  0  0  0
 22 47  1  0  0  0  0
 23 24  1  0  0  0  0
 23 48  1  0  0  0  0
 23 49  1  0  0  0  0
 24 25  1  0  0  0  0
 24 50  1  0  0  0  0
 25 26  2  0  0  0  0
M  END
> <s_m_source_file>
AV-unprocessed.smi

> <i_m_source_file_index>
181

> <i_lp_mmshare_version>
43012

> <i_f3d_flags>
0

> <s_epik_input>
Tz1DMVtOSF1bQ0gyXVtDSDJdW0NASF0xTihbQ0gyXVtDSDNdKWMobltjSF1uMiljKGMyMyluW2NIXW4zW0NIMl1DNChbT0hdKVtDSDJdW0NIMl1PW0NIMl1bQ0gyXTQ=

> <s_epik_cmdline>
J2VwaWtfcHl0aG9uJywgJy1waCcsICc3LjAnLCAnLXRuJywgJzgnLCAnLW1hJywgJzIwMCcsICctbWV0YWxfYmluZGluZycsICctaW1hZScsICc8aW5maWxlLm1hZT4nLCAnLW9tYWUnLCAnPG91dGZpbGUubWFlPic=

> <r_lp_tautomer_probability>
1

> <r_epik_Ionization_Penalty>
0.000985257

> <r_epik_Ionization_Penalty_Charging>
0

> <r_epik_Ionization_Penalty_Neutral>
0.000985257

> <r_epik_State_Penalty>
0.000517047

> <r_epik_Charging_Adjusted_Penalty>
0.000517047

> <i_epik_Tot_Q>
0

> <i_epik_Tot_abs_Q>
0

> <r_epik_Metal_State_Penalty>
-0

> <b_epik_Metal_Only>
0

> <s_lp_Force_Field>
OPLS_2005

> <r_lp_Energy>
35.7055

> <b_lp_Chiralities_Consistent>
1

> <s_lp_Variant>
AV-unprocessed.smi:181-1

> <Gold.Version>
5.8.1

> <Gold.Id.Protein>
6NUR|6NUR_protein|mol2

> <Gold.PLP.Fitness>
45.1678

> <Gold.PLP.PLP>
-36.7793

> <Gold.PLP.part.hbond>
-2.9575

> <Gold.PLP.part.metal>
0.0000

> <Gold.PLP.part.buried>
-3.2468

> <Gold.PLP.part.nonpolar>
-31.9752

> <Gold.PLP.part.repulsive>
1.8738

> <Gold.PLP.ligand.clash>
0.0000

> <Gold.PLP.ligand.torsion>
0.8189

> <Gold.PLP.Chemscore.Hbond>
1.9440

> <Gold.PLP.Chemscore.CHOScore>
0.9783

> <Gold.PLP.Chemscore.Metal>
0.0000

> <Gold.Chemscore.Hbonds>
donor molecule, donor type, donor heavy atom, donor atom, acceptor molecule, acceptor atom, score
      L1  H    15    36       P1  7921  0.98
      P1  H  7989  7998       L1    26  0.94
      L1  C    11    33       P1 10171  0.97

> <Gold.PLP.Chemscore.Internal.Correction>
1.2595

> <Gold.Rescore>
     Score         DG    S(hbond)    S(metal)    S(lipo)     H(rot)  DE(clash)    DE(int)     intcor
      9.37     -13.13       1.83        0.00      67.47       2.49       1.49       2.26       ----

> <Gold.Chemscore.Fitness>
9.3745

> <Gold.Chemscore.DG>
-13.1275

> <Gold.Chemscore.ZeroCoef>
-5.4800

> <Gold.Chemscore.Hbond>
1.8345

> <Gold.Chemscore.Metal>
0.0000

> <Gold.Chemscore.Lipo>
67.4670

> <Gold.Chemscore.Internal_Hbond>
0.0000

> <Gold.Chemscore.DEClash>
1.4927

> <Gold.Chemscore.DEInternal>
2.2603

> <Gold.Chemscore.Rot>
2.4897

> <Gold.Chemscore.Internal.Correction>
   9.000000E+99

> <Gold.Chemscore.Hbonds>
donor molecule, donor type, donor heavy atom, donor atom, acceptor molecule, acceptor atom, score
      L1  H    15    36       P1  7921  0.92
      P1  H  7989  7998       L1    26  0.50

> <Gold.Chemscore.Hbond.Weighted>
-6.1274

> <Gold.Chemscore.Metal.Weighted>
-0.0000

> <Gold.Chemscore.Lipo.Weighted>
-7.8936

> <Gold.Chemscore.Internal_Hbond.Weighted>
0.0000

> <Gold.Chemscore.DEClash.Weighted>
1.4927

> <Gold.Chemscore.DEInternal.Weighted>
2.2603

> <Gold.Chemscore.Rot.Weighted>
6.3735

> <Gold.Chemscore.Internal.Correction.Weighted>
   9.000000E+99

> <Gold.Protein.RotatedTorsions>
[ 6907 6896 6895 6894 ] final  -49.38 input  -60.11 | X-H torsion
[ 7974 7965 7964 7962 ] final -177.57 input  175.53 | X-H torsion
[ 8008 7997 7996 7995 ] final   43.95 input   59.86 | X-H torsion
[ 10167 10162 10161 10158 ] final   51.50 input  -65.29 | X-H torsion
[ 10718 10713 10712 10709 ] final  114.17 input   66.30 | X-H torsion
[ 10763 10752 10751 10750 ] final -148.82 input  -60.55 | X-H torsion
[ 11005 11000 10999 10996 ] final   20.43 input  -57.11 | X-H torsion

> <Gold.Protein.ActiveResidues>
 VAL166  LYS551  ARG553  GLY616  TRP617  ASP618  TYR619  PRO620  LYS621  CYS622 
 ASP623  PHE694  ASN695  SER759  ASP760  ASP761  ALA762  ILE779  LEU786  VAL792 
 PHE793  MET794  SER795  GLU796  ALA797  LYS798  CYS799  TRP800  GLU811  SER814 

> <Gold.Protein.RotatedAtoms>
  150.8811  134.8202  159.7225 H   0  0  0  0  0  0  0  0  0  0  0  0  # atno 6907 bound_to 6896
  152.4778  134.4795  159.9671 H   0  0  0  0  0  0  0  0  0  0  0  0  # atno 6908 bound_to 6896
  151.4870  133.3495  159.2882 H   0  0  0  0  0  0  0  0  0  0  0  0  # atno 6909 bound_to 6896
  144.7128  140.0999  143.6417 H   0  0  0  0  0  0  0  0  0  0  0  0  # atno 7974 bound_to 7965
  155.3111  140.3391  155.4244 H   0  0  0  0  0  0  0  0  0  0  0  0  # atno 8008 bound_to 7997
  156.1955  140.1713  156.8045 H   0  0  0  0  0  0  0  0  0  0  0  0  # atno 8009 bound_to 7997
  154.5493  140.0709  156.8625 H   0  0  0  0  0  0  0  0  0  0  0  0  # atno 8010 bound_to 7997
  140.2613  144.3370  150.6317 H   0  0  0  0  0  0  0  0  0  0  0  0  # atno 10167 bound_to 10162
  157.6296  131.0994  150.7148 H   0  0  0  0  0  0  0  0  0  0  0  0  # atno 10718 bound_to 10713
  154.8212  135.3325  154.7033 H   0  0  0  0  0  0  0  0  0  0  0  0  # atno 10763 bound_to 10752
  153.7666  135.6928  153.4919 H   0  0  0  0  0  0  0  0  0  0  0  0  # atno 10764 bound_to 10752
  153.2073  135.4494  155.0287 H   0  0  0  0  0  0  0  0  0  0  0  0  # atno 10765 bound_to 10752
  140.4027  134.1701  155.7664 H   0  0  0  0  0  0  0  0  0  0  0  0  # atno 11005 bound_to 11000
  145.9547  139.2758  143.1191 LP  0  0  0  0  0  0  0  0  0  0  0  0  # atno 17320 bound_to 7965
  145.9285  140.9065  143.0368 LP  0  0  0  0  0  0  0  0  0  0  0  0  # atno 17321 bound_to 7965
  140.5964  143.2167  151.7156 LP  0  0  0  0  0  0  0  0  0  0  0  0  # atno 17342 bound_to 10162
  139.5016  144.3861  152.0327 LP  0  0  0  0  0  0  0  0  0  0  0  0  # atno 17343 bound_to 10162
  156.7489  130.4762  149.5461 LP  0  0  0  0  0  0  0  0  0  0  0  0  # atno 17370 bound_to 10713
  156.1491  130.6297  151.0571 LP  0  0  0  0  0  0  0  0  0  0  0  0  # atno 17371 bound_to 10713
  141.1851  133.8331  157.1117 LP  0  0  0  0  0  0  0  0  0  0  0  0  # atno 17394 bound_to 11000
  140.0325  134.9894  157.0807 LP  0  0  0  0  0  0  0  0  0  0  0  0  # atno 17395 bound_to 11000

$$$$
