AV-unprocessed.smi:101|AV-procd|sdf|935|dock1
  -GOLD-   2262017453D 1   1.00000     0.00000
 Structure written by MMmdl.
 43 45  0  0  0  0  0  0  0  0  2 V2000
  149.6929  135.1060  155.6876 C   0  0  0  0  0  0  0  0  0  0  0  0
  150.2556  136.4846  155.3883 C   0  0  0  0  0  0  0  0  0  0  0  0
  149.6076  137.3742  154.6042 C   0  0  0  0  0  0  0  0  0  0  0  0
  150.1233  138.6304  154.3233 N   0  0  0  0  0  0  0  0  0  0  0  0
  149.3548  139.6268  153.4639 C   0  0  2  0  0  0  0  0  0  0  0  0
  149.4036  140.8958  154.0593 O   0  0  0  0  0  0  0  0  0  0  0  0
  148.1872  141.1854  154.7414 C   0  0  2  0  0  0  0  0  0  0  0  0
  148.2489  140.6732  156.1952 C   0  0  0  0  0  0  0  0  0  0  0  0
  149.1838  141.4370  156.9399 O   0  0  0  0  0  0  0  0  0  0  0  0
  149.9685  140.8380  157.8559 C   0  0  0  0  0  0  0  0  0  0  0  0
  149.7996  139.6820  158.2496 O   0  0  0  0  0  0  0  0  0  0  0  0
  151.0679  141.7215  158.3408 C   0  0  0  0  0  0  0  0  0  0  0  0
  151.1922  143.0281  157.8135 C   0  0  0  0  0  0  0  0  0  0  0  0
  152.2214  143.8838  158.2521 C   0  0  0  0  0  0  0  0  0  0  0  0
  153.1394  143.4432  159.2232 C   0  0  0  0  0  0  0  0  0  0  0  0
  153.0273  142.1453  159.7546 C   0  0  0  0  0  0  0  0  0  0  0  0
  151.9986  141.2882  159.3175 C   0  0  0  0  0  0  0  0  0  0  0  0
  147.1437  140.5201  153.8398 C   0  0  2  0  0  0  0  0  0  0  0  0
  145.9427  140.2057  154.5185 O   0  0  0  0  0  0  0  0  0  0  0  0
  147.8515  139.2686  153.3319 C   0  0  1  0  0  0  0  0  0  0  0  0
  147.4835  139.0399  151.9856 O   0  0  0  0  0  0  0  0  0  0  0  0
  151.3096  139.0478  154.9880 C   0  0  0  0  0  0  0  0  0  0  0  0
  151.6764  140.2137  154.8469 O   0  0  0  0  0  0  0  0  0  0  0  0
  151.9839  138.1502  155.7617 N   0  5  0  0  0  0  0  0  0  0  0  0
  151.5388  136.8802  155.9780 C   0  0  0  0  0  0  0  0  0  0  0  0
  152.1728  136.0695  156.6525 O   0  0  0  0  0  0  0  0  0  0  0  0
  148.7319  134.9534  155.1952 H   0  0  0  0  0  0  0  0  0  0  0  0
  149.5471  134.9793  156.7609 H   0  0  0  0  0  0  0  0  0  0  0  0
  150.3774  134.3321  155.3383 H   0  0  0  0  0  0  0  0  0  0  0  0
  148.6514  137.0822  154.1991 H   0  0  0  0  0  0  0  0  0  0  0  0
  149.8981  139.6389  152.5174 H   0  0  0  0  0  0  0  0  0  0  0  0
  148.0516  142.2676  154.7562 H   0  0  0  0  0  0  0  0  0  0  0  0
  147.2650  140.7047  156.6657 H   0  0  0  0  0  0  0  0  0  0  0  0
  148.5834  139.6355  156.2005 H   0  0  0  0  0  0  0  0  0  0  0  0
  150.4989  143.3888  157.0670 H   0  0  0  0  0  0  0  0  0  0  0  0
  152.3060  144.8794  157.8421 H   0  0  0  0  0  0  0  0  0  0  0  0
  153.9289  144.0992  159.5594 H   0  0  0  0  0  0  0  0  0  0  0  0
  153.7323  141.8057  160.4992 H   0  0  0  0  0  0  0  0  0  0  0  0
  151.9431  140.2975  159.7445 H   0  0  0  0  0  0  0  0  0  0  0  0
  146.9219  141.1954  153.0117 H   0  0  0  0  0  0  0  0  0  0  0  0
  145.2321  140.2257  153.8963 H   0  0  0  0  0  0  0  0  0  0  0  0
  147.6076  138.4061  153.9544 H   0  0  0  0  0  0  0  0  0  0  0  0
  148.2334  139.2104  151.4372 H   0  0  0  0  0  0  0  0  0  0  0  0
  1  2  1  0  0  0  0
  1 27  1  0  0  0  0
  1 28  1  0  0  0  0
  1 29  1  0  0  0  0
  2 25  1  0  0  0  0
  2  3  2  0  0  0  0
  3  4  1  0  0  0  0
  3 30  1  0  0  0  0
  4  5  1  0  0  0  0
  4 22  1  0  0  0  0
  5 20  1  0  0  0  0
  5  6  1  0  0  0  0
  5 31  1  0  0  0  0
  6  7  1  0  0  0  0
  7  8  1  0  0  0  0
  7 18  1  0  0  0  0
  7 32  1  0  0  0  0
  8  9  1  0  0  0  0
  8 33  1  0  0  0  0
  8 34  1  0  0  0  0
  9 10  1  0  0  0  0
 10 11  2  0  0  0  0
 10 12  1  0  0  0  0
 12 17  1  0  0  0  0
 12 13  2  0  0  0  0
 13 14  1  0  0  0  0
 13 35  1  0  0  0  0
 14 15  2  0  0  0  0
 14 36  1  0  0  0  0
 15 16  1  0  0  0  0
 15 37  1  0  0  0  0
 16 17  2  0  0  0  0
 16 38  1  0  0  0  0
 17 39  1  0  0  0  0
 18 19  1  0  0  0  0
 18 20  1  0  0  0  0
 18 40  1  0  0  0  0
 19 41  1  0  0  0  0
 20 21  1  0  0  0  0
 20 42  1  0  0  0  0
 21 43  1  0  0  0  0
 22 23  2  0  0  0  0
 22 24  1  0  0  0  0
 24 25  1  0  0  0  0
 25 26  2  0  0  0  0
M  CHG  1  24  -1
M  END
> <s_m_source_file>
AV-unprocessed.smi

> <i_m_source_file_index>
101

> <i_lp_mmshare_version>
43012

> <i_f3d_flags>
0

> <s_epik_input>
Tz1jMVtuSF1jKD1PKW4oW2NIXWMxW0NIM10pW0NAQEhdMk9bQ0BIXShbQ0BASF0oW09IXSlbQ0BIXTJbT0hdKVtDSDJdT0MoPU8pYzNbY0hdW2NIXVtjSF1bY0hdW2NIXTM=

> <s_epik_cmdline>
J2VwaWtfcHl0aG9uJywgJy1waCcsICc3LjAnLCAnLXRuJywgJzgnLCAnLW1hJywgJzIwMCcsICctbWV0YWxfYmluZGluZycsICctaW1hZScsICc8aW5maWxlLm1hZT4nLCAnLW9tYWUnLCAnPG91dGZpbGUubWFlPic=

> <r_lp_tautomer_probability>
0.999537

> <r_epik_Ionization_Penalty>
3.21006

> <r_epik_Ionization_Penalty_Charging>
5.75142e-08

> <r_epik_Ionization_Penalty_Neutral>
3.21006

> <r_epik_State_Penalty>
3.20925

> <r_epik_Charging_Adjusted_Penalty>
3.20925

> <i_epik_Tot_Q>
-1

> <i_epik_Tot_abs_Q>
1

> <r_epik_Metal_State_Penalty>
0.119957

> <b_epik_Metal_Only>
1

> <s_epik_Chemistry_Notes>
This compound has an ester and may undergo hydrolysis at high or low pH. This compound contains an acetal/aminal-like group ( X-CH(R)-Y where X, Y are N, S, or O) that may be acid/base labile, releasing an aldehyde.

> <s_lp_Force_Field>
OPLS_2005

> <r_lp_Energy>
44.0889

> <b_lp_Chiralities_Consistent>
1

> <s_lp_Variant>
AV-unprocessed.smi:101-23

> <Gold.Version>
5.8.1

> <Gold.Id.Protein>
6NUR|6NUR_protein|mol2

> <Gold.PLP.Fitness>
52.5794

> <Gold.PLP.PLP>
-40.7726

> <Gold.PLP.part.hbond>
-5.3186

> <Gold.PLP.part.metal>
0.0000

> <Gold.PLP.part.buried>
1.1552

> <Gold.PLP.part.nonpolar>
-37.9515

> <Gold.PLP.part.repulsive>
0.7666

> <Gold.PLP.ligand.clash>
0.0000

> <Gold.PLP.ligand.torsion>
0.9659

> <Gold.PLP.Chemscore.Hbond>
3.9426

> <Gold.PLP.Chemscore.CHOScore>
0.5986

> <Gold.PLP.Chemscore.Metal>
0.0000

> <Gold.Chemscore.Hbonds>
donor molecule, donor type, donor heavy atom, donor atom, acceptor molecule, acceptor atom, score
      L1  H    19    41       P1 10175  0.78
      L1  H    21    43       P1  7957  1.00
      P1  H  7989  7998       L1    23  0.89
      P1  H  8011  8017       L1     6  0.22
      P1  H 10752 10764       L1    26  1.00
      L1  C     3    30       P1  7948  0.58

> <Gold.PLP.Chemscore.Internal.Correction>
0.1153

> <Gold.Rescore>
     Score         DG    S(hbond)    S(metal)    S(lipo)     H(rot)  DE(clash)    DE(int)     intcor
     13.37     -17.81       2.86        0.00      95.20       3.27       1.66       2.78       ----

> <Gold.Chemscore.Fitness>
13.3651

> <Gold.Chemscore.DG>
-17.8074

> <Gold.Chemscore.ZeroCoef>
-5.4800

> <Gold.Chemscore.Hbond>
2.8588

> <Gold.Chemscore.Metal>
0.0000

> <Gold.Chemscore.Lipo>
95.2026

> <Gold.Chemscore.Internal_Hbond>
0.0000

> <Gold.Chemscore.DEClash>
1.6632

> <Gold.Chemscore.DEInternal>
2.7791

> <Gold.Chemscore.Rot>
3.2656

> <Gold.Chemscore.Internal.Correction>
   9.000000E+99

> <Gold.Chemscore.Hbonds>
donor molecule, donor type, donor heavy atom, donor atom, acceptor molecule, acceptor atom, score
      L1  H    19    41       P1 10175  0.79
      L1  H    21    43       P1  7957  0.80
      P1  H  7989  7998       L1    23  0.80
      P1  H  8011  8017       L1     6  0.10
      P1  H 10752 10764       L1    26  0.25

> <Gold.Chemscore.Hbond.Weighted>
-9.5485

> <Gold.Chemscore.Metal.Weighted>
-0.0000

> <Gold.Chemscore.Lipo.Weighted>
-11.1387

> <Gold.Chemscore.Internal_Hbond.Weighted>
0.0000

> <Gold.Chemscore.DEClash.Weighted>
1.6632

> <Gold.Chemscore.DEInternal.Weighted>
2.7791

> <Gold.Chemscore.Rot.Weighted>
8.3598

> <Gold.Chemscore.Internal.Correction.Weighted>
   9.000000E+99

> <Gold.Protein.RotatedTorsions>
[ 6907 6896 6895 6894 ] final   79.88 input  -60.11 | X-H torsion
[ 7974 7965 7964 7962 ] final -117.90 input  175.53 | X-H torsion
[ 8008 7997 7996 7995 ] final  122.27 input   59.86 | X-H torsion
[ 10167 10162 10161 10158 ] final -161.03 input  -65.29 | X-H torsion
[ 10718 10713 10712 10709 ] final  138.17 input   66.30 | X-H torsion
[ 10763 10752 10751 10750 ] final   -6.10 input  -60.55 | X-H torsion
[ 11005 11000 10999 10996 ] final  -30.74 input  -57.11 | X-H torsion

> <Gold.Protein.ActiveResidues>
 VAL166  LYS551  ARG553  GLY616  TRP617  ASP618  TYR619  PRO620  LYS621  CYS622 
 ASP623  PHE694  ASN695  SER759  ASP760  ASP761  ALA762  ILE779  LEU786  VAL792 
 PHE793  MET794  SER795  GLU796  ALA797  LYS798  CYS799  TRP800  GLU811  SER814 

> <Gold.Protein.RotatedAtoms>
  152.5215  134.3443  159.9227 H   0  0  0  0  0  0  0  0  0  0  0  0  # atno 6907 bound_to 6896
  151.3393  133.3962  159.2677 H   0  0  0  0  0  0  0  0  0  0  0  0  # atno 6908 bound_to 6896
  150.9817  134.9188  159.7906 H   0  0  0  0  0  0  0  0  0  0  0  0  # atno 6909 bound_to 6896
  145.0800  140.8419  143.4045 H   0  0  0  0  0  0  0  0  0  0  0  0  # atno 7974 bound_to 7965
  156.2721  140.2789  156.1441 H   0  0  0  0  0  0  0  0  0  0  0  0  # atno 8008 bound_to 7997
  155.0922  140.0389  157.2690 H   0  0  0  0  0  0  0  0  0  0  0  0  # atno 8009 bound_to 7997
  154.6880  140.2623  155.6847 H   0  0  0  0  0  0  0  0  0  0  0  0  # atno 8010 bound_to 7997
  139.6496  144.0109  152.2152 H   0  0  0  0  0  0  0  0  0  0  0  0  # atno 10167 bound_to 10162
  157.4282  131.1046  151.0279 H   0  0  0  0  0  0  0  0  0  0  0  0  # atno 10718 bound_to 10713
  153.4077  135.7007  153.6381 H   0  0  0  0  0  0  0  0  0  0  0  0  # atno 10763 bound_to 10752
  153.4888  135.3677  155.2481 H   0  0  0  0  0  0  0  0  0  0  0  0  # atno 10764 bound_to 10752
  154.8715  135.4084  154.3423 H   0  0  0  0  0  0  0  0  0  0  0  0  # atno 10765 bound_to 10752
  140.9409  133.7279  156.1074 H   0  0  0  0  0  0  0  0  0  0  0  0  # atno 11005 bound_to 11000
  145.1190  139.2706  143.5598 LP  0  0  0  0  0  0  0  0  0  0  0  0  # atno 17320 bound_to 7965
  146.3531  140.0808  142.8618 LP  0  0  0  0  0  0  0  0  0  0  0  0  # atno 17321 bound_to 7965
  139.9820  144.6422  150.7892 LP  0  0  0  0  0  0  0  0  0  0  0  0  # atno 17342 bound_to 10162
  140.7531  143.3002  151.3100 LP  0  0  0  0  0  0  0  0  0  0  0  0  # atno 17343 bound_to 10162
  157.1185  130.6052  149.5499 LP  0  0  0  0  0  0  0  0  0  0  0  0  # atno 17370 bound_to 10713
  155.9904  130.4955  150.7254 LP  0  0  0  0  0  0  0  0  0  0  0  0  # atno 17371 bound_to 10713
  140.7736  134.3805  157.5502 LP  0  0  0  0  0  0  0  0  0  0  0  0  # atno 17394 bound_to 11000
  139.8820  134.9037  156.2861 LP  0  0  0  0  0  0  0  0  0  0  0  0  # atno 17395 bound_to 11000

$$$$
