AV-unprocessed.smi:1347|AV-procd|sdf|5516|dock7
  -GOLD-   22720 5103D 1   1.00000     0.00000
 Structure written by MMmdl.
 38 39  0  0  0  0  0  0  0  0  1 V2000
  145.9526  147.4174  159.7253 C   0  0  0  0  0  0  0  0  0  0  0  0
  146.6595  146.2244  160.0149 O   0  0  0  0  0  0  0  0  0  0  0  0
  145.8548  145.0675  159.8549 C   0  0  0  0  0  0  0  0  0  0  0  0
  146.7596  143.8404  159.7558 C   0  0  0  0  0  0  0  0  0  0  0  0
  146.6618  142.9287  160.5769 O   0  0  0  0  0  0  0  0  0  0  0  0
  147.6298  143.8249  158.7355 N   0  0  0  0  0  0  0  0  0  0  0  0
  148.5387  142.7275  158.4221 C   0  0  0  0  0  0  0  0  0  0  0  0
  150.0118  143.0833  158.5964 C   0  0  0  0  0  0  0  0  0  0  0  0
  150.3803  144.0704  159.5350 C   0  0  0  0  0  0  0  0  0  0  0  0
  151.7400  144.3937  159.6944 C   0  0  0  0  0  0  0  0  0  0  0  0
  152.6846  143.7149  158.9030 C   0  0  0  0  0  0  0  0  0  0  0  0
  152.3495  142.7703  157.9995 N   0  0  0  0  0  0  0  0  0  0  0  0
  151.0403  142.4561  157.8456 C   0  0  0  0  0  0  0  0  0  0  0  0
  150.7229  141.4682  156.9003 N   0  0  0  0  0  0  0  0  0  0  0  0
  149.9662  141.9550  155.7552 C   0  0  0  0  0  0  0  0  0  0  0  0
  149.5255  140.7673  154.8816 C   0  0  0  0  0  0  0  0  0  0  0  0
  150.6661  140.0015  154.5012 O   0  0  0  0  0  0  0  0  0  0  0  0
  151.3619  139.4748  155.6282 C   0  0  0  0  0  0  0  0  0  0  0  0
  151.8517  140.6306  156.5163 C   0  0  0  0  0  0  0  0  0  0  0  0
  146.6088  148.2760  159.8668 H   0  0  0  0  0  0  0  0  0  0  0  0
  145.0938  147.5373  160.3871 H   0  0  0  0  0  0  0  0  0  0  0  0
  145.6031  147.4274  158.6921 H   0  0  0  0  0  0  0  0  0  0  0  0
  145.1875  144.9446  160.7093 H   0  0  0  0  0  0  0  0  0  0  0  0
  145.2376  145.1567  158.9589 H   0  0  0  0  0  0  0  0  0  0  0  0
  147.6429  144.6185  158.1117 H   0  0  0  0  0  0  0  0  0  0  0  0
  148.3047  141.8913  159.0814 H   0  0  0  0  0  0  0  0  0  0  0  0
  148.3502  142.3762  157.4064 H   0  0  0  0  0  0  0  0  0  0  0  0
  149.6322  144.5726  160.1306 H   0  0  0  0  0  0  0  0  0  0  0  0
  152.0510  145.1429  160.4072 H   0  0  0  0  0  0  0  0  0  0  0  0
  153.7372  143.9368  158.9974 H   0  0  0  0  0  0  0  0  0  0  0  0
  149.0944  142.5135  156.0980 H   0  0  0  0  0  0  0  0  0  0  0  0
  150.5816  142.6396  155.1701 H   0  0  0  0  0  0  0  0  0  0  0  0
  148.8135  140.1358  155.4154 H   0  0  0  0  0  0  0  0  0  0  0  0
  149.0224  141.1264  153.9838 H   0  0  0  0  0  0  0  0  0  0  0  0
  150.7112  138.8028  156.1903 H   0  0  0  0  0  0  0  0  0  0  0  0
  152.2082  138.8824  155.2799 H   0  0  0  0  0  0  0  0  0  0  0  0
  152.5879  141.2273  155.9760 H   0  0  0  0  0  0  0  0  0  0  0  0
  152.3428  140.2380  157.4076 H   0  0  0  0  0  0  0  0  0  0  0  0
  1  2  1  0  0  0  0
  1 20  1  0  0  0  0
  1 21  1  0  0  0  0
  1 22  1  0  0  0  0
  2  3  1  0  0  0  0
  3  4  1  0  0  0  0
  3 23  1  0  0  0  0
  3 24  1  0  0  0  0
  4  5  2  0  0  0  0
  4  6  1  0  0  0  0
  6  7  1  0  0  0  0
  6 25  1  0  0  0  0
  7  8  1  0  0  0  0
  7 26  1  0  0  0  0
  7 27  1  0  0  0  0
  8 13  1  0  0  0  0
  8  9  2  0  0  0  0
  9 10  1  0  0  0  0
  9 28  1  0  0  0  0
 10 11  2  0  0  0  0
 10 29  1  0  0  0  0
 11 12  1  0  0  0  0
 11 30  1  0  0  0  0
 12 13  2  0  0  0  0
 13 14  1  0  0  0  0
 14 19  1  0  0  0  0
 14 15  1  0  0  0  0
 15 16  1  0  0  0  0
 15 31  1  0  0  0  0
 15 32  1  0  0  0  0
 16 17  1  0  0  0  0
 16 33  1  0  0  0  0
 16 34  1  0  0  0  0
 17 18  1  0  0  0  0
 18 19  1  0  0  0  0
 18 35  1  0  0  0  0
 18 36  1  0  0  0  0
 19 37  1  0  0  0  0
 19 38  1  0  0  0  0
M  END
> <s_m_source_file>
AV-unprocessed.smi

> <i_m_source_file_index>
1347

> <i_lp_mmshare_version>
43012

> <i_f3d_flags>
0

> <s_epik_input>
W0NIM11PW0NIMl1DKD1PKVtOSF1bQ0gyXWMxW2NIXVtjSF1bY0hdbmMxTjJbQ0gyXVtDSDJdT1tDSDJdW0NIMl0y

> <s_epik_cmdline>
J2VwaWtfcHl0aG9uJywgJy1waCcsICc3LjAnLCAnLXRuJywgJzgnLCAnLW1hJywgJzIwMCcsICctbWV0YWxfYmluZGluZycsICctaW1hZScsICc8aW5maWxlLm1hZT4nLCAnLW9tYWUnLCAnPG91dGZpbGUubWFlPic=

> <r_lp_tautomer_probability>
1

> <r_epik_Ionization_Penalty>
0.00422298

> <r_epik_Ionization_Penalty_Charging>
0

> <r_epik_Ionization_Penalty_Neutral>
0.00422298

> <r_epik_State_Penalty>
0.00303469

> <r_epik_Charging_Adjusted_Penalty>
0.00303469

> <i_epik_Tot_Q>
0

> <i_epik_Tot_abs_Q>
0

> <r_epik_Metal_State_Penalty>
-0

> <b_epik_Metal_Only>
0

> <s_lp_Force_Field>
OPLS_2005

> <r_lp_Energy>
19.5871

> <b_lp_Chiralities_Consistent>
1

> <s_lp_Variant>
AV-unprocessed.smi:1347-1

> <Gold.Version>
5.8.1

> <Gold.Id.Protein>
6NUR|6NUR_protein|mol2

> <Gold.PLP.Fitness>
41.2873

> <Gold.PLP.PLP>
-31.0777

> <Gold.PLP.part.hbond>
-4.0000

> <Gold.PLP.part.metal>
0.0000

> <Gold.PLP.part.buried>
-2.0661

> <Gold.PLP.part.nonpolar>
-25.6510

> <Gold.PLP.part.repulsive>
0.9810

> <Gold.PLP.ligand.clash>
0.0000

> <Gold.PLP.ligand.torsion>
0.7468

> <Gold.PLP.Chemscore.Hbond>
3.8479

> <Gold.PLP.Chemscore.CHOScore>
0.0000

> <Gold.PLP.Chemscore.Metal>
0.0000

> <Gold.Chemscore.Hbonds>
donor molecule, donor type, donor heavy atom, donor atom, acceptor molecule, acceptor atom, score
      L1  H     6    25       P1  8029  1.00
      P1  H  6933  6944       L1     5  0.77
      P1  H  6934  6946       L1     5  0.84
      P1  H  7989  7998       L1    17  1.00

> <Gold.PLP.Chemscore.Internal.Correction>
0.1596

> <Gold.Rescore>
     Score         DG    S(hbond)    S(metal)    S(lipo)     H(rot)  DE(clash)    DE(int)     intcor
     17.78     -19.90       3.05        0.00      78.61       1.94       1.34       0.78       ----

> <Gold.Chemscore.Fitness>
17.7793

> <Gold.Chemscore.DG>
-19.8993

> <Gold.Chemscore.ZeroCoef>
-5.4800

> <Gold.Chemscore.Hbond>
3.0492

> <Gold.Chemscore.Metal>
0.0000

> <Gold.Chemscore.Lipo>
78.6124

> <Gold.Chemscore.Internal_Hbond>
0.0000

> <Gold.Chemscore.DEClash>
1.3381

> <Gold.Chemscore.DEInternal>
0.7820

> <Gold.Chemscore.Rot>
1.9385

> <Gold.Chemscore.Internal.Correction>
   9.000000E+99

> <Gold.Chemscore.Hbonds>
donor molecule, donor type, donor heavy atom, donor atom, acceptor molecule, acceptor atom, score
      L1  H     6    25       P1  8029  0.68
      P1  H  6933  6944       L1     5  0.65
      P1  H  6934  6946       L1     5  0.79
      P1  H  7989  7998       L1    17  0.63

> <Gold.Chemscore.Hbond.Weighted>
-10.1844

> <Gold.Chemscore.Metal.Weighted>
-0.0000

> <Gold.Chemscore.Lipo.Weighted>
-9.1977

> <Gold.Chemscore.Internal_Hbond.Weighted>
0.0000

> <Gold.Chemscore.DEClash.Weighted>
1.3381

> <Gold.Chemscore.DEInternal.Weighted>
0.7820

> <Gold.Chemscore.Rot.Weighted>
4.9627

> <Gold.Chemscore.Internal.Correction.Weighted>
   9.000000E+99

> <Gold.Protein.RotatedTorsions>
[ 6907 6896 6895 6894 ] final  -12.43 input  -60.11 | X-H torsion
[ 7974 7965 7964 7962 ] final  -64.98 input  175.53 | X-H torsion
[ 8008 7997 7996 7995 ] final   56.47 input   59.86 | X-H torsion
[ 10167 10162 10161 10158 ] final  -64.73 input  -65.29 | X-H torsion
[ 10718 10713 10712 10709 ] final -120.02 input   66.30 | X-H torsion
[ 10763 10752 10751 10750 ] final  -93.12 input  -60.55 | X-H torsion
[ 11005 11000 10999 10996 ] final  -23.01 input  -57.11 | X-H torsion

> <Gold.Protein.ActiveResidues>
 VAL166  LYS551  ARG553  GLY616  TRP617  ASP618  TYR619  PRO620  LYS621  CYS622 
 ASP623  PHE694  ASN695  SER759  ASP760  ASP761  ALA762  ILE779  LEU786  VAL792 
 PHE793  MET794  SER795  GLU796  ALA797  LYS798  CYS799  TRP800  GLU811  SER814 

> <Gold.Protein.RotatedAtoms>
  151.3707  135.0922  159.9464 H   0  0  0  0  0  0  0  0  0  0  0  0  # atno 6907 bound_to 6896
  152.5136  133.9168  159.7525 H   0  0  0  0  0  0  0  0  0  0  0  0  # atno 6908 bound_to 6896
  150.9581  133.6421  159.2788 H   0  0  0  0  0  0  0  0  0  0  0  0  # atno 6909 bound_to 6896
  145.7600  140.8866  143.0435 H   0  0  0  0  0  0  0  0  0  0  0  0  # atno 7974 bound_to 7965
  155.5179  140.3479  155.4401 H   0  0  0  0  0  0  0  0  0  0  0  0  # atno 8008 bound_to 7997
  156.0804  140.1385  156.9746 H   0  0  0  0  0  0  0  0  0  0  0  0  # atno 8009 bound_to 7997
  154.4577  140.0947  156.6780 H   0  0  0  0  0  0  0  0  0  0  0  0  # atno 8010 bound_to 7997
  140.5780  143.2324  151.6401 H   0  0  0  0  0  0  0  0  0  0  0  0  # atno 10167 bound_to 10162
  156.1225  130.6334  150.9488 H   0  0  0  0  0  0  0  0  0  0  0  0  # atno 10718 bound_to 10713
  154.6928  135.5206  153.8416 H   0  0  0  0  0  0  0  0  0  0  0  0  # atno 10763 bound_to 10752
  153.0645  135.6580  154.0396 H   0  0  0  0  0  0  0  0  0  0  0  0  # atno 10764 bound_to 10752
  154.0267  135.2989  155.3353 H   0  0  0  0  0  0  0  0  0  0  0  0  # atno 10765 bound_to 10752
  140.8712  133.7719  156.0188 H   0  0  0  0  0  0  0  0  0  0  0  0  # atno 11005 bound_to 11000
  144.6832  139.9710  143.7482 LP  0  0  0  0  0  0  0  0  0  0  0  0  # atno 17320 bound_to 7965
  146.0273  139.3304  143.0776 LP  0  0  0  0  0  0  0  0  0  0  0  0  # atno 17321 bound_to 7965
  139.5154  144.3381  152.0765 LP  0  0  0  0  0  0  0  0  0  0  0  0  # atno 17342 bound_to 10162
  140.2527  144.4151  150.6215 LP  0  0  0  0  0  0  0  0  0  0  0  0  # atno 17343 bound_to 10162
  157.6408  131.0910  150.8254 LP  0  0  0  0  0  0  0  0  0  0  0  0  # atno 17370 bound_to 10713
  156.8349  130.5028  149.5327 LP  0  0  0  0  0  0  0  0  0  0  0  0  # atno 17371 bound_to 10713
  140.8571  134.2884  157.5250 LP  0  0  0  0  0  0  0  0  0  0  0  0  # atno 17394 bound_to 11000
  139.8712  134.9499  156.4038 LP  0  0  0  0  0  0  0  0  0  0  0  0  # atno 17395 bound_to 11000

$$$$
