AV-unprocessed.smi:54|AV-procd|sdf|555|dock3
  -GOLD-   2262016453D 1   1.00000     0.00000
 Structure written by MMmdl.
 43 45  0  0  0  0  0  0  0  0  2 V2000
  152.5367  142.5467  160.6707 C   0  0  0  0  0  0  0  0  0  0  0  0
  152.2834  143.2638  159.3340 C   0  0  0  0  0  0  0  0  0  0  0  0
  151.3594  144.4786  159.5196 C   0  0  0  0  0  0  0  0  0  0  0  0
  151.7011  142.2926  158.2974 C   0  0  0  0  0  0  0  0  0  0  0  0
  150.6603  142.5959  157.7089 O   0  0  0  0  0  0  0  0  0  0  0  0
  152.4047  141.1528  158.1122 N   0  0  0  0  0  0  0  0  0  0  0  0
  152.1408  140.0823  157.2496 C   0  0  0  0  0  0  0  0  0  0  0  0
  150.9785  139.9885  156.6430 N   0  0  0  0  0  0  0  0  0  0  0  0
  150.8948  138.8711  155.8365 C   0  0  0  0  0  0  0  0  0  0  0  0
  151.8484  137.9142  155.6263 C   0  0  0  0  0  0  0  0  0  0  0  0
  151.4013  136.9377  154.7445 N   0  0  0  0  0  0  0  0  0  0  0  0
  150.1720  137.3637  154.4572 C   0  0  0  0  0  0  0  0  0  0  0  0
  149.7991  138.5113  155.0621 N   0  0  0  0  0  0  0  0  0  0  0  0
  148.4981  139.2499  154.9498 C   0  0  2  0  0  0  0  0  0  0  0  0
  147.6101  138.4769  154.1976 O   0  0  0  0  0  0  0  0  0  0  0  0
  147.5020  139.0132  152.8857 C   0  0  1  0  0  0  0  0  0  0  0  0
  146.2318  138.5056  152.1825 C   0  0  0  0  0  0  0  0  0  0  0  0
  146.5323  138.1029  150.8635 O   0  0  0  0  0  0  0  0  0  0  0  0
  147.6152  140.5257  153.1162 C   0  0  1  0  0  0  0  0  0  0  0  0
  146.3789  141.0752  153.5330 O   0  0  0  0  0  0  0  0  0  0  0  0
  148.6457  140.6174  154.2354 C   0  0  2  0  0  0  0  0  0  0  0  0
  149.9311  140.8509  153.6847 O   0  0  0  0  0  0  0  0  0  0  0  0
  153.1332  138.0831  156.3456 C   0  0  0  0  0  0  0  0  0  0  0  0
  154.0212  137.2472  156.1892 O   0  0  0  0  0  0  0  0  0  0  0  0
  153.2191  139.1894  157.1451 N   0  5  0  0  0  0  0  0  0  0  0  0
  148.1423  139.3318  155.9775 H   0  0  0  0  0  0  0  0  0  0  0  0
  148.3753  138.6808  152.3220 H   0  0  0  0  0  0  0  0  0  0  0  0
  147.9273  141.0508  152.2123 H   0  0  0  0  0  0  0  0  0  0  0  0
  148.4232  141.4230  154.9365 H   0  0  0  0  0  0  0  0  0  0  0  0
  153.1977  141.6889  160.5407 H   0  0  0  0  0  0  0  0  0  0  0  0
  151.6085  142.1882  161.1173 H   0  0  0  0  0  0  0  0  0  0  0  0
  153.0096  143.2177  161.3883 H   0  0  0  0  0  0  0  0  0  0  0  0
  153.2435  143.6281  158.9644 H   0  0  0  0  0  0  0  0  0  0  0  0
  151.1713  144.9819  158.5703 H   0  0  0  0  0  0  0  0  0  0  0  0
  151.8078  145.2093  160.1930 H   0  0  0  0  0  0  0  0  0  0  0  0
  150.3955  144.1901  159.9407 H   0  0  0  0  0  0  0  0  0  0  0  0
  153.2426  141.0729  158.6692 H   0  0  0  0  0  0  0  0  0  0  0  0
  149.5268  136.8195  153.7840 H   0  0  0  0  0  0  0  0  0  0  0  0
  145.8299  137.6468  152.7203 H   0  0  0  0  0  0  0  0  0  0  0  0
  145.4486  139.2637  152.1675 H   0  0  0  0  0  0  0  0  0  0  0  0
  145.7324  138.1026  150.3601 H   0  0  0  0  0  0  0  0  0  0  0  0
  145.6867  140.6486  153.0518 H   0  0  0  0  0  0  0  0  0  0  0  0
  149.8922  140.6983  152.7532 H   0  0  0  0  0  0  0  0  0  0  0  0
  1  2  1  0  0  0  0
  1 30  1  0  0  0  0
  1 31  1  0  0  0  0
  1 32  1  0  0  0  0
  2  3  1  0  0  0  0
  2  4  1  0  0  0  0
  2 33  1  0  0  0  0
  3 34  1  0  0  0  0
  3 35  1  0  0  0  0
  3 36  1  0  0  0  0
  4  5  2  0  0  0  0
  4  6  1  0  0  0  0
  6 37  1  0  0  0  0
  6  7  1  0  0  0  0
  7 25  1  0  0  0  0
  7  8  2  0  0  0  0
  8  9  1  0  0  0  0
  9 13  1  0  0  0  0
  9 10  2  0  0  0  0
 10 11  1  0  0  0  0
 10 23  1  0  0  0  0
 11 12  2  0  0  0  0
 12 13  1  0  0  0  0
 12 38  1  0  0  0  0
 13 14  1  0  0  0  0
 14 26  1  0  0  0  0
 14 21  1  0  0  0  0
 14 15  1  0  0  0  0
 15 16  1  0  0  0  0
 16 27  1  0  0  0  0
 16 17  1  0  0  0  0
 16 19  1  0  0  0  0
 17 18  1  0  0  0  0
 17 39  1  0  0  0  0
 17 40  1  0  0  0  0
 18 41  1  0  0  0  0
 19 28  1  0  0  0  0
 19 20  1  0  0  0  0
 19 21  1  0  0  0  0
 20 42  1  0  0  0  0
 21 29  1  0  0  0  0
 21 22  1  0  0  0  0
 22 43  1  0  0  0  0
 23 24  2  0  0  0  0
 23 25  1  0  0  0  0
M  CHG  1  25  -1
M  END
> <s_m_source_file>
AV-unprocessed.smi

> <i_m_source_file_index>
54

> <i_lp_mmshare_version>
43012

> <i_f3d_flags>
0

> <s_epik_input>
W0NIM11bQ0hdKFtDSDNdKUMoPU8pW05IXWMobjEpW25IXWMoPU8pYyhjMTIpbltjSF1uMltDQEBIXTNPW0NASF0oW0NIMl1bT0hdKVtDQEBIXShbT0hdKVtDQEhdM1tPSF0=

> <s_epik_cmdline>
J2VwaWtfcHl0aG9uJywgJy1waCcsICc3LjAnLCAnLXRuJywgJzgnLCAnLW1hJywgJzIwMCcsICctbWV0YWxfYmluZGluZycsICctaW1hZScsICc8aW5maWxlLm1hZT4nLCAnLW9tYWUnLCAnPG91dGZpbGUubWFlPic=

> <r_lp_tautomer_probability>
0.85571

> <r_epik_Ionization_Penalty>
1.75936

> <r_epik_Ionization_Penalty_Charging>
4.55893e-11

> <r_epik_Ionization_Penalty_Neutral>
1.75936

> <r_epik_State_Penalty>
1.72072

> <r_epik_Charging_Adjusted_Penalty>
1.72072

> <i_epik_Tot_Q>
-1

> <i_epik_Tot_abs_Q>
1

> <r_epik_Metal_State_Penalty>
0.400338

> <b_epik_Metal_Only>
1

> <s_epik_Chemistry_Notes>
This compound contains an acetal/aminal-like group ( X-CH(R)-Y where X, Y are N, S, or O) that may be acid/base labile, releasing an aldehyde.

> <s_lp_Force_Field>
OPLS_2005

> <r_lp_Energy>
56.9095

> <b_lp_Chiralities_Consistent>
1

> <s_lp_Variant>
AV-unprocessed.smi:54-27

> <Gold.Version>
5.8.1

> <Gold.Id.Protein>
6NUR|6NUR_protein|mol2

> <Gold.PLP.Fitness>
62.2777

> <Gold.PLP.PLP>
-38.8398

> <Gold.PLP.part.hbond>
-9.2571

> <Gold.PLP.part.metal>
0.0000

> <Gold.PLP.part.buried>
3.1678

> <Gold.PLP.part.nonpolar>
-32.7454

> <Gold.PLP.part.repulsive>
0.5024

> <Gold.PLP.ligand.clash>
0.0000

> <Gold.PLP.ligand.torsion>
0.8524

> <Gold.PLP.Chemscore.Hbond>
7.3569

> <Gold.PLP.Chemscore.CHOScore>
1.0000

> <Gold.PLP.Chemscore.Metal>
0.0000

> <Gold.Chemscore.Hbonds>
donor molecule, donor type, donor heavy atom, donor atom, acceptor molecule, acceptor atom, score
      L1  H    18    41       P1 10171  1.00
      L1  H    20    42       P1 10175  0.86
      L1  H    22    43       P1  7957  1.00
      P1  H  7954  7966       L1    18  1.00
      P1  H  7989  7998       L1    22  0.10
      P1  H  7997  8008       L1    25  2.00
      P1  H 10752 10764       L1    11  0.98
      P1  H 10752 10765       L1    24  0.24
      L1  C    12    38       P1  7948  1.00

> <Gold.PLP.Chemscore.Internal.Correction>
0.0721

> <Gold.Rescore>
     Score         DG    S(hbond)    S(metal)    S(lipo)     H(rot)  DE(clash)    DE(int)     intcor
     14.68     -18.34       4.44        0.00      70.99       4.02       0.67       2.99       ----

> <Gold.Chemscore.Fitness>
14.6814

> <Gold.Chemscore.DG>
-18.3388

> <Gold.Chemscore.ZeroCoef>
-5.4800

> <Gold.Chemscore.Hbond>
4.4436

> <Gold.Chemscore.Metal>
0.0000

> <Gold.Chemscore.Lipo>
70.9944

> <Gold.Chemscore.Internal_Hbond>
0.0000

> <Gold.Chemscore.DEClash>
0.6708

> <Gold.Chemscore.DEInternal>
2.9866

> <Gold.Chemscore.Rot>
4.0192

> <Gold.Chemscore.Internal.Correction>
   9.000000E+99

> <Gold.Chemscore.Hbonds>
donor molecule, donor type, donor heavy atom, donor atom, acceptor molecule, acceptor atom, score
      L1  H    18    41       P1 10171  0.97
      L1  H    20    42       P1 10175  0.60
      L1  H    22    43       P1  7957  1.00
      P1  H  7954  7966       L1    18  0.91
      P1  H  7997  8008       L1    25  0.59
      P1  H 10752 10764       L1    11  0.64
      P1  H 10752 10765       L1    24  0.24

> <Gold.Chemscore.Hbond.Weighted>
-14.8417

> <Gold.Chemscore.Metal.Weighted>
-0.0000

> <Gold.Chemscore.Lipo.Weighted>
-8.3063

> <Gold.Chemscore.Internal_Hbond.Weighted>
0.0000

> <Gold.Chemscore.DEClash.Weighted>
0.6708

> <Gold.Chemscore.DEInternal.Weighted>
2.9866

> <Gold.Chemscore.Rot.Weighted>
10.2893

> <Gold.Chemscore.Internal.Correction.Weighted>
   9.000000E+99

> <Gold.Protein.RotatedTorsions>
[ 6907 6896 6895 6894 ] final   29.50 input  -60.11 | X-H torsion
[ 7974 7965 7964 7962 ] final  117.10 input  175.53 | X-H torsion
[ 8008 7997 7996 7995 ] final  -82.56 input   59.86 | X-H torsion
[ 10167 10162 10161 10158 ] final -116.79 input  -65.29 | X-H torsion
[ 10718 10713 10712 10709 ] final -175.62 input   66.30 | X-H torsion
[ 10763 10752 10751 10750 ] final  -74.90 input  -60.55 | X-H torsion
[ 11005 11000 10999 10996 ] final  122.82 input  -57.11 | X-H torsion

> <Gold.Protein.ActiveResidues>
 VAL166  LYS551  ARG553  GLY616  TRP617  ASP618  TYR619  PRO620  LYS621  CYS622 
 ASP623  PHE694  ASN695  SER759  ASP760  ASP761  ALA762  ILE779  LEU786  VAL792 
 PHE793  MET794  SER795  GLU796  ALA797  LYS798  CYS799  TRP800  GLU811  SER814 

> <Gold.Protein.RotatedAtoms>
  152.0324  134.9760  160.0572 H   0  0  0  0  0  0  0  0  0  0  0  0  # atno 6907 bound_to 6896
  152.1231  133.4360  159.4693 H   0  0  0  0  0  0  0  0  0  0  0  0  # atno 6908 bound_to 6896
  150.6850  134.2430  159.4523 H   0  0  0  0  0  0  0  0  0  0  0  0  # atno 6909 bound_to 6896
  145.1715  139.3099  143.4465 H   0  0  0  0  0  0  0  0  0  0  0  0  # atno 7974 bound_to 7965
  154.6099  140.0631  156.9480 H   0  0  0  0  0  0  0  0  0  0  0  0  # atno 8008 bound_to 7997
  155.1990  140.3313  155.4328 H   0  0  0  0  0  0  0  0  0  0  0  0  # atno 8009 bound_to 7997
  156.2370  140.1868  156.7075 H   0  0  0  0  0  0  0  0  0  0  0  0  # atno 8010 bound_to 7997
  140.0754  143.4838  152.1956 H   0  0  0  0  0  0  0  0  0  0  0  0  # atno 10167 bound_to 10162
  156.8025  130.9557  151.3118 H   0  0  0  0  0  0  0  0  0  0  0  0  # atno 10718 bound_to 10713
  154.4793  135.5849  153.6377 H   0  0  0  0  0  0  0  0  0  0  0  0  # atno 10763 bound_to 10752
  152.9845  135.6086  154.3267 H   0  0  0  0  0  0  0  0  0  0  0  0  # atno 10764 bound_to 10752
  154.3157  135.2844  155.2523 H   0  0  0  0  0  0  0  0  0  0  0  0  # atno 10765 bound_to 10752
  139.9285  134.9641  156.8166 H   0  0  0  0  0  0  0  0  0  0  0  0  # atno 11005 bound_to 11000
  146.3468  140.1862  142.8589 LP  0  0  0  0  0  0  0  0  0  0  0  0  # atno 17320 bound_to 7965
  145.0228  140.8808  143.5156 LP  0  0  0  0  0  0  0  0  0  0  0  0  # atno 17321 bound_to 7965
  139.5811  144.7511  151.3638 LP  0  0  0  0  0  0  0  0  0  0  0  0  # atno 17342 bound_to 10162
  140.7105  143.7404  150.7558 LP  0  0  0  0  0  0  0  0  0  0  0  0  # atno 17343 bound_to 10162
  157.6546  130.8913  149.9703 LP  0  0  0  0  0  0  0  0  0  0  0  0  # atno 17370 bound_to 10713
  156.1092  130.3651  150.0079 LP  0  0  0  0  0  0  0  0  0  0  0  0  # atno 17371 bound_to 10713
  140.6268  133.9942  155.7643 LP  0  0  0  0  0  0  0  0  0  0  0  0  # atno 17394 bound_to 11000
  141.0858  133.9992  157.3315 LP  0  0  0  0  0  0  0  0  0  0  0  0  # atno 17395 bound_to 11000

$$$$
