AV-unprocessed.smi:2928|AV-procd|sdf|11235|dock8
  -GOLD-   2272016133D 1   1.00000     0.00000
 Structure written by MMmdl.
 56 59  0  0  0  0  0  0  0  0  3 V2000
  143.9299  132.6203  151.7159 C   0  0  0  0  0  0  0  0  0  0  0  0
  144.1112  133.6481  152.7688 N   0  3  2  0  0  0  0  0  0  0  0  0
  143.3582  134.9059  152.5478 C   0  0  2  0  0  0  0  0  0  0  0  0
  143.9446  135.7163  151.3635 C   0  0  0  0  0  0  0  0  0  0  0  0
  145.4662  135.9425  151.4396 C   0  0  0  0  0  0  0  0  0  0  0  0
  146.2289  134.7054  151.9471 C   0  0  0  0  0  0  0  0  0  0  0  0
  145.5227  133.9533  153.1030 C   0  0  1  0  0  0  0  0  0  0  0  0
  145.5763  134.6591  154.4780 C   0  0  0  0  0  0  0  0  0  0  0  0
  144.5795  135.8352  154.6734 C   0  0  1  0  0  0  0  0  0  0  0  0
  145.1811  137.1446  154.4361 N   0  0  0  0  0  0  0  0  0  0  0  0
  146.3325  137.5896  154.9590 C   0  0  0  0  0  0  0  0  0  0  0  0
  147.0240  136.9390  155.7416 O   0  0  0  0  0  0  0  0  0  0  0  0
  146.6305  138.8128  154.4930 N   0  0  0  0  0  0  0  0  0  0  0  0
  147.8102  139.5743  154.7221 C   0  0  0  0  0  0  0  0  0  0  0  0
  149.1023  138.9914  154.7572 C   0  0  0  0  0  0  0  0  0  0  0  0
  150.2264  139.8035  155.0077 C   0  0  0  0  0  0  0  0  0  0  0  0
  150.0412  141.1813  155.2269 C   0  0  0  0  0  0  0  0  0  0  0  0
  148.7965  141.7020  155.2026 N   0  3  0  0  0  0  0  0  0  0  0  0
  147.6833  140.9650  154.9678 C   0  0  0  0  0  0  0  0  0  0  0  0
  146.4308  141.6028  154.9621 N   0  0  0  0  0  0  0  0  0  0  0  0
  146.0325  142.2104  156.2206 C   0  0  0  0  0  0  0  0  0  0  0  0
  144.8655  143.1381  155.8724 C   0  0  0  0  0  0  0  0  0  0  0  0
  145.0116  143.4106  154.3699 C   0  0  0  0  0  0  0  0  0  0  0  0
  146.2580  142.6287  153.9478 C   0  0  0  0  0  0  0  0  0  0  0  0
  143.2534  135.6723  153.8877 C   0  0  0  0  0  0  0  0  0  0  0  0
  144.3136  132.9447  150.7491 H   0  0  0  0  0  0  0  0  0  0  0  0
  142.8728  132.3816  151.5965 H   0  0  0  0  0  0  0  0  0  0  0  0
  144.4453  131.7000  151.9915 H   0  0  0  0  0  0  0  0  0  0  0  0
  142.3373  134.6368  152.2725 H   0  0  0  0  0  0  0  0  0  0  0  0
  143.7255  135.1852  150.4367 H   0  0  0  0  0  0  0  0  0  0  0  0
  143.4328  136.6748  151.2726 H   0  0  0  0  0  0  0  0  0  0  0  0
  145.8407  136.2177  150.4532 H   0  0  0  0  0  0  0  0  0  0  0  0
  145.6916  136.8040  152.0583 H   0  0  0  0  0  0  0  0  0  0  0  0
  146.3591  134.0172  151.1115 H   0  0  0  0  0  0  0  0  0  0  0  0
  147.2383  134.9904  152.2452 H   0  0  0  0  0  0  0  0  0  0  0  0
  146.0456  133.0039  153.2290 H   0  0  0  0  0  0  0  0  0  0  0  0
  145.3295  133.9069  155.2286 H   0  0  0  0  0  0  0  0  0  0  0  0
  146.5991  134.9577  154.7099 H   0  0  0  0  0  0  0  0  0  0  0  0
  144.3048  135.8466  155.7301 H   0  0  0  0  0  0  0  0  0  0  0  0
  144.6853  137.7578  153.8058 H   0  0  0  0  0  0  0  0  0  0  0  0
  146.0026  139.1866  153.7965 H   0  0  0  0  0  0  0  0  0  0  0  0
  149.2490  137.9323  154.6091 H   0  0  0  0  0  0  0  0  0  0  0  0
  151.2167  139.3732  155.0353 H   0  0  0  0  0  0  0  0  0  0  0  0
  150.8441  141.8766  155.4254 H   0  0  0  0  0  0  0  0  0  0  0  0
  145.7389  141.4524  156.9474 H   0  0  0  0  0  0  0  0  0  0  0  0
  146.8556  142.7857  156.6467 H   0  0  0  0  0  0  0  0  0  0  0  0
  143.9141  142.6420  156.0685 H   0  0  0  0  0  0  0  0  0  0  0  0
  144.8905  144.0534  156.4648 H   0  0  0  0  0  0  0  0  0  0  0  0
  144.1339  143.0399  153.8388 H   0  0  0  0  0  0  0  0  0  0  0  0
  145.1100  144.4734  154.1473 H   0  0  0  0  0  0  0  0  0  0  0  0
  147.1246  143.2911  153.9208 H   0  0  0  0  0  0  0  0  0  0  0  0
  146.1394  142.1875  152.9577 H   0  0  0  0  0  0  0  0  0  0  0  0
  142.7654  136.6368  153.7408 H   0  0  0  0  0  0  0  0  0  0  0  0
  142.5716  135.1061  154.5242 H   0  0  0  0  0  0  0  0  0  0  0  0
  143.7155  133.2336  153.6008 H   0  0  0  0  0  0  0  0  0  0  0  0
  148.6886  142.7029  155.3685 H   0  0  0  0  0  0  0  0  0  0  0  0
  1  2  1  0  0  0  0
  1 26  1  0  0  0  0
  1 27  1  0  0  0  0
  1 28  1  0  0  0  0
  2  7  1  0  0  0  0
  2  3  1  0  0  0  0
  2 55  1  0  0  0  0
  3 25  1  0  0  0  0
  3  4  1  0  0  0  0
  3 29  1  0  0  0  0
  4  5  1  0  0  0  0
  4 30  1  0  0  0  0
  4 31  1  0  0  0  0
  5  6  1  0  0  0  0
  5 32  1  0  0  0  0
  5 33  1  0  0  0  0
  6  7  1  0  0  0  0
  6 34  1  0  0  0  0
  6 35  1  0  0  0  0
  7  8  1  0  0  0  0
  7 36  1  0  0  0  0
  8  9  1  0  0  0  0
  8 37  1  0  0  0  0
  8 38  1  0  0  0  0
  9 10  1  0  0  0  0
  9 25  1  0  0  0  0
  9 39  1  0  0  0  0
 10 11  1  0  0  0  0
 10 40  1  0  0  0  0
 11 12  2  0  0  0  0
 11 13  1  0  0  0  0
 13 14  1  0  0  0  0
 13 41  1  0  0  0  0
 14 19  1  0  0  0  0
 14 15  2  0  0  0  0
 15 16  1  0  0  0  0
 15 42  1  0  0  0  0
 16 17  2  0  0  0  0
 16 43  1  0  0  0  0
 17 18  1  0  0  0  0
 17 44  1  0  0  0  0
 18 19  2  0  0  0  0
 18 56  1  0  0  0  0
 19 20  1  0  0  0  0
 20 24  1  0  0  0  0
 20 21  1  0  0  0  0
 21 22  1  0  0  0  0
 21 45  1  0  0  0  0
 21 46  1  0  0  0  0
 22 23  1  0  0  0  0
 22 47  1  0  0  0  0
 22 48  1  0  0  0  0
 23 24  1  0  0  0  0
 23 49  1  0  0  0  0
 23 50  1  0  0  0  0
 24 51  1  0  0  0  0
 24 52  1  0  0  0  0
 25 53  1  0  0  0  0
 25 54  1  0  0  0  0
M  CHG  1   2   1
M  CHG  1  18   1
M  END
> <s_m_source_file>
AV-unprocessed.smi

> <i_m_source_file_index>
2928

> <i_lp_mmshare_version>
43012

> <i_f3d_flags>
0

> <s_epik_input>
W0NIMl0xW0NIMl1bQ0gyXVtDQEhdKE4oW0NIM10pW0NIXTEyKVtDSDJdW0NASF0oW0NIMl0yKVtOSF1DKD1PKVtOSF1jM1tjSF1bY0hdW2NIXW5jM040W0NIMl1bQ0gyXVtDSDJdW0NIMl00

> <s_epik_cmdline>
J2VwaWtfcHl0aG9uJywgJy1waCcsICc3LjAnLCAnLXRuJywgJzgnLCAnLW1hJywgJzIwMCcsICctbWV0YWxfYmluZGluZycsICctaW1hZScsICc8aW5maWxlLm1hZT4nLCAnLW9tYWUnLCAnPG91dGZpbGUubWFlPic=

> <r_lp_tautomer_probability>
0.999994

> <r_epik_Ionization_Penalty>
1.2404

> <r_epik_Ionization_Penalty_Charging>
1.24038

> <r_epik_Ionization_Penalty_Neutral>
1.86539e-05

> <r_epik_State_Penalty>
1.30821

> <r_epik_Charging_Adjusted_Penalty>
2.54859

> <i_epik_Tot_Q>
2

> <i_epik_Tot_abs_Q>
2

> <r_epik_Metal_State_Penalty>
1.3782

> <b_epik_Metal_Only>
0

> <s_lp_Force_Field>
OPLS_2005

> <r_lp_Energy>
75.6224

> <b_lp_Chiralities_Consistent>
1

> <s_lp_Variant>
AV-unprocessed.smi:2928-5

> <Gold.Version>
5.8.1

> <Gold.Id.Protein>
6NUR|6NUR_protein|mol2

> <Gold.PLP.Fitness>
40.9839

> <Gold.PLP.PLP>
-31.5262

> <Gold.PLP.part.hbond>
-1.7005

> <Gold.PLP.part.metal>
0.0000

> <Gold.PLP.part.buried>
-4.7969

> <Gold.PLP.part.nonpolar>
-26.6047

> <Gold.PLP.part.repulsive>
0.3000

> <Gold.PLP.ligand.clash>
0.0000

> <Gold.PLP.ligand.torsion>
0.3765

> <Gold.PLP.Chemscore.Hbond>
3.3800

> <Gold.PLP.Chemscore.CHOScore>
0.0000

> <Gold.PLP.Chemscore.Metal>
0.0000

> <Gold.Chemscore.Hbonds>
donor molecule, donor type, donor heavy atom, donor atom, acceptor molecule, acceptor atom, score
      L1  H     2    55       P1 10957  1.37
      L1  H    18    56       P1  8028  1.98

> <Gold.PLP.Chemscore.Internal.Correction>
0.0707

> <Gold.Rescore>
     Score         DG    S(hbond)    S(metal)    S(lipo)     H(rot)  DE(clash)    DE(int)     intcor
     16.27     -17.34       1.86        0.00      74.37       1.19       0.10       0.97       ----

> <Gold.Chemscore.Fitness>
16.2729

> <Gold.Chemscore.DG>
-17.3401

> <Gold.Chemscore.ZeroCoef>
-5.4800

> <Gold.Chemscore.Hbond>
1.8562

> <Gold.Chemscore.Metal>
0.0000

> <Gold.Chemscore.Lipo>
74.3723

> <Gold.Chemscore.Internal_Hbond>
0.0000

> <Gold.Chemscore.DEClash>
0.1013

> <Gold.Chemscore.DEInternal>
0.9659

> <Gold.Chemscore.Rot>
1.1879

> <Gold.Chemscore.Internal.Correction>
   9.000000E+99

> <Gold.Chemscore.Hbonds>
donor molecule, donor type, donor heavy atom, donor atom, acceptor molecule, acceptor atom, score
      L1  H     2    55       P1 10957  0.66
      L1  H    18    56       P1  8028  0.92

> <Gold.Chemscore.Hbond.Weighted>
-6.1996

> <Gold.Chemscore.Metal.Weighted>
-0.0000

> <Gold.Chemscore.Lipo.Weighted>
-8.7016

> <Gold.Chemscore.Internal_Hbond.Weighted>
0.0000

> <Gold.Chemscore.DEClash.Weighted>
0.1013

> <Gold.Chemscore.DEInternal.Weighted>
0.9659

> <Gold.Chemscore.Rot.Weighted>
3.0410

> <Gold.Chemscore.Internal.Correction.Weighted>
   9.000000E+99

> <Gold.Protein.RotatedTorsions>
[ 6907 6896 6895 6894 ] final    0.25 input  -60.11 | X-H torsion
[ 7974 7965 7964 7962 ] final   38.11 input  175.53 | X-H torsion
[ 8008 7997 7996 7995 ] final   -9.35 input   59.86 | X-H torsion
[ 10167 10162 10161 10158 ] final   79.80 input  -65.29 | X-H torsion
[ 10718 10713 10712 10709 ] final   80.75 input   66.30 | X-H torsion
[ 10763 10752 10751 10750 ] final  -44.21 input  -60.55 | X-H torsion
[ 11005 11000 10999 10996 ] final  -32.18 input  -57.11 | X-H torsion

> <Gold.Protein.ActiveResidues>
 VAL166  LYS551  ARG553  GLY616  TRP617  ASP618  TYR619  PRO620  LYS621  CYS622 
 ASP623  PHE694  ASN695  SER759  ASP760  ASP761  ALA762  ILE779  LEU786  VAL792 
 PHE793  MET794  SER795  GLU796  ALA797  LYS798  CYS799  TRP800  GLU811  SER814 

> <Gold.Protein.RotatedAtoms>
  151.5733  135.1061  160.0000 H   0  0  0  0  0  0  0  0  0  0  0  0  # atno 6907 bound_to 6896
  152.4390  133.7409  159.6651 H   0  0  0  0  0  0  0  0  0  0  0  0  # atno 6908 bound_to 6896
  150.8292  133.8050  159.3129 H   0  0  0  0  0  0  0  0  0  0  0  0  # atno 6909 bound_to 6896
  146.1087  139.5812  142.9367 H   0  0  0  0  0  0  0  0  0  0  0  0  # atno 7974 bound_to 7965
  154.5655  140.2357  155.8270 H   0  0  0  0  0  0  0  0  0  0  0  0  # atno 8008 bound_to 7997
  156.2064  140.3038  155.9596 H   0  0  0  0  0  0  0  0  0  0  0  0  # atno 8009 bound_to 7997
  155.2809  140.0422  157.3006 H   0  0  0  0  0  0  0  0  0  0  0  0  # atno 8010 bound_to 7997
  139.9565  144.5990  150.8111 H   0  0  0  0  0  0  0  0  0  0  0  0  # atno 10167 bound_to 10162
  157.6814  130.9973  150.2125 H   0  0  0  0  0  0  0  0  0  0  0  0  # atno 10718 bound_to 10713
  154.0083  135.6685  153.4763 H   0  0  0  0  0  0  0  0  0  0  0  0  # atno 10763 bound_to 10752
  153.0632  135.5016  154.8137 H   0  0  0  0  0  0  0  0  0  0  0  0  # atno 10764 bound_to 10752
  154.7011  135.3079  154.9303 H   0  0  0  0  0  0  0  0  0  0  0  0  # atno 10765 bound_to 10752
  140.9530  133.7209  156.1250 H   0  0  0  0  0  0  0  0  0  0  0  0  # atno 11005 bound_to 11000
  145.5709  141.0394  143.2175 LP  0  0  0  0  0  0  0  0  0  0  0  0  # atno 17320 bound_to 7965
  144.7492  139.7237  143.7280 LP  0  0  0  0  0  0  0  0  0  0  0  0  # atno 17321 bound_to 7965
  140.7566  143.3070  151.2937 LP  0  0  0  0  0  0  0  0  0  0  0  0  # atno 17342 bound_to 10162
  139.6587  144.0229  152.2677 LP  0  0  0  0  0  0  0  0  0  0  0  0  # atno 17343 bound_to 10162
  156.2793  130.3731  149.7951 LP  0  0  0  0  0  0  0  0  0  0  0  0  # atno 17370 bound_to 10713
  156.5645  130.8398  151.3338 LP  0  0  0  0  0  0  0  0  0  0  0  0  # atno 17371 bound_to 10713
  140.7575  134.3976  157.5531 LP  0  0  0  0  0  0  0  0  0  0  0  0  # atno 17394 bound_to 11000
  139.8853  134.8940  156.2649 LP  0  0  0  0  0  0  0  0  0  0  0  0  # atno 17395 bound_to 11000

$$$$
