AV-unprocessed.smi:2817|AV-procd|sdf|10847|dock4
  -GOLD-   2272015293D 1   1.00000     0.00000
 Structure written by MMmdl.
 42 44  0  0  0  0  0  0  0  0  1 V2000
  149.9899  139.2376  157.9268 O   0  0  0  0  0  0  0  0  0  0  0  0
  150.2985  140.4022  157.6735 C   0  0  0  0  0  0  0  0  0  0  0  0
  151.1422  141.2046  158.5595 C   0  0  0  0  0  0  0  0  0  0  0  0
  151.4557  142.4849  158.2474 C   0  0  0  0  0  0  0  0  0  0  0  0
  152.3108  143.3514  159.1618 C   0  0  0  0  0  0  0  0  0  0  0  0
  151.8882  143.3937  160.6396 C   0  0  0  0  0  0  0  0  0  0  0  0
  152.2506  144.8830  160.6343 C   0  0  0  0  0  0  0  0  0  0  0  0
  152.0314  144.8632  159.1175 C   0  0  0  0  0  0  0  0  0  0  0  0
  150.9689  143.0709  157.0731 N   0  0  0  0  0  0  0  0  0  0  0  0
  150.2208  142.3818  156.2717 C   0  0  0  0  0  0  0  0  0  0  0  0
  149.8745  141.0451  156.5466 N   0  0  0  0  0  0  0  0  0  0  0  0
  149.0159  140.3752  155.5565 C   0  0  0  0  0  0  0  0  0  0  0  0
  148.5004  141.3500  154.4742 C   0  0  1  0  0  0  0  0  0  0  0  0
  149.3118  141.2819  153.3185 O   0  0  0  0  0  0  0  0  0  0  0  0
  147.0502  141.0655  154.0469 C   0  0  0  0  0  0  0  0  0  0  0  0
  146.1455  141.6148  154.9978 O   0  0  0  0  0  0  0  0  0  0  0  0
  145.4522  142.7565  154.6584 C   0  0  0  0  0  0  0  0  0  0  0  0
  144.5638  143.2750  155.6231 C   0  0  0  0  0  0  0  0  0  0  0  0
  143.8136  144.4376  155.3619 C   0  0  0  0  0  0  0  0  0  0  0  0
  143.9455  145.0966  154.1258 C   0  0  0  0  0  0  0  0  0  0  0  0
  144.8287  144.5908  153.1540 C   0  0  0  0  0  0  0  0  0  0  0  0
  145.5794  143.4281  153.4157 C   0  0  0  0  0  0  0  0  0  0  0  0
  151.5148  140.7619  159.4718 H   0  0  0  0  0  0  0  0  0  0  0  0
  153.3739  143.1317  159.0489 H   0  0  0  0  0  0  0  0  0  0  0  0
  150.8203  143.2268  160.7934 H   0  0  0  0  0  0  0  0  0  0  0  0
  152.4932  142.7783  161.3059 H   0  0  0  0  0  0  0  0  0  0  0  0
  151.5632  145.5231  161.1880 H   0  0  0  0  0  0  0  0  0  0  0  0
  153.2901  145.0677  160.9103 H   0  0  0  0  0  0  0  0  0  0  0  0
  152.7530  145.4450  158.5434 H   0  0  0  0  0  0  0  0  0  0  0  0
  151.0038  145.1108  158.8441 H   0  0  0  0  0  0  0  0  0  0  0  0
  149.8131  142.7913  155.3460 H   0  0  0  0  0  0  0  0  0  0  0  0
  149.5155  139.5212  155.0940 H   0  0  0  0  0  0  0  0  0  0  0  0
  148.1641  139.9369  156.0801 H   0  0  0  0  0  0  0  0  0  0  0  0
  148.5424  142.3770  154.8391 H   0  0  0  0  0  0  0  0  0  0  0  0
  148.9033  140.6989  152.6972 H   0  0  0  0  0  0  0  0  0  0  0  0
  146.8722  141.5365  153.0788 H   0  0  0  0  0  0  0  0  0  0  0  0
  146.8939  139.9921  153.9264 H   0  0  0  0  0  0  0  0  0  0  0  0
  144.4563  142.7750  156.5746 H   0  0  0  0  0  0  0  0  0  0  0  0
  143.1370  144.8227  156.1103 H   0  0  0  0  0  0  0  0  0  0  0  0
  143.3704  145.9880  153.9234 H   0  0  0  0  0  0  0  0  0  0  0  0
  144.9316  145.0954  152.2047 H   0  0  0  0  0  0  0  0  0  0  0  0
  146.2461  143.0716  152.6454 H   0  0  0  0  0  0  0  0  0  0  0  0
  1  2  2  0  0  0  0
  2 11  1  0  0  0  0
  2  3  1  0  0  0  0
  3  4  2  0  0  0  0
  3 23  1  0  0  0  0
  4  5  1  0  0  0  0
  4  9  1  0  0  0  0
  5  8  1  0  0  0  0
  5  6  1  0  0  0  0
  5 24  1  0  0  0  0
  6  7  1  0  0  0  0
  6 25  1  0  0  0  0
  6 26  1  0  0  0  0
  7  8  1  0  0  0  0
  7 27  1  0  0  0  0
  7 28  1  0  0  0  0
  8 29  1  0  0  0  0
  8 30  1  0  0  0  0
  9 10  2  0  0  0  0
 10 11  1  0  0  0  0
 10 31  1  0  0  0  0
 11 12  1  0  0  0  0
 12 13  1  0  0  0  0
 12 32  1  0  0  0  0
 12 33  1  0  0  0  0
 13 14  1  0  0  0  0
 13 15  1  0  0  0  0
 13 34  1  0  0  0  0
 14 35  1  0  0  0  0
 15 16  1  0  0  0  0
 15 36  1  0  0  0  0
 15 37  1  0  0  0  0
 16 17  1  0  0  0  0
 17 22  1  0  0  0  0
 17 18  2  0  0  0  0
 18 19  1  0  0  0  0
 18 38  1  0  0  0  0
 19 20  2  0  0  0  0
 19 39  1  0  0  0  0
 20 21  1  0  0  0  0
 20 40  1  0  0  0  0
 21 22  2  0  0  0  0
 21 41  1  0  0  0  0
 22 42  1  0  0  0  0
M  END
> <s_m_source_file>
AV-unprocessed.smi

> <i_m_source_file_index>
2817

> <i_lp_mmshare_version>
43012

> <i_f3d_flags>
0

> <s_epik_input>
W0NIMl0xW0NIMl1bQ0gyXVtDSF0xYyhbY0hdYzI9TyluW2NIXW4yW0NIMl1bQ0BIXShbT0hdKVtDSDJdT2MzW2NIXVtjSF1bY0hdW2NIXVtjSF0z

> <s_epik_cmdline>
J2VwaWtfcHl0aG9uJywgJy1waCcsICc3LjAnLCAnLXRuJywgJzgnLCAnLW1hJywgJzIwMCcsICctbWV0YWxfYmluZGluZycsICctaW1hZScsICc8aW5maWxlLm1hZT4nLCAnLW9tYWUnLCAnPG91dGZpbGUubWFlPic=

> <r_lp_tautomer_probability>
1

> <r_epik_Ionization_Penalty>
2.12778e-05

> <r_epik_Ionization_Penalty_Charging>
7.42033e-08

> <r_epik_Ionization_Penalty_Neutral>
2.12036e-05

> <r_epik_State_Penalty>
-0

> <r_epik_Charging_Adjusted_Penalty>
7.42033e-08

> <i_epik_Tot_Q>
0

> <i_epik_Tot_abs_Q>
0

> <r_epik_Metal_State_Penalty>
-0

> <b_epik_Metal_Only>
0

> <s_lp_Force_Field>
OPLS_2005

> <r_lp_Energy>
33.1228

> <b_lp_Chiralities_Consistent>
1

> <s_lp_Variant>
AV-unprocessed.smi:2817-2

> <Gold.Version>
5.8.1

> <Gold.Id.Protein>
6NUR|6NUR_protein|mol2

> <Gold.PLP.Fitness>
49.4936

> <Gold.PLP.PLP>
-47.4966

> <Gold.PLP.part.hbond>
-2.4637

> <Gold.PLP.part.metal>
0.0000

> <Gold.PLP.part.buried>
-4.6949

> <Gold.PLP.part.nonpolar>
-40.0142

> <Gold.PLP.part.repulsive>
0.7075

> <Gold.PLP.ligand.clash>
2.0303

> <Gold.PLP.ligand.torsion>
1.5695

> <Gold.PLP.Chemscore.Hbond>
1.6930

> <Gold.PLP.Chemscore.CHOScore>
0.5299

> <Gold.PLP.Chemscore.Metal>
0.0000

> <Gold.Chemscore.Hbonds>
donor molecule, donor type, donor heavy atom, donor atom, acceptor molecule, acceptor atom, score
      L1  H    14    35       P1  7957  0.56
      P1  H  7989  7998       L1    14  0.03
      P1  H  8011  8017       L1    14  0.95
      L1  C    10    31       P1  8028  0.65

> <Gold.PLP.Chemscore.Internal.Correction>
0.4976

> <Gold.Rescore>
     Score         DG    S(hbond)    S(metal)    S(lipo)     H(rot)  DE(clash)    DE(int)     intcor
     13.63     -18.17       1.22        0.00     126.66       2.42       2.90       1.63       ----

> <Gold.Chemscore.Fitness>
13.6337

> <Gold.Chemscore.DG>
-18.1657

> <Gold.Chemscore.ZeroCoef>
-5.4800

> <Gold.Chemscore.Hbond>
1.2195

> <Gold.Chemscore.Metal>
0.0000

> <Gold.Chemscore.Lipo>
126.6589

> <Gold.Chemscore.Internal_Hbond>
0.0000

> <Gold.Chemscore.DEClash>
2.9048

> <Gold.Chemscore.DEInternal>
1.6272

> <Gold.Chemscore.Rot>
2.4245

> <Gold.Chemscore.Internal.Correction>
   9.000000E+99

> <Gold.Chemscore.Hbonds>
donor molecule, donor type, donor heavy atom, donor atom, acceptor molecule, acceptor atom, score
      L1  H    14    35       P1  7957  0.56
      P1  H  7989  7998       L1    14  0.03
      P1  H  8011  8017       L1    14  0.20

> <Gold.Chemscore.Hbond.Weighted>
-4.0732

> <Gold.Chemscore.Metal.Weighted>
-0.0000

> <Gold.Chemscore.Lipo.Weighted>
-14.8191

> <Gold.Chemscore.Internal_Hbond.Weighted>
0.0000

> <Gold.Chemscore.DEClash.Weighted>
2.9048

> <Gold.Chemscore.DEInternal.Weighted>
1.6272

> <Gold.Chemscore.Rot.Weighted>
6.2066

> <Gold.Chemscore.Internal.Correction.Weighted>
   9.000000E+99

> <Gold.Protein.RotatedTorsions>
[ 6907 6896 6895 6894 ] final   33.77 input  -60.11 | X-H torsion
[ 7974 7965 7964 7962 ] final  -31.63 input  175.53 | X-H torsion
[ 8008 7997 7996 7995 ] final  151.98 input   59.86 | X-H torsion
[ 10167 10162 10161 10158 ] final   19.94 input  -65.29 | X-H torsion
[ 10718 10713 10712 10709 ] final  153.82 input   66.30 | X-H torsion
[ 10763 10752 10751 10750 ] final -131.95 input  -60.55 | X-H torsion
[ 11005 11000 10999 10996 ] final -109.01 input  -57.11 | X-H torsion

> <Gold.Protein.ActiveResidues>
 VAL166  LYS551  ARG553  GLY616  TRP617  ASP618  TYR619  PRO620  LYS621  CYS622 
 ASP623  PHE694  ASN695  SER759  ASP760  ASP761  ALA762  ILE779  LEU786  VAL792 
 PHE793  MET794  SER795  GLU796  ALA797  LYS798  CYS799  TRP800  GLU811  SER814 

> <Gold.Protein.RotatedAtoms>
  152.0931  134.9394  160.0571 H   0  0  0  0  0  0  0  0  0  0  0  0  # atno 6907 bound_to 6896
  152.0637  133.4069  159.4437 H   0  0  0  0  0  0  0  0  0  0  0  0  # atno 6908 bound_to 6896
  150.6837  134.3091  159.4782 H   0  0  0  0  0  0  0  0  0  0  0  0  # atno 6909 bound_to 6896
  146.1053  140.5691  142.8802 H   0  0  0  0  0  0  0  0  0  0  0  0  # atno 7974 bound_to 7965
  156.2650  140.2033  156.6261 H   0  0  0  0  0  0  0  0  0  0  0  0  # atno 8008 bound_to 7997
  154.6719  140.0549  157.0198 H   0  0  0  0  0  0  0  0  0  0  0  0  # atno 8009 bound_to 7997
  155.1125  140.3217  155.4521 H   0  0  0  0  0  0  0  0  0  0  0  0  # atno 8010 bound_to 7997
  140.5541  143.9456  150.6597 H   0  0  0  0  0  0  0  0  0  0  0  0  # atno 10167 bound_to 10162
  157.2397  131.0756  151.1800 H   0  0  0  0  0  0  0  0  0  0  0  0  # atno 10718 bound_to 10713
  154.8747  135.3813  154.4330 H   0  0  0  0  0  0  0  0  0  0  0  0  # atno 10763 bound_to 10752
  153.5022  135.7030  153.5831 H   0  0  0  0  0  0  0  0  0  0  0  0  # atno 10764 bound_to 10752
  153.4157  135.3913  155.2046 H   0  0  0  0  0  0  0  0  0  0  0  0  # atno 10765 bound_to 10752
  141.0870  133.9121  157.2162 H   0  0  0  0  0  0  0  0  0  0  0  0  # atno 11005 bound_to 11000
  144.7466  140.5082  143.6832 LP  0  0  0  0  0  0  0  0  0  0  0  0  # atno 17320 bound_to 7965
  145.5774  139.1487  143.3255 LP  0  0  0  0  0  0  0  0  0  0  0  0  # atno 17321 bound_to 7965
  140.2889  143.3337  152.1081 LP  0  0  0  0  0  0  0  0  0  0  0  0  # atno 17342 bound_to 10162
  139.5040  144.6767  151.6111 LP  0  0  0  0  0  0  0  0  0  0  0  0  # atno 17343 bound_to 10162
  157.3392  130.7024  149.6371 LP  0  0  0  0  0  0  0  0  0  0  0  0  # atno 17370 bound_to 10713
  155.9670  130.4285  150.4790 LP  0  0  0  0  0  0  0  0  0  0  0  0  # atno 17371 bound_to 10713
  139.9690  135.0133  156.9463 LP  0  0  0  0  0  0  0  0  0  0  0  0  # atno 17394 bound_to 11000
  140.5339  134.0786  155.7323 LP  0  0  0  0  0  0  0  0  0  0  0  0  # atno 17395 bound_to 11000

$$$$
