AV-unprocessed.smi:581|AV-procd|sdf|2994|dock5
  -GOLD-   2262023503D 1   1.00000     0.00000
 Structure written by MMmdl.
 34 35  0  0  0  0  0  0  0  0  3 V2000
  149.2358  140.8056  154.5060 C   0  0  0  0  0  0  0  0  0  0  0  0
  150.4137  140.4053  155.3765 C   0  0  0  0  0  0  0  0  0  0  0  0
  150.7474  141.3003  156.4042 N   0  0  0  0  0  0  0  0  0  0  0  0
  151.7383  141.0387  157.2028 C   0  0  0  0  0  0  0  0  0  0  0  0
  152.1012  141.9015  158.2410 N   0  0  0  0  0  0  0  0  0  0  0  0
  152.3149  141.4018  159.6014 C   0  0  0  0  0  0  0  0  0  0  0  0
  153.2259  142.3434  160.4061 C   0  0  0  0  0  0  0  0  0  0  0  0
  152.6785  143.6550  160.4073 O   0  0  0  0  0  0  0  0  0  0  0  0
  152.5904  144.1785  159.0890 C   0  0  0  0  0  0  0  0  0  0  0  0
  151.6593  143.2965  158.2405 C   0  0  0  0  0  0  0  0  0  0  0  0
  152.5107  139.8948  157.0781 N   0  5  0  0  0  0  0  0  0  0  0  0
  152.2396  138.9771  156.1067 C   0  0  0  0  0  0  0  0  0  0  0  0
  152.9014  137.9473  155.9817 O   0  0  0  0  0  0  0  0  0  0  0  0
  151.1143  139.2503  155.1956 C   0  0  0  0  0  0  0  0  0  0  0  0
  150.8020  138.2459  154.0871 C   0  0  0  0  0  0  0  0  0  0  0  0
  149.5966  137.3533  154.4333 C   0  0  0  0  0  0  0  0  0  0  0  0
  150.0381  136.1478  155.2634 C   0  0  0  0  0  0  0  0  0  0  0  0
  149.1468  135.3591  155.6477 O   0  0  0  0  0  0  0  0  0  0  0  0
  151.2608  136.0352  155.5014 O   0  5  0  0  0  0  0  0  0  0  0  0
  148.5125  139.9924  154.4386 H   0  0  0  0  0  0  0  0  0  0  0  0
  149.5750  141.0543  153.5001 H   0  0  0  0  0  0  0  0  0  0  0  0
  148.7214  141.6764  154.9140 H   0  0  0  0  0  0  0  0  0  0  0  0
  151.3459  141.3136  160.0941 H   0  0  0  0  0  0  0  0  0  0  0  0
  152.7539  140.4038  159.6003 H   0  0  0  0  0  0  0  0  0  0  0  0
  153.3098  141.9941  161.4353 H   0  0  0  0  0  0  0  0  0  0  0  0
  154.2351  142.3559  159.9910 H   0  0  0  0  0  0  0  0  0  0  0  0
  152.2015  145.1955  159.1371 H   0  0  0  0  0  0  0  0  0  0  0  0
  153.5835  144.2380  158.6405 H   0  0  0  0  0  0  0  0  0  0  0  0
  151.6315  143.6878  157.2225 H   0  0  0  0  0  0  0  0  0  0  0  0
  150.6411  143.3452  158.6288 H   0  0  0  0  0  0  0  0  0  0  0  0
  150.6120  138.7732  153.1522 H   0  0  0  0  0  0  0  0  0  0  0  0
  151.6834  137.6333  153.8907 H   0  0  0  0  0  0  0  0  0  0  0  0
  148.8501  137.9199  154.9913 H   0  0  0  0  0  0  0  0  0  0  0  0
  149.1087  137.0039  153.5224 H   0  0  0  0  0  0  0  0  0  0  0  0
  1  2  1  0  0  0  0
  1 20  1  0  0  0  0
  1 21  1  0  0  0  0
  1 22  1  0  0  0  0
  2 14  2  0  0  0  0
  2  3  1  0  0  0  0
  3  4  2  0  0  0  0
  4  5  1  0  0  0  0
  4 11  1  0  0  0  0
  5 10  1  0  0  0  0
  5  6  1  0  0  0  0
  6  7  1  0  0  0  0
  6 23  1  0  0  0  0
  6 24  1  0  0  0  0
  7  8  1  0  0  0  0
  7 25  1  0  0  0  0
  7 26  1  0  0  0  0
  8  9  1  0  0  0  0
  9 10  1  0  0  0  0
  9 27  1  0  0  0  0
  9 28  1  0  0  0  0
 10 29  1  0  0  0  0
 10 30  1  0  0  0  0
 11 12  1  0  0  0  0
 12 13  2  0  0  0  0
 12 14  1  0  0  0  0
 14 15  1  0  0  0  0
 15 16  1  0  0  0  0
 15 31  1  0  0  0  0
 15 32  1  0  0  0  0
 16 17  1  0  0  0  0
 16 33  1  0  0  0  0
 16 34  1  0  0  0  0
 17 18  2  0  0  0  0
 17 19  1  0  0  0  0
M  CHG  1  11  -1
M  CHG  1  19  -1
M  END
> <s_m_source_file>
AV-unprocessed.smi

> <i_m_source_file_index>
581

> <i_lp_mmshare_version>
43012

> <i_f3d_flags>
0

> <s_epik_input>
W0NIMl0xW0NIMl1PW0NIMl1bQ0gyXU4xYyhuYzJbQ0gzXSlbbkhdYyg9TyljMltDSDJdW0NIMl1DKD1PKVtPSF0=

> <s_epik_cmdline>
J2VwaWtfcHl0aG9uJywgJy1waCcsICc3LjAnLCAnLXRuJywgJzgnLCAnLW1hJywgJzIwMCcsICctbWV0YWxfYmluZGluZycsICctaW1hZScsICc8aW5maWxlLm1hZT4nLCAnLW9tYWUnLCAnPG91dGZpbGUubWFlPic=

> <r_lp_tautomer_probability>
0.878553

> <r_epik_Ionization_Penalty>
5.42566

> <r_epik_Ionization_Penalty_Charging>
0.003235

> <r_epik_Ionization_Penalty_Neutral>
5.42243

> <r_epik_State_Penalty>
3.98511

> <r_epik_Charging_Adjusted_Penalty>
3.98834

> <i_epik_Tot_Q>
-2

> <i_epik_Tot_abs_Q>
2

> <r_epik_Metal_State_Penalty>
0.64219

> <b_epik_Metal_Only>
1

> <s_lp_Force_Field>
OPLS_2005

> <r_lp_Energy>
30.9787

> <b_lp_Chiralities_Consistent>
1

> <s_lp_Variant>
AV-unprocessed.smi:581-4

> <Gold.Version>
5.8.1

> <Gold.Id.Protein>
6NUR|6NUR_protein|mol2

> <Gold.PLP.Fitness>
44.9649

> <Gold.PLP.PLP>
-34.5670

> <Gold.PLP.part.hbond>
-2.0555

> <Gold.PLP.part.metal>
0.0000

> <Gold.PLP.part.buried>
-3.7607

> <Gold.PLP.part.nonpolar>
-29.4878

> <Gold.PLP.part.repulsive>
0.2441

> <Gold.PLP.ligand.clash>
0.0000

> <Gold.PLP.ligand.torsion>
0.9079

> <Gold.PLP.Chemscore.Hbond>
4.0000

> <Gold.PLP.Chemscore.CHOScore>
0.0000

> <Gold.PLP.Chemscore.Metal>
0.0000

> <Gold.Chemscore.Hbonds>
donor molecule, donor type, donor heavy atom, donor atom, acceptor molecule, acceptor atom, score
      P1  H  7997  8010       L1    11  2.00
      P1  H 10752 10764       L1    19  2.00

> <Gold.PLP.Chemscore.Internal.Correction>
0.2137

> <Gold.Rescore>
     Score         DG    S(hbond)    S(metal)    S(lipo)     H(rot)  DE(clash)    DE(int)     intcor
     12.31     -14.94       1.56        0.00      77.23       1.86       0.07       2.56       ----

> <Gold.Chemscore.Fitness>
12.3149

> <Gold.Chemscore.DG>
-14.9413

> <Gold.Chemscore.ZeroCoef>
-5.4800

> <Gold.Chemscore.Hbond>
1.5554

> <Gold.Chemscore.Metal>
0.0000

> <Gold.Chemscore.Lipo>
77.2262

> <Gold.Chemscore.Internal_Hbond>
0.0000

> <Gold.Chemscore.DEClash>
0.0702

> <Gold.Chemscore.DEInternal>
2.5561

> <Gold.Chemscore.Rot>
1.8630

> <Gold.Chemscore.Internal.Correction>
   9.000000E+99

> <Gold.Chemscore.Hbonds>
donor molecule, donor type, donor heavy atom, donor atom, acceptor molecule, acceptor atom, score
      P1  H  7997  8010       L1    11  0.23
      P1  H 10752 10764       L1    19  0.99

> <Gold.Chemscore.Hbond.Weighted>
-5.1952

> <Gold.Chemscore.Metal.Weighted>
-0.0000

> <Gold.Chemscore.Lipo.Weighted>
-9.0355

> <Gold.Chemscore.Internal_Hbond.Weighted>
0.0000

> <Gold.Chemscore.DEClash.Weighted>
0.0702

> <Gold.Chemscore.DEInternal.Weighted>
2.5561

> <Gold.Chemscore.Rot.Weighted>
4.7694

> <Gold.Chemscore.Internal.Correction.Weighted>
   9.000000E+99

> <Gold.Protein.RotatedTorsions>
[ 6907 6896 6895 6894 ] final -105.82 input  -60.11 | X-H torsion
[ 7974 7965 7964 7962 ] final  102.87 input  175.53 | X-H torsion
[ 8008 7997 7996 7995 ] final   46.26 input   59.86 | X-H torsion
[ 10167 10162 10161 10158 ] final  120.71 input  -65.29 | X-H torsion
[ 10718 10713 10712 10709 ] final  178.20 input   66.30 | X-H torsion
[ 10763 10752 10751 10750 ] final  -54.91 input  -60.55 | X-H torsion
[ 11005 11000 10999 10996 ] final  100.95 input  -57.11 | X-H torsion

> <Gold.Protein.ActiveResidues>
 VAL166  LYS551  ARG553  GLY616  TRP617  ASP618  TYR619  PRO620  LYS621  CYS622 
 ASP623  PHE694  ASN695  SER759  ASP760  ASP761  ALA762  ILE779  LEU786  VAL792 
 PHE793  MET794  SER795  GLU796  ALA797  LYS798  CYS799  TRP800  GLU811  SER814 

> <Gold.Protein.RotatedAtoms>
  150.7357  134.0068  159.3656 H   0  0  0  0  0  0  0  0  0  0  0  0  # atno 6907 bound_to 6896
  151.8026  135.0702  160.0411 H   0  0  0  0  0  0  0  0  0  0  0  0  # atno 6908 bound_to 6896
  152.3130  133.5736  159.5730 H   0  0  0  0  0  0  0  0  0  0  0  0  # atno 6909 bound_to 6896
  145.3534  139.2434  143.3546 H   0  0  0  0  0  0  0  0  0  0  0  0  # atno 7974 bound_to 7965
  155.3496  140.3412  155.4239 H   0  0  0  0  0  0  0  0  0  0  0  0  # atno 8008 bound_to 7997
  156.1771  140.1651  156.8378 H   0  0  0  0  0  0  0  0  0  0  0  0  # atno 8009 bound_to 7997
  154.5293  140.0749  156.8299 H   0  0  0  0  0  0  0  0  0  0  0  0  # atno 8010 bound_to 7997
  139.5965  144.7043  151.3164 H   0  0  0  0  0  0  0  0  0  0  0  0  # atno 10167 bound_to 10162
  156.8941  130.9857  151.3045 H   0  0  0  0  0  0  0  0  0  0  0  0  # atno 10718 bound_to 10713
  154.1824  135.6441  153.5037 H   0  0  0  0  0  0  0  0  0  0  0  0  # atno 10763 bound_to 10752
  153.0056  135.5409  154.6500 H   0  0  0  0  0  0  0  0  0  0  0  0  # atno 10764 bound_to 10752
  154.5868  135.2930  155.0649 H   0  0  0  0  0  0  0  0  0  0  0  0  # atno 10765 bound_to 10752
  139.8772  134.9162  156.4833 H   0  0  0  0  0  0  0  0  0  0  0  0  # atno 11005 bound_to 11000
  146.2958  140.4154  142.8722 LP  0  0  0  0  0  0  0  0  0  0  0  0  # atno 17320 bound_to 7965
  144.8701  140.7260  143.6052 LP  0  0  0  0  0  0  0  0  0  0  0  0  # atno 17321 bound_to 7965
  140.7216  143.7120  150.7762 LP  0  0  0  0  0  0  0  0  0  0  0  0  # atno 17342 bound_to 10162
  140.0688  143.5082  152.2590 LP  0  0  0  0  0  0  0  0  0  0  0  0  # atno 17343 bound_to 10162
  157.6066  130.8551  149.8884 LP  0  0  0  0  0  0  0  0  0  0  0  0  # atno 17370 bound_to 10713
  156.0614  130.3699  150.0974 LP  0  0  0  0  0  0  0  0  0  0  0  0  # atno 17371 bound_to 10713
  140.8711  133.7987  155.9366 LP  0  0  0  0  0  0  0  0  0  0  0  0  # atno 17394 bound_to 11000
  140.8951  134.2447  157.5073 LP  0  0  0  0  0  0  0  0  0  0  0  0  # atno 17395 bound_to 11000

$$$$
