AV-unprocessed.smi:2976|AV-procd|sdf|11359|dock7
  -GOLD-   2272016273D 1   1.00000     0.00000
 Structure written by MMmdl.
 40 41  0  0  0  0  0  0  0  0  1 V2000
  150.0929  141.8520  156.9791 C   0  0  0  0  0  0  0  0  0  0  0  0
  150.4715  140.4708  156.4156 C   0  0  2  0  0  0  0  0  0  0  0  0
  151.9582  140.1781  156.7073 C   0  0  0  0  0  0  0  0  0  0  0  0
  152.3932  138.8039  156.1803 C   0  0  0  0  0  0  0  0  0  0  0  0
  152.0998  138.6702  154.6782 C   0  0  0  0  0  0  0  0  0  0  0  0
  150.6189  138.9441  154.3563 C   0  0  1  0  0  0  0  0  0  0  0  0
  149.7924  137.8594  154.8896 N   0  0  0  0  0  0  0  0  0  0  0  0
  150.0903  136.5511  154.8752 C   0  0  0  0  0  0  0  0  0  0  0  0
  151.1441  136.0966  154.4289 O   0  0  0  0  0  0  0  0  0  0  0  0
  149.0311  135.6110  155.4638 C   0  0  0  0  0  0  0  0  0  0  0  0
  149.3321  134.1972  155.1984 N   0  0  0  0  0  0  0  0  0  0  0  0
  149.0462  133.7889  153.9076 N   0  0  0  0  0  0  0  0  0  0  0  0
  149.2571  132.5636  153.5691 C   0  0  0  0  0  0  0  0  0  0  0  0
  149.7910  131.5890  154.4948 C   0  0  0  0  0  0  0  0  0  0  0  0
  150.0525  129.9590  153.9828 Cl  0  0  0  0  0  0  0  0  0  0  0  0
  150.0735  132.0013  155.7561 C   0  0  0  0  0  0  0  0  0  0  0  0
  150.7159  130.8941  156.9202 Cl  0  0  0  0  0  0  0  0  0  0  0  0
  149.8469  133.3907  156.1775 C   0  0  0  0  0  0  0  0  0  0  0  0
  150.0947  133.8048  157.3112 O   0  0  0  0  0  0  0  0  0  0  0  0
  150.1753  140.3320  154.8960 C   0  0  1  0  0  0  0  0  0  0  0  0
  148.7098  140.6491  154.5343 C   0  0  0  0  0  0  0  0  0  0  0  0
  150.5939  142.6535  156.4357 H   0  0  0  0  0  0  0  0  0  0  0  0
  150.3750  141.9366  158.0289 H   0  0  0  0  0  0  0  0  0  0  0  0
  149.0189  142.0289  156.9262 H   0  0  0  0  0  0  0  0  0  0  0  0
  149.8748  139.7303  156.9506 H   0  0  0  0  0  0  0  0  0  0  0  0
  152.5804  140.9512  156.2542 H   0  0  0  0  0  0  0  0  0  0  0  0
  152.1439  140.2261  157.7809 H   0  0  0  0  0  0  0  0  0  0  0  0
  153.4580  138.6575  156.3640 H   0  0  0  0  0  0  0  0  0  0  0  0
  151.8763  138.0189  156.7333 H   0  0  0  0  0  0  0  0  0  0  0  0
  152.7235  139.3762  154.1286 H   0  0  0  0  0  0  0  0  0  0  0  0
  152.3857  137.6774  154.3280 H   0  0  0  0  0  0  0  0  0  0  0  0
  150.5274  138.9564  153.2687 H   0  0  0  0  0  0  0  0  0  0  0  0
  148.9015  138.1294  155.2802 H   0  0  0  0  0  0  0  0  0  0  0  0
  148.9770  135.7950  156.5382 H   0  0  0  0  0  0  0  0  0  0  0  0
  148.0419  135.8605  155.0743 H   0  0  0  0  0  0  0  0  0  0  0  0
  149.0443  132.1955  152.5653 H   0  0  0  0  0  0  0  0  0  0  0  0
  150.7847  141.0753  154.3793 H   0  0  0  0  0  0  0  0  0  0  0  0
  148.0109  140.0500  155.1181 H   0  0  0  0  0  0  0  0  0  0  0  0
  148.5162  140.4525  153.4796 H   0  0  0  0  0  0  0  0  0  0  0  0
  148.4711  141.6981  154.7074 H   0  0  0  0  0  0  0  0  0  0  0  0
  1  2  1  0  0  0  0
  1 22  1  0  0  0  0
  1 23  1  0  0  0  0
  1 24  1  0  0  0  0
  2 20  1  0  0  0  0
  2  3  1  0  0  0  0
  2 25  1  0  0  0  0
  3  4  1  0  0  0  0
  3 26  1  0  0  0  0
  3 27  1  0  0  0  0
  4  5  1  0  0  0  0
  4 28  1  0  0  0  0
  4 29  1  0  0  0  0
  5  6  1  0  0  0  0
  5 30  1  0  0  0  0
  5 31  1  0  0  0  0
  6  7  1  0  0  0  0
  6 20  1  0  0  0  0
  6 32  1  0  0  0  0
  7  8  1  0  0  0  0
  7 33  1  0  0  0  0
  8  9  2  0  0  0  0
  8 10  1  0  0  0  0
 10 11  1  0  0  0  0
 10 34  1  0  0  0  0
 10 35  1  0  0  0  0
 11 18  1  0  0  0  0
 11 12  1  0  0  0  0
 12 13  2  0  0  0  0
 13 14  1  0  0  0  0
 13 36  1  0  0  0  0
 14 15  1  0  0  0  0
 14 16  2  0  0  0  0
 16 17  1  0  0  0  0
 16 18  1  0  0  0  0
 18 19  2  0  0  0  0
 20 21  1  0  0  0  0
 20 37  1  0  0  0  0
 21 38  1  0  0  0  0
 21 39  1  0  0  0  0
 21 40  1  0  0  0  0
M  END
> <s_m_source_file>
AV-unprocessed.smi

> <i_m_source_file_index>
2976

> <i_lp_mmshare_version>
43012

> <i_f3d_flags>
0

> <s_epik_input>
W0NIM11bQ0BASF0xW0NIMl1bQ0gyXVtDSDJdW0NASF0oW0NASF0xW0NIM10pW05IXUMoPU8pW0NIMl1uMm5bY0hdYyhDbCljKENsKWMyPU8=

> <s_epik_cmdline>
J2VwaWtfcHl0aG9uJywgJy1waCcsICc3LjAnLCAnLXRuJywgJzgnLCAnLW1hJywgJzIwMCcsICctbWV0YWxfYmluZGluZycsICctaW1hZScsICc8aW5maWxlLm1hZT4nLCAnLW9tYWUnLCAnPG91dGZpbGUubWFlPic=

> <r_lp_tautomer_probability>
1

> <r_epik_Ionization_Penalty>
1.90777e-08

> <r_epik_Ionization_Penalty_Charging>
3.07942e-11

> <r_epik_Ionization_Penalty_Neutral>
1.90469e-08

> <r_epik_State_Penalty>
-0

> <r_epik_Charging_Adjusted_Penalty>
3.07942e-11

> <i_epik_Tot_Q>
0

> <i_epik_Tot_abs_Q>
0

> <r_epik_Metal_State_Penalty>
-0

> <b_epik_Metal_Only>
0

> <s_lp_Force_Field>
OPLS_2005

> <r_lp_Energy>
25.2962

> <b_lp_Chiralities_Consistent>
1

> <s_lp_Variant>
AV-unprocessed.smi:2976-1

> <Gold.Version>
5.8.1

> <Gold.Id.Protein>
6NUR|6NUR_protein|mol2

> <Gold.PLP.Fitness>
41.2888

> <Gold.PLP.PLP>
-34.6678

> <Gold.PLP.part.hbond>
-2.0000

> <Gold.PLP.part.metal>
0.0000

> <Gold.PLP.part.buried>
-3.8867

> <Gold.PLP.part.nonpolar>
-30.9402

> <Gold.PLP.part.repulsive>
1.2535

> <Gold.PLP.ligand.clash>
0.0000

> <Gold.PLP.ligand.torsion>
0.5699

> <Gold.PLP.Chemscore.Hbond>
1.9920

> <Gold.PLP.Chemscore.CHOScore>
0.5921

> <Gold.PLP.Chemscore.Metal>
0.0000

> <Gold.Chemscore.Hbonds>
donor molecule, donor type, donor heavy atom, donor atom, acceptor molecule, acceptor atom, score
      P1  H  6896  6908       L1    19  0.89
      P1  H 10752 10764       L1     9  1.00
      L1  C    13    36       P1 10747  0.76

> <Gold.PLP.Chemscore.Internal.Correction>
0.0084

> <Gold.Rescore>
     Score         DG    S(hbond)    S(metal)    S(lipo)     H(rot)  DE(clash)    DE(int)     intcor
     15.70     -17.65       1.97        0.00      80.32       1.49       0.01       1.94       ----

> <Gold.Chemscore.Fitness>
15.6954

> <Gold.Chemscore.DG>
-17.6464

> <Gold.Chemscore.ZeroCoef>
-5.4800

> <Gold.Chemscore.Hbond>
1.9686

> <Gold.Chemscore.Metal>
0.0000

> <Gold.Chemscore.Lipo>
80.3155

> <Gold.Chemscore.Internal_Hbond>
0.0000

> <Gold.Chemscore.DEClash>
0.0106

> <Gold.Chemscore.DEInternal>
1.9403

> <Gold.Chemscore.Rot>
1.4866

> <Gold.Chemscore.Internal.Correction>
   9.000000E+99

> <Gold.Chemscore.Hbonds>
donor molecule, donor type, donor heavy atom, donor atom, acceptor molecule, acceptor atom, score
      P1  H  6896  6908       L1    19  0.82
      P1  H 10752 10764       L1     9  1.00

> <Gold.Chemscore.Hbond.Weighted>
-6.5751

> <Gold.Chemscore.Metal.Weighted>
-0.0000

> <Gold.Chemscore.Lipo.Weighted>
-9.3969

> <Gold.Chemscore.Internal_Hbond.Weighted>
0.0000

> <Gold.Chemscore.DEClash.Weighted>
0.0106

> <Gold.Chemscore.DEInternal.Weighted>
1.9403

> <Gold.Chemscore.Rot.Weighted>
3.8057

> <Gold.Chemscore.Internal.Correction.Weighted>
   9.000000E+99

> <Gold.Protein.RotatedTorsions>
[ 6907 6896 6895 6894 ] final  122.56 input  -60.11 | X-H torsion
[ 7974 7965 7964 7962 ] final  -63.11 input  175.53 | X-H torsion
[ 8008 7997 7996 7995 ] final -147.15 input   59.86 | X-H torsion
[ 10167 10162 10161 10158 ] final    3.58 input  -65.29 | X-H torsion
[ 10718 10713 10712 10709 ] final   94.35 input   66.30 | X-H torsion
[ 10763 10752 10751 10750 ] final  -81.97 input  -60.55 | X-H torsion
[ 11005 11000 10999 10996 ] final   90.98 input  -57.11 | X-H torsion

> <Gold.Protein.ActiveResidues>
 VAL166  LYS551  ARG553  GLY616  TRP617  ASP618  TYR619  PRO620  LYS621  CYS622 
 ASP623  PHE694  ASN695  SER759  ASP760  ASP761  ALA762  ILE779  LEU786  VAL792 
 PHE793  MET794  SER795  GLU796  ALA797  LYS798  CYS799  TRP800  GLU811  SER814 

> <Gold.Protein.RotatedAtoms>
  152.4233  133.7152  159.6501 H   0  0  0  0  0  0  0  0  0  0  0  0  # atno 6907 bound_to 6896
  150.8109  133.8413  159.3189 H   0  0  0  0  0  0  0  0  0  0  0  0  # atno 6908 bound_to 6896
  151.6123  135.1041  160.0135 H   0  0  0  0  0  0  0  0  0  0  0  0  # atno 6909 bound_to 6896
  145.7830  140.8751  143.0320 H   0  0  0  0  0  0  0  0  0  0  0  0  # atno 7974 bound_to 7965
  155.5709  140.0634  157.2806 H   0  0  0  0  0  0  0  0  0  0  0  0  # atno 8008 bound_to 7997
  154.4361  140.1869  156.0924 H   0  0  0  0  0  0  0  0  0  0  0  0  # atno 8009 bound_to 7997
  156.0377  140.3299  155.7212 H   0  0  0  0  0  0  0  0  0  0  0  0  # atno 8010 bound_to 7997
  140.6578  143.7381  150.7685 H   0  0  0  0  0  0  0  0  0  0  0  0  # atno 10167 bound_to 10162
  157.6948  131.0509  150.4173 H   0  0  0  0  0  0  0  0  0  0  0  0  # atno 10718 bound_to 10713
  154.5701  135.5607  153.7087 H   0  0  0  0  0  0  0  0  0  0  0  0  # atno 10763 bound_to 10752
  153.0045  135.6295  154.2126 H   0  0  0  0  0  0  0  0  0  0  0  0  # atno 10764 bound_to 10752
  154.2066  135.2875  155.2952 H   0  0  0  0  0  0  0  0  0  0  0  0  # atno 10765 bound_to 10752
  139.8846  134.8646  156.3362 H   0  0  0  0  0  0  0  0  0  0  0  0  # atno 11005 bound_to 11000
  144.6793  140.0016  143.7484 LP  0  0  0  0  0  0  0  0  0  0  0  0  # atno 17320 bound_to 7965
  146.0054  139.3125  143.0902 LP  0  0  0  0  0  0  0  0  0  0  0  0  # atno 17321 bound_to 7965
  140.1044  143.4757  152.2406 LP  0  0  0  0  0  0  0  0  0  0  0  0  # atno 17342 bound_to 10162
  139.5805  144.7508  151.3653 LP  0  0  0  0  0  0  0  0  0  0  0  0  # atno 17343 bound_to 10162
  156.4551  130.4020  149.6611 LP  0  0  0  0  0  0  0  0  0  0  0  0  # atno 17370 bound_to 10713
  156.3746  130.7548  151.2535 LP  0  0  0  0  0  0  0  0  0  0  0  0  # atno 17371 bound_to 10713
  140.9689  133.7340  156.0507 LP  0  0  0  0  0  0  0  0  0  0  0  0  # atno 17394 bound_to 11000
  140.7895  134.3633  157.5468 LP  0  0  0  0  0  0  0  0  0  0  0  0  # atno 17395 bound_to 11000

$$$$
