AV-unprocessed.smi:3241|AV-procd|sdf|12387|dock2
  -GOLD-   2272018253D 1   1.00000     0.00000
 Structure written by MMmdl.
 44 45  0  0  0  0  0  0  0  0  2 V2000
  143.1088  135.4458  153.9474 C   0  0  0  0  0  0  0  0  0  0  0  0
  143.8438  134.9512  152.6914 C   0  0  2  0  0  0  0  0  0  0  0  0
  144.9617  133.9475  153.0376 C   0  0  0  0  0  0  0  0  0  0  0  0
  145.6697  133.4357  151.7728 C   0  0  0  0  0  0  0  0  0  0  0  0
  146.2169  134.5979  150.9300 C   0  0  0  0  0  0  0  0  0  0  0  0
  145.1078  135.6041  150.5802 C   0  0  0  0  0  0  0  0  0  0  0  0
  144.3871  136.1214  151.8421 C   0  0  2  0  0  0  0  0  0  0  0  0
  145.2926  136.8751  152.6402 O   0  0  0  0  0  0  0  0  0  0  0  0
  146.0568  137.8297  151.9207 C   0  0  0  0  0  0  0  0  0  0  0  0
  146.7597  138.7444  152.9280 C   0  0  0  0  0  0  0  0  0  0  0  0
  148.2238  138.5771  152.8521 N   0  3  0  0  0  0  0  0  0  0  0  0
  148.9328  138.8223  154.1237 C   0  0  0  0  0  0  0  0  0  0  0  0
  148.9674  140.3191  154.4727 C   0  0  0  0  0  0  0  0  0  0  0  0
  149.8505  140.6079  155.5888 N   0  0  0  0  0  0  0  0  0  0  0  0
  149.5484  141.2230  156.7854 C   0  0  0  0  0  0  0  0  0  0  0  0
  150.6988  141.2687  157.5197 C   0  0  0  0  0  0  0  0  0  0  0  0
  151.6639  140.6499  156.6770 C   0  0  0  0  0  0  0  0  0  0  0  0
  151.1523  140.2523  155.5232 N   0  0  0  0  0  0  0  0  0  0  0  0
  143.7819  135.9722  154.6250 H   0  0  0  0  0  0  0  0  0  0  0  0
  142.6705  134.6130  154.4979 H   0  0  0  0  0  0  0  0  0  0  0  0
  142.3003  136.1286  153.6853 H   0  0  0  0  0  0  0  0  0  0  0  0
  143.1089  134.4218  152.0830 H   0  0  0  0  0  0  0  0  0  0  0  0
  145.6909  134.4166  153.6996 H   0  0  0  0  0  0  0  0  0  0  0  0
  144.5465  133.1027  153.5884 H   0  0  0  0  0  0  0  0  0  0  0  0
  146.4811  132.7618  152.0483 H   0  0  0  0  0  0  0  0  0  0  0  0
  144.9705  132.8494  151.1756 H   0  0  0  0  0  0  0  0  0  0  0  0
  147.0128  135.1038  151.4781 H   0  0  0  0  0  0  0  0  0  0  0  0
  146.6699  134.2119  150.0163 H   0  0  0  0  0  0  0  0  0  0  0  0
  145.5245  136.4323  150.0075 H   0  0  0  0  0  0  0  0  0  0  0  0
  144.3813  135.1208  149.9258 H   0  0  0  0  0  0  0  0  0  0  0  0
  143.5417  136.7448  151.5442 H   0  0  0  0  0  0  0  0  0  0  0  0
  146.7964  137.3300  151.2944 H   0  0  0  0  0  0  0  0  0  0  0  0
  145.4128  138.4181  151.2652 H   0  0  0  0  0  0  0  0  0  0  0  0
  146.4990  139.7865  152.7384 H   0  0  0  0  0  0  0  0  0  0  0  0
  146.4228  138.5043  153.9373 H   0  0  0  0  0  0  0  0  0  0  0  0
  148.4294  137.6351  152.5504 H   0  0  0  0  0  0  0  0  0  0  0  0
  148.4271  138.2770  154.9217 H   0  0  0  0  0  0  0  0  0  0  0  0
  149.9468  138.4258  154.0576 H   0  0  0  0  0  0  0  0  0  0  0  0
  149.2793  140.9081  153.6086 H   0  0  0  0  0  0  0  0  0  0  0  0
  147.9654  140.6602  154.7353 H   0  0  0  0  0  0  0  0  0  0  0  0
  148.5522  141.5728  157.0130 H   0  0  0  0  0  0  0  0  0  0  0  0
  150.8319  141.6828  158.5083 H   0  0  0  0  0  0  0  0  0  0  0  0
  152.7128  140.4777  156.8683 H   0  0  0  0  0  0  0  0  0  0  0  0
  148.5792  139.2182  152.1568 H   0  0  0  0  0  0  0  0  0  0  0  0
  1  2  1  0  0  0  0
  1 19  1  0  0  0  0
  1 20  1  0  0  0  0
  1 21  1  0  0  0  0
  2  7  1  0  0  0  0
  2  3  1  0  0  0  0
  2 22  1  0  0  0  0
  3  4  1  0  0  0  0
  3 23  1  0  0  0  0
  3 24  1  0  0  0  0
  4  5  1  0  0  0  0
  4 25  1  0  0  0  0
  4 26  1  0  0  0  0
  5  6  1  0  0  0  0
  5 27  1  0  0  0  0
  5 28  1  0  0  0  0
  6  7  1  0  0  0  0
  6 29  1  0  0  0  0
  6 30  1  0  0  0  0
  7  8  1  0  0  0  0
  7 31  1  0  0  0  0
  8  9  1  0  0  0  0
  9 10  1  0  0  0  0
  9 32  1  0  0  0  0
  9 33  1  0  0  0  0
 10 11  1  0  0  0  0
 10 34  1  0  0  0  0
 10 35  1  0  0  0  0
 11 12  1  0  0  0  0
 11 36  1  0  0  0  0
 11 44  1  0  0  0  0
 12 13  1  0  0  0  0
 12 37  1  0  0  0  0
 12 38  1  0  0  0  0
 13 14  1  0  0  0  0
 13 39  1  0  0  0  0
 13 40  1  0  0  0  0
 14 18  1  0  0  0  0
 14 15  1  0  0  0  0
 15 16  2  0  0  0  0
 15 41  1  0  0  0  0
 16 17  1  0  0  0  0
 16 42  1  0  0  0  0
 17 18  2  0  0  0  0
 17 43  1  0  0  0  0
M  CHG  1  11   1
M  END
> <s_m_source_file>
AV-unprocessed.smi

> <i_m_source_file_index>
3241

> <i_lp_mmshare_version>
43012

> <i_f3d_flags>
0

> <s_epik_input>
W0NIM11bQ0BASF0xW0NIMl1bQ0gyXVtDSDJdW0NIMl1bQ0BIXTFPW0NIMl1bQ0gyXVtOSF1bQ0gyXVtDSDJdbjJbY0hdW2NIXVtjSF1uMg==

> <s_epik_cmdline>
J2VwaWtfcHl0aG9uJywgJy1waCcsICc3LjAnLCAnLXRuJywgJzgnLCAnLW1hJywgJzIwMCcsICctbWV0YWxfYmluZGluZycsICctaW1hZScsICc8aW5maWxlLm1hZT4nLCAnLW9tYWUnLCAnPG91dGZpbGUubWFlPic=

> <r_lp_tautomer_probability>
1

> <r_epik_Ionization_Penalty>
0.00924946

> <r_epik_Ionization_Penalty_Charging>
0.00924645

> <r_epik_Ionization_Penalty_Neutral>
3.00629e-06

> <r_epik_State_Penalty>
0.0070118

> <r_epik_Charging_Adjusted_Penalty>
0.0162583

> <i_epik_Tot_Q>
1

> <i_epik_Tot_abs_Q>
1

> <r_epik_Metal_State_Penalty>
0.00702523

> <b_epik_Metal_Only>
0

> <s_lp_Force_Field>
OPLS_2005

> <r_lp_Energy>
14.6648

> <b_lp_Chiralities_Consistent>
1

> <s_lp_Variant>
AV-unprocessed.smi:3241-3

> <Gold.Version>
5.8.1

> <Gold.Id.Protein>
6NUR|6NUR_protein|mol2

> <Gold.PLP.Fitness>
43.3926

> <Gold.PLP.PLP>
-32.7760

> <Gold.PLP.part.hbond>
-3.0000

> <Gold.PLP.part.metal>
0.0000

> <Gold.PLP.part.buried>
-4.5304

> <Gold.PLP.part.nonpolar>
-26.2124

> <Gold.PLP.part.repulsive>
0.2811

> <Gold.PLP.ligand.clash>
0.0000

> <Gold.PLP.ligand.torsion>
0.7281

> <Gold.PLP.Chemscore.Hbond>
3.9760

> <Gold.PLP.Chemscore.CHOScore>
0.0000

> <Gold.PLP.Chemscore.Metal>
0.0000

> <Gold.Chemscore.Hbonds>
donor molecule, donor type, donor heavy atom, donor atom, acceptor molecule, acceptor atom, score
      L1  H    11    36       P1  7948  2.00
      L1  H    11    44       P1  7957  1.00
      P1  H  7989  7998       L1    18  0.67

> <Gold.PLP.Chemscore.Internal.Correction>
0.1449

> <Gold.Rescore>
     Score         DG    S(hbond)    S(metal)    S(lipo)     H(rot)  DE(clash)    DE(int)     intcor
     17.82     -18.68       2.80        0.00      74.15       1.89       0.09       0.77       ----

> <Gold.Chemscore.Fitness>
17.8160

> <Gold.Chemscore.DG>
-18.6826

> <Gold.Chemscore.ZeroCoef>
-5.4800

> <Gold.Chemscore.Hbond>
2.8047

> <Gold.Chemscore.Metal>
0.0000

> <Gold.Chemscore.Lipo>
74.1462

> <Gold.Chemscore.Internal_Hbond>
0.0000

> <Gold.Chemscore.DEClash>
0.0934

> <Gold.Chemscore.DEInternal>
0.7732

> <Gold.Chemscore.Rot>
1.8906

> <Gold.Chemscore.Internal.Correction>
   9.000000E+99

> <Gold.Chemscore.Hbonds>
donor molecule, donor type, donor heavy atom, donor atom, acceptor molecule, acceptor atom, score
      L1  H    11    36       P1  7948  0.99
      L1  H    11    44       P1  7957  0.99
      P1  H  7989  7998       L1    18  0.19

> <Gold.Chemscore.Hbond.Weighted>
-9.3675

> <Gold.Chemscore.Metal.Weighted>
-0.0000

> <Gold.Chemscore.Lipo.Weighted>
-8.6751

> <Gold.Chemscore.Internal_Hbond.Weighted>
0.0000

> <Gold.Chemscore.DEClash.Weighted>
0.0934

> <Gold.Chemscore.DEInternal.Weighted>
0.7732

> <Gold.Chemscore.Rot.Weighted>
4.8400

> <Gold.Chemscore.Internal.Correction.Weighted>
   9.000000E+99

> <Gold.Protein.RotatedTorsions>
[ 6907 6896 6895 6894 ] final  173.46 input  -60.11 | X-H torsion
[ 7974 7965 7964 7962 ] final -110.91 input  175.53 | X-H torsion
[ 8008 7997 7996 7995 ] final  -10.00 input   59.86 | X-H torsion
[ 10167 10162 10161 10158 ] final  178.69 input  -65.29 | X-H torsion
[ 10718 10713 10712 10709 ] final  -32.71 input   66.30 | X-H torsion
[ 10763 10752 10751 10750 ] final   78.89 input  -60.55 | X-H torsion
[ 11005 11000 10999 10996 ] final   19.17 input  -57.11 | X-H torsion

> <Gold.Protein.ActiveResidues>
 VAL166  LYS551  ARG553  GLY616  TRP617  ASP618  TYR619  PRO620  LYS621  CYS622 
 ASP623  PHE694  ASN695  SER759  ASP760  ASP761  ALA762  ILE779  LEU786  VAL792 
 PHE793  MET794  SER795  GLU796  ALA797  LYS798  CYS799  TRP800  GLU811  SER814 

> <Gold.Protein.RotatedAtoms>
  151.7680  133.3339  159.3436 H   0  0  0  0  0  0  0  0  0  0  0  0  # atno 6907 bound_to 6896
  150.7472  134.6045  159.6063 H   0  0  0  0  0  0  0  0  0  0  0  0  # atno 6908 bound_to 6896
  152.3360  134.7199  160.0328 H   0  0  0  0  0  0  0  0  0  0  0  0  # atno 6909 bound_to 6896
  145.1625  140.8885  143.3583 H   0  0  0  0  0  0  0  0  0  0  0  0  # atno 7974 bound_to 7965
  154.5594  140.2340  155.8359 H   0  0  0  0  0  0  0  0  0  0  0  0  # atno 8008 bound_to 7997
  156.2016  140.3051  155.9499 H   0  0  0  0  0  0  0  0  0  0  0  0  # atno 8009 bound_to 7997
  155.2917  140.0427  157.3014 H   0  0  0  0  0  0  0  0  0  0  0  0  # atno 8010 bound_to 7997
  139.5304  144.2650  152.0675 H   0  0  0  0  0  0  0  0  0  0  0  0  # atno 10167 bound_to 10162
  156.3715  130.4340  149.7541 H   0  0  0  0  0  0  0  0  0  0  0  0  # atno 10718 bound_to 10713
  153.0910  135.4860  154.8689 H   0  0  0  0  0  0  0  0  0  0  0  0  # atno 10763 bound_to 10752
  154.7269  135.3051  154.8959 H   0  0  0  0  0  0  0  0  0  0  0  0  # atno 10764 bound_to 10752
  153.9606  135.6813  153.4798 H   0  0  0  0  0  0  0  0  0  0  0  0  # atno 10765 bound_to 10752
  140.4167  134.1562  155.7670 H   0  0  0  0  0  0  0  0  0  0  0  0  # atno 11005 bound_to 11000
  145.0317  139.3335  143.6021 LP  0  0  0  0  0  0  0  0  0  0  0  0  # atno 17320 bound_to 7965
  146.3480  139.9656  142.8712 LP  0  0  0  0  0  0  0  0  0  0  0  0  # atno 17321 bound_to 7965
  140.2113  144.4560  150.6384 LP  0  0  0  0  0  0  0  0  0  0  0  0  # atno 17342 bound_to 10162
  140.6479  143.2217  151.6145 LP  0  0  0  0  0  0  0  0  0  0  0  0  # atno 17343 bound_to 10162
  156.4667  130.7977  151.2996 LP  0  0  0  0  0  0  0  0  0  0  0  0  # atno 17370 bound_to 10713
  157.7484  131.0049  150.3092 LP  0  0  0  0  0  0  0  0  0  0  0  0  # atno 17371 bound_to 10713
  141.1800  133.8434  157.1290 LP  0  0  0  0  0  0  0  0  0  0  0  0  # atno 17394 bound_to 11000
  140.0229  134.9937  157.0628 LP  0  0  0  0  0  0  0  0  0  0  0  0  # atno 17395 bound_to 11000

$$$$
