AV-unprocessed.smi:2189|AV-procd|sdf|8887|dock4
  -GOLD-   2272012 83D 1   1.00000     0.00000
 Structure written by MMmdl.
 39 41  0  0  0  0  0  0  0  0  3 V2000
  153.1250  138.8313  156.5668 O   0  0  0  0  0  0  0  0  0  0  0  0
  152.2880  139.6671  156.2018 C   0  0  0  0  0  0  0  0  0  0  0  0
  151.6396  139.6629  154.9966 N   0  5  0  0  0  0  0  0  0  0  0  0
  151.0224  138.4957  154.3626 C   0  0  0  0  0  0  0  0  0  0  0  0
  150.1308  137.7518  155.3812 C   0  0  0  0  0  0  0  0  0  0  0  0
  150.3266  136.2386  155.4142 C   0  0  0  0  0  0  0  0  0  0  0  0
  150.9120  135.5856  156.5228 C   0  0  0  0  0  0  0  0  0  0  0  0
  151.0636  134.1842  156.5008 C   0  0  0  0  0  0  0  0  0  0  0  0
  150.6353  133.4615  155.3683 C   0  0  0  0  0  0  0  0  0  0  0  0
  150.0640  134.1604  154.2857 C   0  0  0  0  0  0  0  0  0  0  0  0
  149.9346  135.5038  154.3450 N   0  3  0  0  0  0  0  0  0  0  0  0
  151.9611  140.7874  157.1020 C   0  0  0  0  0  0  0  0  0  0  0  0
  150.9599  141.6331  156.7436 C   0  0  0  0  0  0  0  0  0  0  0  0
  150.5682  142.7429  157.5760 C   0  0  0  0  0  0  0  0  0  0  0  0
  151.2422  142.9428  158.7137 C   0  0  0  0  0  0  0  0  0  0  0  0
  152.2991  142.1336  159.1282 N   0  0  0  0  0  0  0  0  0  0  0  0
  152.9978  142.5305  160.3459 C   0  0  0  0  0  0  0  0  0  0  0  0
  153.3248  141.3118  161.1894 C   0  0  0  0  0  0  0  0  0  0  0  0
  154.4754  140.3053  160.1858 S   0  0  0  0  0  0  0  0  0  0  0  0
  155.6692  141.1191  159.9073 O   0  0  0  0  0  0  0  0  0  0  0  0
  154.6305  138.9989  160.8434 O   0  0  0  0  0  0  0  0  0  0  0  0
  153.5820  140.1347  158.7795 N   0  0  0  0  0  0  0  0  0  0  0  0
  152.6831  140.9877  158.3755 C   0  0  0  0  0  0  0  0  0  0  0  0
  150.4134  138.7545  153.4953 H   0  0  0  0  0  0  0  0  0  0  0  0
  151.7805  137.8055  153.9926 H   0  0  0  0  0  0  0  0  0  0  0  0
  150.3264  138.1435  156.3800 H   0  0  0  0  0  0  0  0  0  0  0  0
  149.0811  137.9687  155.1783 H   0  0  0  0  0  0  0  0  0  0  0  0
  151.2290  136.1535  157.3855 H   0  0  0  0  0  0  0  0  0  0  0  0
  151.5018  133.6703  157.3436 H   0  0  0  0  0  0  0  0  0  0  0  0
  150.7412  132.3872  155.3318 H   0  0  0  0  0  0  0  0  0  0  0  0
  149.7063  133.6895  153.3819 H   0  0  0  0  0  0  0  0  0  0  0  0
  150.4294  141.5010  155.8114 H   0  0  0  0  0  0  0  0  0  0  0  0
  149.7543  143.3924  157.2895 H   0  0  0  0  0  0  0  0  0  0  0  0
  150.9960  143.7577  159.3787 H   0  0  0  0  0  0  0  0  0  0  0  0
  153.9040  143.0761  160.0812 H   0  0  0  0  0  0  0  0  0  0  0  0
  152.3850  143.2119  160.9369 H   0  0  0  0  0  0  0  0  0  0  0  0
  153.8180  141.5834  162.1223 H   0  0  0  0  0  0  0  0  0  0  0  0
  152.4370  140.7230  161.4229 H   0  0  0  0  0  0  0  0  0  0  0  0
  149.5111  135.9887  153.5536 H   0  0  0  0  0  0  0  0  0  0  0  0
  1  2  2  0  0  0  0
  2  3  1  0  0  0  0
  2 12  1  0  0  0  0
  3  4  1  0  0  0  0
  4  5  1  0  0  0  0
  4 24  1  0  0  0  0
  4 25  1  0  0  0  0
  5  6  1  0  0  0  0
  5 26  1  0  0  0  0
  5 27  1  0  0  0  0
  6 11  1  0  0  0  0
  6  7  2  0  0  0  0
  7  8  1  0  0  0  0
  7 28  1  0  0  0  0
  8  9  2  0  0  0  0
  8 29  1  0  0  0  0
  9 10  1  0  0  0  0
  9 30  1  0  0  0  0
 10 11  2  0  0  0  0
 10 31  1  0  0  0  0
 11 39  1  0  0  0  0
 12 23  1  0  0  0  0
 12 13  2  0  0  0  0
 13 14  1  0  0  0  0
 13 32  1  0  0  0  0
 14 15  2  0  0  0  0
 14 33  1  0  0  0  0
 15 16  1  0  0  0  0
 15 34  1  0  0  0  0
 16 23  1  0  0  0  0
 16 17  1  0  0  0  0
 17 18  1  0  0  0  0
 17 35  1  0  0  0  0
 17 36  1  0  0  0  0
 18 19  1  0  0  0  0
 18 37  1  0  0  0  0
 18 38  1  0  0  0  0
 19 20  2  0  0  0  0
 19 21  2  0  0  0  0
 19 22  1  0  0  0  0
 22 23  2  0  0  0  0
M  CHG  1   3  -1
M  CHG  1  11   1
M  END
> <s_m_source_file>
AV-unprocessed.smi

> <i_m_source_file_index>
2189

> <i_lp_mmshare_version>
43012

> <i_f3d_flags>
0

> <s_epik_input>
W0NIMl0xW0NIMl1TKD1PKSg9TylOPUMoTjEyKUMoPVtDSF1bQ0hdPVtDSF0yKUMoPU8pW05IXVtDSDJdW0NIMl1jM1tjSF1bY0hdW2NIXVtjSF1uMw==

> <s_epik_cmdline>
J2VwaWtfcHl0aG9uJywgJy1waCcsICc3LjAnLCAnLXRuJywgJzgnLCAnLW1hJywgJzIwMCcsICctbWV0YWxfYmluZGluZycsICctaW1hZScsICc8aW5maWxlLm1hZT4nLCAnLW9tYWUnLCAnPG91dGZpbGUubWFlPic=

> <r_epik_Ionization_Penalty>
6.52844

> <r_epik_Ionization_Penalty_Charging>
6.52844

> <r_epik_Ionization_Penalty_Neutral>
1.18271e-13

> <r_epik_State_Penalty>
7.49351

> <r_epik_Charging_Adjusted_Penalty>
14.0219

> <i_epik_Tot_Q>
0

> <i_epik_Tot_abs_Q>
2

> <r_epik_Metal_State_Penalty>
3.53414

> <b_epik_Metal_Only>
1

> <s_lp_Force_Field>
OPLS_2005

> <r_lp_Energy>
35.7172

> <b_lp_Chiralities_Consistent>
1

> <s_lp_Variant>
AV-unprocessed.smi:2189-4

> <Gold.Version>
5.8.1

> <Gold.Id.Protein>
6NUR|6NUR_protein|mol2

> <Gold.PLP.Fitness>
49.1474

> <Gold.PLP.PLP>
-40.0720

> <Gold.PLP.part.hbond>
-4.5325

> <Gold.PLP.part.metal>
0.0000

> <Gold.PLP.part.buried>
-2.3735

> <Gold.PLP.part.nonpolar>
-30.5808

> <Gold.PLP.part.repulsive>
0.0809

> <Gold.PLP.ligand.clash>
1.1003

> <Gold.PLP.ligand.torsion>
0.8531

> <Gold.PLP.Chemscore.Hbond>
3.8336

> <Gold.PLP.Chemscore.CHOScore>
0.0000

> <Gold.PLP.Chemscore.Metal>
0.0000

> <Gold.Chemscore.Hbonds>
donor molecule, donor type, donor heavy atom, donor atom, acceptor molecule, acceptor atom, score
      L1  H    11    39       P1  7948  2.00
      P1  H  7989  7998       L1     3  1.00
      P1  H  7997  8009       L1     1  0.71

> <Gold.PLP.Chemscore.Internal.Correction>
0.3811

> <Gold.Rescore>
     Score         DG    S(hbond)    S(metal)    S(lipo)     H(rot)  DE(clash)    DE(int)     intcor
     14.79     -17.49       1.76        0.00      85.32       1.51       0.26       2.44       ----

> <Gold.Chemscore.Fitness>
14.7875

> <Gold.Chemscore.DG>
-17.4881

> <Gold.Chemscore.ZeroCoef>
-5.4800

> <Gold.Chemscore.Hbond>
1.7644

> <Gold.Chemscore.Metal>
0.0000

> <Gold.Chemscore.Lipo>
85.3246

> <Gold.Chemscore.Internal_Hbond>
0.0000

> <Gold.Chemscore.DEClash>
0.2599

> <Gold.Chemscore.DEInternal>
2.4407

> <Gold.Chemscore.Rot>
1.5109

> <Gold.Chemscore.Internal.Correction>
   9.000000E+99

> <Gold.Chemscore.Hbonds>
donor molecule, donor type, donor heavy atom, donor atom, acceptor molecule, acceptor atom, score
      L1  H    11    39       P1  7948  0.39
      P1  H  7989  7998       L1     3  0.25
      P1  H  7997  8009       L1     1  0.09

> <Gold.Chemscore.Hbond.Weighted>
-5.8932

> <Gold.Chemscore.Metal.Weighted>
-0.0000

> <Gold.Chemscore.Lipo.Weighted>
-9.9830

> <Gold.Chemscore.Internal_Hbond.Weighted>
0.0000

> <Gold.Chemscore.DEClash.Weighted>
0.2599

> <Gold.Chemscore.DEInternal.Weighted>
2.4407

> <Gold.Chemscore.Rot.Weighted>
3.8680

> <Gold.Chemscore.Internal.Correction.Weighted>
   9.000000E+99

> <Gold.Protein.RotatedTorsions>
[ 6907 6896 6895 6894 ] final  -44.86 input  -60.11 | X-H torsion
[ 7974 7965 7964 7962 ] final -111.07 input  175.53 | X-H torsion
[ 8008 7997 7996 7995 ] final  167.66 input   59.86 | X-H torsion
[ 10167 10162 10161 10158 ] final -178.19 input  -65.29 | X-H torsion
[ 10718 10713 10712 10709 ] final -115.43 input   66.30 | X-H torsion
[ 10763 10752 10751 10750 ] final  -63.39 input  -60.55 | X-H torsion
[ 11005 11000 10999 10996 ] final -138.83 input  -57.11 | X-H torsion

> <Gold.Protein.ActiveResidues>
 VAL166  LYS551  ARG553  GLY616  TRP617  ASP618  TYR619  PRO620  LYS621  CYS622 
 ASP623  PHE694  ASN695  SER759  ASP760  ASP761  ALA762  ILE779  LEU786  VAL792 
 PHE793  MET794  SER795  GLU796  ALA797  LYS798  CYS799  TRP800  GLU811  SER814 

> <Gold.Protein.RotatedAtoms>
  150.9282  134.8698  159.7533 H   0  0  0  0  0  0  0  0  0  0  0  0  # atno 6907 bound_to 6896
  152.5025  134.4118  159.9461 H   0  0  0  0  0  0  0  0  0  0  0  0  # atno 6908 bound_to 6896
  151.4147  133.3677  159.2783 H   0  0  0  0  0  0  0  0  0  0  0  0  # atno 6909 bound_to 6896
  145.1605  140.8876  143.3593 H   0  0  0  0  0  0  0  0  0  0  0  0  # atno 7974 bound_to 7965
  156.1614  140.1611  156.8605 H   0  0  0  0  0  0  0  0  0  0  0  0  # atno 8008 bound_to 7997
  154.5165  140.0788  156.8126 H   0  0  0  0  0  0  0  0  0  0  0  0  # atno 8009 bound_to 7997
  155.3699  140.3399  155.4245 H   0  0  0  0  0  0  0  0  0  0  0  0  # atno 8010 bound_to 7997
  139.5444  144.2275  152.0959 H   0  0  0  0  0  0  0  0  0  0  0  0  # atno 10167 bound_to 10162
  156.0895  130.6080  150.8904 H   0  0  0  0  0  0  0  0  0  0  0  0  # atno 10718 bound_to 10713
  154.3143  135.6209  153.5479 H   0  0  0  0  0  0  0  0  0  0  0  0  # atno 10763 bound_to 10752
  152.9826  135.5708  154.5142 H   0  0  0  0  0  0  0  0  0  0  0  0  # atno 10764 bound_to 10752
  154.4798  135.2862  155.1556 H   0  0  0  0  0  0  0  0  0  0  0  0  # atno 10765 bound_to 10752
  140.8578  134.2206  157.4724 H   0  0  0  0  0  0  0  0  0  0  0  0  # atno 11005 bound_to 11000
  145.0335  139.3320  143.6012 LP  0  0  0  0  0  0  0  0  0  0  0  0  # atno 17320 bound_to 7965
  146.3483  139.9682  142.8709 LP  0  0  0  0  0  0  0  0  0  0  0  0  # atno 17321 bound_to 7965
  140.1759  144.4891  150.6554 LP  0  0  0  0  0  0  0  0  0  0  0  0  # atno 17342 bound_to 10162
  140.6687  143.2277  151.5680 LP  0  0  0  0  0  0  0  0  0  0  0  0  # atno 17343 bound_to 10162
  157.6040  131.0940  150.8912 LP  0  0  0  0  0  0  0  0  0  0  0  0  # atno 17370 bound_to 10713
  156.9064  130.5265  149.5281 LP  0  0  0  0  0  0  0  0  0  0  0  0  # atno 17371 bound_to 10713
  139.8706  134.9715  156.4739 LP  0  0  0  0  0  0  0  0  0  0  0  0  # atno 17394 bound_to 11000
  140.8717  133.7983  155.9371 LP  0  0  0  0  0  0  0  0  0  0  0  0  # atno 17395 bound_to 11000

$$$$
