AV-unprocessed.smi:2143|AV-procd|sdf|8722|dock7
  -GOLD-   2272011493D 1   1.00000     0.00000
 Structure written by MMmdl.
 44 45  0  0  0  0  0  0  0  0  1 V2000
  146.9138  139.8186  152.4714 C   0  0  0  0  0  0  0  0  0  0  0  0
  147.4188  139.9948  153.9147 C   0  0  2  0  0  0  0  0  0  0  0  0
  147.1436  138.7101  154.7236 C   0  0  0  0  0  0  0  0  0  0  0  0
  147.6406  138.8191  156.1713 C   0  0  0  0  0  0  0  0  0  0  0  0
  147.0237  140.0370  156.8745 C   0  0  0  0  0  0  0  0  0  0  0  0
  147.2839  141.3412  156.0986 C   0  0  1  0  0  0  0  0  0  0  0  0
  148.7035  141.6930  156.1812 N   0  0  0  0  0  0  0  0  0  0  0  0
  149.4768  141.6263  157.2758 C   0  0  0  0  0  0  0  0  0  0  0  0
  149.0651  141.2601  158.3774 O   0  0  0  0  0  0  0  0  0  0  0  0
  150.9333  142.0718  157.0888 C   0  0  0  0  0  0  0  0  0  0  0  0
  151.6949  142.1063  158.3439 N   0  0  0  0  0  0  0  0  0  0  0  0
  151.4803  143.1310  159.2472 C   0  0  0  0  0  0  0  0  0  0  0  0
  152.1270  143.2297  160.4291 C   0  0  0  0  0  0  0  0  0  0  0  0
  153.1154  142.2350  160.8281 C   0  0  0  0  0  0  0  0  0  0  0  0
  153.7177  142.2833  161.9011 O   0  0  0  0  0  0  0  0  0  0  0  0
  153.3213  141.2020  159.8818 N   0  0  0  0  0  0  0  0  0  0  0  0
  154.2733  140.1525  160.1813 C   0  0  0  0  0  0  0  0  0  0  0  0
  152.6337  141.0987  158.6524 C   0  0  0  0  0  0  0  0  0  0  0  0
  152.8353  140.1651  157.8715 O   0  0  0  0  0  0  0  0  0  0  0  0
  146.8039  141.2328  154.6262 C   0  0  1  0  0  0  0  0  0  0  0  0
  147.0359  142.5500  153.8582 C   0  0  0  0  0  0  0  0  0  0  0  0
  145.8261  139.7487  152.4370 H   0  0  0  0  0  0  0  0  0  0  0  0
  147.3180  138.9100  152.0245 H   0  0  0  0  0  0  0  0  0  0  0  0
  147.2186  140.6464  151.8319 H   0  0  0  0  0  0  0  0  0  0  0  0
  148.5000  140.1304  153.8643 H   0  0  0  0  0  0  0  0  0  0  0  0
  146.0731  138.4995  154.7250 H   0  0  0  0  0  0  0  0  0  0  0  0
  147.6225  137.8563  154.2430 H   0  0  0  0  0  0  0  0  0  0  0  0
  147.3895  137.9101  156.7186 H   0  0  0  0  0  0  0  0  0  0  0  0
  148.7286  138.8929  156.1820 H   0  0  0  0  0  0  0  0  0  0  0  0
  145.9476  139.8859  156.9707 H   0  0  0  0  0  0  0  0  0  0  0  0
  147.4096  140.1182  157.8915 H   0  0  0  0  0  0  0  0  0  0  0  0
  146.6930  142.1194  156.5850 H   0  0  0  0  0  0  0  0  0  0  0  0
  149.1336  142.0149  155.3262 H   0  0  0  0  0  0  0  0  0  0  0  0
  151.4272  141.4177  156.3679 H   0  0  0  0  0  0  0  0  0  0  0  0
  150.9290  143.0623  156.6317 H   0  0  0  0  0  0  0  0  0  0  0  0
  150.7538  143.8915  158.9996 H   0  0  0  0  0  0  0  0  0  0  0  0
  151.9079  144.0550  161.0905 H   0  0  0  0  0  0  0  0  0  0  0  0
  154.9341  140.0456  159.3188 H   0  0  0  0  0  0  0  0  0  0  0  0
  153.6976  139.2425  160.3581 H   0  0  0  0  0  0  0  0  0  0  0  0
  154.8730  140.4024  161.0558 H   0  0  0  0  0  0  0  0  0  0  0  0
  145.7237  141.0815  154.6610 H   0  0  0  0  0  0  0  0  0  0  0  0
  148.0938  142.7169  153.6541 H   0  0  0  0  0  0  0  0  0  0  0  0
  146.6695  143.4037  154.4293 H   0  0  0  0  0  0  0  0  0  0  0  0
  146.5084  142.5580  152.9049 H   0  0  0  0  0  0  0  0  0  0  0  0
  1  2  1  0  0  0  0
  1 22  1  0  0  0  0
  1 23  1  0  0  0  0
  1 24  1  0  0  0  0
  2 20  1  0  0  0  0
  2  3  1  0  0  0  0
  2 25  1  0  0  0  0
  3  4  1  0  0  0  0
  3 26  1  0  0  0  0
  3 27  1  0  0  0  0
  4  5  1  0  0  0  0
  4 28  1  0  0  0  0
  4 29  1  0  0  0  0
  5  6  1  0  0  0  0
  5 30  1  0  0  0  0
  5 31  1  0  0  0  0
  6  7  1  0  0  0  0
  6 20  1  0  0  0  0
  6 32  1  0  0  0  0
  7  8  1  0  0  0  0
  7 33  1  0  0  0  0
  8  9  2  0  0  0  0
  8 10  1  0  0  0  0
 10 11  1  0  0  0  0
 10 34  1  0  0  0  0
 10 35  1  0  0  0  0
 11 18  1  0  0  0  0
 11 12  1  0  0  0  0
 12 13  2  0  0  0  0
 12 36  1  0  0  0  0
 13 14  1  0  0  0  0
 13 37  1  0  0  0  0
 14 15  2  0  0  0  0
 14 16  1  0  0  0  0
 16 17  1  0  0  0  0
 16 18  1  0  0  0  0
 17 38  1  0  0  0  0
 17 39  1  0  0  0  0
 17 40  1  0  0  0  0
 18 19  2  0  0  0  0
 20 21  1  0  0  0  0
 20 41  1  0  0  0  0
 21 42  1  0  0  0  0
 21 43  1  0  0  0  0
 21 44  1  0  0  0  0
M  END
> <s_m_source_file>
AV-unprocessed.smi

> <i_m_source_file_index>
2143

> <i_lp_mmshare_version>
43012

> <i_f3d_flags>
0

> <s_epik_input>
W0NIM11bQ0BASF0xW0NIMl1bQ0gyXVtDSDJdW0NASF0oW0NASF0xW0NIM10pW05IXUMoPU8pW0NIMl1uMltjSF1bY0hdYyg9TyluKFtDSDNdKWMyPU8=

> <s_epik_cmdline>
J2VwaWtfcHl0aG9uJywgJy1waCcsICc3LjAnLCAnLXRuJywgJzgnLCAnLW1hJywgJzIwMCcsICctbWV0YWxfYmluZGluZycsICctaW1hZScsICc8aW5maWxlLm1hZT4nLCAnLW9tYWUnLCAnPG91dGZpbGUubWFlPic=

> <r_lp_tautomer_probability>
1

> <r_epik_Ionization_Penalty>
3.18445e-08

> <r_epik_Ionization_Penalty_Charging>
1.27977e-08

> <r_epik_Ionization_Penalty_Neutral>
1.90469e-08

> <r_epik_State_Penalty>
-0

> <r_epik_Charging_Adjusted_Penalty>
1.27977e-08

> <i_epik_Tot_Q>
0

> <i_epik_Tot_abs_Q>
0

> <r_epik_Metal_State_Penalty>
-0

> <b_epik_Metal_Only>
0

> <s_lp_Force_Field>
OPLS_2005

> <r_lp_Energy>
19.1403

> <b_lp_Chiralities_Consistent>
1

> <s_lp_Variant>
AV-unprocessed.smi:2143-1

> <Gold.Version>
5.8.1

> <Gold.Id.Protein>
6NUR|6NUR_protein|mol2

> <Gold.PLP.Fitness>
37.0724

> <Gold.PLP.PLP>
-34.8876

> <Gold.PLP.part.hbond>
-2.5183

> <Gold.PLP.part.metal>
0.0000

> <Gold.PLP.part.buried>
-2.2903

> <Gold.PLP.part.nonpolar>
-29.0380

> <Gold.PLP.part.repulsive>
0.0964

> <Gold.PLP.ligand.clash>
0.0000

> <Gold.PLP.ligand.torsion>
0.4129

> <Gold.PLP.Chemscore.Hbond>
1.0000

> <Gold.PLP.Chemscore.CHOScore>
0.0000

> <Gold.PLP.Chemscore.Metal>
0.0000

> <Gold.Chemscore.Hbonds>
donor molecule, donor type, donor heavy atom, donor atom, acceptor molecule, acceptor atom, score
      P1  H  7997  8010       L1    19  1.00

> <Gold.PLP.Chemscore.Internal.Correction>
0.0107

> <Gold.Rescore>
     Score         DG    S(hbond)    S(metal)    S(lipo)     H(rot)  DE(clash)    DE(int)     intcor
     10.96     -13.21       0.93        0.00      72.48       1.51       0.72       1.53       ----

> <Gold.Chemscore.Fitness>
10.9564

> <Gold.Chemscore.DG>
-13.2061

> <Gold.Chemscore.ZeroCoef>
-5.4800

> <Gold.Chemscore.Hbond>
0.9340

> <Gold.Chemscore.Metal>
0.0000

> <Gold.Chemscore.Lipo>
72.4770

> <Gold.Chemscore.Internal_Hbond>
0.0000

> <Gold.Chemscore.DEClash>
0.7232

> <Gold.Chemscore.DEInternal>
1.5265

> <Gold.Chemscore.Rot>
1.5131

> <Gold.Chemscore.Internal.Correction>
   9.000000E+99

> <Gold.Chemscore.Hbonds>
donor molecule, donor type, donor heavy atom, donor atom, acceptor molecule, acceptor atom, score
      P1  H  7997  8010       L1    19  0.92

> <Gold.Chemscore.Hbond.Weighted>
-3.1197

> <Gold.Chemscore.Metal.Weighted>
-0.0000

> <Gold.Chemscore.Lipo.Weighted>
-8.4798

> <Gold.Chemscore.Internal_Hbond.Weighted>
0.0000

> <Gold.Chemscore.DEClash.Weighted>
0.7232

> <Gold.Chemscore.DEInternal.Weighted>
1.5265

> <Gold.Chemscore.Rot.Weighted>
3.8734

> <Gold.Chemscore.Internal.Correction.Weighted>
   9.000000E+99

> <Gold.Protein.RotatedTorsions>
[ 6907 6896 6895 6894 ] final  179.73 input  -60.11 | X-H torsion
[ 7974 7965 7964 7962 ] final  129.86 input  175.53 | X-H torsion
[ 8008 7997 7996 7995 ] final   47.85 input   59.86 | X-H torsion
[ 10167 10162 10161 10158 ] final  107.50 input  -65.29 | X-H torsion
[ 10718 10713 10712 10709 ] final   38.60 input   66.30 | X-H torsion
[ 10763 10752 10751 10750 ] final  -91.26 input  -60.55 | X-H torsion
[ 11005 11000 10999 10996 ] final  118.40 input  -57.11 | X-H torsion

> <Gold.Protein.ActiveResidues>
 VAL166  LYS551  ARG553  GLY616  TRP617  ASP618  TYR619  PRO620  LYS621  CYS622 
 ASP623  PHE694  ASN695  SER759  ASP760  ASP761  ALA762  ILE779  LEU786  VAL792 
 PHE793  MET794  SER795  GLU796  ALA797  LYS798  CYS799  TRP800  GLU811  SER814 

> <Gold.Protein.RotatedAtoms>
  151.6668  133.3315  159.3186 H   0  0  0  0  0  0  0  0  0  0  0  0  # atno 6907 bound_to 6896
  150.7887  134.6896  159.6499 H   0  0  0  0  0  0  0  0  0  0  0  0  # atno 6908 bound_to 6896
  152.3962  134.6365  160.0140 H   0  0  0  0  0  0  0  0  0  0  0  0  # atno 6909 bound_to 6896
  145.0241  139.4105  143.5182 H   0  0  0  0  0  0  0  0  0  0  0  0  # atno 7974 bound_to 7965
  155.3759  140.3426  155.4245 H   0  0  0  0  0  0  0  0  0  0  0  0  # atno 8008 bound_to 7997
  156.1637  140.1609  156.8602 H   0  0  0  0  0  0  0  0  0  0  0  0  # atno 8009 bound_to 7997
  154.5164  140.0777  156.8071 H   0  0  0  0  0  0  0  0  0  0  0  0  # atno 8010 bound_to 7997
  139.6922  144.7106  151.1329 H   0  0  0  0  0  0  0  0  0  0  0  0  # atno 10167 bound_to 10162
  157.3607  130.7648  149.7045 H   0  0  0  0  0  0  0  0  0  0  0  0  # atno 10718 bound_to 10713
  154.6743  135.5274  153.8178 H   0  0  0  0  0  0  0  0  0  0  0  0  # atno 10763 bound_to 10752
  153.0522  135.6536  154.0676 H   0  0  0  0  0  0  0  0  0  0  0  0  # atno 10764 bound_to 10752
  154.0571  135.2964  155.3311 H   0  0  0  0  0  0  0  0  0  0  0  0  # atno 10765 bound_to 10752
  139.9108  134.9620  156.7497 H   0  0  0  0  0  0  0  0  0  0  0  0  # atno 11005 bound_to 11000
  146.3490  139.9755  142.8701 LP  0  0  0  0  0  0  0  0  0  0  0  0  # atno 17320 bound_to 7965
  145.1856  140.9788  143.4240 LP  0  0  0  0  0  0  0  0  0  0  0  0  # atno 17321 bound_to 7965
  140.7686  143.5543  150.9170 LP  0  0  0  0  0  0  0  0  0  0  0  0  # atno 17342 bound_to 10162
  139.9221  143.6594  152.3094 LP  0  0  0  0  0  0  0  0  0  0  0  0  # atno 17343 bound_to 10162
  155.9737  130.4114  150.3982 LP  0  0  0  0  0  0  0  0  0  0  0  0  # atno 17370 bound_to 10713
  157.2059  131.0449  151.2625 LP  0  0  0  0  0  0  0  0  0  0  0  0  # atno 17371 bound_to 10713
  140.6783  133.9497  155.7895 LP  0  0  0  0  0  0  0  0  0  0  0  0  # atno 17394 bound_to 11000
  141.0528  134.0459  157.3761 LP  0  0  0  0  0  0  0  0  0  0  0  0  # atno 17395 bound_to 11000

$$$$
