AV-unprocessed.smi:1840|AV-procd|sdf|7491|dock6
  -GOLD-   22720 9193D 1   1.00000     0.00000
 Structure written by MMmdl.
 43 44  0  0  0  0  0  0  0  0  1 V2000
  148.1935  131.9967  154.1975 C   0  0  0  0  0  0  0  0  0  0  0  0
  147.6044  132.9872  153.1841 C   0  0  1  0  0  0  0  0  0  0  0  0
  146.0639  133.0451  153.2813 C   0  0  0  0  0  0  0  0  0  0  0  0
  145.4148  132.9411  151.9857 N   0  0  0  0  0  0  0  0  0  0  0  0
  145.6576  132.0328  150.9761 C   0  0  0  0  0  0  0  0  0  0  0  0
  144.7831  132.3067  149.9642 C   0  0  0  0  0  0  0  0  0  0  0  0
  144.0410  133.4185  150.4517 C   0  0  0  0  0  0  0  0  0  0  0  0
  144.4238  133.7983  151.6602 N   0  0  0  0  0  0  0  0  0  0  0  0
  148.1829  134.3099  153.4171 N   0  0  0  0  0  0  0  0  0  0  0  0
  148.2402  134.9350  154.6020 C   0  0  0  0  0  0  0  0  0  0  0  0
  147.7242  134.5114  155.6362 O   0  0  0  0  0  0  0  0  0  0  0  0
  148.9710  136.0554  154.5334 N   0  0  0  0  0  0  0  0  0  0  0  0
  149.3232  136.9075  155.6697 C   0  0  1  0  0  0  0  0  0  0  0  0
  150.8530  136.9328  155.8927 C   0  0  0  0  0  0  0  0  0  0  0  0
  151.5900  137.6718  154.7634 C   0  0  0  0  0  0  0  0  0  0  0  0
  151.0403  139.0946  154.5837 C   0  0  0  0  0  0  0  0  0  0  0  0
  149.5207  139.0842  154.3495 C   0  0  0  0  0  0  0  0  0  0  0  0
  148.7739  138.3432  155.4791 C   0  0  1  0  0  0  0  0  0  0  0  0
  147.2504  138.3766  155.2670 C   0  0  0  0  0  0  0  0  0  0  0  0
  147.8030  130.9918  154.0348 H   0  0  0  0  0  0  0  0  0  0  0  0
  147.9541  132.2848  155.2217 H   0  0  0  0  0  0  0  0  0  0  0  0
  149.2794  131.9449  154.1099 H   0  0  0  0  0  0  0  0  0  0  0  0
  147.8786  132.6314  152.1892 H   0  0  0  0  0  0  0  0  0  0  0  0
  145.6959  132.2336  153.9110 H   0  0  0  0  0  0  0  0  0  0  0  0
  145.7456  133.9742  153.7560 H   0  0  0  0  0  0  0  0  0  0  0  0
  146.4152  131.2684  151.0661 H   0  0  0  0  0  0  0  0  0  0  0  0
  144.6858  131.7895  149.0213 H   0  0  0  0  0  0  0  0  0  0  0  0
  143.2399  133.9567  149.9667 H   0  0  0  0  0  0  0  0  0  0  0  0
  148.6351  134.7500  152.6292 H   0  0  0  0  0  0  0  0  0  0  0  0
  149.3534  136.3184  153.6370 H   0  0  0  0  0  0  0  0  0  0  0  0
  148.8550  136.4843  156.5604 H   0  0  0  0  0  0  0  0  0  0  0  0
  151.0663  137.4290  156.8404 H   0  0  0  0  0  0  0  0  0  0  0  0
  151.2469  135.9206  155.9921 H   0  0  0  0  0  0  0  0  0  0  0  0
  152.6576  137.7111  154.9815 H   0  0  0  0  0  0  0  0  0  0  0  0
  151.4883  137.1168  153.8299 H   0  0  0  0  0  0  0  0  0  0  0  0
  151.2679  139.6875  155.4705 H   0  0  0  0  0  0  0  0  0  0  0  0
  151.5418  139.5839  153.7482 H   0  0  0  0  0  0  0  0  0  0  0  0
  149.1594  140.1105  154.2767 H   0  0  0  0  0  0  0  0  0  0  0  0
  149.3041  138.6158  153.3886 H   0  0  0  0  0  0  0  0  0  0  0  0
  148.9715  138.8857  156.4050 H   0  0  0  0  0  0  0  0  0  0  0  0
  146.9607  137.9000  154.3301 H   0  0  0  0  0  0  0  0  0  0  0  0
  146.8830  139.4028  155.2401 H   0  0  0  0  0  0  0  0  0  0  0  0
  146.7312  137.8634  156.0768 H   0  0  0  0  0  0  0  0  0  0  0  0
  1  2  1  0  0  0  0
  1 20  1  0  0  0  0
  1 21  1  0  0  0  0
  1 22  1  0  0  0  0
  2  3  1  0  0  0  0
  2  9  1  0  0  0  0
  2 23  1  0  0  0  0
  3  4  1  0  0  0  0
  3 24  1  0  0  0  0
  3 25  1  0  0  0  0
  4  8  1  0  0  0  0
  4  5  1  0  0  0  0
  5  6  2  0  0  0  0
  5 26  1  0  0  0  0
  6  7  1  0  0  0  0
  6 27  1  0  0  0  0
  7  8  2  0  0  0  0
  7 28  1  0  0  0  0
  9 10  1  0  0  0  0
  9 29  1  0  0  0  0
 10 11  2  0  0  0  0
 10 12  1  0  0  0  0
 12 13  1  0  0  0  0
 12 30  1  0  0  0  0
 13 18  1  0  0  0  0
 13 14  1  0  0  0  0
 13 31  1  0  0  0  0
 14 15  1  0  0  0  0
 14 32  1  0  0  0  0
 14 33  1  0  0  0  0
 15 16  1  0  0  0  0
 15 34  1  0  0  0  0
 15 35  1  0  0  0  0
 16 17  1  0  0  0  0
 16 36  1  0  0  0  0
 16 37  1  0  0  0  0
 17 18  1  0  0  0  0
 17 38  1  0  0  0  0
 17 39  1  0  0  0  0
 18 19  1  0  0  0  0
 18 40  1  0  0  0  0
 19 41  1  0  0  0  0
 19 42  1  0  0  0  0
 19 43  1  0  0  0  0
M  END
> <s_m_source_file>
AV-unprocessed.smi

> <i_m_source_file_index>
1840

> <i_lp_mmshare_version>
43012

> <i_f3d_flags>
0

> <s_epik_input>
bjFbY0hdW2NIXVtjSF1uMVtDSDJdW0NAQEhdKFtDSDNdKVtOSF1DKD1PKVtOSF1bQ0BASF0yW0NIMl1bQ0gyXVtDSDJdW0NIMl1bQ0BIXTJbQ0gzXQ==

> <s_epik_cmdline>
J2VwaWtfcHl0aG9uJywgJy1waCcsICc3LjAnLCAnLXRuJywgJzgnLCAnLW1hJywgJzIwMCcsICctbWV0YWxfYmluZGluZycsICctaW1hZScsICc8aW5maWxlLm1hZT4nLCAnLW9tYWUnLCAnPG91dGZpbGUubWFlPic=

> <r_lp_tautomer_probability>
1

> <r_epik_Ionization_Penalty>
7.38659e-05

> <r_epik_Ionization_Penalty_Charging>
0

> <r_epik_Ionization_Penalty_Neutral>
7.38659e-05

> <r_epik_State_Penalty>
-0

> <r_epik_Charging_Adjusted_Penalty>
0

> <i_epik_Tot_Q>
0

> <i_epik_Tot_abs_Q>
0

> <r_epik_Metal_State_Penalty>
-0

> <b_epik_Metal_Only>
0

> <s_lp_Force_Field>
OPLS_2005

> <r_lp_Energy>
6.83703

> <b_lp_Chiralities_Consistent>
1

> <s_lp_Variant>
AV-unprocessed.smi:1840-4

> <Gold.Version>
5.8.1

> <Gold.Id.Protein>
6NUR|6NUR_protein|mol2

> <Gold.PLP.Fitness>
37.6241

> <Gold.PLP.PLP>
-28.8230

> <Gold.PLP.part.hbond>
-2.0000

> <Gold.PLP.part.metal>
0.0000

> <Gold.PLP.part.buried>
-3.4455

> <Gold.PLP.part.nonpolar>
-23.4914

> <Gold.PLP.part.repulsive>
0.1479

> <Gold.PLP.ligand.clash>
0.0000

> <Gold.PLP.ligand.torsion>
0.9300

> <Gold.PLP.Chemscore.Hbond>
1.5408

> <Gold.PLP.Chemscore.CHOScore>
2.0000

> <Gold.PLP.Chemscore.Metal>
0.0000

> <Gold.Chemscore.Hbonds>
donor molecule, donor type, donor heavy atom, donor atom, acceptor molecule, acceptor atom, score
      L1  H     9    29       P1  7948  0.76
      L1  H    12    30       P1  7948  0.83
      L1  C     5    26       P1 10747  0.55
      L1  C     7    28       P1 10186  1.00

> <Gold.PLP.Chemscore.Internal.Correction>
0.0388

> <Gold.Rescore>
     Score         DG    S(hbond)    S(metal)    S(lipo)     H(rot)  DE(clash)    DE(int)     intcor
     13.00     -14.80       1.73        0.00      64.20       1.56       0.00       1.80       ----

> <Gold.Chemscore.Fitness>
12.9971

> <Gold.Chemscore.DG>
-14.7970

> <Gold.Chemscore.ZeroCoef>
-5.4800

> <Gold.Chemscore.Hbond>
1.7343

> <Gold.Chemscore.Metal>
0.0000

> <Gold.Chemscore.Lipo>
64.2033

> <Gold.Chemscore.Internal_Hbond>
0.0000

> <Gold.Chemscore.DEClash>
0.0029

> <Gold.Chemscore.DEInternal>
1.7970

> <Gold.Chemscore.Rot>
1.5576

> <Gold.Chemscore.Internal.Correction>
   9.000000E+99

> <Gold.Chemscore.Hbonds>
donor molecule, donor type, donor heavy atom, donor atom, acceptor molecule, acceptor atom, score
      L1  H     9    29       P1  7948  0.11
      L1  H    12    30       P1  7948  0.68

> <Gold.Chemscore.Hbond.Weighted>
-5.7927

> <Gold.Chemscore.Metal.Weighted>
-0.0000

> <Gold.Chemscore.Lipo.Weighted>
-7.5118

> <Gold.Chemscore.Internal_Hbond.Weighted>
0.0000

> <Gold.Chemscore.DEClash.Weighted>
0.0029

> <Gold.Chemscore.DEInternal.Weighted>
1.7970

> <Gold.Chemscore.Rot.Weighted>
3.9875

> <Gold.Chemscore.Internal.Correction.Weighted>
   9.000000E+99

> <Gold.Protein.RotatedTorsions>
[ 6907 6896 6895 6894 ] final  -56.94 input  -60.11 | X-H torsion
[ 7974 7965 7964 7962 ] final   97.21 input  175.53 | X-H torsion
[ 8008 7997 7996 7995 ] final  158.69 input   59.86 | X-H torsion
[ 10167 10162 10161 10158 ] final  161.59 input  -65.29 | X-H torsion
[ 10718 10713 10712 10709 ] final  106.17 input   66.30 | X-H torsion
[ 10763 10752 10751 10750 ] final   25.37 input  -60.55 | X-H torsion
[ 11005 11000 10999 10996 ] final -149.41 input  -57.11 | X-H torsion

> <Gold.Protein.ActiveResidues>
 VAL166  LYS551  ARG553  GLY616  TRP617  ASP618  TYR619  PRO620  LYS621  CYS622 
 ASP623  PHE694  ASN695  SER759  ASP760  ASP761  ALA762  ILE779  LEU786  VAL792 
 PHE793  MET794  SER795  GLU796  ALA797  LYS798  CYS799  TRP800  GLU811  SER814 

> <Gold.Protein.RotatedAtoms>
  150.8127  134.7291  159.6701 H   0  0  0  0  0  0  0  0  0  0  0  0  # atno 6907 bound_to 6896
  152.4246  134.5888  159.9978 H   0  0  0  0  0  0  0  0  0  0  0  0  # atno 6908 bound_to 6896
  151.6094  133.3311  159.3100 H   0  0  0  0  0  0  0  0  0  0  0  0  # atno 6909 bound_to 6896
  145.4285  139.2313  143.3157 H   0  0  0  0  0  0  0  0  0  0  0  0  # atno 7974 bound_to 7965
  156.2287  140.1851  156.7298 H   0  0  0  0  0  0  0  0  0  0  0  0  # atno 8008 bound_to 7997
  154.5985  140.0639  156.9364 H   0  0  0  0  0  0  0  0  0  0  0  0  # atno 8009 bound_to 7997
  155.2215  140.3308  155.4317 H   0  0  0  0  0  0  0  0  0  0  0  0  # atno 8010 bound_to 7997
  139.4851  144.4521  151.8816 H   0  0  0  0  0  0  0  0  0  0  0  0  # atno 10167 bound_to 10162
  157.6678  131.0844  150.5966 H   0  0  0  0  0  0  0  0  0  0  0  0  # atno 10718 bound_to 10713
  153.0696  135.6584  154.0276 H   0  0  0  0  0  0  0  0  0  0  0  0  # atno 10763 bound_to 10752
  153.9924  135.2945  155.3412 H   0  0  0  0  0  0  0  0  0  0  0  0  # atno 10764 bound_to 10752
  154.7067  135.5222  153.8675 H   0  0  0  0  0  0  0  0  0  0  0  0  # atno 10765 bound_to 10752
  140.7511  134.3406  157.5125 H   0  0  0  0  0  0  0  0  0  0  0  0  # atno 11005 bound_to 11000
  146.2619  140.5019  142.8850 LP  0  0  0  0  0  0  0  0  0  0  0  0  # atno 17320 bound_to 7965
  144.8198  140.6530  143.6360 LP  0  0  0  0  0  0  0  0  0  0  0  0  # atno 17321 bound_to 7965
  140.3978  144.2532  150.5895 LP  0  0  0  0  0  0  0  0  0  0  0  0  # atno 17342 bound_to 10162
  140.5085  143.2297  151.8571 LP  0  0  0  0  0  0  0  0  0  0  0  0  # atno 17343 bound_to 10162
  156.6266  130.4420  149.5802 LP  0  0  0  0  0  0  0  0  0  0  0  0  # atno 17370 bound_to 10713
  156.2314  130.6797  151.1467 LP  0  0  0  0  0  0  0  0  0  0  0  0  # atno 17371 bound_to 10713
  139.8787  134.9142  156.3102 LP  0  0  0  0  0  0  0  0  0  0  0  0  # atno 17394 bound_to 11000
  140.9750  133.7303  156.0589 LP  0  0  0  0  0  0  0  0  0  0  0  0  # atno 17395 bound_to 11000

$$$$
