AV-unprocessed.smi:2217|AV-procd|sdf|8975|dock3
  -GOLD-   2272012193D 1   1.00000     0.00000
 Structure written by MMmdl.
 45 48  0  0  0  0  0  0  0  0  1 V2000
  154.5339  142.4937  163.9287 C   0  0  0  0  0  0  0  0  0  0  0  0
  153.8062  142.4441  162.6017 C   0  0  0  0  0  0  0  0  0  0  0  0
  152.8756  143.4374  162.2430 C   0  0  0  0  0  0  0  0  0  0  0  0
  152.2232  143.3382  160.9991 C   0  0  0  0  0  0  0  0  0  0  0  0
  152.5129  142.2530  160.1413 C   0  0  0  0  0  0  0  0  0  0  0  0
  151.7798  142.2562  158.9177 N   0  0  0  0  0  0  0  0  0  0  0  0
  151.8414  141.4489  157.8371 C   0  0  0  0  0  0  0  0  0  0  0  0
  152.6347  140.5104  157.7897 O   0  0  0  0  0  0  0  0  0  0  0  0
  150.9949  141.7335  156.8362 N   0  0  0  0  0  0  0  0  0  0  0  0
  150.9473  141.0414  155.5552 C   0  0  1  0  0  0  0  0  0  0  0  0
  151.1261  139.5310  155.7031 C   0  0  2  0  0  0  0  0  0  0  0  0
  152.1886  138.5676  155.3108 C   0  0  0  0  0  0  0  0  0  0  0  0
  151.2773  137.4907  154.6655 C   0  0  0  0  0  0  0  0  0  0  0  0
  149.9627  138.0900  154.5682 O   0  0  0  0  0  0  0  0  0  0  0  0
  150.2267  139.4760  154.4847 C   0  0  1  0  0  0  0  0  0  0  0  0
  149.4856  140.6913  155.0799 C   0  0  0  0  0  0  0  0  0  0  0  0
  148.8353  141.6634  154.0854 C   0  0  0  0  0  0  0  0  0  0  0  0
  147.3816  141.8893  154.5065 C   0  0  0  0  0  0  0  0  0  0  0  0
  147.3549  141.5523  155.9901 C   0  0  0  0  0  0  0  0  0  0  0  0
  148.3776  140.4284  156.1221 C   0  0  0  0  0  0  0  0  0  0  0  0
  153.4117  141.3008  160.4998 N   0  0  0  0  0  0  0  0  0  0  0  0
  154.0379  141.3956  161.6914 C   0  0  0  0  0  0  0  0  0  0  0  0
  154.4431  143.4766  164.3921 H   0  0  0  0  0  0  0  0  0  0  0  0
  155.5943  142.2798  163.7913 H   0  0  0  0  0  0  0  0  0  0  0  0
  154.1196  141.7522  164.6120 H   0  0  0  0  0  0  0  0  0  0  0  0
  152.6608  144.2617  162.9072 H   0  0  0  0  0  0  0  0  0  0  0  0
  151.5050  144.0920  160.7103 H   0  0  0  0  0  0  0  0  0  0  0  0
  151.0540  142.9565  158.8715 H   0  0  0  0  0  0  0  0  0  0  0  0
  150.3705  142.5189  156.9561 H   0  0  0  0  0  0  0  0  0  0  0  0
  151.5832  141.4817  154.7812 H   0  0  0  0  0  0  0  0  0  0  0  0
  150.6265  139.1739  156.6090 H   0  0  0  0  0  0  0  0  0  0  0  0
  152.8848  138.9995  154.5904 H   0  0  0  0  0  0  0  0  0  0  0  0
  152.7488  138.1856  156.1646 H   0  0  0  0  0  0  0  0  0  0  0  0
  151.6435  137.2148  153.6758 H   0  0  0  0  0  0  0  0  0  0  0  0
  151.2226  136.5859  155.2713 H   0  0  0  0  0  0  0  0  0  0  0  0
  150.7345  139.7177  153.5436 H   0  0  0  0  0  0  0  0  0  0  0  0
  149.3634  142.6172  154.0941 H   0  0  0  0  0  0  0  0  0  0  0  0
  148.8834  141.2944  153.0602 H   0  0  0  0  0  0  0  0  0  0  0  0
  147.0348  142.9018  154.2982 H   0  0  0  0  0  0  0  0  0  0  0  0
  146.7336  141.1979  153.9660 H   0  0  0  0  0  0  0  0  0  0  0  0
  147.6826  142.4166  156.5695 H   0  0  0  0  0  0  0  0  0  0  0  0
  146.3636  141.2670  156.3431 H   0  0  0  0  0  0  0  0  0  0  0  0
  147.8897  139.4767  155.9085 H   0  0  0  0  0  0  0  0  0  0  0  0
  148.7446  140.3643  157.1465 H   0  0  0  0  0  0  0  0  0  0  0  0
  154.7419  140.6101  161.9236 H   0  0  0  0  0  0  0  0  0  0  0  0
  1  2  1  0  0  0  0
  1 23  1  0  0  0  0
  1 24  1  0  0  0  0
  1 25  1  0  0  0  0
  2 22  1  0  0  0  0
  2  3  2  0  0  0  0
  3  4  1  0  0  0  0
  3 26  1  0  0  0  0
  4  5  2  0  0  0  0
  4 27  1  0  0  0  0
  5  6  1  0  0  0  0
  5 21  1  0  0  0  0
  6  7  1  0  0  0  0
  6 28  1  0  0  0  0
  7  8  2  0  0  0  0
  7  9  1  0  0  0  0
  9 10  1  0  0  0  0
  9 29  1  0  0  0  0
 10 16  1  0  0  0  0
 10 11  1  0  0  0  0
 10 30  1  0  0  0  0
 11 15  1  0  0  0  0
 11 12  1  0  0  0  0
 11 31  1  0  0  0  0
 12 13  1  0  0  0  0
 12 32  1  0  0  0  0
 12 33  1  0  0  0  0
 13 14  1  0  0  0  0
 13 34  1  0  0  0  0
 13 35  1  0  0  0  0
 14 15  1  0  0  0  0
 15 16  1  0  0  0  0
 15 36  1  0  0  0  0
 16 20  1  0  0  0  0
 16 17  1  0  0  0  0
 17 18  1  0  0  0  0
 17 37  1  0  0  0  0
 17 38  1  0  0  0  0
 18 19  1  0  0  0  0
 18 39  1  0  0  0  0
 18 40  1  0  0  0  0
 19 20  1  0  0  0  0
 19 41  1  0  0  0  0
 19 42  1  0  0  0  0
 20 43  1  0  0  0  0
 20 44  1  0  0  0  0
 21 22  2  0  0  0  0
 22 45  1  0  0  0  0
M  END
> <s_m_source_file>
AV-unprocessed.smi

> <i_m_source_file_index>
2217

> <i_lp_mmshare_version>
43012

> <i_f3d_flags>
0

> <s_epik_input>
W0NIM11jMVtjSF1bY0hdYyhuW2NIXTEpW05IXUMoPU8pW05IXVtDQEBIXTJbQ0BASF0oW0NIMl1bQ0gyXU8zKVtDQEhdM0MyNFtDSDJdW0NIMl1bQ0gyXVtDSDJdNA==

> <s_epik_cmdline>
J2VwaWtfcHl0aG9uJywgJy1waCcsICc3LjAnLCAnLXRuJywgJzgnLCAnLW1hJywgJzIwMCcsICctbWV0YWxfYmluZGluZycsICctaW1hZScsICc8aW5maWxlLm1hZT4nLCAnLW9tYWUnLCAnPG91dGZpbGUubWFlPic=

> <r_lp_tautomer_probability>
1

> <r_epik_Ionization_Penalty>
6.14796e-05

> <r_epik_Ionization_Penalty_Charging>
0

> <r_epik_Ionization_Penalty_Neutral>
6.14796e-05

> <r_epik_State_Penalty>
-0

> <r_epik_Charging_Adjusted_Penalty>
0

> <i_epik_Tot_Q>
0

> <i_epik_Tot_abs_Q>
0

> <r_epik_Metal_State_Penalty>
-0

> <b_epik_Metal_Only>
0

> <s_lp_Force_Field>
OPLS_2005

> <r_lp_Energy>
79.3106

> <b_lp_Chiralities_Consistent>
1

> <s_lp_Variant>
AV-unprocessed.smi:2217-8

> <Gold.Version>
5.8.1

> <Gold.Id.Protein>
6NUR|6NUR_protein|mol2

> <Gold.PLP.Fitness>
47.8300

> <Gold.PLP.PLP>
-46.2741

> <Gold.PLP.part.hbond>
-1.0000

> <Gold.PLP.part.metal>
0.0000

> <Gold.PLP.part.buried>
0.6793

> <Gold.PLP.part.nonpolar>
-43.9514

> <Gold.PLP.part.repulsive>
0.3555

> <Gold.PLP.ligand.clash>
0.0000

> <Gold.PLP.ligand.torsion>
0.2382

> <Gold.PLP.Chemscore.Hbond>
0.5834

> <Gold.PLP.Chemscore.CHOScore>
0.0000

> <Gold.PLP.Chemscore.Metal>
0.0000

> <Gold.Chemscore.Hbonds>
donor molecule, donor type, donor heavy atom, donor atom, acceptor molecule, acceptor atom, score
      P1  H  7997  8010       L1     8  0.62

> <Gold.PLP.Chemscore.Internal.Correction>
0.2821

> <Gold.Rescore>
     Score         DG    S(hbond)    S(metal)    S(lipo)     H(rot)  DE(clash)    DE(int)     intcor
     15.48     -19.56       0.78        0.00     119.83       1.00       1.17       2.91       ----

> <Gold.Chemscore.Fitness>
15.4800

> <Gold.Chemscore.DG>
-19.5613

> <Gold.Chemscore.ZeroCoef>
-5.4800

> <Gold.Chemscore.Hbond>
0.7850

> <Gold.Chemscore.Metal>
0.0000

> <Gold.Chemscore.Lipo>
119.8251

> <Gold.Chemscore.Internal_Hbond>
0.0000

> <Gold.Chemscore.DEClash>
1.1665

> <Gold.Chemscore.DEInternal>
2.9149

> <Gold.Chemscore.Rot>
1.0000

> <Gold.Chemscore.Internal.Correction>
   9.000000E+99

> <Gold.Chemscore.Hbonds>
donor molecule, donor type, donor heavy atom, donor atom, acceptor molecule, acceptor atom, score
      P1  H  7997  8010       L1     8  0.63

> <Gold.Chemscore.Hbond.Weighted>
-2.6218

> <Gold.Chemscore.Metal.Weighted>
-0.0000

> <Gold.Chemscore.Lipo.Weighted>
-14.0195

> <Gold.Chemscore.Internal_Hbond.Weighted>
0.0000

> <Gold.Chemscore.DEClash.Weighted>
1.1665

> <Gold.Chemscore.DEInternal.Weighted>
2.9149

> <Gold.Chemscore.Rot.Weighted>
2.5600

> <Gold.Chemscore.Internal.Correction.Weighted>
   9.000000E+99

> <Gold.Protein.RotatedTorsions>
[ 6907 6896 6895 6894 ] final  -52.66 input  -60.11 | X-H torsion
[ 7974 7965 7964 7962 ] final  -52.11 input  175.53 | X-H torsion
[ 8008 7997 7996 7995 ] final   59.36 input   59.86 | X-H torsion
[ 10167 10162 10161 10158 ] final  -52.74 input  -65.29 | X-H torsion
[ 10718 10713 10712 10709 ] final  -55.91 input   66.30 | X-H torsion
[ 10763 10752 10751 10750 ] final -109.68 input  -60.55 | X-H torsion
[ 11005 11000 10999 10996 ] final  147.83 input  -57.11 | X-H torsion

> <Gold.Protein.ActiveResidues>
 VAL166  LYS551  ARG553  GLY616  TRP617  ASP618  TYR619  PRO620  LYS621  CYS622 
 ASP623  PHE694  ASN695  SER759  ASP760  ASP761  ALA762  ILE779  LEU786  VAL792 
 PHE793  MET794  SER795  GLU796  ALA797  LYS798  CYS799  TRP800  GLU811  SER814 

> <Gold.Protein.RotatedAtoms>
  150.8497  134.7818  159.6998 H   0  0  0  0  0  0  0  0  0  0  0  0  # atno 6907 bound_to 6896
  152.4565  134.5277  159.9811 H   0  0  0  0  0  0  0  0  0  0  0  0  # atno 6908 bound_to 6896
  151.5400  133.3396  159.2969 H   0  0  0  0  0  0  0  0  0  0  0  0  # atno 6909 bound_to 6896
  145.9116  140.7910  142.9692 H   0  0  0  0  0  0  0  0  0  0  0  0  # atno 7974 bound_to 7965
  155.5650  140.3489  155.4501 H   0  0  0  0  0  0  0  0  0  0  0  0  # atno 8008 bound_to 7997
  156.0486  140.1312  157.0101 H   0  0  0  0  0  0  0  0  0  0  0  0  # atno 8009 bound_to 7997
  154.4424  140.1009  156.6328 H   0  0  0  0  0  0  0  0  0  0  0  0  # atno 8010 bound_to 7997
  140.6522  143.2573  151.4691 H   0  0  0  0  0  0  0  0  0  0  0  0  # atno 10167 bound_to 10162
  156.1330  130.4158  150.0234 H   0  0  0  0  0  0  0  0  0  0  0  0  # atno 10718 bound_to 10713
  154.8206  135.4592  154.0769 H   0  0  0  0  0  0  0  0  0  0  0  0  # atno 10763 bound_to 10752
  153.2125  135.6883  153.8103 H   0  0  0  0  0  0  0  0  0  0  0  0  # atno 10764 bound_to 10752
  153.7549  135.3292  155.3304 H   0  0  0  0  0  0  0  0  0  0  0  0  # atno 10765 bound_to 10752
  140.0908  134.9042  157.1648 H   0  0  0  0  0  0  0  0  0  0  0  0  # atno 11005 bound_to 11000
  144.6744  140.1835  143.7403 LP  0  0  0  0  0  0  0  0  0  0  0  0  # atno 17320 bound_to 7965
  145.8664  139.2249  143.1686 LP  0  0  0  0  0  0  0  0  0  0  0  0  # atno 17321 bound_to 7965
  139.5738  144.1866  152.1875 LP  0  0  0  0  0  0  0  0  0  0  0  0  # atno 17342 bound_to 10162
  140.1170  144.5407  150.6887 LP  0  0  0  0  0  0  0  0  0  0  0  0  # atno 17343 bound_to 10162
  156.8141  130.9335  151.3643 LP  0  0  0  0  0  0  0  0  0  0  0  0  # atno 17370 bound_to 10713
  157.6506  130.8881  149.9626 LP  0  0  0  0  0  0  0  0  0  0  0  0  # atno 17371 bound_to 10713
  140.3354  134.2763  155.7221 LP  0  0  0  0  0  0  0  0  0  0  0  0  # atno 17394 bound_to 11000
  141.2077  133.7798  157.0102 LP  0  0  0  0  0  0  0  0  0  0  0  0  # atno 17395 bound_to 11000

$$$$
