AV-unprocessed.smi:2329|AV-procd|sdf|9305|dock1
  -GOLD-   2272012523D 1   1.00000     0.00000
 Structure written by MMmdl.
 45 48  0  0  0  0  0  0  0  0  1 V2000
  144.4811  137.0076  162.5879 C   0  0  0  0  0  0  0  0  0  0  0  0
  145.7395  136.4504  161.9570 C   0  0  0  0  0  0  0  0  0  0  0  0
  146.3168  135.2533  162.4244 C   0  0  0  0  0  0  0  0  0  0  0  0
  147.4844  134.7896  161.7925 C   0  0  0  0  0  0  0  0  0  0  0  0
  148.0229  135.5365  160.7272 C   0  0  0  0  0  0  0  0  0  0  0  0
  147.3823  136.7286  160.3211 C   0  0  0  0  0  0  0  0  0  0  0  0
  148.0057  137.4064  159.2417 N   0  0  0  0  0  0  0  0  0  0  0  0
  149.3186  137.4955  158.9522 C   0  0  0  0  0  0  0  0  0  0  0  0
  150.2200  136.9770  159.6087 O   0  0  0  0  0  0  0  0  0  0  0  0
  149.5849  138.2056  157.8417 N   0  0  0  0  0  0  0  0  0  0  0  0
  150.8979  138.4879  157.2585 C   0  0  1  0  0  0  0  0  0  0  0  0
  150.8159  138.7148  155.7403 C   0  0  2  0  0  0  0  0  0  0  0  0
  151.4759  137.7423  154.8016 C   0  0  0  0  0  0  0  0  0  0  0  0
  152.8299  138.4013  154.5250 C   0  0  0  0  0  0  0  0  0  0  0  0
  153.0343  139.2786  155.6301 O   0  0  0  0  0  0  0  0  0  0  0  0
  151.7778  139.8752  155.9426 C   0  0  2  0  0  0  0  0  0  0  0  0
  151.3929  139.9450  157.4357 C   0  0  0  0  0  0  0  0  0  0  0  0
  150.3932  141.0447  157.8012 C   0  0  0  0  0  0  0  0  0  0  0  0
  151.2237  142.2828  158.1359 C   0  0  0  0  0  0  0  0  0  0  0  0
  152.5497  141.7413  158.6777 C   0  0  0  0  0  0  0  0  0  0  0  0
  152.5203  140.2283  158.4285 C   0  0  0  0  0  0  0  0  0  0  0  0
  146.2559  137.1673  160.9358 N   0  0  0  0  0  0  0  0  0  0  0  0
  144.1834  136.4241  163.4595 H   0  0  0  0  0  0  0  0  0  0  0  0
  143.6598  136.9924  161.8708 H   0  0  0  0  0  0  0  0  0  0  0  0
  144.6402  138.0381  162.9070 H   0  0  0  0  0  0  0  0  0  0  0  0
  145.8792  134.7032  163.2444 H   0  0  0  0  0  0  0  0  0  0  0  0
  147.9597  133.8765  162.1189 H   0  0  0  0  0  0  0  0  0  0  0  0
  148.9199  135.1949  160.2314 H   0  0  0  0  0  0  0  0  0  0  0  0
  147.3788  137.8728  158.6028 H   0  0  0  0  0  0  0  0  0  0  0  0
  148.7895  138.5634  157.3327 H   0  0  0  0  0  0  0  0  0  0  0  0
  151.6688  137.7568  157.5130 H   0  0  0  0  0  0  0  0  0  0  0  0
  149.8328  139.0639  155.4188 H   0  0  0  0  0  0  0  0  0  0  0  0
  151.6069  136.7698  155.2776 H   0  0  0  0  0  0  0  0  0  0  0  0
  150.9069  137.5920  153.8838 H   0  0  0  0  0  0  0  0  0  0  0  0
  153.6398  137.6776  154.4308 H   0  0  0  0  0  0  0  0  0  0  0  0
  152.7888  138.9908  153.6079 H   0  0  0  0  0  0  0  0  0  0  0  0
  151.5484  140.7561  155.3410 H   0  0  0  0  0  0  0  0  0  0  0  0
  149.6777  141.2460  157.0033 H   0  0  0  0  0  0  0  0  0  0  0  0
  149.8163  140.7627  158.6825 H   0  0  0  0  0  0  0  0  0  0  0  0
  151.4078  142.8578  157.2276 H   0  0  0  0  0  0  0  0  0  0  0  0
  150.7181  142.9384  158.8452 H   0  0  0  0  0  0  0  0  0  0  0  0
  153.3885  142.2062  158.1584 H   0  0  0  0  0  0  0  0  0  0  0  0
  152.6635  141.9546  159.7411 H   0  0  0  0  0  0  0  0  0  0  0  0
  152.3262  139.7156  159.3707 H   0  0  0  0  0  0  0  0  0  0  0  0
  153.4884  139.8698  158.0785 H   0  0  0  0  0  0  0  0  0  0  0  0
  1  2  1  0  0  0  0
  1 23  1  0  0  0  0
  1 24  1  0  0  0  0
  1 25  1  0  0  0  0
  2 22  1  0  0  0  0
  2  3  2  0  0  0  0
  3  4  1  0  0  0  0
  3 26  1  0  0  0  0
  4  5  2  0  0  0  0
  4 27  1  0  0  0  0
  5  6  1  0  0  0  0
  5 28  1  0  0  0  0
  6  7  1  0  0  0  0
  6 22  2  0  0  0  0
  7  8  1  0  0  0  0
  7 29  1  0  0  0  0
  8  9  2  0  0  0  0
  8 10  1  0  0  0  0
 10 11  1  0  0  0  0
 10 30  1  0  0  0  0
 11 17  1  0  0  0  0
 11 12  1  0  0  0  0
 11 31  1  0  0  0  0
 12 16  1  0  0  0  0
 12 13  1  0  0  0  0
 12 32  1  0  0  0  0
 13 14  1  0  0  0  0
 13 33  1  0  0  0  0
 13 34  1  0  0  0  0
 14 15  1  0  0  0  0
 14 35  1  0  0  0  0
 14 36  1  0  0  0  0
 15 16  1  0  0  0  0
 16 17  1  0  0  0  0
 16 37  1  0  0  0  0
 17 21  1  0  0  0  0
 17 18  1  0  0  0  0
 18 19  1  0  0  0  0
 18 38  1  0  0  0  0
 18 39  1  0  0  0  0
 19 20  1  0  0  0  0
 19 40  1  0  0  0  0
 19 41  1  0  0  0  0
 20 21  1  0  0  0  0
 20 42  1  0  0  0  0
 20 43  1  0  0  0  0
 21 44  1  0  0  0  0
 21 45  1  0  0  0  0
M  END
> <s_m_source_file>
AV-unprocessed.smi

> <i_m_source_file_index>
2329

> <i_lp_mmshare_version>
43012

> <i_f3d_flags>
0

> <s_epik_input>
W0NIM11jMVtjSF1bY0hdW2NIXWMobjEpW05IXUMoPU8pW05IXVtDQEBIXTJbQ0BASF0oW0NIMl1bQ0gyXU8zKVtDQEhdM0MyNFtDSDJdW0NIMl1bQ0gyXVtDSDJdNA==

> <s_epik_cmdline>
J2VwaWtfcHl0aG9uJywgJy1waCcsICc3LjAnLCAnLXRuJywgJzgnLCAnLW1hJywgJzIwMCcsICctbWV0YWxfYmluZGluZycsICctaW1hZScsICc8aW5maWxlLm1hZT4nLCAnLW9tYWUnLCAnPG91dGZpbGUubWFlPic=

> <r_lp_tautomer_probability>
1

> <r_epik_Ionization_Penalty>
8.97002e-05

> <r_epik_Ionization_Penalty_Charging>
0

> <r_epik_Ionization_Penalty_Neutral>
8.97002e-05

> <r_epik_State_Penalty>
-0

> <r_epik_Charging_Adjusted_Penalty>
0

> <i_epik_Tot_Q>
0

> <i_epik_Tot_abs_Q>
0

> <r_epik_Metal_State_Penalty>
-0

> <b_epik_Metal_Only>
0

> <s_lp_Force_Field>
OPLS_2005

> <r_lp_Energy>
64.4638

> <b_lp_Chiralities_Consistent>
1

> <s_lp_Variant>
AV-unprocessed.smi:2329-4

> <Gold.Version>
5.8.1

> <Gold.Id.Protein>
6NUR|6NUR_protein|mol2

> <Gold.PLP.Fitness>
43.2412

> <Gold.PLP.PLP>
-37.3679

> <Gold.PLP.part.hbond>
-2.5020

> <Gold.PLP.part.metal>
0.0000

> <Gold.PLP.part.buried>
-7.3476

> <Gold.PLP.part.nonpolar>
-28.6750

> <Gold.PLP.part.repulsive>
0.2508

> <Gold.PLP.ligand.clash>
0.0000

> <Gold.PLP.ligand.torsion>
0.4931

> <Gold.PLP.Chemscore.Hbond>
2.2252

> <Gold.PLP.Chemscore.CHOScore>
0.0000

> <Gold.PLP.Chemscore.Metal>
0.0000

> <Gold.Chemscore.Hbonds>
donor molecule, donor type, donor heavy atom, donor atom, acceptor molecule, acceptor atom, score
      P1  H  6896  6907       L1     9  0.80
      P1  H  6934  6947       L1    22  0.27
      P1  H  7997  8010       L1    15  1.00

> <Gold.PLP.Chemscore.Internal.Correction>
0.1838

> <Gold.Rescore>
     Score         DG    S(hbond)    S(metal)    S(lipo)     H(rot)  DE(clash)    DE(int)     intcor
     19.48     -21.35       1.98        0.00     101.07       1.00       0.07       1.79       ----

> <Gold.Chemscore.Fitness>
19.4762

> <Gold.Chemscore.DG>
-21.3451

> <Gold.Chemscore.ZeroCoef>
-5.4800

> <Gold.Chemscore.Hbond>
1.9761

> <Gold.Chemscore.Metal>
0.0000

> <Gold.Chemscore.Lipo>
101.0679

> <Gold.Chemscore.Internal_Hbond>
0.0000

> <Gold.Chemscore.DEClash>
0.0747

> <Gold.Chemscore.DEInternal>
1.7943

> <Gold.Chemscore.Rot>
1.0000

> <Gold.Chemscore.Internal.Correction>
   9.000000E+99

> <Gold.Chemscore.Hbonds>
donor molecule, donor type, donor heavy atom, donor atom, acceptor molecule, acceptor atom, score
      P1  H  6896  6907       L1     9  0.79
      P1  H  7997  8010       L1    15  0.93

> <Gold.Chemscore.Hbond.Weighted>
-6.6002

> <Gold.Chemscore.Metal.Weighted>
-0.0000

> <Gold.Chemscore.Lipo.Weighted>
-11.8249

> <Gold.Chemscore.Internal_Hbond.Weighted>
0.0000

> <Gold.Chemscore.DEClash.Weighted>
0.0747

> <Gold.Chemscore.DEInternal.Weighted>
1.7943

> <Gold.Chemscore.Rot.Weighted>
2.5600

> <Gold.Chemscore.Internal.Correction.Weighted>
   9.000000E+99

> <Gold.Protein.RotatedTorsions>
[ 6907 6896 6895 6894 ] final  -28.38 input  -60.11 | X-H torsion
[ 7974 7965 7964 7962 ] final  -79.36 input  175.53 | X-H torsion
[ 8008 7997 7996 7995 ] final  107.69 input   59.86 | X-H torsion
[ 10167 10162 10161 10158 ] final   55.48 input  -65.29 | X-H torsion
[ 10718 10713 10712 10709 ] final -172.82 input   66.30 | X-H torsion
[ 10763 10752 10751 10750 ] final   36.44 input  -60.55 | X-H torsion
[ 11005 11000 10999 10996 ] final  -22.83 input  -57.11 | X-H torsion

> <Gold.Protein.ActiveResidues>
 VAL166  LYS551  ARG553  GLY616  TRP617  ASP618  TYR619  PRO620  LYS621  CYS622 
 ASP623  PHE694  ASN695  SER759  ASP760  ASP761  ALA762  ILE779  LEU786  VAL792 
 PHE793  MET794  SER795  GLU796  ALA797  LYS798  CYS799  TRP800  GLU811  SER814 

> <Gold.Protein.RotatedAtoms>
  151.1338  135.0144  159.8594 H   0  0  0  0  0  0  0  0  0  0  0  0  # atno 6907 bound_to 6896
  152.5451  134.1579  159.8556 H   0  0  0  0  0  0  0  0  0  0  0  0  # atno 6908 bound_to 6896
  151.1648  133.4776  159.2627 H   0  0  0  0  0  0  0  0  0  0  0  0  # atno 6909 bound_to 6896
  145.5742  140.9460  143.1379 H   0  0  0  0  0  0  0  0  0  0  0  0  # atno 7974 bound_to 7965
  156.1844  140.3090  155.9210 H   0  0  0  0  0  0  0  0  0  0  0  0  # atno 8008 bound_to 7997
  155.3314  140.0461  157.3059 H   0  0  0  0  0  0  0  0  0  0  0  0  # atno 8009 bound_to 7997
  154.5379  140.2252  155.8701 H   0  0  0  0  0  0  0  0  0  0  0  0  # atno 8010 bound_to 7997
  140.2190  144.3809  150.6458 H   0  0  0  0  0  0  0  0  0  0  0  0  # atno 10167 bound_to 10162
  156.7612  130.9414  151.3118 H   0  0  0  0  0  0  0  0  0  0  0  0  # atno 10718 bound_to 10713
  153.0077  135.6305  154.1986 H   0  0  0  0  0  0  0  0  0  0  0  0  # atno 10763 bound_to 10752
  154.1729  135.2817  155.3077 H   0  0  0  0  0  0  0  0  0  0  0  0  # atno 10764 bound_to 10752
  154.5895  135.5622  153.7324 H   0  0  0  0  0  0  0  0  0  0  0  0  # atno 10765 bound_to 10752
  140.8694  133.7731  156.0169 H   0  0  0  0  0  0  0  0  0  0  0  0  # atno 11005 bound_to 11000
  144.7424  139.7413  143.7306 LP  0  0  0  0  0  0  0  0  0  0  0  0  # atno 17320 bound_to 7965
  146.1762  139.4934  142.9895 LP  0  0  0  0  0  0  0  0  0  0  0  0  # atno 17321 bound_to 7965
  140.6269  143.2182  151.6578 LP  0  0  0  0  0  0  0  0  0  0  0  0  # atno 17342 bound_to 10162
  139.5151  144.3389  152.0759 LP  0  0  0  0  0  0  0  0  0  0  0  0  # atno 17343 bound_to 10162
  157.6734  130.9071  150.0092 LP  0  0  0  0  0  0  0  0  0  0  0  0  # atno 17370 bound_to 10713
  156.1338  130.3643  149.9690 LP  0  0  0  0  0  0  0  0  0  0  0  0  # atno 17371 bound_to 10713
  140.8591  134.2863  157.5242 LP  0  0  0  0  0  0  0  0  0  0  0  0  # atno 17394 bound_to 11000
  139.8711  134.9508  156.4067 LP  0  0  0  0  0  0  0  0  0  0  0  0  # atno 17395 bound_to 11000

$$$$
