AV-unprocessed.smi:671|AV-procd|sdf|3284|dock7
  -GOLD-   22720 0243D 1   1.00000     0.00000
 Structure written by MMmdl.
 50 51  0  0  0  0  0  0  0  0  2 V2000
  147.9282  141.4771  153.8574 C   0  0  0  0  0  0  0  0  0  0  0  0
  149.0113  141.2494  154.8574 C   0  0  0  0  0  0  0  0  0  0  0  0
  149.5183  142.2129  155.6726 N   0  3  0  0  0  0  0  0  0  0  0  0
  150.4795  141.7005  156.4543 N   0  0  0  0  0  0  0  0  0  0  0  0
  151.1533  142.5771  157.4126 C   0  0  0  0  0  0  0  0  0  0  0  0
  150.6450  140.3738  156.1881 C   0  0  0  0  0  0  0  0  0  0  0  0
  151.6293  139.4860  156.8767 C   0  0  0  0  0  0  0  0  0  0  0  0
  149.7163  140.0841  155.1802 C   0  0  0  0  0  0  0  0  0  0  0  0
  149.5110  138.7370  154.5452 C   0  0  0  0  0  0  0  0  0  0  0  0
  148.2584  137.9990  155.0680 C   0  0  1  0  0  0  0  0  0  0  0  0
  147.0755  138.9471  155.3206 C   0  0  0  0  0  0  0  0  0  0  0  0
  147.8415  136.9722  154.1105 N   0  0  0  0  0  0  0  0  0  0  0  0
  146.6909  136.2753  154.0787 C   0  0  0  0  0  0  0  0  0  0  0  0
  145.8111  136.4412  154.9210 O   0  0  0  0  0  0  0  0  0  0  0  0
  146.5956  135.3930  153.0687 N   0  0  0  0  0  0  0  0  0  0  0  0
  145.4503  134.5230  152.7993 C   0  0  1  0  0  0  0  0  0  0  0  0
  144.7482  134.9803  151.5133 C   0  0  0  0  0  0  0  0  0  0  0  0
  145.3101  134.0835  150.4142 C   0  0  0  0  0  0  0  0  0  0  0  0
  145.5000  132.7303  151.0939 C   0  0  0  0  0  0  0  0  0  0  0  0
  145.8311  133.0333  152.5665 C   0  0  1  0  0  0  0  0  0  0  0  0
  147.2715  132.6296  152.9368 C   0  0  0  0  0  0  0  0  0  0  0  0
  148.3163  141.3423  152.8475 H   0  0  0  0  0  0  0  0  0  0  0  0
  147.5298  142.4884  153.9449 H   0  0  0  0  0  0  0  0  0  0  0  0
  147.1140  140.7696  154.0151 H   0  0  0  0  0  0  0  0  0  0  0  0
  152.1795  142.2387  157.5576 H   0  0  0  0  0  0  0  0  0  0  0  0
  150.6195  142.5422  158.3624 H   0  0  0  0  0  0  0  0  0  0  0  0
  151.1649  143.6005  157.0351 H   0  0  0  0  0  0  0  0  0  0  0  0
  151.6567  138.5041  156.4069 H   0  0  0  0  0  0  0  0  0  0  0  0
  151.3538  139.3603  157.9238 H   0  0  0  0  0  0  0  0  0  0  0  0
  152.6297  139.9156  156.8260 H   0  0  0  0  0  0  0  0  0  0  0  0
  149.4437  138.8372  153.4612 H   0  0  0  0  0  0  0  0  0  0  0  0
  150.3975  138.1261  154.7181 H   0  0  0  0  0  0  0  0  0  0  0  0
  148.4939  137.5208  156.0201 H   0  0  0  0  0  0  0  0  0  0  0  0
  147.3183  139.6996  156.0711 H   0  0  0  0  0  0  0  0  0  0  0  0
  146.2054  138.3987  155.6832 H   0  0  0  0  0  0  0  0  0  0  0  0
  146.7822  139.4681  154.4085 H   0  0  0  0  0  0  0  0  0  0  0  0
  148.5135  136.7511  153.3898 H   0  0  0  0  0  0  0  0  0  0  0  0
  147.3765  135.3192  152.4338 H   0  0  0  0  0  0  0  0  0  0  0  0
  144.7425  134.6002  153.6269 H   0  0  0  0  0  0  0  0  0  0  0  0
  143.6756  134.8031  151.6051 H   0  0  0  0  0  0  0  0  0  0  0  0
  144.8820  136.0416  151.2982 H   0  0  0  0  0  0  0  0  0  0  0  0
  144.6570  134.0277  149.5428 H   0  0  0  0  0  0  0  0  0  0  0  0
  146.2767  134.4637  150.0827 H   0  0  0  0  0  0  0  0  0  0  0  0
  144.5668  132.1677  151.0417 H   0  0  0  0  0  0  0  0  0  0  0  0
  146.2636  132.1304  150.5972 H   0  0  0  0  0  0  0  0  0  0  0  0
  145.1679  132.4223  153.1808 H   0  0  0  0  0  0  0  0  0  0  0  0
  148.0082  133.1748  152.3457 H   0  0  0  0  0  0  0  0  0  0  0  0
  147.4325  131.5660  152.7599 H   0  0  0  0  0  0  0  0  0  0  0  0
  147.4762  132.8159  153.9913 H   0  0  0  0  0  0  0  0  0  0  0  0
  149.2586  143.1894  155.7337 H   0  0  0  0  0  0  0  0  0  0  0  0
  1  2  1  0  0  0  0
  1 22  1  0  0  0  0
  1 23  1  0  0  0  0
  1 24  1  0  0  0  0
  2  8  1  0  0  0  0
  2  3  2  0  0  0  0
  3  4  1  0  0  0  0
  3 50  1  0  0  0  0
  4  5  1  0  0  0  0
  4  6  1  0  0  0  0
  5 25  1  0  0  0  0
  5 26  1  0  0  0  0
  5 27  1  0  0  0  0
  6  7  1  0  0  0  0
  6  8  2  0  0  0  0
  7 28  1  0  0  0  0
  7 29  1  0  0  0  0
  7 30  1  0  0  0  0
  8  9  1  0  0  0  0
  9 10  1  0  0  0  0
  9 31  1  0  0  0  0
  9 32  1  0  0  0  0
 10 11  1  0  0  0  0
 10 12  1  0  0  0  0
 10 33  1  0  0  0  0
 11 34  1  0  0  0  0
 11 35  1  0  0  0  0
 11 36  1  0  0  0  0
 12 13  1  0  0  0  0
 12 37  1  0  0  0  0
 13 14  2  0  0  0  0
 13 15  1  0  0  0  0
 15 16  1  0  0  0  0
 15 38  1  0  0  0  0
 16 20  1  0  0  0  0
 16 17  1  0  0  0  0
 16 39  1  0  0  0  0
 17 18  1  0  0  0  0
 17 40  1  0  0  0  0
 17 41  1  0  0  0  0
 18 19  1  0  0  0  0
 18 42  1  0  0  0  0
 18 43  1  0  0  0  0
 19 20  1  0  0  0  0
 19 44  1  0  0  0  0
 19 45  1  0  0  0  0
 20 21  1  0  0  0  0
 20 46  1  0  0  0  0
 21 47  1  0  0  0  0
 21 48  1  0  0  0  0
 21 49  1  0  0  0  0
M  CHG  1   3   1
M  END
> <s_m_source_file>
AV-unprocessed.smi

> <i_m_source_file_index>
671

> <i_lp_mmshare_version>
43012

> <i_f3d_flags>
0

> <s_epik_input>
W0NIM11jMW5uKFtDSDNdKWMoW0NIM10pYzFbQ0gyXVtDQEhdKFtDSDNdKVtOSF1DKD1PKVtOSF1bQ0BASF0yW0NIMl1bQ0gyXVtDSDJdW0NASF0yW0NIM10=

> <s_epik_cmdline>
J2VwaWtfcHl0aG9uJywgJy1waCcsICc3LjAnLCAnLXRuJywgJzgnLCAnLW1hJywgJzIwMCcsICctbWV0YWxfYmluZGluZycsICctaW1hZScsICc8aW5maWxlLm1hZT4nLCAnLW9tYWUnLCAnPG91dGZpbGUubWFlPic=

> <r_lp_tautomer_probability>
1

> <r_epik_Ionization_Penalty>
2.28705

> <r_epik_Ionization_Penalty_Charging>
2.28698

> <r_epik_Ionization_Penalty_Neutral>
6.23157e-05

> <r_epik_State_Penalty>
2.43671

> <r_epik_Charging_Adjusted_Penalty>
4.72369

> <i_epik_Tot_Q>
1

> <i_epik_Tot_abs_Q>
1

> <r_epik_Metal_State_Penalty>
2.44911

> <b_epik_Metal_Only>
0

> <s_lp_Force_Field>
OPLS_2005

> <r_lp_Energy>
36.9698

> <b_lp_Chiralities_Consistent>
1

> <s_lp_Variant>
AV-unprocessed.smi:671-12

> <Gold.Version>
5.8.1

> <Gold.Id.Protein>
6NUR|6NUR_protein|mol2

> <Gold.PLP.Fitness>
45.4085

> <Gold.PLP.PLP>
-35.2662

> <Gold.PLP.part.hbond>
-2.8648

> <Gold.PLP.part.metal>
0.0000

> <Gold.PLP.part.buried>
-4.2914

> <Gold.PLP.part.nonpolar>
-29.0841

> <Gold.PLP.part.repulsive>
0.2166

> <Gold.PLP.ligand.clash>
0.0000

> <Gold.PLP.ligand.torsion>
0.7126

> <Gold.PLP.Chemscore.Hbond>
3.8480

> <Gold.PLP.Chemscore.CHOScore>
0.0000

> <Gold.PLP.Chemscore.Metal>
0.0000

> <Gold.Chemscore.Hbonds>
donor molecule, donor type, donor heavy atom, donor atom, acceptor molecule, acceptor atom, score
      L1  H     3    50       P1  8028  2.00
      L1  H    12    37       P1  7948  1.00
      L1  H    15    38       P1  7948  0.88

> <Gold.PLP.Chemscore.Internal.Correction>
0.0234

> <Gold.Rescore>
     Score         DG    S(hbond)    S(metal)    S(lipo)     H(rot)  DE(clash)    DE(int)     intcor
     18.30     -20.46       2.86        0.00      79.35       1.51       0.02       2.14       ----

> <Gold.Chemscore.Fitness>
18.2968

> <Gold.Chemscore.DG>
-20.4553

> <Gold.Chemscore.ZeroCoef>
-5.4800

> <Gold.Chemscore.Hbond>
2.8582

> <Gold.Chemscore.Metal>
0.0000

> <Gold.Chemscore.Lipo>
79.3468

> <Gold.Chemscore.Internal_Hbond>
0.0000

> <Gold.Chemscore.DEClash>
0.0222

> <Gold.Chemscore.DEInternal>
2.1362

> <Gold.Chemscore.Rot>
1.5057

> <Gold.Chemscore.Internal.Correction>
   9.000000E+99

> <Gold.Chemscore.Hbonds>
donor molecule, donor type, donor heavy atom, donor atom, acceptor molecule, acceptor atom, score
      L1  H     3    50       P1  8028  0.97
      L1  H    12    37       P1  7948  0.97
      L1  H    15    38       P1  7948  0.86

> <Gold.Chemscore.Hbond.Weighted>
-9.5464

> <Gold.Chemscore.Metal.Weighted>
-0.0000

> <Gold.Chemscore.Lipo.Weighted>
-9.2836

> <Gold.Chemscore.Internal_Hbond.Weighted>
0.0000

> <Gold.Chemscore.DEClash.Weighted>
0.0222

> <Gold.Chemscore.DEInternal.Weighted>
2.1362

> <Gold.Chemscore.Rot.Weighted>
3.8547

> <Gold.Chemscore.Internal.Correction.Weighted>
   9.000000E+99

> <Gold.Protein.RotatedTorsions>
[ 6907 6896 6895 6894 ] final   77.55 input  -60.11 | X-H torsion
[ 7974 7965 7964 7962 ] final   54.70 input  175.53 | X-H torsion
[ 8008 7997 7996 7995 ] final   67.62 input   59.86 | X-H torsion
[ 10167 10162 10161 10158 ] final  -18.52 input  -65.29 | X-H torsion
[ 10718 10713 10712 10709 ] final  120.20 input   66.30 | X-H torsion
[ 10763 10752 10751 10750 ] final   85.23 input  -60.55 | X-H torsion
[ 11005 11000 10999 10996 ] final -155.59 input  -57.11 | X-H torsion

> <Gold.Protein.ActiveResidues>
 VAL166  LYS551  ARG553  GLY616  TRP617  ASP618  TYR619  PRO620  LYS621  CYS622 
 ASP623  PHE694  ASN695  SER759  ASP760  ASP761  ALA762  ILE779  LEU786  VAL792 
 PHE793  MET794  SER795  GLU796  ALA797  LYS798  CYS799  TRP800  GLU811  SER814 

> <Gold.Protein.RotatedAtoms>
  152.5122  134.3799  159.9347 H   0  0  0  0  0  0  0  0  0  0  0  0  # atno 6907 bound_to 6896
  151.3756  133.3833  159.2712 H   0  0  0  0  0  0  0  0  0  0  0  0  # atno 6908 bound_to 6896
  150.9544  134.8960  159.7750 H   0  0  0  0  0  0  0  0  0  0  0  0  # atno 6909 bound_to 6896
  145.9581  139.4033  143.0265 H   0  0  0  0  0  0  0  0  0  0  0  0  # atno 7974 bound_to 7965
  155.6957  140.3495  155.4912 H   0  0  0  0  0  0  0  0  0  0  0  0  # atno 8008 bound_to 7997
  155.9485  140.1115  157.1019 H   0  0  0  0  0  0  0  0  0  0  0  0  # atno 8009 bound_to 7997
  154.4117  140.1199  156.5007 H   0  0  0  0  0  0  0  0  0  0  0  0  # atno 8010 bound_to 7997
  140.7259  143.4908  150.9994 H   0  0  0  0  0  0  0  0  0  0  0  0  # atno 10167 bound_to 10162
  157.5908  131.1064  150.8002 H   0  0  0  0  0  0  0  0  0  0  0  0  # atno 10718 bound_to 10713
  153.1456  135.4625  154.9561 H   0  0  0  0  0  0  0  0  0  0  0  0  # atno 10763 bound_to 10752
  154.7783  135.3180  154.8047 H   0  0  0  0  0  0  0  0  0  0  0  0  # atno 10764 bound_to 10752
  153.8562  135.6917  153.4841 H   0  0  0  0  0  0  0  0  0  0  0  0  # atno 10765 bound_to 10752
  140.6848  134.4105  157.5224 H   0  0  0  0  0  0  0  0  0  0  0  0  # atno 11005 bound_to 11000
  145.8078  140.9740  143.0964 LP  0  0  0  0  0  0  0  0  0  0  0  0  # atno 17320 bound_to 7965
  144.6809  139.9883  143.7484 LP  0  0  0  0  0  0  0  0  0  0  0  0  # atno 17321 bound_to 7965
  139.8612  143.7311  152.3173 LP  0  0  0  0  0  0  0  0  0  0  0  0  # atno 17342 bound_to 10162
  139.7528  144.7529  151.0481 LP  0  0  0  0  0  0  0  0  0  0  0  0  # atno 17343 bound_to 10162
  156.8425  130.5053  149.5320 LP  0  0  0  0  0  0  0  0  0  0  0  0  # atno 17370 bound_to 10713
  156.0962  130.5934  150.9818 LP  0  0  0  0  0  0  0  0  0  0  0  0  # atno 17371 bound_to 10713
  139.8941  134.8715  156.2194 LP  0  0  0  0  0  0  0  0  0  0  0  0  # atno 17394 bound_to 11000
  141.0288  133.7000  156.1395 LP  0  0  0  0  0  0  0  0  0  0  0  0  # atno 17395 bound_to 11000

$$$$
