AV-unprocessed.smi:137|AV-procd|sdf|1178|dock10
  -GOLD-   2262018333D 1   1.00000     0.00000
 Structure written by MMmdl.
 51 54  0  0  0  0  0  0  0  0  1 V2000
  146.4335  142.1809  153.6762 C   0  0  0  0  0  0  0  0  0  0  0  0
  146.4245  141.7515  155.1519 C   0  0  1  0  0  0  0  0  0  0  0  0
  145.2512  140.7879  155.4564 C   0  0  0  0  0  0  0  0  0  0  0  0
  145.6053  139.3655  155.4306 N   0  0  0  0  0  0  0  0  0  0  0  0
  145.6221  138.6680  154.2561 C   0  0  0  0  0  0  0  0  0  0  0  0
  146.4685  139.0864  153.2771 N   0  0  0  0  0  0  0  0  0  0  0  0
  146.5382  138.4516  152.1054 C   0  0  0  0  0  0  0  0  0  0  0  0
  145.8522  137.3864  151.6953 N   0  0  0  0  0  0  0  0  0  0  0  0
  144.9924  136.9541  152.6601 C   0  0  0  0  0  0  0  0  0  0  0  0
  144.8165  137.5236  153.9569 C   0  0  0  0  0  0  0  0  0  0  0  0
  143.8675  136.7808  154.6532 N   0  0  0  0  0  0  0  0  0  0  0  0
  143.5088  135.8394  153.8258 C   0  0  0  0  0  0  0  0  0  0  0  0
  144.1124  135.8876  152.5920 N   0  0  0  0  0  0  0  0  0  0  0  0
  143.9319  134.9607  151.5127 C   0  0  0  0  0  0  0  0  0  0  0  0
  144.0617  133.4512  151.7382 C   0  0  0  0  0  0  0  0  0  0  0  0
  144.7257  133.2866  150.3529 C   0  0  0  0  0  0  0  0  0  0  0  0
  145.9829  132.4030  150.3543 C   0  0  0  0  0  0  0  0  0  0  0  0
  146.9703  132.9111  151.2286 O   0  0  0  0  0  0  0  0  0  0  0  0
  143.8138  132.7789  149.2140 C   0  0  0  0  0  0  0  0  0  0  0  0
  143.1868  131.5472  149.5082 O   0  0  0  0  0  0  0  0  0  0  0  0
  144.9922  134.8067  150.4178 C   0  0  0  0  0  0  0  0  0  0  0  0
  145.9801  138.7455  156.7016 C   0  0  0  0  0  0  0  0  0  0  0  0
  147.4639  138.9254  157.0741 C   0  0  0  0  0  0  0  0  0  0  0  0
  147.8758  140.7185  157.3461 S   0  0  2  0  0  0  0  0  0  0  0  0
  146.7083  141.3704  158.0898 O   0  0  0  0  0  0  0  0  0  0  0  0
  147.8294  141.2603  155.5675 C   0  0  0  0  0  0  0  0  0  0  0  0
  146.6829  141.3479  153.0193 H   0  0  0  0  0  0  0  0  0  0  0  0
  147.1700  142.9661  153.5024 H   0  0  0  0  0  0  0  0  0  0  0  0
  145.4624  142.5708  153.3699 H   0  0  0  0  0  0  0  0  0  0  0  0
  146.2214  142.6593  155.7217 H   0  0  0  0  0  0  0  0  0  0  0  0
  144.8757  141.0135  156.4543 H   0  0  0  0  0  0  0  0  0  0  0  0
  144.3987  140.9993  154.8107 H   0  0  0  0  0  0  0  0  0  0  0  0
  147.2427  138.8571  151.3944 H   0  0  0  0  0  0  0  0  0  0  0  0
  142.7847  135.0842  154.0949 H   0  0  0  0  0  0  0  0  0  0  0  0
  142.9619  135.2013  151.0763 H   0  0  0  0  0  0  0  0  0  0  0  0
  144.7336  133.2151  152.5649 H   0  0  0  0  0  0  0  0  0  0  0  0
  143.1090  132.9334  151.8559 H   0  0  0  0  0  0  0  0  0  0  0  0
  145.7450  131.3889  150.6767 H   0  0  0  0  0  0  0  0  0  0  0  0
  146.4069  132.3164  149.3536 H   0  0  0  0  0  0  0  0  0  0  0  0
  147.7745  132.4369  151.0822 H   0  0  0  0  0  0  0  0  0  0  0  0
  143.0256  133.4989  148.9935 H   0  0  0  0  0  0  0  0  0  0  0  0
  144.3833  132.6483  148.2933 H   0  0  0  0  0  0  0  0  0  0  0  0
  142.2555  131.6933  149.5762 H   0  0  0  0  0  0  0  0  0  0  0  0
  144.7699  135.3492  149.4983 H   0  0  0  0  0  0  0  0  0  0  0  0
  145.9966  135.0415  150.7743 H   0  0  0  0  0  0  0  0  0  0  0  0
  145.3625  139.1686  157.4942 H   0  0  0  0  0  0  0  0  0  0  0  0
  145.7179  137.6884  156.6923 H   0  0  0  0  0  0  0  0  0  0  0  0
  147.6663  138.3902  158.0017 H   0  0  0  0  0  0  0  0  0  0  0  0
  148.1291  138.5101  156.3181 H   0  0  0  0  0  0  0  0  0  0  0  0
  148.1831  140.4535  154.9247 H   0  0  0  0  0  0  0  0  0  0  0  0
  148.5390  142.0801  155.4539 H   0  0  0  0  0  0  0  0  0  0  0  0
  1  2  1  0  0  0  0
  1 27  1  0  0  0  0
  1 28  1  0  0  0  0
  1 29  1  0  0  0  0
  2 26  1  0  0  0  0
  2  3  1  0  0  0  0
  2 30  1  0  0  0  0
  3  4  1  0  0  0  0
  3 31  1  0  0  0  0
  3 32  1  0  0  0  0
  4  5  1  0  0  0  0
  4 22  1  0  0  0  0
  5 10  1  0  0  0  0
  5  6  2  0  0  0  0
  6  7  1  0  0  0  0
  7  8  2  0  0  0  0
  7 33  1  0  0  0  0
  8  9  1  0  0  0  0
  9 13  1  0  0  0  0
  9 10  2  0  0  0  0
 10 11  1  0  0  0  0
 11 12  2  0  0  0  0
 12 13  1  0  0  0  0
 12 34  1  0  0  0  0
 13 14  1  0  0  0  0
 14 21  1  0  0  0  0
 14 15  1  0  0  0  0
 14 35  1  0  0  0  0
 15 16  1  0  0  0  0
 15 36  1  0  0  0  0
 15 37  1  0  0  0  0
 16 17  1  0  0  0  0
 16 19  1  0  0  0  0
 16 21  1  0  0  0  0
 17 18  1  0  0  0  0
 17 38  1  0  0  0  0
 17 39  1  0  0  0  0
 18 40  1  0  0  0  0
 19 20  1  0  0  0  0
 19 41  1  0  0  0  0
 19 42  1  0  0  0  0
 20 43  1  0  0  0  0
 21 44  1  0  0  0  0
 21 45  1  0  0  0  0
 22 23  1  0  0  0  0
 22 46  1  0  0  0  0
 22 47  1  0  0  0  0
 23 24  1  0  0  0  0
 23 48  1  0  0  0  0
 23 49  1  0  0  0  0
 24 25  2  0  0  0  0
 24 26  1  0  0  0  0
 26 50  1  0  0  0  0
 26 51  1  0  0  0  0
M  END
> <s_m_source_file>
AV-unprocessed.smi

> <i_m_source_file_index>
137

> <i_lp_mmshare_version>
43012

> <i_f3d_flags>
0

> <s_epik_input>
Tz1bU0BAXShbQ0gyXTEpW0NIMl1bQ0gyXU4oW0NIMl1bQ0BIXTFbQ0gzXSljKG5bY0hdbjIpYyhjMjMpbltjSF1uM1tDSF0oW0NIMl00KVtDSDJdQzQoW0NIMl1bT0hdKVtDSDJdW09IXQ==

> <s_epik_cmdline>
J2VwaWtfcHl0aG9uJywgJy1waCcsICc3LjAnLCAnLXRuJywgJzgnLCAnLW1hJywgJzIwMCcsICctbWV0YWxfYmluZGluZycsICctaW1hZScsICc8aW5maWxlLm1hZT4nLCAnLW9tYWUnLCAnPG91dGZpbGUubWFlPic=

> <r_lp_tautomer_probability>
1

> <r_epik_Ionization_Penalty>
0.000811024

> <r_epik_Ionization_Penalty_Charging>
0

> <r_epik_Ionization_Penalty_Neutral>
0.000811024

> <r_epik_State_Penalty>
0.000429598

> <r_epik_Charging_Adjusted_Penalty>
0.000429598

> <i_epik_Tot_Q>
0

> <i_epik_Tot_abs_Q>
0

> <r_epik_Metal_State_Penalty>
-0

> <b_epik_Metal_Only>
0

> <s_lp_Force_Field>
OPLS_2005

> <r_lp_Energy>
44.8713

> <b_lp_Chiralities_Consistent>
1

> <s_lp_Variant>
AV-unprocessed.smi:137-4

> <Gold.Version>
5.8.1

> <Gold.Id.Protein>
6NUR|6NUR_protein|mol2

> <Gold.PLP.Fitness>
42.8989

> <Gold.PLP.PLP>
-35.3346

> <Gold.PLP.part.hbond>
-3.7402

> <Gold.PLP.part.metal>
0.0000

> <Gold.PLP.part.buried>
-6.6423

> <Gold.PLP.part.nonpolar>
-27.7368

> <Gold.PLP.part.repulsive>
0.9869

> <Gold.PLP.ligand.clash>
0.0000

> <Gold.PLP.ligand.torsion>
1.7843

> <Gold.PLP.Chemscore.Hbond>
2.5673

> <Gold.PLP.Chemscore.CHOScore>
1.0000

> <Gold.PLP.Chemscore.Metal>
0.0000

> <Gold.Chemscore.Hbonds>
donor molecule, donor type, donor heavy atom, donor atom, acceptor molecule, acceptor atom, score
      L1  H    18    40       P1 10747  0.73
      L1  H    20    43       P1 10952  0.58
      P1  H 10785 10796       L1    20  1.00
      L1  C     7    33       P1  7957  0.81

> <Gold.PLP.Chemscore.Internal.Correction>
0.4312

> <Gold.Rescore>
     Score         DG    S(hbond)    S(metal)    S(lipo)     H(rot)  DE(clash)    DE(int)     intcor
      9.57     -12.52       2.04        0.00      64.75       2.87       0.11       2.84       ----

> <Gold.Chemscore.Fitness>
9.5718

> <Gold.Chemscore.DG>
-12.5211

> <Gold.Chemscore.ZeroCoef>
-5.4800

> <Gold.Chemscore.Hbond>
2.0415

> <Gold.Chemscore.Metal>
0.0000

> <Gold.Chemscore.Lipo>
64.7518

> <Gold.Chemscore.Internal_Hbond>
0.0000

> <Gold.Chemscore.DEClash>
0.1126

> <Gold.Chemscore.DEInternal>
2.8368

> <Gold.Chemscore.Rot>
2.8725

> <Gold.Chemscore.Internal.Correction>
   9.000000E+99

> <Gold.Chemscore.Hbonds>
donor molecule, donor type, donor heavy atom, donor atom, acceptor molecule, acceptor atom, score
      L1  H    18    40       P1 10747  0.71
      L1  H    20    43       P1 10952  0.57
      P1  H 10785 10796       L1    20  0.25

> <Gold.Chemscore.Hbond.Weighted>
-6.8187

> <Gold.Chemscore.Metal.Weighted>
-0.0000

> <Gold.Chemscore.Lipo.Weighted>
-7.5760

> <Gold.Chemscore.Internal_Hbond.Weighted>
0.0000

> <Gold.Chemscore.DEClash.Weighted>
0.1126

> <Gold.Chemscore.DEInternal.Weighted>
2.8368

> <Gold.Chemscore.Rot.Weighted>
7.3535

> <Gold.Chemscore.Internal.Correction.Weighted>
   9.000000E+99

> <Gold.Protein.RotatedTorsions>
[ 6907 6896 6895 6894 ] final  171.12 input  -60.11 | X-H torsion
[ 7974 7965 7964 7962 ] final  173.78 input  175.53 | X-H torsion
[ 8008 7997 7996 7995 ] final  146.21 input   59.86 | X-H torsion
[ 10167 10162 10161 10158 ] final  -54.65 input  -65.29 | X-H torsion
[ 10718 10713 10712 10709 ] final  159.07 input   66.30 | X-H torsion
[ 10763 10752 10751 10750 ] final  114.44 input  -60.55 | X-H torsion
[ 11005 11000 10999 10996 ] final  -61.77 input  -57.11 | X-H torsion

> <Gold.Protein.ActiveResidues>
 VAL166  LYS551  ARG553  GLY616  TRP617  ASP618  TYR619  PRO620  LYS621  CYS622 
 ASP623  PHE694  ASN695  SER759  ASP760  ASP761  ALA762  ILE779  LEU786  VAL792 
 PHE793  MET794  SER795  GLU796  ALA797  LYS798  CYS799  TRP800  GLU811  SER814 

> <Gold.Protein.RotatedAtoms>
  151.8052  133.3375  159.3538 H   0  0  0  0  0  0  0  0  0  0  0  0  # atno 6907 bound_to 6896
  150.7345  134.5716  159.5902 H   0  0  0  0  0  0  0  0  0  0  0  0  # atno 6908 bound_to 6896
  152.3115  134.7493  160.0386 H   0  0  0  0  0  0  0  0  0  0  0  0  # atno 6909 bound_to 6896
  144.7236  139.9698  143.6437 H   0  0  0  0  0  0  0  0  0  0  0  0  # atno 7974 bound_to 7965
  156.2862  140.2188  156.5340 H   0  0  0  0  0  0  0  0  0  0  0  0  # atno 8008 bound_to 7997
  154.7425  140.0486  157.0845 H   0  0  0  0  0  0  0  0  0  0  0  0  # atno 8009 bound_to 7997
  155.0213  140.3124  155.4795 H   0  0  0  0  0  0  0  0  0  0  0  0  # atno 8010 bound_to 7997
  140.6419  143.2512  151.4966 H   0  0  0  0  0  0  0  0  0  0  0  0  # atno 10167 bound_to 10162
  157.1692  131.0606  151.2191 H   0  0  0  0  0  0  0  0  0  0  0  0  # atno 10718 bound_to 10713
  153.5073  135.3625  155.2569 H   0  0  0  0  0  0  0  0  0  0  0  0  # atno 10763 bound_to 10752
  154.8744  135.4014  154.3409 H   0  0  0  0  0  0  0  0  0  0  0  0  # atno 10764 bound_to 10752
  153.4056  135.7076  153.6462 H   0  0  0  0  0  0  0  0  0  0  0  0  # atno 10765 bound_to 10752
  141.1336  133.6633  156.5426 H   0  0  0  0  0  0  0  0  0  0  0  0  # atno 11005 bound_to 11000
  146.0571  139.3567  143.0604 LP  0  0  0  0  0  0  0  0  0  0  0  0  # atno 17320 bound_to 7965
  145.8140  140.9712  143.0934 LP  0  0  0  0  0  0  0  0  0  0  0  0  # atno 17321 bound_to 7965
  139.5628  144.2114  152.1718 LP  0  0  0  0  0  0  0  0  0  0  0  0  # atno 17342 bound_to 10162
  140.1387  144.5222  150.6757 LP  0  0  0  0  0  0  0  0  0  0  0  0  # atno 17343 bound_to 10162
  157.4059  130.7358  149.6802 LP  0  0  0  0  0  0  0  0  0  0  0  0  # atno 17370 bound_to 10713
  155.9741  130.4108  150.3950 LP  0  0  0  0  0  0  0  0  0  0  0  0  # atno 17371 bound_to 10713
  140.4128  134.7257  157.4845 LP  0  0  0  0  0  0  0  0  0  0  0  0  # atno 17394 bound_to 11000
  140.0415  134.6260  155.8974 LP  0  0  0  0  0  0  0  0  0  0  0  0  # atno 17395 bound_to 11000

$$$$
