AV-unprocessed.smi:3116|AV-procd|sdf|11871|dock2
  -GOLD-   2272017253D 1   1.00000     0.00000
 Structure written by MMmdl.
 33 33  0  0  0  0  0  0  0  0  1 V2000
  152.0066  137.4978  156.1116 C   0  0  0  0  0  0  0  0  0  0  0  0
  150.5531  137.9452  155.8452 C   0  0  1  0  0  0  0  0  0  0  0  0
  149.9914  138.6540  157.0068 N   0  0  0  0  0  0  0  0  0  0  0  0
  150.9341  139.5448  157.6811 C   0  0  2  0  0  0  0  0  0  0  0  0
  151.4862  138.8129  158.9226 C   0  0  0  0  0  0  0  0  0  0  0  0
  150.1938  140.8662  158.0227 C   0  0  2  0  0  0  0  0  0  0  0  0
  149.2790  141.3397  156.8757 C   0  0  0  0  0  0  0  0  0  0  0  0
  151.1140  141.9325  158.3999 N   0  0  0  0  0  0  0  0  0  0  0  0
  151.2602  143.1767  157.8214 C   0  0  0  0  0  0  0  0  0  0  0  0
  152.2399  143.8348  158.5081 C   0  0  0  0  0  0  0  0  0  0  0  0
  152.6408  142.9006  159.5031 C   0  0  0  0  0  0  0  0  0  0  0  0
  151.9670  141.7644  159.4363 N   0  0  0  0  0  0  0  0  0  0  0  0
  150.4589  138.8435  154.6035 C   0  0  0  0  0  0  0  0  0  0  0  0
  149.8985  138.3058  153.5168 N   0  0  0  0  0  0  0  0  0  0  0  0
  150.8674  140.0037  154.6161 O   0  0  0  0  0  0  0  0  0  0  0  0
  152.4531  137.0541  155.2209 H   0  0  0  0  0  0  0  0  0  0  0  0
  152.0650  136.7463  156.8980 H   0  0  0  0  0  0  0  0  0  0  0  0
  152.6339  138.3371  156.4149 H   0  0  0  0  0  0  0  0  0  0  0  0
  149.9535  137.0588  155.6331 H   0  0  0  0  0  0  0  0  0  0  0  0
  149.6133  138.0105  157.6871 H   0  0  0  0  0  0  0  0  0  0  0  0
  151.7710  139.7874  157.0264 H   0  0  0  0  0  0  0  0  0  0  0  0
  152.2486  139.4039  159.4303 H   0  0  0  0  0  0  0  0  0  0  0  0
  151.9527  137.8636  158.6599 H   0  0  0  0  0  0  0  0  0  0  0  0
  150.6954  138.6043  159.6438 H   0  0  0  0  0  0  0  0  0  0  0  0
  149.5617  140.6855  158.8941 H   0  0  0  0  0  0  0  0  0  0  0  0
  148.5005  140.6082  156.6582 H   0  0  0  0  0  0  0  0  0  0  0  0
  149.8416  141.5029  155.9559 H   0  0  0  0  0  0  0  0  0  0  0  0
  148.7815  142.2756  157.1315 H   0  0  0  0  0  0  0  0  0  0  0  0
  150.6608  143.4876  156.9786 H   0  0  0  0  0  0  0  0  0  0  0  0
  152.6132  144.8318  158.3272 H   0  0  0  0  0  0  0  0  0  0  0  0
  153.3964  143.0132  160.2665 H   0  0  0  0  0  0  0  0  0  0  0  0
  149.8058  138.8533  152.6736 H   0  0  0  0  0  0  0  0  0  0  0  0
  149.5644  137.3534  153.5458 H   0  0  0  0  0  0  0  0  0  0  0  0
  1  2  1  0  0  0  0
  1 16  1  0  0  0  0
  1 17  1  0  0  0  0
  1 18  1  0  0  0  0
  2  3  1  0  0  0  0
  2 13  1  0  0  0  0
  2 19  1  0  0  0  0
  3  4  1  0  0  0  0
  3 20  1  0  0  0  0
  4  5  1  0  0  0  0
  4  6  1  0  0  0  0
  4 21  1  0  0  0  0
  5 22  1  0  0  0  0
  5 23  1  0  0  0  0
  5 24  1  0  0  0  0
  6  7  1  0  0  0  0
  6  8  1  0  0  0  0
  6 25  1  0  0  0  0
  7 26  1  0  0  0  0
  7 27  1  0  0  0  0
  7 28  1  0  0  0  0
  8 12  1  0  0  0  0
  8  9  1  0  0  0  0
  9 10  2  0  0  0  0
  9 29  1  0  0  0  0
 10 11  1  0  0  0  0
 10 30  1  0  0  0  0
 11 12  2  0  0  0  0
 11 31  1  0  0  0  0
 13 14  1  0  0  0  0
 13 15  2  0  0  0  0
 14 32  1  0  0  0  0
 14 33  1  0  0  0  0
M  END
> <s_m_source_file>
AV-unprocessed.smi

> <i_m_source_file_index>
3116

> <i_lp_mmshare_version>
43012

> <i_f3d_flags>
0

> <s_epik_input>
W05IMl1DKD1PKVtDQEhdKFtDSDNdKVtOSF1bQ0BIXShbQ0gzXSlbQ0BIXShbQ0gzXSluMVtjSF1bY0hdW2NIXW4x

> <s_epik_cmdline>
J2VwaWtfcHl0aG9uJywgJy1waCcsICc3LjAnLCAnLXRuJywgJzgnLCAnLW1hJywgJzIwMCcsICctbWV0YWxfYmluZGluZycsICctaW1hZScsICc8aW5maWxlLm1hZT4nLCAnLW9tYWUnLCAnPG91dGZpbGUubWFlPic=

> <r_lp_tautomer_probability>
1

> <r_epik_Ionization_Penalty>
0.865977

> <r_epik_Ionization_Penalty_Charging>
0

> <r_epik_Ionization_Penalty_Neutral>
0.865977

> <r_epik_State_Penalty>
0.901888

> <r_epik_Charging_Adjusted_Penalty>
0.901888

> <i_epik_Tot_Q>
0

> <i_epik_Tot_abs_Q>
0

> <r_epik_Metal_State_Penalty>
0.901181

> <b_epik_Metal_Only>
0

> <s_lp_Force_Field>
OPLS_2005

> <r_lp_Energy>
9.31489

> <b_lp_Chiralities_Consistent>
1

> <s_lp_Variant>
AV-unprocessed.smi:3116-10

> <Gold.Version>
5.8.1

> <Gold.Id.Protein>
6NUR|6NUR_protein|mol2

> <Gold.PLP.Fitness>
35.0055

> <Gold.PLP.PLP>
-27.0243

> <Gold.PLP.part.hbond>
-2.9689

> <Gold.PLP.part.metal>
0.0000

> <Gold.PLP.part.buried>
-5.6007

> <Gold.PLP.part.nonpolar>
-19.7033

> <Gold.PLP.part.repulsive>
0.1775

> <Gold.PLP.ligand.clash>
0.0000

> <Gold.PLP.ligand.torsion>
1.3073

> <Gold.PLP.Chemscore.Hbond>
2.4867

> <Gold.PLP.Chemscore.CHOScore>
1.0000

> <Gold.PLP.Chemscore.Metal>
0.0000

> <Gold.Chemscore.Hbonds>
donor molecule, donor type, donor heavy atom, donor atom, acceptor molecule, acceptor atom, score
      L1  H    14    32       P1  7957  1.00
      L1  H    14    33       P1  7948  0.41
      P1  H  7989  7998       L1    15  1.00
      L1  C     9    29       P1  8028  1.00

> <Gold.PLP.Chemscore.Internal.Correction>
0.1356

> <Gold.Rescore>
     Score         DG    S(hbond)    S(metal)    S(lipo)     H(rot)  DE(clash)    DE(int)     intcor
     13.72     -15.30       2.56        0.00      62.98       2.38       0.01       1.57       ----

> <Gold.Chemscore.Fitness>
13.7227

> <Gold.Chemscore.DG>
-15.3038

> <Gold.Chemscore.ZeroCoef>
-5.4800

> <Gold.Chemscore.Hbond>
2.5619

> <Gold.Chemscore.Metal>
0.0000

> <Gold.Chemscore.Lipo>
62.9837

> <Gold.Chemscore.Internal_Hbond>
0.0000

> <Gold.Chemscore.DEClash>
0.0126

> <Gold.Chemscore.DEInternal>
1.5685

> <Gold.Chemscore.Rot>
2.3836

> <Gold.Chemscore.Internal.Correction>
   9.000000E+99

> <Gold.Chemscore.Hbonds>
donor molecule, donor type, donor heavy atom, donor atom, acceptor molecule, acceptor atom, score
      L1  H    14    32       P1  7957  0.74
      L1  H    14    33       P1  7948  0.36
      P1  H  7989  7998       L1    15  0.99

> <Gold.Chemscore.Hbond.Weighted>
-8.5567

> <Gold.Chemscore.Metal.Weighted>
-0.0000

> <Gold.Chemscore.Lipo.Weighted>
-7.3691

> <Gold.Chemscore.Internal_Hbond.Weighted>
0.0000

> <Gold.Chemscore.DEClash.Weighted>
0.0126

> <Gold.Chemscore.DEInternal.Weighted>
1.5685

> <Gold.Chemscore.Rot.Weighted>
6.1020

> <Gold.Chemscore.Internal.Correction.Weighted>
   9.000000E+99

> <Gold.Protein.RotatedTorsions>
[ 6907 6896 6895 6894 ] final   15.29 input  -60.11 | X-H torsion
[ 7974 7965 7964 7962 ] final  -18.77 input  175.53 | X-H torsion
[ 8008 7997 7996 7995 ] final  -83.64 input   59.86 | X-H torsion
[ 10167 10162 10161 10158 ] final -179.05 input  -65.29 | X-H torsion
[ 10718 10713 10712 10709 ] final   57.18 input   66.30 | X-H torsion
[ 10763 10752 10751 10750 ] final   88.13 input  -60.55 | X-H torsion
[ 11005 11000 10999 10996 ] final  -79.20 input  -57.11 | X-H torsion

> <Gold.Protein.ActiveResidues>
 VAL166  LYS551  ARG553  GLY616  TRP617  ASP618  TYR619  PRO620  LYS621  CYS622 
 ASP623  PHE694  ASN695  SER759  ASP760  ASP761  ALA762  ILE779  LEU786  VAL792 
 PHE793  MET794  SER795  GLU796  ALA797  LYS798  CYS799  TRP800  GLU811  SER814 

> <Gold.Protein.RotatedAtoms>
  151.8157  135.0667  160.0418 H   0  0  0  0  0  0  0  0  0  0  0  0  # atno 6907 bound_to 6896
  152.2988  133.5630  159.5613 H   0  0  0  0  0  0  0  0  0  0  0  0  # atno 6908 bound_to 6896
  150.7263  134.0238  159.3752 H   0  0  0  0  0  0  0  0  0  0  0  0  # atno 6909 bound_to 6896
  146.1875  140.3968  142.8470 H   0  0  0  0  0  0  0  0  0  0  0  0  # atno 7974 bound_to 7965
  154.6213  140.0616  156.9618 H   0  0  0  0  0  0  0  0  0  0  0  0  # atno 8008 bound_to 7997
  155.1813  140.3299  155.4356 H   0  0  0  0  0  0  0  0  0  0  0  0  # atno 8009 bound_to 7997
  156.2433  140.1897  156.6909 H   0  0  0  0  0  0  0  0  0  0  0  0  # atno 8010 bound_to 7997
  139.5404  144.2379  152.0883 H   0  0  0  0  0  0  0  0  0  0  0  0  # atno 10167 bound_to 10162
  157.5493  130.8754  149.8939 H   0  0  0  0  0  0  0  0  0  0  0  0  # atno 10718 bound_to 10713
  153.1737  135.4518  154.9937 H   0  0  0  0  0  0  0  0  0  0  0  0  # atno 10763 bound_to 10752
  154.7984  135.3246  154.7614 H   0  0  0  0  0  0  0  0  0  0  0  0  # atno 10764 bound_to 10752
  153.8086  135.6956  153.4899 H   0  0  0  0  0  0  0  0  0  0  0  0  # atno 10765 bound_to 10752
  141.1667  133.7095  156.8087 H   0  0  0  0  0  0  0  0  0  0  0  0  # atno 11005 bound_to 11000
  144.8425  140.6879  143.6220 LP  0  0  0  0  0  0  0  0  0  0  0  0  # atno 17320 bound_to 7965
  145.3893  139.1620  143.4238 LP  0  0  0  0  0  0  0  0  0  0  0  0  # atno 17321 bound_to 7965
  140.1856  144.4801  150.6505 LP  0  0  0  0  0  0  0  0  0  0  0  0  # atno 17342 bound_to 10162
  140.6631  143.2259  151.5808 LP  0  0  0  0  0  0  0  0  0  0  0  0  # atno 17343 bound_to 10162
  156.0563  130.3708  150.1084 LP  0  0  0  0  0  0  0  0  0  0  0  0  # atno 17370 bound_to 10713
  156.9258  130.9698  151.3541 LP  0  0  0  0  0  0  0  0  0  0  0  0  # atno 17371 bound_to 10713
  140.2204  134.8761  157.3370 LP  0  0  0  0  0  0  0  0  0  0  0  0  # atno 17394 bound_to 11000
  140.1994  134.4273  155.7671 LP  0  0  0  0  0  0  0  0  0  0  0  0  # atno 17395 bound_to 11000

$$$$
