AV-unprocessed.smi:2104|AV-procd|sdf|8590|dock2
  -GOLD-   2272011323D 1   1.00000     0.00000
 Structure written by MMmdl.
 42 43  0  0  0  0  0  0  0  0  2 V2000
  146.5498  133.9837  162.3244 C   0  0  0  0  0  0  0  0  0  0  0  0
  146.9694  135.1677  161.5228 C   0  0  0  0  0  0  0  0  0  0  0  0
  147.3996  135.3136  160.2346 C   0  0  0  0  0  0  0  0  0  0  0  0
  147.6168  136.7140  160.1215 C   0  0  0  0  0  0  0  0  0  0  0  0
  148.0555  137.3613  159.0311 N   0  5  0  0  0  0  0  0  0  0  0  0
  149.3833  137.5112  158.8196 C   0  0  0  0  0  0  0  0  0  0  0  0
  150.2898  137.0593  159.5232 O   0  0  0  0  0  0  0  0  0  0  0  0
  149.6782  138.2168  157.7184 N   0  0  0  0  0  0  0  0  0  0  0  0
  151.0171  138.4675  157.1939 C   0  0  0  0  0  0  0  0  0  0  0  0
  151.2962  139.9734  157.0762 C   0  0  0  0  0  0  0  0  0  0  0  0
  151.5123  140.5158  158.3715 O   0  0  0  0  0  0  0  0  0  0  0  0
  152.0400  141.8361  158.3895 C   0  0  1  0  0  0  0  0  0  0  0  0
  151.0500  142.8070  157.7113 C   0  0  0  0  0  0  0  0  0  0  0  0
  151.5188  144.2645  157.8290 C   0  0  0  0  0  0  0  0  0  0  0  0
  151.7449  144.6535  159.2962 C   0  0  0  0  0  0  0  0  0  0  0  0
  152.7379  143.6965  159.9722 C   0  0  0  0  0  0  0  0  0  0  0  0
  152.2822  142.2273  159.8658 C   0  0  2  0  0  0  0  0  0  0  0  0
  153.3013  141.2968  160.5450 C   0  0  0  0  0  0  0  0  0  0  0  0
  147.3589  137.3582  161.2477 N   0  0  0  0  0  0  0  0  0  0  0  0
  146.9366  136.3744  162.1495 O   0  0  0  0  0  0  0  0  0  0  0  0
  146.9565  134.0344  163.3344 H   0  0  0  0  0  0  0  0  0  0  0  0
  146.9004  133.0594  161.8653 H   0  0  0  0  0  0  0  0  0  0  0  0
  145.4636  133.9345  162.3979 H   0  0  0  0  0  0  0  0  0  0  0  0
  147.5310  134.5445  159.4885 H   0  0  0  0  0  0  0  0  0  0  0  0
  148.9036  138.5702  157.1765 H   0  0  0  0  0  0  0  0  0  0  0  0
  151.7281  138.0224  157.8898 H   0  0  0  0  0  0  0  0  0  0  0  0
  151.1695  137.9674  156.2363 H   0  0  0  0  0  0  0  0  0  0  0  0
  152.1630  140.1385  156.4346 H   0  0  0  0  0  0  0  0  0  0  0  0
  150.4447  140.4658  156.6069 H   0  0  0  0  0  0  0  0  0  0  0  0
  152.9979  141.8646  157.8667 H   0  0  0  0  0  0  0  0  0  0  0  0
  150.9271  142.5558  156.6582 H   0  0  0  0  0  0  0  0  0  0  0  0
  150.0658  142.7040  158.1700 H   0  0  0  0  0  0  0  0  0  0  0  0
  152.4447  144.3972  157.2680 H   0  0  0  0  0  0  0  0  0  0  0  0
  150.7836  144.9302  157.3762 H   0  0  0  0  0  0  0  0  0  0  0  0
  152.1153  145.6771  159.3568 H   0  0  0  0  0  0  0  0  0  0  0  0
  150.7948  144.6349  159.8316 H   0  0  0  0  0  0  0  0  0  0  0  0
  153.7206  143.8106  159.5124 H   0  0  0  0  0  0  0  0  0  0  0  0
  152.8548  143.9755  161.0199 H   0  0  0  0  0  0  0  0  0  0  0  0
  151.3369  142.1303  160.4021 H   0  0  0  0  0  0  0  0  0  0  0  0
  154.2643  141.3208  160.0342 H   0  0  0  0  0  0  0  0  0  0  0  0
  152.9562  140.2635  160.5497 H   0  0  0  0  0  0  0  0  0  0  0  0
  153.4674  141.5852  161.5832 H   0  0  0  0  0  0  0  0  0  0  0  0
  1  2  1  0  0  0  0
  1 21  1  0  0  0  0
  1 22  1  0  0  0  0
  1 23  1  0  0  0  0
  2 20  1  0  0  0  0
  2  3  2  0  0  0  0
  3  4  1  0  0  0  0
  3 24  1  0  0  0  0
  4  5  1  0  0  0  0
  4 19  2  0  0  0  0
  5  6  1  0  0  0  0
  6  7  2  0  0  0  0
  6  8  1  0  0  0  0
  8  9  1  0  0  0  0
  8 25  1  0  0  0  0
  9 10  1  0  0  0  0
  9 26  1  0  0  0  0
  9 27  1  0  0  0  0
 10 11  1  0  0  0  0
 10 28  1  0  0  0  0
 10 29  1  0  0  0  0
 11 12  1  0  0  0  0
 12 17  1  0  0  0  0
 12 13  1  0  0  0  0
 12 30  1  0  0  0  0
 13 14  1  0  0  0  0
 13 31  1  0  0  0  0
 13 32  1  0  0  0  0
 14 15  1  0  0  0  0
 14 33  1  0  0  0  0
 14 34  1  0  0  0  0
 15 16  1  0  0  0  0
 15 35  1  0  0  0  0
 15 36  1  0  0  0  0
 16 17  1  0  0  0  0
 16 37  1  0  0  0  0
 16 38  1  0  0  0  0
 17 18  1  0  0  0  0
 17 39  1  0  0  0  0
 18 40  1  0  0  0  0
 18 41  1  0  0  0  0
 18 42  1  0  0  0  0
 19 20  1  0  0  0  0
M  CHG  1   5  -1
M  END
> <s_m_source_file>
AV-unprocessed.smi

> <i_m_source_file_index>
2104

> <i_lp_mmshare_version>
43012

> <i_f3d_flags>
0

> <s_epik_input>
W0NIM11jMVtjSF1jKG5vMSlbTkhdQyg9TylbTkhdW0NIMl1bQ0gyXU9bQ0BASF0yW0NIMl1bQ0gyXVtDSDJdW0NIMl1bQ0BIXTJbQ0gzXQ==

> <s_epik_cmdline>
J2VwaWtfcHl0aG9uJywgJy1waCcsICc3LjAnLCAnLXRuJywgJzgnLCAnLW1hJywgJzIwMCcsICctbWV0YWxfYmluZGluZycsICctaW1hZScsICc8aW5maWxlLm1hZT4nLCAnLW9tYWUnLCAnPG91dGZpbGUubWFlPic=

> <r_lp_tautomer_probability>
1

> <r_epik_Ionization_Penalty>
6.47137

> <r_epik_Ionization_Penalty_Charging>
6.47125

> <r_epik_Ionization_Penalty_Neutral>
0.000118933

> <r_epik_State_Penalty>
6.47124

> <r_epik_Charging_Adjusted_Penalty>
12.9425

> <i_epik_Tot_Q>
-1

> <i_epik_Tot_abs_Q>
1

> <r_epik_Metal_State_Penalty>
2.3995

> <b_epik_Metal_Only>
1

> <s_lp_Force_Field>
OPLS_2005

> <r_lp_Energy>
3.24625

> <b_lp_Chiralities_Consistent>
1

> <s_lp_Variant>
AV-unprocessed.smi:2104-8

> <Gold.Version>
5.8.1

> <Gold.Id.Protein>
6NUR|6NUR_protein|mol2

> <Gold.PLP.Fitness>
49.8343

> <Gold.PLP.PLP>
-43.0843

> <Gold.PLP.part.hbond>
-3.0000

> <Gold.PLP.part.metal>
0.0000

> <Gold.PLP.part.buried>
-5.9419

> <Gold.PLP.part.nonpolar>
-34.5093

> <Gold.PLP.part.repulsive>
0.0695

> <Gold.PLP.ligand.clash>
0.0000

> <Gold.PLP.ligand.torsion>
0.8410

> <Gold.PLP.Chemscore.Hbond>
2.7760

> <Gold.PLP.Chemscore.CHOScore>
0.0000

> <Gold.PLP.Chemscore.Metal>
0.0000

> <Gold.Chemscore.Hbonds>
donor molecule, donor type, donor heavy atom, donor atom, acceptor molecule, acceptor atom, score
      P1  H  6896  6909       L1     7  0.65
      P1  H  6931  6943       L1    19  0.80
      P1  H  6934  6947       L1    19  0.99

> <Gold.PLP.Chemscore.Internal.Correction>
0.1040

> <Gold.Rescore>
     Score         DG    S(hbond)    S(metal)    S(lipo)     H(rot)  DE(clash)    DE(int)     intcor
     21.22     -22.04       2.60        0.00     104.60       1.71       0.01       0.81       ----

> <Gold.Chemscore.Fitness>
21.2234

> <Gold.Chemscore.DG>
-22.0387

> <Gold.Chemscore.ZeroCoef>
-5.4800

> <Gold.Chemscore.Hbond>
2.6044

> <Gold.Chemscore.Metal>
0.0000

> <Gold.Chemscore.Lipo>
104.6009

> <Gold.Chemscore.Internal_Hbond>
0.0000

> <Gold.Chemscore.DEClash>
0.0073

> <Gold.Chemscore.DEInternal>
0.8080

> <Gold.Chemscore.Rot>
1.7103

> <Gold.Chemscore.Internal.Correction>
   9.000000E+99

> <Gold.Chemscore.Hbonds>
donor molecule, donor type, donor heavy atom, donor atom, acceptor molecule, acceptor atom, score
      P1  H  6896  6909       L1     7  0.65
      P1  H  6931  6943       L1    19  0.45
      P1  H  6934  6947       L1    19  0.69

> <Gold.Chemscore.Hbond.Weighted>
-8.6988

> <Gold.Chemscore.Metal.Weighted>
-0.0000

> <Gold.Chemscore.Lipo.Weighted>
-12.2383

> <Gold.Chemscore.Internal_Hbond.Weighted>
0.0000

> <Gold.Chemscore.DEClash.Weighted>
0.0073

> <Gold.Chemscore.DEInternal.Weighted>
0.8080

> <Gold.Chemscore.Rot.Weighted>
4.3784

> <Gold.Chemscore.Internal.Correction.Weighted>
   9.000000E+99

> <Gold.Protein.RotatedTorsions>
[ 6907 6896 6895 6894 ] final   87.25 input  -60.11 | X-H torsion
[ 7974 7965 7964 7962 ] final  -36.71 input  175.53 | X-H torsion
[ 8008 7997 7996 7995 ] final  132.78 input   59.86 | X-H torsion
[ 10167 10162 10161 10158 ] final   36.62 input  -65.29 | X-H torsion
[ 10718 10713 10712 10709 ] final  -49.29 input   66.30 | X-H torsion
[ 10763 10752 10751 10750 ] final -100.30 input  -60.55 | X-H torsion
[ 11005 11000 10999 10996 ] final  151.66 input  -57.11 | X-H torsion

> <Gold.Protein.ActiveResidues>
 VAL166  LYS551  ARG553  GLY616  TRP617  ASP618  TYR619  PRO620  LYS621  CYS622 
 ASP623  PHE694  ASN695  SER759  ASP760  ASP761  ALA762  ILE779  LEU786  VAL792 
 PHE793  MET794  SER795  GLU796  ALA797  LYS798  CYS799  TRP800  GLU811  SER814 

> <Gold.Protein.RotatedAtoms>
  152.5408  134.2306  159.8822 H   0  0  0  0  0  0  0  0  0  0  0  0  # atno 6907 bound_to 6896
  151.2278  133.4460  159.2610 H   0  0  0  0  0  0  0  0  0  0  0  0  # atno 6908 bound_to 6896
  151.0744  134.9832  159.8381 H   0  0  0  0  0  0  0  0  0  0  0  0  # atno 6909 bound_to 6896
  146.0638  140.6310  142.8984 H   0  0  0  0  0  0  0  0  0  0  0  0  # atno 7974 bound_to 7965
  156.2986  140.2538  156.3145 H   0  0  0  0  0  0  0  0  0  0  0  0  # atno 8008 bound_to 7997
  154.9295  140.0398  157.2059 H   0  0  0  0  0  0  0  0  0  0  0  0  # atno 8009 bound_to 7997
  154.8232  140.2863  155.5776 H   0  0  0  0  0  0  0  0  0  0  0  0  # atno 8010 bound_to 7997
  140.4110  144.1592  150.6139 H   0  0  0  0  0  0  0  0  0  0  0  0  # atno 10167 bound_to 10162
  156.1907  130.4153  149.9376 H   0  0  0  0  0  0  0  0  0  0  0  0  # atno 10718 bound_to 10713
  154.7568  135.4940  153.9389 H   0  0  0  0  0  0  0  0  0  0  0  0  # atno 10763 bound_to 10752
  153.1205  135.6730  153.9352 H   0  0  0  0  0  0  0  0  0  0  0  0  # atno 10764 bound_to 10752
  153.9085  135.3101  155.3427 H   0  0  0  0  0  0  0  0  0  0  0  0  # atno 10765 bound_to 10752
  140.1239  134.8846  157.2110 H   0  0  0  0  0  0  0  0  0  0  0  0  # atno 11005 bound_to 11000
  144.7190  140.4310  143.7022 LP  0  0  0  0  0  0  0  0  0  0  0  0  # atno 17320 bound_to 7965
  145.6513  139.1565  143.2860 LP  0  0  0  0  0  0  0  0  0  0  0  0  # atno 17321 bound_to 7965
  140.4638  143.2439  151.9184 LP  0  0  0  0  0  0  0  0  0  0  0  0  # atno 17342 bound_to 10162
  139.4782  144.5440  151.8485 LP  0  0  0  0  0  0  0  0  0  0  0  0  # atno 17343 bound_to 10162
  156.7117  130.8972  151.3610 LP  0  0  0  0  0  0  0  0  0  0  0  0  # atno 17370 bound_to 10713
  157.6927  130.9250  150.0558 LP  0  0  0  0  0  0  0  0  0  0  0  0  # atno 17371 bound_to 10713
  140.2929  134.3219  155.7310 LP  0  0  0  0  0  0  0  0  0  0  0  0  # atno 17394 bound_to 11000
  141.2157  133.7546  156.9530 LP  0  0  0  0  0  0  0  0  0  0  0  0  # atno 17395 bound_to 11000

$$$$
