AV-unprocessed.smi:1413|AV-procd|sdf|5752|dock5
  -GOLD-   22720 5393D 1   1.00000     0.00000
 Structure written by MMmdl.
 53 55  0  0  0  0  0  0  0  0  1 V2000
  151.9475  145.0074  158.5941 C   0  0  0  0  0  0  0  0  0  0  0  0
  152.2809  143.5150  158.4977 C   0  0  2  0  0  0  0  0  0  0  0  0
  151.2943  142.7641  157.5851 C   0  0  0  0  0  0  0  0  0  0  0  0
  151.5795  141.3366  157.6097 N   0  0  0  0  0  0  0  0  0  0  0  0
  150.8293  140.6066  156.6770 C   0  0  0  0  0  0  0  0  0  0  0  0
  151.4910  140.0115  155.5835 C   0  0  0  0  0  0  0  0  0  0  0  0
  150.7330  139.2780  154.6515 C   0  0  0  0  0  0  0  0  0  0  0  0
  149.3392  139.1716  154.8305 C   0  0  0  0  0  0  0  0  0  0  0  0
  148.6001  138.4065  153.8888 N   0  0  0  0  0  0  0  0  0  0  0  0
  147.2670  138.3368  153.7356 C   0  0  0  0  0  0  0  0  0  0  0  0
  146.4442  138.9812  154.3855 O   0  0  0  0  0  0  0  0  0  0  0  0
  146.9397  137.4851  152.7528 N   0  0  0  0  0  0  0  0  0  0  0  0
  145.5873  137.2113  152.2720 C   0  0  2  0  0  0  0  0  0  0  0  0
  144.6651  136.9961  153.4820 C   0  0  0  0  0  0  0  0  0  0  0  0
  145.6191  135.9904  151.3317 C   0  0  1  0  0  0  0  0  0  0  0  0
  146.0718  134.6832  151.9898 C   0  0  0  0  0  0  0  0  0  0  0  0
  145.3258  133.5990  151.2233 C   0  0  0  0  0  0  0  0  0  0  0  0
  144.3779  134.3731  150.3067 C   0  0  0  0  0  0  0  0  0  0  0  0
  144.3111  135.6669  150.8838 O   0  0  0  0  0  0  0  0  0  0  0  0
  148.7699  139.7995  155.9648 C   0  0  0  0  0  0  0  0  0  0  0  0
  149.4925  140.5007  156.8646 N   0  0  0  0  0  0  0  0  0  0  0  0
  151.5408  140.7876  158.9597 C   0  0  0  0  0  0  0  0  0  0  0  0
  152.4965  141.5603  159.8906 C   0  0  1  0  0  0  0  0  0  0  0  0
  153.9823  141.2401  159.6476 C   0  0  0  0  0  0  0  0  0  0  0  0
  152.2285  142.9634  159.8143 O   0  0  0  0  0  0  0  0  0  0  0  0
  151.9826  145.4816  157.6129 H   0  0  0  0  0  0  0  0  0  0  0  0
  152.6585  145.5248  159.2387 H   0  0  0  0  0  0  0  0  0  0  0  0
  150.9498  145.1627  159.0059 H   0  0  0  0  0  0  0  0  0  0  0  0
  153.2918  143.4195  158.1005 H   0  0  0  0  0  0  0  0  0  0  0  0
  150.2696  142.9378  157.9178 H   0  0  0  0  0  0  0  0  0  0  0  0
  151.3696  143.1380  156.5631 H   0  0  0  0  0  0  0  0  0  0  0  0
  152.5598  140.1105  155.4622 H   0  0  0  0  0  0  0  0  0  0  0  0
  151.2183  138.8072  153.8090 H   0  0  0  0  0  0  0  0  0  0  0  0
  149.1522  137.8944  153.2165 H   0  0  0  0  0  0  0  0  0  0  0  0
  147.6901  137.0082  152.2753 H   0  0  0  0  0  0  0  0  0  0  0  0
  145.2052  138.0669  151.7123 H   0  0  0  0  0  0  0  0  0  0  0  0
  143.6344  136.8264  153.1704 H   0  0  0  0  0  0  0  0  0  0  0  0
  144.6664  137.8692  154.1354 H   0  0  0  0  0  0  0  0  0  0  0  0
  144.9794  136.1362  154.0744 H   0  0  0  0  0  0  0  0  0  0  0  0
  146.2432  136.1985  150.4599 H   0  0  0  0  0  0  0  0  0  0  0  0
  147.1543  134.5565  151.9495 H   0  0  0  0  0  0  0  0  0  0  0  0
  145.7716  134.6570  153.0382 H   0  0  0  0  0  0  0  0  0  0  0  0
  145.9983  132.9610  150.6494 H   0  0  0  0  0  0  0  0  0  0  0  0
  144.7689  132.9648  151.9138 H   0  0  0  0  0  0  0  0  0  0  0  0
  144.7916  134.4500  149.3000 H   0  0  0  0  0  0  0  0  0  0  0  0
  143.3910  133.9154  150.2367 H   0  0  0  0  0  0  0  0  0  0  0  0
  147.7164  139.7306  156.1870 H   0  0  0  0  0  0  0  0  0  0  0  0
  150.5236  140.8584  159.3479 H   0  0  0  0  0  0  0  0  0  0  0  0
  151.8017  139.7287  158.9410 H   0  0  0  0  0  0  0  0  0  0  0  0
  152.2739  141.2631  160.9158 H   0  0  0  0  0  0  0  0  0  0  0  0
  154.1849  140.1855  159.8362 H   0  0  0  0  0  0  0  0  0  0  0  0
  154.6194  141.8227  160.3134 H   0  0  0  0  0  0  0  0  0  0  0  0
  154.2885  141.4492  158.6229 H   0  0  0  0  0  0  0  0  0  0  0  0
  1  2  1  0  0  0  0
  1 26  1  0  0  0  0
  1 27  1  0  0  0  0
  1 28  1  0  0  0  0
  2 25  1  0  0  0  0
  2  3  1  0  0  0  0
  2 29  1  0  0  0  0
  3  4  1  0  0  0  0
  3 30  1  0  0  0  0
  3 31  1  0  0  0  0
  4  5  1  0  0  0  0
  4 22  1  0  0  0  0
  5 21  1  0  0  0  0
  5  6  2  0  0  0  0
  6  7  1  0  0  0  0
  6 32  1  0  0  0  0
  7  8  2  0  0  0  0
  7 33  1  0  0  0  0
  8  9  1  0  0  0  0
  8 20  1  0  0  0  0
  9 10  1  0  0  0  0
  9 34  1  0  0  0  0
 10 11  2  0  0  0  0
 10 12  1  0  0  0  0
 12 13  1  0  0  0  0
 12 35  1  0  0  0  0
 13 14  1  0  0  0  0
 13 15  1  0  0  0  0
 13 36  1  0  0  0  0
 14 37  1  0  0  0  0
 14 38  1  0  0  0  0
 14 39  1  0  0  0  0
 15 19  1  0  0  0  0
 15 16  1  0  0  0  0
 15 40  1  0  0  0  0
 16 17  1  0  0  0  0
 16 41  1  0  0  0  0
 16 42  1  0  0  0  0
 17 18  1  0  0  0  0
 17 43  1  0  0  0  0
 17 44  1  0  0  0  0
 18 19  1  0  0  0  0
 18 45  1  0  0  0  0
 18 46  1  0  0  0  0
 20 21  2  0  0  0  0
 20 47  1  0  0  0  0
 22 23  1  0  0  0  0
 22 48  1  0  0  0  0
 22 49  1  0  0  0  0
 23 24  1  0  0  0  0
 23 25  1  0  0  0  0
 23 50  1  0  0  0  0
 24 51  1  0  0  0  0
 24 52  1  0  0  0  0
 24 53  1  0  0  0  0
M  END
> <s_m_source_file>
AV-unprocessed.smi

> <i_m_source_file_index>
1413

> <i_lp_mmshare_version>
43012

> <i_f3d_flags>
0

> <s_epik_input>
W0NIM11bQ0BASF0xW0NIMl1OKFtDSDJdW0NASF0oTzEpW0NIM10pYzJbY0hdW2NIXWMoW2NIXW4yKVtOSF1DKD1PKVtOSF1bQ0BIXShbQ0gzXSlbQ0BASF0zW0NIMl1bQ0gyXVtDSDJdTzM=

> <s_epik_cmdline>
J2VwaWtfcHl0aG9uJywgJy1waCcsICc3LjAnLCAnLXRuJywgJzgnLCAnLW1hJywgJzIwMCcsICctbWV0YWxfYmluZGluZycsICctaW1hZScsICc8aW5maWxlLm1hZT4nLCAnLW9tYWUnLCAnPG91dGZpbGUubWFlPic=

> <r_lp_tautomer_probability>
1

> <r_epik_Ionization_Penalty>
0.00271172

> <r_epik_Ionization_Penalty_Charging>
0

> <r_epik_Ionization_Penalty_Neutral>
0.00271172

> <r_epik_State_Penalty>
0.00186503

> <r_epik_Charging_Adjusted_Penalty>
0.00186503

> <i_epik_Tot_Q>
0

> <i_epik_Tot_abs_Q>
0

> <r_epik_Metal_State_Penalty>
-0

> <b_epik_Metal_Only>
0

> <s_lp_Force_Field>
OPLS_2005

> <r_lp_Energy>
38.8739

> <b_lp_Chiralities_Consistent>
1

> <s_lp_Variant>
AV-unprocessed.smi:1413-5

> <Gold.Version>
5.8.1

> <Gold.Id.Protein>
6NUR|6NUR_protein|mol2

> <Gold.PLP.Fitness>
48.4488

> <Gold.PLP.PLP>
-43.8824

> <Gold.PLP.part.hbond>
-1.9846

> <Gold.PLP.part.metal>
0.0000

> <Gold.PLP.part.buried>
-5.9692

> <Gold.PLP.part.nonpolar>
-37.0152

> <Gold.PLP.part.repulsive>
0.6519

> <Gold.PLP.ligand.clash>
0.0000

> <Gold.PLP.ligand.torsion>
0.2387

> <Gold.PLP.Chemscore.Hbond>
1.6402

> <Gold.PLP.Chemscore.CHOScore>
0.0000

> <Gold.PLP.Chemscore.Metal>
0.0000

> <Gold.Chemscore.Hbonds>
donor molecule, donor type, donor heavy atom, donor atom, acceptor molecule, acceptor atom, score
      L1  H     9    34       P1  7948  0.62
      L1  H    12    35       P1  7948  0.99

> <Gold.PLP.Chemscore.Internal.Correction>
0.1231

> <Gold.Rescore>
     Score         DG    S(hbond)    S(metal)    S(lipo)     H(rot)  DE(clash)    DE(int)     intcor
     18.44     -21.36       1.78        0.00     114.23       1.35       0.07       2.84       ----

> <Gold.Chemscore.Fitness>
18.4398

> <Gold.Chemscore.DG>
-21.3568

> <Gold.Chemscore.ZeroCoef>
-5.4800

> <Gold.Chemscore.Hbond>
1.7847

> <Gold.Chemscore.Metal>
0.0000

> <Gold.Chemscore.Lipo>
114.2260

> <Gold.Chemscore.Internal_Hbond>
0.0000

> <Gold.Chemscore.DEClash>
0.0738

> <Gold.Chemscore.DEInternal>
2.8432

> <Gold.Chemscore.Rot>
1.3471

> <Gold.Chemscore.Internal.Correction>
   9.000000E+99

> <Gold.Chemscore.Hbonds>
donor molecule, donor type, donor heavy atom, donor atom, acceptor molecule, acceptor atom, score
      L1  H     9    34       P1  7948  0.61
      L1  H    12    35       P1  7948  0.92

> <Gold.Chemscore.Hbond.Weighted>
-5.9609

> <Gold.Chemscore.Metal.Weighted>
-0.0000

> <Gold.Chemscore.Lipo.Weighted>
-13.3644

> <Gold.Chemscore.Internal_Hbond.Weighted>
0.0000

> <Gold.Chemscore.DEClash.Weighted>
0.0738

> <Gold.Chemscore.DEInternal.Weighted>
2.8432

> <Gold.Chemscore.Rot.Weighted>
3.4485

> <Gold.Chemscore.Internal.Correction.Weighted>
   9.000000E+99

> <Gold.Protein.RotatedTorsions>
[ 6907 6896 6895 6894 ] final   24.45 input  -60.11 | X-H torsion
[ 7974 7965 7964 7962 ] final  129.47 input  175.53 | X-H torsion
[ 8008 7997 7996 7995 ] final  -65.88 input   59.86 | X-H torsion
[ 10167 10162 10161 10158 ] final   66.08 input  -65.29 | X-H torsion
[ 10718 10713 10712 10709 ] final  120.83 input   66.30 | X-H torsion
[ 10763 10752 10751 10750 ] final   65.80 input  -60.55 | X-H torsion
[ 11005 11000 10999 10996 ] final   88.53 input  -57.11 | X-H torsion

> <Gold.Protein.ActiveResidues>
 VAL166  LYS551  ARG553  GLY616  TRP617  ASP618  TYR619  PRO620  LYS621  CYS622 
 ASP623  PHE694  ASN695  SER759  ASP760  ASP761  ALA762  ILE779  LEU786  VAL792 
 PHE793  MET794  SER795  GLU796  ALA797  LYS798  CYS799  TRP800  GLU811  SER814 

> <Gold.Protein.RotatedAtoms>
  151.9577  135.0138  160.0545 H   0  0  0  0  0  0  0  0  0  0  0  0  # atno 6907 bound_to 6896
  152.1896  133.4759  159.5009 H   0  0  0  0  0  0  0  0  0  0  0  0  # atno 6908 bound_to 6896
  150.6932  134.1646  159.4232 H   0  0  0  0  0  0  0  0  0  0  0  0  # atno 6909 bound_to 6896
  145.0283  139.4069  143.5163 H   0  0  0  0  0  0  0  0  0  0  0  0  # atno 7974 bound_to 7965
  154.4699  140.0924  156.7118 H   0  0  0  0  0  0  0  0  0  0  0  0  # atno 8008 bound_to 7997
  155.4753  140.3466  155.4313 H   0  0  0  0  0  0  0  0  0  0  0  0  # atno 8009 bound_to 7997
  156.1021  140.1425  156.9442 H   0  0  0  0  0  0  0  0  0  0  0  0  # atno 8010 bound_to 7997
  140.1043  144.4876  150.7018 H   0  0  0  0  0  0  0  0  0  0  0  0  # atno 10167 bound_to 10162
  157.5862  131.1069  150.8089 H   0  0  0  0  0  0  0  0  0  0  0  0  # atno 10718 bound_to 10713
  153.0112  135.5343  154.6725 H   0  0  0  0  0  0  0  0  0  0  0  0  # atno 10763 bound_to 10752
  154.5906  135.2858  155.0642 H   0  0  0  0  0  0  0  0  0  0  0  0  # atno 10764 bound_to 10752
  154.1736  135.6528  153.5068 H   0  0  0  0  0  0  0  0  0  0  0  0  # atno 10765 bound_to 10752
  139.8894  134.8494  156.3014 H   0  0  0  0  0  0  0  0  0  0  0  0  # atno 11005 bound_to 11000
  146.3495  139.9819  142.8695 LP  0  0  0  0  0  0  0  0  0  0  0  0  # atno 17320 bound_to 7965
  145.1804  140.9764  143.4269 LP  0  0  0  0  0  0  0  0  0  0  0  0  # atno 17321 bound_to 7965
  140.6961  143.2404  151.4997 LP  0  0  0  0  0  0  0  0  0  0  0  0  # atno 17342 bound_to 10162
  139.5654  144.2055  152.1757 LP  0  0  0  0  0  0  0  0  0  0  0  0  # atno 17343 bound_to 10162
  156.8523  130.5084  149.5311 LP  0  0  0  0  0  0  0  0  0  0  0  0  # atno 17370 bound_to 10713
  156.0912  130.5897  150.9735 LP  0  0  0  0  0  0  0  0  0  0  0  0  # atno 17371 bound_to 10713
  140.9911  133.7208  156.0815 LP  0  0  0  0  0  0  0  0  0  0  0  0  # atno 17394 bound_to 11000
  140.7624  134.3925  157.5523 LP  0  0  0  0  0  0  0  0  0  0  0  0  # atno 17395 bound_to 11000

$$$$
