AV-unprocessed.smi:1203|AV-procd|sdf|5034|dock1
  -GOLD-   22720 4 53D 1   1.00000     0.00000
 Structure written by MMmdl.
 39 40  0  0  0  0  0  0  0  0  1 V2000
  146.7015  134.7814  161.7731 C   0  0  0  0  0  0  0  0  0  0  0  0
  147.3414  136.4465  161.3303 S   0  0  0  0  0  0  0  0  0  0  0  0
  146.2089  137.3495  161.0754 O   0  0  0  0  0  0  0  0  0  0  0  0
  148.3693  136.8173  162.3149 O   0  0  0  0  0  0  0  0  0  0  0  0
  148.1404  136.1600  159.8221 N   0  0  0  0  0  0  0  0  0  0  0  0
  147.7579  134.9817  159.0300 C   0  0  0  0  0  0  0  0  0  0  0  0
  148.0439  135.3501  157.5758 C   0  0  0  0  0  0  0  0  0  0  0  0
  147.8520  136.8600  157.5660 C   0  0  0  0  0  0  0  0  0  0  0  0
  148.4112  137.3037  158.9303 C   0  0  2  0  0  0  0  0  0  0  0  0
  149.9003  137.6923  158.9023 C   0  0  0  0  0  0  0  0  0  0  0  0
  150.7480  137.0224  159.4929 O   0  0  0  0  0  0  0  0  0  0  0  0
  150.2027  138.8065  158.2184 N   0  0  0  0  0  0  0  0  0  0  0  0
  151.5146  139.4413  158.1726 C   0  0  0  0  0  0  0  0  0  0  0  0
  151.5265  140.7061  157.2904 C   0  0  0  0  0  0  0  0  0  0  0  0
  151.7081  141.9939  158.0774 C   0  0  0  0  0  0  0  0  0  0  0  0
  152.6670  142.0849  159.1080 C   0  0  0  0  0  0  0  0  0  0  0  0
  152.7916  143.2964  159.8144 C   0  0  0  0  0  0  0  0  0  0  0  0
  151.9509  144.3692  159.4579 C   0  0  0  0  0  0  0  0  0  0  0  0
  151.0264  144.2925  158.4764 N   0  0  0  0  0  0  0  0  0  0  0  0
  150.9138  143.1271  157.8034 C   0  0  0  0  0  0  0  0  0  0  0  0
  146.1757  134.8374  162.7259 H   0  0  0  0  0  0  0  0  0  0  0  0
  147.5356  134.0866  161.8627 H   0  0  0  0  0  0  0  0  0  0  0  0
  146.0158  134.4316  161.0021 H   0  0  0  0  0  0  0  0  0  0  0  0
  148.3114  134.1003  159.3531 H   0  0  0  0  0  0  0  0  0  0  0  0
  146.6938  134.7829  159.1617 H   0  0  0  0  0  0  0  0  0  0  0  0
  149.0760  135.1031  157.3230 H   0  0  0  0  0  0  0  0  0  0  0  0
  147.3898  134.8346  156.8724 H   0  0  0  0  0  0  0  0  0  0  0  0
  148.3211  137.3337  156.7032 H   0  0  0  0  0  0  0  0  0  0  0  0
  146.7877  137.0948  157.5165 H   0  0  0  0  0  0  0  0  0  0  0  0
  147.8555  138.1778  159.2723 H   0  0  0  0  0  0  0  0  0  0  0  0
  149.4477  139.2887  157.7512 H   0  0  0  0  0  0  0  0  0  0  0  0
  151.8649  139.6706  159.1800 H   0  0  0  0  0  0  0  0  0  0  0  0
  152.2102  138.7086  157.7628 H   0  0  0  0  0  0  0  0  0  0  0  0
  152.3260  140.6295  156.5523 H   0  0  0  0  0  0  0  0  0  0  0  0
  150.5984  140.7663  156.7211 H   0  0  0  0  0  0  0  0  0  0  0  0
  153.2917  141.2406  159.3600 H   0  0  0  0  0  0  0  0  0  0  0  0
  153.5133  143.4001  160.6110 H   0  0  0  0  0  0  0  0  0  0  0  0
  152.0183  145.3124  159.9798 H   0  0  0  0  0  0  0  0  0  0  0  0
  150.1648  143.0967  157.0258 H   0  0  0  0  0  0  0  0  0  0  0  0
  1  2  1  0  0  0  0
  1 21  1  0  0  0  0
  1 22  1  0  0  0  0
  1 23  1  0  0  0  0
  2  3  2  0  0  0  0
  2  4  2  0  0  0  0
  2  5  1  0  0  0  0
  5  9  1  0  0  0  0
  5  6  1  0  0  0  0
  6  7  1  0  0  0  0
  6 24  1  0  0  0  0
  6 25  1  0  0  0  0
  7  8  1  0  0  0  0
  7 26  1  0  0  0  0
  7 27  1  0  0  0  0
  8  9  1  0  0  0  0
  8 28  1  0  0  0  0
  8 29  1  0  0  0  0
  9 10  1  0  0  0  0
  9 30  1  0  0  0  0
 10 11  2  0  0  0  0
 10 12  1  0  0  0  0
 12 13  1  0  0  0  0
 12 31  1  0  0  0  0
 13 14  1  0  0  0  0
 13 32  1  0  0  0  0
 13 33  1  0  0  0  0
 14 15  1  0  0  0  0
 14 34  1  0  0  0  0
 14 35  1  0  0  0  0
 15 20  1  0  0  0  0
 15 16  2  0  0  0  0
 16 17  1  0  0  0  0
 16 36  1  0  0  0  0
 17 18  2  0  0  0  0
 17 37  1  0  0  0  0
 18 19  1  0  0  0  0
 18 38  1  0  0  0  0
 19 20  2  0  0  0  0
 20 39  1  0  0  0  0
M  END
> <s_m_source_file>
AV-unprocessed.smi

> <i_m_source_file_index>
1203

> <i_lp_mmshare_version>
43012

> <i_f3d_flags>
0

> <s_epik_input>
W0NIM11TKD1PKSg9TylOMVtDSDJdW0NIMl1bQ0gyXVtDQEhdMUMoPU8pW05IXVtDSDJdW0NIMl1jMltjSF1bY0hdW2NIXW5bY0hdMg==

> <s_epik_cmdline>
J2VwaWtfcHl0aG9uJywgJy1waCcsICc3LjAnLCAnLXRuJywgJzgnLCAnLW1hJywgJzIwMCcsICctbWV0YWxfYmluZGluZycsICctaW1hZScsICc8aW5maWxlLm1hZT4nLCAnLW9tYWUnLCAnPG91dGZpbGUubWFlPic=

> <r_epik_Ionization_Penalty>
0.0126915

> <r_epik_Ionization_Penalty_Charging>
0

> <r_epik_Ionization_Penalty_Neutral>
0.0126915

> <r_epik_State_Penalty>
0.0098379

> <r_epik_Charging_Adjusted_Penalty>
0.0098379

> <i_epik_Tot_Q>
0

> <i_epik_Tot_abs_Q>
0

> <r_epik_Metal_State_Penalty>
0.00962905

> <b_epik_Metal_Only>
0

> <s_lp_Force_Field>
OPLS_2005

> <r_lp_Energy>
4.44391

> <b_lp_Chiralities_Consistent>
1

> <s_lp_Variant>
AV-unprocessed.smi:1203-2

> <Gold.Version>
5.8.1

> <Gold.Id.Protein>
6NUR|6NUR_protein|mol2

> <Gold.PLP.Fitness>
43.5141

> <Gold.PLP.PLP>
-33.9073

> <Gold.PLP.part.hbond>
-2.9144

> <Gold.PLP.part.metal>
0.0000

> <Gold.PLP.part.buried>
-6.2034

> <Gold.PLP.part.nonpolar>
-25.5365

> <Gold.PLP.part.repulsive>
0.2652

> <Gold.PLP.ligand.clash>
0.0000

> <Gold.PLP.ligand.torsion>
1.4919

> <Gold.PLP.Chemscore.Hbond>
3.0000

> <Gold.PLP.Chemscore.CHOScore>
0.9975

> <Gold.PLP.Chemscore.Metal>
0.0000

> <Gold.Chemscore.Hbonds>
donor molecule, donor type, donor heavy atom, donor atom, acceptor molecule, acceptor atom, score
      P1  H  6896  6909       L1    11  0.99
      P1  H  6931  6943       L1     4  1.00
      P1  H  6934  6947       L1     3  1.00
      L1  C    20    39       P1  8028  1.00

> <Gold.PLP.Chemscore.Internal.Correction>
0.5980

> <Gold.Rescore>
     Score         DG    S(hbond)    S(metal)    S(lipo)     H(rot)  DE(clash)    DE(int)     intcor
     16.25     -17.52       2.34        0.00      77.61       1.90       0.01       1.26       ----

> <Gold.Chemscore.Fitness>
16.2514

> <Gold.Chemscore.DG>
-17.5245

> <Gold.Chemscore.ZeroCoef>
-5.4800

> <Gold.Chemscore.Hbond>
2.3428

> <Gold.Chemscore.Metal>
0.0000

> <Gold.Chemscore.Lipo>
77.6144

> <Gold.Chemscore.Internal_Hbond>
0.0000

> <Gold.Chemscore.DEClash>
0.0089

> <Gold.Chemscore.DEInternal>
1.2642

> <Gold.Chemscore.Rot>
1.8990

> <Gold.Chemscore.Internal.Correction>
   9.000000E+99

> <Gold.Chemscore.Hbonds>
donor molecule, donor type, donor heavy atom, donor atom, acceptor molecule, acceptor atom, score
      P1  H  6896  6909       L1    11  0.92
      P1  H  6931  6943       L1     4  0.78
      P1  H  6934  6947       L1     3  0.25

> <Gold.Chemscore.Hbond.Weighted>
-7.8250

> <Gold.Chemscore.Metal.Weighted>
-0.0000

> <Gold.Chemscore.Lipo.Weighted>
-9.0809

> <Gold.Chemscore.Internal_Hbond.Weighted>
0.0000

> <Gold.Chemscore.DEClash.Weighted>
0.0089

> <Gold.Chemscore.DEInternal.Weighted>
1.2642

> <Gold.Chemscore.Rot.Weighted>
4.8613

> <Gold.Chemscore.Internal.Correction.Weighted>
   9.000000E+99

> <Gold.Protein.RotatedTorsions>
[ 6907 6896 6895 6894 ] final   84.81 input  -60.11 | X-H torsion
[ 7974 7965 7964 7962 ] final  139.27 input  175.53 | X-H torsion
[ 8008 7997 7996 7995 ] final   18.97 input   59.86 | X-H torsion
[ 10167 10162 10161 10158 ] final   45.60 input  -65.29 | X-H torsion
[ 10718 10713 10712 10709 ] final -138.00 input   66.30 | X-H torsion
[ 10763 10752 10751 10750 ] final  152.55 input  -60.55 | X-H torsion
[ 11005 11000 10999 10996 ] final   27.57 input  -57.11 | X-H torsion

> <Gold.Protein.ActiveResidues>
 VAL166  LYS551  ARG553  GLY616  TRP617  ASP618  TYR619  PRO620  LYS621  CYS622 
 ASP623  PHE694  ASN695  SER759  ASP760  ASP761  ALA762  ILE779  LEU786  VAL792 
 PHE793  MET794  SER795  GLU796  ALA797  LYS798  CYS799  TRP800  GLU811  SER814 

> <Gold.Protein.RotatedAtoms>
  152.5361  134.2683  159.8961 H   0  0  0  0  0  0  0  0  0  0  0  0  # atno 6907 bound_to 6896
  151.2640  133.4281  159.2625 H   0  0  0  0  0  0  0  0  0  0  0  0  # atno 6908 bound_to 6896
  151.0427  134.9633  159.8226 H   0  0  0  0  0  0  0  0  0  0  0  0  # atno 6909 bound_to 6896
  144.9294  139.5066  143.5625 H   0  0  0  0  0  0  0  0  0  0  0  0  # atno 7974 bound_to 7965
  154.9139  140.3018  155.5252 H   0  0  0  0  0  0  0  0  0  0  0  0  # atno 8008 bound_to 7997
  156.3013  140.2384  156.4117 H   0  0  0  0  0  0  0  0  0  0  0  0  # atno 8009 bound_to 7997
  154.8398  140.0414  157.1522 H   0  0  0  0  0  0  0  0  0  0  0  0  # atno 8010 bound_to 7997
  140.3225  144.2688  150.6180 H   0  0  0  0  0  0  0  0  0  0  0  0  # atno 10167 bound_to 10162
  156.2944  130.7393  151.1428 H   0  0  0  0  0  0  0  0  0  0  0  0  # atno 10718 bound_to 10713
  154.1219  135.2832  155.3206 H   0  0  0  0  0  0  0  0  0  0  0  0  # atno 10763 bound_to 10752
  154.6417  135.5400  153.7800 H   0  0  0  0  0  0  0  0  0  0  0  0  # atno 10764 bound_to 10752
  153.0310  135.6488  154.1373 H   0  0  0  0  0  0  0  0  0  0  0  0  # atno 10765 bound_to 10752
  140.3249  134.2502  155.7711 H   0  0  0  0  0  0  0  0  0  0  0  0  # atno 11005 bound_to 11000
  146.3240  139.8233  142.8922 LP  0  0  0  0  0  0  0  0  0  0  0  0  # atno 17320 bound_to 7965
  145.3167  141.0233  143.3524 LP  0  0  0  0  0  0  0  0  0  0  0  0  # atno 17321 bound_to 7965
  140.5471  143.2213  151.7989 LP  0  0  0  0  0  0  0  0  0  0  0  0  # atno 17342 bound_to 10162
  139.4871  144.4525  151.9637 LP  0  0  0  0  0  0  0  0  0  0  0  0  # atno 17343 bound_to 10162
  157.7351  131.0575  150.5486 LP  0  0  0  0  0  0  0  0  0  0  0  0  # atno 17370 bound_to 10713
  156.5607  130.4255  149.6064 LP  0  0  0  0  0  0  0  0  0  0  0  0  # atno 17371 bound_to 10713
  141.2078  133.7796  157.0099 LP  0  0  0  0  0  0  0  0  0  0  0  0  # atno 17394 bound_to 11000
  140.0910  134.9592  157.1776 LP  0  0  0  0  0  0  0  0  0  0  0  0  # atno 17395 bound_to 11000

$$$$
