AV-unprocessed.smi:1809|AV-procd|sdf|7313|dock7
  -GOLD-   22720 8573D 1   1.00000     0.00000
 Structure written by MMmdl.
 40 42  0  0  0  0  0  0  0  0  2 V2000
  136.7803  141.3738  153.3194 C   0  0  0  0  0  0  0  0  0  0  0  0
  138.1955  140.9510  153.5181 C   0  0  0  0  0  0  0  0  0  0  0  0
  139.1444  141.7862  153.9585 N   0  0  0  0  0  0  0  0  0  0  0  0
  140.3818  141.1669  154.0662 N   0  0  0  0  0  0  0  0  0  0  0  0
  140.3291  139.8781  153.7030 C   0  0  0  0  0  0  0  0  0  0  0  0
  141.4503  139.0068  153.7224 N   0  0  0  0  0  0  0  0  0  0  0  0
  141.4622  137.6644  153.6482 C   0  0  0  0  0  0  0  0  0  0  0  0
  140.4649  136.9458  153.5759 O   0  0  0  0  0  0  0  0  0  0  0  0
  142.7152  137.1870  153.6572 N   0  0  0  0  0  0  0  0  0  0  0  0
  143.0795  135.7735  153.6141 C   0  0  0  0  0  0  0  0  0  0  0  0
  143.2376  135.2442  152.1757 C   0  0  2  0  0  0  0  0  0  0  0  0
  143.2433  133.7062  152.0790 C   0  0  0  0  0  0  0  0  0  0  0  0
  143.4881  133.2410  150.6906 N   0  3  2  0  0  0  0  0  0  0  0  0
  143.8038  131.7968  150.6333 C   0  0  0  0  0  0  0  0  0  0  0  0
  145.3389  131.6835  150.5976 C   0  0  0  0  0  0  0  0  0  0  0  0
  145.8594  133.1220  150.4892 C   0  0  0  0  0  0  0  0  0  0  0  0
  144.6323  133.9177  150.0435 C   0  0  2  0  0  0  0  0  0  0  0  0
  144.6734  135.4343  150.3142 C   0  0  0  0  0  0  0  0  0  0  0  0
  144.4908  135.7128  151.6945 O   0  0  0  0  0  0  0  0  0  0  0  0
  138.7461  139.3102  153.2001 S   0  0  0  0  0  0  0  0  0  0  0  0
  136.7345  142.4218  153.0217 H   0  0  0  0  0  0  0  0  0  0  0  0
  136.2208  141.2468  154.2462 H   0  0  0  0  0  0  0  0  0  0  0  0
  136.3120  140.7707  152.5413 H   0  0  0  0  0  0  0  0  0  0  0  0
  142.3487  139.4609  153.7972 H   0  0  0  0  0  0  0  0  0  0  0  0
  143.4752  137.8489  153.7197 H   0  0  0  0  0  0  0  0  0  0  0  0
  144.0283  135.6694  154.1413 H   0  0  0  0  0  0  0  0  0  0  0  0
  142.3603  135.1674  154.1679 H   0  0  0  0  0  0  0  0  0  0  0  0
  142.4346  135.6552  151.5606 H   0  0  0  0  0  0  0  0  0  0  0  0
  144.0101  133.3066  152.7451 H   0  0  0  0  0  0  0  0  0  0  0  0
  142.2901  133.2944  152.4107 H   0  0  0  0  0  0  0  0  0  0  0  0
  143.3607  131.2371  151.4588 H   0  0  0  0  0  0  0  0  0  0  0  0
  143.3866  131.3930  149.7100 H   0  0  0  0  0  0  0  0  0  0  0  0
  145.7263  131.1975  151.4937 H   0  0  0  0  0  0  0  0  0  0  0  0
  145.6535  131.0889  149.7391 H   0  0  0  0  0  0  0  0  0  0  0  0
  146.1988  133.4670  151.4672 H   0  0  0  0  0  0  0  0  0  0  0  0
  146.6954  133.2168  149.7953 H   0  0  0  0  0  0  0  0  0  0  0  0
  144.5234  133.7697  148.9675 H   0  0  0  0  0  0  0  0  0  0  0  0
  145.6263  135.8509  149.9872 H   0  0  0  0  0  0  0  0  0  0  0  0
  143.8982  135.9425  149.7384 H   0  0  0  0  0  0  0  0  0  0  0  0
  142.6515  133.4273  150.1560 H   0  0  0  0  0  0  0  0  0  0  0  0
  1  2  1  0  0  0  0
  1 21  1  0  0  0  0
  1 22  1  0  0  0  0
  1 23  1  0  0  0  0
  2 20  1  0  0  0  0
  2  3  2  0  0  0  0
  3  4  1  0  0  0  0
  4  5  2  0  0  0  0
  5  6  1  0  0  0  0
  5 20  1  0  0  0  0
  6  7  1  0  0  0  0
  6 24  1  0  0  0  0
  7  8  2  0  0  0  0
  7  9  1  0  0  0  0
  9 10  1  0  0  0  0
  9 25  1  0  0  0  0
 10 11  1  0  0  0  0
 10 26  1  0  0  0  0
 10 27  1  0  0  0  0
 11 19  1  0  0  0  0
 11 12  1  0  0  0  0
 11 28  1  0  0  0  0
 12 13  1  0  0  0  0
 12 29  1  0  0  0  0
 12 30  1  0  0  0  0
 13 17  1  0  0  0  0
 13 14  1  0  0  0  0
 13 40  1  0  0  0  0
 14 15  1  0  0  0  0
 14 31  1  0  0  0  0
 14 32  1  0  0  0  0
 15 16  1  0  0  0  0
 15 33  1  0  0  0  0
 15 34  1  0  0  0  0
 16 17  1  0  0  0  0
 16 35  1  0  0  0  0
 16 36  1  0  0  0  0
 17 18  1  0  0  0  0
 17 37  1  0  0  0  0
 18 19  1  0  0  0  0
 18 38  1  0  0  0  0
 18 39  1  0  0  0  0
M  CHG  1  13   1
M  END
> <s_m_source_file>
AV-unprocessed.smi

> <i_m_source_file_index>
1809

> <i_lp_mmshare_version>
43012

> <i_f3d_flags>
0

> <s_epik_input>
W0NIM11jMW5uYyhzMSlbTkhdQyg9TylbTkhdW0NIMl1bQ0BIXShbQ0gyXTIpT1tDSDJdW0NAQEhdKE4yMylbQ0gyXVtDSDJdW0NIMl0z

> <s_epik_cmdline>
J2VwaWtfcHl0aG9uJywgJy1waCcsICc3LjAnLCAnLXRuJywgJzgnLCAnLW1hJywgJzIwMCcsICctbWV0YWxfYmluZGluZycsICctaW1hZScsICc8aW5maWxlLm1hZT4nLCAnLW9tYWUnLCAnPG91dGZpbGUubWFlPic=

> <r_lp_tautomer_probability>
1

> <r_epik_Ionization_Penalty>
0.112474

> <r_epik_Ionization_Penalty_Charging>
0.108916

> <r_epik_Ionization_Penalty_Neutral>
0.00355844

> <r_epik_State_Penalty>
0.0565397

> <r_epik_Charging_Adjusted_Penalty>
0.165456

> <i_epik_Tot_Q>
1

> <i_epik_Tot_abs_Q>
1

> <r_epik_Metal_State_Penalty>
0.422831

> <b_epik_Metal_Only>
0

> <s_lp_Force_Field>
OPLS_2005

> <r_lp_Energy>
35.4297

> <b_lp_Chiralities_Consistent>
1

> <s_lp_Variant>
AV-unprocessed.smi:1809-5

> <Gold.Version>
5.8.1

> <Gold.Id.Protein>
6NUR|6NUR_protein|mol2

> <Gold.PLP.Fitness>
39.5938

> <Gold.PLP.PLP>
-32.3636

> <Gold.PLP.part.hbond>
-2.0000

> <Gold.PLP.part.metal>
0.0000

> <Gold.PLP.part.buried>
-1.3670

> <Gold.PLP.part.nonpolar>
-28.7564

> <Gold.PLP.part.repulsive>
0.7085

> <Gold.PLP.ligand.clash>
0.0000

> <Gold.PLP.ligand.torsion>
0.3633

> <Gold.PLP.Chemscore.Hbond>
2.6521

> <Gold.PLP.Chemscore.CHOScore>
0.0000

> <Gold.PLP.Chemscore.Metal>
0.0000

> <Gold.Chemscore.Hbonds>
donor molecule, donor type, donor heavy atom, donor atom, acceptor molecule, acceptor atom, score
      L1  H     6    24       P1 10175  0.65
      L1  H    13    40       P1 10186  2.00

> <Gold.PLP.Chemscore.Internal.Correction>
0.0006

> <Gold.Rescore>
     Score         DG    S(hbond)    S(metal)    S(lipo)     H(rot)  DE(clash)    DE(int)     intcor
     16.13     -17.75       1.95        0.00      78.61       1.34       0.20       1.42       ----

> <Gold.Chemscore.Fitness>
16.1339

> <Gold.Chemscore.DG>
-17.7538

> <Gold.Chemscore.ZeroCoef>
-5.4800

> <Gold.Chemscore.Hbond>
1.9476

> <Gold.Chemscore.Metal>
0.0000

> <Gold.Chemscore.Lipo>
78.6060

> <Gold.Chemscore.Internal_Hbond>
0.0000

> <Gold.Chemscore.DEClash>
0.2039

> <Gold.Chemscore.DEInternal>
1.4160

> <Gold.Chemscore.Rot>
1.3391

> <Gold.Chemscore.Internal.Correction>
   9.000000E+99

> <Gold.Chemscore.Hbonds>
donor molecule, donor type, donor heavy atom, donor atom, acceptor molecule, acceptor atom, score
      L1  H     6    24       P1 10175  0.62
      L1  H    13    40       P1 10186  0.94

> <Gold.Chemscore.Hbond.Weighted>
-6.5049

> <Gold.Chemscore.Metal.Weighted>
-0.0000

> <Gold.Chemscore.Lipo.Weighted>
-9.1969

> <Gold.Chemscore.Internal_Hbond.Weighted>
0.0000

> <Gold.Chemscore.DEClash.Weighted>
0.2039

> <Gold.Chemscore.DEInternal.Weighted>
1.4160

> <Gold.Chemscore.Rot.Weighted>
3.4281

> <Gold.Chemscore.Internal.Correction.Weighted>
   9.000000E+99

> <Gold.Protein.RotatedTorsions>
[ 6907 6896 6895 6894 ] final -140.59 input  -60.11 | X-H torsion
[ 7974 7965 7964 7962 ] final   47.95 input  175.53 | X-H torsion
[ 8008 7997 7996 7995 ] final  166.07 input   59.86 | X-H torsion
[ 10167 10162 10161 10158 ] final   17.85 input  -65.29 | X-H torsion
[ 10718 10713 10712 10709 ] final -145.73 input   66.30 | X-H torsion
[ 10763 10752 10751 10750 ] final -156.99 input  -60.55 | X-H torsion
[ 11005 11000 10999 10996 ] final   80.50 input  -57.11 | X-H torsion

> <Gold.Protein.ActiveResidues>
 VAL166  LYS551  ARG553  GLY616  TRP617  ASP618  TYR619  PRO620  LYS621  CYS622 
 ASP623  PHE694  ASN695  SER759  ASP760  ASP761  ALA762  ILE779  LEU786  VAL792 
 PHE793  MET794  SER795  GLU796  ALA797  LYS798  CYS799  TRP800  GLU811  SER814 

> <Gold.Protein.RotatedAtoms>
  151.0627  133.5531  159.2632 H   0  0  0  0  0  0  0  0  0  0  0  0  # atno 6907 bound_to 6896
  151.2500  135.0618  159.9068 H   0  0  0  0  0  0  0  0  0  0  0  0  # atno 6908 bound_to 6896
  152.5400  134.0388  159.8112 H   0  0  0  0  0  0  0  0  0  0  0  0  # atno 6909 bound_to 6896
  146.0250  139.4695  142.9873 H   0  0  0  0  0  0  0  0  0  0  0  0  # atno 7974 bound_to 7965
  156.1749  140.1653  156.8381 H   0  0  0  0  0  0  0  0  0  0  0  0  # atno 8008 bound_to 7997
  154.5296  140.0760  156.8355 H   0  0  0  0  0  0  0  0  0  0  0  0  # atno 8009 bound_to 7997
  155.3434  140.3386  155.4241 H   0  0  0  0  0  0  0  0  0  0  0  0  # atno 8010 bound_to 7997
  140.5696  143.9186  150.6702 H   0  0  0  0  0  0  0  0  0  0  0  0  # atno 10167 bound_to 10162
  156.3861  130.7862  151.2059 H   0  0  0  0  0  0  0  0  0  0  0  0  # atno 10718 bound_to 10713
  154.7670  135.3134  154.8266 H   0  0  0  0  0  0  0  0  0  0  0  0  # atno 10763 bound_to 10752
  153.9011  135.6815  153.4759 H   0  0  0  0  0  0  0  0  0  0  0  0  # atno 10764 bound_to 10752
  153.1278  135.4794  154.9233 H   0  0  0  0  0  0  0  0  0  0  0  0  # atno 10765 bound_to 10752
  139.9132  134.7925  156.1918 H   0  0  0  0  0  0  0  0  0  0  0  0  # atno 11005 bound_to 11000
  145.7133  141.0099  143.1442 LP  0  0  0  0  0  0  0  0  0  0  0  0  # atno 17320 bound_to 7965
  144.7005  139.8783  143.7445 LP  0  0  0  0  0  0  0  0  0  0  0  0  # atno 17321 bound_to 7965
  140.2658  143.3491  152.1282 LP  0  0  0  0  0  0  0  0  0  0  0  0  # atno 17342 bound_to 10162
  139.5110  144.6894  151.5800 LP  0  0  0  0  0  0  0  0  0  0  0  0  # atno 17343 bound_to 10162
  157.7496  131.0329  150.4249 LP  0  0  0  0  0  0  0  0  0  0  0  0  # atno 17370 bound_to 10713
  156.4502  130.4010  149.6641 LP  0  0  0  0  0  0  0  0  0  0  0  0  # atno 17371 bound_to 10713
  141.0579  133.6856  156.1896 LP  0  0  0  0  0  0  0  0  0  0  0  0  # atno 17394 bound_to 11000
  140.6708  134.4870  157.5587 LP  0  0  0  0  0  0  0  0  0  0  0  0  # atno 17395 bound_to 11000

$$$$
