AV-unprocessed.smi:148|AV-procd|sdf|1215|dock2
  -GOLD-   2262018393D 1   1.00000     0.00000
 Structure written by MMmdl.
 63 67  0  0  0  0  0  0  0  0  1 V2000
  148.8524  133.5611  153.4432 O   0  0  0  0  0  0  0  0  0  0  0  0
  147.6763  132.7913  153.5826 C   0  0  0  0  0  0  0  0  0  0  0  0
  146.4243  133.6492  153.2845 C   0  0  1  0  0  0  0  0  0  0  0  0
  146.5729  135.0563  153.9158 C   0  0  0  0  0  0  0  0  0  0  0  0
  146.4830  135.0516  155.3654 N   0  0  0  0  0  0  0  0  0  0  0  0
  145.4402  135.5230  156.1302 C   0  0  0  0  0  0  0  0  0  0  0  0
  145.5966  135.3973  157.4197 N   0  0  0  0  0  0  0  0  0  0  0  0
  146.8472  134.8061  157.5547 C   0  0  0  0  0  0  0  0  0  0  0  0
  147.6397  134.3885  158.6622 C   0  0  0  0  0  0  0  0  0  0  0  0
  147.2770  134.4934  159.9616 N   0  0  0  0  0  0  0  0  0  0  0  0
  147.3940  135.8901  160.3840 C   0  0  0  0  0  0  0  0  0  0  0  0
  146.7829  136.1157  161.7727 C   0  0  0  0  0  0  0  0  0  0  0  0
  147.4082  135.1580  162.7914 C   0  0  0  0  0  0  0  0  0  0  0  0
  147.2330  133.7104  162.3156 C   0  0  0  0  0  0  0  0  0  0  0  0
  147.8311  133.4976  160.8980 C   0  0  1  0  0  0  0  0  0  0  0  0
  147.6983  132.0251  160.3930 C   0  0  1  0  0  0  0  0  0  0  0  0
  148.2414  130.9804  161.3918 C   0  0  0  0  0  0  0  0  0  0  0  0
  147.0411  130.1364  161.8222 C   0  0  0  0  0  0  0  0  0  0  0  0
  146.1365  130.1371  160.5949 C   0  0  0  0  0  0  0  0  0  0  0  0
  146.2600  131.5619  160.0487 C   0  0  2  0  0  0  0  0  0  0  0  0
  146.0069  131.5820  158.6591 O   0  0  0  0  0  0  0  0  0  0  0  0
  148.8377  133.8086  158.4030 N   0  0  0  0  0  0  0  0  0  0  0  0
  149.2531  133.6663  157.1406 C   0  0  0  0  0  0  0  0  0  0  0  0
  148.6321  134.0174  156.0125 N   0  0  0  0  0  0  0  0  0  0  0  0
  147.4186  134.5838  156.2704 C   0  0  0  0  0  0  0  0  0  0  0  0
  146.0586  133.7072  151.7746 C   0  0  2  0  0  0  0  0  0  0  0  0
  144.7699  134.4566  151.4322 C   0  0  0  0  0  0  0  0  0  0  0  0
  144.0349  133.5199  150.4721 C   0  0  0  0  0  0  0  0  0  0  0  0
  145.0481  132.6592  149.9763 O   0  0  0  0  0  0  0  0  0  0  0  0
  145.8914  132.3537  151.0736 C   0  0  0  0  0  0  0  0  0  0  0  0
  148.6233  134.3956  153.0633 H   0  0  0  0  0  0  0  0  0  0  0  0
  147.7361  131.9353  152.9101 H   0  0  0  0  0  0  0  0  0  0  0  0
  147.6624  132.3957  154.5971 H   0  0  0  0  0  0  0  0  0  0  0  0
  145.5797  133.1628  153.7755 H   0  0  0  0  0  0  0  0  0  0  0  0
  147.5331  135.4974  153.6461 H   0  0  0  0  0  0  0  0  0  0  0  0
  145.8060  135.7264  153.5252 H   0  0  0  0  0  0  0  0  0  0  0  0
  144.5496  135.9568  155.6992 H   0  0  0  0  0  0  0  0  0  0  0  0
  148.4474  136.1750  160.3960 H   0  0  0  0  0  0  0  0  0  0  0  0
  146.8985  136.5423  159.6629 H   0  0  0  0  0  0  0  0  0  0  0  0
  146.9362  137.1491  162.0847 H   0  0  0  0  0  0  0  0  0  0  0  0
  145.7043  135.9584  161.7299 H   0  0  0  0  0  0  0  0  0  0  0  0
  148.4686  135.3833  162.9120 H   0  0  0  0  0  0  0  0  0  0  0  0
  146.9446  135.2925  163.7690 H   0  0  0  0  0  0  0  0  0  0  0  0
  147.7003  133.0452  163.0405 H   0  0  0  0  0  0  0  0  0  0  0  0
  146.1701  133.4743  162.3292 H   0  0  0  0  0  0  0  0  0  0  0  0
  148.8971  133.7081  160.9848 H   0  0  0  0  0  0  0  0  0  0  0  0
  148.3178  131.9080  159.5029 H   0  0  0  0  0  0  0  0  0  0  0  0
  148.9596  130.3373  160.8810 H   0  0  0  0  0  0  0  0  0  0  0  0
  148.7689  131.4152  162.2409 H   0  0  0  0  0  0  0  0  0  0  0  0
  147.3251  129.1311  162.1351 H   0  0  0  0  0  0  0  0  0  0  0  0
  146.5302  130.6161  162.6582 H   0  0  0  0  0  0  0  0  0  0  0  0
  146.5164  129.4154  159.8694 H   0  0  0  0  0  0  0  0  0  0  0  0
  145.1070  129.8643  160.8282 H   0  0  0  0  0  0  0  0  0  0  0  0
  145.5144  132.1891  160.5334 H   0  0  0  0  0  0  0  0  0  0  0  0
  145.9607  132.4832  158.3759 H   0  0  0  0  0  0  0  0  0  0  0  0
  150.2206  133.2025  157.0165 H   0  0  0  0  0  0  0  0  0  0  0  0
  146.8470  134.2418  151.2439 H   0  0  0  0  0  0  0  0  0  0  0  0
  144.1551  134.7018  152.2978 H   0  0  0  0  0  0  0  0  0  0  0  0
  145.0106  135.3976  150.9356 H   0  0  0  0  0  0  0  0  0  0  0  0
  143.2907  132.9278  151.0072 H   0  0  0  0  0  0  0  0  0  0  0  0
  143.5314  134.0536  149.6657 H   0  0  0  0  0  0  0  0  0  0  0  0
  146.8409  131.9325  150.7428 H   0  0  0  0  0  0  0  0  0  0  0  0
  145.3929  131.6169  151.7036 H   0  0  0  0  0  0  0  0  0  0  0  0
  1  2  1  0  0  0  0
  1 31  1  0  0  0  0
  2  3  1  0  0  0  0
  2 32  1  0  0  0  0
  2 33  1  0  0  0  0
  3  4  1  0  0  0  0
  3 26  1  0  0  0  0
  3 34  1  0  0  0  0
  4  5  1  0  0  0  0
  4 35  1  0  0  0  0
  4 36  1  0  0  0  0
  5 25  1  0  0  0  0
  5  6  1  0  0  0  0
  6  7  2  0  0  0  0
  6 37  1  0  0  0  0
  7  8  1  0  0  0  0
  8 25  2  0  0  0  0
  8  9  1  0  0  0  0
  9 10  1  0  0  0  0
  9 22  2  0  0  0  0
 10 15  1  0  0  0  0
 10 11  1  0  0  0  0
 11 12  1  0  0  0  0
 11 38  1  0  0  0  0
 11 39  1  0  0  0  0
 12 13  1  0  0  0  0
 12 40  1  0  0  0  0
 12 41  1  0  0  0  0
 13 14  1  0  0  0  0
 13 42  1  0  0  0  0
 13 43  1  0  0  0  0
 14 15  1  0  0  0  0
 14 44  1  0  0  0  0
 14 45  1  0  0  0  0
 15 16  1  0  0  0  0
 15 46  1  0  0  0  0
 16 20  1  0  0  0  0
 16 17  1  0  0  0  0
 16 47  1  0  0  0  0
 17 18  1  0  0  0  0
 17 48  1  0  0  0  0
 17 49  1  0  0  0  0
 18 19  1  0  0  0  0
 18 50  1  0  0  0  0
 18 51  1  0  0  0  0
 19 20  1  0  0  0  0
 19 52  1  0  0  0  0
 19 53  1  0  0  0  0
 20 21  1  0  0  0  0
 20 54  1  0  0  0  0
 21 55  1  0  0  0  0
 22 23  1  0  0  0  0
 23 24  2  0  0  0  0
 23 56  1  0  0  0  0
 24 25  1  0  0  0  0
 26 30  1  0  0  0  0
 26 27  1  0  0  0  0
 26 57  1  0  0  0  0
 27 28  1  0  0  0  0
 27 58  1  0  0  0  0
 27 59  1  0  0  0  0
 28 29  1  0  0  0  0
 28 60  1  0  0  0  0
 28 61  1  0  0  0  0
 29 30  1  0  0  0  0
 30 62  1  0  0  0  0
 30 63  1  0  0  0  0
M  END
> <s_m_source_file>
AV-unprocessed.smi

> <i_m_source_file_index>
148

> <i_lp_mmshare_version>
43012

> <i_f3d_flags>
0

> <s_epik_input>
W0NIMl0xT1tDSDJdW0NIMl1bQ0BIXTFbQ0BIXShbQ0gyXVtPSF0pW0NIMl1uKFtjSF1uMiljKGMyMyluW2NIXW5jM040W0NIMl1bQ0gyXVtDSDJdW0NIMl1bQ0BIXTRbQ0BASF01W0NIMl1bQ0gyXVtDSDJdW0NASF01W09IXQ==

> <s_epik_cmdline>
J2VwaWtfcHl0aG9uJywgJy1waCcsICc3LjAnLCAnLXRuJywgJzgnLCAnLW1hJywgJzIwMCcsICctbWV0YWxfYmluZGluZycsICctaW1hZScsICc8aW5maWxlLm1hZT4nLCAnLW9tYWUnLCAnPG91dGZpbGUubWFlPic=

> <r_lp_tautomer_probability>
1

> <r_epik_Ionization_Penalty>
0.00556303

> <r_epik_Ionization_Penalty_Charging>
0

> <r_epik_Ionization_Penalty_Neutral>
0.00556303

> <r_epik_State_Penalty>
0.00401767

> <r_epik_Charging_Adjusted_Penalty>
0.00401767

> <i_epik_Tot_Q>
0

> <i_epik_Tot_abs_Q>
0

> <r_epik_Metal_State_Penalty>
-0

> <b_epik_Metal_Only>
0

> <s_lp_Force_Field>
OPLS_2005

> <r_lp_Energy>
68.8828

> <b_lp_Chiralities_Consistent>
1

> <s_lp_Variant>
AV-unprocessed.smi:148-14

> <Gold.Version>
5.8.1

> <Gold.Id.Protein>
6NUR|6NUR_protein|mol2

> <Gold.PLP.Fitness>
40.5869

> <Gold.PLP.PLP>
-35.9302

> <Gold.PLP.part.hbond>
-2.0000

> <Gold.PLP.part.metal>
0.0000

> <Gold.PLP.part.buried>
-5.0773

> <Gold.PLP.part.nonpolar>
-29.1373

> <Gold.PLP.part.repulsive>
0.1684

> <Gold.PLP.ligand.clash>
0.0000

> <Gold.PLP.ligand.torsion>
1.0767

> <Gold.PLP.Chemscore.Hbond>
2.0000

> <Gold.PLP.Chemscore.CHOScore>
0.0000

> <Gold.PLP.Chemscore.Metal>
0.0000

> <Gold.Chemscore.Hbonds>
donor molecule, donor type, donor heavy atom, donor atom, acceptor molecule, acceptor atom, score
      L1  H     1    31       P1  7948  0.55
      P1  H  6896  6908       L1    22  0.83

> <Gold.PLP.Chemscore.Internal.Correction>
0.8102

> <Gold.Rescore>
     Score         DG    S(hbond)    S(metal)    S(lipo)     H(rot)  DE(clash)    DE(int)     intcor
      5.64     -10.82       0.86        0.00      93.82       3.32       0.11       5.07       ----

> <Gold.Chemscore.Fitness>
5.6379

> <Gold.Chemscore.DG>
-10.8206

> <Gold.Chemscore.ZeroCoef>
-5.4800

> <Gold.Chemscore.Hbond>
0.8574

> <Gold.Chemscore.Metal>
0.0000

> <Gold.Chemscore.Lipo>
93.8199

> <Gold.Chemscore.Internal_Hbond>
0.0000

> <Gold.Chemscore.DEClash>
0.1139

> <Gold.Chemscore.DEInternal>
5.0688

> <Gold.Chemscore.Rot>
3.3203

> <Gold.Chemscore.Internal.Correction>
   9.000000E+99

> <Gold.Chemscore.Hbonds>
donor molecule, donor type, donor heavy atom, donor atom, acceptor molecule, acceptor atom, score
      L1  H     1    31       P1  7948  0.09
      P1  H  6896  6908       L1    22  0.28

> <Gold.Chemscore.Hbond.Weighted>
-2.8637

> <Gold.Chemscore.Metal.Weighted>
-0.0000

> <Gold.Chemscore.Lipo.Weighted>
-10.9769

> <Gold.Chemscore.Internal_Hbond.Weighted>
0.0000

> <Gold.Chemscore.DEClash.Weighted>
0.1139

> <Gold.Chemscore.DEInternal.Weighted>
5.0688

> <Gold.Chemscore.Rot.Weighted>
8.5000

> <Gold.Chemscore.Internal.Correction.Weighted>
   9.000000E+99

> <Gold.Protein.RotatedTorsions>
[ 6907 6896 6895 6894 ] final  148.81 input  -60.11 | X-H torsion
[ 7974 7965 7964 7962 ] final -125.87 input  175.53 | X-H torsion
[ 8008 7997 7996 7995 ] final  122.48 input   59.86 | X-H torsion
[ 10167 10162 10161 10158 ] final  -95.09 input  -65.29 | X-H torsion
[ 10718 10713 10712 10709 ] final   52.99 input   66.30 | X-H torsion
[ 10763 10752 10751 10750 ] final  -88.94 input  -60.55 | X-H torsion
[ 11005 11000 10999 10996 ] final  112.29 input  -57.11 | X-H torsion

> <Gold.Protein.ActiveResidues>
 VAL166  LYS551  ARG553  GLY616  TRP617  ASP618  TYR619  PRO620  LYS621  CYS622 
 ASP623  PHE694  ASN695  SER759  ASP760  ASP761  ALA762  ILE779  LEU786  VAL792 
 PHE793  MET794  SER795  GLU796  ALA797  LYS798  CYS799  TRP800  GLU811  SER814 

> <Gold.Protein.RotatedAtoms>
  152.1365  133.4438  159.4745 H   0  0  0  0  0  0  0  0  0  0  0  0  # atno 6907 bound_to 6896
  150.6882  134.2357  159.4461 H   0  0  0  0  0  0  0  0  0  0  0  0  # atno 6908 bound_to 6896
  152.0245  134.9803  160.0622 H   0  0  0  0  0  0  0  0  0  0  0  0  # atno 6909 bound_to 6896
  144.9932  140.7751  143.4541 H   0  0  0  0  0  0  0  0  0  0  0  0  # atno 7974 bound_to 7965
  156.2729  140.2785  156.1474 H   0  0  0  0  0  0  0  0  0  0  0  0  # atno 8008 bound_to 7997
  155.0889  140.0388  157.2680 H   0  0  0  0  0  0  0  0  0  0  0  0  # atno 8009 bound_to 7997
  154.6905  140.2628  155.6823 H   0  0  0  0  0  0  0  0  0  0  0  0  # atno 8010 bound_to 7997
  140.3078  143.3123  152.0181 H   0  0  0  0  0  0  0  0  0  0  0  0  # atno 10167 bound_to 10162
  157.5126  130.8511  149.8455 H   0  0  0  0  0  0  0  0  0  0  0  0  # atno 10718 bound_to 10713
  154.6499  135.5359  153.7889 H   0  0  0  0  0  0  0  0  0  0  0  0  # atno 10763 bound_to 10752
  153.0380  135.6480  154.1032 H   0  0  0  0  0  0  0  0  0  0  0  0  # atno 10764 bound_to 10752
  154.0950  135.2937  155.3243 H   0  0  0  0  0  0  0  0  0  0  0  0  # atno 10765 bound_to 10752
  139.8924  134.9527  156.6564 H   0  0  0  0  0  0  0  0  0  0  0  0  # atno 11005 bound_to 11000
  145.2257  139.2138  143.5069 LP  0  0  0  0  0  0  0  0  0  0  0  0  # atno 17320 bound_to 7965
  146.3436  140.2124  142.8590 LP  0  0  0  0  0  0  0  0  0  0  0  0  # atno 17321 bound_to 7965
  139.4900  144.6408  151.6882 LP  0  0  0  0  0  0  0  0  0  0  0  0  # atno 17342 bound_to 10162
  140.5595  144.0292  150.6163 LP  0  0  0  0  0  0  0  0  0  0  0  0  # atno 17343 bound_to 10162
  156.0299  130.3768  150.1717 LP  0  0  0  0  0  0  0  0  0  0  0  0  # atno 17370 bound_to 10713
  156.9906  130.9892  151.3415 LP  0  0  0  0  0  0  0  0  0  0  0  0  # atno 17371 bound_to 10713
  140.7481  133.8920  155.8327 LP  0  0  0  0  0  0  0  0  0  0  0  0  # atno 17394 bound_to 11000
  141.0023  134.1133  157.4305 LP  0  0  0  0  0  0  0  0  0  0  0  0  # atno 17395 bound_to 11000

$$$$
