AV-unprocessed.smi:266|AV-procd|sdf|2034|dock4
  -GOLD-   2262021243D 1   1.00000     0.00000
 Structure written by MMmdl.
 52 55  0  0  0  0  0  0  0  0  1 V2000
  145.7855  134.4267  153.9685 C   0  0  0  0  0  0  0  0  0  0  0  0
  146.1428  134.6545  152.4913 C   0  0  1  0  0  0  0  0  0  0  0  0
  146.0204  133.4021  151.8217 O   0  0  0  0  0  0  0  0  0  0  0  0
  145.6302  133.6345  150.4798 C   0  0  0  0  0  0  0  0  0  0  0  0
  144.6203  134.7625  150.6237 C   0  0  0  0  0  0  0  0  0  0  0  0
  145.2461  135.6477  151.6981 C   0  0  2  0  0  0  0  0  0  0  0  0
  146.1027  136.5745  151.0507 O   0  0  0  0  0  0  0  0  0  0  0  0
  144.2083  136.4528  152.5240 C   0  0  0  0  0  0  0  0  0  0  0  0
  144.7760  137.0988  153.6985 N   0  0  0  0  0  0  0  0  0  0  0  0
  144.4136  136.8903  155.0081 C   0  0  0  0  0  0  0  0  0  0  0  0
  145.0743  137.5950  155.8837 N   0  0  0  0  0  0  0  0  0  0  0  0
  145.9595  138.3595  155.1287 C   0  0  0  0  0  0  0  0  0  0  0  0
  146.9622  139.3356  155.4308 C   0  0  0  0  0  0  0  0  0  0  0  0
  147.2910  139.7657  156.6859 N   0  0  0  0  0  0  0  0  0  0  0  0
  146.2876  139.7754  157.7439 C   0  0  0  0  0  0  0  0  0  0  0  0
  148.5643  140.4500  156.9309 C   0  0  0  0  0  0  0  0  0  0  0  0
  149.7829  139.5064  156.8622 C   0  0  2  0  0  0  0  0  0  0  0  0
  150.9761  140.0488  157.6725 C   0  0  0  0  0  0  0  0  0  0  0  0
  152.2143  139.2089  157.3444 C   0  0  0  0  0  0  0  0  0  0  0  0
  152.0401  138.7468  155.5816 S   0  0  0  0  0  0  0  0  0  0  0  0
  152.8592  139.6465  154.7552 O   0  0  0  0  0  0  0  0  0  0  0  0
  152.1567  137.2864  155.4550 O   0  0  0  0  0  0  0  0  0  0  0  0
  150.2805  139.2388  155.4312 C   0  0  0  0  0  0  0  0  0  0  0  0
  147.6339  139.8625  154.3706 N   0  0  0  0  0  0  0  0  0  0  0  0
  147.3572  139.4858  153.1204 C   0  0  0  0  0  0  0  0  0  0  0  0
  146.4557  138.6007  152.6992 N   0  0  0  0  0  0  0  0  0  0  0  0
  145.7761  138.0547  153.7465 C   0  0  0  0  0  0  0  0  0  0  0  0
  145.8675  135.3476  154.5461 H   0  0  0  0  0  0  0  0  0  0  0  0
  146.4615  133.6995  154.4186 H   0  0  0  0  0  0  0  0  0  0  0  0
  144.7719  134.0407  154.0802 H   0  0  0  0  0  0  0  0  0  0  0  0
  147.1898  134.9583  152.4343 H   0  0  0  0  0  0  0  0  0  0  0  0
  146.4935  133.9493  149.8914 H   0  0  0  0  0  0  0  0  0  0  0  0
  145.2043  132.7411  150.0232 H   0  0  0  0  0  0  0  0  0  0  0  0
  144.4157  135.2812  149.6860 H   0  0  0  0  0  0  0  0  0  0  0  0
  143.6803  134.3426  150.9835 H   0  0  0  0  0  0  0  0  0  0  0  0
  146.9967  136.3570  151.2659 H   0  0  0  0  0  0  0  0  0  0  0  0
  143.7500  137.2281  151.9099 H   0  0  0  0  0  0  0  0  0  0  0  0
  143.3975  135.8022  152.8544 H   0  0  0  0  0  0  0  0  0  0  0  0
  143.6423  136.1910  155.2960 H   0  0  0  0  0  0  0  0  0  0  0  0
  145.9610  138.7611  157.9733 H   0  0  0  0  0  0  0  0  0  0  0  0
  145.4219  140.3700  157.4511 H   0  0  0  0  0  0  0  0  0  0  0  0
  146.6868  140.2049  158.6627 H   0  0  0  0  0  0  0  0  0  0  0  0
  148.6829  141.2516  156.2008 H   0  0  0  0  0  0  0  0  0  0  0  0
  148.5342  140.9549  157.8971 H   0  0  0  0  0  0  0  0  0  0  0  0
  149.5146  138.5455  157.3034 H   0  0  0  0  0  0  0  0  0  0  0  0
  151.1654  141.0837  157.3842 H   0  0  0  0  0  0  0  0  0  0  0  0
  150.7698  140.0490  158.7432 H   0  0  0  0  0  0  0  0  0  0  0  0
  153.1505  139.7430  157.5064 H   0  0  0  0  0  0  0  0  0  0  0  0
  152.2264  138.2918  157.9338 H   0  0  0  0  0  0  0  0  0  0  0  0
  149.7150  138.4569  154.9242 H   0  0  0  0  0  0  0  0  0  0  0  0
  150.2422  140.1442  154.8251 H   0  0  0  0  0  0  0  0  0  0  0  0
  147.9429  139.9618  152.3477 H   0  0  0  0  0  0  0  0  0  0  0  0
  1  2  1  0  0  0  0
  1 28  1  0  0  0  0
  1 29  1  0  0  0  0
  1 30  1  0  0  0  0
  2  6  1  0  0  0  0
  2  3  1  0  0  0  0
  2 31  1  0  0  0  0
  3  4  1  0  0  0  0
  4  5  1  0  0  0  0
  4 32  1  0  0  0  0
  4 33  1  0  0  0  0
  5  6  1  0  0  0  0
  5 34  1  0  0  0  0
  5 35  1  0  0  0  0
  6  7  1  0  0  0  0
  6  8  1  0  0  0  0
  7 36  1  0  0  0  0
  8  9  1  0  0  0  0
  8 37  1  0  0  0  0
  8 38  1  0  0  0  0
  9 27  1  0  0  0  0
  9 10  1  0  0  0  0
 10 11  2  0  0  0  0
 10 39  1  0  0  0  0
 11 12  1  0  0  0  0
 12 27  2  0  0  0  0
 12 13  1  0  0  0  0
 13 14  1  0  0  0  0
 13 24  2  0  0  0  0
 14 15  1  0  0  0  0
 14 16  1  0  0  0  0
 15 40  1  0  0  0  0
 15 41  1  0  0  0  0
 15 42  1  0  0  0  0
 16 17  1  0  0  0  0
 16 43  1  0  0  0  0
 16 44  1  0  0  0  0
 17 23  1  0  0  0  0
 17 18  1  0  0  0  0
 17 45  1  0  0  0  0
 18 19  1  0  0  0  0
 18 46  1  0  0  0  0
 18 47  1  0  0  0  0
 19 20  1  0  0  0  0
 19 48  1  0  0  0  0
 19 49  1  0  0  0  0
 20 21  2  0  0  0  0
 20 22  2  0  0  0  0
 20 23  1  0  0  0  0
 23 50  1  0  0  0  0
 23 51  1  0  0  0  0
 24 25  1  0  0  0  0
 25 26  2  0  0  0  0
 25 52  1  0  0  0  0
 26 27  1  0  0  0  0
M  END
> <s_m_source_file>
AV-unprocessed.smi

> <i_m_source_file_index>
266

> <i_lp_mmshare_version>
43012

> <i_f3d_flags>
0

> <s_epik_input>
W0NIMl0xW0NIMl1PW0NAQEhdKFtDSDNdKVtDQEBdMShbT0hdKVtDSDJdbihbY0hdbjIpYyhjMjMpbltjSF1uYzNOKFtDSDNdKVtDSDJdW0NAQEhdKFtDSDJdNClbQ0gyXVtDSDJdUzQoPU8pPU8=

> <s_epik_cmdline>
J2VwaWtfcHl0aG9uJywgJy1waCcsICc3LjAnLCAnLXRuJywgJzgnLCAnLW1hJywgJzIwMCcsICctbWV0YWxfYmluZGluZycsICctaW1hZScsICc8aW5maWxlLm1hZT4nLCAnLW9tYWUnLCAnPG91dGZpbGUubWFlPic=

> <r_lp_tautomer_probability>
1

> <r_epik_Ionization_Penalty>
0.00155497

> <r_epik_Ionization_Penalty_Charging>
0

> <r_epik_Ionization_Penalty_Neutral>
0.00155497

> <r_epik_State_Penalty>
-0

> <r_epik_Charging_Adjusted_Penalty>
0

> <i_epik_Tot_Q>
0

> <i_epik_Tot_abs_Q>
0

> <r_epik_Metal_State_Penalty>
-0

> <b_epik_Metal_Only>
0

> <s_lp_Force_Field>
OPLS_2005

> <r_lp_Energy>
30.3558

> <b_lp_Chiralities_Consistent>
1

> <s_lp_Variant>
AV-unprocessed.smi:266-4

> <Gold.Version>
5.8.1

> <Gold.Id.Protein>
6NUR|6NUR_protein|mol2

> <Gold.PLP.Fitness>
38.9230

> <Gold.PLP.PLP>
-27.5542

> <Gold.PLP.part.hbond>
-4.2320

> <Gold.PLP.part.metal>
0.0000

> <Gold.PLP.part.buried>
-4.3116

> <Gold.PLP.part.nonpolar>
-20.0062

> <Gold.PLP.part.repulsive>
0.6208

> <Gold.PLP.ligand.clash>
0.0000

> <Gold.PLP.ligand.torsion>
0.6509

> <Gold.PLP.Chemscore.Hbond>
3.1844

> <Gold.PLP.Chemscore.CHOScore>
1.0000

> <Gold.PLP.Chemscore.Metal>
0.0000

> <Gold.Chemscore.Hbonds>
donor molecule, donor type, donor heavy atom, donor atom, acceptor molecule, acceptor atom, score
      L1  H     7    36       P1  7948  1.00
      P1  H  7989  7998       L1    21  0.36
      P1  H  7997  8010       L1    21  1.00
      P1  H 10752 10763       L1    22  0.81
      L1  C    25    52       P1  7957  1.00

> <Gold.PLP.Chemscore.Internal.Correction>
0.1175

> <Gold.Rescore>
     Score         DG    S(hbond)    S(metal)    S(lipo)     H(rot)  DE(clash)    DE(int)     intcor
      9.27     -14.42       2.95        0.00      45.72       2.45       0.33       4.82       ----

> <Gold.Chemscore.Fitness>
9.2715

> <Gold.Chemscore.DG>
-14.4230

> <Gold.Chemscore.ZeroCoef>
-5.4800

> <Gold.Chemscore.Hbond>
2.9517

> <Gold.Chemscore.Metal>
0.0000

> <Gold.Chemscore.Lipo>
45.7165

> <Gold.Chemscore.Internal_Hbond>
0.0000

> <Gold.Chemscore.DEClash>
0.3350

> <Gold.Chemscore.DEInternal>
4.8165

> <Gold.Chemscore.Rot>
2.4471

> <Gold.Chemscore.Internal.Correction>
   9.000000E+99

> <Gold.Chemscore.Hbonds>
donor molecule, donor type, donor heavy atom, donor atom, acceptor molecule, acceptor atom, score
      L1  H     7    36       P1  7948  0.95
      P1  H  7989  7998       L1    21  0.32
      P1  H  7997  8010       L1    21  0.61
      P1  H 10752 10763       L1    22  0.75

> <Gold.Chemscore.Hbond.Weighted>
-9.8587

> <Gold.Chemscore.Metal.Weighted>
-0.0000

> <Gold.Chemscore.Lipo.Weighted>
-5.3488

> <Gold.Chemscore.Internal_Hbond.Weighted>
0.0000

> <Gold.Chemscore.DEClash.Weighted>
0.3350

> <Gold.Chemscore.DEInternal.Weighted>
4.8165

> <Gold.Chemscore.Rot.Weighted>
6.2645

> <Gold.Chemscore.Internal.Correction.Weighted>
   9.000000E+99

> <Gold.Protein.RotatedTorsions>
[ 6907 6896 6895 6894 ] final  106.74 input  -60.11 | X-H torsion
[ 7974 7965 7964 7962 ] final -121.83 input  175.53 | X-H torsion
[ 8008 7997 7996 7995 ] final  106.69 input   59.86 | X-H torsion
[ 10167 10162 10161 10158 ] final  166.59 input  -65.29 | X-H torsion
[ 10718 10713 10712 10709 ] final   61.20 input   66.30 | X-H torsion
[ 10763 10752 10751 10750 ] final   75.74 input  -60.55 | X-H torsion
[ 11005 11000 10999 10996 ] final   37.42 input  -57.11 | X-H torsion

> <Gold.Protein.ActiveResidues>
 VAL166  LYS551  ARG553  GLY616  TRP617  ASP618  TYR619  PRO620  LYS621  CYS622 
 ASP623  PHE694  ASN695  SER759  ASP760  ASP761  ALA762  ILE779  LEU786  VAL792 
 PHE793  MET794  SER795  GLU796  ALA797  LYS798  CYS799  TRP800  GLU811  SER814 

> <Gold.Protein.RotatedAtoms>
  152.5182  133.9337  159.7592 H   0  0  0  0  0  0  0  0  0  0  0  0  # atno 6907 bound_to 6896
  150.9682  133.6364  159.2749 H   0  0  0  0  0  0  0  0  0  0  0  0  # atno 6908 bound_to 6896
  151.3585  135.0905  159.9479 H   0  0  0  0  0  0  0  0  0  0  0  0  # atno 6909 bound_to 6896
  145.0361  140.8107  143.4294 H   0  0  0  0  0  0  0  0  0  0  0  0  # atno 7974 bound_to 7965
  156.1763  140.3108  155.9066 H   0  0  0  0  0  0  0  0  0  0  0  0  # atno 8008 bound_to 7997
  155.3479  140.0469  157.3063 H   0  0  0  0  0  0  0  0  0  0  0  0  # atno 8009 bound_to 7997
  154.5294  140.2225  155.8841 H   0  0  0  0  0  0  0  0  0  0  0  0  # atno 8010 bound_to 7997
  139.4928  144.4011  151.9408 H   0  0  0  0  0  0  0  0  0  0  0  0  # atno 10167 bound_to 10162
  157.5810  130.8981  149.9431 H   0  0  0  0  0  0  0  0  0  0  0  0  # atno 10718 bound_to 10713
  153.0676  135.4977  154.8234 H   0  0  0  0  0  0  0  0  0  0  0  0  # atno 10763 bound_to 10752
  154.6976  135.2996  154.9390 H   0  0  0  0  0  0  0  0  0  0  0  0  # atno 10764 bound_to 10752
  154.0125  135.6752  153.4819 H   0  0  0  0  0  0  0  0  0  0  0  0  # atno 10765 bound_to 10752
  140.2227  134.3621  155.7998 H   0  0  0  0  0  0  0  0  0  0  0  0  # atno 11005 bound_to 11000
  145.1708  139.2405  143.5343 LP  0  0  0  0  0  0  0  0  0  0  0  0  # atno 17320 bound_to 7965
  146.3504  140.1458  142.8593 LP  0  0  0  0  0  0  0  0  0  0  0  0  # atno 17321 bound_to 7965
  140.3450  144.3158  150.5960 LP  0  0  0  0  0  0  0  0  0  0  0  0  # atno 17342 bound_to 10162
  140.5534  143.2203  151.7889 LP  0  0  0  0  0  0  0  0  0  0  0  0  # atno 17343 bound_to 10162
  156.0856  130.3668  150.0494 LP  0  0  0  0  0  0  0  0  0  0  0  0  # atno 17370 bound_to 10713
  156.8633  130.9499  151.3616 LP  0  0  0  0  0  0  0  0  0  0  0  0  # atno 17371 bound_to 10713
  141.2222  133.7202  156.8602 LP  0  0  0  0  0  0  0  0  0  0  0  0  # atno 17394 bound_to 11000
  140.1833  134.9018  157.2974 LP  0  0  0  0  0  0  0  0  0  0  0  0  # atno 17395 bound_to 11000

$$$$
