AV-unprocessed.smi:49|AV-procd|sdf|476|dock7
  -GOLD-   2262016343D 1   1.00000     0.00000
 Structure written by MMmdl.
 27 28  0  0  0  0  0  0  0  0  1 V2000
  152.5755  142.5903  161.6593 C   0  0  0  0  0  0  0  0  0  0  0  0
  152.2335  143.7924  160.7719 C   0  0  0  0  0  0  0  0  0  0  0  0
  151.5353  143.3881  159.5157 C   0  0  0  0  0  0  0  0  0  0  0  0
  151.2759  142.0832  159.2019 N   0  0  0  0  0  0  0  0  0  0  0  0
  150.6981  142.2360  158.0134 C   0  0  0  0  0  0  0  0  0  0  0  0
  150.1876  141.1323  157.1396 C   0  0  1  0  0  0  0  0  0  0  0  0
  149.6136  141.6416  155.8095 C   0  0  0  0  0  0  0  0  0  0  0  0
  149.8821  140.4822  154.8610 C   0  0  1  0  0  0  0  0  0  0  0  0
  149.9093  140.8730  153.5049 O   0  0  0  0  0  0  0  0  0  0  0  0
  151.2386  139.9841  155.3494 C   0  0  0  0  0  0  0  0  0  0  0  0
  151.2121  140.1364  156.8015 N   0  0  0  0  0  0  0  0  0  0  0  0
  150.6354  143.5162  157.6407 N   0  0  0  0  0  0  0  0  0  0  0  0
  151.1822  144.2904  158.6015 N   0  0  0  0  0  0  0  0  0  0  0  0
  149.3882  140.6215  157.6780 H   0  0  0  0  0  0  0  0  0  0  0  0
  149.1286  139.7053  154.9989 H   0  0  0  0  0  0  0  0  0  0  0  0
  150.2546  143.8885  156.7827 H   0  0  0  0  0  0  0  0  0  0  0  0
  153.0879  142.9105  162.5664 H   0  0  0  0  0  0  0  0  0  0  0  0
  153.2278  141.8893  161.1377 H   0  0  0  0  0  0  0  0  0  0  0  0
  151.6746  142.0529  161.9569 H   0  0  0  0  0  0  0  0  0  0  0  0
  151.6002  144.4896  161.3217 H   0  0  0  0  0  0  0  0  0  0  0  0
  153.1439  144.3365  160.5178 H   0  0  0  0  0  0  0  0  0  0  0  0
  148.5610  141.9180  155.8758 H   0  0  0  0  0  0  0  0  0  0  0  0
  150.1697  142.5191  155.4730 H   0  0  0  0  0  0  0  0  0  0  0  0
  149.7942  140.1043  152.9677 H   0  0  0  0  0  0  0  0  0  0  0  0
  151.4428  138.9561  155.0496 H   0  0  0  0  0  0  0  0  0  0  0  0
  152.0300  140.6121  154.9378 H   0  0  0  0  0  0  0  0  0  0  0  0
  150.9450  139.2487  157.2142 H   0  0  0  0  0  0  0  0  0  0  0  0
  1  2  1  0  0  0  0
  1 17  1  0  0  0  0
  1 18  1  0  0  0  0
  1 19  1  0  0  0  0
  2 20  1  0  0  0  0
  2 21  1  0  0  0  0
  2  3  1  0  0  0  0
  3  4  1  0  0  0  0
  3 13  2  0  0  0  0
  4  5  2  0  0  0  0
  5  6  1  0  0  0  0
  5 12  1  0  0  0  0
  6 14  1  0  0  0  0
  6 11  1  0  0  0  0
  6  7  1  0  0  0  0
  7  8  1  0  0  0  0
  7 22  1  0  0  0  0
  7 23  1  0  0  0  0
  8 15  1  0  0  0  0
  8  9  1  0  0  0  0
  8 10  1  0  0  0  0
  9 24  1  0  0  0  0
 10 11  1  0  0  0  0
 10 25  1  0  0  0  0
 10 26  1  0  0  0  0
 11 27  1  0  0  0  0
 12 13  1  0  0  0  0
 12 16  1  0  0  0  0
M  END
> <s_m_source_file>
AV-unprocessed.smi

> <i_m_source_file_index>
49

> <i_lp_mmshare_version>
43012

> <i_f3d_flags>
0

> <s_epik_input>
W0NIM11bQ0gyXWMxbmMobltuSF0xKVtDQEBIXTJbQ0gyXVtDQEBIXShbT0hdKVtDSDJdW05IXTI=

> <s_epik_cmdline>
J2VwaWtfcHl0aG9uJywgJy1waCcsICc3LjAnLCAnLXRuJywgJzgnLCAnLW1hJywgJzIwMCcsICctbWV0YWxfYmluZGluZycsICctaW1hZScsICc8aW5maWxlLm1hZT4nLCAnLW9tYWUnLCAnPG91dGZpbGUubWFlPic=

> <r_epik_Ionization_Penalty>
1.31544

> <r_epik_Ionization_Penalty_Charging>
0

> <r_epik_Ionization_Penalty_Neutral>
1.31544

> <r_epik_State_Penalty>
2.06074

> <r_epik_Charging_Adjusted_Penalty>
2.06074

> <i_epik_Tot_Q>
0

> <i_epik_Tot_abs_Q>
0

> <r_epik_Metal_State_Penalty>
2.32913

> <b_epik_Metal_Only>
0

> <s_lp_Force_Field>
OPLS_2005

> <r_lp_Energy>
18.1426

> <b_lp_Chiralities_Consistent>
1

> <s_lp_Variant>
AV-unprocessed.smi:49-14

> <Gold.Version>
5.8.1

> <Gold.Id.Protein>
6NUR|6NUR_protein|mol2

> <Gold.PLP.Fitness>
35.2649

> <Gold.PLP.PLP>
-27.1950

> <Gold.PLP.part.hbond>
-3.5073

> <Gold.PLP.part.metal>
0.0000

> <Gold.PLP.part.buried>
-1.6397

> <Gold.PLP.part.nonpolar>
-20.4152

> <Gold.PLP.part.repulsive>
0.1136

> <Gold.PLP.ligand.clash>
0.0000

> <Gold.PLP.ligand.torsion>
0.0112

> <Gold.PLP.Chemscore.Hbond>
2.6944

> <Gold.PLP.Chemscore.CHOScore>
0.0000

> <Gold.PLP.Chemscore.Metal>
0.0000

> <Gold.Chemscore.Hbonds>
donor molecule, donor type, donor heavy atom, donor atom, acceptor molecule, acceptor atom, score
      L1  H     9    24       P1  7957  0.54
      L1  H    12    16       P1  8028  1.00
      P1  H  7989  7998       L1     9  0.18
      P1  H  8011  8017       L1     9  1.00

> <Gold.PLP.Chemscore.Internal.Correction>
0.0090

> <Gold.Rescore>
     Score         DG    S(hbond)    S(metal)    S(lipo)     H(rot)  DE(clash)    DE(int)     intcor
     13.89     -14.50       2.36        0.00      50.25       1.86       0.58       0.03       ----

> <Gold.Chemscore.Fitness>
13.8870

> <Gold.Chemscore.DG>
-14.5004

> <Gold.Chemscore.ZeroCoef>
-5.4800

> <Gold.Chemscore.Hbond>
2.3629

> <Gold.Chemscore.Metal>
0.0000

> <Gold.Chemscore.Lipo>
50.2481

> <Gold.Chemscore.Internal_Hbond>
0.0000

> <Gold.Chemscore.DEClash>
0.5797

> <Gold.Chemscore.DEInternal>
0.0338

> <Gold.Chemscore.Rot>
1.8558

> <Gold.Chemscore.Internal.Correction>
   9.000000E+99

> <Gold.Chemscore.Hbonds>
donor molecule, donor type, donor heavy atom, donor atom, acceptor molecule, acceptor atom, score
      L1  H     9    24       P1  7957  0.54
      L1  H    12    16       P1  8028  0.97
      P1  H  8011  8017       L1     9  0.58

> <Gold.Chemscore.Hbond.Weighted>
-7.8921

> <Gold.Chemscore.Metal.Weighted>
-0.0000

> <Gold.Chemscore.Lipo.Weighted>
-5.8790

> <Gold.Chemscore.Internal_Hbond.Weighted>
0.0000

> <Gold.Chemscore.DEClash.Weighted>
0.5797

> <Gold.Chemscore.DEInternal.Weighted>
0.0338

> <Gold.Chemscore.Rot.Weighted>
4.7507

> <Gold.Chemscore.Internal.Correction.Weighted>
   9.000000E+99

> <Gold.Protein.RotatedTorsions>
[ 6907 6896 6895 6894 ] final   -6.02 input  -60.11 | X-H torsion
[ 7974 7965 7964 7962 ] final  -77.06 input  175.53 | X-H torsion
[ 8008 7997 7996 7995 ] final  159.28 input   59.86 | X-H torsion
[ 10167 10162 10161 10158 ] final  107.46 input  -65.29 | X-H torsion
[ 10718 10713 10712 10709 ] final  147.79 input   66.30 | X-H torsion
[ 10763 10752 10751 10750 ] final  -21.43 input  -60.55 | X-H torsion
[ 11005 11000 10999 10996 ] final   46.37 input  -57.11 | X-H torsion

> <Gold.Protein.ActiveResidues>
 VAL166  LYS551  ARG553  GLY616  TRP617  ASP618  TYR619  PRO620  LYS621  CYS622 
 ASP623  PHE694  ASN695  SER759  ASP760  ASP761  ALA762  ILE779  LEU786  VAL792 
 PHE793  MET794  SER795  GLU796  ALA797  LYS798  CYS799  TRP800  GLU811  SER814 

> <Gold.Protein.RotatedAtoms>
  151.4723  135.1046  159.9754 H   0  0  0  0  0  0  0  0  0  0  0  0  # atno 6907 bound_to 6896
  152.4812  133.8254  159.7086 H   0  0  0  0  0  0  0  0  0  0  0  0  # atno 6908 bound_to 6896
  150.8885  133.7214  159.2938 H   0  0  0  0  0  0  0  0  0  0  0  0  # atno 6909 bound_to 6896
  145.6047  140.9400  143.1222 H   0  0  0  0  0  0  0  0  0  0  0  0  # atno 7974 bound_to 7965
  156.2249  140.1835  156.7387 H   0  0  0  0  0  0  0  0  0  0  0  0  # atno 8008 bound_to 7997
  154.5925  140.0648  156.9286 H   0  0  0  0  0  0  0  0  0  0  0  0  # atno 8009 bound_to 7997
  155.2312  140.3315  155.4305 H   0  0  0  0  0  0  0  0  0  0  0  0  # atno 8010 bound_to 7997
  139.6925  144.7106  151.1323 H   0  0  0  0  0  0  0  0  0  0  0  0  # atno 10167 bound_to 10162
  157.3166  131.0897  151.1274 H   0  0  0  0  0  0  0  0  0  0  0  0  # atno 10718 bound_to 10713
  153.6360  135.6987  153.5258 H   0  0  0  0  0  0  0  0  0  0  0  0  # atno 10763 bound_to 10752
  153.2821  135.4182  155.1087 H   0  0  0  0  0  0  0  0  0  0  0  0  # atno 10764 bound_to 10752
  154.8511  135.3604  154.5903 H   0  0  0  0  0  0  0  0  0  0  0  0  # atno 10765 bound_to 10752
  140.1375  134.4626  155.8474 H   0  0  0  0  0  0  0  0  0  0  0  0  # atno 11005 bound_to 11000
  144.7295  139.7770  143.7352 LP  0  0  0  0  0  0  0  0  0  0  0  0  # atno 17320 bound_to 7965
  146.1549  139.4644  143.0025 LP  0  0  0  0  0  0  0  0  0  0  0  0  # atno 17321 bound_to 7965
  140.7687  143.5538  150.9174 LP  0  0  0  0  0  0  0  0  0  0  0  0  # atno 17342 bound_to 10162
  139.9216  143.6599  152.3095 LP  0  0  0  0  0  0  0  0  0  0  0  0  # atno 17343 bound_to 10162
  157.2575  130.6643  149.5959 LP  0  0  0  0  0  0  0  0  0  0  0  0  # atno 17370 bound_to 10713
  155.9682  130.4519  150.5753 LP  0  0  0  0  0  0  0  0  0  0  0  0  # atno 17371 bound_to 10713
  141.2180  133.6820  156.7185 LP  0  0  0  0  0  0  0  0  0  0  0  0  # atno 17394 bound_to 11000
  140.2764  134.8351  157.3894 LP  0  0  0  0  0  0  0  0  0  0  0  0  # atno 17395 bound_to 11000

$$$$
