AV-unprocessed.smi:82|AV-procd|sdf|798|dock10
  -GOLD-   2262017183D 1   1.00000     0.00000
 Structure written by MMmdl.
 58 61  0  0  0  0  0  0  0  0  1 V2000
  151.5664  128.9799  154.8929 C   0  0  0  0  0  0  0  0  0  0  0  0
  151.1628  130.1365  155.6052 O   0  0  0  0  0  0  0  0  0  0  0  0
  149.8473  130.5480  155.2737 C   0  0  0  0  0  0  0  0  0  0  0  0
  149.4928  131.7792  156.1239 C   0  0  0  0  0  0  0  0  0  0  0  0
  150.2981  132.9758  155.8485 N   0  0  0  0  0  0  0  0  0  0  0  0
  150.5197  133.7162  157.0942 C   0  0  0  0  0  0  0  0  0  0  0  0
  151.4266  134.9398  156.9041 C   0  0  0  0  0  0  0  0  0  0  0  0
  150.8534  135.8254  155.8969 N   0  0  0  0  0  0  0  0  0  0  0  0
  151.4103  137.0624  155.8418 C   0  0  0  0  0  0  0  0  0  0  0  0
  152.2050  137.4054  154.7922 N   0  0  0  0  0  0  0  0  0  0  0  0
  152.7608  138.6191  154.7340 C   0  0  0  0  0  0  0  0  0  0  0  0
  152.6570  139.6271  155.6018 N   0  0  0  0  0  0  0  0  0  0  0  0
  151.8578  139.2929  156.6552 C   0  0  0  0  0  0  0  0  0  0  0  0
  151.1970  138.0465  156.8484 C   0  0  0  0  0  0  0  0  0  0  0  0
  150.4471  138.0868  158.0180 N   0  0  0  0  0  0  0  0  0  0  0  0
  150.6563  139.2850  158.4905 C   0  0  0  0  0  0  0  0  0  0  0  0
  151.5157  140.0664  157.7514 N   0  0  0  0  0  0  0  0  0  0  0  0
  151.8835  141.4266  158.0193 C   0  0  0  0  0  0  0  0  0  0  0  0
  152.9503  141.7648  159.0650 C   0  0  0  0  0  0  0  0  0  0  0  0
  152.1570  143.0215  159.4885 C   0  0  0  0  0  0  0  0  0  0  0  0
  152.0166  143.1985  161.0085 C   0  0  0  0  0  0  0  0  0  0  0  0
  150.9695  144.0914  161.3311 O   0  0  0  0  0  0  0  0  0  0  0  0
  152.6532  144.3684  158.9174 C   0  0  0  0  0  0  0  0  0  0  0  0
  151.7535  145.4355  159.1391 O   0  0  0  0  0  0  0  0  0  0  0  0
  150.9469  142.3624  158.7901 C   0  0  0  0  0  0  0  0  0  0  0  0
  150.5673  135.1413  154.6365 C   0  0  0  0  0  0  0  0  0  0  0  0
  149.6794  133.8965  154.8686 C   0  0  1  0  0  0  0  0  0  0  0  0
  149.3622  133.2771  153.4964 C   0  0  0  0  0  0  0  0  0  0  0  0
  152.5809  128.7066  155.1826 H   0  0  0  0  0  0  0  0  0  0  0  0
  151.5597  129.1571  153.8166 H   0  0  0  0  0  0  0  0  0  0  0  0
  150.9141  128.1338  155.1128 H   0  0  0  0  0  0  0  0  0  0  0  0
  149.7986  130.8079  154.2150 H   0  0  0  0  0  0  0  0  0  0  0  0
  149.1588  129.7212  155.4339 H   0  0  0  0  0  0  0  0  0  0  0  0
  148.4304  132.0107  156.0370 H   0  0  0  0  0  0  0  0  0  0  0  0
  149.6356  131.4753  157.1619 H   0  0  0  0  0  0  0  0  0  0  0  0
  149.5634  134.0317  157.5151 H   0  0  0  0  0  0  0  0  0  0  0  0
  150.9822  133.0619  157.8342 H   0  0  0  0  0  0  0  0  0  0  0  0
  151.5506  135.4477  157.8598 H   0  0  0  0  0  0  0  0  0  0  0  0
  152.4200  134.6250  156.5813 H   0  0  0  0  0  0  0  0  0  0  0  0
  153.3796  138.8085  153.8692 H   0  0  0  0  0  0  0  0  0  0  0  0
  150.1881  139.6308  159.4007 H   0  0  0  0  0  0  0  0  0  0  0  0
  152.1446  141.8574  157.0520 H   0  0  0  0  0  0  0  0  0  0  0  0
  153.0082  141.0111  159.8520 H   0  0  0  0  0  0  0  0  0  0  0  0
  153.9382  141.9635  158.6480 H   0  0  0  0  0  0  0  0  0  0  0  0
  151.7998  142.2458  161.4928 H   0  0  0  0  0  0  0  0  0  0  0  0
  152.9435  143.5650  161.4512 H   0  0  0  0  0  0  0  0  0  0  0  0
  151.1806  144.5196  162.1468 H   0  0  0  0  0  0  0  0  0  0  0  0
  153.6078  144.6526  159.3606 H   0  0  0  0  0  0  0  0  0  0  0  0
  152.8188  144.2941  157.8420 H   0  0  0  0  0  0  0  0  0  0  0  0
  150.9622  145.2672  158.6507 H   0  0  0  0  0  0  0  0  0  0  0  0
  150.3626  143.0331  158.1593 H   0  0  0  0  0  0  0  0  0  0  0  0
  150.3022  141.8248  159.4875 H   0  0  0  0  0  0  0  0  0  0  0  0
  150.0610  135.8314  153.9602 H   0  0  0  0  0  0  0  0  0  0  0  0
  151.5045  134.8495  154.1596 H   0  0  0  0  0  0  0  0  0  0  0  0
  148.7321  134.2493  155.2804 H   0  0  0  0  0  0  0  0  0  0  0  0
  149.0258  134.0381  152.7916 H   0  0  0  0  0  0  0  0  0  0  0  0
  148.5571  132.5461  153.5633 H   0  0  0  0  0  0  0  0  0  0  0  0
  150.2387  132.7938  153.0637 H   0  0  0  0  0  0  0  0  0  0  0  0
  1  2  1  0  0  0  0
  1 29  1  0  0  0  0
  1 30  1  0  0  0  0
  1 31  1  0  0  0  0
  2  3  1  0  0  0  0
  3  4  1  0  0  0  0
  3 32  1  0  0  0  0
  3 33  1  0  0  0  0
  4  5  1  0  0  0  0
  4 34  1  0  0  0  0
  4 35  1  0  0  0  0
  5 27  1  0  0  0  0
  5  6  1  0  0  0  0
  6  7  1  0  0  0  0
  6 36  1  0  0  0  0
  6 37  1  0  0  0  0
  7  8  1  0  0  0  0
  7 38  1  0  0  0  0
  7 39  1  0  0  0  0
  8  9  1  0  0  0  0
  8 26  1  0  0  0  0
  9 14  1  0  0  0  0
  9 10  2  0  0  0  0
 10 11  1  0  0  0  0
 11 12  2  0  0  0  0
 11 40  1  0  0  0  0
 12 13  1  0  0  0  0
 13 17  1  0  0  0  0
 13 14  2  0  0  0  0
 14 15  1  0  0  0  0
 15 16  2  0  0  0  0
 16 17  1  0  0  0  0
 16 41  1  0  0  0  0
 17 18  1  0  0  0  0
 18 25  1  0  0  0  0
 18 19  1  0  0  0  0
 18 42  1  0  0  0  0
 19 20  1  0  0  0  0
 19 43  1  0  0  0  0
 19 44  1  0  0  0  0
 20 21  1  0  0  0  0
 20 23  1  0  0  0  0
 20 25  1  0  0  0  0
 21 22  1  0  0  0  0
 21 45  1  0  0  0  0
 21 46  1  0  0  0  0
 22 47  1  0  0  0  0
 23 24  1  0  0  0  0
 23 48  1  0  0  0  0
 23 49  1  0  0  0  0
 24 50  1  0  0  0  0
 25 51  1  0  0  0  0
 25 52  1  0  0  0  0
 26 27  1  0  0  0  0
 26 53  1  0  0  0  0
 26 54  1  0  0  0  0
 27 28  1  0  0  0  0
 27 55  1  0  0  0  0
 28 56  1  0  0  0  0
 28 57  1  0  0  0  0
 28 58  1  0  0  0  0
M  END
> <s_m_source_file>
AV-unprocessed.smi

> <i_m_source_file_index>
82

> <i_lp_mmshare_version>
43012

> <i_f3d_flags>
0

> <s_epik_input>
W0NIM11PW0NIMl1bQ0gyXU4xW0NIMl1bQ0gyXU4oW0NIMl1bQ0BIXTFbQ0gzXSljKG5bY0hdbjIpYyhjMjMpbltjSF1uM1tDSF0oW0NIMl00KVtDSDJdQzQoW0NIMl1bT0hdKVtDSDJdW09IXQ==

> <s_epik_cmdline>
J2VwaWtfcHl0aG9uJywgJy1waCcsICc3LjAnLCAnLXRuJywgJzgnLCAnLW1hJywgJzIwMCcsICctbWV0YWxfYmluZGluZycsICctaW1hZScsICc8aW5maWxlLm1hZT4nLCAnLW9tYWUnLCAnPG91dGZpbGUubWFlPic=

> <r_lp_tautomer_probability>
1

> <r_epik_Ionization_Penalty>
0.549054

> <r_epik_Ionization_Penalty_Charging>
0

> <r_epik_Ionization_Penalty_Neutral>
0.549054

> <r_epik_State_Penalty>
0.552556

> <r_epik_Charging_Adjusted_Penalty>
0.552556

> <i_epik_Tot_Q>
0

> <i_epik_Tot_abs_Q>
0

> <r_epik_Metal_State_Penalty>
0.545162

> <b_epik_Metal_Only>
0

> <s_lp_Force_Field>
OPLS_2005

> <r_lp_Energy>
72.4409

> <b_lp_Chiralities_Consistent>
1

> <s_lp_Variant>
AV-unprocessed.smi:82-5

> <Gold.Version>
5.8.1

> <Gold.Id.Protein>
6NUR|6NUR_protein|mol2

> <Gold.PLP.Fitness>
47.8785

> <Gold.PLP.PLP>
-45.4942

> <Gold.PLP.part.hbond>
-4.0822

> <Gold.PLP.part.metal>
0.0000

> <Gold.PLP.part.buried>
-5.3340

> <Gold.PLP.part.nonpolar>
-37.1908

> <Gold.PLP.part.repulsive>
0.1910

> <Gold.PLP.ligand.clash>
0.0000

> <Gold.PLP.ligand.torsion>
1.7260

> <Gold.PLP.Chemscore.Hbond>
1.6880

> <Gold.PLP.Chemscore.CHOScore>
0.0000

> <Gold.PLP.Chemscore.Metal>
0.0000

> <Gold.Chemscore.Hbonds>
donor molecule, donor type, donor heavy atom, donor atom, acceptor molecule, acceptor atom, score
      P1  H  7997  8010       L1    12  1.00
      P1  H 10752 10763       L1    10  0.69

> <Gold.PLP.Chemscore.Internal.Correction>
0.7725

> <Gold.Rescore>
     Score         DG    S(hbond)    S(metal)    S(lipo)     H(rot)  DE(clash)    DE(int)     intcor
     10.81     -12.43       1.34        0.00     105.35       3.84       0.05       1.57       ----

> <Gold.Chemscore.Fitness>
10.8119

> <Gold.Chemscore.DG>
-12.4306

> <Gold.Chemscore.ZeroCoef>
-5.4800

> <Gold.Chemscore.Hbond>
1.3363

> <Gold.Chemscore.Metal>
0.0000

> <Gold.Chemscore.Lipo>
105.3542

> <Gold.Chemscore.Internal_Hbond>
0.0000

> <Gold.Chemscore.DEClash>
0.0460

> <Gold.Chemscore.DEInternal>
1.5727

> <Gold.Chemscore.Rot>
3.8434

> <Gold.Chemscore.Internal.Correction>
   9.000000E+99

> <Gold.Chemscore.Hbonds>
donor molecule, donor type, donor heavy atom, donor atom, acceptor molecule, acceptor atom, score
      P1  H  7997  8010       L1    12  0.57
      P1  H 10752 10763       L1    10  0.30

> <Gold.Chemscore.Hbond.Weighted>
-4.4633

> <Gold.Chemscore.Metal.Weighted>
-0.0000

> <Gold.Chemscore.Lipo.Weighted>
-12.3264

> <Gold.Chemscore.Internal_Hbond.Weighted>
0.0000

> <Gold.Chemscore.DEClash.Weighted>
0.0460

> <Gold.Chemscore.DEInternal.Weighted>
1.5727

> <Gold.Chemscore.Rot.Weighted>
9.8391

> <Gold.Chemscore.Internal.Correction.Weighted>
   9.000000E+99

> <Gold.Protein.RotatedTorsions>
[ 6907 6896 6895 6894 ] final  151.65 input  -60.11 | X-H torsion
[ 7974 7965 7964 7962 ] final -144.48 input  175.53 | X-H torsion
[ 8008 7997 7996 7995 ] final   88.50 input   59.86 | X-H torsion
[ 10167 10162 10161 10158 ] final   29.77 input  -65.29 | X-H torsion
[ 10718 10713 10712 10709 ] final -152.69 input   66.30 | X-H torsion
[ 10763 10752 10751 10750 ] final   34.75 input  -60.55 | X-H torsion
[ 11005 11000 10999 10996 ] final -135.20 input  -57.11 | X-H torsion

> <Gold.Protein.ActiveResidues>
 VAL166  LYS551  ARG553  GLY616  TRP617  ASP618  TYR619  PRO620  LYS621  CYS622 
 ASP623  PHE694  ASN695  SER759  ASP760  ASP761  ALA762  ILE779  LEU786  VAL792 
 PHE793  MET794  SER795  GLU796  ALA797  LYS798  CYS799  TRP800  GLU811  SER814 

> <Gold.Protein.RotatedAtoms>
  152.0977  133.4233  159.4572 H   0  0  0  0  0  0  0  0  0  0  0  0  # atno 6907 bound_to 6896
  150.6863  134.2797  159.4631 H   0  0  0  0  0  0  0  0  0  0  0  0  # atno 6908 bound_to 6896
  152.0655  134.9567  160.0625 H   0  0  0  0  0  0  0  0  0  0  0  0  # atno 6909 bound_to 6896
  144.8294  140.5705  143.5525 H   0  0  0  0  0  0  0  0  0  0  0  0  # atno 7974 bound_to 7965
  155.9885  140.3371  155.6730 H   0  0  0  0  0  0  0  0  0  0  0  0  # atno 8008 bound_to 7997
  155.6453  140.0699  157.2623 H   0  0  0  0  0  0  0  0  0  0  0  0  # atno 8009 bound_to 7997
  154.4212  140.1735  156.1604 H   0  0  0  0  0  0  0  0  0  0  0  0  # atno 8010 bound_to 7997
  140.4736  144.0724  150.6244 H   0  0  0  0  0  0  0  0  0  0  0  0  # atno 10167 bound_to 10162
  156.4758  130.8280  151.2508 H   0  0  0  0  0  0  0  0  0  0  0  0  # atno 10718 bound_to 10713
  153.0150  135.6352  154.1718 H   0  0  0  0  0  0  0  0  0  0  0  0  # atno 10763 bound_to 10752
  154.1458  135.2832  155.3150 H   0  0  0  0  0  0  0  0  0  0  0  0  # atno 10764 bound_to 10752
  154.6090  135.5562  153.7515 H   0  0  0  0  0  0  0  0  0  0  0  0  # atno 10765 bound_to 10752
  140.8920  134.1800  157.4521 H   0  0  0  0  0  0  0  0  0  0  0  0  # atno 11005 bound_to 11000
  145.4928  139.1487  143.3700 LP  0  0  0  0  0  0  0  0  0  0  0  0  # atno 17320 bound_to 7965
  146.2598  140.5066  142.8858 LP  0  0  0  0  0  0  0  0  0  0  0  0  # atno 17321 bound_to 7965
  140.3946  143.2735  152.0020 LP  0  0  0  0  0  0  0  0  0  0  0  0  # atno 17342 bound_to 10162
  139.4822  144.6049  151.7540 LP  0  0  0  0  0  0  0  0  0  0  0  0  # atno 17343 bound_to 10162
  157.7487  131.0061  150.3139 LP  0  0  0  0  0  0  0  0  0  0  0  0  # atno 17370 bound_to 10713
  156.3572  130.3841  149.7281 LP  0  0  0  0  0  0  0  0  0  0  0  0  # atno 17371 bound_to 10713
  139.8731  134.9862  156.5315 LP  0  0  0  0  0  0  0  0  0  0  0  0  # atno 17394 bound_to 11000
  140.8335  133.8260  155.9007 LP  0  0  0  0  0  0  0  0  0  0  0  0  # atno 17395 bound_to 11000

$$$$
