AV-unprocessed.smi:1825|AV-procd|sdf|7414|dock5
  -GOLD-   22720 9 93D 1   1.00000     0.00000
 Structure written by MMmdl.
 33 34  0  0  0  0  0  0  0  0  2 V2000
  144.1001  136.3103  152.3445 O   0  0  0  0  0  0  0  0  0  0  0  0
  145.2970  136.1579  152.0890 C   0  0  0  0  0  0  0  0  0  0  0  0
  146.2013  137.0299  152.5596 N   0  0  0  0  0  0  0  0  0  0  0  0
  145.9317  138.2044  153.3892 C   0  0  0  0  0  0  0  0  0  0  0  0
  147.0705  139.2561  153.3571 C   0  0  0  0  0  0  0  0  0  0  0  0
  147.3022  139.5660  151.9940 O   0  0  0  0  0  0  0  0  0  0  0  0
  146.5917  140.5560  154.0486 C   0  0  0  0  0  0  0  0  0  0  0  0
  147.6839  141.6375  154.1329 C   0  0  0  0  0  0  0  0  0  0  0  0
  148.9492  141.0990  154.8137 C   0  0  0  0  0  0  0  0  0  0  0  0
  149.4706  139.8512  154.0890 C   0  0  0  0  0  0  0  0  0  0  0  0
  148.3910  138.7579  153.9997 C   0  0  0  0  0  0  0  0  0  0  0  0
  145.8375  135.1558  151.3592 N   0  5  0  0  0  0  0  0  0  0  0  0
  145.0816  134.1076  150.9937 C   0  0  0  0  0  0  0  0  0  0  0  0
  145.4558  133.2296  150.0559 N   0  0  0  0  0  0  0  0  0  0  0  0
  144.5212  132.2148  149.8412 C   0  0  0  0  0  0  0  0  0  0  0  0
  143.4135  132.3176  150.6402 C   0  0  0  0  0  0  0  0  0  0  0  0
  143.5109  133.7013  151.6915 S   0  0  0  0  0  0  0  0  0  0  0  0
  147.1687  136.8554  152.3299 H   0  0  0  0  0  0  0  0  0  0  0  0
  144.9957  138.6511  153.0514 H   0  0  0  0  0  0  0  0  0  0  0  0
  145.7471  137.8927  154.4184 H   0  0  0  0  0  0  0  0  0  0  0  0
  148.2234  139.7433  151.8822 H   0  0  0  0  0  0  0  0  0  0  0  0
  145.7171  140.9580  153.5351 H   0  0  0  0  0  0  0  0  0  0  0  0
  146.2625  140.3219  155.0620 H   0  0  0  0  0  0  0  0  0  0  0  0
  147.9296  141.9969  153.1328 H   0  0  0  0  0  0  0  0  0  0  0  0
  147.3075  142.4999  154.6837 H   0  0  0  0  0  0  0  0  0  0  0  0
  149.7205  141.8695  154.8303 H   0  0  0  0  0  0  0  0  0  0  0  0
  148.7311  140.8546  155.8542 H   0  0  0  0  0  0  0  0  0  0  0  0
  149.8049  140.1219  153.0869 H   0  0  0  0  0  0  0  0  0  0  0  0
  150.3464  139.4608  154.6081 H   0  0  0  0  0  0  0  0  0  0  0  0
  148.1814  138.3900  155.0049 H   0  0  0  0  0  0  0  0  0  0  0  0
  148.7945  137.9104  153.4445 H   0  0  0  0  0  0  0  0  0  0  0  0
  144.7281  131.4576  149.0998 H   0  0  0  0  0  0  0  0  0  0  0  0
  142.5520  131.6683  150.6761 H   0  0  0  0  0  0  0  0  0  0  0  0
  1  2  2  0  0  0  0
  2  3  1  0  0  0  0
  2 12  1  0  0  0  0
  3  4  1  0  0  0  0
  3 18  1  0  0  0  0
  4  5  1  0  0  0  0
  4 19  1  0  0  0  0
  4 20  1  0  0  0  0
  5 11  1  0  0  0  0
  5  6  1  0  0  0  0
  5  7  1  0  0  0  0
  6 21  1  0  0  0  0
  7  8  1  0  0  0  0
  7 22  1  0  0  0  0
  7 23  1  0  0  0  0
  8  9  1  0  0  0  0
  8 24  1  0  0  0  0
  8 25  1  0  0  0  0
  9 10  1  0  0  0  0
  9 26  1  0  0  0  0
  9 27  1  0  0  0  0
 10 11  1  0  0  0  0
 10 28  1  0  0  0  0
 10 29  1  0  0  0  0
 11 30  1  0  0  0  0
 11 31  1  0  0  0  0
 12 13  1  0  0  0  0
 13 17  1  0  0  0  0
 13 14  2  0  0  0  0
 14 15  1  0  0  0  0
 15 16  2  0  0  0  0
 15 32  1  0  0  0  0
 16 17  1  0  0  0  0
 16 33  1  0  0  0  0
M  CHG  1  12  -1
M  END
> <s_m_source_file>
AV-unprocessed.smi

> <i_m_source_file_index>
1825

> <i_lp_mmshare_version>
43012

> <i_f3d_flags>
0

> <s_epik_input>
czFbY0hdW2NIXW5jMVtOSF1DKD1PKVtOSF1bQ0gyXUMyKFtPSF0pW0NIMl1bQ0gyXVtDSDJdW0NIMl1bQ0gyXTI=

> <s_epik_cmdline>
J2VwaWtfcHl0aG9uJywgJy1waCcsICc3LjAnLCAnLXRuJywgJzgnLCAnLW1hJywgJzIwMCcsICctbWV0YWxfYmluZGluZycsICctaW1hZScsICc8aW5maWxlLm1hZT4nLCAnLW9tYWUnLCAnPG91dGZpbGUubWFlPic=

> <r_lp_tautomer_probability>
0.999

> <r_epik_Ionization_Penalty>
8.3436

> <r_epik_Ionization_Penalty_Charging>
6.70408

> <r_epik_Ionization_Penalty_Neutral>
1.63952

> <r_epik_State_Penalty>
6.70425

> <r_epik_Charging_Adjusted_Penalty>
13.4083

> <i_epik_Tot_Q>
-1

> <i_epik_Tot_abs_Q>
1

> <r_epik_Metal_State_Penalty>
2.62591

> <b_epik_Metal_Only>
1

> <s_lp_Force_Field>
OPLS_2005

> <r_lp_Energy>
9.48325

> <b_lp_Chiralities_Consistent>
1

> <s_lp_Variant>
AV-unprocessed.smi:1825-2

> <Gold.Version>
5.8.1

> <Gold.Id.Protein>
6NUR|6NUR_protein|mol2

> <Gold.PLP.Fitness>
38.7151

> <Gold.PLP.PLP>
-30.2301

> <Gold.PLP.part.hbond>
-1.5620

> <Gold.PLP.part.metal>
0.0000

> <Gold.PLP.part.buried>
-6.1768

> <Gold.PLP.part.nonpolar>
-24.8711

> <Gold.PLP.part.repulsive>
0.6226

> <Gold.PLP.ligand.clash>
0.0000

> <Gold.PLP.ligand.torsion>
0.2556

> <Gold.PLP.Chemscore.Hbond>
1.9913

> <Gold.PLP.Chemscore.CHOScore>
1.0000

> <Gold.PLP.Chemscore.Metal>
0.0000

> <Gold.Chemscore.Hbonds>
donor molecule, donor type, donor heavy atom, donor atom, acceptor molecule, acceptor atom, score
      L1  H     3    18       P1  7948  1.00
      L1  H     6    21       P1  7957  1.00
      L1  C    16    33       P1 10952  1.00

> <Gold.PLP.Chemscore.Internal.Correction>
0.0225

> <Gold.Rescore>
     Score         DG    S(hbond)    S(metal)    S(lipo)     H(rot)  DE(clash)    DE(int)     intcor
     13.52     -15.62       1.89        0.00      72.67       1.83       0.36       1.73       ----

> <Gold.Chemscore.Fitness>
13.5243

> <Gold.Chemscore.DG>
-15.6196

> <Gold.Chemscore.ZeroCoef>
-5.4800

> <Gold.Chemscore.Hbond>
1.8907

> <Gold.Chemscore.Metal>
0.0000

> <Gold.Chemscore.Lipo>
72.6745

> <Gold.Chemscore.Internal_Hbond>
0.0000

> <Gold.Chemscore.DEClash>
0.3625

> <Gold.Chemscore.DEInternal>
1.7328

> <Gold.Chemscore.Rot>
1.8274

> <Gold.Chemscore.Internal.Correction>
   9.000000E+99

> <Gold.Chemscore.Hbonds>
donor molecule, donor type, donor heavy atom, donor atom, acceptor molecule, acceptor atom, score
      L1  H     3    18       P1  7948  0.99
      L1  H     6    21       P1  7957  0.96

> <Gold.Chemscore.Hbond.Weighted>
-6.3148

> <Gold.Chemscore.Metal.Weighted>
-0.0000

> <Gold.Chemscore.Lipo.Weighted>
-8.5029

> <Gold.Chemscore.Internal_Hbond.Weighted>
0.0000

> <Gold.Chemscore.DEClash.Weighted>
0.3625

> <Gold.Chemscore.DEInternal.Weighted>
1.7328

> <Gold.Chemscore.Rot.Weighted>
4.6781

> <Gold.Chemscore.Internal.Correction.Weighted>
   9.000000E+99

> <Gold.Protein.RotatedTorsions>
[ 6907 6896 6895 6894 ] final  -72.65 input  -60.11 | X-H torsion
[ 7974 7965 7964 7962 ] final -120.54 input  175.53 | X-H torsion
[ 8008 7997 7996 7995 ] final  160.88 input   59.86 | X-H torsion
[ 10167 10162 10161 10158 ] final  -63.84 input  -65.29 | X-H torsion
[ 10718 10713 10712 10709 ] final   88.14 input   66.30 | X-H torsion
[ 10763 10752 10751 10750 ] final   91.88 input  -60.55 | X-H torsion
[ 11005 11000 10999 10996 ] final  -70.83 input  -57.11 | X-H torsion

> <Gold.Protein.ActiveResidues>
 VAL166  LYS551  ARG553  GLY616  TRP617  ASP618  TYR619  PRO620  LYS621  CYS622 
 ASP623  PHE694  ASN695  SER759  ASP760  ASP761  ALA762  ILE779  LEU786  VAL792 
 PHE793  MET794  SER795  GLU796  ALA797  LYS798  CYS799  TRP800  GLU811  SER814 

> <Gold.Protein.RotatedAtoms>
  150.7161  134.5132  159.5617 H   0  0  0  0  0  0  0  0  0  0  0  0  # atno 6907 bound_to 6896
  152.2704  134.7936  160.0424 H   0  0  0  0  0  0  0  0  0  0  0  0  # atno 6908 bound_to 6896
  151.8618  133.3423  159.3743 H   0  0  0  0  0  0  0  0  0  0  0  0  # atno 6909 bound_to 6896
  145.0503  140.8213  143.4213 H   0  0  0  0  0  0  0  0  0  0  0  0  # atno 7974 bound_to 7965
  156.2142  140.1792  156.7627 H   0  0  0  0  0  0  0  0  0  0  0  0  # atno 8008 bound_to 7997
  154.5767  140.0673  156.9073 H   0  0  0  0  0  0  0  0  0  0  0  0  # atno 8009 bound_to 7997
  155.2576  140.3333  155.4278 H   0  0  0  0  0  0  0  0  0  0  0  0  # atno 8010 bound_to 7997
  140.5843  143.2331  151.6277 H   0  0  0  0  0  0  0  0  0  0  0  0  # atno 10167 bound_to 10162
  157.6946  131.0283  150.3229 H   0  0  0  0  0  0  0  0  0  0  0  0  # atno 10718 bound_to 10713
  153.2131  135.4381  155.0403 H   0  0  0  0  0  0  0  0  0  0  0  0  # atno 10763 bound_to 10752
  154.8211  135.3338  154.7039 H   0  0  0  0  0  0  0  0  0  0  0  0  # atno 10764 bound_to 10752
  153.7475  135.7000  153.5009 H   0  0  0  0  0  0  0  0  0  0  0  0  # atno 10765 bound_to 10752
  141.1581  133.6800  156.6813 H   0  0  0  0  0  0  0  0  0  0  0  0  # atno 11005 bound_to 11000
  145.1536  139.2500  143.5428 LP  0  0  0  0  0  0  0  0  0  0  0  0  # atno 17320 bound_to 7965
  146.3517  140.1245  142.8599 LP  0  0  0  0  0  0  0  0  0  0  0  0  # atno 17321 bound_to 7965
  139.5188  144.3273  152.0857 LP  0  0  0  0  0  0  0  0  0  0  0  0  # atno 17342 bound_to 10162
  140.2428  144.4252  150.6253 LP  0  0  0  0  0  0  0  0  0  0  0  0  # atno 17343 bound_to 10162
  156.3714  130.3864  149.7173 LP  0  0  0  0  0  0  0  0  0  0  0  0  # atno 17370 bound_to 10713
  156.4586  130.7941  151.2961 LP  0  0  0  0  0  0  0  0  0  0  0  0  # atno 17371 bound_to 10713
  140.3101  134.8093  157.4169 LP  0  0  0  0  0  0  0  0  0  0  0  0  # atno 17394 bound_to 11000
  140.1186  134.5249  155.8203 LP  0  0  0  0  0  0  0  0  0  0  0  0  # atno 17395 bound_to 11000

$$$$
