AV-unprocessed.smi:49|AV-procd|sdf|463|dock6
  -GOLD-   2262016333D 1   1.00000     0.00000
 Structure written by MMmdl.
 28 29  0  0  0  0  0  0  0  0  2 V2000
  152.9246  142.9159  161.4134 C   0  0  0  0  0  0  0  0  0  0  0  0
  152.3267  144.0128  160.5258 C   0  0  0  0  0  0  0  0  0  0  0  0
  151.7179  143.4706  159.2743 C   0  0  0  0  0  0  0  0  0  0  0  0
  150.7738  142.5367  159.2237 N   0  0  0  0  0  0  0  0  0  0  0  0
  150.5833  142.4533  157.8727 C   0  0  0  0  0  0  0  0  0  0  0  0
  149.6245  141.4761  157.2616 C   0  0  2  0  0  0  0  0  0  0  0  0
  150.3270  140.4451  156.3628 C   0  0  0  0  0  0  0  0  0  0  0  0
  150.0522  140.9397  154.9449 C   0  0  1  0  0  0  0  0  0  0  0  0
  150.0939  139.8943  153.9971 O   0  0  0  0  0  0  0  0  0  0  0  0
  148.6586  141.5524  155.0677 C   0  0  0  0  0  0  0  0  0  0  0  0
  148.6231  142.1581  156.4108 N   0  3  0  0  0  0  0  0  0  0  0  0
  151.3521  143.2491  157.1271 N   0  0  0  0  0  0  0  0  0  0  0  0
  152.0686  143.9067  158.0629 N   0  0  0  0  0  0  0  0  0  0  0  0
  149.0989  140.9596  158.0659 H   0  0  0  0  0  0  0  0  0  0  0  0
  150.7752  141.7105  154.6734 H   0  0  0  0  0  0  0  0  0  0  0  0
  152.7601  144.6085  157.8387 H   0  0  0  0  0  0  0  0  0  0  0  0
  153.3612  143.3423  162.3168 H   0  0  0  0  0  0  0  0  0  0  0  0
  153.7102  142.3702  160.8900 H   0  0  0  0  0  0  0  0  0  0  0  0
  152.1630  142.1975  161.7183 H   0  0  0  0  0  0  0  0  0  0  0  0
  151.5686  144.5668  161.0807 H   0  0  0  0  0  0  0  0  0  0  0  0
  153.1003  144.7320  160.2544 H   0  0  0  0  0  0  0  0  0  0  0  0
  151.3886  140.3209  156.5815 H   0  0  0  0  0  0  0  0  0  0  0  0
  149.8502  139.4734  156.5039 H   0  0  0  0  0  0  0  0  0  0  0  0
  149.7725  140.2211  153.1702 H   0  0  0  0  0  0  0  0  0  0  0  0
  148.4447  142.2829  154.2872 H   0  0  0  0  0  0  0  0  0  0  0  0
  147.8936  140.7754  155.0256 H   0  0  0  0  0  0  0  0  0  0  0  0
  147.6985  142.0956  156.8119 H   0  0  0  0  0  0  0  0  0  0  0  0
  148.8961  143.1279  156.3345 H   0  0  0  0  0  0  0  0  0  0  0  0
  1  2  1  0  0  0  0
  1 17  1  0  0  0  0
  1 18  1  0  0  0  0
  1 19  1  0  0  0  0
  2  3  1  0  0  0  0
  2 20  1  0  0  0  0
  2 21  1  0  0  0  0
  3 13  1  0  0  0  0
  3  4  2  0  0  0  0
  4  5  1  0  0  0  0
  5  6  1  0  0  0  0
  5 12  2  0  0  0  0
  6 14  1  0  0  0  0
  6 11  1  0  0  0  0
  6  7  1  0  0  0  0
  7  8  1  0  0  0  0
  7 22  1  0  0  0  0
  7 23  1  0  0  0  0
  8 15  1  0  0  0  0
  8  9  1  0  0  0  0
  8 10  1  0  0  0  0
  9 24  1  0  0  0  0
 10 11  1  0  0  0  0
 10 25  1  0  0  0  0
 10 26  1  0  0  0  0
 11 27  1  0  0  0  0
 11 28  1  0  0  0  0
 12 13  1  0  0  0  0
 13 16  1  0  0  0  0
M  CHG  1  11   1
M  END
> <s_m_source_file>
AV-unprocessed.smi

> <i_m_source_file_index>
49

> <i_lp_mmshare_version>
43012

> <i_f3d_flags>
0

> <s_epik_input>
W0NIM11bQ0gyXWMxbmMobltuSF0xKVtDQEBIXTJbQ0gyXVtDQEBIXShbT0hdKVtDSDJdW05IXTI=

> <s_epik_cmdline>
J2VwaWtfcHl0aG9uJywgJy1waCcsICc3LjAnLCAnLXRuJywgJzgnLCAnLW1hJywgJzIwMCcsICctbWV0YWxfYmluZGluZycsICctaW1hZScsICc8aW5maWxlLm1hZT4nLCAnLW9tYWUnLCAnPG91dGZpbGUubWFlPic=

> <r_lp_tautomer_probability>
0.948284

> <r_epik_Ionization_Penalty>
0.045643

> <r_epik_Ionization_Penalty_Charging>
0.0371552

> <r_epik_Ionization_Penalty_Neutral>
0.00848778

> <r_epik_State_Penalty>
0.283309

> <r_epik_Charging_Adjusted_Penalty>
0.320465

> <i_epik_Tot_Q>
1

> <i_epik_Tot_abs_Q>
1

> <r_epik_Metal_State_Penalty>
0.558162

> <b_epik_Metal_Only>
0

> <s_lp_Force_Field>
OPLS_2005

> <r_lp_Energy>
17.5806

> <b_lp_Chiralities_Consistent>
1

> <s_lp_Variant>
AV-unprocessed.smi:49-1

> <Gold.Version>
5.8.1

> <Gold.Id.Protein>
6NUR|6NUR_protein|mol2

> <Gold.PLP.Fitness>
34.3411

> <Gold.PLP.PLP>
-25.4017

> <Gold.PLP.part.hbond>
-3.8185

> <Gold.PLP.part.metal>
0.0000

> <Gold.PLP.part.buried>
-2.7418

> <Gold.PLP.part.nonpolar>
-18.3808

> <Gold.PLP.part.repulsive>
0.1937

> <Gold.PLP.ligand.clash>
0.0000

> <Gold.PLP.ligand.torsion>
0.0367

> <Gold.PLP.Chemscore.Hbond>
3.0000

> <Gold.PLP.Chemscore.CHOScore>
0.0000

> <Gold.PLP.Chemscore.Metal>
0.0000

> <Gold.Chemscore.Hbonds>
donor molecule, donor type, donor heavy atom, donor atom, acceptor molecule, acceptor atom, score
      L1  H     9    24       P1  7957  0.99
      L1  H    11    28       P1  8028  2.00

> <Gold.PLP.Chemscore.Internal.Correction>
0.0128

> <Gold.Rescore>
     Score         DG    S(hbond)    S(metal)    S(lipo)     H(rot)  DE(clash)    DE(int)     intcor
     12.36     -12.54       1.95        0.00      45.98       1.89       0.17       0.01       ----

> <Gold.Chemscore.Fitness>
12.3600

> <Gold.Chemscore.DG>
-12.5409

> <Gold.Chemscore.ZeroCoef>
-5.4800

> <Gold.Chemscore.Hbond>
1.9507

> <Gold.Chemscore.Metal>
0.0000

> <Gold.Chemscore.Lipo>
45.9801

> <Gold.Chemscore.Internal_Hbond>
0.0000

> <Gold.Chemscore.DEClash>
0.1737

> <Gold.Chemscore.DEInternal>
0.0072

> <Gold.Chemscore.Rot>
1.8883

> <Gold.Chemscore.Internal.Correction>
   9.000000E+99

> <Gold.Chemscore.Hbonds>
donor molecule, donor type, donor heavy atom, donor atom, acceptor molecule, acceptor atom, score
      L1  H     9    24       P1  7957  0.89
      L1  H    11    28       P1  8028  0.97

> <Gold.Chemscore.Hbond.Weighted>
-6.5152

> <Gold.Chemscore.Metal.Weighted>
-0.0000

> <Gold.Chemscore.Lipo.Weighted>
-5.3797

> <Gold.Chemscore.Internal_Hbond.Weighted>
0.0000

> <Gold.Chemscore.DEClash.Weighted>
0.1737

> <Gold.Chemscore.DEInternal.Weighted>
0.0072

> <Gold.Chemscore.Rot.Weighted>
4.8340

> <Gold.Chemscore.Internal.Correction.Weighted>
   9.000000E+99

> <Gold.Protein.RotatedTorsions>
[ 6907 6896 6895 6894 ] final  131.90 input  -60.11 | X-H torsion
[ 7974 7965 7964 7962 ] final  107.76 input  175.53 | X-H torsion
[ 8008 7997 7996 7995 ] final    2.12 input   59.86 | X-H torsion
[ 10167 10162 10161 10158 ] final  142.41 input  -65.29 | X-H torsion
[ 10718 10713 10712 10709 ] final  -77.39 input   66.30 | X-H torsion
[ 10763 10752 10751 10750 ] final  164.05 input  -60.55 | X-H torsion
[ 11005 11000 10999 10996 ] final  -60.73 input  -57.11 | X-H torsion

> <Gold.Protein.ActiveResidues>
 VAL166  LYS551  ARG553  GLY616  TRP617  ASP618  TYR619  PRO620  LYS621  CYS622 
 ASP623  PHE694  ASN695  SER759  ASP760  ASP761  ALA762  ILE779  LEU786  VAL792 
 PHE793  MET794  SER795  GLU796  ALA797  LYS798  CYS799  TRP800  GLU811  SER814 

> <Gold.Protein.RotatedAtoms>
  152.3379  133.6033  159.5855 H   0  0  0  0  0  0  0  0  0  0  0  0  # atno 6907 bound_to 6896
  150.7461  133.9767  159.3572 H   0  0  0  0  0  0  0  0  0  0  0  0  # atno 6908 bound_to 6896
  151.7634  135.0805  160.0400 H   0  0  0  0  0  0  0  0  0  0  0  0  # atno 6909 bound_to 6896
  145.2895  139.2605  143.3873 H   0  0  0  0  0  0  0  0  0  0  0  0  # atno 7974 bound_to 7965
  154.6878  140.2646  155.6843 H   0  0  0  0  0  0  0  0  0  0  0  0  # atno 8008 bound_to 7997
  156.2721  140.2797  156.1368 H   0  0  0  0  0  0  0  0  0  0  0  0  # atno 8009 bound_to 7997
  155.0940  140.0373  157.2667 H   0  0  0  0  0  0  0  0  0  0  0  0  # atno 8010 bound_to 7997
  139.4995  144.6108  151.6275 H   0  0  0  0  0  0  0  0  0  0  0  0  # atno 10167 bound_to 10162
  156.0146  130.4490  150.3337 H   0  0  0  0  0  0  0  0  0  0  0  0  # atno 10718 bound_to 10713
  154.3030  135.2758  155.2602 H   0  0  0  0  0  0  0  0  0  0  0  0  # atno 10763 bound_to 10752
  154.5031  135.5803  153.6550 H   0  0  0  0  0  0  0  0  0  0  0  0  # atno 10764 bound_to 10752
  152.9898  135.6162  154.3201 H   0  0  0  0  0  0  0  0  0  0  0  0  # atno 10765 bound_to 10752
  141.1298  133.6624  156.5268 H   0  0  0  0  0  0  0  0  0  0  0  0  # atno 11005 bound_to 11000
  146.3190  140.3382  142.8646 LP  0  0  0  0  0  0  0  0  0  0  0  0  # atno 17320 bound_to 7965
  144.9185  140.7840  143.5763 LP  0  0  0  0  0  0  0  0  0  0  0  0  # atno 17321 bound_to 7965
  140.5783  143.9991  150.6254 LP  0  0  0  0  0  0  0  0  0  0  0  0  # atno 17342 bound_to 10162
  140.3131  143.3185  152.0859 LP  0  0  0  0  0  0  0  0  0  0  0  0  # atno 17343 bound_to 10162
  157.1434  131.0302  151.2917 LP  0  0  0  0  0  0  0  0  0  0  0  0  # atno 17370 bound_to 10713
  157.4452  130.7567  149.7104 LP  0  0  0  0  0  0  0  0  0  0  0  0  # atno 17371 bound_to 10713
  140.4248  134.7155  157.4909 LP  0  0  0  0  0  0  0  0  0  0  0  0  # atno 17394 bound_to 11000
  140.0335  134.6371  155.9075 LP  0  0  0  0  0  0  0  0  0  0  0  0  # atno 17395 bound_to 11000

$$$$
