AV-unprocessed.smi:505|AV-procd|sdf|2749|dock6
  -GOLD-   2262023213D 1   1.00000     0.00000
 Structure written by MMmdl.
 36 37  0  0  0  0  0  0  0  0  2 V2000
  151.8434  145.6078  159.9591 C   0  0  0  0  0  0  0  0  0  0  0  0
  151.8153  144.9666  158.6963 O   0  0  0  0  0  0  0  0  0  0  0  0
  151.0445  143.7769  158.7099 C   0  0  0  0  0  0  0  0  0  0  0  0
  151.2755  143.0200  157.3965 C   0  0  0  0  0  0  0  0  0  0  0  0
  150.7501  141.6603  157.4609 N   0  0  0  0  0  0  0  0  0  0  0  0
  149.6485  141.1733  156.8386 C   0  0  0  0  0  0  0  0  0  0  0  0
  148.8838  141.9921  156.0162 N   0  0  0  0  0  0  0  0  0  0  0  0
  147.6818  141.7434  155.2418 C   0  0  0  0  0  0  0  0  0  0  0  0
  147.9978  141.3935  153.7807 C   0  0  0  0  0  0  0  0  0  0  0  0
  149.3839  141.1740  153.6257 O   0  0  0  0  0  0  0  0  0  0  0  0
  149.3903  139.8857  157.0735 N   0  0  0  0  0  0  0  0  0  0  0  0
  150.4317  139.5165  157.9144 C   0  0  0  0  0  0  0  0  0  0  0  0
  151.2682  140.5630  158.1531 C   0  0  0  0  0  0  0  0  0  0  0  0
  152.4831  140.4744  158.9906 C   0  0  0  0  0  0  0  0  0  0  0  0
  153.2116  141.4509  159.1554 O   0  0  0  0  0  0  0  0  0  0  0  0
  152.6604  139.2184  159.5105 N   0  5  0  0  0  0  0  0  0  0  0  0
  151.8388  138.1313  159.3008 C   0  0  0  0  0  0  0  0  0  0  0  0
  152.0738  137.0322  159.8046 O   0  0  0  0  0  0  0  0  0  0  0  0
  150.7256  138.2602  158.5115 N   0  0  0  0  0  0  0  0  0  0  0  0
  149.8334  137.1222  158.2727 C   0  0  0  0  0  0  0  0  0  0  0  0
  152.4499  146.5113  159.8977 H   0  0  0  0  0  0  0  0  0  0  0  0
  152.2795  144.9609  160.7213 H   0  0  0  0  0  0  0  0  0  0  0  0
  150.8407  145.8967  160.2767 H   0  0  0  0  0  0  0  0  0  0  0  0
  151.3374  143.1548  159.5573 H   0  0  0  0  0  0  0  0  0  0  0  0
  149.9863  144.0155  158.8265 H   0  0  0  0  0  0  0  0  0  0  0  0
  150.8171  143.5455  156.5597 H   0  0  0  0  0  0  0  0  0  0  0  0
  152.3409  142.9845  157.1683 H   0  0  0  0  0  0  0  0  0  0  0  0
  149.2497  142.9261  155.9015 H   0  0  0  0  0  0  0  0  0  0  0  0
  147.1624  140.9060  155.7086 H   0  0  0  0  0  0  0  0  0  0  0  0
  147.0124  142.6018  155.3054 H   0  0  0  0  0  0  0  0  0  0  0  0
  147.4315  140.5272  153.4367 H   0  0  0  0  0  0  0  0  0  0  0  0
  147.7240  142.2299  153.1375 H   0  0  0  0  0  0  0  0  0  0  0  0
  149.5080  140.3764  153.1346 H   0  0  0  0  0  0  0  0  0  0  0  0
  149.4569  136.7256  159.2168 H   0  0  0  0  0  0  0  0  0  0  0  0
  150.3655  136.3234  157.7547 H   0  0  0  0  0  0  0  0  0  0  0  0
  148.9679  137.3866  157.6655 H   0  0  0  0  0  0  0  0  0  0  0  0
  1  2  1  0  0  0  0
  1 21  1  0  0  0  0
  1 22  1  0  0  0  0
  1 23  1  0  0  0  0
  2  3  1  0  0  0  0
  3  4  1  0  0  0  0
  3 24  1  0  0  0  0
  3 25  1  0  0  0  0
  4  5  1  0  0  0  0
  4 26  1  0  0  0  0
  4 27  1  0  0  0  0
  5 13  1  0  0  0  0
  5  6  1  0  0  0  0
  6  7  1  0  0  0  0
  6 11  2  0  0  0  0
  7  8  1  0  0  0  0
  7 28  1  0  0  0  0
  8  9  1  0  0  0  0
  8 29  1  0  0  0  0
  8 30  1  0  0  0  0
  9 10  1  0  0  0  0
  9 31  1  0  0  0  0
  9 32  1  0  0  0  0
 10 33  1  0  0  0  0
 11 12  1  0  0  0  0
 12 19  1  0  0  0  0
 12 13  2  0  0  0  0
 13 14  1  0  0  0  0
 14 15  2  0  0  0  0
 14 16  1  0  0  0  0
 16 17  1  0  0  0  0
 17 18  2  0  0  0  0
 17 19  1  0  0  0  0
 19 20  1  0  0  0  0
 20 34  1  0  0  0  0
 20 35  1  0  0  0  0
 20 36  1  0  0  0  0
M  CHG  1  16  -1
M  END
> <s_m_source_file>
AV-unprocessed.smi

> <i_m_source_file_index>
505

> <i_lp_mmshare_version>
43012

> <i_f3d_flags>
0

> <s_epik_input>
W09IXVtDSDJdW0NIMl1bTkhdYyhuMSluKFtDSDJdW0NIMl1PW0NIM10pYyhjMTIpYyg9TylbbkhdYyg9TyluMltDSDNd

> <s_epik_cmdline>
J2VwaWtfcHl0aG9uJywgJy1waCcsICc3LjAnLCAnLXRuJywgJzgnLCAnLW1hJywgJzIwMCcsICctbWV0YWxfYmluZGluZycsICctaW1hZScsICc8aW5maWxlLm1hZT4nLCAnLW9tYWUnLCAnPG91dGZpbGUubWFlPic=

> <r_lp_tautomer_probability>
1

> <r_epik_Ionization_Penalty>
5.9232

> <r_epik_Ionization_Penalty_Charging>
1.43987e-08

> <r_epik_Ionization_Penalty_Neutral>
5.9232

> <r_epik_State_Penalty>
5.92302

> <r_epik_Charging_Adjusted_Penalty>
5.92302

> <i_epik_Tot_Q>
-1

> <i_epik_Tot_abs_Q>
1

> <r_epik_Metal_State_Penalty>
1.88194

> <b_epik_Metal_Only>
1

> <s_lp_Force_Field>
OPLS_2005

> <r_lp_Energy>
27.5321

> <b_lp_Chiralities_Consistent>
1

> <s_lp_Variant>
AV-unprocessed.smi:505-2

> <Gold.Version>
5.8.1

> <Gold.Id.Protein>
6NUR|6NUR_protein|mol2

> <Gold.PLP.Fitness>
45.0295

> <Gold.PLP.PLP>
-35.7896

> <Gold.PLP.part.hbond>
-5.0000

> <Gold.PLP.part.metal>
0.0000

> <Gold.PLP.part.buried>
-6.2655

> <Gold.PLP.part.nonpolar>
-23.8856

> <Gold.PLP.part.repulsive>
0.1516

> <Gold.PLP.ligand.clash>
0.0000

> <Gold.PLP.ligand.torsion>
0.7316

> <Gold.PLP.Chemscore.Hbond>
3.5600

> <Gold.PLP.Chemscore.CHOScore>
0.0000

> <Gold.PLP.Chemscore.Metal>
0.0000

> <Gold.Chemscore.Hbonds>
donor molecule, donor type, donor heavy atom, donor atom, acceptor molecule, acceptor atom, score
      L1  H     7    28       P1  8028  0.94
      L1  H    10    33       P1  7957  0.62
      P1  H  6896  6908       L1    18  1.00
      P1  H  8011  8017       L1    10  0.96

> <Gold.PLP.Chemscore.Internal.Correction>
0.0231

> <Gold.Rescore>
     Score         DG    S(hbond)    S(metal)    S(lipo)     H(rot)  DE(clash)    DE(int)     intcor
     13.01     -13.83       2.95        0.00      53.30       3.02       0.12       0.70       ----

> <Gold.Chemscore.Fitness>
13.0075

> <Gold.Chemscore.DG>
-13.8290

> <Gold.Chemscore.ZeroCoef>
-5.4800

> <Gold.Chemscore.Hbond>
2.9460

> <Gold.Chemscore.Metal>
0.0000

> <Gold.Chemscore.Lipo>
53.2972

> <Gold.Chemscore.Internal_Hbond>
0.0000

> <Gold.Chemscore.DEClash>
0.1214

> <Gold.Chemscore.DEInternal>
0.7001

> <Gold.Chemscore.Rot>
3.0181

> <Gold.Chemscore.Internal.Correction>
   9.000000E+99

> <Gold.Chemscore.Hbonds>
donor molecule, donor type, donor heavy atom, donor atom, acceptor molecule, acceptor atom, score
      L1  H     7    28       P1  8028  0.91
      L1  H    10    33       P1  7957  0.60
      P1  H  6896  6908       L1    18  1.00
      P1  H  8011  8017       L1    10  0.07

> <Gold.Chemscore.Hbond.Weighted>
-9.8397

> <Gold.Chemscore.Metal.Weighted>
-0.0000

> <Gold.Chemscore.Lipo.Weighted>
-6.2358

> <Gold.Chemscore.Internal_Hbond.Weighted>
0.0000

> <Gold.Chemscore.DEClash.Weighted>
0.1214

> <Gold.Chemscore.DEInternal.Weighted>
0.7001

> <Gold.Chemscore.Rot.Weighted>
7.7264

> <Gold.Chemscore.Internal.Correction.Weighted>
   9.000000E+99

> <Gold.Protein.RotatedTorsions>
[ 6907 6896 6895 6894 ] final -107.48 input  -60.11 | X-H torsion
[ 7974 7965 7964 7962 ] final  -61.65 input  175.53 | X-H torsion
[ 8008 7997 7996 7995 ] final  149.59 input   59.86 | X-H torsion
[ 10167 10162 10161 10158 ] final  -53.49 input  -65.29 | X-H torsion
[ 10718 10713 10712 10709 ] final  102.96 input   66.30 | X-H torsion
[ 10763 10752 10751 10750 ] final -102.91 input  -60.55 | X-H torsion
[ 11005 11000 10999 10996 ] final  -90.06 input  -57.11 | X-H torsion

> <Gold.Protein.ActiveResidues>
 VAL166  LYS551  ARG553  GLY616  TRP617  ASP618  TYR619  PRO620  LYS621  CYS622 
 ASP623  PHE694  ASN695  SER759  ASP760  ASP761  ALA762  ILE779  LEU786  VAL792 
 PHE793  MET794  SER795  GLU796  ALA797  LYS798  CYS799  TRP800  GLU811  SER814 

> <Gold.Protein.RotatedAtoms>
  150.7446  133.9820  159.3579 H   0  0  0  0  0  0  0  0  0  0  0  0  # atno 6907 bound_to 6896
  151.7762  135.0771  160.0376 H   0  0  0  0  0  0  0  0  0  0  0  0  # atno 6908 bound_to 6896
  152.3305  133.5916  159.5842 H   0  0  0  0  0  0  0  0  0  0  0  0  # atno 6909 bound_to 6896
  145.8009  140.8656  143.0232 H   0  0  0  0  0  0  0  0  0  0  0  0  # atno 7974 bound_to 7965
  156.2749  140.2098  156.5882 H   0  0  0  0  0  0  0  0  0  0  0  0  # atno 8008 bound_to 7997
  154.7004  140.0521  157.0475 H   0  0  0  0  0  0  0  0  0  0  0  0  # atno 8009 bound_to 7997
  155.0743  140.3180  155.4624 H   0  0  0  0  0  0  0  0  0  0  0  0  # atno 8010 bound_to 7997
  140.6482  143.2548  151.4800 H   0  0  0  0  0  0  0  0  0  0  0  0  # atno 10167 bound_to 10162
  157.6787  131.0767  150.5484 H   0  0  0  0  0  0  0  0  0  0  0  0  # atno 10718 bound_to 10713
  154.7769  135.4843  153.9762 H   0  0  0  0  0  0  0  0  0  0  0  0  # atno 10763 bound_to 10752
  153.1440  135.6778  153.8990 H   0  0  0  0  0  0  0  0  0  0  0  0  # atno 10764 bound_to 10752
  153.8655  135.3150  155.3418 H   0  0  0  0  0  0  0  0  0  0  0  0  # atno 10765 bound_to 10752
  141.1573  133.7668  156.9683 H   0  0  0  0  0  0  0  0  0  0  0  0  # atno 11005 bound_to 11000
  144.6769  140.0257  143.7483 LP  0  0  0  0  0  0  0  0  0  0  0  0  # atno 17320 bound_to 7965
  145.9879  139.2992  143.1002 LP  0  0  0  0  0  0  0  0  0  0  0  0  # atno 17321 bound_to 7965
  139.5694  144.1964  152.1814 LP  0  0  0  0  0  0  0  0  0  0  0  0  # atno 17342 bound_to 10162
  140.1256  144.5334  150.6835 LP  0  0  0  0  0  0  0  0  0  0  0  0  # atno 17343 bound_to 10162
  156.5789  130.4299  149.5986 LP  0  0  0  0  0  0  0  0  0  0  0  0  # atno 17370 bound_to 10713
  156.2678  130.6999  151.1788 LP  0  0  0  0  0  0  0  0  0  0  0  0  # atno 17371 bound_to 10713
  140.1146  134.9455  157.2116 LP  0  0  0  0  0  0  0  0  0  0  0  0  # atno 17394 bound_to 11000
  140.3149  134.2981  155.7258 LP  0  0  0  0  0  0  0  0  0  0  0  0  # atno 17395 bound_to 11000

$$$$
