AV-unprocessed.smi:2837|AV-procd|sdf|10925|dock2
  -GOLD-   2272015373D 1   1.00000     0.00000
 Structure written by MMmdl.
 33 35  0  0  0  0  0  0  0  0  2 V2000
  137.6986  137.4322  156.1988 F   0  0  0  0  0  0  0  0  0  0  0  0
  137.1598  137.2714  154.9664 C   0  0  0  0  0  0  0  0  0  0  0  0
  135.8347  137.5410  155.0612 F   0  0  0  0  0  0  0  0  0  0  0  0
  137.7562  138.1232  154.0903 O   0  0  0  0  0  0  0  0  0  0  0  0
  139.0959  137.9756  153.8125 C   0  0  0  0  0  0  0  0  0  0  0  0
  139.6945  136.7208  154.0502 C   0  0  0  0  0  0  0  0  0  0  0  0
  141.0677  136.5358  153.7891 C   0  0  0  0  0  0  0  0  0  0  0  0
  141.8343  137.6196  153.2993 C   0  0  0  0  0  0  0  0  0  0  0  0
  143.2031  137.5565  153.0036 N   0  0  0  0  0  0  0  0  0  0  0  0
  143.9614  136.3243  153.1867 C   0  0  1  0  0  0  0  0  0  0  0  0
  143.5542  135.2195  152.2086 C   0  0  0  0  0  0  0  0  0  0  0  0
  144.9049  134.8312  151.5907 C   0  0  1  0  0  0  0  0  0  0  0  0
  145.3885  135.8852  150.5868 C   0  0  0  0  0  0  0  0  0  0  0  0
  145.7959  137.0302  151.5118 C   0  0  0  0  0  0  0  0  0  0  0  0
  145.4714  136.4506  152.8995 C   0  0  2  0  0  0  0  0  0  0  0  0
  145.7825  135.0863  152.6750 O   0  0  0  0  0  0  0  0  0  0  0  0
  141.2264  138.8090  153.0946 N   0  3  0  0  0  0  0  0  0  0  0  0
  139.9139  139.0256  153.3303 C   0  0  0  0  0  0  0  0  0  0  0  0
  137.3000  136.2303  154.6746 H   0  0  0  0  0  0  0  0  0  0  0  0
  139.1013  135.9011  154.4283 H   0  0  0  0  0  0  0  0  0  0  0  0
  141.5080  135.5667  153.9687 H   0  0  0  0  0  0  0  0  0  0  0  0
  143.7146  138.4113  152.8381 H   0  0  0  0  0  0  0  0  0  0  0  0
  143.8098  135.9534  154.2011 H   0  0  0  0  0  0  0  0  0  0  0  0
  143.1180  134.3789  152.7494 H   0  0  0  0  0  0  0  0  0  0  0  0
  142.8377  135.5413  151.4514 H   0  0  0  0  0  0  0  0  0  0  0  0
  144.9414  133.8098  151.2112 H   0  0  0  0  0  0  0  0  0  0  0  0
  146.2507  135.5217  150.0264 H   0  0  0  0  0  0  0  0  0  0  0  0
  144.6128  136.1696  149.8749 H   0  0  0  0  0  0  0  0  0  0  0  0
  146.8648  137.2258  151.4205 H   0  0  0  0  0  0  0  0  0  0  0  0
  145.2667  137.9592  151.2994 H   0  0  0  0  0  0  0  0  0  0  0  0
  146.0424  136.9054  153.7090 H   0  0  0  0  0  0  0  0  0  0  0  0
  139.5694  140.0298  153.1299 H   0  0  0  0  0  0  0  0  0  0  0  0
  141.7868  139.5874  152.7464 H   0  0  0  0  0  0  0  0  0  0  0  0
  1  2  1  0  0  0  0
  2  3  1  0  0  0  0
  2  4  1  0  0  0  0
  2 19  1  0  0  0  0
  4  5  1  0  0  0  0
  5 18  1  0  0  0  0
  5  6  2  0  0  0  0
  6  7  1  0  0  0  0
  6 20  1  0  0  0  0
  7  8  2  0  0  0  0
  7 21  1  0  0  0  0
  8  9  1  0  0  0  0
  8 17  1  0  0  0  0
  9 10  1  0  0  0  0
  9 22  1  0  0  0  0
 10 15  1  0  0  0  0
 10 11  1  0  0  0  0
 10 23  1  0  0  0  0
 11 12  1  0  0  0  0
 11 24  1  0  0  0  0
 11 25  1  0  0  0  0
 12 16  1  0  0  0  0
 12 13  1  0  0  0  0
 12 26  1  0  0  0  0
 13 14  1  0  0  0  0
 13 27  1  0  0  0  0
 13 28  1  0  0  0  0
 14 15  1  0  0  0  0
 14 29  1  0  0  0  0
 14 30  1  0  0  0  0
 15 16  1  0  0  0  0
 15 31  1  0  0  0  0
 17 18  2  0  0  0  0
 17 33  1  0  0  0  0
 18 32  1  0  0  0  0
M  CHG  1  17   1
M  END
> <s_m_source_file>
AV-unprocessed.smi

> <i_m_source_file_index>
2837

> <i_lp_mmshare_version>
43012

> <i_f3d_flags>
0

> <s_epik_input>
RltDSF0oRilPYzFbY0hdW2NIXWMobltjSF0xKVtOSF1bQ0BIXShbQ0gyXVtDQEBIXTIzKVtDQEBIXShPMylbQ0gyXVtDSDJdMg==

> <s_epik_cmdline>
J2VwaWtfcHl0aG9uJywgJy1waCcsICc3LjAnLCAnLXRuJywgJzgnLCAnLW1hJywgJzIwMCcsICctbWV0YWxfYmluZGluZycsICctaW1hZScsICc8aW5maWxlLm1hZT4nLCAnLW9tYWUnLCAnPG91dGZpbGUubWFlPic=

> <r_lp_tautomer_probability>
0.999429

> <r_epik_Ionization_Penalty>
2.29716

> <r_epik_Ionization_Penalty_Charging>
2.29716

> <r_epik_Ionization_Penalty_Neutral>
1.42285e-06

> <r_epik_State_Penalty>
2.44762

> <r_epik_Charging_Adjusted_Penalty>
4.74478

> <i_epik_Tot_Q>
1

> <i_epik_Tot_abs_Q>
1

> <r_epik_Metal_State_Penalty>
6.53078

> <b_epik_Metal_Only>
0

> <s_lp_Force_Field>
OPLS_2005

> <r_lp_Energy>
46.8356

> <b_lp_Chiralities_Consistent>
1

> <s_lp_Variant>
AV-unprocessed.smi:2837-6

> <Gold.Version>
5.8.1

> <Gold.Id.Protein>
6NUR|6NUR_protein|mol2

> <Gold.PLP.Fitness>
42.8683

> <Gold.PLP.PLP>
-31.9244

> <Gold.PLP.part.hbond>
-3.0000

> <Gold.PLP.part.metal>
0.0000

> <Gold.PLP.part.buried>
-1.4310

> <Gold.PLP.part.nonpolar>
-28.1593

> <Gold.PLP.part.repulsive>
0.1899

> <Gold.PLP.ligand.clash>
0.0000

> <Gold.PLP.ligand.torsion>
0.3660

> <Gold.PLP.Chemscore.Hbond>
3.8880

> <Gold.PLP.Chemscore.CHOScore>
0.0000

> <Gold.PLP.Chemscore.Metal>
0.0000

> <Gold.Chemscore.Hbonds>
donor molecule, donor type, donor heavy atom, donor atom, acceptor molecule, acceptor atom, score
      L1  H     9    22       P1 10175  1.75
      L1  H    17    33       P1 10175  2.00

> <Gold.PLP.Chemscore.Internal.Correction>
0.0119

> <Gold.Rescore>
     Score         DG    S(hbond)    S(metal)    S(lipo)     H(rot)  DE(clash)    DE(int)     intcor
     13.33     -14.11       1.39        0.00      63.31       1.34       0.40       0.38       ----

> <Gold.Chemscore.Fitness>
13.3297

> <Gold.Chemscore.DG>
-14.1054

> <Gold.Chemscore.ZeroCoef>
-5.4800

> <Gold.Chemscore.Hbond>
1.3892

> <Gold.Chemscore.Metal>
0.0000

> <Gold.Chemscore.Lipo>
63.3144

> <Gold.Chemscore.Internal_Hbond>
0.0000

> <Gold.Chemscore.DEClash>
0.3956

> <Gold.Chemscore.DEInternal>
0.3801

> <Gold.Chemscore.Rot>
1.3368

> <Gold.Chemscore.Internal.Correction>
   9.000000E+99

> <Gold.Chemscore.Hbonds>
donor molecule, donor type, donor heavy atom, donor atom, acceptor molecule, acceptor atom, score
      L1  H     9    22       P1 10175  0.81
      L1  H    17    33       P1 10175  0.32

> <Gold.Chemscore.Hbond.Weighted>
-4.6399

> <Gold.Chemscore.Metal.Weighted>
-0.0000

> <Gold.Chemscore.Lipo.Weighted>
-7.4078

> <Gold.Chemscore.Internal_Hbond.Weighted>
0.0000

> <Gold.Chemscore.DEClash.Weighted>
0.3956

> <Gold.Chemscore.DEInternal.Weighted>
0.3801

> <Gold.Chemscore.Rot.Weighted>
3.4223

> <Gold.Chemscore.Internal.Correction.Weighted>
   9.000000E+99

> <Gold.Protein.RotatedTorsions>
[ 6907 6896 6895 6894 ] final  113.38 input  -60.11 | X-H torsion
[ 7974 7965 7964 7962 ] final   66.30 input  175.53 | X-H torsion
[ 8008 7997 7996 7995 ] final  105.79 input   59.86 | X-H torsion
[ 10167 10162 10161 10158 ] final  -60.39 input  -65.29 | X-H torsion
[ 10718 10713 10712 10709 ] final  -26.11 input   66.30 | X-H torsion
[ 10763 10752 10751 10750 ] final  168.28 input  -60.55 | X-H torsion
[ 11005 11000 10999 10996 ] final    5.64 input  -57.11 | X-H torsion

> <Gold.Protein.ActiveResidues>
 VAL166  LYS551  ARG553  GLY616  TRP617  ASP618  TYR619  PRO620  LYS621  CYS622 
 ASP623  PHE694  ASN695  SER759  ASP760  ASP761  ALA762  ILE779  LEU786  VAL792 
 PHE793  MET794  SER795  GLU796  ALA797  LYS798  CYS799  TRP800  GLU811  SER814 

> <Gold.Protein.RotatedAtoms>
  152.4864  133.8383  159.7139 H   0  0  0  0  0  0  0  0  0  0  0  0  # atno 6907 bound_to 6896
  150.8954  133.7179  159.2900 H   0  0  0  0  0  0  0  0  0  0  0  0  # atno 6908 bound_to 6896
  151.4638  135.1044  159.9784 H   0  0  0  0  0  0  0  0  0  0  0  0  # atno 6909 bound_to 6896
  145.8282  139.3123  143.1003 H   0  0  0  0  0  0  0  0  0  0  0  0  # atno 7974 bound_to 7965
  156.1689  140.3124  155.8937 H   0  0  0  0  0  0  0  0  0  0  0  0  # atno 8008 bound_to 7997
  155.3629  140.0477  157.3063 H   0  0  0  0  0  0  0  0  0  0  0  0  # atno 8009 bound_to 7997
  154.5220  140.2201  155.8969 H   0  0  0  0  0  0  0  0  0  0  0  0  # atno 8010 bound_to 7997
  140.6074  143.2377  151.5788 H   0  0  0  0  0  0  0  0  0  0  0  0  # atno 10167 bound_to 10162
  156.4555  130.4493  149.6962 H   0  0  0  0  0  0  0  0  0  0  0  0  # atno 10718 bound_to 10713
  154.3662  135.2753  155.2292 H   0  0  0  0  0  0  0  0  0  0  0  0  # atno 10763 bound_to 10752
  154.4459  135.5943  153.6163 H   0  0  0  0  0  0  0  0  0  0  0  0  # atno 10764 bound_to 10752
  152.9840  135.6030  154.3888 H   0  0  0  0  0  0  0  0  0  0  0  0  # atno 10765 bound_to 10752
  140.5684  134.0125  155.7999 H   0  0  0  0  0  0  0  0  0  0  0  0  # atno 11005 bound_to 11000
  145.9600  140.8843  143.0215 LP  0  0  0  0  0  0  0  0  0  0  0  0  # atno 17320 bound_to 7965
  144.6742  140.1799  143.7406 LP  0  0  0  0  0  0  0  0  0  0  0  0  # atno 17321 bound_to 7965
  139.5335  144.2847  152.1201 LP  0  0  0  0  0  0  0  0  0  0  0  0  # atno 17342 bound_to 10162
  140.2039  144.4630  150.6418 LP  0  0  0  0  0  0  0  0  0  0  0  0  # atno 17343 bound_to 10162
  156.3771  130.7560  151.2549 LP  0  0  0  0  0  0  0  0  0  0  0  0  # atno 17370 bound_to 10713
  157.7500  131.0306  150.4146 LP  0  0  0  0  0  0  0  0  0  0  0  0  # atno 17371 bound_to 10713
  141.1071  133.9676  157.2977 LP  0  0  0  0  0  0  0  0  0  0  0  0  # atno 17394 bound_to 11000
  139.9373  135.0195  156.8598 LP  0  0  0  0  0  0  0  0  0  0  0  0  # atno 17395 bound_to 11000

$$$$
