AV-unprocessed.smi:2061|AV-procd|sdf|8373|dock7
  -GOLD-   2272011 43D 1   1.00000     0.00000
 Structure written by MMmdl.
 46 47  0  0  0  0  0  0  0  0  2 V2000
  148.3305  124.4283  151.8662 C   0  0  0  0  0  0  0  0  0  0  0  0
  148.3131  125.8324  152.3661 C   0  0  0  0  0  0  0  0  0  0  0  0
  148.4046  127.0435  151.7399 C   0  0  0  0  0  0  0  0  0  0  0  0
  148.3182  127.9667  152.8156 C   0  0  0  0  0  0  0  0  0  0  0  0
  148.3777  129.3640  152.5810 N   0  0  0  0  0  0  0  0  0  0  0  0
  148.4360  130.3456  153.4965 C   0  0  0  0  0  0  0  0  0  0  0  0
  148.4276  130.1817  154.7171 O   0  0  0  0  0  0  0  0  0  0  0  0
  148.5150  131.5518  152.9159 N   0  0  0  0  0  0  0  0  0  0  0  0
  148.6163  132.8175  153.6368 C   0  0  0  0  0  0  0  0  0  0  0  0
  147.2611  133.5691  153.7462 C   0  0  1  0  0  0  0  0  0  0  0  0
  147.2568  134.4656  155.0084 C   0  0  0  0  0  0  0  0  0  0  0  0
  146.9756  134.3301  152.4826 N   0  3  1  0  0  0  0  0  0  0  0  0
  146.9401  133.4924  151.2517 C   0  0  0  0  0  0  0  0  0  0  0  0
  145.6156  132.7040  151.1339 C   0  0  2  0  0  0  0  0  0  0  0  0
  145.5243  131.9309  149.8135 C   0  0  0  0  0  0  0  0  0  0  0  0
  144.5190  133.6111  151.1883 O   0  0  0  0  0  0  0  0  0  0  0  0
  144.4793  134.3685  152.3932 C   0  0  2  0  0  0  0  0  0  0  0  0
  143.2245  135.2473  152.3610 C   0  0  0  0  0  0  0  0  0  0  0  0
  145.7717  135.2049  152.4867 C   0  0  0  0  0  0  0  0  0  0  0  0
  148.1862  127.3734  153.9921 N   0  0  0  0  0  0  0  0  0  0  0  0
  148.1810  126.0022  153.7099 O   0  0  0  0  0  0  0  0  0  0  0  0
  148.6510  124.3894  150.8250 H   0  0  0  0  0  0  0  0  0  0  0  0
  147.3374  123.9835  151.9309 H   0  0  0  0  0  0  0  0  0  0  0  0
  149.0153  123.8159  152.4529 H   0  0  0  0  0  0  0  0  0  0  0  0
  148.5161  127.2344  150.6828 H   0  0  0  0  0  0  0  0  0  0  0  0
  148.3885  129.6440  151.6115 H   0  0  0  0  0  0  0  0  0  0  0  0
  148.5107  131.5985  151.9072 H   0  0  0  0  0  0  0  0  0  0  0  0
  148.9996  132.6048  154.6353 H   0  0  0  0  0  0  0  0  0  0  0  0
  149.3811  133.4133  153.1415 H   0  0  0  0  0  0  0  0  0  0  0  0
  146.4682  132.8356  153.8864 H   0  0  0  0  0  0  0  0  0  0  0  0
  147.5235  133.9069  155.9053 H   0  0  0  0  0  0  0  0  0  0  0  0
  146.2705  134.8821  155.2111 H   0  0  0  0  0  0  0  0  0  0  0  0
  147.9655  135.2891  154.9150 H   0  0  0  0  0  0  0  0  0  0  0  0
  147.0358  134.1585  150.3928 H   0  0  0  0  0  0  0  0  0  0  0  0
  147.7897  132.8166  151.1876 H   0  0  0  0  0  0  0  0  0  0  0  0
  145.5253  131.9867  151.9501 H   0  0  0  0  0  0  0  0  0  0  0  0
  146.3368  131.2095  149.7242 H   0  0  0  0  0  0  0  0  0  0  0  0
  145.5776  132.6028  148.9565 H   0  0  0  0  0  0  0  0  0  0  0  0
  144.5847  131.3818  149.7471 H   0  0  0  0  0  0  0  0  0  0  0  0
  144.4030  133.6909  153.2448 H   0  0  0  0  0  0  0  0  0  0  0  0
  143.1410  135.8450  153.2689 H   0  0  0  0  0  0  0  0  0  0  0  0
  142.3240  134.6375  152.2817 H   0  0  0  0  0  0  0  0  0  0  0  0
  143.2407  135.9297  151.5106 H   0  0  0  0  0  0  0  0  0  0  0  0
  145.7538  135.8835  153.3379 H   0  0  0  0  0  0  0  0  0  0  0  0
  145.8313  135.8598  151.6159 H   0  0  0  0  0  0  0  0  0  0  0  0
  147.7608  134.9569  152.3784 H   0  0  0  0  0  0  0  0  0  0  0  0
  1  2  1  0  0  0  0
  1 22  1  0  0  0  0
  1 23  1  0  0  0  0
  1 24  1  0  0  0  0
  2 21  1  0  0  0  0
  2  3  2  0  0  0  0
  3  4  1  0  0  0  0
  3 25  1  0  0  0  0
  4  5  1  0  0  0  0
  4 20  2  0  0  0  0
  5  6  1  0  0  0  0
  5 26  1  0  0  0  0
  6  7  2  0  0  0  0
  6  8  1  0  0  0  0
  8  9  1  0  0  0  0
  8 27  1  0  0  0  0
  9 10  1  0  0  0  0
  9 28  1  0  0  0  0
  9 29  1  0  0  0  0
 10 11  1  0  0  0  0
 10 12  1  0  0  0  0
 10 30  1  0  0  0  0
 11 31  1  0  0  0  0
 11 32  1  0  0  0  0
 11 33  1  0  0  0  0
 12 19  1  0  0  0  0
 12 13  1  0  0  0  0
 12 46  1  0  0  0  0
 13 14  1  0  0  0  0
 13 34  1  0  0  0  0
 13 35  1  0  0  0  0
 14 15  1  0  0  0  0
 14 16  1  0  0  0  0
 14 36  1  0  0  0  0
 15 37  1  0  0  0  0
 15 38  1  0  0  0  0
 15 39  1  0  0  0  0
 16 17  1  0  0  0  0
 17 18  1  0  0  0  0
 17 19  1  0  0  0  0
 17 40  1  0  0  0  0
 18 41  1  0  0  0  0
 18 42  1  0  0  0  0
 18 43  1  0  0  0  0
 19 44  1  0  0  0  0
 19 45  1  0  0  0  0
 20 21  1  0  0  0  0
M  CHG  1  12   1
M  END
> <s_m_source_file>
AV-unprocessed.smi

> <i_m_source_file_index>
2061

> <i_lp_mmshare_version>
43012

> <i_f3d_flags>
0

> <s_epik_input>
W0NIM11jMVtjSF1jKG5vMSlbTkhdQyg9TylbTkhdW0NIMl1bQ0BIXShbQ0gzXSlOMltDSDJdW0NAQEhdKFtDSDNdKU9bQ0BASF0oW0NIM10pW0NIMl0y

> <s_epik_cmdline>
J2VwaWtfcHl0aG9uJywgJy1waCcsICc3LjAnLCAnLXRuJywgJzgnLCAnLW1hJywgJzIwMCcsICctbWV0YWxfYmluZGluZycsICctaW1hZScsICc8aW5maWxlLm1hZT4nLCAnLW9tYWUnLCAnPG91dGZpbGUubWFlPic=

> <r_epik_Ionization_Penalty>
0.707076

> <r_epik_Ionization_Penalty_Charging>
0.707039

> <r_epik_Ionization_Penalty_Neutral>
3.6548e-05

> <r_epik_State_Penalty>
0.730276

> <r_epik_Charging_Adjusted_Penalty>
1.43732

> <i_epik_Tot_Q>
1

> <i_epik_Tot_abs_Q>
1

> <r_epik_Metal_State_Penalty>
0.743132

> <b_epik_Metal_Only>
0

> <s_lp_Force_Field>
OPLS_2005

> <r_lp_Energy>
17.8186

> <b_lp_Chiralities_Consistent>
1

> <s_lp_Variant>
AV-unprocessed.smi:2061-14

> <Gold.Version>
5.8.1

> <Gold.Id.Protein>
6NUR|6NUR_protein|mol2

> <Gold.PLP.Fitness>
42.0162

> <Gold.PLP.PLP>
-30.9298

> <Gold.PLP.part.hbond>
-3.0000

> <Gold.PLP.part.metal>
0.0000

> <Gold.PLP.part.buried>
-4.5338

> <Gold.PLP.part.nonpolar>
-22.8738

> <Gold.PLP.part.repulsive>
0.3073

> <Gold.PLP.ligand.clash>
0.0000

> <Gold.PLP.ligand.torsion>
0.4472

> <Gold.PLP.Chemscore.Hbond>
3.9760

> <Gold.PLP.Chemscore.CHOScore>
0.0000

> <Gold.PLP.Chemscore.Metal>
0.0000

> <Gold.Chemscore.Hbonds>
donor molecule, donor type, donor heavy atom, donor atom, acceptor molecule, acceptor atom, score
      L1  H     5    26       P1 10747  0.99
      L1  H     8    27       P1 10747  0.98
      L1  H    12    46       P1  7948  2.00

> <Gold.PLP.Chemscore.Internal.Correction>
0.0528

> <Gold.Rescore>
     Score         DG    S(hbond)    S(metal)    S(lipo)     H(rot)  DE(clash)    DE(int)     intcor
     15.09     -16.91       2.45        0.00      62.56       1.58       0.00       1.82       ----

> <Gold.Chemscore.Fitness>
15.0948

> <Gold.Chemscore.DG>
-16.9120

> <Gold.Chemscore.ZeroCoef>
-5.4800

> <Gold.Chemscore.Hbond>
2.4450

> <Gold.Chemscore.Metal>
0.0000

> <Gold.Chemscore.Lipo>
62.5555

> <Gold.Chemscore.Internal_Hbond>
0.0000

> <Gold.Chemscore.DEClash>
0.0004

> <Gold.Chemscore.DEInternal>
1.8167

> <Gold.Chemscore.Rot>
1.5834

> <Gold.Chemscore.Internal.Correction>
   9.000000E+99

> <Gold.Chemscore.Hbonds>
donor molecule, donor type, donor heavy atom, donor atom, acceptor molecule, acceptor atom, score
      L1  H     5    26       P1 10747  0.37
      L1  H     8    27       P1 10747  0.93
      L1  H    12    46       P1  7948  0.91

> <Gold.Chemscore.Hbond.Weighted>
-8.1664

> <Gold.Chemscore.Metal.Weighted>
-0.0000

> <Gold.Chemscore.Lipo.Weighted>
-7.3190

> <Gold.Chemscore.Internal_Hbond.Weighted>
0.0000

> <Gold.Chemscore.DEClash.Weighted>
0.0004

> <Gold.Chemscore.DEInternal.Weighted>
1.8167

> <Gold.Chemscore.Rot.Weighted>
4.0535

> <Gold.Chemscore.Internal.Correction.Weighted>
   9.000000E+99

> <Gold.Protein.RotatedTorsions>
[ 6907 6896 6895 6894 ] final   96.51 input  -60.11 | X-H torsion
[ 7974 7965 7964 7962 ] final  115.80 input  175.53 | X-H torsion
[ 8008 7997 7996 7995 ] final   -2.25 input   59.86 | X-H torsion
[ 10167 10162 10161 10158 ] final    7.21 input  -65.29 | X-H torsion
[ 10718 10713 10712 10709 ] final  130.70 input   66.30 | X-H torsion
[ 10763 10752 10751 10750 ] final    3.82 input  -60.55 | X-H torsion
[ 11005 11000 10999 10996 ] final   17.34 input  -57.11 | X-H torsion

> <Gold.Protein.ActiveResidues>
 VAL166  LYS551  ARG553  GLY616  TRP617  ASP618  TYR619  PRO620  LYS621  CYS622 
 ASP623  PHE694  ASN695  SER759  ASP760  ASP761  ALA762  ILE779  LEU786  VAL792 
 PHE793  MET794  SER795  GLU796  ALA797  LYS798  CYS799  TRP800  GLU811  SER814 

> <Gold.Protein.RotatedAtoms>
  152.5434  134.0876  159.8262 H   0  0  0  0  0  0  0  0  0  0  0  0  # atno 6907 bound_to 6896
  151.0969  133.5265  159.2619 H   0  0  0  0  0  0  0  0  0  0  0  0  # atno 6908 bound_to 6896
  151.2035  135.0461  159.8936 H   0  0  0  0  0  0  0  0  0  0  0  0  # atno 6909 bound_to 6896
  145.1875  139.3017  143.4385 H   0  0  0  0  0  0  0  0  0  0  0  0  # atno 7974 bound_to 7965
  154.6378  140.2539  155.7357 H   0  0  0  0  0  0  0  0  0  0  0  0  # atno 8008 bound_to 7997
  156.2513  140.2893  156.0679 H   0  0  0  0  0  0  0  0  0  0  0  0  # atno 8009 bound_to 7997
  155.1643  140.0385  157.2839 H   0  0  0  0  0  0  0  0  0  0  0  0  # atno 8010 bound_to 7997
  140.6384  143.7831  150.7393 H   0  0  0  0  0  0  0  0  0  0  0  0  # atno 10167 bound_to 10162
  157.5037  131.1095  150.9391 H   0  0  0  0  0  0  0  0  0  0  0  0  # atno 10718 bound_to 10713
  153.2787  135.6939  153.7407 H   0  0  0  0  0  0  0  0  0  0  0  0  # atno 10763 bound_to 10752
  153.6402  135.3394  155.3070 H   0  0  0  0  0  0  0  0  0  0  0  0  # atno 10764 bound_to 10752
  154.8488  135.4430  154.1834 H   0  0  0  0  0  0  0  0  0  0  0  0  # atno 10765 bound_to 10752
  140.4370  134.1361  155.7686 H   0  0  0  0  0  0  0  0  0  0  0  0  # atno 11005 bound_to 11000
  146.3442  140.2077  142.8590 LP  0  0  0  0  0  0  0  0  0  0  0  0  # atno 17320 bound_to 7965
  145.0074  140.8684  143.5245 LP  0  0  0  0  0  0  0  0  0  0  0  0  # atno 17321 bound_to 7965
  140.1458  143.4401  152.2164 LP  0  0  0  0  0  0  0  0  0  0  0  0  # atno 17342 bound_to 10162
  139.5594  144.7395  151.4199 LP  0  0  0  0  0  0  0  0  0  0  0  0  # atno 17343 bound_to 10162
  157.0054  130.5616  149.5315 LP  0  0  0  0  0  0  0  0  0  0  0  0  # atno 17370 bound_to 10713
  156.0245  130.5339  150.8367 LP  0  0  0  0  0  0  0  0  0  0  0  0  # atno 17371 bound_to 10713
  141.1722  133.8587  157.1536 LP  0  0  0  0  0  0  0  0  0  0  0  0  # atno 17394 bound_to 11000
  140.0095  134.9994  157.0366 LP  0  0  0  0  0  0  0  0  0  0  0  0  # atno 17395 bound_to 11000

$$$$
