AV-unprocessed.smi:1493|AV-procd|sdf|6050|dock3
  -GOLD-   22720 6163D 1   1.00000     0.00000
 Structure written by MMmdl.
 34 34  0  0  0  0  0  0  0  0  1 V2000
  152.7992  142.8083  162.0491 C   0  0  0  0  0  0  0  0  0  0  0  0
  152.4068  143.7904  160.9402 C   0  0  0  0  0  0  0  0  0  0  0  0
  151.8022  143.0823  159.7147 C   0  0  0  0  0  0  0  0  0  0  0  0
  151.6799  143.9824  158.4702 C   0  0  2  0  0  0  0  0  0  0  0  0
  150.9747  145.3077  158.8024 C   0  0  0  0  0  0  0  0  0  0  0  0
  150.9616  143.2762  157.4139 N   0  0  0  0  0  0  0  0  0  0  0  0
  151.1254  141.9872  157.0706 C   0  0  0  0  0  0  0  0  0  0  0  0
  151.9503  141.2525  157.6129 O   0  0  0  0  0  0  0  0  0  0  0  0
  150.2282  141.4126  155.9602 C   0  0  0  0  0  0  0  0  0  0  0  0
  150.6312  140.0866  155.4631 N   0  0  0  0  0  0  0  0  0  0  0  0
  151.9834  139.9815  155.1732 N   0  0  0  0  0  0  0  0  0  0  0  0
  152.4675  138.8640  154.7479 C   0  0  0  0  0  0  0  0  0  0  0  0
  153.8123  138.8035  154.4759 O   0  0  0  0  0  0  0  0  0  0  0  0
  151.6222  137.7052  154.5613 C   0  0  0  0  0  0  0  0  0  0  0  0
  150.3059  137.8175  154.8446 C   0  0  0  0  0  0  0  0  0  0  0  0
  149.7249  139.0693  155.3329 C   0  0  0  0  0  0  0  0  0  0  0  0
  148.5334  139.1946  155.6136 O   0  0  0  0  0  0  0  0  0  0  0  0
  153.9046  139.1167  153.5894 H   0  0  0  0  0  0  0  0  0  0  0  0
  153.2240  143.3362  162.9031 H   0  0  0  0  0  0  0  0  0  0  0  0
  153.5427  142.0931  161.6963 H   0  0  0  0  0  0  0  0  0  0  0  0
  151.9337  142.2468  162.4021 H   0  0  0  0  0  0  0  0  0  0  0  0
  151.6907  144.5113  161.3363 H   0  0  0  0  0  0  0  0  0  0  0  0
  153.2891  144.3608  160.6474 H   0  0  0  0  0  0  0  0  0  0  0  0
  152.4035  142.2045  159.4732 H   0  0  0  0  0  0  0  0  0  0  0  0
  150.8119  142.7074  159.9770 H   0  0  0  0  0  0  0  0  0  0  0  0
  152.6882  144.2079  158.1178 H   0  0  0  0  0  0  0  0  0  0  0  0
  151.5081  145.8494  159.5837 H   0  0  0  0  0  0  0  0  0  0  0  0
  149.9554  145.1386  159.1512 H   0  0  0  0  0  0  0  0  0  0  0  0
  150.9238  145.9609  157.9308 H   0  0  0  0  0  0  0  0  0  0  0  0
  150.2629  143.8060  156.9131 H   0  0  0  0  0  0  0  0  0  0  0  0
  149.1996  141.3873  156.3237 H   0  0  0  0  0  0  0  0  0  0  0  0
  150.2205  142.1254  155.1336 H   0  0  0  0  0  0  0  0  0  0  0  0
  152.0411  136.7767  154.2026 H   0  0  0  0  0  0  0  0  0  0  0  0
  149.6628  136.9604  154.7096 H   0  0  0  0  0  0  0  0  0  0  0  0
  1  2  1  0  0  0  0
  1 19  1  0  0  0  0
  1 20  1  0  0  0  0
  1 21  1  0  0  0  0
  2  3  1  0  0  0  0
  2 22  1  0  0  0  0
  2 23  1  0  0  0  0
  3  4  1  0  0  0  0
  3 24  1  0  0  0  0
  3 25  1  0  0  0  0
  4  5  1  0  0  0  0
  4  6  1  0  0  0  0
  4 26  1  0  0  0  0
  5 27  1  0  0  0  0
  5 28  1  0  0  0  0
  5 29  1  0  0  0  0
  6  7  1  0  0  0  0
  6 30  1  0  0  0  0
  7  8  2  0  0  0  0
  7  9  1  0  0  0  0
  9 31  1  0  0  0  0
  9 32  1  0  0  0  0
  9 10  1  0  0  0  0
 10 11  1  0  0  0  0
 10 16  1  0  0  0  0
 11 12  2  0  0  0  0
 12 13  1  0  0  0  0
 12 14  1  0  0  0  0
 13 18  1  0  0  0  0
 14 33  1  0  0  0  0
 14 15  2  0  0  0  0
 15 34  1  0  0  0  0
 15 16  1  0  0  0  0
 16 17  2  0  0  0  0
M  END
> <s_m_source_file>
AV-unprocessed.smi

> <i_m_source_file_index>
1493

> <i_lp_mmshare_version>
43012

> <i_f3d_flags>
0

> <s_epik_input>
W0NIM11bQ0gyXVtDSDJdW0NASF0oW0NIM10pW05IXUMoPU8pW0NIMl1uMVtuSF1jKD1PKVtjSF1bY0hdYzE9Tw==

> <s_epik_cmdline>
J2VwaWtfcHl0aG9uJywgJy1waCcsICc3LjAnLCAnLXRuJywgJzgnLCAnLW1hJywgJzIwMCcsICctbWV0YWxfYmluZGluZycsICctaW1hZScsICc8aW5maWxlLm1hZT4nLCAnLW9tYWUnLCAnPG91dGZpbGUubWFlPic=

> <r_lp_tautomer_probability>
0.9996

> <r_epik_Ionization_Penalty>
2.12047

> <r_epik_Ionization_Penalty_Charging>
3.81971e-08

> <r_epik_Ionization_Penalty_Neutral>
2.12047

> <r_epik_State_Penalty>
1.69728

> <r_epik_Charging_Adjusted_Penalty>
1.69728

> <i_epik_Tot_Q>
0

> <i_epik_Tot_abs_Q>
0

> <r_epik_Metal_State_Penalty>
1.69728

> <b_epik_Metal_Only>
0

> <s_lp_Force_Field>
OPLS_2005

> <r_lp_Energy>
13.2358

> <b_lp_Chiralities_Consistent>
1

> <s_lp_Variant>
AV-unprocessed.smi:1493-3

> <Gold.Version>
5.8.1

> <Gold.Id.Protein>
6NUR|6NUR_protein|mol2

> <Gold.PLP.Fitness>
45.3599

> <Gold.PLP.PLP>
-39.4770

> <Gold.PLP.part.hbond>
-2.9008

> <Gold.PLP.part.metal>
0.0000

> <Gold.PLP.part.buried>
-3.7614

> <Gold.PLP.part.nonpolar>
-32.4405

> <Gold.PLP.part.repulsive>
0.0537

> <Gold.PLP.ligand.clash>
0.0000

> <Gold.PLP.ligand.torsion>
0.5340

> <Gold.PLP.Chemscore.Hbond>
2.3097

> <Gold.PLP.Chemscore.CHOScore>
0.0000

> <Gold.PLP.Chemscore.Metal>
0.0000

> <Gold.Chemscore.Hbonds>
donor molecule, donor type, donor heavy atom, donor atom, acceptor molecule, acceptor atom, score
      L1  H     6    30       P1  8028  0.93
      P1  H  7989  7998       L1    11  0.38
      P1  H  7997  8008       L1    13  1.00

> <Gold.PLP.Chemscore.Internal.Correction>
0.0218

> <Gold.Rescore>
     Score         DG    S(hbond)    S(metal)    S(lipo)     H(rot)  DE(clash)    DE(int)     intcor
      9.33     -12.56       1.49        0.00      78.68       2.78       0.20       3.03       ----

> <Gold.Chemscore.Fitness>
9.3262

> <Gold.Chemscore.DG>
-12.5613

> <Gold.Chemscore.ZeroCoef>
-5.4800

> <Gold.Chemscore.Hbond>
1.4936

> <Gold.Chemscore.Metal>
0.0000

> <Gold.Chemscore.Lipo>
78.6795

> <Gold.Chemscore.Internal_Hbond>
0.0000

> <Gold.Chemscore.DEClash>
0.2003

> <Gold.Chemscore.DEInternal>
3.0348

> <Gold.Chemscore.Rot>
2.7785

> <Gold.Chemscore.Internal.Correction>
   9.000000E+99

> <Gold.Chemscore.Hbonds>
donor molecule, donor type, donor heavy atom, donor atom, acceptor molecule, acceptor atom, score
      L1  H     6    30       P1  8028  0.88
      P1  H  7997  8008       L1    13  0.25

> <Gold.Chemscore.Hbond.Weighted>
-4.9887

> <Gold.Chemscore.Metal.Weighted>
-0.0000

> <Gold.Chemscore.Lipo.Weighted>
-9.2055

> <Gold.Chemscore.Internal_Hbond.Weighted>
0.0000

> <Gold.Chemscore.DEClash.Weighted>
0.2003

> <Gold.Chemscore.DEInternal.Weighted>
3.0348

> <Gold.Chemscore.Rot.Weighted>
7.1129

> <Gold.Chemscore.Internal.Correction.Weighted>
   9.000000E+99

> <Gold.Protein.RotatedTorsions>
[ 6907 6896 6895 6894 ] final -161.75 input  -60.11 | X-H torsion
[ 7974 7965 7964 7962 ] final  148.12 input  175.53 | X-H torsion
[ 8008 7997 7996 7995 ] final    1.75 input   59.86 | X-H torsion
[ 10167 10162 10161 10158 ] final  -59.85 input  -65.29 | X-H torsion
[ 10718 10713 10712 10709 ] final -102.17 input   66.30 | X-H torsion
[ 10763 10752 10751 10750 ] final   76.06 input  -60.55 | X-H torsion
[ 11005 11000 10999 10996 ] final  -16.63 input  -57.11 | X-H torsion

> <Gold.Protein.ActiveResidues>
 VAL166  LYS551  ARG553  GLY616  TRP617  ASP618  TYR619  PRO620  LYS621  CYS622 
 ASP623  PHE694  ASN695  SER759  ASP760  ASP761  ALA762  ILE779  LEU786  VAL792 
 PHE793  MET794  SER795  GLU796  ALA797  LYS798  CYS799  TRP800  GLU811  SER814 

> <Gold.Protein.RotatedAtoms>
  151.3695  133.3860  159.2697 H   0  0  0  0  0  0  0  0  0  0  0  0  # atno 6907 bound_to 6896
  150.9662  134.9043  159.7771 H   0  0  0  0  0  0  0  0  0  0  0  0  # atno 6908 bound_to 6896
  152.5168  134.3656  159.9352 H   0  0  0  0  0  0  0  0  0  0  0  0  # atno 6909 bound_to 6896
  144.8538  139.6114  143.5961 H   0  0  0  0  0  0  0  0  0  0  0  0  # atno 7974 bound_to 7965
  154.6835  140.2638  155.6884 H   0  0  0  0  0  0  0  0  0  0  0  0  # atno 8008 bound_to 7997
  156.2705  140.2805  156.1310 H   0  0  0  0  0  0  0  0  0  0  0  0  # atno 8009 bound_to 7997
  155.0998  140.0374  157.2683 H   0  0  0  0  0  0  0  0  0  0  0  0  # atno 8010 bound_to 7997
  140.6109  143.2387  151.5712 H   0  0  0  0  0  0  0  0  0  0  0  0  # atno 10167 bound_to 10162
  156.0219  130.5407  150.7069 H   0  0  0  0  0  0  0  0  0  0  0  0  # atno 10718 bound_to 10713
  153.0698  135.4965  154.8280 H   0  0  0  0  0  0  0  0  0  0  0  0  # atno 10763 bound_to 10752
  154.7006  135.3001  154.9348 H   0  0  0  0  0  0  0  0  0  0  0  0  # atno 10764 bound_to 10752
  154.0073  135.6759  153.4816 H   0  0  0  0  0  0  0  0  0  0  0  0  # atno 10765 bound_to 10752
  140.8087  133.8158  155.9541 H   0  0  0  0  0  0  0  0  0  0  0  0  # atno 11005 bound_to 11000
  146.2807  139.6869  142.9231 LP  0  0  0  0  0  0  0  0  0  0  0  0  # atno 17320 bound_to 7965
  145.4446  141.0424  143.2838 LP  0  0  0  0  0  0  0  0  0  0  0  0  # atno 17321 bound_to 7965
  139.5360  144.2779  152.1252 LP  0  0  0  0  0  0  0  0  0  0  0  0  # atno 17342 bound_to 10162
  140.1978  144.4688  150.6446 LP  0  0  0  0  0  0  0  0  0  0  0  0  # atno 17343 bound_to 10162
  157.4716  131.0894  151.0635 LP  0  0  0  0  0  0  0  0  0  0  0  0  # atno 17370 bound_to 10713
  157.1094  130.6015  149.5478 LP  0  0  0  0  0  0  0  0  0  0  0  0  # atno 17371 bound_to 10713
  140.9220  134.2129  157.4920 LP  0  0  0  0  0  0  0  0  0  0  0  0  # atno 17394 bound_to 11000
  139.8716  134.9796  156.5044 LP  0  0  0  0  0  0  0  0  0  0  0  0  # atno 17395 bound_to 11000

$$$$
