AV-unprocessed.smi:325|AV-procd|sdf|2341|dock3
  -GOLD-   2262022253D 1   1.00000     0.00000
 Structure written by MMmdl.
 46 47  0  0  0  0  0  0  0  0  1 V2000
  152.1502  138.3830  156.5139 C   0  0  0  0  0  0  0  0  0  0  0  0
  151.4534  139.7254  156.3785 C   0  0  0  0  0  0  0  0  0  0  0  0
  151.7804  140.6788  157.3507 N   0  0  0  0  0  0  0  0  0  0  0  0
  151.2303  141.8522  157.3268 C   0  0  0  0  0  0  0  0  0  0  0  0
  151.4712  142.8879  158.2326 N   0  0  0  0  0  0  0  0  0  0  0  0
  152.2330  142.6663  159.4645 C   0  0  0  0  0  0  0  0  0  0  0  0
  151.9197  143.7412  160.5190 C   0  0  0  0  0  0  0  0  0  0  0  0
  152.1560  145.0319  159.9736 O   0  0  0  0  0  0  0  0  0  0  0  0
  151.3145  145.2831  158.8566 C   0  0  0  0  0  0  0  0  0  0  0  0
  151.6081  144.2607  157.7458 C   0  0  0  0  0  0  0  0  0  0  0  0
  150.3152  142.1780  156.3196 N   0  0  0  0  0  0  0  0  0  0  0  0
  149.9318  141.3296  155.3403 C   0  0  0  0  0  0  0  0  0  0  0  0
  149.1125  141.6842  154.4940 O   0  0  0  0  0  0  0  0  0  0  0  0
  150.5590  139.9989  155.3882 C   0  0  0  0  0  0  0  0  0  0  0  0
  150.1793  138.9946  154.3033 C   0  0  0  0  0  0  0  0  0  0  0  0
  148.8181  138.3300  154.5837 C   0  0  0  0  0  0  0  0  0  0  0  0
  148.9227  137.0843  155.4685 C   0  0  0  0  0  0  0  0  0  0  0  0
  148.9411  137.1846  156.6957 O   0  0  0  0  0  0  0  0  0  0  0  0
  148.9979  135.9091  154.8244 N   0  0  0  0  0  0  0  0  0  0  0  0
  149.1242  134.6003  155.4589 C   0  0  0  0  0  0  0  0  0  0  0  0
  150.3981  134.5711  156.3140 C   0  0  0  0  0  0  0  0  0  0  0  0
  149.1252  133.4848  154.4017 C   0  0  0  0  0  0  0  0  0  0  0  0
  149.9095  143.1023  156.3186 H   0  0  0  0  0  0  0  0  0  0  0  0
  151.4249  137.5690  156.5043 H   0  0  0  0  0  0  0  0  0  0  0  0
  152.7097  138.3191  157.4481 H   0  0  0  0  0  0  0  0  0  0  0  0
  152.8506  138.2340  155.6919 H   0  0  0  0  0  0  0  0  0  0  0  0
  152.0288  141.6862  159.8956 H   0  0  0  0  0  0  0  0  0  0  0  0
  153.2965  142.6850  159.2233 H   0  0  0  0  0  0  0  0  0  0  0  0
  150.8869  143.6596  160.8615 H   0  0  0  0  0  0  0  0  0  0  0  0
  152.5560  143.6047  161.3935 H   0  0  0  0  0  0  0  0  0  0  0  0
  150.2664  145.2397  159.1573 H   0  0  0  0  0  0  0  0  0  0  0  0
  151.4994  146.2943  158.4940 H   0  0  0  0  0  0  0  0  0  0  0  0
  152.6212  144.4021  157.3666 H   0  0  0  0  0  0  0  0  0  0  0  0
  150.9283  144.4399  156.9115 H   0  0  0  0  0  0  0  0  0  0  0  0
  150.1645  139.5012  153.3368 H   0  0  0  0  0  0  0  0  0  0  0  0
  150.9510  138.2304  154.2116 H   0  0  0  0  0  0  0  0  0  0  0  0
  148.1533  139.0520  155.0605 H   0  0  0  0  0  0  0  0  0  0  0  0
  148.3427  138.0408  153.6457 H   0  0  0  0  0  0  0  0  0  0  0  0
  148.9752  135.9232  153.8150 H   0  0  0  0  0  0  0  0  0  0  0  0
  148.2739  134.4468  156.1258 H   0  0  0  0  0  0  0  0  0  0  0  0
  150.5009  133.6161  156.8299 H   0  0  0  0  0  0  0  0  0  0  0  0
  150.3799  135.3541  157.0730 H   0  0  0  0  0  0  0  0  0  0  0  0
  151.2905  134.7180  155.7044 H   0  0  0  0  0  0  0  0  0  0  0  0
  149.2107  132.5037  154.8694 H   0  0  0  0  0  0  0  0  0  0  0  0
  149.9588  133.5964  153.7075 H   0  0  0  0  0  0  0  0  0  0  0  0
  148.2033  133.4893  153.8191 H   0  0  0  0  0  0  0  0  0  0  0  0
  1  2  1  0  0  0  0
  1 24  1  0  0  0  0
  1 25  1  0  0  0  0
  1 26  1  0  0  0  0
  2 14  2  0  0  0  0
  2  3  1  0  0  0  0
  3  4  2  0  0  0  0
  4  5  1  0  0  0  0
  4 11  1  0  0  0  0
  5 10  1  0  0  0  0
  5  6  1  0  0  0  0
  6  7  1  0  0  0  0
  6 27  1  0  0  0  0
  6 28  1  0  0  0  0
  7  8  1  0  0  0  0
  7 29  1  0  0  0  0
  7 30  1  0  0  0  0
  8  9  1  0  0  0  0
  9 10  1  0  0  0  0
  9 31  1  0  0  0  0
  9 32  1  0  0  0  0
 10 33  1  0  0  0  0
 10 34  1  0  0  0  0
 11 23  1  0  0  0  0
 11 12  1  0  0  0  0
 12 13  2  0  0  0  0
 12 14  1  0  0  0  0
 14 15  1  0  0  0  0
 15 16  1  0  0  0  0
 15 35  1  0  0  0  0
 15 36  1  0  0  0  0
 16 17  1  0  0  0  0
 16 37  1  0  0  0  0
 16 38  1  0  0  0  0
 17 18  2  0  0  0  0
 17 19  1  0  0  0  0
 19 20  1  0  0  0  0
 19 39  1  0  0  0  0
 20 21  1  0  0  0  0
 20 22  1  0  0  0  0
 20 40  1  0  0  0  0
 21 41  1  0  0  0  0
 21 42  1  0  0  0  0
 21 43  1  0  0  0  0
 22 44  1  0  0  0  0
 22 45  1  0  0  0  0
 22 46  1  0  0  0  0
M  END
> <s_m_source_file>
AV-unprocessed.smi

> <i_m_source_file_index>
325

> <i_lp_mmshare_version>
43012

> <i_f3d_flags>
0

> <s_epik_input>
W0NIMl0xW0NIMl1PW0NIMl1bQ0gyXU4xYyhuYzJbQ0gzXSlbbkhdYyg9TyljMltDSDJdW0NIMl1DKD1PKVtOSF1bQ0hdKFtDSDNdKVtDSDNd

> <s_epik_cmdline>
J2VwaWtfcHl0aG9uJywgJy1waCcsICc3LjAnLCAnLXRuJywgJzgnLCAnLW1hJywgJzIwMCcsICctbWV0YWxfYmluZGluZycsICctaW1hZScsICc8aW5maWxlLm1hZT4nLCAnLW9tYWUnLCAnPG91dGZpbGUubWFlPic=

> <r_lp_tautomer_probability>
0.878553

> <r_epik_Ionization_Penalty>
0.00121339

> <r_epik_Ionization_Penalty_Charging>
0.00118763

> <r_epik_Ionization_Penalty_Neutral>
2.57562e-05

> <r_epik_State_Penalty>
0.0423074

> <r_epik_Charging_Adjusted_Penalty>
0.043495

> <i_epik_Tot_Q>
0

> <i_epik_Tot_abs_Q>
0

> <r_epik_Metal_State_Penalty>
1.02455

> <b_epik_Metal_Only>
0

> <s_lp_Force_Field>
OPLS_2005

> <r_lp_Energy>
22.2751

> <b_lp_Chiralities_Consistent>
1

> <s_lp_Variant>
AV-unprocessed.smi:325-1

> <Gold.Version>
5.8.1

> <Gold.Id.Protein>
6NUR|6NUR_protein|mol2

> <Gold.PLP.Fitness>
48.2663

> <Gold.PLP.PLP>
-43.6216

> <Gold.PLP.part.hbond>
-3.3709

> <Gold.PLP.part.metal>
0.0000

> <Gold.PLP.part.buried>
-2.5724

> <Gold.PLP.part.nonpolar>
-36.1777

> <Gold.PLP.part.repulsive>
0.4022

> <Gold.PLP.ligand.clash>
0.0000

> <Gold.PLP.ligand.torsion>
1.1278

> <Gold.PLP.Chemscore.Hbond>
2.2106

> <Gold.PLP.Chemscore.CHOScore>
0.0000

> <Gold.PLP.Chemscore.Metal>
0.0000

> <Gold.Chemscore.Hbonds>
donor molecule, donor type, donor heavy atom, donor atom, acceptor molecule, acceptor atom, score
      L1  H    11    23       P1  8028  1.00
      L1  H    19    39       P1  7948  1.00
      P1  H  8011  8017       L1    13  0.06

> <Gold.PLP.Chemscore.Internal.Correction>
0.2686

> <Gold.Rescore>
     Score         DG    S(hbond)    S(metal)    S(lipo)     H(rot)  DE(clash)    DE(int)     intcor
     18.89     -20.00       2.37        0.00      93.91       1.71       0.37       0.74       ----

> <Gold.Chemscore.Fitness>
18.8949

> <Gold.Chemscore.DG>
-20.0005

> <Gold.Chemscore.ZeroCoef>
-5.4800

> <Gold.Chemscore.Hbond>
2.3670

> <Gold.Chemscore.Metal>
0.0000

> <Gold.Chemscore.Lipo>
93.9078

> <Gold.Chemscore.Internal_Hbond>
0.0000

> <Gold.Chemscore.DEClash>
0.3656

> <Gold.Chemscore.DEInternal>
0.7400

> <Gold.Chemscore.Rot>
1.7080

> <Gold.Chemscore.Internal.Correction>
   9.000000E+99

> <Gold.Chemscore.Hbonds>
donor molecule, donor type, donor heavy atom, donor atom, acceptor molecule, acceptor atom, score
      L1  H    11    23       P1  8028  0.93
      L1  H    19    39       P1  7948  0.94
      P1  H  8011  8017       L1    13  0.08

> <Gold.Chemscore.Hbond.Weighted>
-7.9057

> <Gold.Chemscore.Metal.Weighted>
-0.0000

> <Gold.Chemscore.Lipo.Weighted>
-10.9872

> <Gold.Chemscore.Internal_Hbond.Weighted>
0.0000

> <Gold.Chemscore.DEClash.Weighted>
0.3656

> <Gold.Chemscore.DEInternal.Weighted>
0.7400

> <Gold.Chemscore.Rot.Weighted>
4.3724

> <Gold.Chemscore.Internal.Correction.Weighted>
   9.000000E+99

> <Gold.Protein.RotatedTorsions>
[ 6907 6896 6895 6894 ] final  145.91 input  -60.11 | X-H torsion
[ 7974 7965 7964 7962 ] final -146.09 input  175.53 | X-H torsion
[ 8008 7997 7996 7995 ] final  -33.03 input   59.86 | X-H torsion
[ 10167 10162 10161 10158 ] final   55.03 input  -65.29 | X-H torsion
[ 10718 10713 10712 10709 ] final -128.49 input   66.30 | X-H torsion
[ 10763 10752 10751 10750 ] final  -92.07 input  -60.55 | X-H torsion
[ 11005 11000 10999 10996 ] final   96.71 input  -57.11 | X-H torsion

> <Gold.Protein.ActiveResidues>
 VAL166  LYS551  ARG553  GLY616  TRP617  ASP618  TYR619  PRO620  LYS621  CYS622 
 ASP623  PHE694  ASN695  SER759  ASP760  ASP761  ALA762  ILE779  LEU786  VAL792 
 PHE793  MET794  SER795  GLU796  ALA797  LYS798  CYS799  TRP800  GLU811  SER814 

> <Gold.Protein.RotatedAtoms>
  152.1748  133.4667  159.4927 H   0  0  0  0  0  0  0  0  0  0  0  0  # atno 6907 bound_to 6896
  150.6925  134.1907  159.4293 H   0  0  0  0  0  0  0  0  0  0  0  0  # atno 6908 bound_to 6896
  151.9816  135.0025  160.0608 H   0  0  0  0  0  0  0  0  0  0  0  0  # atno 6909 bound_to 6896
  144.8183  140.5500  143.5596 H   0  0  0  0  0  0  0  0  0  0  0  0  # atno 7974 bound_to 7965
  154.4161  140.1721  156.1823 H   0  0  0  0  0  0  0  0  0  0  0  0  # atno 8008 bound_to 7997
  155.9672  140.3388  155.6519 H   0  0  0  0  0  0  0  0  0  0  0  0  # atno 8009 bound_to 7997
  155.6672  140.0707  157.2524 H   0  0  0  0  0  0  0  0  0  0  0  0  # atno 8010 bound_to 7997
  140.2238  144.3760  150.6440 H   0  0  0  0  0  0  0  0  0  0  0  0  # atno 10167 bound_to 10162
  156.1956  130.6824  151.0477 H   0  0  0  0  0  0  0  0  0  0  0  0  # atno 10718 bound_to 10713
  154.6825  135.5244  153.8282 H   0  0  0  0  0  0  0  0  0  0  0  0  # atno 10763 bound_to 10752
  153.0574  135.6556  154.0553 H   0  0  0  0  0  0  0  0  0  0  0  0  # atno 10764 bound_to 10752
  154.0439  135.2975  155.3330 H   0  0  0  0  0  0  0  0  0  0  0  0  # atno 10765 bound_to 10752
  139.8780  134.8964  156.4199 H   0  0  0  0  0  0  0  0  0  0  0  0  # atno 11005 bound_to 11000
  145.5164  139.1478  143.3576 LP  0  0  0  0  0  0  0  0  0  0  0  0  # atno 17320 bound_to 7965
  146.2487  140.5305  142.8903 LP  0  0  0  0  0  0  0  0  0  0  0  0  # atno 17321 bound_to 7965
  140.6235  143.2179  151.6645 LP  0  0  0  0  0  0  0  0  0  0  0  0  # atno 17342 bound_to 10162
  139.5134  144.3443  152.0711 LP  0  0  0  0  0  0  0  0  0  0  0  0  # atno 17343 bound_to 10162
  157.6955  131.0795  150.6981 LP  0  0  0  0  0  0  0  0  0  0  0  0  # atno 17370 bound_to 10713
  156.7037  130.4631  149.5566 LP  0  0  0  0  0  0  0  0  0  0  0  0  # atno 17371 bound_to 10713
  140.9141  133.7691  155.9827 LP  0  0  0  0  0  0  0  0  0  0  0  0  # atno 17394 bound_to 11000
  140.8513  134.2950  157.5274 LP  0  0  0  0  0  0  0  0  0  0  0  0  # atno 17395 bound_to 11000

$$$$
