AV-unprocessed.smi:767|AV-procd|sdf|3669|dock2
  -GOLD-   22720 1 83D 1   1.00000     0.00000
 Structure written by MMmdl.
 48 50  0  0  0  0  0  0  0  0  2 V2000
  146.0474  129.4664  151.8566 C   0  0  0  0  0  0  0  0  0  0  0  0
  145.8706  130.8730  151.3247 C   0  0  0  0  0  0  0  0  0  0  0  0
  144.6168  131.3701  150.9086 C   0  0  0  0  0  0  0  0  0  0  0  0
  144.5267  132.6909  150.4222 C   0  0  0  0  0  0  0  0  0  0  0  0
  145.6909  133.4876  150.3616 C   0  0  0  0  0  0  0  0  0  0  0  0
  145.6259  134.9129  149.8491 C   0  0  0  0  0  0  0  0  0  0  0  0
  145.0781  135.8823  150.9089 C   0  0  0  0  0  0  0  0  0  0  0  0
  146.1408  136.6828  151.5041 N   0  0  0  0  0  0  0  0  0  0  0  0
  145.9533  137.8333  152.1652 C   0  0  0  0  0  0  0  0  0  0  0  0
  144.8510  138.3489  152.3529 O   0  0  0  0  0  0  0  0  0  0  0  0
  147.1087  138.3511  152.6014 N   0  0  0  0  0  0  0  0  0  0  0  0
  147.2224  139.6028  153.3432 C   0  0  2  0  0  0  0  0  0  0  0  0
  147.5279  140.8004  152.4301 C   0  0  1  0  0  0  0  0  0  0  0  0
  146.5144  141.9010  152.2733 C   0  0  0  0  0  0  0  0  0  0  0  0
  146.9756  142.9385  153.3013 C   0  0  0  0  0  0  0  0  0  0  0  0
  147.7613  142.1988  154.2331 O   0  0  0  0  0  0  0  0  0  0  0  0
  148.5208  141.2464  153.4926 C   0  0  1  0  0  0  0  0  0  0  0  0
  148.5802  139.8126  154.0614 C   0  0  0  0  0  0  0  0  0  0  0  0
  148.5624  139.6956  155.5863 C   0  0  0  0  0  0  0  0  0  0  0  0
  149.7793  138.9903  153.5680 C   0  0  0  0  0  0  0  0  0  0  0  0
  146.9172  132.9379  150.7928 C   0  0  0  0  0  0  0  0  0  0  0  0
  146.9620  131.6679  151.2517 N   0  3  0  0  0  0  0  0  0  0  0  0
  145.0966  128.9328  151.8802 H   0  0  0  0  0  0  0  0  0  0  0  0
  146.4488  129.4906  152.8702 H   0  0  0  0  0  0  0  0  0  0  0  0
  146.7367  128.9052  151.2255 H   0  0  0  0  0  0  0  0  0  0  0  0
  143.7337  130.7500  150.9599 H   0  0  0  0  0  0  0  0  0  0  0  0
  143.5738  133.0863  150.1015 H   0  0  0  0  0  0  0  0  0  0  0  0
  146.6245  135.2192  149.5345 H   0  0  0  0  0  0  0  0  0  0  0  0
  145.0010  134.9421  148.9555 H   0  0  0  0  0  0  0  0  0  0  0  0
  144.3569  136.5621  150.4547 H   0  0  0  0  0  0  0  0  0  0  0  0
  144.5435  135.3361  151.6880 H   0  0  0  0  0  0  0  0  0  0  0  0
  147.0848  136.3400  151.4005 H   0  0  0  0  0  0  0  0  0  0  0  0
  147.9654  137.8563  152.4006 H   0  0  0  0  0  0  0  0  0  0  0  0
  146.3727  139.8020  154.0003 H   0  0  0  0  0  0  0  0  0  0  0  0
  148.0331  140.5098  151.5070 H   0  0  0  0  0  0  0  0  0  0  0  0
  146.4967  142.3152  151.2650 H   0  0  0  0  0  0  0  0  0  0  0  0
  145.5114  141.5421  152.5060 H   0  0  0  0  0  0  0  0  0  0  0  0
  147.6051  143.6935  152.8280 H   0  0  0  0  0  0  0  0  0  0  0  0
  146.1438  143.4450  153.7911 H   0  0  0  0  0  0  0  0  0  0  0  0
  149.4534  141.6464  153.0915 H   0  0  0  0  0  0  0  0  0  0  0  0
  149.4664  140.1135  156.0302 H   0  0  0  0  0  0  0  0  0  0  0  0
  148.4854  138.6563  155.9071 H   0  0  0  0  0  0  0  0  0  0  0  0
  147.7150  140.2265  156.0204 H   0  0  0  0  0  0  0  0  0  0  0  0
  150.7161  139.3688  153.9778 H   0  0  0  0  0  0  0  0  0  0  0  0
  149.8719  139.0208  152.4820 H   0  0  0  0  0  0  0  0  0  0  0  0
  149.6966  137.9423  153.8577 H   0  0  0  0  0  0  0  0  0  0  0  0
  147.8569  133.4711  150.7856 H   0  0  0  0  0  0  0  0  0  0  0  0
  147.8601  131.2919  151.5570 H   0  0  0  0  0  0  0  0  0  0  0  0
  1  2  1  0  0  0  0
  1 23  1  0  0  0  0
  1 24  1  0  0  0  0
  1 25  1  0  0  0  0
  2 22  1  0  0  0  0
  2  3  2  0  0  0  0
  3  4  1  0  0  0  0
  3 26  1  0  0  0  0
  4  5  2  0  0  0  0
  4 27  1  0  0  0  0
  5  6  1  0  0  0  0
  5 21  1  0  0  0  0
  6  7  1  0  0  0  0
  6 28  1  0  0  0  0
  6 29  1  0  0  0  0
  7  8  1  0  0  0  0
  7 30  1  0  0  0  0
  7 31  1  0  0  0  0
  8  9  1  0  0  0  0
  8 32  1  0  0  0  0
  9 10  2  0  0  0  0
  9 11  1  0  0  0  0
 11 12  1  0  0  0  0
 11 33  1  0  0  0  0
 12 18  1  0  0  0  0
 12 13  1  0  0  0  0
 12 34  1  0  0  0  0
 13 17  1  0  0  0  0
 13 14  1  0  0  0  0
 13 35  1  0  0  0  0
 14 15  1  0  0  0  0
 14 36  1  0  0  0  0
 14 37  1  0  0  0  0
 15 16  1  0  0  0  0
 15 38  1  0  0  0  0
 15 39  1  0  0  0  0
 16 17  1  0  0  0  0
 17 18  1  0  0  0  0
 17 40  1  0  0  0  0
 18 19  1  0  0  0  0
 18 20  1  0  0  0  0
 19 41  1  0  0  0  0
 19 42  1  0  0  0  0
 19 43  1  0  0  0  0
 20 44  1  0  0  0  0
 20 45  1  0  0  0  0
 20 46  1  0  0  0  0
 21 22  2  0  0  0  0
 21 47  1  0  0  0  0
 22 48  1  0  0  0  0
M  CHG  1  22   1
M  END
> <s_m_source_file>
AV-unprocessed.smi

> <i_m_source_file_index>
767

> <i_lp_mmshare_version>
43012

> <i_f3d_flags>
0

> <s_epik_input>
W0NIM11jMVtjSF1bY0hdYyhbY0hdbjEpW0NIMl1bQ0gyXVtOSF1DKD1PKVtOSF1bQ0BIXTJDKFtDSDNdKShbQ0gzXSlbQ0BIXShbQ0BASF0yMylPW0NIMl1bQ0gyXTM=

> <s_epik_cmdline>
J2VwaWtfcHl0aG9uJywgJy1waCcsICc3LjAnLCAnLXRuJywgJzgnLCAnLW1hJywgJzIwMCcsICctbWV0YWxfYmluZGluZycsICctaW1hZScsICc8aW5maWxlLm1hZT4nLCAnLW9tYWUnLCAnPG91dGZpbGUubWFlPic=

> <r_epik_Ionization_Penalty>
1.41853

> <r_epik_Ionization_Penalty_Charging>
1.41848

> <r_epik_Ionization_Penalty_Neutral>
5.17407e-05

> <r_epik_State_Penalty>
1.50205

> <r_epik_Charging_Adjusted_Penalty>
2.92053

> <i_epik_Tot_Q>
1

> <i_epik_Tot_abs_Q>
1

> <r_epik_Metal_State_Penalty>
1.5544

> <b_epik_Metal_Only>
0

> <s_lp_Force_Field>
OPLS_2005

> <r_lp_Energy>
38.5293

> <b_lp_Chiralities_Consistent>
1

> <s_lp_Variant>
AV-unprocessed.smi:767-13

> <Gold.Version>
5.8.1

> <Gold.Id.Protein>
6NUR|6NUR_protein|mol2

> <Gold.PLP.Fitness>
43.6057

> <Gold.PLP.PLP>
-36.3965

> <Gold.PLP.part.hbond>
-2.7946

> <Gold.PLP.part.metal>
0.0000

> <Gold.PLP.part.buried>
0.2703

> <Gold.PLP.part.nonpolar>
-34.6407

> <Gold.PLP.part.repulsive>
1.6329

> <Gold.PLP.ligand.clash>
0.0000

> <Gold.PLP.ligand.torsion>
0.9803

> <Gold.PLP.Chemscore.Hbond>
2.9920

> <Gold.PLP.Chemscore.CHOScore>
0.0000

> <Gold.PLP.Chemscore.Metal>
0.0000

> <Gold.Chemscore.Hbonds>
donor molecule, donor type, donor heavy atom, donor atom, acceptor molecule, acceptor atom, score
      L1  H     8    32       P1  7948  1.00
      L1  H    11    33       P1  7948  1.00
      L1  H    22    48       P1 10747  0.32

> <Gold.PLP.Chemscore.Internal.Correction>
0.1938

> <Gold.Rescore>
     Score         DG    S(hbond)    S(metal)    S(lipo)     H(rot)  DE(clash)    DE(int)     intcor
     18.93     -21.31       1.92        0.00     113.74       1.52       1.67       0.71       ----

> <Gold.Chemscore.Fitness>
18.9346

> <Gold.Chemscore.DG>
-21.3110

> <Gold.Chemscore.ZeroCoef>
-5.4800

> <Gold.Chemscore.Hbond>
1.9232

> <Gold.Chemscore.Metal>
0.0000

> <Gold.Chemscore.Lipo>
113.7357

> <Gold.Chemscore.Internal_Hbond>
0.0000

> <Gold.Chemscore.DEClash>
1.6698

> <Gold.Chemscore.DEInternal>
0.7066

> <Gold.Chemscore.Rot>
1.5233

> <Gold.Chemscore.Internal.Correction>
   9.000000E+99

> <Gold.Chemscore.Hbonds>
donor molecule, donor type, donor heavy atom, donor atom, acceptor molecule, acceptor atom, score
      L1  H     8    32       P1  7948  0.98
      L1  H    11    33       P1  7948  0.95
      L1  H    22    48       P1 10747  0.32

> <Gold.Chemscore.Hbond.Weighted>
-6.4235

> <Gold.Chemscore.Metal.Weighted>
-0.0000

> <Gold.Chemscore.Lipo.Weighted>
-13.3071

> <Gold.Chemscore.Internal_Hbond.Weighted>
0.0000

> <Gold.Chemscore.DEClash.Weighted>
1.6698

> <Gold.Chemscore.DEInternal.Weighted>
0.7066

> <Gold.Chemscore.Rot.Weighted>
3.8995

> <Gold.Chemscore.Internal.Correction.Weighted>
   9.000000E+99

> <Gold.Protein.RotatedTorsions>
[ 6907 6896 6895 6894 ] final   31.85 input  -60.11 | X-H torsion
[ 7974 7965 7964 7962 ] final  131.92 input  175.53 | X-H torsion
[ 8008 7997 7996 7995 ] final -155.34 input   59.86 | X-H torsion
[ 10167 10162 10161 10158 ] final  -47.96 input  -65.29 | X-H torsion
[ 10718 10713 10712 10709 ] final  120.18 input   66.30 | X-H torsion
[ 10763 10752 10751 10750 ] final  -84.27 input  -60.55 | X-H torsion
[ 11005 11000 10999 10996 ] final   45.95 input  -57.11 | X-H torsion

> <Gold.Protein.ActiveResidues>
 VAL166  LYS551  ARG553  GLY616  TRP617  ASP618  TYR619  PRO620  LYS621  CYS622 
 ASP623  PHE694  ASN695  SER759  ASP760  ASP761  ALA762  ILE779  LEU786  VAL792 
 PHE793  MET794  SER795  GLU796  ALA797  LYS798  CYS799  TRP800  GLU811  SER814 

> <Gold.Protein.RotatedAtoms>
  152.0662  134.9563  160.0574 H   0  0  0  0  0  0  0  0  0  0  0  0  # atno 6907 bound_to 6896
  152.0907  133.4194  159.4551 H   0  0  0  0  0  0  0  0  0  0  0  0  # atno 6908 bound_to 6896
  150.6837  134.2794  159.4664 H   0  0  0  0  0  0  0  0  0  0  0  0  # atno 6909 bound_to 6896
  145.0022  139.4300  143.5286 H   0  0  0  0  0  0  0  0  0  0  0  0  # atno 7974 bound_to 7965
  155.7003  140.0766  157.2413 H   0  0  0  0  0  0  0  0  0  0  0  0  # atno 8008 bound_to 7997
  154.4074  140.1648  156.2237 H   0  0  0  0  0  0  0  0  0  0  0  0  # atno 8009 bound_to 7997
  155.9373  140.3387  155.6301 H   0  0  0  0  0  0  0  0  0  0  0  0  # atno 8010 bound_to 7997
  140.6752  143.2761  151.4002 H   0  0  0  0  0  0  0  0  0  0  0  0  # atno 10167 bound_to 10162
  157.5909  131.1064  150.7999 H   0  0  0  0  0  0  0  0  0  0  0  0  # atno 10718 bound_to 10713
  154.5975  135.5526  153.7340 H   0  0  0  0  0  0  0  0  0  0  0  0  # atno 10763 bound_to 10752
  153.0141  135.6358  154.1761 H   0  0  0  0  0  0  0  0  0  0  0  0  # atno 10764 bound_to 10752
  154.1702  135.2892  155.3063 H   0  0  0  0  0  0  0  0  0  0  0  0  # atno 10765 bound_to 10752
  140.1413  134.4579  155.8447 H   0  0  0  0  0  0  0  0  0  0  0  0  # atno 11005 bound_to 11000
  146.3454  139.9418  142.8740 LP  0  0  0  0  0  0  0  0  0  0  0  0  # atno 17320 bound_to 7965
  145.2137  140.9906  143.4086 LP  0  0  0  0  0  0  0  0  0  0  0  0  # atno 17321 bound_to 7965
  139.6041  144.1234  152.2230 LP  0  0  0  0  0  0  0  0  0  0  0  0  # atno 17342 bound_to 10162
  140.0628  144.5843  150.7250 LP  0  0  0  0  0  0  0  0  0  0  0  0  # atno 17343 bound_to 10162
  156.8422  130.5052  149.5320 LP  0  0  0  0  0  0  0  0  0  0  0  0  # atno 17370 bound_to 10713
  156.0964  130.5935  150.9820 LP  0  0  0  0  0  0  0  0  0  0  0  0  # atno 17371 bound_to 10713
  141.2186  133.6834  156.7252 LP  0  0  0  0  0  0  0  0  0  0  0  0  # atno 17394 bound_to 11000
  140.2718  134.8386  157.3854 LP  0  0  0  0  0  0  0  0  0  0  0  0  # atno 17395 bound_to 11000

$$$$
