AV-unprocessed.smi:5|AV-procd|sdf|38|dock5
  -GOLD-   2262015153D 1   1.00000     0.00000
 Structure written by MMmdl.
 43 44  0  0  0  0  0  0  0  0  2 V2000
  153.1551  142.3817  161.2705 C   0  0  0  0  0  0  0  0  0  0  0  0
  152.4017  142.9274  160.0748 C   0  0  0  0  0  0  0  0  0  0  0  0
  151.9687  144.2015  160.0128 C   0  0  0  0  0  0  0  0  0  0  0  0
  151.2322  144.7629  158.8091 C   0  0  0  0  0  0  0  0  0  0  0  0
  151.3177  143.8071  157.6042 C   0  0  0  0  0  0  0  0  0  0  0  0
  151.0705  142.4243  158.0498 N   0  0  0  0  0  0  0  0  0  0  0  0
  149.9375  141.7098  157.8291 C   0  0  0  0  0  0  0  0  0  0  0  0
  149.7385  140.5921  158.3066 O   0  0  0  0  0  0  0  0  0  0  0  0
  149.0106  142.3459  157.0915 N   0  0  0  0  0  0  0  0  0  0  0  0
  147.6313  141.9028  156.9023 C   0  0  0  0  0  0  0  0  0  0  0  0
  146.7061  142.2632  158.0666 C   0  0  0  0  0  0  0  0  0  0  0  0
  146.8167  143.3920  158.8032 C   0  0  0  0  0  0  0  0  0  0  0  0
  145.9613  143.6975  159.8773 N   0  0  0  0  0  0  0  0  0  0  0  0
  146.2042  144.9606  160.6100 C   0  0  0  0  0  0  0  0  0  0  0  0
  145.9620  146.1826  159.7062 C   0  0  0  0  0  0  0  0  0  0  0  0
  147.6006  144.9808  161.2613 C   0  0  0  0  0  0  0  0  0  0  0  0
  144.9497  142.8333  160.1947 C   0  0  0  0  0  0  0  0  0  0  0  0
  144.1906  143.1053  161.1250 O   0  0  0  0  0  0  0  0  0  0  0  0
  144.8086  141.6856  159.4643 N   0  5  0  0  0  0  0  0  0  0  0  0
  145.6222  141.3452  158.4237 C   0  0  0  0  0  0  0  0  0  0  0  0
  145.4687  140.3050  157.7841 O   0  0  0  0  0  0  0  0  0  0  0  0
  152.1356  141.9372  158.9438 C   0  0  0  0  0  0  0  0  0  0  0  0
  154.1244  141.9918  160.9592 H   0  0  0  0  0  0  0  0  0  0  0  0
  152.5917  141.5726  161.7355 H   0  0  0  0  0  0  0  0  0  0  0  0
  153.3237  143.1542  162.0215 H   0  0  0  0  0  0  0  0  0  0  0  0
  152.1404  144.8788  160.8365 H   0  0  0  0  0  0  0  0  0  0  0  0
  150.1917  144.9276  159.0905 H   0  0  0  0  0  0  0  0  0  0  0  0
  151.6526  145.7341  158.5473 H   0  0  0  0  0  0  0  0  0  0  0  0
  150.6638  144.1465  156.8008 H   0  0  0  0  0  0  0  0  0  0  0  0
  152.3237  143.8490  157.1838 H   0  0  0  0  0  0  0  0  0  0  0  0
  149.2470  143.2561  156.7246 H   0  0  0  0  0  0  0  0  0  0  0  0
  147.2475  142.3700  155.9950 H   0  0  0  0  0  0  0  0  0  0  0  0
  147.6051  140.8249  156.7323 H   0  0  0  0  0  0  0  0  0  0  0  0
  147.5722  144.1388  158.6176 H   0  0  0  0  0  0  0  0  0  0  0  0
  145.5017  145.0624  161.4375 H   0  0  0  0  0  0  0  0  0  0  0  0
  146.0569  147.1092  160.2728 H   0  0  0  0  0  0  0  0  0  0  0  0
  144.9580  146.1601  159.2812 H   0  0  0  0  0  0  0  0  0  0  0  0
  146.6727  146.2310  158.8812 H   0  0  0  0  0  0  0  0  0  0  0  0
  147.7197  145.8623  161.8915 H   0  0  0  0  0  0  0  0  0  0  0  0
  148.4044  145.0008  160.5251 H   0  0  0  0  0  0  0  0  0  0  0  0
  147.7487  144.1050  161.8938 H   0  0  0  0  0  0  0  0  0  0  0  0
  153.0535  141.7892  158.3739 H   0  0  0  0  0  0  0  0  0  0  0  0
  151.8925  140.9723  159.3903 H   0  0  0  0  0  0  0  0  0  0  0  0
  1  2  1  0  0  0  0
  1 23  1  0  0  0  0
  1 24  1  0  0  0  0
  1 25  1  0  0  0  0
  2 22  1  0  0  0  0
  2  3  2  0  0  0  0
  3  4  1  0  0  0  0
  3 26  1  0  0  0  0
  4  5  1  0  0  0  0
  4 27  1  0  0  0  0
  4 28  1  0  0  0  0
  5  6  1  0  0  0  0
  5 29  1  0  0  0  0
  5 30  1  0  0  0  0
  6  7  1  0  0  0  0
  6 22  1  0  0  0  0
  7  8  2  0  0  0  0
  7  9  1  0  0  0  0
  9 10  1  0  0  0  0
  9 31  1  0  0  0  0
 10 11  1  0  0  0  0
 10 32  1  0  0  0  0
 10 33  1  0  0  0  0
 11 20  1  0  0  0  0
 11 12  2  0  0  0  0
 12 13  1  0  0  0  0
 12 34  1  0  0  0  0
 13 14  1  0  0  0  0
 13 17  1  0  0  0  0
 14 15  1  0  0  0  0
 14 16  1  0  0  0  0
 14 35  1  0  0  0  0
 15 36  1  0  0  0  0
 15 37  1  0  0  0  0
 15 38  1  0  0  0  0
 16 39  1  0  0  0  0
 16 40  1  0  0  0  0
 16 41  1  0  0  0  0
 17 18  2  0  0  0  0
 17 19  1  0  0  0  0
 19 20  1  0  0  0  0
 20 21  2  0  0  0  0
 22 42  1  0  0  0  0
 22 43  1  0  0  0  0
M  CHG  1  19  -1
M  END
> <s_m_source_file>
AV-unprocessed.smi

> <i_m_source_file_index>
5

> <i_lp_mmshare_version>
43012

> <i_f3d_flags>
0

> <s_epik_input>
W0NIM11DMT1bQ0hdW0NIMl1bQ0gyXU4oW0NIMl0xKUMoPU8pW05IXVtDSDJdYzJbY0hdbihbQ0hdKFtDSDNdKVtDSDNdKWMoPU8pW25IXWMyPU8=

> <s_epik_cmdline>
J2VwaWtfcHl0aG9uJywgJy1waCcsICc3LjAnLCAnLXRuJywgJzgnLCAnLW1hJywgJzIwMCcsICctbWV0YWxfYmluZGluZycsICctaW1hZScsICc8aW5maWxlLm1hZT4nLCAnLW9tYWUnLCAnPG91dGZpbGUubWFlPic=

> <r_lp_tautomer_probability>
0.999537

> <r_epik_Ionization_Penalty>
3.83548

> <r_epik_Ionization_Penalty_Charging>
1.96903e-07

> <r_epik_Ionization_Penalty_Neutral>
3.83548

> <r_epik_State_Penalty>
3.83512

> <r_epik_Charging_Adjusted_Penalty>
3.83512

> <i_epik_Tot_Q>
-1

> <i_epik_Tot_abs_Q>
1

> <r_epik_Metal_State_Penalty>
0.576105

> <b_epik_Metal_Only>
1

> <s_lp_Force_Field>
OPLS_2005

> <r_lp_Energy>
38.6384

> <b_lp_Chiralities_Consistent>
1

> <s_lp_Variant>
AV-unprocessed.smi:5-2

> <Gold.Version>
5.8.1

> <Gold.Id.Protein>
6NUR|6NUR_protein|mol2

> <Gold.PLP.Fitness>
47.2838

> <Gold.PLP.PLP>
-42.3076

> <Gold.PLP.part.hbond>
-1.0000

> <Gold.PLP.part.metal>
0.0000

> <Gold.PLP.part.buried>
-5.0763

> <Gold.PLP.part.nonpolar>
-36.3988

> <Gold.PLP.part.repulsive>
0.1089

> <Gold.PLP.ligand.clash>
0.0000

> <Gold.PLP.ligand.torsion>
0.5427

> <Gold.PLP.Chemscore.Hbond>
1.0000

> <Gold.PLP.Chemscore.CHOScore>
1.0000

> <Gold.PLP.Chemscore.Metal>
0.0000

> <Gold.Chemscore.Hbonds>
donor molecule, donor type, donor heavy atom, donor atom, acceptor molecule, acceptor atom, score
      L1  H     9    31       P1  8028  1.00
      L1  C    12    34       P1  8029  1.00

> <Gold.PLP.Chemscore.Internal.Correction>
0.0616

> <Gold.Rescore>
     Score         DG    S(hbond)    S(metal)    S(lipo)     H(rot)  DE(clash)    DE(int)     intcor
     14.95     -15.60       0.86        0.00      93.70       1.46       0.11       0.54       ----

> <Gold.Chemscore.Fitness>
14.9504

> <Gold.Chemscore.DG>
-15.6024

> <Gold.Chemscore.ZeroCoef>
-5.4800

> <Gold.Chemscore.Hbond>
0.8643

> <Gold.Chemscore.Metal>
0.0000

> <Gold.Chemscore.Lipo>
93.7035

> <Gold.Chemscore.Internal_Hbond>
0.0000

> <Gold.Chemscore.DEClash>
0.1148

> <Gold.Chemscore.DEInternal>
0.5372

> <Gold.Chemscore.Rot>
1.4561

> <Gold.Chemscore.Internal.Correction>
   9.000000E+99

> <Gold.Chemscore.Hbonds>
donor molecule, donor type, donor heavy atom, donor atom, acceptor molecule, acceptor atom, score
      L1  H     9    31       P1  8028  0.95

> <Gold.Chemscore.Hbond.Weighted>
-2.8866

> <Gold.Chemscore.Metal.Weighted>
-0.0000

> <Gold.Chemscore.Lipo.Weighted>
-10.9633

> <Gold.Chemscore.Internal_Hbond.Weighted>
0.0000

> <Gold.Chemscore.DEClash.Weighted>
0.1148

> <Gold.Chemscore.DEInternal.Weighted>
0.5372

> <Gold.Chemscore.Rot.Weighted>
3.7276

> <Gold.Chemscore.Internal.Correction.Weighted>
   9.000000E+99

> <Gold.Protein.RotatedTorsions>
[ 6907 6896 6895 6894 ] final  -97.78 input  -60.11 | X-H torsion
[ 7974 7965 7964 7962 ] final  -10.94 input  175.53 | X-H torsion
[ 8008 7997 7996 7995 ] final  173.58 input   59.86 | X-H torsion
[ 10167 10162 10161 10158 ] final   -4.39 input  -65.29 | X-H torsion
[ 10718 10713 10712 10709 ] final  120.03 input   66.30 | X-H torsion
[ 10763 10752 10751 10750 ] final    6.14 input  -60.55 | X-H torsion
[ 11005 11000 10999 10996 ] final   10.80 input  -57.11 | X-H torsion

> <Gold.Protein.ActiveResidues>
 VAL166  LYS551  ARG553  GLY616  TRP617  ASP618  TYR619  PRO620  LYS621  CYS622 
 ASP623  PHE694  ASN695  SER759  ASP760  ASP761  ALA762  ILE779  LEU786  VAL792 
 PHE793  MET794  SER795  GLU796  ALA797  LYS798  CYS799  TRP800  GLU811  SER814 

> <Gold.Protein.RotatedAtoms>
  150.7026  134.1296  159.4064 H   0  0  0  0  0  0  0  0  0  0  0  0  # atno 6907 bound_to 6896
  151.9281  135.0266  160.0536 H   0  0  0  0  0  0  0  0  0  0  0  0  # atno 6908 bound_to 6896
  152.2199  133.4940  159.5193 H   0  0  0  0  0  0  0  0  0  0  0  0  # atno 6909 bound_to 6896
  146.2204  140.2838  142.8364 H   0  0  0  0  0  0  0  0  0  0  0  0  # atno 7974 bound_to 7965
  156.1061  140.1456  156.9402 H   0  0  0  0  0  0  0  0  0  0  0  0  # atno 8008 bound_to 7997
  154.4735  140.0902  156.7248 H   0  0  0  0  0  0  0  0  0  0  0  0  # atno 8009 bound_to 7997
  155.4677  140.3440  155.4323 H   0  0  0  0  0  0  0  0  0  0  0  0  # atno 8010 bound_to 7997
  140.6926  143.6429  150.8419 H   0  0  0  0  0  0  0  0  0  0  0  0  # atno 10167 bound_to 10162
  157.5920  131.1063  150.7979 H   0  0  0  0  0  0  0  0  0  0  0  0  # atno 10718 bound_to 10713
  153.2511  135.6914  153.7678 H   0  0  0  0  0  0  0  0  0  0  0  0  # atno 10763 bound_to 10752
  153.6772  135.3334  155.3169 H   0  0  0  0  0  0  0  0  0  0  0  0  # atno 10764 bound_to 10752
  154.8394  135.4514  154.1469 H   0  0  0  0  0  0  0  0  0  0  0  0  # atno 10765 bound_to 10752
  140.5104  134.0658  155.7817 H   0  0  0  0  0  0  0  0  0  0  0  0  # atno 11005 bound_to 11000
  144.9177  140.7832  143.5768 LP  0  0  0  0  0  0  0  0  0  0  0  0  # atno 17320 bound_to 7965
  145.2773  139.1932  143.4810 LP  0  0  0  0  0  0  0  0  0  0  0  0  # atno 17321 bound_to 7965
  140.0144  143.5609  152.2826 LP  0  0  0  0  0  0  0  0  0  0  0  0  # atno 17342 bound_to 10162
  139.6344  144.7648  151.2468 LP  0  0  0  0  0  0  0  0  0  0  0  0  # atno 17343 bound_to 10162
  156.8399  130.5044  149.5322 LP  0  0  0  0  0  0  0  0  0  0  0  0  # atno 17370 bound_to 10713
  156.0976  130.5944  150.9839 LP  0  0  0  0  0  0  0  0  0  0  0  0  # atno 17371 bound_to 10713
  141.1388  133.9174  157.2372 LP  0  0  0  0  0  0  0  0  0  0  0  0  # atno 17394 bound_to 11000
  139.9662  135.0141  156.9393 LP  0  0  0  0  0  0  0  0  0  0  0  0  # atno 17395 bound_to 11000

$$$$
