AV-unprocessed.smi:1378|AV-procd|sdf|5597|dock2
  -GOLD-   22720 5203D 1   1.00000     0.00000
 Structure written by MMmdl.
 47 49  0  0  0  0  0  0  0  0  2 V2000
  154.1243  137.1800  163.0684 C   0  0  0  0  0  0  0  0  0  0  0  0
  154.7287  138.3525  162.5502 O   0  0  0  0  0  0  0  0  0  0  0  0
  154.3012  138.6426  161.2317 C   0  0  0  0  0  0  0  0  0  0  0  0
  154.8733  140.0046  160.8111 C   0  0  0  0  0  0  0  0  0  0  0  0
  154.2911  141.1217  161.5686 N   0  0  0  0  0  0  0  0  0  0  0  0
  154.4357  141.4926  162.8732 C   0  0  0  0  0  0  0  0  0  0  0  0
  155.3832  140.6791  164.1193 S   0  0  0  0  0  0  0  0  0  0  0  0
  155.2035  141.6920  165.6158 C   0  0  0  0  0  0  0  0  0  0  0  0
  155.9408  141.1059  166.8194 C   0  0  0  0  0  0  0  0  0  0  0  0
  156.5276  140.0292  166.7232 O   0  0  0  0  0  0  0  0  0  0  0  0
  155.9180  141.8427  167.9393 N   0  0  0  0  0  0  0  0  0  0  0  0
  156.5883  141.5210  169.1936 C   0  0  0  0  0  0  0  0  0  0  0  0
  156.0693  140.1906  169.7771 C   0  0  0  0  0  0  0  0  0  0  0  0
  155.5199  140.5140  171.1703 C   0  0  0  0  0  0  0  0  0  0  0  0
  155.1757  141.9999  171.1212 C   0  0  0  0  0  0  0  0  0  0  0  0
  156.2716  142.5992  170.2428 C   0  0  0  0  0  0  0  0  0  0  0  0
  153.6898  142.6132  163.0712 N   0  3  0  0  0  0  0  0  0  0  0  0
  153.0579  142.9694  161.8795 C   0  0  0  0  0  0  0  0  0  0  0  0
  152.1979  144.0224  161.5840 C   0  0  0  0  0  0  0  0  0  0  0  0
  151.7288  144.1026  160.2564 C   0  0  0  0  0  0  0  0  0  0  0  0
  152.1176  143.1607  159.2819 C   0  0  0  0  0  0  0  0  0  0  0  0
  152.9899  142.0971  159.5931 C   0  0  0  0  0  0  0  0  0  0  0  0
  153.4461  142.0219  160.9087 C   0  0  0  0  0  0  0  0  0  0  0  0
  154.4865  136.9975  164.0801 H   0  0  0  0  0  0  0  0  0  0  0  0
  154.3691  136.3081  162.4606 H   0  0  0  0  0  0  0  0  0  0  0  0
  153.0390  137.2820  163.1127 H   0  0  0  0  0  0  0  0  0  0  0  0
  154.6357  137.8558  160.5544 H   0  0  0  0  0  0  0  0  0  0  0  0
  153.2130  138.6618  161.1977 H   0  0  0  0  0  0  0  0  0  0  0  0
  155.9535  140.0212  160.9583 H   0  0  0  0  0  0  0  0  0  0  0  0
  154.7016  140.1868  159.7494 H   0  0  0  0  0  0  0  0  0  0  0  0
  155.5674  142.6986  165.4089 H   0  0  0  0  0  0  0  0  0  0  0  0
  154.1429  141.7854  165.8507 H   0  0  0  0  0  0  0  0  0  0  0  0
  155.4008  142.7094  167.9174 H   0  0  0  0  0  0  0  0  0  0  0  0
  157.6678  141.4795  169.0368 H   0  0  0  0  0  0  0  0  0  0  0  0
  155.2720  139.7761  169.1579 H   0  0  0  0  0  0  0  0  0  0  0  0
  156.8561  139.4375  169.8270 H   0  0  0  0  0  0  0  0  0  0  0  0
  154.6634  139.8940  171.4368 H   0  0  0  0  0  0  0  0  0  0  0  0
  156.2961  140.3449  171.9176 H   0  0  0  0  0  0  0  0  0  0  0  0
  154.2042  142.1395  170.6451 H   0  0  0  0  0  0  0  0  0  0  0  0
  155.1331  142.4552  172.1110 H   0  0  0  0  0  0  0  0  0  0  0  0
  157.1584  142.7803  170.8517 H   0  0  0  0  0  0  0  0  0  0  0  0
  155.9794  143.5563  169.8094 H   0  0  0  0  0  0  0  0  0  0  0  0
  151.9002  144.7467  162.3280 H   0  0  0  0  0  0  0  0  0  0  0  0
  151.0587  144.9036  159.9797 H   0  0  0  0  0  0  0  0  0  0  0  0
  151.7389  143.2554  158.2744 H   0  0  0  0  0  0  0  0  0  0  0  0
  153.2806  141.3800  158.8396 H   0  0  0  0  0  0  0  0  0  0  0  0
  153.6166  143.0929  163.9593 H   0  0  0  0  0  0  0  0  0  0  0  0
  1  2  1  0  0  0  0
  1 24  1  0  0  0  0
  1 25  1  0  0  0  0
  1 26  1  0  0  0  0
  2  3  1  0  0  0  0
  3  4  1  0  0  0  0
  3 27  1  0  0  0  0
  3 28  1  0  0  0  0
  4  5  1  0  0  0  0
  4 29  1  0  0  0  0
  4 30  1  0  0  0  0
  5 23  1  0  0  0  0
  5  6  1  0  0  0  0
  6  7  1  0  0  0  0
  6 17  2  0  0  0  0
  7  8  1  0  0  0  0
  8  9  1  0  0  0  0
  8 31  1  0  0  0  0
  8 32  1  0  0  0  0
  9 10  2  0  0  0  0
  9 11  1  0  0  0  0
 11 12  1  0  0  0  0
 11 33  1  0  0  0  0
 12 16  1  0  0  0  0
 12 13  1  0  0  0  0
 12 34  1  0  0  0  0
 13 14  1  0  0  0  0
 13 35  1  0  0  0  0
 13 36  1  0  0  0  0
 14 15  1  0  0  0  0
 14 37  1  0  0  0  0
 14 38  1  0  0  0  0
 15 16  1  0  0  0  0
 15 39  1  0  0  0  0
 15 40  1  0  0  0  0
 16 41  1  0  0  0  0
 16 42  1  0  0  0  0
 17 18  1  0  0  0  0
 17 47  1  0  0  0  0
 18 23  2  0  0  0  0
 18 19  1  0  0  0  0
 19 20  2  0  0  0  0
 19 43  1  0  0  0  0
 20 21  1  0  0  0  0
 20 44  1  0  0  0  0
 21 22  2  0  0  0  0
 21 45  1  0  0  0  0
 22 23  1  0  0  0  0
 22 46  1  0  0  0  0
M  CHG  1  17   1
M  END
> <s_m_source_file>
AV-unprocessed.smi

> <i_m_source_file_index>
1378

> <i_lp_mmshare_version>
43012

> <i_f3d_flags>
0

> <s_epik_input>
W2NIXTFbY0hdW2NIXVtjSF1jKGMxMiluKFtDSDJdW0NIMl1PW0NIM10pYyhuMilTW0NIMl1DKD1PKVtOSF1bQ0hdM1tDSDJdW0NIMl1bQ0gyXVtDSDJdMw==

> <s_epik_cmdline>
J2VwaWtfcHl0aG9uJywgJy1waCcsICc3LjAnLCAnLXRuJywgJzgnLCAnLW1hJywgJzIwMCcsICctbWV0YWxfYmluZGluZycsICctaW1hZScsICc8aW5maWxlLm1hZT4nLCAnLW9tYWUnLCAnPG91dGZpbGUubWFlPic=

> <r_epik_Ionization_Penalty>
1.66257

> <r_epik_Ionization_Penalty_Charging>
1.66257

> <r_epik_Ionization_Penalty_Neutral>
9.72138e-08

> <r_epik_State_Penalty>
1.76557

> <r_epik_Charging_Adjusted_Penalty>
3.42813

> <i_epik_Tot_Q>
1

> <i_epik_Tot_abs_Q>
1

> <r_epik_Metal_State_Penalty>
1.80074

> <b_epik_Metal_Only>
0

> <s_lp_Force_Field>
OPLS_2005

> <r_lp_Energy>
23.1428

> <b_lp_Chiralities_Consistent>
1

> <s_lp_Variant>
AV-unprocessed.smi:1378-2

> <Gold.Version>
5.8.1

> <Gold.Id.Protein>
6NUR|6NUR_protein|mol2

> <Gold.PLP.Fitness>
45.7345

> <Gold.PLP.PLP>
-45.8844

> <Gold.PLP.part.hbond>
-0.1913

> <Gold.PLP.part.metal>
0.0000

> <Gold.PLP.part.buried>
-2.0891

> <Gold.PLP.part.nonpolar>
-42.4781

> <Gold.PLP.part.repulsive>
0.1174

> <Gold.PLP.ligand.clash>
0.0000

> <Gold.PLP.ligand.torsion>
0.1352

> <Gold.PLP.Chemscore.Hbond>
0.0000

> <Gold.PLP.Chemscore.CHOScore>
0.0000

> <Gold.PLP.Chemscore.Metal>
0.0000

> <Gold.PLP.Chemscore.Internal.Correction>
0.1205

> <Gold.Rescore>
     Score         DG    S(hbond)    S(metal)    S(lipo)     H(rot)  DE(clash)    DE(int)     intcor
     11.87     -15.11       0.00        0.00     127.34       2.06       1.38       1.87       ----

> <Gold.Chemscore.Fitness>
11.8658

> <Gold.Chemscore.DG>
-15.1133

> <Gold.Chemscore.ZeroCoef>
-5.4800

> <Gold.Chemscore.Hbond>
0.0000

> <Gold.Chemscore.Metal>
0.0000

> <Gold.Chemscore.Lipo>
127.3378

> <Gold.Chemscore.Internal_Hbond>
0.0000

> <Gold.Chemscore.DEClash>
1.3821

> <Gold.Chemscore.DEInternal>
1.8653

> <Gold.Chemscore.Rot>
2.0567

> <Gold.Chemscore.Internal.Correction>
   9.000000E+99

> <Gold.Chemscore.Hbond.Weighted>
-0.0000

> <Gold.Chemscore.Metal.Weighted>
-0.0000

> <Gold.Chemscore.Lipo.Weighted>
-14.8985

> <Gold.Chemscore.Internal_Hbond.Weighted>
0.0000

> <Gold.Chemscore.DEClash.Weighted>
1.3821

> <Gold.Chemscore.DEInternal.Weighted>
1.8653

> <Gold.Chemscore.Rot.Weighted>
5.2652

> <Gold.Chemscore.Internal.Correction.Weighted>
   9.000000E+99

> <Gold.Protein.RotatedTorsions>
[ 6907 6896 6895 6894 ] final -133.17 input  -60.11 | X-H torsion
[ 7974 7965 7964 7962 ] final  142.27 input  175.53 | X-H torsion
[ 8008 7997 7996 7995 ] final   67.75 input   59.86 | X-H torsion
[ 10167 10162 10161 10158 ] final -160.08 input  -65.29 | X-H torsion
[ 10718 10713 10712 10709 ] final   89.53 input   66.30 | X-H torsion
[ 10763 10752 10751 10750 ] final  -20.43 input  -60.55 | X-H torsion
[ 11005 11000 10999 10996 ] final  143.64 input  -57.11 | X-H torsion

> <Gold.Protein.ActiveResidues>
 VAL166  LYS551  ARG553  GLY616  TRP617  ASP618  TYR619  PRO620  LYS621  CYS622 
 ASP623  PHE694  ASN695  SER759  ASP760  ASP761  ALA762  ILE779  LEU786  VAL792 
 PHE793  MET794  SER795  GLU796  ALA797  LYS798  CYS799  TRP800  GLU811  SER814 

> <Gold.Protein.RotatedAtoms>
  150.9709  133.6345  159.2738 H   0  0  0  0  0  0  0  0  0  0  0  0  # atno 6907 bound_to 6896
  151.3635  135.0907  159.9452 H   0  0  0  0  0  0  0  0  0  0  0  0  # atno 6908 bound_to 6896
  152.5182  133.9277  159.7620 H   0  0  0  0  0  0  0  0  0  0  0  0  # atno 6909 bound_to 6896
  144.9022  139.5407  143.5748 H   0  0  0  0  0  0  0  0  0  0  0  0  # atno 7974 bound_to 7965
  155.6977  140.3495  155.4920 H   0  0  0  0  0  0  0  0  0  0  0  0  # atno 8008 bound_to 7997
  155.9468  140.1112  157.1032 H   0  0  0  0  0  0  0  0  0  0  0  0  # atno 8009 bound_to 7997
  154.4113  140.1202  156.4986 H   0  0  0  0  0  0  0  0  0  0  0  0  # atno 8010 bound_to 7997
  139.6567  143.9987  152.2198 H   0  0  0  0  0  0  0  0  0  0  0  0  # atno 10167 bound_to 10162
  157.6955  131.0336  150.3440 H   0  0  0  0  0  0  0  0  0  0  0  0  # atno 10718 bound_to 10713
  153.6202  135.6993  153.5313 H   0  0  0  0  0  0  0  0  0  0  0  0  # atno 10763 bound_to 10752
  153.2943  135.4147  155.1195 H   0  0  0  0  0  0  0  0  0  0  0  0  # atno 10764 bound_to 10752
  154.8545  135.3633  154.5743 H   0  0  0  0  0  0  0  0  0  0  0  0  # atno 10765 bound_to 10752
  140.0570  134.9225  157.1117 H   0  0  0  0  0  0  0  0  0  0  0  0  # atno 11005 bound_to 11000
  146.3114  139.7762  142.9016 LP  0  0  0  0  0  0  0  0  0  0  0  0  # atno 17320 bound_to 7965
  145.3596  141.0323  143.3292 LP  0  0  0  0  0  0  0  0  0  0  0  0  # atno 17321 bound_to 7965
  139.9715  144.6490  150.7985 LP  0  0  0  0  0  0  0  0  0  0  0  0  # atno 17342 bound_to 10162
  140.7562  143.3061  151.2958 LP  0  0  0  0  0  0  0  0  0  0  0  0  # atno 17343 bound_to 10162
  156.3897  130.3895  149.7039 LP  0  0  0  0  0  0  0  0  0  0  0  0  # atno 17370 bound_to 10713
  156.4393  130.7853  151.2874 LP  0  0  0  0  0  0  0  0  0  0  0  0  # atno 17371 bound_to 10713
  140.3829  134.2267  155.7170 LP  0  0  0  0  0  0  0  0  0  0  0  0  # atno 17394 bound_to 11000
  141.1956  133.8101  157.0707 LP  0  0  0  0  0  0  0  0  0  0  0  0  # atno 17395 bound_to 11000

$$$$
