AV-unprocessed.smi:2593|AV-procd|sdf|10164|dock5
  -GOLD-   2272014183D 1   1.00000     0.00000
 Structure written by MMmdl.
 41 43  0  0  0  0  0  0  0  0  2 V2000
  156.2552  140.1260  160.0494 C   0  0  0  0  0  0  0  0  0  0  0  0
  154.9841  139.8990  159.4669 O   0  0  0  0  0  0  0  0  0  0  0  0
  154.0629  140.9410  159.7461 C   0  0  0  0  0  0  0  0  0  0  0  0
  152.6702  140.5427  159.2381 C   0  0  0  0  0  0  0  0  0  0  0  0
  151.9710  141.6653  158.5969 N   0  0  0  0  0  0  0  0  0  0  0  0
  151.3304  141.7447  157.3968 C   0  0  0  0  0  0  0  0  0  0  0  0
  151.1052  140.4450  156.2277 S   0  0  0  0  0  0  0  0  0  0  0  0
  149.6153  139.5750  156.7934 C   0  0  0  0  0  0  0  0  0  0  0  0
  148.6684  139.3639  155.6275 C   0  0  0  0  0  0  0  0  0  0  0  0
  149.0634  138.5987  154.5103 C   0  0  0  0  0  0  0  0  0  0  0  0
  148.1590  138.4595  153.4401 C   0  0  0  0  0  0  0  0  0  0  0  0
  146.9038  139.0930  153.5254 C   0  0  0  0  0  0  0  0  0  0  0  0
  146.6040  139.8365  154.6850 C   0  0  0  0  0  0  0  0  0  0  0  0
  145.3770  140.4837  154.8036 N   0  0  0  0  0  0  0  0  0  0  0  0
  147.4626  139.9701  155.7178 N   0  0  0  0  0  0  0  0  0  0  0  0
  150.8586  143.0139  157.2609 N   0  3  0  0  0  0  0  0  0  0  0  0
  151.1954  143.7584  158.3921 C   0  0  0  0  0  0  0  0  0  0  0  0
  150.9342  145.0850  158.7204 C   0  0  0  0  0  0  0  0  0  0  0  0
  151.4250  145.5379  159.9625 C   0  0  0  0  0  0  0  0  0  0  0  0
  152.1446  144.6843  160.8237 C   0  0  0  0  0  0  0  0  0  0  0  0
  152.4035  143.3407  160.4808 C   0  0  0  0  0  0  0  0  0  0  0  0
  151.9125  142.8998  159.2524 C   0  0  0  0  0  0  0  0  0  0  0  0
  156.9244  139.3024  159.8008 H   0  0  0  0  0  0  0  0  0  0  0  0
  156.1854  140.1868  161.1362 H   0  0  0  0  0  0  0  0  0  0  0  0
  156.7020  141.0476  159.6745 H   0  0  0  0  0  0  0  0  0  0  0  0
  154.0238  141.1299  160.8199 H   0  0  0  0  0  0  0  0  0  0  0  0
  154.3885  141.8640  159.2643 H   0  0  0  0  0  0  0  0  0  0  0  0
  152.7596  139.7403  158.5067 H   0  0  0  0  0  0  0  0  0  0  0  0
  152.0508  140.1546  160.0471 H   0  0  0  0  0  0  0  0  0  0  0  0
  149.8988  138.6138  157.2226 H   0  0  0  0  0  0  0  0  0  0  0  0
  149.1281  140.1498  157.5816 H   0  0  0  0  0  0  0  0  0  0  0  0
  150.0376  138.1332  154.4715 H   0  0  0  0  0  0  0  0  0  0  0  0
  148.4250  137.8819  152.5673 H   0  0  0  0  0  0  0  0  0  0  0  0
  146.1913  139.0070  152.7179 H   0  0  0  0  0  0  0  0  0  0  0  0
  144.6840  140.4351  154.0707 H   0  0  0  0  0  0  0  0  0  0  0  0
  145.0982  140.9223  155.6694 H   0  0  0  0  0  0  0  0  0  0  0  0
  150.3841  145.7416  158.0620 H   0  0  0  0  0  0  0  0  0  0  0  0
  151.2467  146.5610  160.2604 H   0  0  0  0  0  0  0  0  0  0  0  0
  152.5056  145.0676  161.7671 H   0  0  0  0  0  0  0  0  0  0  0  0
  152.9565  142.6950  161.1469 H   0  0  0  0  0  0  0  0  0  0  0  0
  150.3369  143.3396  156.4576 H   0  0  0  0  0  0  0  0  0  0  0  0
  1  2  1  0  0  0  0
  1 23  1  0  0  0  0
  1 24  1  0  0  0  0
  1 25  1  0  0  0  0
  2  3  1  0  0  0  0
  3  4  1  0  0  0  0
  3 26  1  0  0  0  0
  3 27  1  0  0  0  0
  4  5  1  0  0  0  0
  4 28  1  0  0  0  0
  4 29  1  0  0  0  0
  5 22  1  0  0  0  0
  5  6  1  0  0  0  0
  6  7  1  0  0  0  0
  6 16  2  0  0  0  0
  7  8  1  0  0  0  0
  8  9  1  0  0  0  0
  8 30  1  0  0  0  0
  8 31  1  0  0  0  0
  9 15  1  0  0  0  0
  9 10  2  0  0  0  0
 10 11  1  0  0  0  0
 10 32  1  0  0  0  0
 11 12  2  0  0  0  0
 11 33  1  0  0  0  0
 12 13  1  0  0  0  0
 12 34  1  0  0  0  0
 13 14  1  0  0  0  0
 13 15  2  0  0  0  0
 14 35  1  0  0  0  0
 14 36  1  0  0  0  0
 16 17  1  0  0  0  0
 16 41  1  0  0  0  0
 17 22  2  0  0  0  0
 17 18  1  0  0  0  0
 18 19  2  0  0  0  0
 18 37  1  0  0  0  0
 19 20  1  0  0  0  0
 19 38  1  0  0  0  0
 20 21  2  0  0  0  0
 20 39  1  0  0  0  0
 21 22  1  0  0  0  0
 21 40  1  0  0  0  0
M  CHG  1  16   1
M  END
> <s_m_source_file>
AV-unprocessed.smi

> <i_m_source_file_index>
2593

> <i_lp_mmshare_version>
43012

> <i_f3d_flags>
0

> <s_epik_input>
W2NIXTFbY0hdW2NIXVtjSF1jKGMxMiluKFtDSDJdW0NIMl1PW0NIM10pYyhuMilTW0NIMl1jM1tjSF1bY0hdW2NIXWMobjMpW05IMl0=

> <s_epik_cmdline>
J2VwaWtfcHl0aG9uJywgJy1waCcsICc3LjAnLCAnLXRuJywgJzgnLCAnLW1hJywgJzIwMCcsICctbWV0YWxfYmluZGluZycsICctaW1hZScsICc8aW5maWxlLm1hZT4nLCAnLW9tYWUnLCAnPG91dGZpbGUubWFlPic=

> <r_lp_tautomer_probability>
1

> <r_epik_Ionization_Penalty>
1.62501

> <r_epik_Ionization_Penalty_Charging>
1.62036

> <r_epik_Ionization_Penalty_Neutral>
0.00464699

> <r_epik_State_Penalty>
1.7318

> <r_epik_Charging_Adjusted_Penalty>
3.35216

> <i_epik_Tot_Q>
1

> <i_epik_Tot_abs_Q>
1

> <r_epik_Metal_State_Penalty>
1.7649

> <b_epik_Metal_Only>
0

> <s_lp_Force_Field>
OPLS_2005

> <r_lp_Energy>
8.46533

> <b_lp_Chiralities_Consistent>
1

> <s_lp_Variant>
AV-unprocessed.smi:2593-2

> <Gold.Version>
5.8.1

> <Gold.Id.Protein>
6NUR|6NUR_protein|mol2

> <Gold.PLP.Fitness>
51.4899

> <Gold.PLP.PLP>
-41.6523

> <Gold.PLP.part.hbond>
-3.0000

> <Gold.PLP.part.metal>
0.0000

> <Gold.PLP.part.buried>
-3.9261

> <Gold.PLP.part.nonpolar>
-35.2999

> <Gold.PLP.part.repulsive>
0.0303

> <Gold.PLP.ligand.clash>
0.0000

> <Gold.PLP.ligand.torsion>
1.1122

> <Gold.PLP.Chemscore.Hbond>
4.0000

> <Gold.PLP.Chemscore.CHOScore>
0.0000

> <Gold.PLP.Chemscore.Metal>
0.0000

> <Gold.Chemscore.Hbonds>
donor molecule, donor type, donor heavy atom, donor atom, acceptor molecule, acceptor atom, score
      L1  H    14    35       P1 10175  1.00
      L1  H    16    41       P1  8028  1.32
      P1  H  7997  8010       L1     2  0.76

> <Gold.PLP.Chemscore.Internal.Correction>
0.0620

> <Gold.Rescore>
     Score         DG    S(hbond)    S(metal)    S(lipo)     H(rot)  DE(clash)    DE(int)     intcor
     19.23     -21.61       2.37        0.00     118.05       2.19       0.16       2.21       ----

> <Gold.Chemscore.Fitness>
19.2291

> <Gold.Chemscore.DG>
-21.6059

> <Gold.Chemscore.ZeroCoef>
-5.4800

> <Gold.Chemscore.Hbond>
2.3746

> <Gold.Chemscore.Metal>
0.0000

> <Gold.Chemscore.Lipo>
118.0474

> <Gold.Chemscore.Internal_Hbond>
0.0000

> <Gold.Chemscore.DEClash>
0.1618

> <Gold.Chemscore.DEInternal>
2.2150

> <Gold.Chemscore.Rot>
2.1941

> <Gold.Chemscore.Internal.Correction>
   9.000000E+99

> <Gold.Chemscore.Hbonds>
donor molecule, donor type, donor heavy atom, donor atom, acceptor molecule, acceptor atom, score
      L1  H    14    35       P1 10175  1.00
      L1  H    16    41       P1  8028  0.65
      P1  H  7997  8010       L1     2  0.15

> <Gold.Chemscore.Hbond.Weighted>
-7.9312

> <Gold.Chemscore.Metal.Weighted>
-0.0000

> <Gold.Chemscore.Lipo.Weighted>
-13.8115

> <Gold.Chemscore.Internal_Hbond.Weighted>
0.0000

> <Gold.Chemscore.DEClash.Weighted>
0.1618

> <Gold.Chemscore.DEInternal.Weighted>
2.2150

> <Gold.Chemscore.Rot.Weighted>
5.6169

> <Gold.Chemscore.Internal.Correction.Weighted>
   9.000000E+99

> <Gold.Protein.RotatedTorsions>
[ 6907 6896 6895 6894 ] final   97.92 input  -60.11 | X-H torsion
[ 7974 7965 7964 7962 ] final -164.92 input  175.53 | X-H torsion
[ 8008 7997 7996 7995 ] final   -1.44 input   59.86 | X-H torsion
[ 10167 10162 10161 10158 ] final  162.33 input  -65.29 | X-H torsion
[ 10718 10713 10712 10709 ] final   46.51 input   66.30 | X-H torsion
[ 10763 10752 10751 10750 ] final   -9.73 input  -60.55 | X-H torsion
[ 11005 11000 10999 10996 ] final -118.75 input  -57.11 | X-H torsion

> <Gold.Protein.ActiveResidues>
 VAL166  LYS551  ARG553  GLY616  TRP617  ASP618  TYR619  PRO620  LYS621  CYS622 
 ASP623  PHE694  ASN695  SER759  ASP760  ASP761  ALA762  ILE779  LEU786  VAL792 
 PHE793  MET794  SER795  GLU796  ALA797  LYS798  CYS799  TRP800  GLU811  SER814 

> <Gold.Protein.RotatedAtoms>
  152.5417  134.0660  159.8172 H   0  0  0  0  0  0  0  0  0  0  0  0  # atno 6907 bound_to 6896
  151.0781  133.5404  159.2630 H   0  0  0  0  0  0  0  0  0  0  0  0  # atno 6908 bound_to 6896
  151.2242  135.0538  159.9016 H   0  0  0  0  0  0  0  0  0  0  0  0  # atno 6909 bound_to 6896
  144.7283  140.2889  143.6223 H   0  0  0  0  0  0  0  0  0  0  0  0  # atno 7974 bound_to 7965
  154.6468  140.2559  155.7259 H   0  0  0  0  0  0  0  0  0  0  0  0  # atno 8008 bound_to 7997
  156.2556  140.2876  156.0805 H   0  0  0  0  0  0  0  0  0  0  0  0  # atno 8009 bound_to 7997
  155.1512  140.0382  157.2812 H   0  0  0  0  0  0  0  0  0  0  0  0  # atno 8010 bound_to 7997
  139.4859  144.4448  151.8906 H   0  0  0  0  0  0  0  0  0  0  0  0  # atno 10167 bound_to 10162
  157.4489  130.8126  149.7768 H   0  0  0  0  0  0  0  0  0  0  0  0  # atno 10718 bound_to 10713
  153.4590  135.7016  153.6062 H   0  0  0  0  0  0  0  0  0  0  0  0  # atno 10763 bound_to 10752
  153.4364  135.3790  155.2202 H   0  0  0  0  0  0  0  0  0  0  0  0  # atno 10764 bound_to 10752
  154.8727  135.3963  154.4013 H   0  0  0  0  0  0  0  0  0  0  0  0  # atno 10765 bound_to 10752
  141.0264  134.0047  157.3208 H   0  0  0  0  0  0  0  0  0  0  0  0  # atno 11005 bound_to 11000
  145.7874  139.1914  143.2122 LP  0  0  0  0  0  0  0  0  0  0  0  0  # atno 17320 bound_to 7965
  146.0784  140.7792  142.9654 LP  0  0  0  0  0  0  0  0  0  0  0  0  # atno 17321 bound_to 7965
  140.3901  144.2626  150.5900 LP  0  0  0  0  0  0  0  0  0  0  0  0  # atno 17342 bound_to 10162
  140.5153  143.2279  151.8472 LP  0  0  0  0  0  0  0  0  0  0  0  0  # atno 17343 bound_to 10162
  155.9979  130.3897  150.2724 LP  0  0  0  0  0  0  0  0  0  0  0  0  # atno 17370 bound_to 10713
  157.0894  131.0165  151.3127 LP  0  0  0  0  0  0  0  0  0  0  0  0  # atno 17371 bound_to 10713
  139.9179  135.0198  156.7951 LP  0  0  0  0  0  0  0  0  0  0  0  0  # atno 17394 bound_to 11000
  140.6484  133.9754  155.7742 LP  0  0  0  0  0  0  0  0  0  0  0  0  # atno 17395 bound_to 11000

$$$$
