AV-unprocessed.smi:2906|AV-procd|sdf|11162|dock8
  -GOLD-   2272016 53D 1   1.00000     0.00000
 Structure written by MMmdl.
 40 41  0  0  0  0  0  0  0  0  1 V2000
  150.9059  142.2916  157.1387 C   0  0  0  0  0  0  0  0  0  0  0  0
  150.7768  141.3725  155.9133 C   0  0  0  0  0  0  0  0  0  0  0  0
  149.8453  140.1688  156.1363 C   0  0  0  0  0  0  0  0  0  0  0  0
  149.9988  139.4503  157.1252 O   0  0  0  0  0  0  0  0  0  0  0  0
  148.8738  139.9373  155.2284 N   0  0  0  0  0  0  0  0  0  0  0  0
  148.6786  140.7564  154.0369 C   0  0  0  0  0  0  0  0  0  0  0  0
  147.3167  140.3704  153.4626 C   0  0  0  0  0  0  0  0  0  0  0  0
  146.9608  139.0198  154.0844 C   0  0  1  0  0  0  0  0  0  0  0  0
  147.0724  137.9349  153.1130 N   0  0  0  0  0  0  0  0  0  0  0  0
  146.0814  137.0954  152.7796 C   0  0  0  0  0  0  0  0  0  0  0  0
  144.9545  137.1470  153.2737 O   0  0  0  0  0  0  0  0  0  0  0  0
  146.4847  136.2107  151.8509 N   0  0  0  0  0  0  0  0  0  0  0  0
  145.7365  135.1602  151.2585 C   0  0  0  0  0  0  0  0  0  0  0  0
  146.1918  133.9141  151.0887 N   0  0  0  0  0  0  0  0  0  0  0  0
  145.2466  133.0834  150.4790 C   0  0  0  0  0  0  0  0  0  0  0  0
  145.5785  131.6467  150.2123 C   0  0  0  0  0  0  0  0  0  0  0  0
  145.7914  130.8496  151.5041 C   0  0  0  0  0  0  0  0  0  0  0  0
  144.0676  133.7258  150.1883 C   0  0  0  0  0  0  0  0  0  0  0  0
  144.0989  135.4009  150.6704 S   0  0  0  0  0  0  0  0  0  0  0  0
  147.9189  138.8325  155.2728 C   0  0  0  0  0  0  0  0  0  0  0  0
  151.5772  143.1237  156.9260 H   0  0  0  0  0  0  0  0  0  0  0  0
  151.3096  141.7561  157.9987 H   0  0  0  0  0  0  0  0  0  0  0  0
  149.9412  142.7128  157.4242 H   0  0  0  0  0  0  0  0  0  0  0  0
  150.4057  141.9566  155.0708 H   0  0  0  0  0  0  0  0  0  0  0  0
  151.7663  141.0069  155.6372 H   0  0  0  0  0  0  0  0  0  0  0  0
  148.7218  141.8235  154.2603 H   0  0  0  0  0  0  0  0  0  0  0  0
  149.4711  140.5304  153.3221 H   0  0  0  0  0  0  0  0  0  0  0  0
  146.5776  141.1108  153.7713 H   0  0  0  0  0  0  0  0  0  0  0  0
  147.3184  140.3579  152.3717 H   0  0  0  0  0  0  0  0  0  0  0  0
  145.9292  139.0560  154.4402 H   0  0  0  0  0  0  0  0  0  0  0  0
  147.9676  137.8198  152.6611 H   0  0  0  0  0  0  0  0  0  0  0  0
  147.4378  136.2979  151.5306 H   0  0  0  0  0  0  0  0  0  0  0  0
  144.7822  131.1804  149.6312 H   0  0  0  0  0  0  0  0  0  0  0  0
  146.4758  131.5796  149.5963 H   0  0  0  0  0  0  0  0  0  0  0  0
  146.0270  129.8085  151.2835 H   0  0  0  0  0  0  0  0  0  0  0  0
  144.8969  130.8644  152.1273 H   0  0  0  0  0  0  0  0  0  0  0  0
  146.6151  131.2600  152.0890 H   0  0  0  0  0  0  0  0  0  0  0  0
  143.1847  133.3153  149.7215 H   0  0  0  0  0  0  0  0  0  0  0  0
  148.4429  137.8761  155.2325 H   0  0  0  0  0  0  0  0  0  0  0  0
  147.3579  138.8626  156.2079 H   0  0  0  0  0  0  0  0  0  0  0  0
  1  2  1  0  0  0  0
  1 21  1  0  0  0  0
  1 22  1  0  0  0  0
  1 23  1  0  0  0  0
  2  3  1  0  0  0  0
  2 24  1  0  0  0  0
  2 25  1  0  0  0  0
  3  4  2  0  0  0  0
  3  5  1  0  0  0  0
  5 20  1  0  0  0  0
  5  6  1  0  0  0  0
  6  7  1  0  0  0  0
  6 26  1  0  0  0  0
  6 27  1  0  0  0  0
  7  8  1  0  0  0  0
  7 28  1  0  0  0  0
  7 29  1  0  0  0  0
  8  9  1  0  0  0  0
  8 20  1  0  0  0  0
  8 30  1  0  0  0  0
  9 10  1  0  0  0  0
  9 31  1  0  0  0  0
 10 11  2  0  0  0  0
 10 12  1  0  0  0  0
 12 13  1  0  0  0  0
 12 32  1  0  0  0  0
 13 19  1  0  0  0  0
 13 14  2  0  0  0  0
 14 15  1  0  0  0  0
 15 16  1  0  0  0  0
 15 18  2  0  0  0  0
 16 17  1  0  0  0  0
 16 33  1  0  0  0  0
 16 34  1  0  0  0  0
 17 35  1  0  0  0  0
 17 36  1  0  0  0  0
 17 37  1  0  0  0  0
 18 19  1  0  0  0  0
 18 38  1  0  0  0  0
 20 39  1  0  0  0  0
 20 40  1  0  0  0  0
M  END
> <s_m_source_file>
AV-unprocessed.smi

> <i_m_source_file_index>
2906

> <i_lp_mmshare_version>
43012

> <i_f3d_flags>
0

> <s_epik_input>
W0NIM11bQ0gyXUMoPU8pTjFbQ0gyXVtDSDJdW0NASF0oW0NIMl0xKVtOSF1DKD1PKVtOSF1jMm5jKFtjSF1zMilbQ0gyXVtDSDNd

> <s_epik_cmdline>
J2VwaWtfcHl0aG9uJywgJy1waCcsICc3LjAnLCAnLXRuJywgJzgnLCAnLW1hJywgJzIwMCcsICctbWV0YWxfYmluZGluZycsICctaW1hZScsICc8aW5maWxlLm1hZT4nLCAnLW9tYWUnLCAnPG91dGZpbGUubWFlPic=

> <r_lp_tautomer_probability>
1

> <r_epik_Ionization_Penalty>
0.000174744

> <r_epik_Ionization_Penalty_Charging>
0

> <r_epik_Ionization_Penalty_Neutral>
0.000174744

> <r_epik_State_Penalty>
-0

> <r_epik_Charging_Adjusted_Penalty>
0

> <i_epik_Tot_Q>
0

> <i_epik_Tot_abs_Q>
0

> <r_epik_Metal_State_Penalty>
0.0273865

> <b_epik_Metal_Only>
0

> <s_lp_Force_Field>
OPLS_2005

> <r_lp_Energy>
22.1367

> <b_lp_Chiralities_Consistent>
1

> <s_lp_Variant>
AV-unprocessed.smi:2906-1

> <Gold.Version>
5.8.1

> <Gold.Id.Protein>
6NUR|6NUR_protein|mol2

> <Gold.PLP.Fitness>
37.7491

> <Gold.PLP.PLP>
-30.9577

> <Gold.PLP.part.hbond>
-1.7332

> <Gold.PLP.part.metal>
0.0000

> <Gold.PLP.part.buried>
-3.4534

> <Gold.PLP.part.nonpolar>
-26.7898

> <Gold.PLP.part.repulsive>
0.4597

> <Gold.PLP.ligand.clash>
0.0000

> <Gold.PLP.ligand.torsion>
0.4924

> <Gold.PLP.Chemscore.Hbond>
1.6891

> <Gold.PLP.Chemscore.CHOScore>
0.9010

> <Gold.PLP.Chemscore.Metal>
0.0000

> <Gold.Chemscore.Hbonds>
donor molecule, donor type, donor heavy atom, donor atom, acceptor molecule, acceptor atom, score
      L1  H     9    31       P1  7948  0.70
      L1  H    12    32       P1  7948  0.96
      L1  C    18    38       P1 10186  0.92

> <Gold.PLP.Chemscore.Internal.Correction>
0.0060

> <Gold.Rescore>
     Score         DG    S(hbond)    S(metal)    S(lipo)     H(rot)  DE(clash)    DE(int)     intcor
     16.49     -17.11       1.69        0.00      81.99       1.41       0.16       0.46       ----

> <Gold.Chemscore.Fitness>
16.4863

> <Gold.Chemscore.DG>
-17.1146

> <Gold.Chemscore.ZeroCoef>
-5.4800

> <Gold.Chemscore.Hbond>
1.6922

> <Gold.Chemscore.Metal>
0.0000

> <Gold.Chemscore.Lipo>
81.9891

> <Gold.Chemscore.Internal_Hbond>
0.0000

> <Gold.Chemscore.DEClash>
0.1648

> <Gold.Chemscore.DEInternal>
0.4635

> <Gold.Chemscore.Rot>
1.4102

> <Gold.Chemscore.Internal.Correction>
   9.000000E+99

> <Gold.Chemscore.Hbonds>
donor molecule, donor type, donor heavy atom, donor atom, acceptor molecule, acceptor atom, score
      L1  H     9    31       P1  7948  0.66
      L1  H    12    32       P1  7948  0.86

> <Gold.Chemscore.Hbond.Weighted>
-5.6520

> <Gold.Chemscore.Metal.Weighted>
-0.0000

> <Gold.Chemscore.Lipo.Weighted>
-9.5927

> <Gold.Chemscore.Internal_Hbond.Weighted>
0.0000

> <Gold.Chemscore.DEClash.Weighted>
0.1648

> <Gold.Chemscore.DEInternal.Weighted>
0.4635

> <Gold.Chemscore.Rot.Weighted>
3.6101

> <Gold.Chemscore.Internal.Correction.Weighted>
   9.000000E+99

> <Gold.Protein.RotatedTorsions>
[ 6907 6896 6895 6894 ] final   93.23 input  -60.11 | X-H torsion
[ 7974 7965 7964 7962 ] final  119.23 input  175.53 | X-H torsion
[ 8008 7997 7996 7995 ] final   75.59 input   59.86 | X-H torsion
[ 10167 10162 10161 10158 ] final    2.63 input  -65.29 | X-H torsion
[ 10718 10713 10712 10709 ] final  -57.72 input   66.30 | X-H torsion
[ 10763 10752 10751 10750 ] final   55.32 input  -60.55 | X-H torsion
[ 11005 11000 10999 10996 ] final   21.54 input  -57.11 | X-H torsion

> <Gold.Protein.ActiveResidues>
 VAL166  LYS551  ARG553  GLY616  TRP617  ASP618  TYR619  PRO620  LYS621  CYS622 
 ASP623  PHE694  ASN695  SER759  ASP760  ASP761  ALA762  ILE779  LEU786  VAL792 
 PHE793  MET794  SER795  GLU796  ALA797  LYS798  CYS799  TRP800  GLU811  SER814 

> <Gold.Protein.RotatedAtoms>
  152.5452  134.1380  159.8466 H   0  0  0  0  0  0  0  0  0  0  0  0  # atno 6907 bound_to 6896
  151.1419  133.4958  159.2604 H   0  0  0  0  0  0  0  0  0  0  0  0  # atno 6908 bound_to 6896
  151.1564  135.0262  159.8746 H   0  0  0  0  0  0  0  0  0  0  0  0  # atno 6909 bound_to 6896
  145.1456  139.3241  143.4593 H   0  0  0  0  0  0  0  0  0  0  0  0  # atno 7974 bound_to 7965
  155.8152  140.3472  155.5481 H   0  0  0  0  0  0  0  0  0  0  0  0  # atno 8008 bound_to 7997
  155.8400  140.0940  157.1760 H   0  0  0  0  0  0  0  0  0  0  0  0  # atno 8009 bound_to 7997
  154.4005  140.1396  156.3704 H   0  0  0  0  0  0  0  0  0  0  0  0  # atno 8010 bound_to 7997
  140.6626  143.7265  150.7766 H   0  0  0  0  0  0  0  0  0  0  0  0  # atno 10167 bound_to 10162
  156.1189  130.4168  150.0479 H   0  0  0  0  0  0  0  0  0  0  0  0  # atno 10718 bound_to 10713
  152.9815  135.5714  154.5048 H   0  0  0  0  0  0  0  0  0  0  0  0  # atno 10763 bound_to 10752
  154.4562  135.2780  155.1748 H   0  0  0  0  0  0  0  0  0  0  0  0  # atno 10764 bound_to 10752
  154.3355  135.6240  153.5625 H   0  0  0  0  0  0  0  0  0  0  0  0  # atno 10765 bound_to 10752
  140.3905  134.1825  155.7662 H   0  0  0  0  0  0  0  0  0  0  0  0  # atno 11005 bound_to 11000
  146.3500  140.1510  142.8592 LP  0  0  0  0  0  0  0  0  0  0  0  0  # atno 17320 bound_to 7965
  145.0485  140.9000  143.5009 LP  0  0  0  0  0  0  0  0  0  0  0  0  # atno 17321 bound_to 7965
  140.0936  143.4854  152.2465 LP  0  0  0  0  0  0  0  0  0  0  0  0  # atno 17342 bound_to 10162
  139.5864  144.7532  151.3510 LP  0  0  0  0  0  0  0  0  0  0  0  0  # atno 17343 bound_to 10162
  156.8422  130.9430  151.3631 LP  0  0  0  0  0  0  0  0  0  0  0  0  # atno 17370 bound_to 10713
  157.6373  130.8777  149.9382 LP  0  0  0  0  0  0  0  0  0  0  0  0  # atno 17371 bound_to 10713
  141.1892  133.8242  157.0964 LP  0  0  0  0  0  0  0  0  0  0  0  0  # atno 17394 bound_to 11000
  140.0410  134.9854  157.0962 LP  0  0  0  0  0  0  0  0  0  0  0  0  # atno 17395 bound_to 11000

$$$$
