AV-unprocessed.smi:1032|AV-procd|sdf|4489|dock7
  -GOLD-   22720 2473D 1   1.00000     0.00000
 Structure written by MMmdl.
 47 48  0  0  0  0  0  0  0  0  3 V2000
  145.5745  143.4432  157.1354 C   0  0  0  0  0  0  0  0  0  0  0  0
  144.6589  143.0485  155.9635 C   0  0  2  0  0  0  0  0  0  0  0  0
  144.4170  141.5302  155.8797 C   0  0  0  0  0  0  0  0  0  0  0  0
  145.6458  140.7711  155.3473 C   0  0  0  0  0  0  0  0  0  0  0  0
  146.0792  141.3071  154.0299 N   0  3  2  0  0  0  0  0  0  0  0  0
  147.1792  140.5239  153.4101 C   0  0  0  0  0  0  0  0  0  0  0  0
  146.6619  139.3281  152.5839 C   0  0  1  0  0  0  0  0  0  0  0  0
  147.7123  138.9389  151.7204 O   0  0  0  0  0  0  0  0  0  0  0  0
  146.3035  138.1301  153.4874 C   0  0  0  0  0  0  0  0  0  0  0  0
  146.5984  136.8519  152.8468 N   0  0  0  0  0  0  0  0  0  0  0  0
  145.6861  135.9241  152.5249 C   0  0  0  0  0  0  0  0  0  0  0  0
  144.4852  136.0432  152.7655 O   0  0  0  0  0  0  0  0  0  0  0  0
  146.2578  134.8587  151.9372 N   0  0  0  0  0  0  0  0  0  0  0  0
  145.6311  133.6907  151.4231 C   0  0  0  0  0  0  0  0  0  0  0  0
  144.2300  133.5815  151.5676 C   0  0  0  0  0  0  0  0  0  0  0  0
  143.5688  132.4319  151.0892 C   0  0  0  0  0  0  0  0  0  0  0  0
  144.2783  131.4411  150.5077 N   0  3  0  0  0  0  0  0  0  0  0  0
  145.6195  131.4933  150.3601 C   0  0  0  0  0  0  0  0  0  0  0  0
  146.3353  132.6182  150.8182 C   0  0  0  0  0  0  0  0  0  0  0  0
  146.3888  142.7578  154.1041 C   0  0  0  0  0  0  0  0  0  0  0  0
  145.1756  143.5607  154.6068 C   0  0  0  0  0  0  0  0  0  0  0  0
  146.5715  143.0137  157.0426 H   0  0  0  0  0  0  0  0  0  0  0  0
  145.1581  143.1073  158.0855 H   0  0  0  0  0  0  0  0  0  0  0  0
  145.6866  144.5260  157.1944 H   0  0  0  0  0  0  0  0  0  0  0  0
  143.6959  143.5255  156.1513 H   0  0  0  0  0  0  0  0  0  0  0  0
  144.1294  141.1390  156.8564 H   0  0  0  0  0  0  0  0  0  0  0  0
  143.5712  141.3392  155.2176 H   0  0  0  0  0  0  0  0  0  0  0  0
  146.4702  140.8349  156.0589 H   0  0  0  0  0  0  0  0  0  0  0  0
  145.3937  139.7149  155.2595 H   0  0  0  0  0  0  0  0  0  0  0  0
  147.7684  141.1664  152.7530 H   0  0  0  0  0  0  0  0  0  0  0  0
  147.8624  140.1872  154.1915 H   0  0  0  0  0  0  0  0  0  0  0  0
  145.7922  139.6166  151.9940 H   0  0  0  0  0  0  0  0  0  0  0  0
  147.9291  138.0354  151.8975 H   0  0  0  0  0  0  0  0  0  0  0  0
  146.7774  138.2073  154.4682 H   0  0  0  0  0  0  0  0  0  0  0  0
  145.2294  138.1266  153.6745 H   0  0  0  0  0  0  0  0  0  0  0  0
  147.5650  136.6707  152.6177 H   0  0  0  0  0  0  0  0  0  0  0  0
  147.2664  134.8650  151.8921 H   0  0  0  0  0  0  0  0  0  0  0  0
  143.6616  134.3722  152.0357 H   0  0  0  0  0  0  0  0  0  0  0  0
  142.5020  132.2756  151.1558 H   0  0  0  0  0  0  0  0  0  0  0  0
  146.0785  130.6363  149.8890 H   0  0  0  0  0  0  0  0  0  0  0  0
  147.4090  132.6293  150.7089 H   0  0  0  0  0  0  0  0  0  0  0  0
  147.2525  142.9172  154.7508 H   0  0  0  0  0  0  0  0  0  0  0  0
  146.6662  143.1233  153.1148 H   0  0  0  0  0  0  0  0  0  0  0  0
  144.3746  143.4870  153.8696 H   0  0  0  0  0  0  0  0  0  0  0  0
  145.4277  144.6197  154.6729 H   0  0  0  0  0  0  0  0  0  0  0  0
  145.2916  141.2238  153.4025 H   0  0  0  0  0  0  0  0  0  0  0  0
  143.7810  130.6168  150.1698 H   0  0  0  0  0  0  0  0  0  0  0  0
  1  2  1  0  0  0  0
  1 22  1  0  0  0  0
  1 23  1  0  0  0  0
  1 24  1  0  0  0  0
  2 21  1  0  0  0  0
  2  3  1  0  0  0  0
  2 25  1  0  0  0  0
  3  4  1  0  0  0  0
  3 26  1  0  0  0  0
  3 27  1  0  0  0  0
  4  5  1  0  0  0  0
  4 28  1  0  0  0  0
  4 29  1  0  0  0  0
  5  6  1  0  0  0  0
  5 20  1  0  0  0  0
  5 46  1  0  0  0  0
  6  7  1  0  0  0  0
  6 30  1  0  0  0  0
  6 31  1  0  0  0  0
  7  8  1  0  0  0  0
  7  9  1  0  0  0  0
  7 32  1  0  0  0  0
  8 33  1  0  0  0  0
  9 10  1  0  0  0  0
  9 34  1  0  0  0  0
  9 35  1  0  0  0  0
 10 11  1  0  0  0  0
 10 36  1  0  0  0  0
 11 12  2  0  0  0  0
 11 13  1  0  0  0  0
 13 14  1  0  0  0  0
 13 37  1  0  0  0  0
 14 19  1  0  0  0  0
 14 15  2  0  0  0  0
 15 16  1  0  0  0  0
 15 38  1  0  0  0  0
 16 17  2  0  0  0  0
 16 39  1  0  0  0  0
 17 18  1  0  0  0  0
 17 47  1  0  0  0  0
 18 19  2  0  0  0  0
 18 40  1  0  0  0  0
 19 41  1  0  0  0  0
 20 21  1  0  0  0  0
 20 42  1  0  0  0  0
 20 43  1  0  0  0  0
 21 44  1  0  0  0  0
 21 45  1  0  0  0  0
M  CHG  1   5   1
M  CHG  1  17   1
M  END
> <s_m_source_file>
AV-unprocessed.smi

> <i_m_source_file_index>
1032

> <i_lp_mmshare_version>
43012

> <i_f3d_flags>
0

> <s_epik_input>
W0NIM11bQ0hdMVtDSDJdW0NIMl1OKFtDSDJdW0NIMl0xKVtDSDJdW0NASF0oW09IXSlbQ0gyXVtOSF1DKD1PKVtOSF1jMltjSF1bY0hdbltjSF1bY0hdMg==

> <s_epik_cmdline>
J2VwaWtfcHl0aG9uJywgJy1waCcsICc3LjAnLCAnLXRuJywgJzgnLCAnLW1hJywgJzIwMCcsICctbWV0YWxfYmluZGluZycsICctaW1hZScsICc8aW5maWxlLm1hZT4nLCAnLW9tYWUnLCAnPG91dGZpbGUubWFlPic=

> <r_epik_Ionization_Penalty>
1.02509

> <r_epik_Ionization_Penalty_Charging>
1.02507

> <r_epik_Ionization_Penalty_Neutral>
1.85474e-05

> <r_epik_State_Penalty>
1.07411

> <r_epik_Charging_Adjusted_Penalty>
2.09917

> <i_epik_Tot_Q>
2

> <i_epik_Tot_abs_Q>
2

> <r_epik_Metal_State_Penalty>
1.1725

> <b_epik_Metal_Only>
0

> <s_lp_Force_Field>
OPLS_2005

> <r_lp_Energy>
32.8821

> <b_lp_Chiralities_Consistent>
1

> <s_lp_Variant>
AV-unprocessed.smi:1032-8

> <Gold.Version>
5.8.1

> <Gold.Id.Protein>
6NUR|6NUR_protein|mol2

> <Gold.PLP.Fitness>
47.1075

> <Gold.PLP.PLP>
-35.3997

> <Gold.PLP.part.hbond>
-4.8817

> <Gold.PLP.part.metal>
0.0000

> <Gold.PLP.part.buried>
-5.3014

> <Gold.PLP.part.nonpolar>
-26.6481

> <Gold.PLP.part.repulsive>
0.2666

> <Gold.PLP.ligand.clash>
0.0139

> <Gold.PLP.ligand.torsion>
1.0042

> <Gold.PLP.Chemscore.Hbond>
4.5562

> <Gold.PLP.Chemscore.CHOScore>
0.0000

> <Gold.PLP.Chemscore.Metal>
0.0000

> <Gold.Chemscore.Hbonds>
donor molecule, donor type, donor heavy atom, donor atom, acceptor molecule, acceptor atom, score
      L1  H     5    46       P1 10175  2.00
      L1  H     8    33       P1  7948  0.98
      L1  H    10    36       P1  7948  1.00
      L1  H    13    37       P1  7948  0.65

> <Gold.PLP.Chemscore.Internal.Correction>
0.0614

> <Gold.Rescore>
     Score         DG    S(hbond)    S(metal)    S(lipo)     H(rot)  DE(clash)    DE(int)     intcor
     15.61     -18.62       3.03        0.00      77.07       2.34       0.57       2.44       ----

> <Gold.Chemscore.Fitness>
15.6099

> <Gold.Chemscore.DG>
-18.6224

> <Gold.Chemscore.ZeroCoef>
-5.4800

> <Gold.Chemscore.Hbond>
3.0281

> <Gold.Chemscore.Metal>
0.0000

> <Gold.Chemscore.Lipo>
77.0717

> <Gold.Chemscore.Internal_Hbond>
0.0000

> <Gold.Chemscore.DEClash>
0.5676

> <Gold.Chemscore.DEInternal>
2.4450

> <Gold.Chemscore.Rot>
2.3393

> <Gold.Chemscore.Internal.Correction>
   9.000000E+99

> <Gold.Chemscore.Hbonds>
donor molecule, donor type, donor heavy atom, donor atom, acceptor molecule, acceptor atom, score
      L1  H     5    46       P1 10175  0.29
      L1  H     8    33       P1  7948  0.91
      L1  H    10    36       P1  7948  0.99
      L1  H    13    37       P1  7948  0.55

> <Gold.Chemscore.Hbond.Weighted>
-10.1137

> <Gold.Chemscore.Metal.Weighted>
-0.0000

> <Gold.Chemscore.Lipo.Weighted>
-9.0174

> <Gold.Chemscore.Internal_Hbond.Weighted>
0.0000

> <Gold.Chemscore.DEClash.Weighted>
0.5676

> <Gold.Chemscore.DEInternal.Weighted>
2.4450

> <Gold.Chemscore.Rot.Weighted>
5.9886

> <Gold.Chemscore.Internal.Correction.Weighted>
   9.000000E+99

> <Gold.Protein.RotatedTorsions>
[ 6907 6896 6895 6894 ] final   99.82 input  -60.11 | X-H torsion
[ 7974 7965 7964 7962 ] final    8.56 input  175.53 | X-H torsion
[ 8008 7997 7996 7995 ] final   33.59 input   59.86 | X-H torsion
[ 10167 10162 10161 10158 ] final   40.76 input  -65.29 | X-H torsion
[ 10718 10713 10712 10709 ] final -150.26 input   66.30 | X-H torsion
[ 10763 10752 10751 10750 ] final  124.40 input  -60.55 | X-H torsion
[ 11005 11000 10999 10996 ] final  -49.80 input  -57.11 | X-H torsion

> <Gold.Protein.ActiveResidues>
 VAL166  LYS551  ARG553  GLY616  TRP617  ASP618  TYR619  PRO620  LYS621  CYS622 
 ASP623  PHE694  ASN695  SER759  ASP760  ASP761  ALA762  ILE779  LEU786  VAL792 
 PHE793  MET794  SER795  GLU796  ALA797  LYS798  CYS799  TRP800  GLU811  SER814 

> <Gold.Protein.RotatedAtoms>
  152.5384  134.0371  159.8050 H   0  0  0  0  0  0  0  0  0  0  0  0  # atno 6907 bound_to 6896
  151.0532  133.5598  159.2647 H   0  0  0  0  0  0  0  0  0  0  0  0  # atno 6908 bound_to 6896
  151.2525  135.0634  159.9121 H   0  0  0  0  0  0  0  0  0  0  0  0  # atno 6909 bound_to 6896
  146.2415  139.9915  142.8425 H   0  0  0  0  0  0  0  0  0  0  0  0  # atno 7974 bound_to 7965
  155.1412  140.3266  155.4452 H   0  0  0  0  0  0  0  0  0  0  0  0  # atno 8008 bound_to 7997
  156.2604  140.1993  156.6477 H   0  0  0  0  0  0  0  0  0  0  0  0  # atno 8009 bound_to 7997
  154.6541  140.0555  156.9975 H   0  0  0  0  0  0  0  0  0  0  0  0  # atno 8010 bound_to 7997
  140.3710  144.2105  150.6133 H   0  0  0  0  0  0  0  0  0  0  0  0  # atno 10167 bound_to 10162
  156.4439  130.8135  151.2365 H   0  0  0  0  0  0  0  0  0  0  0  0  # atno 10718 bound_to 10713
  153.6608  135.3346  155.3126 H   0  0  0  0  0  0  0  0  0  0  0  0  # atno 10763 bound_to 10752
  154.8515  135.4363  154.1806 H   0  0  0  0  0  0  0  0  0  0  0  0  # atno 10764 bound_to 10752
  153.2772  135.7006  153.7496 H   0  0  0  0  0  0  0  0  0  0  0  0  # atno 10765 bound_to 10752
  141.0780  133.6661  156.3638 H   0  0  0  0  0  0  0  0  0  0  0  0  # atno 11005 bound_to 11000
  145.1499  140.9617  143.4439 LP  0  0  0  0  0  0  0  0  0  0  0  0  # atno 17320 bound_to 7965
  145.0215  139.3420  143.6070 LP  0  0  0  0  0  0  0  0  0  0  0  0  # atno 17321 bound_to 7965
  140.5033  143.2311  151.8645 LP  0  0  0  0  0  0  0  0  0  0  0  0  # atno 17342 bound_to 10162
  139.4804  144.5034  151.9030 LP  0  0  0  0  0  0  0  0  0  0  0  0  # atno 17343 bound_to 10162
  157.7505  131.0159  150.3525 LP  0  0  0  0  0  0  0  0  0  0  0  0  # atno 17370 bound_to 10713
  156.3888  130.3894  149.7045 LP  0  0  0  0  0  0  0  0  0  0  0  0  # atno 17371 bound_to 10713
  140.5531  134.6008  157.5413 LP  0  0  0  0  0  0  0  0  0  0  0  0  # atno 17394 bound_to 11000
  139.9592  134.7481  156.0273 LP  0  0  0  0  0  0  0  0  0  0  0  0  # atno 17395 bound_to 11000

$$$$
