AV-unprocessed.smi:877|AV-procd|sdf|4028|dock8
  -GOLD-   22720 1523D 1   1.00000     0.00000
 Structure written by MMmdl.
 43 45  0  0  0  0  0  0  0  0  1 V2000
  147.7393  135.3557  161.2679 C   0  0  0  0  0  0  0  0  0  0  0  0
  147.4086  135.7955  159.9588 O   0  0  0  0  0  0  0  0  0  0  0  0
  148.3343  136.5563  159.2774 C   0  0  0  0  0  0  0  0  0  0  0  0
  149.6337  136.8524  159.7617 C   0  0  0  0  0  0  0  0  0  0  0  0
  150.5169  137.6403  158.9985 C   0  0  0  0  0  0  0  0  0  0  0  0
  150.1183  138.1437  157.7442 C   0  0  0  0  0  0  0  0  0  0  0  0
  151.0748  138.9979  156.9296 C   0  0  0  0  0  0  0  0  0  0  0  0
  151.4067  140.3162  157.5753 C   0  0  0  0  0  0  0  0  0  0  0  0
  152.0124  140.3959  158.7629 N   0  0  0  0  0  0  0  0  0  0  0  0
  152.1148  141.7569  158.9675 C   0  0  0  0  0  0  0  0  0  0  0  0
  152.6702  142.4853  160.0435 C   0  0  0  0  0  0  0  0  0  0  0  0
  152.6586  143.8955  160.0323 C   0  0  0  0  0  0  0  0  0  0  0  0
  152.0914  144.5958  158.9479 C   0  0  0  0  0  0  0  0  0  0  0  0
  151.5322  143.8887  157.8661 C   0  0  0  0  0  0  0  0  0  0  0  0
  151.5481  142.4809  157.8820 C   0  0  0  0  0  0  0  0  0  0  0  0
  151.0940  141.5063  156.9989 N   0  0  0  0  0  0  0  0  0  0  0  0
  150.4249  141.7608  155.7294 C   0  0  0  0  0  0  0  0  0  0  0  0
  148.9620  141.2728  155.7241 C   0  0  1  0  0  0  0  0  0  0  0  0
  148.0939  142.3799  155.8697 O   0  0  0  0  0  0  0  0  0  0  0  0
  148.6084  140.5408  154.4188 C   0  0  0  0  0  0  0  0  0  0  0  0
  149.0561  141.2852  153.3049 O   0  0  0  0  0  0  0  0  0  0  0  0
  148.8284  137.8526  157.2566 C   0  0  0  0  0  0  0  0  0  0  0  0
  147.9462  137.0649  158.0207 C   0  0  0  0  0  0  0  0  0  0  0  0
  146.9131  134.7696  161.6702 H   0  0  0  0  0  0  0  0  0  0  0  0
  147.9048  136.1971  161.9422 H   0  0  0  0  0  0  0  0  0  0  0  0
  148.6241  134.7175  161.2613 H   0  0  0  0  0  0  0  0  0  0  0  0
  149.9776  136.4881  160.7176 H   0  0  0  0  0  0  0  0  0  0  0  0
  151.5028  137.8612  159.3810 H   0  0  0  0  0  0  0  0  0  0  0  0
  151.9798  138.4127  156.7724 H   0  0  0  0  0  0  0  0  0  0  0  0
  150.6525  139.1903  155.9429 H   0  0  0  0  0  0  0  0  0  0  0  0
  153.1060  141.9576  160.8788 H   0  0  0  0  0  0  0  0  0  0  0  0
  153.0864  144.4419  160.8599 H   0  0  0  0  0  0  0  0  0  0  0  0
  152.0858  145.6759  158.9472 H   0  0  0  0  0  0  0  0  0  0  0  0
  151.0978  144.4215  157.0334 H   0  0  0  0  0  0  0  0  0  0  0  0
  150.4871  142.8204  155.4823 H   0  0  0  0  0  0  0  0  0  0  0  0
  150.9856  141.2445  154.9492 H   0  0  0  0  0  0  0  0  0  0  0  0
  148.8124  140.6021  156.5718 H   0  0  0  0  0  0  0  0  0  0  0  0
  148.5925  143.1684  155.7178 H   0  0  0  0  0  0  0  0  0  0  0  0
  149.0337  139.5364  154.3959 H   0  0  0  0  0  0  0  0  0  0  0  0
  147.5270  140.4340  154.3284 H   0  0  0  0  0  0  0  0  0  0  0  0
  148.9328  140.7642  152.5260 H   0  0  0  0  0  0  0  0  0  0  0  0
  148.5096  138.2366  156.2985 H   0  0  0  0  0  0  0  0  0  0  0  0
  146.9593  136.8497  157.6378 H   0  0  0  0  0  0  0  0  0  0  0  0
  1  2  1  0  0  0  0
  1 24  1  0  0  0  0
  1 25  1  0  0  0  0
  1 26  1  0  0  0  0
  2  3  1  0  0  0  0
  3 23  1  0  0  0  0
  3  4  2  0  0  0  0
  4  5  1  0  0  0  0
  4 27  1  0  0  0  0
  5  6  2  0  0  0  0
  5 28  1  0  0  0  0
  6  7  1  0  0  0  0
  6 22  1  0  0  0  0
  7  8  1  0  0  0  0
  7 29  1  0  0  0  0
  7 30  1  0  0  0  0
  8 16  1  0  0  0  0
  8  9  2  0  0  0  0
  9 10  1  0  0  0  0
 10 15  2  0  0  0  0
 10 11  1  0  0  0  0
 11 12  2  0  0  0  0
 11 31  1  0  0  0  0
 12 13  1  0  0  0  0
 12 32  1  0  0  0  0
 13 14  2  0  0  0  0
 13 33  1  0  0  0  0
 14 15  1  0  0  0  0
 14 34  1  0  0  0  0
 15 16  1  0  0  0  0
 16 17  1  0  0  0  0
 17 18  1  0  0  0  0
 17 35  1  0  0  0  0
 17 36  1  0  0  0  0
 18 19  1  0  0  0  0
 18 20  1  0  0  0  0
 18 37  1  0  0  0  0
 19 38  1  0  0  0  0
 20 21  1  0  0  0  0
 20 39  1  0  0  0  0
 20 40  1  0  0  0  0
 21 41  1  0  0  0  0
 22 23  2  0  0  0  0
 22 42  1  0  0  0  0
 23 43  1  0  0  0  0
M  END
> <s_m_source_file>
AV-unprocessed.smi

> <i_m_source_file_index>
877

> <i_lp_mmshare_version>
43012

> <i_f3d_flags>
0

> <s_epik_input>
W0NIM11PYzFbY0hdW2NIXWMoW2NIXVtjSF0xKVtDSDJdYyhuMiluKFtDSDJdW0NASF0oW09IXSlbQ0gyXVtPSF0pYyhjMjMpW2NIXVtjSF1bY0hdW2NIXTM=

> <s_epik_cmdline>
J2VwaWtfcHl0aG9uJywgJy1waCcsICc3LjAnLCAnLXRuJywgJzgnLCAnLW1hJywgJzIwMCcsICctbWV0YWxfYmluZGluZycsICctaW1hZScsICc8aW5maWxlLm1hZT4nLCAnLW9tYWUnLCAnPG91dGZpbGUubWFlPic=

> <r_lp_tautomer_probability>
1

> <r_epik_Ionization_Penalty>
0.0616669

> <r_epik_Ionization_Penalty_Charging>
0

> <r_epik_Ionization_Penalty_Neutral>
0.0616669

> <r_epik_State_Penalty>
0.0535415

> <r_epik_Charging_Adjusted_Penalty>
0.0535415

> <i_epik_Tot_Q>
0

> <i_epik_Tot_abs_Q>
0

> <r_epik_Metal_State_Penalty>
5.60326e-05

> <b_epik_Metal_Only>
0

> <s_lp_Force_Field>
OPLS_2005

> <r_lp_Energy>
19.9882

> <b_lp_Chiralities_Consistent>
1

> <s_lp_Variant>
AV-unprocessed.smi:877-2

> <Gold.Version>
5.8.1

> <Gold.Id.Protein>
6NUR|6NUR_protein|mol2

> <Gold.PLP.Fitness>
51.1213

> <Gold.PLP.PLP>
-44.7919

> <Gold.PLP.part.hbond>
-3.4910

> <Gold.PLP.part.metal>
0.0000

> <Gold.PLP.part.buried>
-5.7735

> <Gold.PLP.part.nonpolar>
-36.2579

> <Gold.PLP.part.repulsive>
0.0000

> <Gold.PLP.ligand.clash>
0.0000

> <Gold.PLP.ligand.torsion>
0.7894

> <Gold.PLP.Chemscore.Hbond>
2.6045

> <Gold.PLP.Chemscore.CHOScore>
0.0000

> <Gold.PLP.Chemscore.Metal>
0.0000

> <Gold.Chemscore.Hbonds>
donor molecule, donor type, donor heavy atom, donor atom, acceptor molecule, acceptor atom, score
      L1  H    19    38       P1  8028  1.00
      L1  H    21    41       P1  7957  0.98
      P1  H  8011  8017       L1    21  0.35

> <Gold.PLP.Chemscore.Internal.Correction>
0.0946

> <Gold.Rescore>
     Score         DG    S(hbond)    S(metal)    S(lipo)     H(rot)  DE(clash)    DE(int)     intcor
     17.30     -18.07       1.97        0.00     120.33       3.15       0.17       0.61       ----

> <Gold.Chemscore.Fitness>
17.2976

> <Gold.Chemscore.DG>
-18.0744

> <Gold.Chemscore.ZeroCoef>
-5.4800

> <Gold.Chemscore.Hbond>
1.9692

> <Gold.Chemscore.Metal>
0.0000

> <Gold.Chemscore.Lipo>
120.3270

> <Gold.Chemscore.Internal_Hbond>
0.0000

> <Gold.Chemscore.DEClash>
0.1669

> <Gold.Chemscore.DEInternal>
0.6099

> <Gold.Chemscore.Rot>
3.1488

> <Gold.Chemscore.Internal.Correction>
   9.000000E+99

> <Gold.Chemscore.Hbonds>
donor molecule, donor type, donor heavy atom, donor atom, acceptor molecule, acceptor atom, score
      L1  H    19    38       P1  8028  0.95
      L1  H    21    41       P1  7957  0.92
      P1  H  8011  8017       L1    21  0.01

> <Gold.Chemscore.Hbond.Weighted>
-6.5770

> <Gold.Chemscore.Metal.Weighted>
-0.0000

> <Gold.Chemscore.Lipo.Weighted>
-14.0783

> <Gold.Chemscore.Internal_Hbond.Weighted>
0.0000

> <Gold.Chemscore.DEClash.Weighted>
0.1669

> <Gold.Chemscore.DEInternal.Weighted>
0.6099

> <Gold.Chemscore.Rot.Weighted>
8.0608

> <Gold.Chemscore.Internal.Correction.Weighted>
   9.000000E+99

> <Gold.Protein.RotatedTorsions>
[ 6907 6896 6895 6894 ] final -132.21 input  -60.11 | X-H torsion
[ 7974 7965 7964 7962 ] final   57.10 input  175.53 | X-H torsion
[ 8008 7997 7996 7995 ] final  -88.14 input   59.86 | X-H torsion
[ 10167 10162 10161 10158 ] final  -25.63 input  -65.29 | X-H torsion
[ 10718 10713 10712 10709 ] final  -85.98 input   66.30 | X-H torsion
[ 10763 10752 10751 10750 ] final  142.96 input  -60.55 | X-H torsion
[ 11005 11000 10999 10996 ] final  139.13 input  -57.11 | X-H torsion

> <Gold.Protein.ActiveResidues>
 VAL166  LYS551  ARG553  GLY616  TRP617  ASP618  TYR619  PRO620  LYS621  CYS622 
 ASP623  PHE694  ASN695  SER759  ASP760  ASP761  ALA762  ILE779  LEU786  VAL792 
 PHE793  MET794  SER795  GLU796  ALA797  LYS798  CYS799  TRP800  GLU811  SER814 

> <Gold.Protein.RotatedAtoms>
  150.9598  133.6458  159.2756 H   0  0  0  0  0  0  0  0  0  0  0  0  # atno 6907 bound_to 6896
  151.3784  135.0934  159.9498 H   0  0  0  0  0  0  0  0  0  0  0  0  # atno 6908 bound_to 6896
  152.5143  133.9137  159.7555 H   0  0  0  0  0  0  0  0  0  0  0  0  # atno 6909 bound_to 6896
  145.9327  139.3821  143.0411 H   0  0  0  0  0  0  0  0  0  0  0  0  # atno 7974 bound_to 7965
  154.6714  140.0557  157.0169 H   0  0  0  0  0  0  0  0  0  0  0  0  # atno 8008 bound_to 7997
  155.1083  140.3236  155.4509 H   0  0  0  0  0  0  0  0  0  0  0  0  # atno 8009 bound_to 7997
  156.2659  140.2019  156.6208 H   0  0  0  0  0  0  0  0  0  0  0  0  # atno 8010 bound_to 7997
  140.7286  143.4248  151.0894 H   0  0  0  0  0  0  0  0  0  0  0  0  # atno 10167 bound_to 10162
  155.9993  130.4749  150.4645 H   0  0  0  0  0  0  0  0  0  0  0  0  # atno 10718 bound_to 10713
  153.9645  135.2957  155.3431 H   0  0  0  0  0  0  0  0  0  0  0  0  # atno 10763 bound_to 10752
  154.7356  135.5048  153.9039 H   0  0  0  0  0  0  0  0  0  0  0  0  # atno 10764 bound_to 10752
  153.0930  135.6713  153.9928 H   0  0  0  0  0  0  0  0  0  0  0  0  # atno 10765 bound_to 10752
  140.0233  134.9386  157.0518 H   0  0  0  0  0  0  0  0  0  0  0  0  # atno 11005 bound_to 11000
  145.8405  140.9583  143.0802 LP  0  0  0  0  0  0  0  0  0  0  0  0  # atno 17320 bound_to 7965
  144.6767  140.0278  143.7483 LP  0  0  0  0  0  0  0  0  0  0  0  0  # atno 17321 bound_to 7965
  139.7898  143.8235  152.3150 LP  0  0  0  0  0  0  0  0  0  0  0  0  # atno 17342 bound_to 10162
  139.8215  144.7294  150.9567 LP  0  0  0  0  0  0  0  0  0  0  0  0  # atno 17343 bound_to 10162
  157.2666  131.0578  151.2287 LP  0  0  0  0  0  0  0  0  0  0  0  0  # atno 17370 bound_to 10713
  157.3382  130.7020  149.6365 LP  0  0  0  0  0  0  0  0  0  0  0  0  # atno 17371 bound_to 10713
  140.4350  134.1741  155.7170 LP  0  0  0  0  0  0  0  0  0  0  0  0  # atno 17394 bound_to 11000
  141.1787  133.8459  157.1333 LP  0  0  0  0  0  0  0  0  0  0  0  0  # atno 17395 bound_to 11000

$$$$
