AV-unprocessed.smi:2037|AV-procd|sdf|8277|dock6
  -GOLD-   2272010543D 1   1.00000     0.00000
 Structure written by MMmdl.
 39 40  0  0  0  0  0  0  0  0  2 V2000
  146.1156  141.9233  157.2438 C   0  0  0  0  0  0  0  0  0  0  0  0
  145.2764  142.1188  155.9690 C   0  0  2  0  0  0  0  0  0  0  0  0
  144.4617  140.8678  155.5938 C   0  0  0  0  0  0  0  0  0  0  0  0
  145.3446  139.7516  155.0070 C   0  0  0  0  0  0  0  0  0  0  0  0
  146.1236  140.2353  153.8376 N   0  3  2  0  0  0  0  0  0  0  0  0
  146.8817  139.1411  153.1797 C   0  0  0  0  0  0  0  0  0  0  0  0
  146.1182  138.5282  151.9890 C   0  0  0  0  0  0  0  0  0  0  0  0
  146.5397  137.1564  151.7276 N   0  0  0  0  0  0  0  0  0  0  0  0
  145.7257  136.1684  151.3285 C   0  0  0  0  0  0  0  0  0  0  0  0
  144.5168  136.3208  151.1501 O   0  0  0  0  0  0  0  0  0  0  0  0
  146.3998  135.0181  151.1549 N   0  0  0  0  0  0  0  0  0  0  0  0
  145.8870  133.7525  150.7665 C   0  0  0  0  0  0  0  0  0  0  0  0
  146.6175  132.6338  150.6904 N   0  0  0  0  0  0  0  0  0  0  0  0
  145.8563  131.5377  150.2768 C   0  0  0  0  0  0  0  0  0  0  0  0
  144.5388  131.8423  150.0401 C   0  0  0  0  0  0  0  0  0  0  0  0
  144.2001  133.5284  150.3263 S   0  0  0  0  0  0  0  0  0  0  0  0
  146.9699  141.4061  154.1912 C   0  0  0  0  0  0  0  0  0  0  0  0
  146.1214  142.5578  154.7599 C   0  0  0  0  0  0  0  0  0  0  0  0
  146.8563  141.1320  157.1331 H   0  0  0  0  0  0  0  0  0  0  0  0
  145.4813  141.6640  158.0918 H   0  0  0  0  0  0  0  0  0  0  0  0
  146.6483  142.8384  157.5042 H   0  0  0  0  0  0  0  0  0  0  0  0
  144.5692  142.9208  156.1858 H   0  0  0  0  0  0  0  0  0  0  0  0
  143.9169  140.4966  156.4627 H   0  0  0  0  0  0  0  0  0  0  0  0
  143.7043  141.1422  154.8582 H   0  0  0  0  0  0  0  0  0  0  0  0
  146.0252  139.3612  155.7650 H   0  0  0  0  0  0  0  0  0  0  0  0
  144.7055  138.9213  154.7039 H   0  0  0  0  0  0  0  0  0  0  0  0
  147.8622  139.5043  152.8675 H   0  0  0  0  0  0  0  0  0  0  0  0
  147.0665  138.3532  153.9112 H   0  0  0  0  0  0  0  0  0  0  0  0
  145.0421  138.5567  152.1691 H   0  0  0  0  0  0  0  0  0  0  0  0
  146.2957  139.0979  151.0777 H   0  0  0  0  0  0  0  0  0  0  0  0
  147.5202  136.9478  151.8484 H   0  0  0  0  0  0  0  0  0  0  0  0
  147.3948  135.0483  151.3223 H   0  0  0  0  0  0  0  0  0  0  0  0
  146.3346  130.5746  150.1770 H   0  0  0  0  0  0  0  0  0  0  0  0
  143.7507  131.1796  149.7152 H   0  0  0  0  0  0  0  0  0  0  0  0
  147.7328  141.1041  154.9098 H   0  0  0  0  0  0  0  0  0  0  0  0
  147.4992  141.7689  153.3113 H   0  0  0  0  0  0  0  0  0  0  0  0
  145.4585  142.9275  153.9765 H   0  0  0  0  0  0  0  0  0  0  0  0
  146.7629  143.3967  155.0324 H   0  0  0  0  0  0  0  0  0  0  0  0
  145.4429  140.5551  153.1633 H   0  0  0  0  0  0  0  0  0  0  0  0
  1  2  1  0  0  0  0
  1 19  1  0  0  0  0
  1 20  1  0  0  0  0
  1 21  1  0  0  0  0
  2 18  1  0  0  0  0
  2  3  1  0  0  0  0
  2 22  1  0  0  0  0
  3  4  1  0  0  0  0
  3 23  1  0  0  0  0
  3 24  1  0  0  0  0
  4  5  1  0  0  0  0
  4 25  1  0  0  0  0
  4 26  1  0  0  0  0
  5  6  1  0  0  0  0
  5 17  1  0  0  0  0
  5 39  1  0  0  0  0
  6  7  1  0  0  0  0
  6 27  1  0  0  0  0
  6 28  1  0  0  0  0
  7  8  1  0  0  0  0
  7 29  1  0  0  0  0
  7 30  1  0  0  0  0
  8  9  1  0  0  0  0
  8 31  1  0  0  0  0
  9 10  2  0  0  0  0
  9 11  1  0  0  0  0
 11 12  1  0  0  0  0
 11 32  1  0  0  0  0
 12 16  1  0  0  0  0
 12 13  2  0  0  0  0
 13 14  1  0  0  0  0
 14 15  2  0  0  0  0
 14 33  1  0  0  0  0
 15 16  1  0  0  0  0
 15 34  1  0  0  0  0
 17 18  1  0  0  0  0
 17 35  1  0  0  0  0
 17 36  1  0  0  0  0
 18 37  1  0  0  0  0
 18 38  1  0  0  0  0
M  CHG  1   5   1
M  END
> <s_m_source_file>
AV-unprocessed.smi

> <i_m_source_file_index>
2037

> <i_lp_mmshare_version>
43012

> <i_f3d_flags>
0

> <s_epik_input>
W0NIM11bQ0hdMVtDSDJdW0NIMl1OKFtDSDJdW0NIMl0xKVtDSDJdW0NIMl1bTkhdQyg9TylbTkhdYzJuW2NIXVtjSF1zMg==

> <s_epik_cmdline>
J2VwaWtfcHl0aG9uJywgJy1waCcsICc3LjAnLCAnLXRuJywgJzgnLCAnLW1hJywgJzIwMCcsICctbWV0YWxfYmluZGluZycsICctaW1hZScsICc8aW5maWxlLm1hZT4nLCAnLW9tYWUnLCAnPG91dGZpbGUubWFlPic=

> <r_lp_tautomer_probability>
0.999

> <r_epik_Ionization_Penalty>
0.00182893

> <r_epik_Ionization_Penalty_Charging>
0.00168873

> <r_epik_Ionization_Penalty_Neutral>
0.000140204

> <r_epik_State_Penalty>
0.00114045

> <r_epik_Charging_Adjusted_Penalty>
0.00282917

> <i_epik_Tot_Q>
1

> <i_epik_Tot_abs_Q>
1

> <r_epik_Metal_State_Penalty>
0.0569426

> <b_epik_Metal_Only>
0

> <s_lp_Force_Field>
OPLS_2005

> <r_lp_Energy>
15.966

> <b_lp_Chiralities_Consistent>
1

> <s_lp_Variant>
AV-unprocessed.smi:2037-2

> <Gold.Version>
5.8.1

> <Gold.Id.Protein>
6NUR|6NUR_protein|mol2

> <Gold.PLP.Fitness>
41.3547

> <Gold.PLP.PLP>
-30.4722

> <Gold.PLP.part.hbond>
-3.0000

> <Gold.PLP.part.metal>
0.0000

> <Gold.PLP.part.buried>
-2.7476

> <Gold.PLP.part.nonpolar>
-25.9044

> <Gold.PLP.part.repulsive>
1.7889

> <Gold.PLP.ligand.clash>
0.0000

> <Gold.PLP.ligand.torsion>
0.8440

> <Gold.PLP.Chemscore.Hbond>
3.8960

> <Gold.PLP.Chemscore.CHOScore>
0.2887

> <Gold.PLP.Chemscore.Metal>
0.0000

> <Gold.Chemscore.Hbonds>
donor molecule, donor type, donor heavy atom, donor atom, acceptor molecule, acceptor atom, score
      L1  H     5    39       P1 10175  1.98
      L1  H     8    31       P1  7948  1.00
      L1  H    11    32       P1  7948  0.93
      L1  C    14    33       P1 10747  0.45

> <Gold.PLP.Chemscore.Internal.Correction>
0.0166

> <Gold.Rescore>
     Score         DG    S(hbond)    S(metal)    S(lipo)     H(rot)  DE(clash)    DE(int)     intcor
     14.24     -17.66       2.66        0.00      63.10       1.60       1.25       2.17       ----

> <Gold.Chemscore.Fitness>
14.2435

> <Gold.Chemscore.DG>
-17.6632

> <Gold.Chemscore.ZeroCoef>
-5.4800

> <Gold.Chemscore.Hbond>
2.6637

> <Gold.Chemscore.Metal>
0.0000

> <Gold.Chemscore.Lipo>
63.0991

> <Gold.Chemscore.Internal_Hbond>
0.0000

> <Gold.Chemscore.DEClash>
1.2471

> <Gold.Chemscore.DEInternal>
2.1726

> <Gold.Chemscore.Rot>
1.6001

> <Gold.Chemscore.Internal.Correction>
   9.000000E+99

> <Gold.Chemscore.Hbonds>
donor molecule, donor type, donor heavy atom, donor atom, acceptor molecule, acceptor atom, score
      L1  H     5    39       P1 10175  0.85
      L1  H     8    31       P1  7948  0.97
      L1  H    11    32       P1  7948  0.49

> <Gold.Chemscore.Hbond.Weighted>
-8.8969

> <Gold.Chemscore.Metal.Weighted>
-0.0000

> <Gold.Chemscore.Lipo.Weighted>
-7.3826

> <Gold.Chemscore.Internal_Hbond.Weighted>
0.0000

> <Gold.Chemscore.DEClash.Weighted>
1.2471

> <Gold.Chemscore.DEInternal.Weighted>
2.1726

> <Gold.Chemscore.Rot.Weighted>
4.0963

> <Gold.Chemscore.Internal.Correction.Weighted>
   9.000000E+99

> <Gold.Protein.RotatedTorsions>
[ 6907 6896 6895 6894 ] final  179.81 input  -60.11 | X-H torsion
[ 7974 7965 7964 7962 ] final   85.60 input  175.53 | X-H torsion
[ 8008 7997 7996 7995 ] final  164.32 input   59.86 | X-H torsion
[ 10167 10162 10161 10158 ] final -112.00 input  -65.29 | X-H torsion
[ 10718 10713 10712 10709 ] final  -37.93 input   66.30 | X-H torsion
[ 10763 10752 10751 10750 ] final   13.57 input  -60.55 | X-H torsion
[ 11005 11000 10999 10996 ] final   74.16 input  -57.11 | X-H torsion

> <Gold.Protein.ActiveResidues>
 VAL166  LYS551  ARG553  GLY616  TRP617  ASP618  TYR619  PRO620  LYS621  CYS622 
 ASP623  PHE694  ASN695  SER759  ASP760  ASP761  ALA762  ILE779  LEU786  VAL792 
 PHE793  MET794  SER795  GLU796  ALA797  LYS798  CYS799  TRP800  GLU811  SER814 

> <Gold.Protein.RotatedAtoms>
  151.6656  133.3315  159.3184 H   0  0  0  0  0  0  0  0  0  0  0  0  # atno 6907 bound_to 6896
  150.7892  134.6906  159.6504 H   0  0  0  0  0  0  0  0  0  0  0  0  # atno 6908 bound_to 6896
  152.3969  134.6355  160.0138 H   0  0  0  0  0  0  0  0  0  0  0  0  # atno 6909 bound_to 6896
  145.5834  139.2328  143.2340 H   0  0  0  0  0  0  0  0  0  0  0  0  # atno 7974 bound_to 7965
  156.1889  140.1700  156.8131 H   0  0  0  0  0  0  0  0  0  0  0  0  # atno 8008 bound_to 7997
  154.5447  140.0729  156.8601 H   0  0  0  0  0  0  0  0  0  0  0  0  # atno 8009 bound_to 7997
  155.3145  140.3369  155.4245 H   0  0  0  0  0  0  0  0  0  0  0  0  # atno 8010 bound_to 7997
  140.1275  143.4389  152.1650 H   0  0  0  0  0  0  0  0  0  0  0  0  # atno 10167 bound_to 10162
  156.3096  130.4251  149.8063 H   0  0  0  0  0  0  0  0  0  0  0  0  # atno 10718 bound_to 10713
  153.1708  135.6812  153.8610 H   0  0  0  0  0  0  0  0  0  0  0  0  # atno 10763 bound_to 10752
  153.7975  135.3160  155.3387 H   0  0  0  0  0  0  0  0  0  0  0  0  # atno 10764 bound_to 10752
  154.7997  135.4785  154.0337 H   0  0  0  0  0  0  0  0  0  0  0  0  # atno 10765 bound_to 10752
  139.9404  134.7409  156.1114 H   0  0  0  0  0  0  0  0  0  0  0  0  # atno 11005 bound_to 11000
  146.1699  140.6661  142.9238 LP  0  0  0  0  0  0  0  0  0  0  0  0  # atno 17320 bound_to 7965
  144.7383  140.4872  143.6887 LP  0  0  0  0  0  0  0  0  0  0  0  0  # atno 17321 bound_to 7965
  139.5537  144.7357  151.4359 LP  0  0  0  0  0  0  0  0  0  0  0  0  # atno 17342 bound_to 10162
  140.6836  143.8024  150.7155 LP  0  0  0  0  0  0  0  0  0  0  0  0  # atno 17343 bound_to 10162
  156.5412  130.8300  151.3269 LP  0  0  0  0  0  0  0  0  0  0  0  0  # atno 17370 bound_to 10713
  157.7388  130.9819  150.2272 LP  0  0  0  0  0  0  0  0  0  0  0  0  # atno 17371 bound_to 10713
  141.1036  133.6668  156.2812 LP  0  0  0  0  0  0  0  0  0  0  0  0  # atno 17394 bound_to 11000
  140.5966  134.5597  157.5510 LP  0  0  0  0  0  0  0  0  0  0  0  0  # atno 17395 bound_to 11000

$$$$
