AV-unprocessed.smi:1576|AV-procd|sdf|6344|dock5
  -GOLD-   22720 6563D 1   1.00000     0.00000
 Structure written by MMmdl.
 45 47  0  0  0  0  0  0  0  0  1 V2000
  149.6702  135.2533  156.3772 O   0  0  0  0  0  0  0  0  0  0  0  0
  149.5602  135.5782  155.1955 C   0  0  0  0  0  0  0  0  0  0  0  0
  149.8750  136.7809  154.6843 N   0  0  0  0  0  0  0  0  0  0  0  0
  150.3720  137.9311  155.3559 C   0  0  0  0  0  0  0  0  0  0  0  0
  150.7420  139.1364  154.7152 C   0  0  0  0  0  0  0  0  0  0  0  0
  151.2370  140.1993  155.4952 C   0  0  0  0  0  0  0  0  0  0  0  0
  151.3597  140.0340  156.8947 C   0  0  0  0  0  0  0  0  0  0  0  0
  151.8528  141.0887  157.6933 N   0  0  0  0  0  0  0  0  0  0  0  0
  152.5403  140.6783  158.9194 C   0  0  0  0  0  0  0  0  0  0  0  0
  153.3814  141.8298  159.4968 C   0  0  0  0  0  0  0  0  0  0  0  0
  152.5301  143.0933  159.6916 C   0  0  0  0  0  0  0  0  0  0  0  0
  151.8437  143.4726  158.3714 C   0  0  0  0  0  0  0  0  0  0  0  0
  151.0281  142.2938  157.8136 C   0  0  0  0  0  0  0  0  0  0  0  0
  151.0116  138.8742  157.5040 N   0  0  0  0  0  0  0  0  0  0  0  0
  150.5394  137.8579  156.7529 C   0  0  0  0  0  0  0  0  0  0  0  0
  149.1174  134.7478  154.2406 N   0  0  0  0  0  0  0  0  0  0  0  0
  148.7137  133.3614  154.4569 C   0  0  1  0  0  0  0  0  0  0  0  0
  148.6995  132.5451  153.1478 C   0  0  0  0  0  0  0  0  0  0  0  0
  148.6383  131.0537  153.4997 C   0  0  0  0  0  0  0  0  0  0  0  0
  149.5187  130.8710  155.0966 S   0  0  0  0  0  0  0  0  0  0  0  0
  148.6080  130.2598  156.0763 O   0  0  0  0  0  0  0  0  0  0  0  0
  150.8597  130.3152  154.8600 O   0  0  0  0  0  0  0  0  0  0  0  0
  149.6682  132.6655  155.4377 C   0  0  0  0  0  0  0  0  0  0  0  0
  149.7998  136.8681  153.6814 H   0  0  0  0  0  0  0  0  0  0  0  0
  150.6679  139.2673  153.6472 H   0  0  0  0  0  0  0  0  0  0  0  0
  151.5053  141.1287  155.0150 H   0  0  0  0  0  0  0  0  0  0  0  0
  151.7913  140.3657  159.6480 H   0  0  0  0  0  0  0  0  0  0  0  0
  153.1876  139.8186  158.7512 H   0  0  0  0  0  0  0  0  0  0  0  0
  153.8249  141.5276  160.4458 H   0  0  0  0  0  0  0  0  0  0  0  0
  154.2108  142.0487  158.8230 H   0  0  0  0  0  0  0  0  0  0  0  0
  151.7774  142.9157  160.4607 H   0  0  0  0  0  0  0  0  0  0  0  0
  153.1517  143.9167  160.0442 H   0  0  0  0  0  0  0  0  0  0  0  0
  151.1963  144.3371  158.5196 H   0  0  0  0  0  0  0  0  0  0  0  0
  152.5974  143.7711  157.6415 H   0  0  0  0  0  0  0  0  0  0  0  0
  150.6228  142.5718  156.8398 H   0  0  0  0  0  0  0  0  0  0  0  0
  150.1810  142.0835  158.4680 H   0  0  0  0  0  0  0  0  0  0  0  0
  150.2819  136.9563  157.2895 H   0  0  0  0  0  0  0  0  0  0  0  0
  149.0629  135.0965  153.2949 H   0  0  0  0  0  0  0  0  0  0  0  0
  147.7116  133.3378  154.8898 H   0  0  0  0  0  0  0  0  0  0  0  0
  147.8745  132.8330  152.4957 H   0  0  0  0  0  0  0  0  0  0  0  0
  149.6215  132.7356  152.5965 H   0  0  0  0  0  0  0  0  0  0  0  0
  147.6065  130.7344  153.6474 H   0  0  0  0  0  0  0  0  0  0  0  0
  149.0944  130.4174  152.7410 H   0  0  0  0  0  0  0  0  0  0  0  0
  150.7045  132.9502  155.2533 H   0  0  0  0  0  0  0  0  0  0  0  0
  149.4312  132.8704  156.4819 H   0  0  0  0  0  0  0  0  0  0  0  0
  1  2  2  0  0  0  0
  2  3  1  0  0  0  0
  2 16  1  0  0  0  0
  3  4  1  0  0  0  0
  3 24  1  0  0  0  0
  4 15  1  0  0  0  0
  4  5  2  0  0  0  0
  5  6  1  0  0  0  0
  5 25  1  0  0  0  0
  6  7  2  0  0  0  0
  6 26  1  0  0  0  0
  7  8  1  0  0  0  0
  7 14  1  0  0  0  0
  8 13  1  0  0  0  0
  8  9  1  0  0  0  0
  9 10  1  0  0  0  0
  9 27  1  0  0  0  0
  9 28  1  0  0  0  0
 10 11  1  0  0  0  0
 10 29  1  0  0  0  0
 10 30  1  0  0  0  0
 11 12  1  0  0  0  0
 11 31  1  0  0  0  0
 11 32  1  0  0  0  0
 12 13  1  0  0  0  0
 12 33  1  0  0  0  0
 12 34  1  0  0  0  0
 13 35  1  0  0  0  0
 13 36  1  0  0  0  0
 14 15  2  0  0  0  0
 15 37  1  0  0  0  0
 16 17  1  0  0  0  0
 16 38  1  0  0  0  0
 17 23  1  0  0  0  0
 17 18  1  0  0  0  0
 17 39  1  0  0  0  0
 18 19  1  0  0  0  0
 18 40  1  0  0  0  0
 18 41  1  0  0  0  0
 19 20  1  0  0  0  0
 19 42  1  0  0  0  0
 19 43  1  0  0  0  0
 20 21  2  0  0  0  0
 20 22  2  0  0  0  0
 20 23  1  0  0  0  0
 23 44  1  0  0  0  0
 23 45  1  0  0  0  0
M  END
> <s_m_source_file>
AV-unprocessed.smi

> <i_m_source_file_index>
1576

> <i_lp_mmshare_version>
43012

> <i_f3d_flags>
0

> <s_epik_input>
Tz1TMSg9TylbQ0gyXVtDSDJdW0NASF0oW0NIMl0xKVtOSF1DKD1PKVtOSF1jMltjSF1bY0hdYyhuW2NIXTIpTjNbQ0gyXVtDSDJdW0NIMl1bQ0gyXVtDSDJdMw==

> <s_epik_cmdline>
J2VwaWtfcHl0aG9uJywgJy1waCcsICc3LjAnLCAnLXRuJywgJzgnLCAnLW1hJywgJzIwMCcsICctbWV0YWxfYmluZGluZycsICctaW1hZScsICc8aW5maWxlLm1hZT4nLCAnLW9tYWUnLCAnPG91dGZpbGUubWFlPic=

> <r_lp_tautomer_probability>
1

> <r_epik_Ionization_Penalty>
0.0900267

> <r_epik_Ionization_Penalty_Charging>
0

> <r_epik_Ionization_Penalty_Neutral>
0.0900267

> <r_epik_State_Penalty>
0.0748882

> <r_epik_Charging_Adjusted_Penalty>
0.0748882

> <i_epik_Tot_Q>
0

> <i_epik_Tot_abs_Q>
0

> <r_epik_Metal_State_Penalty>
0.0662821

> <b_epik_Metal_Only>
0

> <s_lp_Force_Field>
OPLS_2005

> <r_lp_Energy>
22.1821

> <b_lp_Chiralities_Consistent>
1

> <s_lp_Variant>
AV-unprocessed.smi:1576-2

> <Gold.Version>
5.8.1

> <Gold.Id.Protein>
6NUR|6NUR_protein|mol2

> <Gold.PLP.Fitness>
42.6301

> <Gold.PLP.PLP>
-37.8539

> <Gold.PLP.part.hbond>
-2.0000

> <Gold.PLP.part.metal>
0.0000

> <Gold.PLP.part.buried>
-3.0815

> <Gold.PLP.part.nonpolar>
-33.2955

> <Gold.PLP.part.repulsive>
0.1026

> <Gold.PLP.ligand.clash>
0.0000

> <Gold.PLP.ligand.torsion>
0.6881

> <Gold.PLP.Chemscore.Hbond>
1.9100

> <Gold.PLP.Chemscore.CHOScore>
0.0000

> <Gold.PLP.Chemscore.Metal>
0.0000

> <Gold.Chemscore.Hbonds>
donor molecule, donor type, donor heavy atom, donor atom, acceptor molecule, acceptor atom, score
      L1  H     3    24       P1  7948  0.89
      L1  H    16    38       P1  7948  1.00

> <Gold.PLP.Chemscore.Internal.Correction>
0.4224

> <Gold.Rescore>
     Score         DG    S(hbond)    S(metal)    S(lipo)     H(rot)  DE(clash)    DE(int)     intcor
     15.25     -18.88       1.84        0.00      89.01       1.24       0.03       3.61       ----

> <Gold.Chemscore.Fitness>
15.2452

> <Gold.Chemscore.DG>
-18.8839

> <Gold.Chemscore.ZeroCoef>
-5.4800

> <Gold.Chemscore.Hbond>
1.8430

> <Gold.Chemscore.Metal>
0.0000

> <Gold.Chemscore.Lipo>
89.0081

> <Gold.Chemscore.Internal_Hbond>
0.0000

> <Gold.Chemscore.DEClash>
0.0270

> <Gold.Chemscore.DEInternal>
3.6117

> <Gold.Chemscore.Rot>
1.2366

> <Gold.Chemscore.Internal.Correction>
   9.000000E+99

> <Gold.Chemscore.Hbonds>
donor molecule, donor type, donor heavy atom, donor atom, acceptor molecule, acceptor atom, score
      L1  H     3    24       P1  7948  0.46
      L1  H    16    38       P1  7948  0.26

> <Gold.Chemscore.Hbond.Weighted>
-6.1556

> <Gold.Chemscore.Metal.Weighted>
-0.0000

> <Gold.Chemscore.Lipo.Weighted>
-10.4140

> <Gold.Chemscore.Internal_Hbond.Weighted>
0.0000

> <Gold.Chemscore.DEClash.Weighted>
0.0270

> <Gold.Chemscore.DEInternal.Weighted>
3.6117

> <Gold.Chemscore.Rot.Weighted>
3.1657

> <Gold.Chemscore.Internal.Correction.Weighted>
   9.000000E+99

> <Gold.Protein.RotatedTorsions>
[ 6907 6896 6895 6894 ] final  -38.11 input  -60.11 | X-H torsion
[ 7974 7965 7964 7962 ] final   89.57 input  175.53 | X-H torsion
[ 8008 7997 7996 7995 ] final  142.25 input   59.86 | X-H torsion
[ 10167 10162 10161 10158 ] final -159.82 input  -65.29 | X-H torsion
[ 10718 10713 10712 10709 ] final   69.96 input   66.30 | X-H torsion
[ 10763 10752 10751 10750 ] final -101.04 input  -60.55 | X-H torsion
[ 11005 11000 10999 10996 ] final -126.12 input  -57.11 | X-H torsion

> <Gold.Protein.ActiveResidues>
 VAL166  LYS551  ARG553  GLY616  TRP617  ASP618  TYR619  PRO620  LYS621  CYS622 
 ASP623  PHE694  ASN695  SER759  ASP760  ASP761  ALA762  ILE779  LEU786  VAL792 
 PHE793  MET794  SER795  GLU796  ALA797  LYS798  CYS799  TRP800  GLU811  SER814 

> <Gold.Protein.RotatedAtoms>
  151.0065  134.9363  159.7982 H   0  0  0  0  0  0  0  0  0  0  0  0  # atno 6907 bound_to 6896
  152.5291  134.3085  159.9114 H   0  0  0  0  0  0  0  0  0  0  0  0  # atno 6908 bound_to 6896
  151.3091  133.4047  159.2680 H   0  0  0  0  0  0  0  0  0  0  0  0  # atno 6909 bound_to 6896
  145.5305  139.2283  143.2621 H   0  0  0  0  0  0  0  0  0  0  0  0  # atno 7974 bound_to 7965
  156.2952  140.2294  156.4696 H   0  0  0  0  0  0  0  0  0  0  0  0  # atno 8008 bound_to 7997
  154.7946  140.0452  157.1248 H   0  0  0  0  0  0  0  0  0  0  0  0  # atno 8009 bound_to 7997
  154.9604  140.3053  155.5037 H   0  0  0  0  0  0  0  0  0  0  0  0  # atno 8010 bound_to 7997
  139.6586  143.9954  152.2210 H   0  0  0  0  0  0  0  0  0  0  0  0  # atno 10167 bound_to 10162
  157.6374  130.9453  150.0585 H   0  0  0  0  0  0  0  0  0  0  0  0  # atno 10718 bound_to 10713
  154.7627  135.4912  153.9494 H   0  0  0  0  0  0  0  0  0  0  0  0  # atno 10763 bound_to 10752
  153.1270  135.6744  153.9248 H   0  0  0  0  0  0  0  0  0  0  0  0  # atno 10764 bound_to 10752
  153.8963  135.3115  155.3427 H   0  0  0  0  0  0  0  0  0  0  0  0  # atno 10765 bound_to 10752
  140.9707  134.0809  157.3872 H   0  0  0  0  0  0  0  0  0  0  0  0  # atno 11005 bound_to 11000
  146.2047  140.6121  142.9086 LP  0  0  0  0  0  0  0  0  0  0  0  0  # atno 17320 bound_to 7965
  144.7628  140.5462  143.6723 LP  0  0  0  0  0  0  0  0  0  0  0  0  # atno 17321 bound_to 7965
  139.9687  144.6508  150.8010 LP  0  0  0  0  0  0  0  0  0  0  0  0  # atno 17342 bound_to 10162
  140.7570  143.3077  151.2921 LP  0  0  0  0  0  0  0  0  0  0  0  0  # atno 17343 bound_to 10162
  156.1625  130.3644  149.9279 LP  0  0  0  0  0  0  0  0  0  0  0  0  # atno 17370 bound_to 10713
  156.7273  130.9030  151.3623 LP  0  0  0  0  0  0  0  0  0  0  0  0  # atno 17371 bound_to 10713
  139.8911  135.0116  156.6774 LP  0  0  0  0  0  0  0  0  0  0  0  0  # atno 17394 bound_to 11000
  140.7333  133.9040  155.8226 LP  0  0  0  0  0  0  0  0  0  0  0  0  # atno 17395 bound_to 11000

$$$$
