AV-unprocessed.smi:1803|AV-procd|sdf|7281|dock4
  -GOLD-   22720 8543D 1   1.00000     0.00000
 Structure written by MMmdl.
 36 38  0  0  0  0  0  0  0  0  2 V2000
  148.5948  133.7698  155.5764 O   0  0  0  0  0  0  0  0  0  0  0  0
  148.7403  134.4296  154.5492 C   0  0  0  0  0  0  0  0  0  0  0  0
  149.6792  135.3969  154.4706 N   0  0  0  0  0  0  0  0  0  0  0  0
  150.6355  135.8701  155.4170 C   0  0  0  0  0  0  0  0  0  0  0  0
  151.8326  136.3887  155.0970 N   0  0  0  0  0  0  0  0  0  0  0  0
  152.5520  136.7772  156.2190 N   0  0  0  0  0  0  0  0  0  0  0  0
  151.8691  136.5441  157.3430 C   0  0  0  0  0  0  0  0  0  0  0  0
  150.2810  135.8259  157.1389 S   0  0  0  0  0  0  0  0  0  0  0  0
  147.9900  134.2351  153.4523 N   0  0  0  0  0  0  0  0  0  0  0  0
  146.9155  133.2570  153.3184 C   0  0  2  0  0  0  0  0  0  0  0  0
  147.4239  131.8048  153.3477 C   0  0  0  0  0  0  0  0  0  0  0  0
  146.5626  131.0480  152.3174 C   0  0  0  0  0  0  0  0  0  0  0  0
  145.5691  132.0296  151.8428 N   0  3  2  0  0  0  0  0  0  0  0  0
  144.9762  131.7964  150.5079 C   0  0  0  0  0  0  0  0  0  0  0  0
  143.9084  132.8739  150.2312 C   0  0  0  0  0  0  0  0  0  0  0  0
  144.4719  134.2978  150.4149 C   0  0  0  0  0  0  0  0  0  0  0  0
  145.1598  134.4518  151.7851 C   0  0  0  0  0  0  0  0  0  0  0  0
  146.2144  133.3459  151.9603 C   0  0  1  0  0  0  0  0  0  0  0  0
  149.7321  135.8502  153.5696 H   0  0  0  0  0  0  0  0  0  0  0  0
  152.3031  136.7978  158.2989 H   0  0  0  0  0  0  0  0  0  0  0  0
  148.1779  134.8186  152.6491 H   0  0  0  0  0  0  0  0  0  0  0  0
  146.1812  133.3798  154.1175 H   0  0  0  0  0  0  0  0  0  0  0  0
  148.4756  131.7439  153.0631 H   0  0  0  0  0  0  0  0  0  0  0  0
  147.3309  131.3776  154.3468 H   0  0  0  0  0  0  0  0  0  0  0  0
  147.1843  130.7115  151.4861 H   0  0  0  0  0  0  0  0  0  0  0  0
  146.0698  130.1755  152.7471 H   0  0  0  0  0  0  0  0  0  0  0  0
  145.7552  131.8244  149.7444 H   0  0  0  0  0  0  0  0  0  0  0  0
  144.5265  130.8035  150.4749 H   0  0  0  0  0  0  0  0  0  0  0  0
  143.5105  132.7561  149.2229 H   0  0  0  0  0  0  0  0  0  0  0  0
  143.0679  132.7308  150.9119 H   0  0  0  0  0  0  0  0  0  0  0  0
  145.1916  134.5075  149.6226 H   0  0  0  0  0  0  0  0  0  0  0  0
  143.6743  135.0341  150.3101 H   0  0  0  0  0  0  0  0  0  0  0  0
  145.6239  135.4356  151.8576 H   0  0  0  0  0  0  0  0  0  0  0  0
  144.4180  134.3948  152.5830 H   0  0  0  0  0  0  0  0  0  0  0  0
  146.9679  133.4347  151.1738 H   0  0  0  0  0  0  0  0  0  0  0  0
  144.8142  132.0217  152.5138 H   0  0  0  0  0  0  0  0  0  0  0  0
  1  2  2  0  0  0  0
  2  3  1  0  0  0  0
  2  9  1  0  0  0  0
  3  4  1  0  0  0  0
  3 19  1  0  0  0  0
  4  8  1  0  0  0  0
  4  5  2  0  0  0  0
  5  6  1  0  0  0  0
  6  7  2  0  0  0  0
  7  8  1  0  0  0  0
  7 20  1  0  0  0  0
  9 10  1  0  0  0  0
  9 21  1  0  0  0  0
 10 18  1  0  0  0  0
 10 11  1  0  0  0  0
 10 22  1  0  0  0  0
 11 12  1  0  0  0  0
 11 23  1  0  0  0  0
 11 24  1  0  0  0  0
 12 13  1  0  0  0  0
 12 25  1  0  0  0  0
 12 26  1  0  0  0  0
 13 18  1  0  0  0  0
 13 14  1  0  0  0  0
 13 36  1  0  0  0  0
 14 15  1  0  0  0  0
 14 27  1  0  0  0  0
 14 28  1  0  0  0  0
 15 16  1  0  0  0  0
 15 29  1  0  0  0  0
 15 30  1  0  0  0  0
 16 17  1  0  0  0  0
 16 31  1  0  0  0  0
 16 32  1  0  0  0  0
 17 18  1  0  0  0  0
 17 33  1  0  0  0  0
 17 34  1  0  0  0  0
 18 35  1  0  0  0  0
M  CHG  1  13   1
M  END
> <s_m_source_file>
AV-unprocessed.smi

> <i_m_source_file_index>
1803

> <i_lp_mmshare_version>
43012

> <i_f3d_flags>
0

> <s_epik_input>
czFbY0hdbm5jMVtOSF1DKD1PKVtOSF1bQ0BIXShbQ0gyXVtDSDJdMilbQ0BASF0oTjIzKVtDSDJdW0NIMl1bQ0gyXVtDSDJdMw==

> <s_epik_cmdline>
J2VwaWtfcHl0aG9uJywgJy1waCcsICc3LjAnLCAnLXRuJywgJzgnLCAnLW1hJywgJzIwMCcsICctbWV0YWxfYmluZGluZycsICctaW1hZScsICc8aW5maWxlLm1hZT4nLCAnLW9tYWUnLCAnPG91dGZpbGUubWFlPic=

> <r_lp_tautomer_probability>
1

> <r_epik_Ionization_Penalty>
0.00213286

> <r_epik_Ionization_Penalty_Charging>
0.00107044

> <r_epik_Ionization_Penalty_Neutral>
0.00106242

> <r_epik_State_Penalty>
-0

> <r_epik_Charging_Adjusted_Penalty>
0.00107044

> <i_epik_Tot_Q>
1

> <i_epik_Tot_abs_Q>
1

> <r_epik_Metal_State_Penalty>
0.292783

> <b_epik_Metal_Only>
0

> <s_lp_Force_Field>
OPLS_2005

> <r_lp_Energy>
35.8307

> <b_lp_Chiralities_Consistent>
1

> <s_lp_Variant>
AV-unprocessed.smi:1803-3

> <Gold.Version>
5.8.1

> <Gold.Id.Protein>
6NUR|6NUR_protein|mol2

> <Gold.PLP.Fitness>
34.5846

> <Gold.PLP.PLP>
-26.0211

> <Gold.PLP.part.hbond>
-4.0000

> <Gold.PLP.part.metal>
0.0000

> <Gold.PLP.part.buried>
-3.8558

> <Gold.PLP.part.nonpolar>
-18.6416

> <Gold.PLP.part.repulsive>
0.1705

> <Gold.PLP.ligand.clash>
0.0000

> <Gold.PLP.ligand.torsion>
0.2231

> <Gold.PLP.Chemscore.Hbond>
3.0000

> <Gold.PLP.Chemscore.CHOScore>
0.0000

> <Gold.PLP.Chemscore.Metal>
0.0000

> <Gold.Chemscore.Hbonds>
donor molecule, donor type, donor heavy atom, donor atom, acceptor molecule, acceptor atom, score
      L1  H     3    19       P1  7948  0.80
      L1  H     9    21       P1  7948  1.00
      P1  H 10752 10764       L1     5  0.86

> <Gold.PLP.Chemscore.Internal.Correction>
0.0096

> <Gold.Rescore>
     Score         DG    S(hbond)    S(metal)    S(lipo)     H(rot)  DE(clash)    DE(int)     intcor
     15.60     -15.95       1.94        0.00      56.01       1.00       0.01       0.34       ----

> <Gold.Chemscore.Fitness>
15.6036

> <Gold.Chemscore.DG>
-15.9539

> <Gold.Chemscore.ZeroCoef>
-5.4800

> <Gold.Chemscore.Hbond>
1.9403

> <Gold.Chemscore.Metal>
0.0000

> <Gold.Chemscore.Lipo>
56.0103

> <Gold.Chemscore.Internal_Hbond>
0.0000

> <Gold.Chemscore.DEClash>
0.0089

> <Gold.Chemscore.DEInternal>
0.3414

> <Gold.Chemscore.Rot>
1.0000

> <Gold.Chemscore.Internal.Correction>
   9.000000E+99

> <Gold.Chemscore.Hbonds>
donor molecule, donor type, donor heavy atom, donor atom, acceptor molecule, acceptor atom, score
      L1  H     3    19       P1  7948  0.11
      L1  H     9    21       P1  7948  0.63
      P1  H 10752 10764       L1     5  0.15

> <Gold.Chemscore.Hbond.Weighted>
-6.4807

> <Gold.Chemscore.Metal.Weighted>
-0.0000

> <Gold.Chemscore.Lipo.Weighted>
-6.5532

> <Gold.Chemscore.Internal_Hbond.Weighted>
0.0000

> <Gold.Chemscore.DEClash.Weighted>
0.0089

> <Gold.Chemscore.DEInternal.Weighted>
0.3414

> <Gold.Chemscore.Rot.Weighted>
2.5600

> <Gold.Chemscore.Internal.Correction.Weighted>
   9.000000E+99

> <Gold.Protein.RotatedTorsions>
[ 6907 6896 6895 6894 ] final  -28.39 input  -60.11 | X-H torsion
[ 7974 7965 7964 7962 ] final  -43.12 input  175.53 | X-H torsion
[ 8008 7997 7996 7995 ] final  138.96 input   59.86 | X-H torsion
[ 10167 10162 10161 10158 ] final   11.66 input  -65.29 | X-H torsion
[ 10718 10713 10712 10709 ] final   53.28 input   66.30 | X-H torsion
[ 10763 10752 10751 10750 ] final  -73.66 input  -60.55 | X-H torsion
[ 11005 11000 10999 10996 ] final   11.42 input  -57.11 | X-H torsion

> <Gold.Protein.ActiveResidues>
 VAL166  LYS551  ARG553  GLY616  TRP617  ASP618  TYR619  PRO620  LYS621  CYS622 
 ASP623  PHE694  ASN695  SER759  ASP760  ASP761  ALA762  ILE779  LEU786  VAL792 
 PHE793  MET794  SER795  GLU796  ALA797  LYS798  CYS799  TRP800  GLU811  SER814 

> <Gold.Protein.RotatedAtoms>
  151.1336  135.0143  159.8593 H   0  0  0  0  0  0  0  0  0  0  0  0  # atno 6907 bound_to 6896
  152.5451  134.1581  159.8556 H   0  0  0  0  0  0  0  0  0  0  0  0  # atno 6908 bound_to 6896
  151.1650  133.4775  159.2627 H   0  0  0  0  0  0  0  0  0  0  0  0  # atno 6909 bound_to 6896
  146.0050  140.7031  142.9252 H   0  0  0  0  0  0  0  0  0  0  0  0  # atno 7974 bound_to 7965
  156.2993  140.2380  156.4159 H   0  0  0  0  0  0  0  0  0  0  0  0  # atno 8008 bound_to 7997
  154.8399  140.0429  157.1554 H   0  0  0  0  0  0  0  0  0  0  0  0  # atno 8009 bound_to 7997
  154.9114  140.2991  155.5268 H   0  0  0  0  0  0  0  0  0  0  0  0  # atno 8010 bound_to 7997
  140.6118  143.8392  150.7074 H   0  0  0  0  0  0  0  0  0  0  0  0  # atno 10167 bound_to 10162
  157.5152  130.8527  149.8486 H   0  0  0  0  0  0  0  0  0  0  0  0  # atno 10718 bound_to 10713
  154.4625  135.5890  153.6265 H   0  0  0  0  0  0  0  0  0  0  0  0  # atno 10763 bound_to 10752
  152.9825  135.6047  154.3469 H   0  0  0  0  0  0  0  0  0  0  0  0  # atno 10764 bound_to 10752
  154.3342  135.2842  155.2435 H   0  0  0  0  0  0  0  0  0  0  0  0  # atno 10765 bound_to 10752
  140.5035  134.0723  155.7799 H   0  0  0  0  0  0  0  0  0  0  0  0  # atno 11005 bound_to 11000
  144.6932  140.3298  143.7218 LP  0  0  0  0  0  0  0  0  0  0  0  0  # atno 17320 bound_to 7965
  145.7430  139.1770  143.2365 LP  0  0  0  0  0  0  0  0  0  0  0  0  # atno 17321 bound_to 7965
  140.1962  143.3996  152.1826 LP  0  0  0  0  0  0  0  0  0  0  0  0  # atno 17342 bound_to 10162
  139.5367  144.7216  151.4870 LP  0  0  0  0  0  0  0  0  0  0  0  0  # atno 17343 bound_to 10162
  156.0315  130.3763  150.1674 LP  0  0  0  0  0  0  0  0  0  0  0  0  # atno 17370 bound_to 10713
  156.9863  130.9879  151.3425 LP  0  0  0  0  0  0  0  0  0  0  0  0  # atno 17371 bound_to 10713
  141.1423  133.9116  157.2297 LP  0  0  0  0  0  0  0  0  0  0  0  0  # atno 17394 bound_to 11000
  139.9700  135.0131  156.9486 LP  0  0  0  0  0  0  0  0  0  0  0  0  # atno 17395 bound_to 11000

$$$$
