AV-unprocessed.smi:97|AV-procd|sdf|861|dock3
  -GOLD-   2262017303D 1   1.00000     0.00000
 Structure written by MMmdl.
 46 49  0  0  0  0  0  0  0  0  1 V2000
  152.8368  136.9286  160.4365 O   0  0  0  0  0  0  0  0  0  0  0  0
  153.6781  137.5591  161.0790 C   0  0  0  0  0  0  0  0  0  0  0  0
  154.4922  138.6874  160.4279 C   0  0  0  0  0  0  0  0  0  0  0  0
  153.9690  140.0380  160.7290 N   0  0  0  0  0  0  0  0  0  0  0  0
  154.1577  140.5596  162.0333 C   0  0  0  0  0  0  0  0  0  0  0  0
  154.7230  139.9019  162.9084 O   0  0  0  0  0  0  0  0  0  0  0  0
  153.6535  141.9108  162.2499 C   0  0  0  0  0  0  0  0  0  0  0  0
  153.8027  142.4931  163.4518 F   0  0  0  0  0  0  0  0  0  0  0  0
  153.0411  142.5900  161.2585 C   0  0  0  0  0  0  0  0  0  0  0  0
  152.8432  142.0618  159.9979 N   0  0  0  0  0  0  0  0  0  0  0  0
  152.1912  142.9150  158.9345 C   0  0  2  0  0  0  0  0  0  0  0  0
  152.9881  144.1875  158.5903 C   0  0  0  0  0  0  0  0  0  0  0  0
  151.9969  145.3007  158.8876 C   0  0  0  0  0  0  0  0  0  0  0  0
  150.6529  144.5833  158.8286 C   0  0  0  0  0  0  0  0  0  0  0  0
  150.9348  143.3113  159.3910 O   0  0  0  0  0  0  0  0  0  0  0  0
  153.3382  140.7720  159.6961 C   0  0  0  0  0  0  0  0  0  0  0  0
  153.2317  140.3007  158.5627 O   0  0  0  0  0  0  0  0  0  0  0  0
  153.9464  137.3156  162.3704 N   0  0  0  0  0  0  0  0  0  0  0  0
  153.3231  136.2630  163.1659 C   0  0  0  0  0  0  0  0  0  0  0  0
  154.2998  135.4894  164.0416 C   0  0  0  0  0  0  0  0  0  0  0  0
  155.5662  136.0574  164.3403 C   0  0  0  0  0  0  0  0  0  0  0  0
  156.4986  135.3684  165.1488 C   0  0  0  0  0  0  0  0  0  0  0  0
  156.1312  134.1055  165.6403 C   0  0  0  0  0  0  0  0  0  0  0  0
  154.9051  133.5450  165.3493 C   0  0  0  0  0  0  0  0  0  0  0  0
  153.9621  134.2084  164.5480 C   0  0  0  0  0  0  0  0  0  0  0  0
  154.8084  132.3285  165.9435 O   0  0  0  0  0  0  0  0  0  0  0  0
  156.0203  132.1376  166.6265 C   0  0  0  0  0  0  0  0  0  0  0  0
  156.8428  133.2586  166.4270 O   0  0  0  0  0  0  0  0  0  0  0  0
  155.5326  138.5830  160.7395 H   0  0  0  0  0  0  0  0  0  0  0  0
  154.5222  138.5214  159.3495 H   0  0  0  0  0  0  0  0  0  0  0  0
  152.6912  143.5899  161.4696 H   0  0  0  0  0  0  0  0  0  0  0  0
  152.0688  142.2693  158.0636 H   0  0  0  0  0  0  0  0  0  0  0  0
  153.9110  144.2731  159.1645 H   0  0  0  0  0  0  0  0  0  0  0  0
  153.2422  144.1613  157.5302 H   0  0  0  0  0  0  0  0  0  0  0  0
  152.1636  145.6950  159.8903 H   0  0  0  0  0  0  0  0  0  0  0  0
  152.0651  146.1307  158.1842 H   0  0  0  0  0  0  0  0  0  0  0  0
  149.8719  145.1037  159.3831 H   0  0  0  0  0  0  0  0  0  0  0  0
  150.3218  144.4614  157.7959 H   0  0  0  0  0  0  0  0  0  0  0  0
  154.6466  137.8815  162.8275 H   0  0  0  0  0  0  0  0  0  0  0  0
  152.5750  136.7227  163.8118 H   0  0  0  0  0  0  0  0  0  0  0  0
  152.7843  135.5780  162.5089 H   0  0  0  0  0  0  0  0  0  0  0  0
  155.8251  137.0309  163.9505 H   0  0  0  0  0  0  0  0  0  0  0  0
  157.4616  135.7986  165.3810 H   0  0  0  0  0  0  0  0  0  0  0  0
  153.0098  133.7472  164.3317 H   0  0  0  0  0  0  0  0  0  0  0  0
  155.8235  132.0136  167.6918 H   0  0  0  0  0  0  0  0  0  0  0  0
  156.5182  131.2460  166.2443 H   0  0  0  0  0  0  0  0  0  0  0  0
  1  2  2  0  0  0  0
  2  3  1  0  0  0  0
  2 18  1  0  0  0  0
  3  4  1  0  0  0  0
  3 29  1  0  0  0  0
  3 30  1  0  0  0  0
  4 16  1  0  0  0  0
  4  5  1  0  0  0  0
  5  6  2  0  0  0  0
  5  7  1  0  0  0  0
  7  8  1  0  0  0  0
  7  9  2  0  0  0  0
  9 10  1  0  0  0  0
  9 31  1  0  0  0  0
 10 11  1  0  0  0  0
 10 16  1  0  0  0  0
 11 15  1  0  0  0  0
 11 12  1  0  0  0  0
 11 32  1  0  0  0  0
 12 13  1  0  0  0  0
 12 33  1  0  0  0  0
 12 34  1  0  0  0  0
 13 14  1  0  0  0  0
 13 35  1  0  0  0  0
 13 36  1  0  0  0  0
 14 15  1  0  0  0  0
 14 37  1  0  0  0  0
 14 38  1  0  0  0  0
 16 17  2  0  0  0  0
 18 19  1  0  0  0  0
 18 39  1  0  0  0  0
 19 20  1  0  0  0  0
 19 40  1  0  0  0  0
 19 41  1  0  0  0  0
 20 25  1  0  0  0  0
 20 21  2  0  0  0  0
 21 22  1  0  0  0  0
 21 42  1  0  0  0  0
 22 23  2  0  0  0  0
 22 43  1  0  0  0  0
 23 28  1  0  0  0  0
 23 24  1  0  0  0  0
 24 25  2  0  0  0  0
 24 26  1  0  0  0  0
 25 44  1  0  0  0  0
 26 27  1  0  0  0  0
 27 28  1  0  0  0  0
 27 45  1  0  0  0  0
 27 46  1  0  0  0  0
M  END
> <s_m_source_file>
AV-unprocessed.smi

> <i_m_source_file_index>
97

> <i_lp_mmshare_version>
43012

> <i_f3d_flags>
0

> <s_epik_input>
TzFbQ0gyXU9jKGMxMilbY0hdYyhbY0hdW2NIXTIpW0NIMl1bTkhdQyg9TylbQ0gyXW4zYyg9TyljKEYpW2NIXW4oYzM9TylbQ0BASF00W0NIMl1bQ0gyXVtDSDJdTzQ=

> <s_epik_cmdline>
J2VwaWtfcHl0aG9uJywgJy1waCcsICc3LjAnLCAnLXRuJywgJzgnLCAnLW1hJywgJzIwMCcsICctbWV0YWxfYmluZGluZycsICctaW1hZScsICc8aW5maWxlLm1hZT4nLCAnLW9tYWUnLCAnPG91dGZpbGUubWFlPic=

> <r_lp_tautomer_probability>
1

> <r_epik_Ionization_Penalty>
3.79042e-08

> <r_epik_Ionization_Penalty_Charging>
3.81036e-09

> <r_epik_Ionization_Penalty_Neutral>
3.40938e-08

> <r_epik_State_Penalty>
-0

> <r_epik_Charging_Adjusted_Penalty>
3.81036e-09

> <i_epik_Tot_Q>
0

> <i_epik_Tot_abs_Q>
0

> <r_epik_Metal_State_Penalty>
-0

> <b_epik_Metal_Only>
0

> <s_epik_Chemistry_Notes>
This compound contains an acetal/aminal-like group ( X-CH(R)-Y where X, Y are N, S, or O) that may be acid/base labile, releasing an aldehyde.

> <s_lp_Force_Field>
OPLS_2005

> <r_lp_Energy>
33.0069

> <b_lp_Chiralities_Consistent>
1

> <s_lp_Variant>
AV-unprocessed.smi:97-1

> <Gold.Version>
5.8.1

> <Gold.Id.Protein>
6NUR|6NUR_protein|mol2

> <Gold.PLP.Fitness>
57.1517

> <Gold.PLP.PLP>
-54.0781

> <Gold.PLP.part.hbond>
-1.6124

> <Gold.PLP.part.metal>
0.0000

> <Gold.PLP.part.buried>
-4.6323

> <Gold.PLP.part.nonpolar>
-46.7729

> <Gold.PLP.part.repulsive>
0.1510

> <Gold.PLP.ligand.clash>
0.0000

> <Gold.PLP.ligand.torsion>
0.8310

> <Gold.PLP.Chemscore.Hbond>
1.5628

> <Gold.PLP.Chemscore.CHOScore>
0.0000

> <Gold.PLP.Chemscore.Metal>
0.0000

> <Gold.Chemscore.Hbonds>
donor molecule, donor type, donor heavy atom, donor atom, acceptor molecule, acceptor atom, score
      P1  H  6896  6909       L1     1  0.89
      P1  H  7997  8009       L1    17  0.74

> <Gold.PLP.Chemscore.Internal.Correction>
0.0472

> <Gold.Rescore>
     Score         DG    S(hbond)    S(metal)    S(lipo)     H(rot)  DE(clash)    DE(int)     intcor
     16.79     -17.74       1.96        0.00     105.23       2.58       0.06       0.89       ----

> <Gold.Chemscore.Fitness>
16.7937

> <Gold.Chemscore.DG>
-17.7433

> <Gold.Chemscore.ZeroCoef>
-5.4800

> <Gold.Chemscore.Hbond>
1.9631

> <Gold.Chemscore.Metal>
0.0000

> <Gold.Chemscore.Lipo>
105.2272

> <Gold.Chemscore.Internal_Hbond>
0.0000

> <Gold.Chemscore.DEClash>
0.0561

> <Gold.Chemscore.DEInternal>
0.8935

> <Gold.Chemscore.Rot>
2.5801

> <Gold.Chemscore.Internal.Correction>
   9.000000E+99

> <Gold.Chemscore.Hbonds>
donor molecule, donor type, donor heavy atom, donor atom, acceptor molecule, acceptor atom, score
      P1  H  6896  6909       L1     1  0.86
      P1  H  7997  8009       L1    17  0.71

> <Gold.Chemscore.Hbond.Weighted>
-6.5568

> <Gold.Chemscore.Metal.Weighted>
-0.0000

> <Gold.Chemscore.Lipo.Weighted>
-12.3116

> <Gold.Chemscore.Internal_Hbond.Weighted>
0.0000

> <Gold.Chemscore.DEClash.Weighted>
0.0561

> <Gold.Chemscore.DEInternal.Weighted>
0.8935

> <Gold.Chemscore.Rot.Weighted>
6.6050

> <Gold.Chemscore.Internal.Correction.Weighted>
   9.000000E+99

> <Gold.Protein.RotatedTorsions>
[ 6907 6896 6895 6894 ] final  148.80 input  -60.11 | X-H torsion
[ 7974 7965 7964 7962 ] final   46.62 input  175.53 | X-H torsion
[ 8008 7997 7996 7995 ] final  139.84 input   59.86 | X-H torsion
[ 10167 10162 10161 10158 ] final  -56.04 input  -65.29 | X-H torsion
[ 10718 10713 10712 10709 ] final -171.90 input   66.30 | X-H torsion
[ 10763 10752 10751 10750 ] final  -57.63 input  -60.55 | X-H torsion
[ 11005 11000 10999 10996 ] final  -61.63 input  -57.11 | X-H torsion

> <Gold.Protein.ActiveResidues>
 VAL166  LYS551  ARG553  GLY616  TRP617  ASP618  TYR619  PRO620  LYS621  CYS622 
 ASP623  PHE694  ASN695  SER759  ASP760  ASP761  ALA762  ILE779  LEU786  VAL792 
 PHE793  MET794  SER795  GLU796  ALA797  LYS798  CYS799  TRP800  GLU811  SER814 

> <Gold.Protein.RotatedAtoms>
  152.1366  133.4439  159.4746 H   0  0  0  0  0  0  0  0  0  0  0  0  # atno 6907 bound_to 6896
  150.6882  134.2356  159.4461 H   0  0  0  0  0  0  0  0  0  0  0  0  # atno 6908 bound_to 6896
  152.0243  134.9804  160.0622 H   0  0  0  0  0  0  0  0  0  0  0  0  # atno 6909 bound_to 6896
  146.0373  139.4837  142.9800 H   0  0  0  0  0  0  0  0  0  0  0  0  # atno 7974 bound_to 7965
  156.2986  140.2357  156.4302 H   0  0  0  0  0  0  0  0  0  0  0  0  # atno 8008 bound_to 7997
  154.8277  140.0434  157.1475 H   0  0  0  0  0  0  0  0  0  0  0  0  # atno 8009 bound_to 7997
  154.9243  140.3008  155.5203 H   0  0  0  0  0  0  0  0  0  0  0  0  # atno 8010 bound_to 7997
  140.6340  143.2473  151.5167 H   0  0  0  0  0  0  0  0  0  0  0  0  # atno 10167 bound_to 10162
  156.7477  130.9366  151.3113 H   0  0  0  0  0  0  0  0  0  0  0  0  # atno 10718 bound_to 10713
  154.2254  135.6370  153.5158 H   0  0  0  0  0  0  0  0  0  0  0  0  # atno 10763 bound_to 10752
  152.9960  135.5506  154.6070 H   0  0  0  0  0  0  0  0  0  0  0  0  # atno 10764 bound_to 10752
  154.5540  135.2904  155.0956 H   0  0  0  0  0  0  0  0  0  0  0  0  # atno 10765 bound_to 10752
  141.1331  133.6632  156.5404 H   0  0  0  0  0  0  0  0  0  0  0  0  # atno 11005 bound_to 11000
  145.6942  141.0155  143.1539 LP  0  0  0  0  0  0  0  0  0  0  0  0  # atno 17320 bound_to 7965
  144.7058  139.8568  143.7430 LP  0  0  0  0  0  0  0  0  0  0  0  0  # atno 17321 bound_to 7965
  139.5551  144.2295  152.1599 LP  0  0  0  0  0  0  0  0  0  0  0  0  # atno 17342 bound_to 10162
  140.1546  144.5082  150.6667 LP  0  0  0  0  0  0  0  0  0  0  0  0  # atno 17343 bound_to 10162
  157.6791  130.9122  150.0222 LP  0  0  0  0  0  0  0  0  0  0  0  0  # atno 17370 bound_to 10713
  156.1422  130.3642  149.9565 LP  0  0  0  0  0  0  0  0  0  0  0  0  # atno 17371 bound_to 10713
  140.4144  134.7243  157.4854 LP  0  0  0  0  0  0  0  0  0  0  0  0  # atno 17394 bound_to 11000
  140.0404  134.6275  155.8988 LP  0  0  0  0  0  0  0  0  0  0  0  0  # atno 17395 bound_to 11000

$$$$
