AV-unprocessed.smi:2865|AV-procd|sdf|11015|dock10
  -GOLD-   2272015473D 1   1.00000     0.00000
 Structure written by MMmdl.
 38 41  0  0  0  0  0  0  0  0  1 V2000
  146.1508  136.5817  153.2584 O   0  0  0  0  0  0  0  0  0  0  0  0
  145.5308  137.3891  152.5703 C   0  0  0  0  0  0  0  0  0  0  0  0
  145.7727  138.7141  152.5338 N   0  0  0  0  0  0  0  0  0  0  0  0
  146.7940  139.4522  153.1898 C   0  0  0  0  0  0  0  0  0  0  0  0
  146.8169  140.8605  153.3455 C   0  0  0  0  0  0  0  0  0  0  0  0
  147.8188  141.4852  154.0016 N   0  0  0  0  0  0  0  0  0  0  0  0
  148.7941  140.7167  154.4941 C   0  0  0  0  0  0  0  0  0  0  0  0
  149.8801  141.4131  155.2546 C   0  0  0  0  0  0  0  0  0  0  0  0
  150.9985  140.6260  155.9066 C   0  0  0  0  0  0  0  0  0  0  0  0
  149.9649  141.3021  156.7633 C   0  0  0  0  0  0  0  0  0  0  0  0
  148.8674  139.3846  154.4278 N   0  0  0  0  0  0  0  0  0  0  0  0
  147.8699  138.7517  153.7739 C   0  0  0  0  0  0  0  0  0  0  0  0
  144.5048  136.9972  151.7945 N   0  0  0  0  0  0  0  0  0  0  0  0
  143.9833  135.6424  151.6058 C   0  0  2  0  0  0  0  0  0  0  0  0
  143.7342  134.9083  152.9300 C   0  0  0  0  0  0  0  0  0  0  0  0
  144.6337  133.6741  152.7815 C   0  0  1  0  0  0  0  0  0  0  0  0
  144.1070  132.6977  151.7193 C   0  0  0  0  0  0  0  0  0  0  0  0
  144.4212  133.4428  150.4217 C   0  0  0  0  0  0  0  0  0  0  0  0
  145.0448  134.7399  150.9534 C   0  0  2  0  0  0  0  0  0  0  0  0
  145.7308  134.2436  152.0911 O   0  0  0  0  0  0  0  0  0  0  0  0
  145.1293  139.2631  151.9827 H   0  0  0  0  0  0  0  0  0  0  0  0
  146.0367  141.5051  152.9729 H   0  0  0  0  0  0  0  0  0  0  0  0
  150.1309  142.3697  154.8001 H   0  0  0  0  0  0  0  0  0  0  0  0
  150.9616  139.5403  155.8411 H   0  0  0  0  0  0  0  0  0  0  0  0
  151.9957  141.0610  155.8837 H   0  0  0  0  0  0  0  0  0  0  0  0
  150.2701  142.1891  157.3146 H   0  0  0  0  0  0  0  0  0  0  0  0
  149.2405  140.6657  157.2679 H   0  0  0  0  0  0  0  0  0  0  0  0
  147.9318  137.6746  153.7195 H   0  0  0  0  0  0  0  0  0  0  0  0
  144.0138  137.7257  151.2963 H   0  0  0  0  0  0  0  0  0  0  0  0
  143.0868  135.6736  150.9838 H   0  0  0  0  0  0  0  0  0  0  0  0
  144.0516  135.5053  153.7865 H   0  0  0  0  0  0  0  0  0  0  0  0
  142.6863  134.6432  153.0741 H   0  0  0  0  0  0  0  0  0  0  0  0
  144.8947  133.2010  153.7285 H   0  0  0  0  0  0  0  0  0  0  0  0
  144.6492  131.7523  151.7564 H   0  0  0  0  0  0  0  0  0  0  0  0
  143.0440  132.4878  151.8412 H   0  0  0  0  0  0  0  0  0  0  0  0
  145.1423  132.8836  149.8245 H   0  0  0  0  0  0  0  0  0  0  0  0
  143.5369  133.6227  149.8093 H   0  0  0  0  0  0  0  0  0  0  0  0
  145.6825  135.2453  150.2270 H   0  0  0  0  0  0  0  0  0  0  0  0
  1  2  2  0  0  0  0
  2  3  1  0  0  0  0
  2 13  1  0  0  0  0
  3  4  1  0  0  0  0
  3 21  1  0  0  0  0
  4 12  1  0  0  0  0
  4  5  2  0  0  0  0
  5  6  1  0  0  0  0
  5 22  1  0  0  0  0
  6  7  2  0  0  0  0
  7  8  1  0  0  0  0
  7 11  1  0  0  0  0
  8 10  1  0  0  0  0
  8  9  1  0  0  0  0
  8 23  1  0  0  0  0
  9 10  1  0  0  0  0
  9 24  1  0  0  0  0
  9 25  1  0  0  0  0
 10 26  1  0  0  0  0
 10 27  1  0  0  0  0
 11 12  2  0  0  0  0
 12 28  1  0  0  0  0
 13 14  1  0  0  0  0
 13 29  1  0  0  0  0
 14 19  1  0  0  0  0
 14 15  1  0  0  0  0
 14 30  1  0  0  0  0
 15 16  1  0  0  0  0
 15 31  1  0  0  0  0
 15 32  1  0  0  0  0
 16 20  1  0  0  0  0
 16 17  1  0  0  0  0
 16 33  1  0  0  0  0
 17 18  1  0  0  0  0
 17 34  1  0  0  0  0
 17 35  1  0  0  0  0
 18 19  1  0  0  0  0
 18 36  1  0  0  0  0
 18 37  1  0  0  0  0
 19 20  1  0  0  0  0
 19 38  1  0  0  0  0
M  END
> <s_m_source_file>
AV-unprocessed.smi

> <i_m_source_file_index>
2865

> <i_lp_mmshare_version>
43012

> <i_f3d_flags>
0

> <s_epik_input>
W0NIMl0xW0NIMl1bQ0BIXShPMilbQ0BASF0oW0NIMl1bQ0BASF0xMilbTkhdQyg9TylbTkhdYzNbY0hdbmMobltjSF0zKVtDSF00W0NIMl1bQ0gyXTQ=

> <s_epik_cmdline>
J2VwaWtfcHl0aG9uJywgJy1waCcsICc3LjAnLCAnLXRuJywgJzgnLCAnLW1hJywgJzIwMCcsICctbWV0YWxfYmluZGluZycsICctaW1hZScsICc8aW5maWxlLm1hZT4nLCAnLW9tYWUnLCAnPG91dGZpbGUubWFlPic=

> <r_lp_tautomer_probability>
1

> <r_epik_Ionization_Penalty>
2.43104e-05

> <r_epik_Ionization_Penalty_Charging>
0

> <r_epik_Ionization_Penalty_Neutral>
2.43104e-05

> <r_epik_State_Penalty>
-0

> <r_epik_Charging_Adjusted_Penalty>
0

> <i_epik_Tot_Q>
0

> <i_epik_Tot_abs_Q>
0

> <r_epik_Metal_State_Penalty>
-0

> <b_epik_Metal_Only>
0

> <s_lp_Force_Field>
OPLS_2005

> <r_lp_Energy>
45.9934

> <b_lp_Chiralities_Consistent>
1

> <s_lp_Variant>
AV-unprocessed.smi:2865-1

> <Gold.Version>
5.8.1

> <Gold.Id.Protein>
6NUR|6NUR_protein|mol2

> <Gold.PLP.Fitness>
41.7710

> <Gold.PLP.PLP>
-32.8811

> <Gold.PLP.part.hbond>
-2.1455

> <Gold.PLP.part.metal>
0.0000

> <Gold.PLP.part.buried>
-6.0705

> <Gold.PLP.part.nonpolar>
-27.4174

> <Gold.PLP.part.repulsive>
1.1961

> <Gold.PLP.ligand.clash>
0.0000

> <Gold.PLP.ligand.torsion>
0.2369

> <Gold.PLP.Chemscore.Hbond>
1.6160

> <Gold.PLP.Chemscore.CHOScore>
1.4566

> <Gold.PLP.Chemscore.Metal>
0.0000

> <Gold.Chemscore.Hbonds>
donor molecule, donor type, donor heavy atom, donor atom, acceptor molecule, acceptor atom, score
      L1  H     3    21       P1 10175  0.67
      L1  H    13    29       P1 10171  0.93
      L1  C     5    22       P1 10175  0.41
      L1  C    12    28       P1  7948  0.89

> <Gold.PLP.Chemscore.Internal.Correction>
0.1458

> <Gold.Rescore>
     Score         DG    S(hbond)    S(metal)    S(lipo)     H(rot)  DE(clash)    DE(int)     intcor
     10.82     -16.26       1.65        0.00      71.20       1.20       1.09       4.35       ----

> <Gold.Chemscore.Fitness>
10.8236

> <Gold.Chemscore.DG>
-16.2620

> <Gold.Chemscore.ZeroCoef>
-5.4800

> <Gold.Chemscore.Hbond>
1.6547

> <Gold.Chemscore.Metal>
0.0000

> <Gold.Chemscore.Lipo>
71.1995

> <Gold.Chemscore.Internal_Hbond>
0.0000

> <Gold.Chemscore.DEClash>
1.0881

> <Gold.Chemscore.DEInternal>
4.3503

> <Gold.Chemscore.Rot>
1.2012

> <Gold.Chemscore.Internal.Correction>
   9.000000E+99

> <Gold.Chemscore.Hbonds>
donor molecule, donor type, donor heavy atom, donor atom, acceptor molecule, acceptor atom, score
      L1  H     3    21       P1 10175  0.67
      L1  H    13    29       P1 10171  0.90

> <Gold.Chemscore.Hbond.Weighted>
-5.5268

> <Gold.Chemscore.Metal.Weighted>
-0.0000

> <Gold.Chemscore.Lipo.Weighted>
-8.3303

> <Gold.Chemscore.Internal_Hbond.Weighted>
0.0000

> <Gold.Chemscore.DEClash.Weighted>
1.0881

> <Gold.Chemscore.DEInternal.Weighted>
4.3503

> <Gold.Chemscore.Rot.Weighted>
3.0752

> <Gold.Chemscore.Internal.Correction.Weighted>
   9.000000E+99

> <Gold.Protein.RotatedTorsions>
[ 6907 6896 6895 6894 ] final  -78.09 input  -60.11 | X-H torsion
[ 7974 7965 7964 7962 ] final  148.15 input  175.53 | X-H torsion
[ 8008 7997 7996 7995 ] final   98.31 input   59.86 | X-H torsion
[ 10167 10162 10161 10158 ] final -136.28 input  -65.29 | X-H torsion
[ 10718 10713 10712 10709 ] final  109.04 input   66.30 | X-H torsion
[ 10763 10752 10751 10750 ] final -159.58 input  -60.55 | X-H torsion
[ 11005 11000 10999 10996 ] final   -1.48 input  -57.11 | X-H torsion

> <Gold.Protein.ActiveResidues>
 VAL166  LYS551  ARG553  GLY616  TRP617  ASP618  TYR619  PRO620  LYS621  CYS622 
 ASP623  PHE694  ASN695  SER759  ASP760  ASP761  ALA762  ILE779  LEU786  VAL792 
 PHE793  MET794  SER795  GLU796  ALA797  LYS798  CYS799  TRP800  GLU811  SER814 

> <Gold.Protein.RotatedAtoms>
  150.6982  134.4325  159.5254 H   0  0  0  0  0  0  0  0  0  0  0  0  # atno 6907 bound_to 6896
  152.2049  134.8552  160.0513 H   0  0  0  0  0  0  0  0  0  0  0  0  # atno 6908 bound_to 6896
  151.9458  133.3616  159.4019 H   0  0  0  0  0  0  0  0  0  0  0  0  # atno 6909 bound_to 6896
  144.8536  139.6117  143.5962 H   0  0  0  0  0  0  0  0  0  0  0  0  # atno 7974 bound_to 7965
  156.0991  140.3245  155.7918 H   0  0  0  0  0  0  0  0  0  0  0  0  # atno 8008 bound_to 7997
  155.4866  140.0558  157.2977 H   0  0  0  0  0  0  0  0  0  0  0  0  # atno 8009 bound_to 7997
  154.4685  140.2000  156.0070 H   0  0  0  0  0  0  0  0  0  0  0  0  # atno 8010 bound_to 7997
  139.8693  143.6977  152.2641 H   0  0  0  0  0  0  0  0  0  0  0  0  # atno 10167 bound_to 10162
  157.6559  131.0906  150.6395 H   0  0  0  0  0  0  0  0  0  0  0  0  # atno 10718 bound_to 10713
  154.7463  135.3081  154.8639 H   0  0  0  0  0  0  0  0  0  0  0  0  # atno 10763 bound_to 10752
  153.9438  135.6771  153.4748 H   0  0  0  0  0  0  0  0  0  0  0  0  # atno 10764 bound_to 10752
  153.1060  135.4889  154.8877 H   0  0  0  0  0  0  0  0  0  0  0  0  # atno 10765 bound_to 10752
  140.6477  133.9432  155.8362 H   0  0  0  0  0  0  0  0  0  0  0  0  # atno 11005 bound_to 11000
  146.2805  139.6865  142.9232 LP  0  0  0  0  0  0  0  0  0  0  0  0  # atno 17320 bound_to 7965
  145.4450  141.0425  143.2836 LP  0  0  0  0  0  0  0  0  0  0  0  0  # atno 17321 bound_to 7965
  139.7299  144.7584  151.0819 LP  0  0  0  0  0  0  0  0  0  0  0  0  # atno 17342 bound_to 10162
  140.7763  143.5101  150.9663 LP  0  0  0  0  0  0  0  0  0  0  0  0  # atno 17343 bound_to 10162
  156.6701  130.4537  149.5660 LP  0  0  0  0  0  0  0  0  0  0  0  0  # atno 17370 bound_to 10713
  156.2004  130.6616  151.1160 LP  0  0  0  0  0  0  0  0  0  0  0  0  # atno 17371 bound_to 10713
  141.0560  134.0416  157.3722 LP  0  0  0  0  0  0  0  0  0  0  0  0  # atno 17394 bound_to 11000
  139.9057  135.0178  156.7473 LP  0  0  0  0  0  0  0  0  0  0  0  0  # atno 17395 bound_to 11000

$$$$
