AV-unprocessed.smi:424|AV-procd|sdf|2539|dock10
  -GOLD-   2262022503D 1   1.00000     0.00000
 Structure written by MMmdl.
 34 35  0  0  0  0  0  0  0  0  1 V2000
  146.7691  139.0051  152.3187 C   0  0  0  0  0  0  0  0  0  0  0  0
  147.0097  140.5170  152.4589 C   0  0  0  0  0  0  0  0  0  0  0  0
  147.6993  140.9156  153.7686 C   0  0  0  0  0  0  0  0  0  0  0  0
  147.1215  141.6364  154.5823 O   0  0  0  0  0  0  0  0  0  0  0  0
  148.9485  140.4390  153.9210 N   0  0  0  0  0  0  0  0  0  0  0  0
  149.8451  140.6084  155.0117 C   0  0  0  0  0  0  0  0  0  0  0  0
  150.9553  139.7730  155.2766 C   0  0  0  0  0  0  0  0  0  0  0  0
  151.7794  140.0628  156.3810 C   0  0  0  0  0  0  0  0  0  0  0  0
  151.4829  141.1823  157.1936 C   0  0  0  0  0  0  0  0  0  0  0  0
  152.2987  141.4915  158.3038 N   0  0  0  0  0  0  0  0  0  0  0  0
  152.4946  140.4127  159.2692 C   0  0  0  0  0  0  0  0  0  0  0  0
  153.6335  140.7641  160.2422 C   0  0  0  0  0  0  0  0  0  0  0  0
  153.3741  142.0211  160.8585 O   0  0  0  0  0  0  0  0  0  0  0  0
  153.3023  143.0736  159.9028 C   0  0  0  0  0  0  0  0  0  0  0  0
  152.1452  142.8056  158.9257 C   0  0  0  0  0  0  0  0  0  0  0  0
  150.4278  141.9902  156.9261 N   0  0  0  0  0  0  0  0  0  0  0  0
  149.6398  141.7085  155.8677 C   0  0  0  0  0  0  0  0  0  0  0  0
  146.2942  138.7783  151.3641 H   0  0  0  0  0  0  0  0  0  0  0  0
  146.1153  138.6307  153.1073 H   0  0  0  0  0  0  0  0  0  0  0  0
  147.7048  138.4462  152.3613 H   0  0  0  0  0  0  0  0  0  0  0  0
  147.6195  140.8644  151.6239 H   0  0  0  0  0  0  0  0  0  0  0  0
  146.0577  141.0445  152.3925 H   0  0  0  0  0  0  0  0  0  0  0  0
  149.3203  139.9257  153.1349 H   0  0  0  0  0  0  0  0  0  0  0  0
  151.2055  138.9306  154.6514 H   0  0  0  0  0  0  0  0  0  0  0  0
  152.6374  139.4374  156.5771 H   0  0  0  0  0  0  0  0  0  0  0  0
  151.5658  140.2631  159.8213 H   0  0  0  0  0  0  0  0  0  0  0  0
  152.7271  139.4684  158.7793 H   0  0  0  0  0  0  0  0  0  0  0  0
  153.7146  140.0002  161.0156 H   0  0  0  0  0  0  0  0  0  0  0  0
  154.5926  140.7933  159.7226 H   0  0  0  0  0  0  0  0  0  0  0  0
  153.1429  144.0176  160.4240 H   0  0  0  0  0  0  0  0  0  0  0  0
  154.2502  143.1606  159.3689 H   0  0  0  0  0  0  0  0  0  0  0  0
  152.1289  143.5858  158.1637 H   0  0  0  0  0  0  0  0  0  0  0  0
  151.1925  142.8453  159.4557 H   0  0  0  0  0  0  0  0  0  0  0  0
  148.8156  142.3867  155.7014 H   0  0  0  0  0  0  0  0  0  0  0  0
  1  2  1  0  0  0  0
  1 18  1  0  0  0  0
  1 19  1  0  0  0  0
  1 20  1  0  0  0  0
  2  3  1  0  0  0  0
  2 21  1  0  0  0  0
  2 22  1  0  0  0  0
  3  4  2  0  0  0  0
  3  5  1  0  0  0  0
  5  6  1  0  0  0  0
  5 23  1  0  0  0  0
  6 17  1  0  0  0  0
  6  7  2  0  0  0  0
  7  8  1  0  0  0  0
  7 24  1  0  0  0  0
  8  9  2  0  0  0  0
  8 25  1  0  0  0  0
  9 10  1  0  0  0  0
  9 16  1  0  0  0  0
 10 15  1  0  0  0  0
 10 11  1  0  0  0  0
 11 12  1  0  0  0  0
 11 26  1  0  0  0  0
 11 27  1  0  0  0  0
 12 13  1  0  0  0  0
 12 28  1  0  0  0  0
 12 29  1  0  0  0  0
 13 14  1  0  0  0  0
 14 15  1  0  0  0  0
 14 30  1  0  0  0  0
 14 31  1  0  0  0  0
 15 32  1  0  0  0  0
 15 33  1  0  0  0  0
 16 17  2  0  0  0  0
 17 34  1  0  0  0  0
M  END
> <s_m_source_file>
AV-unprocessed.smi

> <i_m_source_file_index>
424

> <i_lp_mmshare_version>
43012

> <i_f3d_flags>
0

> <s_epik_input>
W0NIM11bQ0gyXUMoPU8pW05IXWMxW2NIXVtjSF1jKG5bY0hdMSlOMltDSDJdW0NIMl1PW0NIMl1bQ0gyXTI=

> <s_epik_cmdline>
J2VwaWtfcHl0aG9uJywgJy1waCcsICc3LjAnLCAnLXRuJywgJzgnLCAnLW1hJywgJzIwMCcsICctbWV0YWxfYmluZGluZycsICctaW1hZScsICc8aW5maWxlLm1hZT4nLCAnLW9tYWUnLCAnPG91dGZpbGUubWFlPic=

> <r_lp_tautomer_probability>
1

> <r_epik_Ionization_Penalty>
0.000622595

> <r_epik_Ionization_Penalty_Charging>
0

> <r_epik_Ionization_Penalty_Neutral>
0.000622595

> <r_epik_State_Penalty>
0.000387388

> <r_epik_Charging_Adjusted_Penalty>
0.000387388

> <i_epik_Tot_Q>
0

> <i_epik_Tot_abs_Q>
0

> <r_epik_Metal_State_Penalty>
-0

> <b_epik_Metal_Only>
0

> <s_lp_Force_Field>
OPLS_2005

> <r_lp_Energy>
21.9993

> <b_lp_Chiralities_Consistent>
1

> <s_lp_Variant>
AV-unprocessed.smi:424-1

> <Gold.Version>
5.8.1

> <Gold.Id.Protein>
6NUR|6NUR_protein|mol2

> <Gold.PLP.Fitness>
38.0956

> <Gold.PLP.PLP>
-32.9319

> <Gold.PLP.part.hbond>
-1.0000

> <Gold.PLP.part.metal>
0.0000

> <Gold.PLP.part.buried>
-0.2724

> <Gold.PLP.part.nonpolar>
-30.7581

> <Gold.PLP.part.repulsive>
0.3926

> <Gold.PLP.ligand.clash>
0.0000

> <Gold.PLP.ligand.torsion>
0.2981

> <Gold.PLP.Chemscore.Hbond>
0.8320

> <Gold.PLP.Chemscore.CHOScore>
0.9708

> <Gold.PLP.Chemscore.Metal>
0.0000

> <Gold.Chemscore.Hbonds>
donor molecule, donor type, donor heavy atom, donor atom, acceptor molecule, acceptor atom, score
      L1  H     5    23       P1  7957  0.85
      L1  C    17    34       P1  8028  0.96

> <Gold.PLP.Chemscore.Internal.Correction>
0.3514

> <Gold.Rescore>
     Score         DG    S(hbond)    S(metal)    S(lipo)     H(rot)  DE(clash)    DE(int)     intcor
     13.74     -15.75       0.96        0.00      86.31       1.18       0.34       1.66       ----

> <Gold.Chemscore.Fitness>
13.7447

> <Gold.Chemscore.DG>
-15.7507

> <Gold.Chemscore.ZeroCoef>
-5.4800

> <Gold.Chemscore.Hbond>
0.9597

> <Gold.Chemscore.Metal>
0.0000

> <Gold.Chemscore.Lipo>
86.3113

> <Gold.Chemscore.Internal_Hbond>
0.0000

> <Gold.Chemscore.DEClash>
0.3442

> <Gold.Chemscore.DEInternal>
1.6619

> <Gold.Chemscore.Rot>
1.1848

> <Gold.Chemscore.Internal.Correction>
   9.000000E+99

> <Gold.Chemscore.Hbonds>
donor molecule, donor type, donor heavy atom, donor atom, acceptor molecule, acceptor atom, score
      L1  H     5    23       P1  7957  0.82

> <Gold.Chemscore.Hbond.Weighted>
-3.2054

> <Gold.Chemscore.Metal.Weighted>
-0.0000

> <Gold.Chemscore.Lipo.Weighted>
-10.0984

> <Gold.Chemscore.Internal_Hbond.Weighted>
0.0000

> <Gold.Chemscore.DEClash.Weighted>
0.3442

> <Gold.Chemscore.DEInternal.Weighted>
1.6619

> <Gold.Chemscore.Rot.Weighted>
3.0331

> <Gold.Chemscore.Internal.Correction.Weighted>
   9.000000E+99

> <Gold.Protein.RotatedTorsions>
[ 6907 6896 6895 6894 ] final -152.76 input  -60.11 | X-H torsion
[ 7974 7965 7964 7962 ] final  -53.39 input  175.53 | X-H torsion
[ 8008 7997 7996 7995 ] final -123.60 input   59.86 | X-H torsion
[ 10167 10162 10161 10158 ] final  -42.47 input  -65.29 | X-H torsion
[ 10718 10713 10712 10709 ] final -122.52 input   66.30 | X-H torsion
[ 10763 10752 10751 10750 ] final  175.78 input  -60.55 | X-H torsion
[ 11005 11000 10999 10996 ] final  -89.56 input  -57.11 | X-H torsion

> <Gold.Protein.ActiveResidues>
 VAL166  LYS551  ARG553  GLY616  TRP617  ASP618  TYR619  PRO620  LYS621  CYS622 
 ASP623  PHE694  ASN695  SER759  ASP760  ASP761  ALA762  ILE779  LEU786  VAL792 
 PHE793  MET794  SER795  GLU796  ALA797  LYS798  CYS799  TRP800  GLU811  SER814 

> <Gold.Protein.RotatedAtoms>
  151.2325  133.4443  159.2604 H   0  0  0  0  0  0  0  0  0  0  0  0  # atno 6907 bound_to 6896
  151.0781  134.9841  159.8352 H   0  0  0  0  0  0  0  0  0  0  0  0  # atno 6908 bound_to 6896
  152.5421  134.2266  159.8861 H   0  0  0  0  0  0  0  0  0  0  0  0  # atno 6909 bound_to 6896
  145.8974  140.8022  142.9761 H   0  0  0  0  0  0  0  0  0  0  0  0  # atno 7974 bound_to 7965
  155.1832  140.0411  157.2886 H   0  0  0  0  0  0  0  0  0  0  0  0  # atno 8008 bound_to 7997
  154.6189  140.2496  155.7546 H   0  0  0  0  0  0  0  0  0  0  0  0  # atno 8009 bound_to 7997
  156.2422  140.2899  156.0488 H   0  0  0  0  0  0  0  0  0  0  0  0  # atno 8010 bound_to 7997
  140.6968  143.3036  151.3213 H   0  0  0  0  0  0  0  0  0  0  0  0  # atno 10167 bound_to 10162
  156.1425  130.6476  150.9793 H   0  0  0  0  0  0  0  0  0  0  0  0  # atno 10718 bound_to 10713
  154.4723  135.2771  155.1633 H   0  0  0  0  0  0  0  0  0  0  0  0  # atno 10763 bound_to 10752
  154.3377  135.6176  153.5585 H   0  0  0  0  0  0  0  0  0  0  0  0  # atno 10764 bound_to 10752
  152.9865  135.5781  154.5107 H   0  0  0  0  0  0  0  0  0  0  0  0  # atno 10765 bound_to 10752
  141.1582  133.7638  156.9613 H   0  0  0  0  0  0  0  0  0  0  0  0  # atno 11005 bound_to 11000
  144.6733  140.1623  143.7421 LP  0  0  0  0  0  0  0  0  0  0  0  0  # atno 17320 bound_to 7965
  145.8833  139.2335  143.1592 LP  0  0  0  0  0  0  0  0  0  0  0  0  # atno 17321 bound_to 7965
  139.6433  144.0498  152.2571 LP  0  0  0  0  0  0  0  0  0  0  0  0  # atno 17342 bound_to 10162
  140.0010  144.6293  150.7729 LP  0  0  0  0  0  0  0  0  0  0  0  0  # atno 17343 bound_to 10162
  157.6588  131.0884  150.7886 LP  0  0  0  0  0  0  0  0  0  0  0  0  # atno 17370 bound_to 10713
  156.7960  130.4905  149.5377 LP  0  0  0  0  0  0  0  0  0  0  0  0  # atno 17371 bound_to 10713
  140.1191  134.9428  157.2177 LP  0  0  0  0  0  0  0  0  0  0  0  0  # atno 17394 bound_to 11000
  140.3095  134.3040  155.7270 LP  0  0  0  0  0  0  0  0  0  0  0  0  # atno 17395 bound_to 11000

$$$$
