AV-unprocessed.smi:3117|AV-procd|sdf|11879|dock3
  -GOLD-   2272017263D 1   1.00000     0.00000
 Structure written by MMmdl.
 37 37  0  0  0  0  0  0  0  0  2 V2000
  150.0207  141.3441  158.2823 C   0  0  0  0  0  0  0  0  0  0  0  0
  151.0454  142.3455  157.7189 C   0  0  1  0  0  0  0  0  0  0  0  0
  150.6842  142.6587  156.3180 N   0  3  0  0  0  0  0  0  0  0  0  0
  150.3960  141.4808  155.4706 C   0  0  0  0  0  0  0  0  0  0  0  0
  148.9533  141.4914  154.9224 C   0  0  0  0  0  0  0  0  0  0  0  0
  148.7195  140.2714  154.0157 C   0  0  0  0  0  0  0  0  0  0  0  0
  147.8986  141.5324  156.0436 C   0  0  0  0  0  0  0  0  0  0  0  0
  148.7953  142.6403  154.1122 O   0  0  0  0  0  0  0  0  0  0  0  0
  151.1468  143.6464  158.5607 C   0  0  2  0  0  0  0  0  0  0  0  0
  151.9504  144.7578  157.8577 C   0  0  0  0  0  0  0  0  0  0  0  0
  151.7001  143.3954  159.8859 N   0  0  0  0  0  0  0  0  0  0  0  0
  151.8391  144.2789  160.9369 C   0  0  0  0  0  0  0  0  0  0  0  0
  152.4057  143.5946  161.9741 C   0  0  0  0  0  0  0  0  0  0  0  0
  152.5838  142.2817  161.4561 C   0  0  0  0  0  0  0  0  0  0  0  0
  152.1609  142.1653  160.2079 N   0  0  0  0  0  0  0  0  0  0  0  0
  150.2950  140.9995  159.2795 H   0  0  0  0  0  0  0  0  0  0  0  0
  149.9507  140.4592  157.6488 H   0  0  0  0  0  0  0  0  0  0  0  0
  149.0262  141.7870  158.3450 H   0  0  0  0  0  0  0  0  0  0  0  0
  152.0166  141.8471  157.7309 H   0  0  0  0  0  0  0  0  0  0  0  0
  149.8630  143.2462  156.3240 H   0  0  0  0  0  0  0  0  0  0  0  0
  151.1070  141.4537  154.6436 H   0  0  0  0  0  0  0  0  0  0  0  0
  150.5636  140.5773  156.0588 H   0  0  0  0  0  0  0  0  0  0  0  0
  148.8233  139.3401  154.5736 H   0  0  0  0  0  0  0  0  0  0  0  0
  149.4347  140.2421  153.1926 H   0  0  0  0  0  0  0  0  0  0  0  0
  147.7192  140.2825  153.5810 H   0  0  0  0  0  0  0  0  0  0  0  0
  147.9919  140.6683  156.7022 H   0  0  0  0  0  0  0  0  0  0  0  0
  146.8869  141.5247  155.6358 H   0  0  0  0  0  0  0  0  0  0  0  0
  147.9924  142.4276  156.6590 H   0  0  0  0  0  0  0  0  0  0  0  0
  148.5247  143.3615  154.6604 H   0  0  0  0  0  0  0  0  0  0  0  0
  150.1345  144.0244  158.7141 H   0  0  0  0  0  0  0  0  0  0  0  0
  151.4731  145.0728  156.9296 H   0  0  0  0  0  0  0  0  0  0  0  0
  152.9618  144.4295  157.6163 H   0  0  0  0  0  0  0  0  0  0  0  0
  152.0319  145.6411  158.4919 H   0  0  0  0  0  0  0  0  0  0  0  0
  151.5258  145.3097  160.8620 H   0  0  0  0  0  0  0  0  0  0  0  0
  152.6565  143.9742  162.9536 H   0  0  0  0  0  0  0  0  0  0  0  0
  153.0042  141.4157  161.9459 H   0  0  0  0  0  0  0  0  0  0  0  0
  151.4435  143.1763  155.8983 H   0  0  0  0  0  0  0  0  0  0  0  0
  1  2  1  0  0  0  0
  1 16  1  0  0  0  0
  1 17  1  0  0  0  0
  1 18  1  0  0  0  0
  2  3  1  0  0  0  0
  2  9  1  0  0  0  0
  2 19  1  0  0  0  0
  3  4  1  0  0  0  0
  3 20  1  0  0  0  0
  3 37  1  0  0  0  0
  4  5  1  0  0  0  0
  4 21  1  0  0  0  0
  4 22  1  0  0  0  0
  5  6  1  0  0  0  0
  5  7  1  0  0  0  0
  5  8  1  0  0  0  0
  6 23  1  0  0  0  0
  6 24  1  0  0  0  0
  6 25  1  0  0  0  0
  7 26  1  0  0  0  0
  7 27  1  0  0  0  0
  7 28  1  0  0  0  0
  8 29  1  0  0  0  0
  9 10  1  0  0  0  0
  9 11  1  0  0  0  0
  9 30  1  0  0  0  0
 10 31  1  0  0  0  0
 10 32  1  0  0  0  0
 10 33  1  0  0  0  0
 11 15  1  0  0  0  0
 11 12  1  0  0  0  0
 12 13  2  0  0  0  0
 12 34  1  0  0  0  0
 13 14  1  0  0  0  0
 13 35  1  0  0  0  0
 14 15  2  0  0  0  0
 14 36  1  0  0  0  0
M  CHG  1   3   1
M  END
> <s_m_source_file>
AV-unprocessed.smi

> <i_m_source_file_index>
3117

> <i_lp_mmshare_version>
43012

> <i_f3d_flags>
0

> <s_epik_input>
W0NIM11DKFtDSDNdKShbT0hdKVtDSDJdW05IXVtDQEBIXShbQ0gzXSlbQ0BIXShbQ0gzXSluMVtjSF1bY0hdW2NIXW4x

> <s_epik_cmdline>
J2VwaWtfcHl0aG9uJywgJy1waCcsICc3LjAnLCAnLXRuJywgJzgnLCAnLW1hJywgJzIwMCcsICctbWV0YWxfYmluZGluZycsICctaW1hZScsICc8aW5maWxlLm1hZT4nLCAnLW9tYWUnLCAnPG91dGZpbGUubWFlPic=

> <r_lp_tautomer_probability>
1

> <r_epik_Ionization_Penalty>
0.0164263

> <r_epik_Ionization_Penalty_Charging>
0.0164138

> <r_epik_Ionization_Penalty_Neutral>
1.24697e-05

> <r_epik_State_Penalty>
0.0129543

> <r_epik_Charging_Adjusted_Penalty>
0.0293681

> <i_epik_Tot_Q>
1

> <i_epik_Tot_abs_Q>
1

> <r_epik_Metal_State_Penalty>
0.0129806

> <b_epik_Metal_Only>
0

> <s_lp_Force_Field>
OPLS_2005

> <r_lp_Energy>
13.915

> <b_lp_Chiralities_Consistent>
1

> <s_lp_Variant>
AV-unprocessed.smi:3117-2

> <Gold.Version>
5.8.1

> <Gold.Id.Protein>
6NUR|6NUR_protein|mol2

> <Gold.PLP.Fitness>
45.9504

> <Gold.PLP.PLP>
-37.5515

> <Gold.PLP.part.hbond>
-3.1184

> <Gold.PLP.part.metal>
0.0000

> <Gold.PLP.part.buried>
-4.1930

> <Gold.PLP.part.nonpolar>
-29.3884

> <Gold.PLP.part.repulsive>
0.1038

> <Gold.PLP.ligand.clash>
0.0000

> <Gold.PLP.ligand.torsion>
0.5660

> <Gold.PLP.Chemscore.Hbond>
3.1440

> <Gold.PLP.Chemscore.CHOScore>
0.0000

> <Gold.PLP.Chemscore.Metal>
0.0000

> <Gold.Chemscore.Hbonds>
donor molecule, donor type, donor heavy atom, donor atom, acceptor molecule, acceptor atom, score
      L1  H     3    20       P1  8028  2.00
      L1  H     8    29       P1  8028  1.00
      P1  H  8011  8017       L1     8  0.06

> <Gold.PLP.Chemscore.Internal.Correction>
0.0989

> <Gold.Rescore>
     Score         DG    S(hbond)    S(metal)    S(lipo)     H(rot)  DE(clash)    DE(int)     intcor
     15.97     -17.86       2.03        0.00      97.68       2.27       0.37       1.53       ----

> <Gold.Chemscore.Fitness>
15.9693

> <Gold.Chemscore.DG>
-17.8620

> <Gold.Chemscore.ZeroCoef>
-5.4800

> <Gold.Chemscore.Hbond>
2.0273

> <Gold.Chemscore.Metal>
0.0000

> <Gold.Chemscore.Lipo>
97.6801

> <Gold.Chemscore.Internal_Hbond>
0.0000

> <Gold.Chemscore.DEClash>
0.3663

> <Gold.Chemscore.DEInternal>
1.5264

> <Gold.Chemscore.Rot>
2.2725

> <Gold.Chemscore.Internal.Correction>
   9.000000E+99

> <Gold.Chemscore.Hbonds>
donor molecule, donor type, donor heavy atom, donor atom, acceptor molecule, acceptor atom, score
      L1  H     3    20       P1  8028  0.95
      L1  H     8    29       P1  8028  0.96
      P1  H  8011  8017       L1     8  0.07

> <Gold.Chemscore.Hbond.Weighted>
-6.7710

> <Gold.Chemscore.Metal.Weighted>
-0.0000

> <Gold.Chemscore.Lipo.Weighted>
-11.4286

> <Gold.Chemscore.Internal_Hbond.Weighted>
0.0000

> <Gold.Chemscore.DEClash.Weighted>
0.3663

> <Gold.Chemscore.DEInternal.Weighted>
1.5264

> <Gold.Chemscore.Rot.Weighted>
5.8176

> <Gold.Chemscore.Internal.Correction.Weighted>
   9.000000E+99

> <Gold.Protein.RotatedTorsions>
[ 6907 6896 6895 6894 ] final  137.66 input  -60.11 | X-H torsion
[ 7974 7965 7964 7962 ] final -123.60 input  175.53 | X-H torsion
[ 8008 7997 7996 7995 ] final  -49.17 input   59.86 | X-H torsion
[ 10167 10162 10161 10158 ] final   52.88 input  -65.29 | X-H torsion
[ 10718 10713 10712 10709 ] final   40.08 input   66.30 | X-H torsion
[ 10763 10752 10751 10750 ] final   23.62 input  -60.55 | X-H torsion
[ 11005 11000 10999 10996 ] final -172.89 input  -57.11 | X-H torsion

> <Gold.Protein.ActiveResidues>
 VAL166  LYS551  ARG553  GLY616  TRP617  ASP618  TYR619  PRO620  LYS621  CYS622 
 ASP623  PHE694  ASN695  SER759  ASP760  ASP761  ALA762  ILE779  LEU786  VAL792 
 PHE793  MET794  SER795  GLU796  ALA797  LYS798  CYS799  TRP800  GLU811  SER814 

> <Gold.Protein.RotatedAtoms>
  152.2755  133.5421  159.5465 H   0  0  0  0  0  0  0  0  0  0  0  0  # atno 6907 bound_to 6896
  150.7175  134.0638  159.3849 H   0  0  0  0  0  0  0  0  0  0  0  0  # atno 6908 bound_to 6896
  151.8551  135.0544  160.0514 H   0  0  0  0  0  0  0  0  0  0  0  0  # atno 6909 bound_to 6896
  145.0170  140.7955  143.4404 H   0  0  0  0  0  0  0  0  0  0  0  0  # atno 7974 bound_to 7965
  154.4040  140.1303  156.4459 H   0  0  0  0  0  0  0  0  0  0  0  0  # atno 8008 bound_to 7997
  155.7414  140.3490  155.5086 H   0  0  0  0  0  0  0  0  0  0  0  0  # atno 8009 bound_to 7997
  155.9036  140.1023  157.1322 H   0  0  0  0  0  0  0  0  0  0  0  0  # atno 8010 bound_to 7997
  140.2467  144.3524  150.6362 H   0  0  0  0  0  0  0  0  0  0  0  0  # atno 10167 bound_to 10162
  157.3780  130.7737  149.7170 H   0  0  0  0  0  0  0  0  0  0  0  0  # atno 10718 bound_to 10713
  153.0824  135.6623  154.0017 H   0  0  0  0  0  0  0  0  0  0  0  0  # atno 10763 bound_to 10752
  153.9635  135.2971  155.3433 H   0  0  0  0  0  0  0  0  0  0  0  0  # atno 10764 bound_to 10752
  154.7226  135.5158  153.8908 H   0  0  0  0  0  0  0  0  0  0  0  0  # atno 10765 bound_to 10752
  140.4919  134.5976  157.4958 H   0  0  0  0  0  0  0  0  0  0  0  0  # atno 11005 bound_to 11000
  145.1947  139.2283  143.5224 LP  0  0  0  0  0  0  0  0  0  0  0  0  # atno 17320 bound_to 7965
  146.3479  140.1751  142.8589 LP  0  0  0  0  0  0  0  0  0  0  0  0  # atno 17321 bound_to 7965
  140.6072  143.2168  151.6958 LP  0  0  0  0  0  0  0  0  0  0  0  0  # atno 17342 bound_to 10162
  139.5059  144.3700  152.0480 LP  0  0  0  0  0  0  0  0  0  0  0  0  # atno 17343 bound_to 10162
  155.9769  130.4069  150.3745 LP  0  0  0  0  0  0  0  0  0  0  0  0  # atno 17370 bound_to 10713
  157.1845  131.0400  151.2731 LP  0  0  0  0  0  0  0  0  0  0  0  0  # atno 17371 bound_to 10713
  139.9764  134.7209  155.9942 LP  0  0  0  0  0  0  0  0  0  0  0  0  # atno 17394 bound_to 11000
  141.1479  133.6553  156.3924 LP  0  0  0  0  0  0  0  0  0  0  0  0  # atno 17395 bound_to 11000

$$$$
