AV-unprocessed.smi:3181|AV-procd|sdf|12148|dock5
  -GOLD-   2272017583D 1   1.00000     0.00000
 Structure written by MMmdl.
 42 43  0  0  0  0  0  0  0  0  2 V2000
  145.6603  135.9008  150.6231 C   0  0  0  0  0  0  0  0  0  0  0  0
  145.4101  135.3069  152.0190 C   0  0  1  0  0  0  0  0  0  0  0  0
  144.2951  134.2382  152.0103 C   0  0  0  0  0  0  0  0  0  0  0  0
  144.6995  133.0063  151.3590 N   0  0  0  0  0  0  0  0  0  0  0  0
  144.1724  132.3579  150.3188 C   0  0  0  0  0  0  0  0  0  0  0  0
  144.8247  131.2510  149.9928 N   0  0  0  0  0  0  0  0  0  0  0  0
  145.8167  131.2844  150.9321 C   0  0  0  0  0  0  0  0  0  0  0  0
  145.7892  132.3185  151.7733 N   0  0  0  0  0  0  0  0  0  0  0  0
  146.6687  134.7283  152.5425 N   0  3  0  0  0  0  0  0  0  0  0  0
  146.7440  134.5441  154.0107 C   0  0  2  0  0  0  0  0  0  0  0  0
  146.9272  135.9116  154.6927 C   0  0  0  0  0  0  0  0  0  0  0  0
  147.0414  135.7733  156.2200 C   0  0  0  0  0  0  0  0  0  0  0  0
  148.1792  134.8195  156.6371 C   0  0  2  0  0  0  0  0  0  0  0  0
  149.5664  135.4543  156.4123 C   0  0  0  0  0  0  0  0  0  0  0  0
  147.9927  133.4427  155.9503 C   0  0  2  0  0  0  0  0  0  0  0  0
  149.0600  132.4122  156.3544 C   0  0  0  0  0  0  0  0  0  0  0  0
  147.8771  133.5774  154.4181 C   0  0  0  0  0  0  0  0  0  0  0  0
  144.7726  136.4013  150.2355 H   0  0  0  0  0  0  0  0  0  0  0  0
  145.9457  135.1288  149.9077 H   0  0  0  0  0  0  0  0  0  0  0  0
  146.4605  136.6412  150.6505 H   0  0  0  0  0  0  0  0  0  0  0  0
  145.1034  136.1297  152.6667 H   0  0  0  0  0  0  0  0  0  0  0  0
  143.9926  134.0023  153.0316 H   0  0  0  0  0  0  0  0  0  0  0  0
  143.4037  134.6077  151.5030 H   0  0  0  0  0  0  0  0  0  0  0  0
  143.2926  132.6987  149.7925 H   0  0  0  0  0  0  0  0  0  0  0  0
  146.5816  130.5247  150.9979 H   0  0  0  0  0  0  0  0  0  0  0  0
  146.8458  133.8459  152.0841 H   0  0  0  0  0  0  0  0  0  0  0  0
  145.7909  134.1311  154.3456 H   0  0  0  0  0  0  0  0  0  0  0  0
  147.8158  136.4080  154.3007 H   0  0  0  0  0  0  0  0  0  0  0  0
  146.0855  136.5620  154.4514 H   0  0  0  0  0  0  0  0  0  0  0  0
  147.1858  136.7548  156.6733 H   0  0  0  0  0  0  0  0  0  0  0  0
  146.0961  135.3974  156.6139 H   0  0  0  0  0  0  0  0  0  0  0  0
  148.0844  134.6646  157.7129 H   0  0  0  0  0  0  0  0  0  0  0  0
  149.7914  135.5921  155.3553 H   0  0  0  0  0  0  0  0  0  0  0  0
  150.3593  134.8429  156.8423 H   0  0  0  0  0  0  0  0  0  0  0  0
  149.6280  136.4322  156.8903 H   0  0  0  0  0  0  0  0  0  0  0  0
  147.0403  133.0445  156.3042 H   0  0  0  0  0  0  0  0  0  0  0  0
  150.0437  132.6739  155.9642 H   0  0  0  0  0  0  0  0  0  0  0  0
  148.8105  131.4226  155.9710 H   0  0  0  0  0  0  0  0  0  0  0  0
  149.1391  132.3326  157.4390 H   0  0  0  0  0  0  0  0  0  0  0  0
  147.6912  132.5898  153.9956 H   0  0  0  0  0  0  0  0  0  0  0  0
  148.8254  133.9152  153.9985 H   0  0  0  0  0  0  0  0  0  0  0  0
  147.4106  135.3664  152.2924 H   0  0  0  0  0  0  0  0  0  0  0  0
  1  2  1  0  0  0  0
  1 18  1  0  0  0  0
  1 19  1  0  0  0  0
  1 20  1  0  0  0  0
  2  3  1  0  0  0  0
  2  9  1  0  0  0  0
  2 21  1  0  0  0  0
  3  4  1  0  0  0  0
  3 22  1  0  0  0  0
  3 23  1  0  0  0  0
  4  8  1  0  0  0  0
  4  5  1  0  0  0  0
  5  6  2  0  0  0  0
  5 24  1  0  0  0  0
  6  7  1  0  0  0  0
  7  8  2  0  0  0  0
  7 25  1  0  0  0  0
  9 10  1  0  0  0  0
  9 26  1  0  0  0  0
  9 42  1  0  0  0  0
 10 17  1  0  0  0  0
 10 11  1  0  0  0  0
 10 27  1  0  0  0  0
 11 12  1  0  0  0  0
 11 28  1  0  0  0  0
 11 29  1  0  0  0  0
 12 13  1  0  0  0  0
 12 30  1  0  0  0  0
 12 31  1  0  0  0  0
 13 14  1  0  0  0  0
 13 15  1  0  0  0  0
 13 32  1  0  0  0  0
 14 33  1  0  0  0  0
 14 34  1  0  0  0  0
 14 35  1  0  0  0  0
 15 16  1  0  0  0  0
 15 17  1  0  0  0  0
 15 36  1  0  0  0  0
 16 37  1  0  0  0  0
 16 38  1  0  0  0  0
 16 39  1  0  0  0  0
 17 40  1  0  0  0  0
 17 41  1  0  0  0  0
M  CHG  1   9   1
M  END
> <s_m_source_file>
AV-unprocessed.smi

> <i_m_source_file_index>
3181

> <i_lp_mmshare_version>
43012

> <i_f3d_flags>
0

> <s_epik_input>
bjFbY0hdbltjSF1uMVtDSDJdW0NAQEhdKFtDSDNdKVtOSF1bQ0BASF0yW0NIMl1bQ0gyXVtDQEBIXShbQ0gzXSlbQ0BASF0oW0NIM10pW0NIMl0y

> <s_epik_cmdline>
J2VwaWtfcHl0aG9uJywgJy1waCcsICc3LjAnLCAnLXRuJywgJzgnLCAnLW1hJywgJzIwMCcsICctbWV0YWxfYmluZGluZycsICctaW1hZScsICc8aW5maWxlLm1hZT4nLCAnLW9tYWUnLCAnPG91dGZpbGUubWFlPic=

> <r_lp_tautomer_probability>
1

> <r_epik_Ionization_Penalty>
0.000617007

> <r_epik_Ionization_Penalty_Charging>
0.000616215

> <r_epik_Ionization_Penalty_Neutral>
7.92544e-07

> <r_epik_State_Penalty>
0.000388807

> <r_epik_Charging_Adjusted_Penalty>
0.00100502

> <i_epik_Tot_Q>
1

> <i_epik_Tot_abs_Q>
1

> <r_epik_Metal_State_Penalty>
-0

> <b_epik_Metal_Only>
0

> <s_lp_Force_Field>
OPLS_2005

> <r_lp_Energy>
20.8152

> <b_lp_Chiralities_Consistent>
1

> <s_lp_Variant>
AV-unprocessed.smi:3181-14

> <Gold.Version>
5.8.1

> <Gold.Id.Protein>
6NUR|6NUR_protein|mol2

> <Gold.PLP.Fitness>
42.5656

> <Gold.PLP.PLP>
-31.5314

> <Gold.PLP.part.hbond>
-2.8247

> <Gold.PLP.part.metal>
0.0000

> <Gold.PLP.part.buried>
-3.6774

> <Gold.PLP.part.nonpolar>
-26.0248

> <Gold.PLP.part.repulsive>
0.5711

> <Gold.PLP.ligand.clash>
0.0000

> <Gold.PLP.ligand.torsion>
0.3382

> <Gold.PLP.Chemscore.Hbond>
2.0000

> <Gold.PLP.Chemscore.CHOScore>
1.8957

> <Gold.PLP.Chemscore.Metal>
0.0000

> <Gold.Chemscore.Hbonds>
donor molecule, donor type, donor heavy atom, donor atom, acceptor molecule, acceptor atom, score
      L1  H     9    42       P1  7948  2.00
      P1  H 10785 10796       L1     6  0.08
      L1  C     5    24       P1 10186  0.15
      L1  C     7    25       P1 10747  0.90

> <Gold.PLP.Chemscore.Internal.Correction>
0.0234

> <Gold.Rescore>
     Score         DG    S(hbond)    S(metal)    S(lipo)     H(rot)  DE(clash)    DE(int)     intcor
     11.28     -11.53       1.60        0.00      52.06       2.11       0.03       0.22       ----

> <Gold.Chemscore.Fitness>
11.2771

> <Gold.Chemscore.DG>
-11.5305

> <Gold.Chemscore.ZeroCoef>
-5.4800

> <Gold.Chemscore.Hbond>
1.6048

> <Gold.Chemscore.Metal>
0.0000

> <Gold.Chemscore.Lipo>
52.0593

> <Gold.Chemscore.Internal_Hbond>
0.0000

> <Gold.Chemscore.DEClash>
0.0330

> <Gold.Chemscore.DEInternal>
0.2204

> <Gold.Chemscore.Rot>
2.1095

> <Gold.Chemscore.Internal.Correction>
   9.000000E+99

> <Gold.Chemscore.Hbonds>
donor molecule, donor type, donor heavy atom, donor atom, acceptor molecule, acceptor atom, score
      L1  H     9    42       P1  7948  1.00
      P1  H 10785 10796       L1     6  0.03

> <Gold.Chemscore.Hbond.Weighted>
-5.3599

> <Gold.Chemscore.Metal.Weighted>
-0.0000

> <Gold.Chemscore.Lipo.Weighted>
-6.0909

> <Gold.Chemscore.Internal_Hbond.Weighted>
0.0000

> <Gold.Chemscore.DEClash.Weighted>
0.0330

> <Gold.Chemscore.DEInternal.Weighted>
0.2204

> <Gold.Chemscore.Rot.Weighted>
5.4003

> <Gold.Chemscore.Internal.Correction.Weighted>
   9.000000E+99

> <Gold.Protein.RotatedTorsions>
[ 6907 6896 6895 6894 ] final  -12.02 input  -60.11 | X-H torsion
[ 7974 7965 7964 7962 ] final  -20.53 input  175.53 | X-H torsion
[ 8008 7997 7996 7995 ] final -131.95 input   59.86 | X-H torsion
[ 10167 10162 10161 10158 ] final -106.72 input  -65.29 | X-H torsion
[ 10718 10713 10712 10709 ] final  152.17 input   66.30 | X-H torsion
[ 10763 10752 10751 10750 ] final    0.41 input  -60.55 | X-H torsion
[ 11005 11000 10999 10996 ] final -108.60 input  -57.11 | X-H torsion

> <Gold.Protein.ActiveResidues>
 VAL166  LYS551  ARG553  GLY616  TRP617  ASP618  TYR619  PRO620  LYS621  CYS622 
 ASP623  PHE694  ASN695  SER759  ASP760  ASP761  ALA762  ILE779  LEU786  VAL792 
 PHE793  MET794  SER795  GLU796  ALA797  LYS798  CYS799  TRP800  GLU811  SER814 

> <Gold.Protein.RotatedAtoms>
  151.3771  135.0933  159.9483 H   0  0  0  0  0  0  0  0  0  0  0  0  # atno 6907 bound_to 6896
  152.5119  133.9108  159.7497 H   0  0  0  0  0  0  0  0  0  0  0  0  # atno 6908 bound_to 6896
  150.9533  133.6470  159.2797 H   0  0  0  0  0  0  0  0  0  0  0  0  # atno 6909 bound_to 6896
  146.1783  140.4215  142.8505 H   0  0  0  0  0  0  0  0  0  0  0  0  # atno 7974 bound_to 7965
  155.3208  140.0462  157.3039 H   0  0  0  0  0  0  0  0  0  0  0  0  # atno 8008 bound_to 7997
  154.5381  140.2279  155.8654 H   0  0  0  0  0  0  0  0  0  0  0  0  # atno 8009 bound_to 7997
  156.1854  140.3063  155.9235 H   0  0  0  0  0  0  0  0  0  0  0  0  # atno 8010 bound_to 7997
  140.1847  143.3939  152.1254 H   0  0  0  0  0  0  0  0  0  0  0  0  # atno 10167 bound_to 10162
  157.2612  131.0798  151.1664 H   0  0  0  0  0  0  0  0  0  0  0  0  # atno 10718 bound_to 10713
  153.3210  135.6969  153.7031 H   0  0  0  0  0  0  0  0  0  0  0  0  # atno 10763 bound_to 10752
  153.5871  135.3487  155.2897 H   0  0  0  0  0  0  0  0  0  0  0  0  # atno 10764 bound_to 10752
  154.8597  135.4309  154.2374 H   0  0  0  0  0  0  0  0  0  0  0  0  # atno 10765 bound_to 10752
  141.0893  133.9084  157.2113 H   0  0  0  0  0  0  0  0  0  0  0  0  # atno 11005 bound_to 11000
  144.8272  140.6648  143.6314 LP  0  0  0  0  0  0  0  0  0  0  0  0  # atno 17320 bound_to 7965
  145.4150  139.1573  143.4105 LP  0  0  0  0  0  0  0  0  0  0  0  0  # atno 17321 bound_to 7965
  139.5281  144.7127  151.5155 LP  0  0  0  0  0  0  0  0  0  0  0  0  # atno 17342 bound_to 10162
  140.6496  143.8724  150.6772 LP  0  0  0  0  0  0  0  0  0  0  0  0  # atno 17343 bound_to 10162
  157.3173  130.6919  149.6249 LP  0  0  0  0  0  0  0  0  0  0  0  0  # atno 17370 bound_to 10713
  155.9664  130.4346  150.5055 LP  0  0  0  0  0  0  0  0  0  0  0  0  # atno 17371 bound_to 10713
  139.9716  135.0126  156.9526 LP  0  0  0  0  0  0  0  0  0  0  0  0  # atno 17394 bound_to 11000
  140.5290  134.0832  155.7311 LP  0  0  0  0  0  0  0  0  0  0  0  0  # atno 17395 bound_to 11000

$$$$
