AV-unprocessed.smi:1946|AV-procd|sdf|7864|dock7
  -GOLD-   2272010 13D 1   1.00000     0.00000
 Structure written by MMmdl.
 39 41  0  0  0  0  0  0  0  0  2 V2000
  137.8383  140.4203  153.0257 C   0  0  0  0  0  0  0  0  0  0  0  0
  137.6860  139.3651  154.5237 S   0  0  0  0  0  0  0  0  0  0  0  0
  137.8641  140.2221  155.7062 O   0  0  0  0  0  0  0  0  0  0  0  0
  136.4654  138.5551  154.3885 O   0  0  0  0  0  0  0  0  0  0  0  0
  139.0956  138.2696  154.4127 C   0  0  0  0  0  0  0  0  0  0  0  0
  138.9176  136.9477  153.9593 C   0  0  0  0  0  0  0  0  0  0  0  0
  140.0327  136.0958  153.8422 C   0  0  0  0  0  0  0  0  0  0  0  0
  141.3253  136.5637  154.1681 C   0  0  0  0  0  0  0  0  0  0  0  0
  142.5353  135.6501  154.0316 C   0  0  1  0  0  0  0  0  0  0  0  0
  142.4814  134.5617  154.9294 O   0  0  0  0  0  0  0  0  0  0  0  0
  142.6894  135.0862  152.6047 C   0  0  0  0  0  0  0  0  0  0  0  0
  144.0939  134.9342  152.2044 N   0  0  0  0  0  0  0  0  0  0  0  0
  145.1807  135.6860  152.5292 C   0  0  0  0  0  0  0  0  0  0  0  0
  146.2622  135.1313  151.9148 N   0  3  0  0  0  0  0  0  0  0  0  0
  145.8597  134.0110  151.1840 C   0  0  0  0  0  0  0  0  0  0  0  0
  146.5894  133.1240  150.3987 C   0  0  0  0  0  0  0  0  0  0  0  0
  145.8665  132.0793  149.7856 C   0  0  0  0  0  0  0  0  0  0  0  0
  144.4738  131.9463  149.9629 C   0  0  0  0  0  0  0  0  0  0  0  0
  143.7437  132.8517  150.7611 C   0  0  0  0  0  0  0  0  0  0  0  0
  144.4664  133.8802  151.3643 C   0  0  0  0  0  0  0  0  0  0  0  0
  141.4943  137.8961  154.6046 C   0  0  0  0  0  0  0  0  0  0  0  0
  140.3823  138.7520  154.7237 C   0  0  0  0  0  0  0  0  0  0  0  0
  137.0131  141.1317  152.9991 H   0  0  0  0  0  0  0  0  0  0  0  0
  137.8062  139.7943  152.1341 H   0  0  0  0  0  0  0  0  0  0  0  0
  138.7831  140.9624  153.0560 H   0  0  0  0  0  0  0  0  0  0  0  0
  137.9340  136.5837  153.7019 H   0  0  0  0  0  0  0  0  0  0  0  0
  139.8934  135.0819  153.4964 H   0  0  0  0  0  0  0  0  0  0  0  0
  143.4301  136.2171  154.2906 H   0  0  0  0  0  0  0  0  0  0  0  0
  142.7431  133.7791  154.4684 H   0  0  0  0  0  0  0  0  0  0  0  0
  142.2030  134.1139  152.5133 H   0  0  0  0  0  0  0  0  0  0  0  0
  142.2086  135.7423  151.8774 H   0  0  0  0  0  0  0  0  0  0  0  0
  145.1845  136.5604  153.1641 H   0  0  0  0  0  0  0  0  0  0  0  0
  147.6561  133.2238  150.2591 H   0  0  0  0  0  0  0  0  0  0  0  0
  146.3904  131.3660  149.1660 H   0  0  0  0  0  0  0  0  0  0  0  0
  143.9544  131.1337  149.4758 H   0  0  0  0  0  0  0  0  0  0  0  0
  142.6770  132.7420  150.8897 H   0  0  0  0  0  0  0  0  0  0  0  0
  142.4792  138.2687  154.8459 H   0  0  0  0  0  0  0  0  0  0  0  0
  140.5214  139.7713  155.0523 H   0  0  0  0  0  0  0  0  0  0  0  0
  147.2040  135.4941  151.9892 H   0  0  0  0  0  0  0  0  0  0  0  0
  1  2  1  0  0  0  0
  1 23  1  0  0  0  0
  1 24  1  0  0  0  0
  1 25  1  0  0  0  0
  2  3  2  0  0  0  0
  2  4  2  0  0  0  0
  2  5  1  0  0  0  0
  5 22  1  0  0  0  0
  5  6  2  0  0  0  0
  6  7  1  0  0  0  0
  6 26  1  0  0  0  0
  7  8  2  0  0  0  0
  7 27  1  0  0  0  0
  8  9  1  0  0  0  0
  8 21  1  0  0  0  0
  9 10  1  0  0  0  0
  9 11  1  0  0  0  0
  9 28  1  0  0  0  0
 10 29  1  0  0  0  0
 11 12  1  0  0  0  0
 11 30  1  0  0  0  0
 11 31  1  0  0  0  0
 12 20  1  0  0  0  0
 12 13  1  0  0  0  0
 13 14  2  0  0  0  0
 13 32  1  0  0  0  0
 14 15  1  0  0  0  0
 14 39  1  0  0  0  0
 15 20  2  0  0  0  0
 15 16  1  0  0  0  0
 16 17  2  0  0  0  0
 16 33  1  0  0  0  0
 17 18  1  0  0  0  0
 17 34  1  0  0  0  0
 18 19  2  0  0  0  0
 18 35  1  0  0  0  0
 19 20  1  0  0  0  0
 19 36  1  0  0  0  0
 21 22  2  0  0  0  0
 21 37  1  0  0  0  0
 22 38  1  0  0  0  0
M  CHG  1  14   1
M  END
> <s_m_source_file>
AV-unprocessed.smi

> <i_m_source_file_index>
1946

> <i_lp_mmshare_version>
43012

> <i_f3d_flags>
0

> <s_epik_input>
W0NIM11TKD1PKSg9TyljMVtjSF1bY0hdYyhbY0hdW2NIXTEpW0NASF0oW09IXSlbQ0gyXW4oW2NIXW4yKWMoYzIzKVtjSF1bY0hdW2NIXVtjSF0z

> <s_epik_cmdline>
J2VwaWtfcHl0aG9uJywgJy1waCcsICc3LjAnLCAnLXRuJywgJzgnLCAnLW1hJywgJzIwMCcsICctbWV0YWxfYmluZGluZycsICctaW1hZScsICc8aW5maWxlLm1hZT4nLCAnLW9tYWUnLCAnPG91dGZpbGUubWFlPic=

> <r_epik_Ionization_Penalty>
1.3029

> <r_epik_Ionization_Penalty_Charging>
1.3029

> <r_epik_Ionization_Penalty_Neutral>
1.34362e-06

> <r_epik_State_Penalty>
1.377

> <r_epik_Charging_Adjusted_Penalty>
2.6799

> <i_epik_Tot_Q>
1

> <i_epik_Tot_abs_Q>
1

> <r_epik_Metal_State_Penalty>
5.40879

> <b_epik_Metal_Only>
0

> <s_lp_Force_Field>
OPLS_2005

> <r_lp_Energy>
16.9066

> <b_lp_Chiralities_Consistent>
1

> <s_lp_Variant>
AV-unprocessed.smi:1946-4

> <Gold.Version>
5.8.1

> <Gold.Id.Protein>
6NUR|6NUR_protein|mol2

> <Gold.PLP.Fitness>
49.8484

> <Gold.PLP.PLP>
-41.1669

> <Gold.PLP.part.hbond>
-3.0000

> <Gold.PLP.part.metal>
0.0000

> <Gold.PLP.part.buried>
-6.7489

> <Gold.PLP.part.nonpolar>
-32.8754

> <Gold.PLP.part.repulsive>
0.0307

> <Gold.PLP.ligand.clash>
0.0000

> <Gold.PLP.ligand.torsion>
1.8431

> <Gold.PLP.Chemscore.Hbond>
3.4400

> <Gold.PLP.Chemscore.CHOScore>
0.0000

> <Gold.PLP.Chemscore.Metal>
0.0000

> <Gold.Chemscore.Hbonds>
donor molecule, donor type, donor heavy atom, donor atom, acceptor molecule, acceptor atom, score
      L1  H    10    29       P1 10957  0.73
      L1  H    14    39       P1  7948  2.00
      P1  H 11000 11005       L1    10  0.65

> <Gold.PLP.Chemscore.Internal.Correction>
2.0476

> <Gold.Rescore>
     Score         DG    S(hbond)    S(metal)    S(lipo)     H(rot)  DE(clash)    DE(int)     intcor
     18.14     -19.98       2.29        0.00     103.28       2.04       0.01       1.83       ----

> <Gold.Chemscore.Fitness>
18.1423

> <Gold.Chemscore.DG>
-19.9805

> <Gold.Chemscore.ZeroCoef>
-5.4800

> <Gold.Chemscore.Hbond>
2.2857

> <Gold.Chemscore.Metal>
0.0000

> <Gold.Chemscore.Lipo>
103.2813

> <Gold.Chemscore.Internal_Hbond>
0.0000

> <Gold.Chemscore.DEClash>
0.0104

> <Gold.Chemscore.DEInternal>
1.8279

> <Gold.Chemscore.Rot>
2.0382

> <Gold.Chemscore.Internal.Correction>
   9.000000E+99

> <Gold.Chemscore.Hbonds>
donor molecule, donor type, donor heavy atom, donor atom, acceptor molecule, acceptor atom, score
      L1  H    10    29       P1 10957  0.66
      L1  H    14    39       P1  7948  1.00
      P1  H 11000 11005       L1    10  0.14

> <Gold.Chemscore.Hbond.Weighted>
-7.6343

> <Gold.Chemscore.Metal.Weighted>
-0.0000

> <Gold.Chemscore.Lipo.Weighted>
-12.0839

> <Gold.Chemscore.Internal_Hbond.Weighted>
0.0000

> <Gold.Chemscore.DEClash.Weighted>
0.0104

> <Gold.Chemscore.DEInternal.Weighted>
1.8279

> <Gold.Chemscore.Rot.Weighted>
5.2177

> <Gold.Chemscore.Internal.Correction.Weighted>
   9.000000E+99

> <Gold.Protein.RotatedTorsions>
[ 6907 6896 6895 6894 ] final  -54.82 input  -60.11 | X-H torsion
[ 7974 7965 7964 7962 ] final  150.95 input  175.53 | X-H torsion
[ 8008 7997 7996 7995 ] final   97.65 input   59.86 | X-H torsion
[ 10167 10162 10161 10158 ] final  -17.58 input  -65.29 | X-H torsion
[ 10718 10713 10712 10709 ] final -113.71 input   66.30 | X-H torsion
[ 10763 10752 10751 10750 ] final   98.47 input  -60.55 | X-H torsion
[ 11005 11000 10999 10996 ] final  -22.29 input  -57.11 | X-H torsion

> <Gold.Protein.ActiveResidues>
 VAL166  LYS551  ARG553  GLY616  TRP617  ASP618  TYR619  PRO620  LYS621  CYS622 
 ASP623  PHE694  ASN695  SER759  ASP760  ASP761  ALA762  ILE779  LEU786  VAL792 
 PHE793  MET794  SER795  GLU796  ALA797  LYS798  CYS799  TRP800  GLU811  SER814 

> <Gold.Protein.RotatedAtoms>
  150.8305  134.7556  159.6849 H   0  0  0  0  0  0  0  0  0  0  0  0  # atno 6907 bound_to 6896
  152.4410  134.5587  159.9898 H   0  0  0  0  0  0  0  0  0  0  0  0  # atno 6908 bound_to 6896
  151.5749  133.3347  159.3033 H   0  0  0  0  0  0  0  0  0  0  0  0  # atno 6909 bound_to 6896
  144.8327  139.6475  143.6051 H   0  0  0  0  0  0  0  0  0  0  0  0  # atno 7974 bound_to 7965
  156.0924  140.3255  155.7833 H   0  0  0  0  0  0  0  0  0  0  0  0  # atno 8008 bound_to 7997
  155.4975  140.0566  157.2961 H   0  0  0  0  0  0  0  0  0  0  0  0  # atno 8009 bound_to 7997
  154.4645  140.1983  156.0170 H   0  0  0  0  0  0  0  0  0  0  0  0  # atno 8010 bound_to 7997
  140.7249  143.5001  150.9880 H   0  0  0  0  0  0  0  0  0  0  0  0  # atno 10167 bound_to 10162
  156.0784  130.5988  150.8678 H   0  0  0  0  0  0  0  0  0  0  0  0  # atno 10718 bound_to 10713
  153.2895  135.4147  155.1153 H   0  0  0  0  0  0  0  0  0  0  0  0  # atno 10763 bound_to 10752
  154.8516  135.3515  154.6001 H   0  0  0  0  0  0  0  0  0  0  0  0  # atno 10764 bound_to 10752
  153.6423  135.7056  153.5295 H   0  0  0  0  0  0  0  0  0  0  0  0  # atno 10765 bound_to 10752
  140.8642  133.7766  156.0110 H   0  0  0  0  0  0  0  0  0  0  0  0  # atno 11005 bound_to 11000
  146.2629  139.6451  142.9350 LP  0  0  0  0  0  0  0  0  0  0  0  0  # atno 17320 bound_to 7965
  145.4861  141.0438  143.2619 LP  0  0  0  0  0  0  0  0  0  0  0  0  # atno 17321 bound_to 7965
  139.8710  143.7192  152.3166 LP  0  0  0  0  0  0  0  0  0  0  0  0  # atno 17342 bound_to 10162
  139.7441  144.7552  151.0606 LP  0  0  0  0  0  0  0  0  0  0  0  0  # atno 17343 bound_to 10162
  157.5889  131.0945  150.9150 LP  0  0  0  0  0  0  0  0  0  0  0  0  # atno 17370 bound_to 10713
  156.9330  130.5357  149.5279 LP  0  0  0  0  0  0  0  0  0  0  0  0  # atno 17371 bound_to 10713
  140.8648  134.2798  157.5218 LP  0  0  0  0  0  0  0  0  0  0  0  0  # atno 17394 bound_to 11000
  139.8708  134.9536  156.4152 LP  0  0  0  0  0  0  0  0  0  0  0  0  # atno 17395 bound_to 11000

$$$$
