AV-unprocessed.smi:2697|AV-procd|sdf|10416|dock1
  -GOLD-   2272014453D 1   1.00000     0.00000
 Structure written by MMmdl.
 32 33  0  0  0  0  0  0  0  0  2 V2000
  152.5074  143.7113  162.9115 C   0  0  0  0  0  0  0  0  0  0  0  0
  152.8430  142.8184  161.8233 N   0  0  0  0  0  0  0  0  0  0  0  0
  153.7317  141.7643  161.8230 C   0  0  0  0  0  0  0  0  0  0  0  0
  153.6913  141.2487  160.5604 C   0  0  0  0  0  0  0  0  0  0  0  0
  154.5304  140.1192  160.0416 C   0  0  0  0  0  0  0  0  0  0  0  0
  155.3339  139.5391  160.9369 N   0  0  0  0  0  0  0  0  0  0  0  0
  154.4486  139.7368  158.8765 O   0  0  0  0  0  0  0  0  0  0  0  0
  152.7556  142.0423  159.8326 C   0  0  0  0  0  0  0  0  0  0  0  0
  152.3093  141.9548  158.3905 C   0  0  1  0  0  0  0  0  0  0  0  0
  151.7374  140.5666  158.0409 C   0  0  0  0  0  0  0  0  0  0  0  0
  151.2915  140.5269  156.5709 C   0  0  0  0  0  0  0  0  0  0  0  0
  150.3093  141.6698  156.2621 C   0  0  0  0  0  0  0  0  0  0  0  0
  150.9004  142.9795  156.6141 N   0  3  0  0  0  0  0  0  0  0  0  0
  151.3053  143.0694  158.0343 C   0  0  0  0  0  0  0  0  0  0  0  0
  152.2549  142.9921  160.6160 N   0  0  0  0  0  0  0  0  0  0  0  0
  152.9307  143.3394  163.8451 H   0  0  0  0  0  0  0  0  0  0  0  0
  151.4240  143.7791  163.0170 H   0  0  0  0  0  0  0  0  0  0  0  0
  152.9111  144.7038  162.7098 H   0  0  0  0  0  0  0  0  0  0  0  0
  154.3063  141.4880  162.6950 H   0  0  0  0  0  0  0  0  0  0  0  0
  155.9296  138.7726  160.6596 H   0  0  0  0  0  0  0  0  0  0  0  0
  155.3440  139.8713  161.8905 H   0  0  0  0  0  0  0  0  0  0  0  0
  153.1770  142.0927  157.7472 H   0  0  0  0  0  0  0  0  0  0  0  0
  152.4839  139.7931  158.2248 H   0  0  0  0  0  0  0  0  0  0  0  0
  150.8851  140.3372  158.6820 H   0  0  0  0  0  0  0  0  0  0  0  0
  152.1639  140.6074  155.9209 H   0  0  0  0  0  0  0  0  0  0  0  0
  150.8276  139.5654  156.3479 H   0  0  0  0  0  0  0  0  0  0  0  0
  150.0506  141.6701  155.2032 H   0  0  0  0  0  0  0  0  0  0  0  0
  149.3807  141.5341  156.8179 H   0  0  0  0  0  0  0  0  0  0  0  0
  151.7176  143.1276  156.0391 H   0  0  0  0  0  0  0  0  0  0  0  0
  150.4151  143.0029  158.6615 H   0  0  0  0  0  0  0  0  0  0  0  0
  151.7485  144.0496  158.2117 H   0  0  0  0  0  0  0  0  0  0  0  0
  150.2281  143.7075  156.4186 H   0  0  0  0  0  0  0  0  0  0  0  0
  1  2  1  0  0  0  0
  1 16  1  0  0  0  0
  1 17  1  0  0  0  0
  1 18  1  0  0  0  0
  2 15  1  0  0  0  0
  2  3  1  0  0  0  0
  3  4  2  0  0  0  0
  3 19  1  0  0  0  0
  4  5  1  0  0  0  0
  4  8  1  0  0  0  0
  5  6  1  0  0  0  0
  5  7  2  0  0  0  0
  6 20  1  0  0  0  0
  6 21  1  0  0  0  0
  8  9  1  0  0  0  0
  8 15  2  0  0  0  0
  9 14  1  0  0  0  0
  9 10  1  0  0  0  0
  9 22  1  0  0  0  0
 10 11  1  0  0  0  0
 10 23  1  0  0  0  0
 10 24  1  0  0  0  0
 11 12  1  0  0  0  0
 11 25  1  0  0  0  0
 11 26  1  0  0  0  0
 12 13  1  0  0  0  0
 12 27  1  0  0  0  0
 12 28  1  0  0  0  0
 13 14  1  0  0  0  0
 13 29  1  0  0  0  0
 13 32  1  0  0  0  0
 14 30  1  0  0  0  0
 14 31  1  0  0  0  0
M  CHG  1  13   1
M  END
> <s_m_source_file>
AV-unprocessed.smi

> <i_m_source_file_index>
2697

> <i_lp_mmshare_version>
43012

> <i_f3d_flags>
0

> <s_epik_input>
W0NIM11uMVtjSF1jKEMoPU8pW05IMl0pYyhuMSlbQ0BASF0yW0NIMl1bQ0gyXVtDSDJdW05IXVtDSDJdMg==

> <s_epik_cmdline>
J2VwaWtfcHl0aG9uJywgJy1waCcsICc3LjAnLCAnLXRuJywgJzgnLCAnLW1hJywgJzIwMCcsICctbWV0YWxfYmluZGluZycsICctaW1hZScsICc8aW5maWxlLm1hZT4nLCAnLW9tYWUnLCAnPG91dGZpbGUubWFlPic=

> <r_lp_tautomer_probability>
1

> <r_epik_Ionization_Penalty>
0.000158942

> <r_epik_Ionization_Penalty_Charging>
0.000157527

> <r_epik_Ionization_Penalty_Neutral>
1.41498e-06

> <r_epik_State_Penalty>
-0

> <r_epik_Charging_Adjusted_Penalty>
0.000157527

> <i_epik_Tot_Q>
1

> <i_epik_Tot_abs_Q>
1

> <r_epik_Metal_State_Penalty>
-0

> <b_epik_Metal_Only>
0

> <s_lp_Force_Field>
OPLS_2005

> <r_lp_Energy>
9.94433

> <b_lp_Chiralities_Consistent>
1

> <s_lp_Variant>
AV-unprocessed.smi:2697-2

> <Gold.Version>
5.8.1

> <Gold.Id.Protein>
6NUR|6NUR_protein|mol2

> <Gold.PLP.Fitness>
42.6845

> <Gold.PLP.PLP>
-33.6895

> <Gold.PLP.part.hbond>
-2.0000

> <Gold.PLP.part.metal>
0.0000

> <Gold.PLP.part.buried>
-2.9623

> <Gold.PLP.part.nonpolar>
-29.1588

> <Gold.PLP.part.repulsive>
0.1249

> <Gold.PLP.ligand.clash>
0.0000

> <Gold.PLP.ligand.torsion>
0.0193

> <Gold.PLP.Chemscore.Hbond>
3.0000

> <Gold.PLP.Chemscore.CHOScore>
0.0000

> <Gold.PLP.Chemscore.Metal>
0.0000

> <Gold.Chemscore.Hbonds>
donor molecule, donor type, donor heavy atom, donor atom, acceptor molecule, acceptor atom, score
      L1  H    13    32       P1  8028  2.00
      P1  H  7997  8010       L1     7  1.00

> <Gold.PLP.Chemscore.Internal.Correction>
0.0337

> <Gold.Rescore>
     Score         DG    S(hbond)    S(metal)    S(lipo)     H(rot)  DE(clash)    DE(int)     intcor
     18.86     -19.17       1.98        0.00      82.43       1.00       0.23       0.08       ----

> <Gold.Chemscore.Fitness>
18.8596

> <Gold.Chemscore.DG>
-19.1730

> <Gold.Chemscore.ZeroCoef>
-5.4800

> <Gold.Chemscore.Hbond>
1.9785

> <Gold.Chemscore.Metal>
0.0000

> <Gold.Chemscore.Lipo>
82.4343

> <Gold.Chemscore.Internal_Hbond>
0.0000

> <Gold.Chemscore.DEClash>
0.2337

> <Gold.Chemscore.DEInternal>
0.0797

> <Gold.Chemscore.Rot>
1.0000

> <Gold.Chemscore.Internal.Correction>
   9.000000E+99

> <Gold.Chemscore.Hbonds>
donor molecule, donor type, donor heavy atom, donor atom, acceptor molecule, acceptor atom, score
      L1  H    13    32       P1  8028  1.00
      P1  H  7997  8010       L1     7  0.98

> <Gold.Chemscore.Hbond.Weighted>
-6.6082

> <Gold.Chemscore.Metal.Weighted>
-0.0000

> <Gold.Chemscore.Lipo.Weighted>
-9.6448

> <Gold.Chemscore.Internal_Hbond.Weighted>
0.0000

> <Gold.Chemscore.DEClash.Weighted>
0.2337

> <Gold.Chemscore.DEInternal.Weighted>
0.0797

> <Gold.Chemscore.Rot.Weighted>
2.5600

> <Gold.Chemscore.Internal.Correction.Weighted>
   9.000000E+99

> <Gold.Protein.RotatedTorsions>
[ 6907 6896 6895 6894 ] final    5.43 input  -60.11 | X-H torsion
[ 7974 7965 7964 7962 ] final  158.05 input  175.53 | X-H torsion
[ 8008 7997 7996 7995 ] final   -3.92 input   59.86 | X-H torsion
[ 10167 10162 10161 10158 ] final   86.82 input  -65.29 | X-H torsion
[ 10718 10713 10712 10709 ] final  104.31 input   66.30 | X-H torsion
[ 10763 10752 10751 10750 ] final   49.42 input  -60.55 | X-H torsion
[ 11005 11000 10999 10996 ] final  139.00 input  -57.11 | X-H torsion

> <Gold.Protein.ActiveResidues>
 VAL166  LYS551  ARG553  GLY616  TRP617  ASP618  TYR619  PRO620  LYS621  CYS622 
 ASP623  PHE694  ASN695  SER759  ASP760  ASP761  ALA762  ILE779  LEU786  VAL792 
 PHE793  MET794  SER795  GLU796  ALA797  LYS798  CYS799  TRP800  GLU811  SER814 

> <Gold.Protein.RotatedAtoms>
  151.6574  135.0994  160.0172 H   0  0  0  0  0  0  0  0  0  0  0  0  # atno 6907 bound_to 6896
  152.3966  133.6752  159.6290 H   0  0  0  0  0  0  0  0  0  0  0  0  # atno 6908 bound_to 6896
  150.7872  133.8780  159.3319 H   0  0  0  0  0  0  0  0  0  0  0  0  # atno 6909 bound_to 6896
  144.7868  139.7424  143.6237 H   0  0  0  0  0  0  0  0  0  0  0  0  # atno 7974 bound_to 7965
  154.6198  140.2497  155.7564 H   0  0  0  0  0  0  0  0  0  0  0  0  # atno 8008 bound_to 7997
  156.2420  140.2929  156.0419 H   0  0  0  0  0  0  0  0  0  0  0  0  # atno 8009 bound_to 7997
  155.1916  140.0391  157.2891 H   0  0  0  0  0  0  0  0  0  0  0  0  # atno 8010 bound_to 7997
  139.8836  144.6426  150.8816 H   0  0  0  0  0  0  0  0  0  0  0  0  # atno 10167 bound_to 10162
  157.6744  131.0800  150.5687 H   0  0  0  0  0  0  0  0  0  0  0  0  # atno 10718 bound_to 10713
  152.9787  135.5912  154.4086 H   0  0  0  0  0  0  0  0  0  0  0  0  # atno 10763 bound_to 10752
  154.3724  135.2767  155.2261 H   0  0  0  0  0  0  0  0  0  0  0  0  # atno 10764 bound_to 10752
  154.4210  135.6059  153.6065 H   0  0  0  0  0  0  0  0  0  0  0  0  # atno 10765 bound_to 10752
  140.0223  134.9391  157.0499 H   0  0  0  0  0  0  0  0  0  0  0  0  # atno 11005 bound_to 11000
  146.2103  139.5455  142.9685 LP  0  0  0  0  0  0  0  0  0  0  0  0  # atno 17320 bound_to 7965
  145.5900  141.0371  143.2075 LP  0  0  0  0  0  0  0  0  0  0  0  0  # atno 17321 bound_to 7965
  140.7740  143.3566  151.1909 LP  0  0  0  0  0  0  0  0  0  0  0  0  # atno 17342 bound_to 10162
  139.7173  143.9279  152.2972 LP  0  0  0  0  0  0  0  0  0  0  0  0  # atno 17343 bound_to 10162
  156.5989  130.4349  149.5905 LP  0  0  0  0  0  0  0  0  0  0  0  0  # atno 17370 bound_to 10713
  156.2522  130.6914  151.1655 LP  0  0  0  0  0  0  0  0  0  0  0  0  # atno 17371 bound_to 10713
  140.4366  134.1725  155.7171 LP  0  0  0  0  0  0  0  0  0  0  0  0  # atno 17394 bound_to 11000
  141.1781  133.8471  157.1351 LP  0  0  0  0  0  0  0  0  0  0  0  0  # atno 17395 bound_to 11000

$$$$
