AV-unprocessed.smi:2918|AV-procd|sdf|11191|dock8
  -GOLD-   2272016 83D 1   1.00000     0.00000
 Structure written by MMmdl.
 41 42  0  0  0  0  0  0  0  0  1 V2000
  150.7981  137.0450  155.2177 C   0  0  0  0  0  0  0  0  0  0  0  0
  151.2006  138.2412  154.3412 C   0  0  0  0  0  0  0  0  0  0  0  0
  152.5943  138.7779  154.7081 C   0  0  0  0  0  0  0  0  0  0  0  0
  150.1901  139.2932  154.4009 N   0  0  0  0  0  0  0  0  0  0  0  0
  150.5249  140.5317  154.8334 N   0  0  0  0  0  0  0  0  0  0  0  0
  149.4011  141.2341  154.7864 C   0  0  0  0  0  0  0  0  0  0  0  0
  148.2887  140.4734  154.3292 C   0  0  0  0  0  0  0  0  0  0  0  0
  148.8428  139.2431  154.1004 C   0  0  0  0  0  0  0  0  0  0  0  0
  148.2362  138.1081  153.6604 N   0  0  0  0  0  0  0  0  0  0  0  0
  147.0441  137.5967  154.0138 C   0  0  0  0  0  0  0  0  0  0  0  0
  146.2671  138.1009  154.8243 O   0  0  0  0  0  0  0  0  0  0  0  0
  146.8034  136.4506  153.3546 N   0  0  0  0  0  0  0  0  0  0  0  0
  145.6192  135.5809  153.4301 C   0  0  0  0  0  0  0  0  0  0  0  0
  145.0127  135.6395  154.8485 C   0  0  0  0  0  0  0  0  0  0  0  0
  144.5608  135.9574  152.3647 C   0  0  0  0  0  0  0  0  0  0  0  0
  145.0640  135.6954  150.9338 C   0  0  0  0  0  0  0  0  0  0  0  0
  145.4371  134.3295  150.7944 O   0  0  0  0  0  0  0  0  0  0  0  0
  146.4999  133.9531  151.6623 C   0  0  0  0  0  0  0  0  0  0  0  0
  146.0744  134.1359  153.1317 C   0  0  0  0  0  0  0  0  0  0  0  0
  151.5184  136.2318  155.1236 H   0  0  0  0  0  0  0  0  0  0  0  0
  149.8223  136.6561  154.9255 H   0  0  0  0  0  0  0  0  0  0  0  0
  150.7455  137.3207  156.2716 H   0  0  0  0  0  0  0  0  0  0  0  0
  151.2542  137.8884  153.3111 H   0  0  0  0  0  0  0  0  0  0  0  0
  153.3545  138.0064  154.5825 H   0  0  0  0  0  0  0  0  0  0  0  0
  152.6368  139.1160  155.7442 H   0  0  0  0  0  0  0  0  0  0  0  0
  152.8705  139.6184  154.0706 H   0  0  0  0  0  0  0  0  0  0  0  0
  149.4254  142.2708  155.0884 H   0  0  0  0  0  0  0  0  0  0  0  0
  147.2660  140.7951  154.2035 H   0  0  0  0  0  0  0  0  0  0  0  0
  148.7539  137.5870  152.9683 H   0  0  0  0  0  0  0  0  0  0  0  0
  147.5218  136.1408  152.7168 H   0  0  0  0  0  0  0  0  0  0  0  0
  144.1876  134.9345  154.9541 H   0  0  0  0  0  0  0  0  0  0  0  0
  144.6172  136.6274  155.0847 H   0  0  0  0  0  0  0  0  0  0  0  0
  145.7546  135.3899  155.6079 H   0  0  0  0  0  0  0  0  0  0  0  0
  143.6612  135.3615  152.5257 H   0  0  0  0  0  0  0  0  0  0  0  0
  144.2452  136.9955  152.4645 H   0  0  0  0  0  0  0  0  0  0  0  0
  144.2738  135.9154  150.2158 H   0  0  0  0  0  0  0  0  0  0  0  0
  145.9052  136.3438  150.6847 H   0  0  0  0  0  0  0  0  0  0  0  0
  146.7494  132.9086  151.4747 H   0  0  0  0  0  0  0  0  0  0  0  0
  147.3938  134.5353  151.4335 H   0  0  0  0  0  0  0  0  0  0  0  0
  146.8921  133.8474  153.7939 H   0  0  0  0  0  0  0  0  0  0  0  0
  145.2574  133.4440  153.3416 H   0  0  0  0  0  0  0  0  0  0  0  0
  1  2  1  0  0  0  0
  1 20  1  0  0  0  0
  1 21  1  0  0  0  0
  1 22  1  0  0  0  0
  2  3  1  0  0  0  0
  2  4  1  0  0  0  0
  2 23  1  0  0  0  0
  3 24  1  0  0  0  0
  3 25  1  0  0  0  0
  3 26  1  0  0  0  0
  4  8  1  0  0  0  0
  4  5  1  0  0  0  0
  5  6  2  0  0  0  0
  6  7  1  0  0  0  0
  6 27  1  0  0  0  0
  7  8  2  0  0  0  0
  7 28  1  0  0  0  0
  8  9  1  0  0  0  0
  9 10  1  0  0  0  0
  9 29  1  0  0  0  0
 10 11  2  0  0  0  0
 10 12  1  0  0  0  0
 12 13  1  0  0  0  0
 12 30  1  0  0  0  0
 13 19  1  0  0  0  0
 13 14  1  0  0  0  0
 13 15  1  0  0  0  0
 14 31  1  0  0  0  0
 14 32  1  0  0  0  0
 14 33  1  0  0  0  0
 15 16  1  0  0  0  0
 15 34  1  0  0  0  0
 15 35  1  0  0  0  0
 16 17  1  0  0  0  0
 16 36  1  0  0  0  0
 16 37  1  0  0  0  0
 17 18  1  0  0  0  0
 18 19  1  0  0  0  0
 18 38  1  0  0  0  0
 18 39  1  0  0  0  0
 19 40  1  0  0  0  0
 19 41  1  0  0  0  0
M  END
> <s_m_source_file>
AV-unprocessed.smi

> <i_m_source_file_index>
2918

> <i_lp_mmshare_version>
43012

> <i_f3d_flags>
0

> <s_epik_input>
W0NIM11bQ0hdKFtDSDNdKW4xbltjSF1bY0hdYzFbTkhdQyg9TylbTkhdQzIoW0NIM10pW0NIMl1bQ0gyXU9bQ0gyXVtDSDJdMg==

> <s_epik_cmdline>
J2VwaWtfcHl0aG9uJywgJy1waCcsICc3LjAnLCAnLXRuJywgJzgnLCAnLW1hJywgJzIwMCcsICctbWV0YWxfYmluZGluZycsICctaW1hZScsICc8aW5maWxlLm1hZT4nLCAnLW9tYWUnLCAnPG91dGZpbGUubWFlPic=

> <r_lp_tautomer_probability>
1

> <r_epik_Ionization_Penalty>
4.13243e-05

> <r_epik_Ionization_Penalty_Charging>
0

> <r_epik_Ionization_Penalty_Neutral>
4.13243e-05

> <r_epik_State_Penalty>
-0

> <r_epik_Charging_Adjusted_Penalty>
0

> <i_epik_Tot_Q>
0

> <i_epik_Tot_abs_Q>
0

> <r_epik_Metal_State_Penalty>
-0

> <b_epik_Metal_Only>
0

> <s_lp_Force_Field>
OPLS_2005

> <r_lp_Energy>
17.4718

> <b_lp_Chiralities_Consistent>
1

> <s_lp_Variant>
AV-unprocessed.smi:2918-1

> <Gold.Version>
5.8.1

> <Gold.Id.Protein>
6NUR|6NUR_protein|mol2

> <Gold.PLP.Fitness>
40.8941

> <Gold.PLP.PLP>
-31.5362

> <Gold.PLP.part.hbond>
-3.0000

> <Gold.PLP.part.metal>
0.0000

> <Gold.PLP.part.buried>
-3.6215

> <Gold.PLP.part.nonpolar>
-25.2094

> <Gold.PLP.part.repulsive>
0.3486

> <Gold.PLP.ligand.clash>
0.0000

> <Gold.PLP.ligand.torsion>
0.9145

> <Gold.PLP.Chemscore.Hbond>
2.8000

> <Gold.PLP.Chemscore.CHOScore>
0.9156

> <Gold.PLP.Chemscore.Metal>
0.0000

> <Gold.Chemscore.Hbonds>
donor molecule, donor type, donor heavy atom, donor atom, acceptor molecule, acceptor atom, score
      L1  H     9    29       P1  7948  1.00
      L1  H    12    30       P1  7948  1.00
      P1  H  7989  7998       L1     5  0.79
      L1  C     6    27       P1  8028  0.91

> <Gold.PLP.Chemscore.Internal.Correction>
0.0399

> <Gold.Rescore>
     Score         DG    S(hbond)    S(metal)    S(lipo)     H(rot)  DE(clash)    DE(int)     intcor
     14.16     -16.53       2.16        0.00      58.98       1.19       0.04       2.33       ----

> <Gold.Chemscore.Fitness>
14.1592

> <Gold.Chemscore.DG>
-16.5322

> <Gold.Chemscore.ZeroCoef>
-5.4800

> <Gold.Chemscore.Hbond>
2.1568

> <Gold.Chemscore.Metal>
0.0000

> <Gold.Chemscore.Lipo>
58.9813

> <Gold.Chemscore.Internal_Hbond>
0.0000

> <Gold.Chemscore.DEClash>
0.0391

> <Gold.Chemscore.DEInternal>
2.3338

> <Gold.Chemscore.Rot>
1.1924

> <Gold.Chemscore.Internal.Correction>
   9.000000E+99

> <Gold.Chemscore.Hbonds>
donor molecule, donor type, donor heavy atom, donor atom, acceptor molecule, acceptor atom, score
      L1  H     9    29       P1  7948  0.98
      L1  H    12    30       P1  7948  0.99
      P1  H  7989  7998       L1     5  0.10

> <Gold.Chemscore.Hbond.Weighted>
-7.2038

> <Gold.Chemscore.Metal.Weighted>
-0.0000

> <Gold.Chemscore.Lipo.Weighted>
-6.9008

> <Gold.Chemscore.Internal_Hbond.Weighted>
0.0000

> <Gold.Chemscore.DEClash.Weighted>
0.0391

> <Gold.Chemscore.DEInternal.Weighted>
2.3338

> <Gold.Chemscore.Rot.Weighted>
3.0524

> <Gold.Chemscore.Internal.Correction.Weighted>
   9.000000E+99

> <Gold.Protein.RotatedTorsions>
[ 6907 6896 6895 6894 ] final -117.73 input  -60.11 | X-H torsion
[ 7974 7965 7964 7962 ] final -177.32 input  175.53 | X-H torsion
[ 8008 7997 7996 7995 ] final -143.54 input   59.86 | X-H torsion
[ 10167 10162 10161 10158 ] final   25.38 input  -65.29 | X-H torsion
[ 10718 10713 10712 10709 ] final   85.46 input   66.30 | X-H torsion
[ 10763 10752 10751 10750 ] final  -70.06 input  -60.55 | X-H torsion
[ 11005 11000 10999 10996 ] final  105.20 input  -57.11 | X-H torsion

> <Gold.Protein.ActiveResidues>
 VAL166  LYS551  ARG553  GLY616  TRP617  ASP618  TYR619  PRO620  LYS621  CYS622 
 ASP623  PHE694  ASN695  SER759  ASP760  ASP761  ALA762  ILE779  LEU786  VAL792 
 PHE793  MET794  SER795  GLU796  ALA797  LYS798  CYS799  TRP800  GLU811  SER814 

> <Gold.Protein.RotatedAtoms>
  150.8161  133.8335  159.3159 H   0  0  0  0  0  0  0  0  0  0  0  0  # atno 6907 bound_to 6896
  151.6106  135.1039  160.0090 H   0  0  0  0  0  0  0  0  0  0  0  0  # atno 6908 bound_to 6896
  152.4252  133.7143  159.6553 H   0  0  0  0  0  0  0  0  0  0  0  0  # atno 6909 bound_to 6896
  144.7127  140.1037  143.6415 H   0  0  0  0  0  0  0  0  0  0  0  0  # atno 7974 bound_to 7965
  155.5122  140.0584  157.2921 H   0  0  0  0  0  0  0  0  0  0  0  0  # atno 8008 bound_to 7997
  154.4547  140.1967  156.0361 H   0  0  0  0  0  0  0  0  0  0  0  0  # atno 8009 bound_to 7997
  156.0776  140.3251  155.7657 H   0  0  0  0  0  0  0  0  0  0  0  0  # atno 8010 bound_to 7997
  140.5111  144.0159  150.6373 H   0  0  0  0  0  0  0  0  0  0  0  0  # atno 10167 bound_to 10162
  157.6915  131.0176  150.2826 H   0  0  0  0  0  0  0  0  0  0  0  0  # atno 10718 bound_to 10713
  154.4123  135.6006  153.5960 H   0  0  0  0  0  0  0  0  0  0  0  0  # atno 10763 bound_to 10752
  152.9791  135.5932  154.4055 H   0  0  0  0  0  0  0  0  0  0  0  0  # atno 10764 bound_to 10752
  154.3869  135.2841  155.2156 H   0  0  0  0  0  0  0  0  0  0  0  0  # atno 10765 bound_to 10752
  139.8799  134.9327  156.5477 H   0  0  0  0  0  0  0  0  0  0  0  0  # atno 11005 bound_to 11000
  145.9516  139.2737  143.1209 LP  0  0  0  0  0  0  0  0  0  0  0  0  # atno 17320 bound_to 7965
  145.9317  140.9043  143.0353 LP  0  0  0  0  0  0  0  0  0  0  0  0  # atno 17321 bound_to 7965
  140.3482  143.2979  152.0516 LP  0  0  0  0  0  0  0  0  0  0  0  0  # atno 17342 bound_to 10162
  139.4896  144.6393  151.6910 LP  0  0  0  0  0  0  0  0  0  0  0  0  # atno 17343 bound_to 10162
  156.3370  130.3809  149.7441 LP  0  0  0  0  0  0  0  0  0  0  0  0  # atno 17370 bound_to 10713
  156.4962  130.8108  151.3114 LP  0  0  0  0  0  0  0  0  0  0  0  0  # atno 17371 bound_to 10713
  140.8263  133.8314  155.8942 LP  0  0  0  0  0  0  0  0  0  0  0  0  # atno 17394 bound_to 11000
  140.9371  134.1948  157.4824 LP  0  0  0  0  0  0  0  0  0  0  0  0  # atno 17395 bound_to 11000

$$$$
