AV-unprocessed.smi:789|AV-procd|sdf|3739|dock2
  -GOLD-   22720 1173D 1   1.00000     0.00000
 Structure written by MMmdl.
 34 35  0  0  0  0  0  0  0  0  1 V2000
  147.0662  138.5005  152.8114 C   0  0  0  0  0  0  0  0  0  0  0  0
  147.4044  139.8000  153.4801 C   0  0  0  0  0  0  0  0  0  0  0  0
  148.5435  140.1048  154.2804 C   0  0  0  0  0  0  0  0  0  0  0  0
  148.3310  141.4127  154.6205 C   0  0  0  0  0  0  0  0  0  0  0  0
  149.1032  142.2322  155.3812 N   0  0  0  0  0  0  0  0  0  0  0  0
  150.1939  141.9339  156.1144 C   0  0  0  0  0  0  0  0  0  0  0  0
  150.6996  140.8166  156.2009 O   0  0  0  0  0  0  0  0  0  0  0  0
  150.7074  142.9836  156.7816 N   0  0  0  0  0  0  0  0  0  0  0  0
  151.8783  143.0105  157.6626 C   0  0  0  0  0  0  0  0  0  0  0  0
  151.5779  142.2861  158.9890 C   0  0  0  0  0  0  0  0  0  0  0  0
  152.0758  143.2111  160.1005 C   0  0  0  0  0  0  0  0  0  0  0  0
  151.9165  144.6131  159.5222 C   0  0  0  0  0  0  0  0  0  0  0  0
  152.2760  144.4519  158.0451 C   0  0  0  0  0  0  0  0  0  0  0  0
  147.1483  141.8346  154.0522 N   0  0  0  0  0  0  0  0  0  0  0  0
  146.4887  143.1250  154.1131 C   0  0  0  0  0  0  0  0  0  0  0  0
  146.5800  140.8329  153.3473 N   0  0  0  0  0  0  0  0  0  0  0  0
  147.7951  137.7287  153.0590 H   0  0  0  0  0  0  0  0  0  0  0  0
  147.0533  138.6091  151.7267 H   0  0  0  0  0  0  0  0  0  0  0  0
  146.0851  138.1415  153.1236 H   0  0  0  0  0  0  0  0  0  0  0  0
  149.3652  139.4577  154.5470 H   0  0  0  0  0  0  0  0  0  0  0  0
  148.8029  143.1953  155.4144 H   0  0  0  0  0  0  0  0  0  0  0  0
  150.2182  143.8611  156.6794 H   0  0  0  0  0  0  0  0  0  0  0  0
  152.7202  142.5164  157.1739 H   0  0  0  0  0  0  0  0  0  0  0  0
  150.5039  142.1350  159.1108 H   0  0  0  0  0  0  0  0  0  0  0  0
  152.0473  141.3031  159.0369 H   0  0  0  0  0  0  0  0  0  0  0  0
  151.5302  143.0766  161.0349 H   0  0  0  0  0  0  0  0  0  0  0  0
  153.1302  143.0142  160.2986 H   0  0  0  0  0  0  0  0  0  0  0  0
  150.8774  144.9324  159.6151 H   0  0  0  0  0  0  0  0  0  0  0  0
  152.5393  145.3510  160.0286 H   0  0  0  0  0  0  0  0  0  0  0  0
  153.3534  144.5701  157.9221 H   0  0  0  0  0  0  0  0  0  0  0  0
  151.8002  145.2150  157.4277 H   0  0  0  0  0  0  0  0  0  0  0  0
  147.0115  143.7942  154.7965 H   0  0  0  0  0  0  0  0  0  0  0  0
  145.4639  142.9985  154.4631 H   0  0  0  0  0  0  0  0  0  0  0  0
  146.4734  143.5756  153.1204 H   0  0  0  0  0  0  0  0  0  0  0  0
  1  2  1  0  0  0  0
  1 17  1  0  0  0  0
  1 18  1  0  0  0  0
  1 19  1  0  0  0  0
  2 16  2  0  0  0  0
  2  3  1  0  0  0  0
  3  4  2  0  0  0  0
  3 20  1  0  0  0  0
  4  5  1  0  0  0  0
  4 14  1  0  0  0  0
  5  6  1  0  0  0  0
  5 21  1  0  0  0  0
  6  7  2  0  0  0  0
  6  8  1  0  0  0  0
  8  9  1  0  0  0  0
  8 22  1  0  0  0  0
  9 13  1  0  0  0  0
  9 10  1  0  0  0  0
  9 23  1  0  0  0  0
 10 11  1  0  0  0  0
 10 24  1  0  0  0  0
 10 25  1  0  0  0  0
 11 12  1  0  0  0  0
 11 26  1  0  0  0  0
 11 27  1  0  0  0  0
 12 13  1  0  0  0  0
 12 28  1  0  0  0  0
 12 29  1  0  0  0  0
 13 30  1  0  0  0  0
 13 31  1  0  0  0  0
 14 15  1  0  0  0  0
 14 16  1  0  0  0  0
 15 32  1  0  0  0  0
 15 33  1  0  0  0  0
 15 34  1  0  0  0  0
M  END
> <s_m_source_file>
AV-unprocessed.smi

> <i_m_source_file_index>
789

> <i_lp_mmshare_version>
43012

> <i_f3d_flags>
0

> <s_epik_input>
W0NIM11jMVtjSF1jKG4objEpW0NIM10pW05IXUMoPU8pW05IXVtDSF0yW0NIMl1bQ0gyXVtDSDJdW0NIMl0y

> <s_epik_cmdline>
J2VwaWtfcHl0aG9uJywgJy1waCcsICc3LjAnLCAnLXRuJywgJzgnLCAnLW1hJywgJzIwMCcsICctbWV0YWxfYmluZGluZycsICctaW1hZScsICc8aW5maWxlLm1hZT4nLCAnLW9tYWUnLCAnPG91dGZpbGUubWFlPic=

> <r_lp_tautomer_probability>
1

> <r_epik_Ionization_Penalty>
0.000101808

> <r_epik_Ionization_Penalty_Charging>
0

> <r_epik_Ionization_Penalty_Neutral>
0.000101808

> <r_epik_State_Penalty>
-0

> <r_epik_Charging_Adjusted_Penalty>
0

> <i_epik_Tot_Q>
0

> <i_epik_Tot_abs_Q>
0

> <r_epik_Metal_State_Penalty>
-0

> <b_epik_Metal_Only>
0

> <s_lp_Force_Field>
OPLS_2005

> <r_lp_Energy>
29.7198

> <b_lp_Chiralities_Consistent>
1

> <s_lp_Variant>
AV-unprocessed.smi:789-1

> <Gold.Version>
5.8.1

> <Gold.Id.Protein>
6NUR|6NUR_protein|mol2

> <Gold.PLP.Fitness>
40.7909

> <Gold.PLP.PLP>
-35.3885

> <Gold.PLP.part.hbond>
-1.9090

> <Gold.PLP.part.metal>
0.0000

> <Gold.PLP.part.buried>
-2.5935

> <Gold.PLP.part.nonpolar>
-32.0649

> <Gold.PLP.part.repulsive>
0.9714

> <Gold.PLP.ligand.clash>
0.0000

> <Gold.PLP.ligand.torsion>
0.1199

> <Gold.PLP.Chemscore.Hbond>
1.8800

> <Gold.PLP.Chemscore.CHOScore>
0.0000

> <Gold.PLP.Chemscore.Metal>
0.0000

> <Gold.Chemscore.Hbonds>
donor molecule, donor type, donor heavy atom, donor atom, acceptor molecule, acceptor atom, score
      L1  H     5    21       P1  8028  1.00
      L1  H     8    22       P1  8028  0.88

> <Gold.PLP.Chemscore.Internal.Correction>
0.0022

> <Gold.Rescore>
     Score         DG    S(hbond)    S(metal)    S(lipo)     H(rot)  DE(clash)    DE(int)     intcor
     17.08     -18.78       1.80        0.00      84.18       1.00       0.49       1.21       ----

> <Gold.Chemscore.Fitness>
17.0792

> <Gold.Chemscore.DG>
-18.7784

> <Gold.Chemscore.ZeroCoef>
-5.4800

> <Gold.Chemscore.Hbond>
1.7990

> <Gold.Chemscore.Metal>
0.0000

> <Gold.Chemscore.Lipo>
84.1846

> <Gold.Chemscore.Internal_Hbond>
0.0000

> <Gold.Chemscore.DEClash>
0.4914

> <Gold.Chemscore.DEInternal>
1.2078

> <Gold.Chemscore.Rot>
1.0000

> <Gold.Chemscore.Internal.Correction>
   9.000000E+99

> <Gold.Chemscore.Hbonds>
donor molecule, donor type, donor heavy atom, donor atom, acceptor molecule, acceptor atom, score
      L1  H     5    21       P1  8028  0.93
      L1  H     8    22       P1  8028  0.86

> <Gold.Chemscore.Hbond.Weighted>
-6.0088

> <Gold.Chemscore.Metal.Weighted>
-0.0000

> <Gold.Chemscore.Lipo.Weighted>
-9.8496

> <Gold.Chemscore.Internal_Hbond.Weighted>
0.0000

> <Gold.Chemscore.DEClash.Weighted>
0.4914

> <Gold.Chemscore.DEInternal.Weighted>
1.2078

> <Gold.Chemscore.Rot.Weighted>
2.5600

> <Gold.Chemscore.Internal.Correction.Weighted>
   9.000000E+99

> <Gold.Protein.RotatedTorsions>
[ 6907 6896 6895 6894 ] final   82.40 input  -60.11 | X-H torsion
[ 7974 7965 7964 7962 ] final  156.29 input  175.53 | X-H torsion
[ 8008 7997 7996 7995 ] final  -39.45 input   59.86 | X-H torsion
[ 10167 10162 10161 10158 ] final  171.85 input  -65.29 | X-H torsion
[ 10718 10713 10712 10709 ] final  -74.78 input   66.30 | X-H torsion
[ 10763 10752 10751 10750 ] final   88.58 input  -60.55 | X-H torsion
[ 11005 11000 10999 10996 ] final   -8.83 input  -57.11 | X-H torsion

> <Gold.Protein.ActiveResidues>
 VAL166  LYS551  ARG553  GLY616  TRP617  ASP618  TYR619  PRO620  LYS621  CYS622 
 ASP623  PHE694  ASN695  SER759  ASP760  ASP761  ALA762  ILE779  LEU786  VAL792 
 PHE793  MET794  SER795  GLU796  ALA797  LYS798  CYS799  TRP800  GLU811  SER814 

> <Gold.Protein.RotatedAtoms>
  152.5298  134.3055  159.9094 H   0  0  0  0  0  0  0  0  0  0  0  0  # atno 6907 bound_to 6896
  151.3005  133.4118  159.2647 H   0  0  0  0  0  0  0  0  0  0  0  0  # atno 6908 bound_to 6896
  151.0123  134.9422  159.8071 H   0  0  0  0  0  0  0  0  0  0  0  0  # atno 6909 bound_to 6896
  144.7972  139.7184  143.6197 H   0  0  0  0  0  0  0  0  0  0  0  0  # atno 7974 bound_to 7965
  154.4023  140.1551  156.2866 H   0  0  0  0  0  0  0  0  0  0  0  0  # atno 8008 bound_to 7997
  155.8822  140.3443  155.5874 H   0  0  0  0  0  0  0  0  0  0  0  0  # atno 8009 bound_to 7997
  155.7654  140.0823  157.2125 H   0  0  0  0  0  0  0  0  0  0  0  0  # atno 8010 bound_to 7997
  139.5059  144.3439  151.9990 H   0  0  0  0  0  0  0  0  0  0  0  0  # atno 10167 bound_to 10162
  156.0230  130.4425  150.2943 H   0  0  0  0  0  0  0  0  0  0  0  0  # atno 10718 bound_to 10713
  153.1783  135.4501  154.9994 H   0  0  0  0  0  0  0  0  0  0  0  0  # atno 10763 bound_to 10752
  154.8013  135.3257  154.7545 H   0  0  0  0  0  0  0  0  0  0  0  0  # atno 10764 bound_to 10752
  153.8013  135.6962  153.4910 H   0  0  0  0  0  0  0  0  0  0  0  0  # atno 10765 bound_to 10752
  140.7277  133.8775  155.8869 H   0  0  0  0  0  0  0  0  0  0  0  0  # atno 11005 bound_to 11000
  146.2243  139.5694  142.9597 LP  0  0  0  0  0  0  0  0  0  0  0  0  # atno 17320 bound_to 7965
  145.5644  141.0401  143.2208 LP  0  0  0  0  0  0  0  0  0  0  0  0  # atno 17321 bound_to 7965
  140.2877  144.3789  150.6098 LP  0  0  0  0  0  0  0  0  0  0  0  0  # atno 17342 bound_to 10162
  140.5970  143.2167  151.7145 LP  0  0  0  0  0  0  0  0  0  0  0  0  # atno 17343 bound_to 10162
  157.1047  131.0205  151.3072 LP  0  0  0  0  0  0  0  0  0  0  0  0  # atno 17370 bound_to 10713
  157.4752  130.7732  149.7361 LP  0  0  0  0  0  0  0  0  0  0  0  0  # atno 17371 bound_to 10713
  140.9948  134.1229  157.4374 LP  0  0  0  0  0  0  0  0  0  0  0  0  # atno 17394 bound_to 11000
  139.8833  135.0051  156.6293 LP  0  0  0  0  0  0  0  0  0  0  0  0  # atno 17395 bound_to 11000

$$$$
