AV-unprocessed.smi:845|AV-procd|sdf|3927|dock2
  -GOLD-   22720 1383D 1   1.00000     0.00000
 Structure written by MMmdl.
 43 44  0  0  0  0  0  0  0  0  2 V2000
  147.1975  141.4372  153.7886 C   0  0  0  0  0  0  0  0  0  0  0  0
  148.0663  141.2208  152.5373 C   0  0  0  0  0  0  0  0  0  0  0  0
  147.6448  142.1768  151.4077 C   0  0  0  0  0  0  0  0  0  0  0  0
  148.1336  139.7201  152.1320 C   0  0  2  0  0  0  0  0  0  0  0  0
  146.7751  139.1064  151.6926 C   0  0  0  0  0  0  0  0  0  0  0  0
  146.8661  137.6815  151.3889 N   0  0  0  0  0  0  0  0  0  0  0  0
  145.8150  136.8738  151.1875 C   0  0  0  0  0  0  0  0  0  0  0  0
  144.6468  137.2610  151.2350 O   0  0  0  0  0  0  0  0  0  0  0  0
  146.2082  135.6129  150.9374 N   0  0  0  0  0  0  0  0  0  0  0  0
  145.3969  134.4724  150.6998 C   0  0  0  0  0  0  0  0  0  0  0  0
  144.3297  134.4606  149.8927 N   0  0  0  0  0  0  0  0  0  0  0  0
  143.7203  133.2040  149.8474 C   0  0  0  0  0  0  0  0  0  0  0  0
  144.3412  132.2644  150.6323 C   0  0  0  0  0  0  0  0  0  0  0  0
  145.7228  132.9246  151.4660 S   0  0  0  0  0  0  0  0  0  0  0  0
  148.8558  138.9052  153.1591 N   0  3  0  0  0  0  0  0  0  0  0  0
  150.1556  139.4420  153.6414 C   0  0  0  0  0  0  0  0  0  0  0  0
  150.8430  138.4141  154.5542 C   0  0  0  0  0  0  0  0  0  0  0  0
  149.9875  138.1132  155.6500 O   0  0  0  0  0  0  0  0  0  0  0  0
  148.7586  137.5360  155.2256 C   0  0  0  0  0  0  0  0  0  0  0  0
  148.0052  138.5185  154.3117 C   0  0  0  0  0  0  0  0  0  0  0  0
  146.1500  141.2030  153.5976 H   0  0  0  0  0  0  0  0  0  0  0  0
  147.2465  142.4737  154.1235 H   0  0  0  0  0  0  0  0  0  0  0  0
  147.5336  140.8119  154.6163 H   0  0  0  0  0  0  0  0  0  0  0  0
  149.0735  141.5201  152.8289 H   0  0  0  0  0  0  0  0  0  0  0  0
  146.6001  142.0378  151.1311 H   0  0  0  0  0  0  0  0  0  0  0  0
  148.2551  142.0450  150.5148 H   0  0  0  0  0  0  0  0  0  0  0  0
  147.7566  143.2152  151.7217 H   0  0  0  0  0  0  0  0  0  0  0  0
  148.7599  139.7105  151.2387 H   0  0  0  0  0  0  0  0  0  0  0  0
  146.0234  139.2561  152.4696 H   0  0  0  0  0  0  0  0  0  0  0  0
  146.3925  139.5977  150.7985 H   0  0  0  0  0  0  0  0  0  0  0  0
  147.7927  137.2845  151.3290 H   0  0  0  0  0  0  0  0  0  0  0  0
  147.2036  135.4462  150.9220 H   0  0  0  0  0  0  0  0  0  0  0  0
  142.8464  133.0664  149.2278 H   0  0  0  0  0  0  0  0  0  0  0  0
  144.0702  131.2282  150.7701 H   0  0  0  0  0  0  0  0  0  0  0  0
  150.8109  139.6851  152.8068 H   0  0  0  0  0  0  0  0  0  0  0  0
  149.9989  140.3636  154.2036 H   0  0  0  0  0  0  0  0  0  0  0  0
  151.0897  137.5044  154.0041 H   0  0  0  0  0  0  0  0  0  0  0  0
  151.7793  138.8194  154.9385 H   0  0  0  0  0  0  0  0  0  0  0  0
  148.9474  136.5933  154.7093 H   0  0  0  0  0  0  0  0  0  0  0  0
  148.1563  137.3017  156.1036 H   0  0  0  0  0  0  0  0  0  0  0  0
  147.7156  139.4100  154.8700 H   0  0  0  0  0  0  0  0  0  0  0  0
  147.0873  138.0456  153.9602 H   0  0  0  0  0  0  0  0  0  0  0  0
  149.0703  138.0354  152.6927 H   0  0  0  0  0  0  0  0  0  0  0  0
  1  2  1  0  0  0  0
  1 21  1  0  0  0  0
  1 22  1  0  0  0  0
  1 23  1  0  0  0  0
  2  3  1  0  0  0  0
  2  4  1  0  0  0  0
  2 24  1  0  0  0  0
  3 25  1  0  0  0  0
  3 26  1  0  0  0  0
  3 27  1  0  0  0  0
  4  5  1  0  0  0  0
  4 15  1  0  0  0  0
  4 28  1  0  0  0  0
  5  6  1  0  0  0  0
  5 29  1  0  0  0  0
  5 30  1  0  0  0  0
  6  7  1  0  0  0  0
  6 31  1  0  0  0  0
  7  8  2  0  0  0  0
  7  9  1  0  0  0  0
  9 10  1  0  0  0  0
  9 32  1  0  0  0  0
 10 14  1  0  0  0  0
 10 11  2  0  0  0  0
 11 12  1  0  0  0  0
 12 13  2  0  0  0  0
 12 33  1  0  0  0  0
 13 14  1  0  0  0  0
 13 34  1  0  0  0  0
 15 20  1  0  0  0  0
 15 16  1  0  0  0  0
 15 43  1  0  0  0  0
 16 17  1  0  0  0  0
 16 35  1  0  0  0  0
 16 36  1  0  0  0  0
 17 18  1  0  0  0  0
 17 37  1  0  0  0  0
 17 38  1  0  0  0  0
 18 19  1  0  0  0  0
 19 20  1  0  0  0  0
 19 39  1  0  0  0  0
 19 40  1  0  0  0  0
 20 41  1  0  0  0  0
 20 42  1  0  0  0  0
M  CHG  1  15   1
M  END
> <s_m_source_file>
AV-unprocessed.smi

> <i_m_source_file_index>
845

> <i_lp_mmshare_version>
43012

> <i_f3d_flags>
0

> <s_epik_input>
W0NIMl0xW0NIMl1PW0NIMl1bQ0gyXU4xW0NASF0oW0NIXShbQ0gzXSlbQ0gzXSlbQ0gyXVtOSF1DKD1PKVtOSF1jMm5bY0hdW2NIXXMy

> <s_epik_cmdline>
J2VwaWtfcHl0aG9uJywgJy1waCcsICc3LjAnLCAnLXRuJywgJzgnLCAnLW1hJywgJzIwMCcsICctbWV0YWxfYmluZGluZycsICctaW1hZScsICc8aW5maWxlLm1hZT4nLCAnLW9tYWUnLCAnPG91dGZpbGUubWFlPic=

> <r_lp_tautomer_probability>
0.999

> <r_epik_Ionization_Penalty>
0.398341

> <r_epik_Ionization_Penalty_Charging>
0.398119

> <r_epik_Ionization_Penalty_Neutral>
0.000222117

> <r_epik_State_Penalty>
0.397286

> <r_epik_Charging_Adjusted_Penalty>
0.795404

> <i_epik_Tot_Q>
1

> <i_epik_Tot_abs_Q>
1

> <r_epik_Metal_State_Penalty>
0.407542

> <b_epik_Metal_Only>
0

> <s_lp_Force_Field>
OPLS_2005

> <r_lp_Energy>
23.5248

> <b_lp_Chiralities_Consistent>
1

> <s_lp_Variant>
AV-unprocessed.smi:845-1

> <Gold.Version>
5.8.1

> <Gold.Id.Protein>
6NUR|6NUR_protein|mol2

> <Gold.PLP.Fitness>
44.1303

> <Gold.PLP.PLP>
-30.8922

> <Gold.PLP.part.hbond>
-3.2125

> <Gold.PLP.part.metal>
0.0000

> <Gold.PLP.part.buried>
-3.4652

> <Gold.PLP.part.nonpolar>
-24.0508

> <Gold.PLP.part.repulsive>
0.5182

> <Gold.PLP.ligand.clash>
0.0000

> <Gold.PLP.ligand.torsion>
0.7060

> <Gold.PLP.Chemscore.Hbond>
3.7840

> <Gold.PLP.Chemscore.CHOScore>
1.0000

> <Gold.PLP.Chemscore.Metal>
0.0000

> <Gold.Chemscore.Hbonds>
donor molecule, donor type, donor heavy atom, donor atom, acceptor molecule, acceptor atom, score
      L1  H     6    31       P1  7948  1.00
      L1  H     9    32       P1  7948  0.70
      L1  H    15    43       P1  7948  2.00
      L1  C    12    33       P1 10186  0.80

> <Gold.PLP.Chemscore.Internal.Correction>
0.2981

> <Gold.Rescore>
     Score         DG    S(hbond)    S(metal)    S(lipo)     H(rot)  DE(clash)    DE(int)     intcor
     17.00     -18.45       2.72        0.00      72.76       1.80       0.49       0.96       ----

> <Gold.Chemscore.Fitness>
17.0038

> <Gold.Chemscore.DG>
-18.4504

> <Gold.Chemscore.ZeroCoef>
-5.4800

> <Gold.Chemscore.Hbond>
2.7177

> <Gold.Chemscore.Metal>
0.0000

> <Gold.Chemscore.Lipo>
72.7607

> <Gold.Chemscore.Internal_Hbond>
0.0000

> <Gold.Chemscore.DEClash>
0.4915

> <Gold.Chemscore.DEInternal>
0.9551

> <Gold.Chemscore.Rot>
1.8046

> <Gold.Chemscore.Internal.Correction>
   9.000000E+99

> <Gold.Chemscore.Hbonds>
donor molecule, donor type, donor heavy atom, donor atom, acceptor molecule, acceptor atom, score
      L1  H     6    31       P1  7948  0.96
      L1  H     9    32       P1  7948  0.44
      L1  H    15    43       P1  7948  0.98

> <Gold.Chemscore.Hbond.Weighted>
-9.0771

> <Gold.Chemscore.Metal.Weighted>
-0.0000

> <Gold.Chemscore.Lipo.Weighted>
-8.5130

> <Gold.Chemscore.Internal_Hbond.Weighted>
0.0000

> <Gold.Chemscore.DEClash.Weighted>
0.4915

> <Gold.Chemscore.DEInternal.Weighted>
0.9551

> <Gold.Chemscore.Rot.Weighted>
4.6197

> <Gold.Chemscore.Internal.Correction.Weighted>
   9.000000E+99

> <Gold.Protein.RotatedTorsions>
[ 6907 6896 6895 6894 ] final   48.28 input  -60.11 | X-H torsion
[ 7974 7965 7964 7962 ] final   40.46 input  175.53 | X-H torsion
[ 8008 7997 7996 7995 ] final -146.04 input   59.86 | X-H torsion
[ 10167 10162 10161 10158 ] final -133.51 input  -65.29 | X-H torsion
[ 10718 10713 10712 10709 ] final   -8.82 input   66.30 | X-H torsion
[ 10763 10752 10751 10750 ] final   46.74 input  -60.55 | X-H torsion
[ 11005 11000 10999 10996 ] final -154.00 input  -57.11 | X-H torsion

> <Gold.Protein.ActiveResidues>
 VAL166  LYS551  ARG553  GLY616  TRP617  ASP618  TYR619  PRO620  LYS621  CYS622 
 ASP623  PHE694  ASN695  SER759  ASP760  ASP761  ALA762  ILE779  LEU786  VAL792 
 PHE793  MET794  SER795  GLU796  ALA797  LYS798  CYS799  TRP800  GLU811  SER814 

> <Gold.Protein.RotatedAtoms>
  152.2778  134.7862  160.0402 H   0  0  0  0  0  0  0  0  0  0  0  0  # atno 6907 bound_to 6896
  151.8452  133.3425  159.3664 H   0  0  0  0  0  0  0  0  0  0  0  0  # atno 6908 bound_to 6896
  150.7177  134.5280  159.5730 H   0  0  0  0  0  0  0  0  0  0  0  0  # atno 6909 bound_to 6896
  146.0903  139.5530  142.9480 H   0  0  0  0  0  0  0  0  0  0  0  0  # atno 7974 bound_to 7965
  155.5529  140.0618  157.2846 H   0  0  0  0  0  0  0  0  0  0  0  0  # atno 8008 bound_to 7997
  154.4415  140.1899  156.0750 H   0  0  0  0  0  0  0  0  0  0  0  0  # atno 8009 bound_to 7997
  156.0503  140.3285  155.7347 H   0  0  0  0  0  0  0  0  0  0  0  0  # atno 8010 bound_to 7997
  139.8975  143.6647  152.2601 H   0  0  0  0  0  0  0  0  0  0  0  0  # atno 10167 bound_to 10162
  156.6970  130.5082  149.5928 H   0  0  0  0  0  0  0  0  0  0  0  0  # atno 10718 bound_to 10713
  152.9807  135.5998  154.3648 H   0  0  0  0  0  0  0  0  0  0  0  0  # atno 10763 bound_to 10752
  154.3327  135.2768  155.2465 H   0  0  0  0  0  0  0  0  0  0  0  0  # atno 10764 bound_to 10752
  154.4582  135.5972  153.6293 H   0  0  0  0  0  0  0  0  0  0  0  0  # atno 10765 bound_to 10752
  140.7021  134.3926  157.5208 H   0  0  0  0  0  0  0  0  0  0  0  0  # atno 11005 bound_to 11000
  145.6052  141.0349  143.1997 LP  0  0  0  0  0  0  0  0  0  0  0  0  # atno 17320 bound_to 7965
  144.7355  139.7598  143.7331 LP  0  0  0  0  0  0  0  0  0  0  0  0  # atno 17321 bound_to 7965
  139.7054  144.7629  151.1201 LP  0  0  0  0  0  0  0  0  0  0  0  0  # atno 17342 bound_to 10162
  140.7714  143.5401  150.9323 LP  0  0  0  0  0  0  0  0  0  0  0  0  # atno 17343 bound_to 10162
  156.1756  130.6466  151.0890 LP  0  0  0  0  0  0  0  0  0  0  0  0  # atno 17370 bound_to 10713
  157.6987  131.0784  150.6887 LP  0  0  0  0  0  0  0  0  0  0  0  0  # atno 17371 bound_to 10713
  139.8894  134.8831  156.2423 LP  0  0  0  0  0  0  0  0  0  0  0  0  # atno 17394 bound_to 11000
  141.0155  133.7071  156.1181 LP  0  0  0  0  0  0  0  0  0  0  0  0  # atno 17395 bound_to 11000

$$$$
