AV-unprocessed.smi:1933|AV-procd|sdf|7816|dock8
  -GOLD-   22720 9563D 1   1.00000     0.00000
 Structure written by MMmdl.
 47 49  0  0  0  0  0  0  0  0  1 V2000
  144.7174  137.4498  152.3574 O   0  0  0  0  0  0  0  0  0  0  0  0
  145.9053  137.1666  152.1996 C   0  0  0  0  0  0  0  0  0  0  0  0
  146.9037  138.0496  152.3444 N   0  0  0  0  0  0  0  0  0  0  0  0
  146.7459  139.4608  152.6851 C   0  0  0  0  0  0  0  0  0  0  0  0
  147.3703  139.7882  154.0681 C   0  0  1  0  0  0  0  0  0  0  0  0
  148.9211  139.9547  153.9954 C   0  0  2  0  0  0  0  0  0  0  0  0
  149.7599  138.6777  154.1092 C   0  0  0  0  0  0  0  0  0  0  0  0
  150.7972  139.0128  155.1797 C   0  0  0  0  0  0  0  0  0  0  0  0
  150.8993  140.4259  155.1313 O   0  0  0  0  0  0  0  0  0  0  0  0
  149.5822  140.9308  154.9835 C   0  0  0  0  0  0  0  0  0  0  0  0
  146.6594  140.8280  154.8405 N   0  0  0  0  0  0  0  0  0  0  0  0
  145.3322  140.4109  155.2890 C   0  0  0  0  0  0  0  0  0  0  0  0
  144.6865  141.4576  156.2110 C   0  0  0  0  0  0  0  0  0  0  0  0
  144.6182  142.7057  155.5302 O   0  0  0  0  0  0  0  0  0  0  0  0
  145.8983  143.1776  155.1235 C   0  0  0  0  0  0  0  0  0  0  0  0
  146.5768  142.1430  154.2078 C   0  0  0  0  0  0  0  0  0  0  0  0
  146.3770  135.9538  151.8604 N   0  0  0  0  0  0  0  0  0  0  0  0
  145.6416  134.7681  151.5945 C   0  0  0  0  0  0  0  0  0  0  0  0
  146.4265  133.6112  151.3863 C   0  0  0  0  0  0  0  0  0  0  0  0
  145.7926  132.3834  151.1137 C   0  0  0  0  0  0  0  0  0  0  0  0
  144.3880  132.3439  151.0557 C   0  0  0  0  0  0  0  0  0  0  0  0
  143.6815  133.5409  151.2747 C   0  0  0  0  0  0  0  0  0  0  0  0
  144.2871  134.7186  151.5363 N   0  0  0  0  0  0  0  0  0  0  0  0
  147.8479  137.7244  152.1966 H   0  0  0  0  0  0  0  0  0  0  0  0
  147.1806  140.1005  151.9161 H   0  0  0  0  0  0  0  0  0  0  0  0
  145.6756  139.6619  152.6796 H   0  0  0  0  0  0  0  0  0  0  0  0
  147.2474  138.8757  154.6535 H   0  0  0  0  0  0  0  0  0  0  0  0
  149.1413  140.3584  153.0056 H   0  0  0  0  0  0  0  0  0  0  0  0
  149.1979  137.7818  154.3707 H   0  0  0  0  0  0  0  0  0  0  0  0
  150.2547  138.4776  153.1580 H   0  0  0  0  0  0  0  0  0  0  0  0
  150.4458  138.7101  156.1670 H   0  0  0  0  0  0  0  0  0  0  0  0
  151.7590  138.5331  154.9982 H   0  0  0  0  0  0  0  0  0  0  0  0
  149.6038  141.9530  154.6057 H   0  0  0  0  0  0  0  0  0  0  0  0
  149.0926  140.9540  155.9548 H   0  0  0  0  0  0  0  0  0  0  0  0
  144.6743  140.2546  154.4344 H   0  0  0  0  0  0  0  0  0  0  0  0
  145.3984  139.4585  155.8157 H   0  0  0  0  0  0  0  0  0  0  0  0
  143.6793  141.1482  156.4898 H   0  0  0  0  0  0  0  0  0  0  0  0
  145.2571  141.5662  157.1347 H   0  0  0  0  0  0  0  0  0  0  0  0
  145.7794  144.1261  154.5998 H   0  0  0  0  0  0  0  0  0  0  0  0
  146.5146  143.3733  156.0026 H   0  0  0  0  0  0  0  0  0  0  0  0
  147.5708  142.5148  153.9750 H   0  0  0  0  0  0  0  0  0  0  0  0
  146.0260  142.0764  153.2692 H   0  0  0  0  0  0  0  0  0  0  0  0
  147.3788  135.8708  151.7731 H   0  0  0  0  0  0  0  0  0  0  0  0
  147.5047  133.6593  151.4341 H   0  0  0  0  0  0  0  0  0  0  0  0
  146.3746  131.4881  150.9520 H   0  0  0  0  0  0  0  0  0  0  0  0
  143.8659  131.4214  150.8493 H   0  0  0  0  0  0  0  0  0  0  0  0
  142.6023  133.5540  151.2395 H   0  0  0  0  0  0  0  0  0  0  0  0
  1  2  2  0  0  0  0
  2  3  1  0  0  0  0
  2 17  1  0  0  0  0
  3  4  1  0  0  0  0
  3 24  1  0  0  0  0
  4  5  1  0  0  0  0
  4 25  1  0  0  0  0
  4 26  1  0  0  0  0
  5  6  1  0  0  0  0
  5 11  1  0  0  0  0
  5 27  1  0  0  0  0
  6 10  1  0  0  0  0
  6  7  1  0  0  0  0
  6 28  1  0  0  0  0
  7  8  1  0  0  0  0
  7 29  1  0  0  0  0
  7 30  1  0  0  0  0
  8  9  1  0  0  0  0
  8 31  1  0  0  0  0
  8 32  1  0  0  0  0
  9 10  1  0  0  0  0
 10 33  1  0  0  0  0
 10 34  1  0  0  0  0
 11 16  1  0  0  0  0
 11 12  1  0  0  0  0
 12 13  1  0  0  0  0
 12 35  1  0  0  0  0
 12 36  1  0  0  0  0
 13 14  1  0  0  0  0
 13 37  1  0  0  0  0
 13 38  1  0  0  0  0
 14 15  1  0  0  0  0
 15 16  1  0  0  0  0
 15 39  1  0  0  0  0
 15 40  1  0  0  0  0
 16 41  1  0  0  0  0
 16 42  1  0  0  0  0
 17 18  1  0  0  0  0
 17 43  1  0  0  0  0
 18 23  1  0  0  0  0
 18 19  2  0  0  0  0
 19 20  1  0  0  0  0
 19 44  1  0  0  0  0
 20 21  2  0  0  0  0
 20 45  1  0  0  0  0
 21 22  1  0  0  0  0
 21 46  1  0  0  0  0
 22 23  2  0  0  0  0
 22 47  1  0  0  0  0
M  END
> <s_m_source_file>
AV-unprocessed.smi

> <i_m_source_file_index>
1933

> <i_lp_mmshare_version>
43012

> <i_f3d_flags>
0

> <s_epik_input>
bjFbY0hdW2NIXVtjSF1bY0hdYzFbTkhdQyg9TylbTkhdW0NIMl1bQ0BIXShbQ0BASF0yW0NIMl1bQ0gyXU9bQ0gyXTIpTjNbQ0gyXVtDSDJdT1tDSDJdW0NIMl0z

> <s_epik_cmdline>
J2VwaWtfcHl0aG9uJywgJy1waCcsICc3LjAnLCAnLXRuJywgJzgnLCAnLW1hJywgJzIwMCcsICctbWV0YWxfYmluZGluZycsICctaW1hZScsICc8aW5maWxlLm1hZT4nLCAnLW9tYWUnLCAnPG91dGZpbGUubWFlPic=

> <r_epik_Ionization_Penalty>
0.125062

> <r_epik_Ionization_Penalty_Charging>
0

> <r_epik_Ionization_Penalty_Neutral>
0.125062

> <r_epik_State_Penalty>
0.114484

> <r_epik_Charging_Adjusted_Penalty>
0.114484

> <i_epik_Tot_Q>
0

> <i_epik_Tot_abs_Q>
0

> <r_epik_Metal_State_Penalty>
0.114484

> <b_epik_Metal_Only>
0

> <s_lp_Force_Field>
OPLS_2005

> <r_lp_Energy>
56.3046

> <b_lp_Chiralities_Consistent>
1

> <s_lp_Variant>
AV-unprocessed.smi:1933-2

> <Gold.Version>
5.8.1

> <Gold.Id.Protein>
6NUR|6NUR_protein|mol2

> <Gold.PLP.Fitness>
46.0077

> <Gold.PLP.PLP>
-36.7147

> <Gold.PLP.part.hbond>
-3.0000

> <Gold.PLP.part.metal>
0.0000

> <Gold.PLP.part.buried>
-3.8457

> <Gold.PLP.part.nonpolar>
-32.0489

> <Gold.PLP.part.repulsive>
1.9903

> <Gold.PLP.ligand.clash>
0.0000

> <Gold.PLP.ligand.torsion>
1.4346

> <Gold.PLP.Chemscore.Hbond>
2.9280

> <Gold.PLP.Chemscore.CHOScore>
1.0000

> <Gold.PLP.Chemscore.Metal>
0.0000

> <Gold.Chemscore.Hbonds>
donor molecule, donor type, donor heavy atom, donor atom, acceptor molecule, acceptor atom, score
      L1  H     3    24       P1  7948  0.93
      L1  H    17    43       P1  7948  1.00
      P1  H  7989  7998       L1     9  1.00
      L1  C    22    47       P1 10186  1.00

> <Gold.PLP.Chemscore.Internal.Correction>
0.3782

> <Gold.Rescore>
     Score         DG    S(hbond)    S(metal)    S(lipo)     H(rot)  DE(clash)    DE(int)     intcor
     14.97     -18.52       2.34        0.00      82.09       1.72       0.95       2.61       ----

> <Gold.Chemscore.Fitness>
14.9662

> <Gold.Chemscore.DG>
-18.5205

> <Gold.Chemscore.ZeroCoef>
-5.4800

> <Gold.Chemscore.Hbond>
2.3442

> <Gold.Chemscore.Metal>
0.0000

> <Gold.Chemscore.Lipo>
82.0868

> <Gold.Chemscore.Internal_Hbond>
0.0000

> <Gold.Chemscore.DEClash>
0.9469

> <Gold.Chemscore.DEInternal>
2.6074

> <Gold.Chemscore.Rot>
1.7161

> <Gold.Chemscore.Internal.Correction>
   9.000000E+99

> <Gold.Chemscore.Hbonds>
donor molecule, donor type, donor heavy atom, donor atom, acceptor molecule, acceptor atom, score
      L1  H     3    24       P1  7948  0.91
      L1  H    17    43       P1  7948  0.98
      P1  H  7989  7998       L1     9  0.19

> <Gold.Chemscore.Hbond.Weighted>
-7.8296

> <Gold.Chemscore.Metal.Weighted>
-0.0000

> <Gold.Chemscore.Lipo.Weighted>
-9.6042

> <Gold.Chemscore.Internal_Hbond.Weighted>
0.0000

> <Gold.Chemscore.DEClash.Weighted>
0.9469

> <Gold.Chemscore.DEInternal.Weighted>
2.6074

> <Gold.Chemscore.Rot.Weighted>
4.3932

> <Gold.Chemscore.Internal.Correction.Weighted>
   9.000000E+99

> <Gold.Protein.RotatedTorsions>
[ 6907 6896 6895 6894 ] final   -7.36 input  -60.11 | X-H torsion
[ 7974 7965 7964 7962 ] final   -1.87 input  175.53 | X-H torsion
[ 8008 7997 7996 7995 ] final -161.36 input   59.86 | X-H torsion
[ 10167 10162 10161 10158 ] final   -6.92 input  -65.29 | X-H torsion
[ 10718 10713 10712 10709 ] final  -37.55 input   66.30 | X-H torsion
[ 10763 10752 10751 10750 ] final   -3.34 input  -60.55 | X-H torsion
[ 11005 11000 10999 10996 ] final  133.42 input  -57.11 | X-H torsion

> <Gold.Protein.ActiveResidues>
 VAL166  LYS551  ARG553  GLY616  TRP617  ASP618  TYR619  PRO620  LYS621  CYS622 
 ASP623  PHE694  ASN695  SER759  ASP760  ASP761  ALA762  ILE779  LEU786  VAL792 
 PHE793  MET794  SER795  GLU796  ALA797  LYS798  CYS799  TRP800  GLU811  SER814 

> <Gold.Protein.RotatedAtoms>
  151.4509  135.1029  159.9697 H   0  0  0  0  0  0  0  0  0  0  0  0  # atno 6907 bound_to 6896
  152.4888  133.8441  159.7178 H   0  0  0  0  0  0  0  0  0  0  0  0  # atno 6908 bound_to 6896
  150.9023  133.7043  159.2903 H   0  0  0  0  0  0  0  0  0  0  0  0  # atno 6909 bound_to 6896
  146.2412  140.1485  142.8334 H   0  0  0  0  0  0  0  0  0  0  0  0  # atno 7974 bound_to 7965
  155.7911  140.0878  157.2008 H   0  0  0  0  0  0  0  0  0  0  0  0  # atno 8008 bound_to 7997
  154.3985  140.1490  156.3222 H   0  0  0  0  0  0  0  0  0  0  0  0  # atno 8009 bound_to 7997
  155.8558  140.3432  155.5726 H   0  0  0  0  0  0  0  0  0  0  0  0  # atno 8010 bound_to 7997
  140.7012  143.6139  150.8677 H   0  0  0  0  0  0  0  0  0  0  0  0  # atno 10167 bound_to 10162
  156.3140  130.4256  149.8023 H   0  0  0  0  0  0  0  0  0  0  0  0  # atno 10718 bound_to 10713
  153.3700  135.6994  153.6645 H   0  0  0  0  0  0  0  0  0  0  0  0  # atno 10763 bound_to 10752
  153.5299  135.3594  155.2671 H   0  0  0  0  0  0  0  0  0  0  0  0  # atno 10764 bound_to 10752
  154.8680  135.4178  154.2976 H   0  0  0  0  0  0  0  0  0  0  0  0  # atno 10765 bound_to 10752
  139.9851  134.9535  156.9722 H   0  0  0  0  0  0  0  0  0  0  0  0  # atno 11005 bound_to 11000
  145.0187  140.8776  143.5180 LP  0  0  0  0  0  0  0  0  0  0  0  0  # atno 17320 bound_to 7965
  145.1530  139.2503  143.5431 LP  0  0  0  0  0  0  0  0  0  0  0  0  # atno 17321 bound_to 7965
  139.9862  143.5897  152.2926 LP  0  0  0  0  0  0  0  0  0  0  0  0  # atno 17342 bound_to 10162
  139.6536  144.7661  151.2100 LP  0  0  0  0  0  0  0  0  0  0  0  0  # atno 17343 bound_to 10162
  156.5356  130.8277  151.3252 LP  0  0  0  0  0  0  0  0  0  0  0  0  # atno 17370 bound_to 10713
  157.7397  130.9837  150.2332 LP  0  0  0  0  0  0  0  0  0  0  0  0  # atno 17371 bound_to 10713
  140.5019  134.1089  155.7252 LP  0  0  0  0  0  0  0  0  0  0  0  0  # atno 17394 bound_to 11000
  141.1517  133.8957  157.2081 LP  0  0  0  0  0  0  0  0  0  0  0  0  # atno 17395 bound_to 11000

$$$$
