AV-unprocessed.smi:157|AV-procd|sdf|1293|dock5
  -GOLD-   2262018573D 1   1.00000     0.00000
 Structure written by MMmdl.
 35 37  0  0  0  0  0  0  0  0  1 V2000
  153.5176  139.1594  155.7262 O   0  0  0  0  0  0  0  0  0  0  0  0
  152.5943  138.6957  154.7643 C   0  0  0  0  0  0  0  0  0  0  0  0
  151.1679  139.0950  155.1703 C   0  0  1  0  0  0  0  0  0  0  0  0
  151.0518  140.5149  155.1899 O   0  0  0  0  0  0  0  0  0  0  0  0
  149.7269  140.8935  154.9556 C   0  0  2  0  0  0  0  0  0  0  0  0
  149.1386  141.4191  156.2307 N   0  0  0  0  0  0  0  0  0  0  0  0
  149.7544  141.5261  157.4165 C   0  0  0  0  0  0  0  0  0  0  0  0
  149.0027  142.0250  158.3830 N   0  0  0  0  0  0  0  0  0  0  0  0
  147.7752  142.2596  157.7669 C   0  0  0  0  0  0  0  0  0  0  0  0
  147.8351  141.8816  156.4332 C   0  0  0  0  0  0  0  0  0  0  0  0
  146.9659  141.8743  155.3589 N   0  0  0  0  0  0  0  0  0  0  0  0
  145.6969  141.9814  155.5989 C   0  0  0  0  0  0  0  0  0  0  0  0
  145.0242  142.2017  156.7924 N   0  0  0  0  0  0  0  0  0  0  0  0
  145.4037  143.2256  157.7509 C   0  0  0  0  0  0  0  0  0  0  0  0
  146.6571  142.8714  158.5595 C   0  0  1  0  0  0  0  0  0  0  0  0
  146.3158  141.9482  159.5732 O   0  0  0  0  0  0  0  0  0  0  0  0
  148.9683  139.6398  154.5076 C   0  0  0  0  0  0  0  0  0  0  0  0
  150.1025  138.7022  154.1454 C   0  0  2  0  0  0  0  0  0  0  0  0
  149.7020  137.3532  154.2711 O   0  0  0  0  0  0  0  0  0  0  0  0
  150.9053  138.6908  156.1500 H   0  0  0  0  0  0  0  0  0  0  0  0
  149.6905  141.7214  154.2468 H   0  0  0  0  0  0  0  0  0  0  0  0
  147.0099  143.7736  159.0605 H   0  0  0  0  0  0  0  0  0  0  0  0
  150.4494  138.9024  153.1306 H   0  0  0  0  0  0  0  0  0  0  0  0
  153.9079  138.4120  156.1528 H   0  0  0  0  0  0  0  0  0  0  0  0
  152.8478  139.0805  153.7760 H   0  0  0  0  0  0  0  0  0  0  0  0
  152.6830  137.6098  154.7221 H   0  0  0  0  0  0  0  0  0  0  0  0
  150.7816  141.2351  157.5788 H   0  0  0  0  0  0  0  0  0  0  0  0
  145.0041  141.8983  154.7605 H   0  0  0  0  0  0  0  0  0  0  0  0
  144.0311  142.0224  156.8241 H   0  0  0  0  0  0  0  0  0  0  0  0
  145.5944  144.1414  157.1894 H   0  0  0  0  0  0  0  0  0  0  0  0
  144.5646  143.4432  158.4123 H   0  0  0  0  0  0  0  0  0  0  0  0
  145.5229  142.2495  159.9903 H   0  0  0  0  0  0  0  0  0  0  0  0
  148.3832  139.2431  155.3399 H   0  0  0  0  0  0  0  0  0  0  0  0
  148.2982  139.8605  153.6763 H   0  0  0  0  0  0  0  0  0  0  0  0
  149.7345  136.9494  153.4173 H   0  0  0  0  0  0  0  0  0  0  0  0
  1  2  1  0  0  0  0
  1 24  1  0  0  0  0
  2  3  1  0  0  0  0
  2 25  1  0  0  0  0
  2 26  1  0  0  0  0
  3 20  1  0  0  0  0
  3 18  1  0  0  0  0
  3  4  1  0  0  0  0
  4  5  1  0  0  0  0
  5 21  1  0  0  0  0
  5  6  1  0  0  0  0
  5 17  1  0  0  0  0
  6 10  1  0  0  0  0
  6  7  1  0  0  0  0
  7  8  2  0  0  0  0
  7 27  1  0  0  0  0
  8  9  1  0  0  0  0
  9 15  1  0  0  0  0
  9 10  2  0  0  0  0
 10 11  1  0  0  0  0
 11 12  2  0  0  0  0
 12 13  1  0  0  0  0
 12 28  1  0  0  0  0
 13 14  1  0  0  0  0
 13 29  1  0  0  0  0
 14 15  1  0  0  0  0
 14 30  1  0  0  0  0
 14 31  1  0  0  0  0
 15 22  1  0  0  0  0
 15 16  1  0  0  0  0
 16 32  1  0  0  0  0
 17 18  1  0  0  0  0
 17 33  1  0  0  0  0
 17 34  1  0  0  0  0
 18 23  1  0  0  0  0
 18 19  1  0  0  0  0
 19 35  1  0  0  0  0
M  END
> <s_m_source_file>
AV-unprocessed.smi

> <i_m_source_file_index>
157

> <i_lp_mmshare_version>
43012

> <i_f3d_flags>
0

> <s_epik_input>
W09IXVtDSDJdW0NASF0xT1tDQEhdKFtDSDJdW0NAQEhdMVtPSF0pbihbY0hdbjIpYyhjMjMpTj1bQ0hdW05IXVtDSDJdW0NASF0zW09IXQ==

> <s_epik_cmdline>
J2VwaWtfcHl0aG9uJywgJy1waCcsICc3LjAnLCAnLXRuJywgJzgnLCAnLW1hJywgJzIwMCcsICctbWV0YWxfYmluZGluZycsICctaW1hZScsICc8aW5maWxlLm1hZT4nLCAnLW9tYWUnLCAnPG91dGZpbGUubWFlPic=

> <r_lp_tautomer_probability>
1

> <r_epik_Ionization_Penalty>
0.0357149

> <r_epik_Ionization_Penalty_Charging>
0.0355056

> <r_epik_Ionization_Penalty_Neutral>
0.000209255

> <r_epik_State_Penalty>
0.0296046

> <r_epik_Charging_Adjusted_Penalty>
0.0651102

> <i_epik_Tot_Q>
0

> <i_epik_Tot_abs_Q>
0

> <r_epik_Metal_State_Penalty>
3.03559e-05

> <b_epik_Metal_Only>
0

> <s_epik_Chemistry_Notes>
This compound has an imine and may undergo hydrolysis. This compound contains an acetal/aminal-like group ( X-CH(R)-Y where X, Y are N, S, or O) that may be acid/base labile, releasing an aldehyde.

> <s_lp_Force_Field>
OPLS_2005

> <r_lp_Energy>
43.2358

> <b_lp_Chiralities_Consistent>
1

> <s_lp_Variant>
AV-unprocessed.smi:157-3

> <Gold.Version>
5.8.1

> <Gold.Id.Protein>
6NUR|6NUR_protein|mol2

> <Gold.PLP.Fitness>
39.3260

> <Gold.PLP.PLP>
-27.7788

> <Gold.PLP.part.hbond>
-3.8781

> <Gold.PLP.part.metal>
0.0000

> <Gold.PLP.part.buried>
-3.7367

> <Gold.PLP.part.nonpolar>
-20.3250

> <Gold.PLP.part.repulsive>
0.2785

> <Gold.PLP.ligand.clash>
0.0000

> <Gold.PLP.ligand.torsion>
0.0109

> <Gold.PLP.Chemscore.Hbond>
3.8500

> <Gold.PLP.Chemscore.CHOScore>
0.0000

> <Gold.PLP.Chemscore.Metal>
0.0000

> <Gold.Chemscore.Hbonds>
donor molecule, donor type, donor heavy atom, donor atom, acceptor molecule, acceptor atom, score
      L1  H    19    35       P1  7948  1.00
      P1  H  6934  6946       L1    16  1.00
      P1  H  7989  7998       L1     4  0.78
      P1  H  7997  8008       L1     1  0.57

> <Gold.PLP.Chemscore.Internal.Correction>
0.0190

> <Gold.Rescore>
     Score         DG    S(hbond)    S(metal)    S(lipo)     H(rot)  DE(clash)    DE(int)     intcor
      9.48      -9.58       2.89        0.00      32.08       3.64       0.07       0.03       ----

> <Gold.Chemscore.Fitness>
9.4794

> <Gold.Chemscore.DG>
-9.5806

> <Gold.Chemscore.ZeroCoef>
-5.4800

> <Gold.Chemscore.Hbond>
2.8911

> <Gold.Chemscore.Metal>
0.0000

> <Gold.Chemscore.Lipo>
32.0787

> <Gold.Chemscore.Internal_Hbond>
0.0000

> <Gold.Chemscore.DEClash>
0.0688

> <Gold.Chemscore.DEInternal>
0.0323

> <Gold.Chemscore.Rot>
3.6362

> <Gold.Chemscore.Internal.Correction>
   9.000000E+99

> <Gold.Chemscore.Hbonds>
donor molecule, donor type, donor heavy atom, donor atom, acceptor molecule, acceptor atom, score
      L1  H    19    35       P1  7948  0.54
      P1  H  6934  6946       L1    16  0.34
      P1  H  7989  7998       L1     4  0.03
      P1  H  7997  8008       L1     1  0.16

> <Gold.Chemscore.Hbond.Weighted>
-9.6561

> <Gold.Chemscore.Metal.Weighted>
-0.0000

> <Gold.Chemscore.Lipo.Weighted>
-3.7532

> <Gold.Chemscore.Internal_Hbond.Weighted>
0.0000

> <Gold.Chemscore.DEClash.Weighted>
0.0688

> <Gold.Chemscore.DEInternal.Weighted>
0.0323

> <Gold.Chemscore.Rot.Weighted>
9.3087

> <Gold.Chemscore.Internal.Correction.Weighted>
   9.000000E+99

> <Gold.Protein.RotatedTorsions>
[ 6907 6896 6895 6894 ] final -126.21 input  -60.11 | X-H torsion
[ 7974 7965 7964 7962 ] final    1.95 input  175.53 | X-H torsion
[ 8008 7997 7996 7995 ] final  -26.92 input   59.86 | X-H torsion
[ 10167 10162 10161 10158 ] final   62.13 input  -65.29 | X-H torsion
[ 10718 10713 10712 10709 ] final -177.57 input   66.30 | X-H torsion
[ 10763 10752 10751 10750 ] final  112.76 input  -60.55 | X-H torsion
[ 11005 11000 10999 10996 ] final  150.50 input  -57.11 | X-H torsion

> <Gold.Protein.ActiveResidues>
 VAL166  LYS551  ARG553  GLY616  TRP617  ASP618  TYR619  PRO620  LYS621  CYS622 
 ASP623  PHE694  ASN695  SER759  ASP760  ASP761  ALA762  ILE779  LEU786  VAL792 
 PHE793  MET794  SER795  GLU796  ALA797  LYS798  CYS799  TRP800  GLU811  SER814 

> <Gold.Protein.RotatedAtoms>
  150.8946  133.7198  159.2895 H   0  0  0  0  0  0  0  0  0  0  0  0  # atno 6907 bound_to 6896
  151.4736  135.1046  159.9768 H   0  0  0  0  0  0  0  0  0  0  0  0  # atno 6908 bound_to 6896
  152.4841  133.8280  159.7144 H   0  0  0  0  0  0  0  0  0  0  0  0  # atno 6909 bound_to 6896
  146.2442  140.0910  142.8352 H   0  0  0  0  0  0  0  0  0  0  0  0  # atno 7974 bound_to 7965
  154.4402  140.1886  156.0850 H   0  0  0  0  0  0  0  0  0  0  0  0  # atno 8008 bound_to 7997
  156.0409  140.3320  155.7217 H   0  0  0  0  0  0  0  0  0  0  0  0  # atno 8009 bound_to 7997
  155.5700  140.0611  157.2799 H   0  0  0  0  0  0  0  0  0  0  0  0  # atno 8010 bound_to 7997
  140.1472  144.4497  150.6778 H   0  0  0  0  0  0  0  0  0  0  0  0  # atno 10167 bound_to 10162
  156.8314  130.9654  151.3106 H   0  0  0  0  0  0  0  0  0  0  0  0  # atno 10718 bound_to 10713
  153.4826  135.3676  155.2450 H   0  0  0  0  0  0  0  0  0  0  0  0  # atno 10763 bound_to 10752
  154.8755  135.3958  154.3682 H   0  0  0  0  0  0  0  0  0  0  0  0  # atno 10764 bound_to 10752
  153.4288  135.7082  153.6310 H   0  0  0  0  0  0  0  0  0  0  0  0  # atno 10765 bound_to 10752
  140.1137  134.8908  157.1973 H   0  0  0  0  0  0  0  0  0  0  0  0  # atno 11005 bound_to 11000
  145.0651  140.9115  143.4915 LP  0  0  0  0  0  0  0  0  0  0  0  0  # atno 17320 bound_to 7965
  145.1032  139.2808  143.5675 LP  0  0  0  0  0  0  0  0  0  0  0  0  # atno 17321 bound_to 7965
  140.6724  143.2291  151.5591 LP  0  0  0  0  0  0  0  0  0  0  0  0  # atno 17342 bound_to 10162
  139.5443  144.2563  152.1412 LP  0  0  0  0  0  0  0  0  0  0  0  0  # atno 17343 bound_to 10162
  157.6405  130.8801  149.9439 LP  0  0  0  0  0  0  0  0  0  0  0  0  # atno 17370 bound_to 10713
  156.0932  130.3661  150.0355 LP  0  0  0  0  0  0  0  0  0  0  0  0  # atno 17371 bound_to 10713
  140.3057  134.3081  155.7279 LP  0  0  0  0  0  0  0  0  0  0  0  0  # atno 17394 bound_to 11000
  141.2136  133.7619  156.9704 LP  0  0  0  0  0  0  0  0  0  0  0  0  # atno 17395 bound_to 11000

$$$$
