AV-unprocessed.smi:287|AV-procd|sdf|2199|dock9
  -GOLD-   2262022 13D 1   1.00000     0.00000
 Structure written by MMmdl.
 55 58  0  0  0  0  0  0  0  0  1 V2000
  152.0869  141.4296  158.7996 C   0  0  0  0  0  0  0  0  0  0  0  0
  151.5528  140.7619  157.5791 C   0  0  0  0  0  0  0  0  0  0  0  0
  150.3117  140.6693  157.0204 C   0  0  0  0  0  0  0  0  0  0  0  0
  150.4325  139.8739  155.8419 C   0  0  0  0  0  0  0  0  0  0  0  0
  149.2964  139.4978  154.8997 C   0  0  1  0  0  0  0  0  0  0  0  0
  148.5920  140.7691  154.3984 C   0  0  0  0  0  0  0  0  0  0  0  0
  149.7453  138.8336  153.7341 O   0  0  0  0  0  0  0  0  0  0  0  0
  148.2734  138.5484  155.5651 C   0  0  0  0  0  0  0  0  0  0  0  0
  147.1990  138.1550  154.6597 N   0  0  0  0  0  0  0  0  0  0  0  0
  146.7990  136.8684  154.5942 C   0  0  0  0  0  0  0  0  0  0  0  0
  147.1135  135.9847  155.5769 N   0  0  0  0  0  0  0  0  0  0  0  0
  146.7081  134.7146  155.4839 C   0  0  0  0  0  0  0  0  0  0  0  0
  145.9964  134.1347  154.5151 N   0  0  0  0  0  0  0  0  0  0  0  0
  145.6750  135.0198  153.5273 C   0  0  0  0  0  0  0  0  0  0  0  0
  146.0377  136.3950  153.4951 C   0  0  0  0  0  0  0  0  0  0  0  0
  145.5432  136.9873  152.3406 N   0  0  0  0  0  0  0  0  0  0  0  0
  144.9226  136.0147  151.7290 C   0  0  0  0  0  0  0  0  0  0  0  0
  144.9515  134.7973  152.3726 N   0  0  0  0  0  0  0  0  0  0  0  0
  144.3295  133.5172  151.9197 C   0  0  1  0  0  0  0  0  0  0  0  0
  143.6972  133.7449  150.7012 O   0  0  0  0  0  0  0  0  0  0  0  0
  143.8203  132.5846  149.8920 C   0  0  1  0  0  0  0  0  0  0  0  0
  143.5675  132.9172  148.4113 C   0  0  0  0  0  0  0  0  0  0  0  0
  142.5523  132.0835  147.8950 O   0  0  0  0  0  0  0  0  0  0  0  0
  145.2264  132.0649  150.2304 C   0  0  1  0  0  0  0  0  0  0  0  0
  146.2209  132.6949  149.4445 O   0  0  0  0  0  0  0  0  0  0  0  0
  145.3968  132.4298  151.7036 C   0  0  2  0  0  0  0  0  0  0  0  0
  145.1318  131.2945  152.5039 O   0  0  0  0  0  0  0  0  0  0  0  0
  151.7671  139.5532  155.7710 C   0  0  0  0  0  0  0  0  0  0  0  0
  152.5966  138.7664  154.8103 C   0  0  0  0  0  0  0  0  0  0  0  0
  152.4520  140.0853  156.8218 O   0  0  0  0  0  0  0  0  0  0  0  0
  143.5977  133.2702  152.6906 H   0  0  0  0  0  0  0  0  0  0  0  0
  143.0955  131.8457  150.2400 H   0  0  0  0  0  0  0  0  0  0  0  0
  145.3057  130.9914  150.0524 H   0  0  0  0  0  0  0  0  0  0  0  0
  146.3975  132.8028  151.9304 H   0  0  0  0  0  0  0  0  0  0  0  0
  151.2764  141.8189  159.4159 H   0  0  0  0  0  0  0  0  0  0  0  0
  152.7373  142.2618  158.5309 H   0  0  0  0  0  0  0  0  0  0  0  0
  152.6632  140.7286  159.4037 H   0  0  0  0  0  0  0  0  0  0  0  0
  149.4119  141.1157  157.4171 H   0  0  0  0  0  0  0  0  0  0  0  0
  148.1707  141.3407  155.2262 H   0  0  0  0  0  0  0  0  0  0  0  0
  147.7742  140.5314  153.7168 H   0  0  0  0  0  0  0  0  0  0  0  0
  149.2852  141.4234  153.8679 H   0  0  0  0  0  0  0  0  0  0  0  0
  149.8097  139.4660  153.0351 H   0  0  0  0  0  0  0  0  0  0  0  0
  148.7917  137.6366  155.8660 H   0  0  0  0  0  0  0  0  0  0  0  0
  147.8629  138.9887  156.4751 H   0  0  0  0  0  0  0  0  0  0  0  0
  146.8492  138.8788  154.0478 H   0  0  0  0  0  0  0  0  0  0  0  0
  146.9948  134.0706  156.3019 H   0  0  0  0  0  0  0  0  0  0  0  0
  144.4194  136.1612  150.7844 H   0  0  0  0  0  0  0  0  0  0  0  0
  143.2993  133.9661  148.2801 H   0  0  0  0  0  0  0  0  0  0  0  0
  144.4678  132.7337  147.8246 H   0  0  0  0  0  0  0  0  0  0  0  0
  142.1947  132.4892  147.1199 H   0  0  0  0  0  0  0  0  0  0  0  0
  145.8647  133.4947  149.0901 H   0  0  0  0  0  0  0  0  0  0  0  0
  145.6783  131.3353  153.2735 H   0  0  0  0  0  0  0  0  0  0  0  0
  152.5000  139.1648  153.8003 H   0  0  0  0  0  0  0  0  0  0  0  0
  152.2839  137.7224  154.7957 H   0  0  0  0  0  0  0  0  0  0  0  0
  153.6518  138.7959  155.0823 H   0  0  0  0  0  0  0  0  0  0  0  0
  1  2  1  0  0  0  0
  1 35  1  0  0  0  0
  1 36  1  0  0  0  0
  1 37  1  0  0  0  0
  2 30  1  0  0  0  0
  2  3  2  0  0  0  0
  3  4  1  0  0  0  0
  3 38  1  0  0  0  0
  4  5  1  0  0  0  0
  4 28  2  0  0  0  0
  5  6  1  0  0  0  0
  5  7  1  0  0  0  0
  5  8  1  0  0  0  0
  6 39  1  0  0  0  0
  6 40  1  0  0  0  0
  6 41  1  0  0  0  0
  7 42  1  0  0  0  0
  8  9  1  0  0  0  0
  8 43  1  0  0  0  0
  8 44  1  0  0  0  0
  9 10  1  0  0  0  0
  9 45  1  0  0  0  0
 10 15  1  0  0  0  0
 10 11  2  0  0  0  0
 11 12  1  0  0  0  0
 12 13  2  0  0  0  0
 12 46  1  0  0  0  0
 13 14  1  0  0  0  0
 14 18  1  0  0  0  0
 14 15  2  0  0  0  0
 15 16  1  0  0  0  0
 16 17  2  0  0  0  0
 17 18  1  0  0  0  0
 17 47  1  0  0  0  0
 18 19  1  0  0  0  0
 19 31  1  0  0  0  0
 19 26  1  0  0  0  0
 19 20  1  0  0  0  0
 20 21  1  0  0  0  0
 21 32  1  0  0  0  0
 21 22  1  0  0  0  0
 21 24  1  0  0  0  0
 22 23  1  0  0  0  0
 22 48  1  0  0  0  0
 22 49  1  0  0  0  0
 23 50  1  0  0  0  0
 24 33  1  0  0  0  0
 24 25  1  0  0  0  0
 24 26  1  0  0  0  0
 25 51  1  0  0  0  0
 26 34  1  0  0  0  0
 26 27  1  0  0  0  0
 27 52  1  0  0  0  0
 28 29  1  0  0  0  0
 28 30  1  0  0  0  0
 29 53  1  0  0  0  0
 29 54  1  0  0  0  0
 29 55  1  0  0  0  0
M  END
> <s_m_source_file>
AV-unprocessed.smi

> <i_m_source_file_index>
287

> <i_lp_mmshare_version>
43012

> <i_f3d_flags>
0

> <s_epik_input>
W0NIM11jMVtjSF1jKGMobzEpW0NIM10pW0NAQF0oW0NIM10pKFtPSF0pW0NIMl1bTkhdYyhuW2NIXW4yKWMoYzIzKW5bY0hdbjNbQ0BASF00T1tDQEhdKFtDSDJdW09IXSlbQ0BASF0oW09IXSlbQ0BIXTRbT0hd

> <s_epik_cmdline>
J2VwaWtfcHl0aG9uJywgJy1waCcsICc3LjAnLCAnLXRuJywgJzgnLCAnLW1hJywgJzIwMCcsICctbWV0YWxfYmluZGluZycsICctaW1hZScsICc8aW5maWxlLm1hZT4nLCAnLW9tYWUnLCAnPG91dGZpbGUubWFlPic=

> <r_lp_tautomer_probability>
1

> <r_epik_Ionization_Penalty>
0.000992612

> <r_epik_Ionization_Penalty_Charging>
0

> <r_epik_Ionization_Penalty_Neutral>
0.000992612

> <r_epik_State_Penalty>
-0

> <r_epik_Charging_Adjusted_Penalty>
0

> <i_epik_Tot_Q>
0

> <i_epik_Tot_abs_Q>
0

> <r_epik_Metal_State_Penalty>
-0

> <b_epik_Metal_Only>
0

> <s_epik_Chemistry_Notes>
This compound contains an acetal/aminal-like group ( X-CH(R)-Y where X, Y are N, S, or O) that may be acid/base labile, releasing an aldehyde.

> <s_lp_Force_Field>
OPLS_2005

> <r_lp_Energy>
38.8116

> <b_lp_Chiralities_Consistent>
1

> <s_lp_Variant>
AV-unprocessed.smi:287-23

> <Gold.Version>
5.8.1

> <Gold.Id.Protein>
6NUR|6NUR_protein|mol2

> <Gold.PLP.Fitness>
56.6639

> <Gold.PLP.PLP>
-45.3259

> <Gold.PLP.part.hbond>
-7.4513

> <Gold.PLP.part.metal>
0.0000

> <Gold.PLP.part.buried>
-2.7971

> <Gold.PLP.part.nonpolar>
-35.6093

> <Gold.PLP.part.repulsive>
1.1880

> <Gold.PLP.ligand.clash>
0.0000

> <Gold.PLP.ligand.torsion>
1.0250

> <Gold.PLP.Chemscore.Hbond>
3.8966

> <Gold.PLP.Chemscore.CHOScore>
0.5384

> <Gold.PLP.Chemscore.Metal>
0.0000

> <Gold.Chemscore.Hbonds>
donor molecule, donor type, donor heavy atom, donor atom, acceptor molecule, acceptor atom, score
      L1  H     7    42       P1  7957  1.00
      L1  H    23    50       P1 10195  1.00
      L1  H    25    51       P1  7921  0.53
      P1  H  7997  8010       L1    30  1.00
      P1  H 10785 10796       L1    23  0.38
      L1  C    17    47       P1 10171  0.59

> <Gold.PLP.Chemscore.Internal.Correction>
0.0834

> <Gold.Rescore>
     Score         DG    S(hbond)    S(metal)    S(lipo)     H(rot)  DE(clash)    DE(int)     intcor
     12.06     -14.11       3.13        0.00      99.56       5.27       0.24       1.80       ----

> <Gold.Chemscore.Fitness>
12.0637

> <Gold.Chemscore.DG>
-14.1064

> <Gold.Chemscore.ZeroCoef>
-5.4800

> <Gold.Chemscore.Hbond>
3.1324

> <Gold.Chemscore.Metal>
0.0000

> <Gold.Chemscore.Lipo>
99.5576

> <Gold.Chemscore.Internal_Hbond>
0.0000

> <Gold.Chemscore.DEClash>
0.2428

> <Gold.Chemscore.DEInternal>
1.7999

> <Gold.Chemscore.Rot>
5.2672

> <Gold.Chemscore.Internal.Correction>
   9.000000E+99

> <Gold.Chemscore.Hbonds>
donor molecule, donor type, donor heavy atom, donor atom, acceptor molecule, acceptor atom, score
      L1  H     7    42       P1  7957  0.95
      L1  H    23    50       P1 10195  1.00
      L1  H    25    51       P1  7921  0.04
      P1  H  7997  8010       L1    30  0.88
      P1  H 10785 10796       L1    23  0.12

> <Gold.Chemscore.Hbond.Weighted>
-10.4621

> <Gold.Chemscore.Metal.Weighted>
-0.0000

> <Gold.Chemscore.Lipo.Weighted>
-11.6482

> <Gold.Chemscore.Internal_Hbond.Weighted>
0.0000

> <Gold.Chemscore.DEClash.Weighted>
0.2428

> <Gold.Chemscore.DEInternal.Weighted>
1.7999

> <Gold.Chemscore.Rot.Weighted>
13.4839

> <Gold.Chemscore.Internal.Correction.Weighted>
   9.000000E+99

> <Gold.Protein.RotatedTorsions>
[ 6907 6896 6895 6894 ] final   28.59 input  -60.11 | X-H torsion
[ 7974 7965 7964 7962 ] final  -67.77 input  175.53 | X-H torsion
[ 8008 7997 7996 7995 ] final   59.55 input   59.86 | X-H torsion
[ 10167 10162 10161 10158 ] final  132.44 input  -65.29 | X-H torsion
[ 10718 10713 10712 10709 ] final   -5.33 input   66.30 | X-H torsion
[ 10763 10752 10751 10750 ] final  176.68 input  -60.55 | X-H torsion
[ 11005 11000 10999 10996 ] final -105.46 input  -57.11 | X-H torsion

> <Gold.Protein.ActiveResidues>
 VAL166  LYS551  ARG553  GLY616  TRP617  ASP618  TYR619  PRO620  LYS621  CYS622 
 ASP623  PHE694  ASN695  SER759  ASP760  ASP761  ALA762  ILE779  LEU786  VAL792 
 PHE793  MET794  SER795  GLU796  ALA797  LYS798  CYS799  TRP800  GLU811  SER814 

> <Gold.Protein.RotatedAtoms>
  152.0192  134.9832  160.0569 H   0  0  0  0  0  0  0  0  0  0  0  0  # atno 6907 bound_to 6896
  152.1354  133.4427  159.4749 H   0  0  0  0  0  0  0  0  0  0  0  0  # atno 6908 bound_to 6896
  150.6860  134.2289  159.4469 H   0  0  0  0  0  0  0  0  0  0  0  0  # atno 6909 bound_to 6896
  145.7249  140.9022  143.0610 H   0  0  0  0  0  0  0  0  0  0  0  0  # atno 7974 bound_to 7965
  155.5680  140.3489  155.4508 H   0  0  0  0  0  0  0  0  0  0  0  0  # atno 8008 bound_to 7997
  156.0465  140.1308  157.0123 H   0  0  0  0  0  0  0  0  0  0  0  0  # atno 8009 bound_to 7997
  154.4415  140.1013  156.6299 H   0  0  0  0  0  0  0  0  0  0  0  0  # atno 8010 bound_to 7997
  139.5340  144.6662  151.4851 H   0  0  0  0  0  0  0  0  0  0  0  0  # atno 10167 bound_to 10162
  156.7482  130.5231  149.5809 H   0  0  0  0  0  0  0  0  0  0  0  0  # atno 10718 bound_to 10713
  154.4843  135.2776  155.1546 H   0  0  0  0  0  0  0  0  0  0  0  0  # atno 10763 bound_to 10752
  154.3244  135.6203  153.5526 H   0  0  0  0  0  0  0  0  0  0  0  0  # atno 10764 bound_to 10752
  152.9879  135.5750  154.5250 H   0  0  0  0  0  0  0  0  0  0  0  0  # atno 10765 bound_to 10752
  141.1052  133.8810  157.1737 H   0  0  0  0  0  0  0  0  0  0  0  0  # atno 11005 bound_to 11000
  144.6907  139.9253  143.7469 LP  0  0  0  0  0  0  0  0  0  0  0  0  # atno 17320 bound_to 7965
  146.0591  139.3586  143.0592 LP  0  0  0  0  0  0  0  0  0  0  0  0  # atno 17321 bound_to 7965
  140.6535  143.8647  150.6810 LP  0  0  0  0  0  0  0  0  0  0  0  0  # atno 17342 bound_to 10162
  140.2020  143.3952  152.1784 LP  0  0  0  0  0  0  0  0  0  0  0  0  # atno 17343 bound_to 10162
  156.1419  130.6250  151.0478 LP  0  0  0  0  0  0  0  0  0  0  0  0  # atno 17370 bound_to 10713
  157.6789  131.0843  150.7423 LP  0  0  0  0  0  0  0  0  0  0  0  0  # atno 17371 bound_to 10713
  139.9919  135.0061  156.9995 LP  0  0  0  0  0  0  0  0  0  0  0  0  # atno 17394 bound_to 11000
  140.4921  134.1183  155.7234 LP  0  0  0  0  0  0  0  0  0  0  0  0  # atno 17395 bound_to 11000

$$$$
