AV-unprocessed.smi:1205|AV-procd|sdf|5046|dock1
  -GOLD-   22720 4 73D 1   1.00000     0.00000
 Structure written by MMmdl.
 49 50  0  0  0  0  0  0  0  0  2 V2000
  146.0986  129.6922  151.5896 C   0  0  0  0  0  0  0  0  0  0  0  0
  146.0163  131.1902  151.5880 C   0  0  0  0  0  0  0  0  0  0  0  0
  146.8077  132.1142  152.3311 C   0  0  0  0  0  0  0  0  0  0  0  0
  146.3014  133.3241  151.9422 C   0  0  0  0  0  0  0  0  0  0  0  0
  146.6687  134.5719  152.3379 N   0  0  0  0  0  0  0  0  0  0  0  0
  145.9132  135.5312  152.8999 C   0  0  0  0  0  0  0  0  0  0  0  0
  144.7146  135.4364  153.1648 O   0  0  0  0  0  0  0  0  0  0  0  0
  146.6373  136.6301  153.1552 N   0  0  0  0  0  0  0  0  0  0  0  0
  146.1185  137.8478  153.7698 C   0  0  0  0  0  0  0  0  0  0  0  0
  146.7988  139.1278  153.2194 C   0  0  1  0  0  0  0  0  0  0  0  0
  146.8058  139.1829  151.6797 C   0  0  0  0  0  0  0  0  0  0  0  0
  146.2317  140.3851  153.7888 N   0  3  2  0  0  0  0  0  0  0  0  0
  147.0328  141.5956  153.4664 C   0  0  0  0  0  0  0  0  0  0  0  0
  146.2667  142.8724  153.8485 C   0  0  0  0  0  0  0  0  0  0  0  0
  145.8650  142.8522  155.3295 C   0  0  0  0  0  0  0  0  0  0  0  0
  145.0712  141.5747  155.6543 C   0  0  2  0  0  0  0  0  0  0  0  0
  144.6833  141.5178  157.1385 C   0  0  0  0  0  0  0  0  0  0  0  0
  145.8754  140.3287  155.2335 C   0  0  0  0  0  0  0  0  0  0  0  0
  145.2838  133.1117  151.0387 N   0  0  0  0  0  0  0  0  0  0  0  0
  144.4434  134.0742  150.3533 C   0  0  0  0  0  0  0  0  0  0  0  0
  145.1122  131.7901  150.8217 N   0  0  0  0  0  0  0  0  0  0  0  0
  146.8962  129.3417  152.2446 H   0  0  0  0  0  0  0  0  0  0  0  0
  146.2990  129.3085  150.5889 H   0  0  0  0  0  0  0  0  0  0  0  0
  145.1652  129.2485  151.9369 H   0  0  0  0  0  0  0  0  0  0  0  0
  147.6042  131.9022  153.0282 H   0  0  0  0  0  0  0  0  0  0  0  0
  147.6436  134.7944  152.2018 H   0  0  0  0  0  0  0  0  0  0  0  0
  147.6154  136.6258  152.9042 H   0  0  0  0  0  0  0  0  0  0  0  0
  145.0467  137.8690  153.5728 H   0  0  0  0  0  0  0  0  0  0  0  0
  146.2323  137.7781  154.8524 H   0  0  0  0  0  0  0  0  0  0  0  0
  147.8486  139.1033  153.5147 H   0  0  0  0  0  0  0  0  0  0  0  0
  147.3814  138.3587  151.2574 H   0  0  0  0  0  0  0  0  0  0  0  0
  147.2616  140.1067  151.3223 H   0  0  0  0  0  0  0  0  0  0  0  0
  145.8005  139.1227  151.2631 H   0  0  0  0  0  0  0  0  0  0  0  0
  147.9875  141.5627  153.9923 H   0  0  0  0  0  0  0  0  0  0  0  0
  147.2585  141.6227  152.3996 H   0  0  0  0  0  0  0  0  0  0  0  0
  146.8786  143.7507  153.6406 H   0  0  0  0  0  0  0  0  0  0  0  0
  145.3742  142.9636  153.2279 H   0  0  0  0  0  0  0  0  0  0  0  0
  146.7598  142.9026  155.9517 H   0  0  0  0  0  0  0  0  0  0  0  0
  145.2721  143.7369  155.5644 H   0  0  0  0  0  0  0  0  0  0  0  0
  144.1475  141.5925  155.0738 H   0  0  0  0  0  0  0  0  0  0  0  0
  145.5655  141.4942  157.7790 H   0  0  0  0  0  0  0  0  0  0  0  0
  144.0904  140.6291  157.3568 H   0  0  0  0  0  0  0  0  0  0  0  0
  144.0892  142.3870  157.4223 H   0  0  0  0  0  0  0  0  0  0  0  0
  145.2845  139.4366  155.4393 H   0  0  0  0  0  0  0  0  0  0  0  0
  146.7806  140.2569  155.8379 H   0  0  0  0  0  0  0  0  0  0  0  0
  145.0620  134.8595  149.9181 H   0  0  0  0  0  0  0  0  0  0  0  0
  143.7462  134.5204  151.0627 H   0  0  0  0  0  0  0  0  0  0  0  0
  143.8781  133.5904  149.5557 H   0  0  0  0  0  0  0  0  0  0  0  0
  145.3583  140.5164  153.2990 H   0  0  0  0  0  0  0  0  0  0  0  0
  1  2  1  0  0  0  0
  1 22  1  0  0  0  0
  1 23  1  0  0  0  0
  1 24  1  0  0  0  0
  2 21  2  0  0  0  0
  2  3  1  0  0  0  0
  3  4  2  0  0  0  0
  3 25  1  0  0  0  0
  4  5  1  0  0  0  0
  4 19  1  0  0  0  0
  5  6  1  0  0  0  0
  5 26  1  0  0  0  0
  6  7  2  0  0  0  0
  6  8  1  0  0  0  0
  8  9  1  0  0  0  0
  8 27  1  0  0  0  0
  9 10  1  0  0  0  0
  9 28  1  0  0  0  0
  9 29  1  0  0  0  0
 10 11  1  0  0  0  0
 10 12  1  0  0  0  0
 10 30  1  0  0  0  0
 11 31  1  0  0  0  0
 11 32  1  0  0  0  0
 11 33  1  0  0  0  0
 12 18  1  0  0  0  0
 12 13  1  0  0  0  0
 12 49  1  0  0  0  0
 13 14  1  0  0  0  0
 13 34  1  0  0  0  0
 13 35  1  0  0  0  0
 14 15  1  0  0  0  0
 14 36  1  0  0  0  0
 14 37  1  0  0  0  0
 15 16  1  0  0  0  0
 15 38  1  0  0  0  0
 15 39  1  0  0  0  0
 16 17  1  0  0  0  0
 16 18  1  0  0  0  0
 16 40  1  0  0  0  0
 17 41  1  0  0  0  0
 17 42  1  0  0  0  0
 17 43  1  0  0  0  0
 18 44  1  0  0  0  0
 18 45  1  0  0  0  0
 19 20  1  0  0  0  0
 19 21  1  0  0  0  0
 20 46  1  0  0  0  0
 20 47  1  0  0  0  0
 20 48  1  0  0  0  0
M  CHG  1  12   1
M  END
> <s_m_source_file>
AV-unprocessed.smi

> <i_m_source_file_index>
1205

> <i_lp_mmshare_version>
43012

> <i_f3d_flags>
0

> <s_epik_input>
W0NIM11jMVtjSF1jKG4objEpW0NIM10pW05IXUMoPU8pW05IXVtDSDJdW0NASF0oW0NIM10pTjJbQ0gyXVtDSDJdW0NIMl1bQ0BASF0oW0NIM10pW0NIMl0y

> <s_epik_cmdline>
J2VwaWtfcHl0aG9uJywgJy1waCcsICc3LjAnLCAnLXRuJywgJzgnLCAnLW1hJywgJzIwMCcsICctbWV0YWxfYmluZGluZycsICctaW1hZScsICc8aW5maWxlLm1hZT4nLCAnLW9tYWUnLCAnPG91dGZpbGUubWFlPic=

> <r_lp_tautomer_probability>
1

> <r_epik_Ionization_Penalty>
0.0020309

> <r_epik_Ionization_Penalty_Charging>
0.00195276

> <r_epik_Ionization_Penalty_Neutral>
7.81448e-05

> <r_epik_State_Penalty>
0.00133177

> <r_epik_Charging_Adjusted_Penalty>
0.00328452

> <i_epik_Tot_Q>
1

> <i_epik_Tot_abs_Q>
1

> <r_epik_Metal_State_Penalty>
-0

> <b_epik_Metal_Only>
0

> <s_lp_Force_Field>
OPLS_2005

> <r_lp_Energy>
21.2667

> <b_lp_Chiralities_Consistent>
1

> <s_lp_Variant>
AV-unprocessed.smi:1205-8

> <Gold.Version>
5.8.1

> <Gold.Id.Protein>
6NUR|6NUR_protein|mol2

> <Gold.PLP.Fitness>
44.8812

> <Gold.PLP.PLP>
-34.7473

> <Gold.PLP.part.hbond>
-3.0000

> <Gold.PLP.part.metal>
0.0000

> <Gold.PLP.part.buried>
-4.7638

> <Gold.PLP.part.nonpolar>
-26.9961

> <Gold.PLP.part.repulsive>
0.1905

> <Gold.PLP.ligand.clash>
0.0000

> <Gold.PLP.ligand.torsion>
0.9159

> <Gold.PLP.Chemscore.Hbond>
3.9440

> <Gold.PLP.Chemscore.CHOScore>
0.0000

> <Gold.PLP.Chemscore.Metal>
0.0000

> <Gold.Chemscore.Hbonds>
donor molecule, donor type, donor heavy atom, donor atom, acceptor molecule, acceptor atom, score
      L1  H     5    26       P1  7948  0.93
      L1  H     8    27       P1  7948  1.00
      L1  H    12    49       P1 10175  2.00

> <Gold.PLP.Chemscore.Internal.Correction>
0.1337

> <Gold.Rescore>
     Score         DG    S(hbond)    S(metal)    S(lipo)     H(rot)  DE(clash)    DE(int)     intcor
     18.98     -19.93       2.82        0.00      74.91       1.47       0.07       0.87       ----

> <Gold.Chemscore.Fitness>
18.9831

> <Gold.Chemscore.DG>
-19.9254

> <Gold.Chemscore.ZeroCoef>
-5.4800

> <Gold.Chemscore.Hbond>
2.8245

> <Gold.Chemscore.Metal>
0.0000

> <Gold.Chemscore.Lipo>
74.9084

> <Gold.Chemscore.Internal_Hbond>
0.0000

> <Gold.Chemscore.DEClash>
0.0685

> <Gold.Chemscore.DEInternal>
0.8738

> <Gold.Chemscore.Rot>
1.4658

> <Gold.Chemscore.Internal.Correction>
   9.000000E+99

> <Gold.Chemscore.Hbonds>
donor molecule, donor type, donor heavy atom, donor atom, acceptor molecule, acceptor atom, score
      L1  H     5    26       P1  7948  0.71
      L1  H     8    27       P1  7948  0.97
      L1  H    12    49       P1 10175  0.96

> <Gold.Chemscore.Hbond.Weighted>
-9.4337

> <Gold.Chemscore.Metal.Weighted>
-0.0000

> <Gold.Chemscore.Lipo.Weighted>
-8.7643

> <Gold.Chemscore.Internal_Hbond.Weighted>
0.0000

> <Gold.Chemscore.DEClash.Weighted>
0.0685

> <Gold.Chemscore.DEInternal.Weighted>
0.8738

> <Gold.Chemscore.Rot.Weighted>
3.7526

> <Gold.Chemscore.Internal.Correction.Weighted>
   9.000000E+99

> <Gold.Protein.RotatedTorsions>
[ 6907 6896 6895 6894 ] final -159.29 input  -60.11 | X-H torsion
[ 7974 7965 7964 7962 ] final  130.97 input  175.53 | X-H torsion
[ 8008 7997 7996 7995 ] final  -37.25 input   59.86 | X-H torsion
[ 10167 10162 10161 10158 ] final  -24.83 input  -65.29 | X-H torsion
[ 10718 10713 10712 10709 ] final   36.73 input   66.30 | X-H torsion
[ 10763 10752 10751 10750 ] final  119.88 input  -60.55 | X-H torsion
[ 11005 11000 10999 10996 ] final  141.83 input  -57.11 | X-H torsion

> <Gold.Protein.ActiveResidues>
 VAL166  LYS551  ARG553  GLY616  TRP617  ASP618  TYR619  PRO620  LYS621  CYS622 
 ASP623  PHE694  ASN695  SER759  ASP760  ASP761  ALA762  ILE779  LEU786  VAL792 
 PHE793  MET794  SER795  GLU796  ALA797  LYS798  CYS799  TRP800  GLU811  SER814 

> <Gold.Protein.RotatedAtoms>
  151.3314  133.3999  159.2662 H   0  0  0  0  0  0  0  0  0  0  0  0  # atno 6907 bound_to 6896
  150.9953  134.9279  159.7933 H   0  0  0  0  0  0  0  0  0  0  0  0  # atno 6908 bound_to 6896
  152.5259  134.3279  159.9224 H   0  0  0  0  0  0  0  0  0  0  0  0  # atno 6909 bound_to 6896
  145.0122  139.4210  143.5239 H   0  0  0  0  0  0  0  0  0  0  0  0  # atno 7974 bound_to 7965
  154.4057  140.1609  156.2507 H   0  0  0  0  0  0  0  0  0  0  0  0  # atno 8008 bound_to 7997
  155.9122  140.3426  155.6085 H   0  0  0  0  0  0  0  0  0  0  0  0  # atno 8009 bound_to 7997
  155.7323  140.0782  157.2274 H   0  0  0  0  0  0  0  0  0  0  0  0  # atno 8010 bound_to 7997
  140.7287  143.4318  151.0790 H   0  0  0  0  0  0  0  0  0  0  0  0  # atno 10167 bound_to 10162
  157.3384  130.7534  149.6895 H   0  0  0  0  0  0  0  0  0  0  0  0  # atno 10718 bound_to 10713
  153.5899  135.3468  155.2907 H   0  0  0  0  0  0  0  0  0  0  0  0  # atno 10763 bound_to 10752
  154.8654  135.4202  154.2527 H   0  0  0  0  0  0  0  0  0  0  0  0  # atno 10764 bound_to 10752
  153.3332  135.7045  153.7000 H   0  0  0  0  0  0  0  0  0  0  0  0  # atno 10765 bound_to 10752
  140.0431  134.9295  157.0879 H   0  0  0  0  0  0  0  0  0  0  0  0  # atno 11005 bound_to 11000
  146.3472  139.9572  142.8721 LP  0  0  0  0  0  0  0  0  0  0  0  0  # atno 17320 bound_to 7965
  145.2008  140.9853  143.4157 LP  0  0  0  0  0  0  0  0  0  0  0  0  # atno 17321 bound_to 7965
  139.7976  143.8129  152.3159 LP  0  0  0  0  0  0  0  0  0  0  0  0  # atno 17342 bound_to 10162
  139.8135  144.7326  150.9666 LP  0  0  0  0  0  0  0  0  0  0  0  0  # atno 17343 bound_to 10162
  155.9704  130.4175  150.4281 LP  0  0  0  0  0  0  0  0  0  0  0  0  # atno 17370 bound_to 10713
  157.2325  131.0507  151.2484 LP  0  0  0  0  0  0  0  0  0  0  0  0  # atno 17371 bound_to 10713
  140.4038  134.2055  155.7163 LP  0  0  0  0  0  0  0  0  0  0  0  0  # atno 17394 bound_to 11000
  141.1893  133.8241  157.0962 LP  0  0  0  0  0  0  0  0  0  0  0  0  # atno 17395 bound_to 11000

$$$$
