AV-unprocessed.smi:290|AV-procd|sdf|2240|dock1
  -GOLD-   2262022113D 1   1.00000     0.00000
 Structure written by MMmdl.
 59 62  0  0  0  0  0  0  0  0  2 V2000
  149.5050  139.0957  154.1271 C   0  0  0  0  0  0  0  0  0  0  0  0
  150.3255  139.4398  155.3807 C   0  0  1  0  0  0  0  0  0  0  0  0
  151.1055  140.6153  155.1639 O   0  0  0  0  0  0  0  0  0  0  0  0
  150.7930  141.5962  156.1427 C   0  0  0  0  0  0  0  0  0  0  0  0
  150.3179  140.7888  157.3433 C   0  0  0  0  0  0  0  0  0  0  0  0
  149.5315  139.6611  156.6898 C   0  0  1  0  0  0  0  0  0  0  0  0
  148.2222  140.1340  156.4135 O   0  0  0  0  0  0  0  0  0  0  0  0
  149.4195  138.3833  157.5551 C   0  0  0  0  0  0  0  0  0  0  0  0
  148.7905  137.2680  156.8635 N   0  0  0  0  0  0  0  0  0  0  0  0
  147.4514  136.9548  156.8561 C   0  0  0  0  0  0  0  0  0  0  0  0
  147.1348  135.8953  156.1646 N   0  0  0  0  0  0  0  0  0  0  0  0
  148.3421  135.4472  155.6370 C   0  0  0  0  0  0  0  0  0  0  0  0
  148.7341  134.3563  154.8022 C   0  0  0  0  0  0  0  0  0  0  0  0
  147.8962  133.4231  154.2758 N   0  0  0  0  0  0  0  0  0  0  0  0
  146.4892  133.3871  154.6359 C   0  0  0  0  0  0  0  0  0  0  0  0
  145.7851  132.9016  153.3765 C   0  0  0  0  0  0  0  0  0  0  0  0
  146.8110  131.9768  152.7013 C   0  0  1  0  0  0  0  0  0  0  0  0
  146.5537  131.8264  151.2337 N   0  3  2  0  0  0  0  0  0  0  0  0
  146.5166  133.1451  150.5483 C   0  0  0  0  0  0  0  0  0  0  0  0
  145.3734  130.9790  150.8955 C   0  0  0  0  0  0  0  0  0  0  0  0
  144.0240  131.7201  150.9553 C   0  0  0  0  0  0  0  0  0  0  0  0
  143.2022  131.3270  149.8763 O   0  0  0  0  0  0  0  0  0  0  0  0
  148.1699  132.6235  153.0852 C   0  0  2  0  0  0  0  0  0  0  0  0
  149.2645  131.5768  153.3908 C   0  0  0  0  0  0  0  0  0  0  0  0
  150.0569  134.2441  154.5112 N   0  0  0  0  0  0  0  0  0  0  0  0
  150.9376  135.1279  154.9865 C   0  0  0  0  0  0  0  0  0  0  0  0
  150.7162  136.1867  155.7649 N   0  0  0  0  0  0  0  0  0  0  0  0
  149.3937  136.3066  156.0716 C   0  0  0  0  0  0  0  0  0  0  0  0
  146.7453  130.9941  153.1726 H   0  0  0  0  0  0  0  0  0  0  0  0
  148.4811  133.2982  152.2886 H   0  0  0  0  0  0  0  0  0  0  0  0
  148.8956  138.2066  154.2892 H   0  0  0  0  0  0  0  0  0  0  0  0
  150.1611  138.8978  153.2795 H   0  0  0  0  0  0  0  0  0  0  0  0
  148.8426  139.9134  153.8422 H   0  0  0  0  0  0  0  0  0  0  0  0
  151.0486  138.6389  155.5408 H   0  0  0  0  0  0  0  0  0  0  0  0
  151.6536  142.2255  156.3699 H   0  0  0  0  0  0  0  0  0  0  0  0
  149.9930  142.2347  155.7656 H   0  0  0  0  0  0  0  0  0  0  0  0
  151.1871  140.3880  157.8662 H   0  0  0  0  0  0  0  0  0  0  0  0
  149.7396  141.3768  158.0572 H   0  0  0  0  0  0  0  0  0  0  0  0
  148.2815  140.8135  155.7598 H   0  0  0  0  0  0  0  0  0  0  0  0
  150.4087  138.0664  157.8884 H   0  0  0  0  0  0  0  0  0  0  0  0
  148.8458  138.5878  158.4601 H   0  0  0  0  0  0  0  0  0  0  0  0
  146.7139  137.5368  157.3900 H   0  0  0  0  0  0  0  0  0  0  0  0
  146.3509  132.6836  155.4578 H   0  0  0  0  0  0  0  0  0  0  0  0
  146.1067  134.3601  154.9468 H   0  0  0  0  0  0  0  0  0  0  0  0
  144.8408  132.4085  153.6082 H   0  0  0  0  0  0  0  0  0  0  0  0
  145.5708  133.7567  152.7331 H   0  0  0  0  0  0  0  0  0  0  0  0
  145.6285  133.7085  150.8368 H   0  0  0  0  0  0  0  0  0  0  0  0
  146.5191  133.0386  149.4650 H   0  0  0  0  0  0  0  0  0  0  0  0
  147.3900  133.7514  150.7831 H   0  0  0  0  0  0  0  0  0  0  0  0
  145.4649  130.5980  149.8803 H   0  0  0  0  0  0  0  0  0  0  0  0
  145.3501  130.1134  151.5589 H   0  0  0  0  0  0  0  0  0  0  0  0
  143.5102  131.4622  151.8818 H   0  0  0  0  0  0  0  0  0  0  0  0
  144.1393  132.8032  150.9666 H   0  0  0  0  0  0  0  0  0  0  0  0
  142.3036  131.3128  150.1710 H   0  0  0  0  0  0  0  0  0  0  0  0
  149.4788  130.9333  152.5400 H   0  0  0  0  0  0  0  0  0  0  0  0
  148.9649  130.9297  154.2160 H   0  0  0  0  0  0  0  0  0  0  0  0
  150.2042  132.0469  153.6781 H   0  0  0  0  0  0  0  0  0  0  0  0
  151.9666  134.9620  154.7035 H   0  0  0  0  0  0  0  0  0  0  0  0
  147.3537  131.3331  150.8628 H   0  0  0  0  0  0  0  0  0  0  0  0
  1  2  1  0  0  0  0
  1 31  1  0  0  0  0
  1 32  1  0  0  0  0
  1 33  1  0  0  0  0
  2  6  1  0  0  0  0
  2  3  1  0  0  0  0
  2 34  1  0  0  0  0
  3  4  1  0  0  0  0
  4  5  1  0  0  0  0
  4 35  1  0  0  0  0
  4 36  1  0  0  0  0
  5  6  1  0  0  0  0
  5 37  1  0  0  0  0
  5 38  1  0  0  0  0
  6  7  1  0  0  0  0
  6  8  1  0  0  0  0
  7 39  1  0  0  0  0
  8  9  1  0  0  0  0
  8 40  1  0  0  0  0
  8 41  1  0  0  0  0
  9 28  1  0  0  0  0
  9 10  1  0  0  0  0
 10 11  2  0  0  0  0
 10 42  1  0  0  0  0
 11 12  1  0  0  0  0
 12 28  2  0  0  0  0
 12 13  1  0  0  0  0
 13 14  1  0  0  0  0
 13 25  2  0  0  0  0
 14 23  1  0  0  0  0
 14 15  1  0  0  0  0
 15 16  1  0  0  0  0
 15 43  1  0  0  0  0
 15 44  1  0  0  0  0
 16 17  1  0  0  0  0
 16 45  1  0  0  0  0
 16 46  1  0  0  0  0
 17 29  1  0  0  0  0
 17 18  1  0  0  0  0
 17 23  1  0  0  0  0
 18 19  1  0  0  0  0
 18 20  1  0  0  0  0
 18 59  1  0  0  0  0
 19 47  1  0  0  0  0
 19 48  1  0  0  0  0
 19 49  1  0  0  0  0
 20 21  1  0  0  0  0
 20 50  1  0  0  0  0
 20 51  1  0  0  0  0
 21 22  1  0  0  0  0
 21 52  1  0  0  0  0
 21 53  1  0  0  0  0
 22 54  1  0  0  0  0
 23 30  1  0  0  0  0
 23 24  1  0  0  0  0
 24 55  1  0  0  0  0
 24 56  1  0  0  0  0
 24 57  1  0  0  0  0
 25 26  1  0  0  0  0
 26 27  2  0  0  0  0
 26 58  1  0  0  0  0
 27 28  1  0  0  0  0
M  CHG  1  18   1
M  END
> <s_m_source_file>
AV-unprocessed.smi

> <i_m_source_file_index>
290

> <i_lp_mmshare_version>
43012

> <i_f3d_flags>
0

> <s_epik_input>
W0NIMl0xW0NIMl1PW0NAQEhdKFtDSDNdKVtDQEBdMShbT0hdKVtDSDJdbihbY0hdbjIpYyhjMjMpbltjSF1uYzNONFtDSDJdW0NIMl1bQ0BIXShbQ0BIXTRbQ0gzXSlOKFtDSDNdKVtDSDJdW0NIMl1bT0hd

> <s_epik_cmdline>
J2VwaWtfcHl0aG9uJywgJy1waCcsICc3LjAnLCAnLXRuJywgJzgnLCAnLW1hJywgJzIwMCcsICctbWV0YWxfYmluZGluZycsICctaW1hZScsICc8aW5maWxlLm1hZT4nLCAnLW9tYWUnLCAnPG91dGZpbGUubWFlPic=

> <r_lp_tautomer_probability>
1

> <r_epik_Ionization_Penalty>
0.0036983

> <r_epik_Ionization_Penalty_Charging>
0.0032725

> <r_epik_Ionization_Penalty_Neutral>
0.000425798

> <r_epik_State_Penalty>
-0

> <r_epik_Charging_Adjusted_Penalty>
0.0032725

> <i_epik_Tot_Q>
1

> <i_epik_Tot_abs_Q>
1

> <r_epik_Metal_State_Penalty>
-0

> <b_epik_Metal_Only>
0

> <s_lp_Force_Field>
OPLS_2005

> <r_lp_Energy>
64.7492

> <b_lp_Chiralities_Consistent>
1

> <s_lp_Variant>
AV-unprocessed.smi:290-26

> <Gold.Version>
5.8.1

> <Gold.Id.Protein>
6NUR|6NUR_protein|mol2

> <Gold.PLP.Fitness>
45.8264

> <Gold.PLP.PLP>
-36.8794

> <Gold.PLP.part.hbond>
-4.0000

> <Gold.PLP.part.metal>
0.0000

> <Gold.PLP.part.buried>
-6.6236

> <Gold.PLP.part.nonpolar>
-26.0813

> <Gold.PLP.part.repulsive>
0.2437

> <Gold.PLP.ligand.clash>
0.0000

> <Gold.PLP.ligand.torsion>
1.0472

> <Gold.PLP.Chemscore.Hbond>
3.5040

> <Gold.PLP.Chemscore.CHOScore>
0.0000

> <Gold.PLP.Chemscore.Metal>
0.0000

> <Gold.Chemscore.Hbonds>
donor molecule, donor type, donor heavy atom, donor atom, acceptor molecule, acceptor atom, score
      L1  H    18    59       P1 10747  1.00
      L1  H    22    54       P1 10952  0.64
      P1  H  7989  7998       L1     3  0.91
      P1  H 10785 10796       L1    22  1.00

> <Gold.PLP.Chemscore.Internal.Correction>
0.5295

> <Gold.Rescore>
     Score         DG    S(hbond)    S(metal)    S(lipo)     H(rot)  DE(clash)    DE(int)     intcor
     13.60     -16.88       3.11        0.00      81.87       3.35       0.07       3.21       ----

> <Gold.Chemscore.Fitness>
13.6018

> <Gold.Chemscore.DG>
-16.8761

> <Gold.Chemscore.ZeroCoef>
-5.4800

> <Gold.Chemscore.Hbond>
3.1130

> <Gold.Chemscore.Metal>
0.0000

> <Gold.Chemscore.Lipo>
81.8746

> <Gold.Chemscore.Internal_Hbond>
0.0000

> <Gold.Chemscore.DEClash>
0.0676

> <Gold.Chemscore.DEInternal>
3.2067

> <Gold.Chemscore.Rot>
3.3518

> <Gold.Chemscore.Internal.Correction>
   9.000000E+99

> <Gold.Chemscore.Hbonds>
donor molecule, donor type, donor heavy atom, donor atom, acceptor molecule, acceptor atom, score
      L1  H    18    59       P1 10747  1.00
      L1  H    22    54       P1 10952  0.48
      P1  H  7989  7998       L1     3  0.82
      P1  H 10785 10796       L1    22  0.29

> <Gold.Chemscore.Hbond.Weighted>
-10.3973

> <Gold.Chemscore.Metal.Weighted>
-0.0000

> <Gold.Chemscore.Lipo.Weighted>
-9.5793

> <Gold.Chemscore.Internal_Hbond.Weighted>
0.0000

> <Gold.Chemscore.DEClash.Weighted>
0.0676

> <Gold.Chemscore.DEInternal.Weighted>
3.2067

> <Gold.Chemscore.Rot.Weighted>
8.5806

> <Gold.Chemscore.Internal.Correction.Weighted>
   9.000000E+99

> <Gold.Protein.RotatedTorsions>
[ 6907 6896 6895 6894 ] final   13.64 input  -60.11 | X-H torsion
[ 7974 7965 7964 7962 ] final   59.74 input  175.53 | X-H torsion
[ 8008 7997 7996 7995 ] final -111.98 input   59.86 | X-H torsion
[ 10167 10162 10161 10158 ] final -169.12 input  -65.29 | X-H torsion
[ 10718 10713 10712 10709 ] final  122.04 input   66.30 | X-H torsion
[ 10763 10752 10751 10750 ] final -138.62 input  -60.55 | X-H torsion
[ 11005 11000 10999 10996 ] final  -52.07 input  -57.11 | X-H torsion

> <Gold.Protein.ActiveResidues>
 VAL166  LYS551  ARG553  GLY616  TRP617  ASP618  TYR619  PRO620  LYS621  CYS622 
 ASP623  PHE694  ASN695  SER759  ASP760  ASP761  ALA762  ILE779  LEU786  VAL792 
 PHE793  MET794  SER795  GLU796  ALA797  LYS798  CYS799  TRP800  GLU811  SER814 

> <Gold.Protein.RotatedAtoms>
  151.7895  135.0740  160.0384 H   0  0  0  0  0  0  0  0  0  0  0  0  # atno 6907 bound_to 6896
  152.3167  133.5805  159.5725 H   0  0  0  0  0  0  0  0  0  0  0  0  # atno 6908 bound_to 6896
  150.7348  133.9988  159.3673 H   0  0  0  0  0  0  0  0  0  0  0  0  # atno 6909 bound_to 6896
  145.9038  139.3601  143.0577 H   0  0  0  0  0  0  0  0  0  0  0  0  # atno 7974 bound_to 7965
  154.9982  140.0394  157.2349 H   0  0  0  0  0  0  0  0  0  0  0  0  # atno 8008 bound_to 7997
  154.7567  140.2777  155.6225 H   0  0  0  0  0  0  0  0  0  0  0  0  # atno 8009 bound_to 7997
  156.2896  140.2636  156.2335 H   0  0  0  0  0  0  0  0  0  0  0  0  # atno 8010 bound_to 7997
  139.5942  144.1147  152.1670 H   0  0  0  0  0  0  0  0  0  0  0  0  # atno 10167 bound_to 10162
  157.5772  131.1078  150.8256 H   0  0  0  0  0  0  0  0  0  0  0  0  # atno 10718 bound_to 10713
  154.8632  135.3607  154.5414 H   0  0  0  0  0  0  0  0  0  0  0  0  # atno 10763 bound_to 10752
  153.6036  135.7012  153.5379 H   0  0  0  0  0  0  0  0  0  0  0  0  # atno 10764 bound_to 10752
  153.3270  135.4135  155.1425 H   0  0  0  0  0  0  0  0  0  0  0  0  # atno 10765 bound_to 10752
  141.0905  133.6634  156.3970 H   0  0  0  0  0  0  0  0  0  0  0  0  # atno 11005 bound_to 11000
  145.8758  140.9392  143.0627 LP  0  0  0  0  0  0  0  0  0  0  0  0  # atno 17320 bound_to 7965
  144.6738  140.0715  143.7473 LP  0  0  0  0  0  0  0  0  0  0  0  0  # atno 17321 bound_to 7965
  140.0728  144.5765  150.7179 LP  0  0  0  0  0  0  0  0  0  0  0  0  # atno 17342 bound_to 10162
  140.7198  143.2578  151.4314 LP  0  0  0  0  0  0  0  0  0  0  0  0  # atno 17343 bound_to 10162
  156.8711  130.5146  149.5296 LP  0  0  0  0  0  0  0  0  0  0  0  0  # atno 17370 bound_to 10713
  156.0817  130.5826  150.9575 LP  0  0  0  0  0  0  0  0  0  0  0  0  # atno 17371 bound_to 10713
  140.5263  134.6255  157.5335 LP  0  0  0  0  0  0  0  0  0  0  0  0  # atno 17394 bound_to 11000
  139.9730  134.7262  156.0004 LP  0  0  0  0  0  0  0  0  0  0  0  0  # atno 17395 bound_to 11000

$$$$
