AV-unprocessed.smi:936|AV-procd|sdf|4208|dock5
  -GOLD-   22720 2113D 1   1.00000     0.00000
 Structure written by MMmdl.
 40 41  0  0  0  0  0  0  0  0  1 V2000
  145.6255  136.9437  161.3754 C   0  0  0  0  0  0  0  0  0  0  0  0
  146.9687  136.2007  161.3288 C   0  0  0  0  0  0  0  0  0  0  0  0
  147.7530  136.2897  162.6456 C   0  0  0  0  0  0  0  0  0  0  0  0
  147.7985  136.6109  160.1531 C   0  0  0  0  0  0  0  0  0  0  0  0
  149.0266  137.1287  160.2562 N   0  0  0  0  0  0  0  0  0  0  0  0
  149.5962  137.4215  159.0134 C   0  0  0  0  0  0  0  0  0  0  0  0
  150.9729  138.0084  158.9401 C   0  0  0  0  0  0  0  0  0  0  0  0
  151.0109  139.2990  158.1050 C   0  0  0  0  0  0  0  0  0  0  0  0
  151.8342  140.3228  158.7384 N   0  0  0  0  0  0  0  0  0  0  0  0
  151.7278  141.6453  158.5231 C   0  0  0  0  0  0  0  0  0  0  0  0
  150.9122  142.1148  157.7278 O   0  0  0  0  0  0  0  0  0  0  0  0
  152.6014  142.4090  159.2275 N   0  0  0  0  0  0  0  0  0  0  0  0
  153.5362  141.9249  160.2571 C   0  0  0  0  0  0  0  0  0  0  0  0
  152.9033  142.1210  161.6449 C   0  0  0  0  0  0  0  0  0  0  0  0
  152.6147  143.8856  161.9853 S   0  0  0  0  0  0  0  0  0  0  0  0
  151.7508  144.3543  160.4531 C   0  0  0  0  0  0  0  0  0  0  0  0
  152.5247  143.8749  159.2134 C   0  0  0  0  0  0  0  0  0  0  0  0
  148.7754  137.1160  157.9568 C   0  0  0  0  0  0  0  0  0  0  0  0
  147.2556  136.4493  158.4862 S   0  0  0  0  0  0  0  0  0  0  0  0
  145.0619  136.7936  160.4542 H   0  0  0  0  0  0  0  0  0  0  0  0
  145.7703  138.0166  161.5062 H   0  0  0  0  0  0  0  0  0  0  0  0
  145.0089  136.5891  162.2015 H   0  0  0  0  0  0  0  0  0  0  0  0
  146.7309  135.1462  161.1837 H   0  0  0  0  0  0  0  0  0  0  0  0
  148.6574  135.6819  162.6042 H   0  0  0  0  0  0  0  0  0  0  0  0
  147.1542  135.9345  163.4846 H   0  0  0  0  0  0  0  0  0  0  0  0
  148.0510  137.3163  162.8607 H   0  0  0  0  0  0  0  0  0  0  0  0
  151.3380  138.2124  159.9474 H   0  0  0  0  0  0  0  0  0  0  0  0
  151.6646  137.2797  158.5152 H   0  0  0  0  0  0  0  0  0  0  0  0
  151.4283  139.0918  157.1193 H   0  0  0  0  0  0  0  0  0  0  0  0
  150.0010  139.6786  157.9407 H   0  0  0  0  0  0  0  0  0  0  0  0
  152.5340  140.0052  159.3931 H   0  0  0  0  0  0  0  0  0  0  0  0
  153.8195  140.8812  160.1222 H   0  0  0  0  0  0  0  0  0  0  0  0
  154.4741  142.4786  160.1958 H   0  0  0  0  0  0  0  0  0  0  0  0
  151.9562  141.5844  161.7123 H   0  0  0  0  0  0  0  0  0  0  0  0
  153.5549  141.7186  162.4207 H   0  0  0  0  0  0  0  0  0  0  0  0
  150.7481  143.9256  160.4649 H   0  0  0  0  0  0  0  0  0  0  0  0
  151.6348  145.4380  160.4337 H   0  0  0  0  0  0  0  0  0  0  0  0
  153.5273  144.3047  159.2051 H   0  0  0  0  0  0  0  0  0  0  0  0
  152.0443  144.2479  158.3077 H   0  0  0  0  0  0  0  0  0  0  0  0
  148.9725  137.2422  156.9024 H   0  0  0  0  0  0  0  0  0  0  0  0
  1  2  1  0  0  0  0
  1 20  1  0  0  0  0
  1 21  1  0  0  0  0
  1 22  1  0  0  0  0
  2  3  1  0  0  0  0
  2  4  1  0  0  0  0
  2 23  1  0  0  0  0
  3 24  1  0  0  0  0
  3 25  1  0  0  0  0
  3 26  1  0  0  0  0
  4 19  1  0  0  0  0
  4  5  2  0  0  0  0
  5  6  1  0  0  0  0
  6  7  1  0  0  0  0
  6 18  2  0  0  0  0
  7  8  1  0  0  0  0
  7 27  1  0  0  0  0
  7 28  1  0  0  0  0
  8  9  1  0  0  0  0
  8 29  1  0  0  0  0
  8 30  1  0  0  0  0
  9 10  1  0  0  0  0
  9 31  1  0  0  0  0
 10 11  2  0  0  0  0
 10 12  1  0  0  0  0
 12 17  1  0  0  0  0
 12 13  1  0  0  0  0
 13 14  1  0  0  0  0
 13 32  1  0  0  0  0
 13 33  1  0  0  0  0
 14 15  1  0  0  0  0
 14 34  1  0  0  0  0
 14 35  1  0  0  0  0
 15 16  1  0  0  0  0
 16 17  1  0  0  0  0
 16 36  1  0  0  0  0
 16 37  1  0  0  0  0
 17 38  1  0  0  0  0
 17 39  1  0  0  0  0
 18 19  1  0  0  0  0
 18 40  1  0  0  0  0
M  END
> <s_m_source_file>
AV-unprocessed.smi

> <i_m_source_file_index>
936

> <i_lp_mmshare_version>
43012

> <i_f3d_flags>
0

> <s_epik_input>
W0NIM11bQ0hdKFtDSDNdKWMxbmMoW2NIXXMxKVtDSDJdW0NIMl1bTkhdQyg9TylOMltDSDJdW0NIMl1TW0NIMl1bQ0gyXTI=

> <s_epik_cmdline>
J2VwaWtfcHl0aG9uJywgJy1waCcsICc3LjAnLCAnLXRuJywgJzgnLCAnLW1hJywgJzIwMCcsICctbWV0YWxfYmluZGluZycsICctaW1hZScsICc8aW5maWxlLm1hZT4nLCAnLW9tYWUnLCAnPG91dGZpbGUubWFlPic=

> <r_epik_Ionization_Penalty>
0.00156596

> <r_epik_Ionization_Penalty_Charging>
0

> <r_epik_Ionization_Penalty_Neutral>
0.00156596

> <r_epik_State_Penalty>
0.00101864

> <r_epik_Charging_Adjusted_Penalty>
0.00101864

> <i_epik_Tot_Q>
0

> <i_epik_Tot_abs_Q>
0

> <r_epik_Metal_State_Penalty>
-0

> <b_epik_Metal_Only>
0

> <s_lp_Force_Field>
OPLS_2005

> <r_lp_Energy>
11.6004

> <b_lp_Chiralities_Consistent>
1

> <s_lp_Variant>
AV-unprocessed.smi:936-1

> <Gold.Version>
5.8.1

> <Gold.Id.Protein>
6NUR|6NUR_protein|mol2

> <Gold.PLP.Fitness>
44.5700

> <Gold.PLP.PLP>
-43.7808

> <Gold.PLP.part.hbond>
-1.0000

> <Gold.PLP.part.metal>
0.0000

> <Gold.PLP.part.buried>
-6.5568

> <Gold.PLP.part.nonpolar>
-36.0179

> <Gold.PLP.part.repulsive>
0.1687

> <Gold.PLP.ligand.clash>
0.0000

> <Gold.PLP.ligand.torsion>
0.5751

> <Gold.PLP.Chemscore.Hbond>
0.6080

> <Gold.PLP.Chemscore.CHOScore>
0.0000

> <Gold.PLP.Chemscore.Metal>
0.0000

> <Gold.Chemscore.Hbonds>
donor molecule, donor type, donor heavy atom, donor atom, acceptor molecule, acceptor atom, score
      P1  H  6931  6943       L1     5  0.56

> <Gold.PLP.Chemscore.Internal.Correction>
0.1154

> <Gold.Rescore>
     Score         DG    S(hbond)    S(metal)    S(lipo)     H(rot)  DE(clash)    DE(int)     intcor
     16.36     -17.19       0.77        0.00     108.90       1.41       0.00       0.83       ----

> <Gold.Chemscore.Fitness>
16.3605

> <Gold.Chemscore.DG>
-17.1868

> <Gold.Chemscore.ZeroCoef>
-5.4800

> <Gold.Chemscore.Hbond>
0.7686

> <Gold.Chemscore.Metal>
0.0000

> <Gold.Chemscore.Lipo>
108.8984

> <Gold.Chemscore.Internal_Hbond>
0.0000

> <Gold.Chemscore.DEClash>
0.0000

> <Gold.Chemscore.DEInternal>
0.8263

> <Gold.Chemscore.Rot>
1.4068

> <Gold.Chemscore.Internal.Correction>
   9.000000E+99

> <Gold.Chemscore.Hbonds>
donor molecule, donor type, donor heavy atom, donor atom, acceptor molecule, acceptor atom, score
      P1  H  6931  6943       L1     5  0.36

> <Gold.Chemscore.Hbond.Weighted>
-2.5671

> <Gold.Chemscore.Metal.Weighted>
-0.0000

> <Gold.Chemscore.Lipo.Weighted>
-12.7411

> <Gold.Chemscore.Internal_Hbond.Weighted>
0.0000

> <Gold.Chemscore.DEClash.Weighted>
0.0000

> <Gold.Chemscore.DEInternal.Weighted>
0.8263

> <Gold.Chemscore.Rot.Weighted>
3.6014

> <Gold.Chemscore.Internal.Correction.Weighted>
   9.000000E+99

> <Gold.Protein.RotatedTorsions>
[ 6907 6896 6895 6894 ] final   70.81 input  -60.11 | X-H torsion
[ 7974 7965 7964 7962 ] final  -27.52 input  175.53 | X-H torsion
[ 8008 7997 7996 7995 ] final    9.85 input   59.86 | X-H torsion
[ 10167 10162 10161 10158 ] final   94.99 input  -65.29 | X-H torsion
[ 10718 10713 10712 10709 ] final   21.10 input   66.30 | X-H torsion
[ 10763 10752 10751 10750 ] final -160.86 input  -60.55 | X-H torsion
[ 11005 11000 10999 10996 ] final  102.18 input  -57.11 | X-H torsion

> <Gold.Protein.ActiveResidues>
 VAL166  LYS551  ARG553  GLY616  TRP617  ASP618  TYR619  PRO620  LYS621  CYS622 
 ASP623  PHE694  ASN695  SER759  ASP760  ASP761  ALA762  ILE779  LEU786  VAL792 
 PHE793  MET794  SER795  GLU796  ALA797  LYS798  CYS799  TRP800  GLU811  SER814 

> <Gold.Protein.RotatedAtoms>
  152.4772  134.4814  159.9666 H   0  0  0  0  0  0  0  0  0  0  0  0  # atno 6907 bound_to 6896
  151.4827  133.3537  159.2848 H   0  0  0  0  0  0  0  0  0  0  0  0  # atno 6908 bound_to 6896
  150.8819  134.8237  159.7292 H   0  0  0  0  0  0  0  0  0  0  0  0  # atno 6909 bound_to 6896
  146.1352  140.5163  142.8676 H   0  0  0  0  0  0  0  0  0  0  0  0  # atno 7974 bound_to 7965
  154.7856  140.2826  155.6030 H   0  0  0  0  0  0  0  0  0  0  0  0  # atno 8008 bound_to 7997
  156.2957  140.2614  156.2620 H   0  0  0  0  0  0  0  0  0  0  0  0  # atno 8009 bound_to 7997
  154.9732  140.0376  157.2233 H   0  0  0  0  0  0  0  0  0  0  0  0  # atno 8010 bound_to 7997
  139.8031  144.6805  150.9739 H   0  0  0  0  0  0  0  0  0  0  0  0  # atno 10167 bound_to 10162
  157.1338  130.6602  149.5959 H   0  0  0  0  0  0  0  0  0  0  0  0  # atno 10718 bound_to 10713
  154.7354  135.3056  154.8821 H   0  0  0  0  0  0  0  0  0  0  0  0  # atno 10763 bound_to 10752
  153.9651  135.6748  153.4750 H   0  0  0  0  0  0  0  0  0  0  0  0  # atno 10764 bound_to 10752
  153.0957  135.4937  154.8697 H   0  0  0  0  0  0  0  0  0  0  0  0  # atno 10765 bound_to 10752
  139.8776  134.9213  156.5019 H   0  0  0  0  0  0  0  0  0  0  0  0  # atno 11005 bound_to 11000
  144.7732  140.5683  143.6656 LP  0  0  0  0  0  0  0  0  0  0  0  0  # atno 17320 bound_to 7965
  145.5172  139.1477  143.3572 LP  0  0  0  0  0  0  0  0  0  0  0  0  # atno 17321 bound_to 7965
  140.7820  143.4261  151.0766 LP  0  0  0  0  0  0  0  0  0  0  0  0  # atno 17342 bound_to 10162
  139.7932  143.8189  152.3154 LP  0  0  0  0  0  0  0  0  0  0  0  0  # atno 17343 bound_to 10162
  155.9802  130.4802  150.6761 LP  0  0  0  0  0  0  0  0  0  0  0  0  # atno 17370 bound_to 10713
  157.4369  131.0856  151.0983 LP  0  0  0  0  0  0  0  0  0  0  0  0  # atno 17371 bound_to 10713
  140.8583  133.8079  155.9239 LP  0  0  0  0  0  0  0  0  0  0  0  0  # atno 17394 bound_to 11000
  140.9075  134.2302  157.5005 LP  0  0  0  0  0  0  0  0  0  0  0  0  # atno 17395 bound_to 11000

$$$$
