AV-unprocessed.smi:1624|AV-procd|sdf|6503|dock7
  -GOLD-   22720 7173D 1   1.00000     0.00000
 Structure written by MMmdl.
 36 37  0  0  0  0  0  0  0  0  1 V2000
  144.7503  137.4243  152.6147 O   0  0  0  0  0  0  0  0  0  0  0  0
  145.9324  137.0931  152.5174 C   0  0  0  0  0  0  0  0  0  0  0  0
  146.9449  137.8112  153.0238 N   0  0  0  0  0  0  0  0  0  0  0  0
  146.7976  139.0642  153.7533 C   0  0  0  0  0  0  0  0  0  0  0  0
  147.6802  140.1759  153.1560 C   0  0  0  0  0  0  0  0  0  0  0  0
  148.2674  141.0074  154.2136 N   0  0  0  0  0  0  0  0  0  0  0  0
  147.3899  142.0373  154.7941 C   0  0  0  0  0  0  0  0  0  0  0  0
  146.9487  141.7329  156.2451 C   0  0  0  0  0  0  0  0  0  0  0  0
  147.9329  140.9115  157.1013 C   0  0  0  0  0  0  0  0  0  0  0  0
  149.3741  141.4612  157.1465 C   0  0  0  0  0  0  0  0  0  0  0  0
  150.0628  141.7045  155.7822 C   0  0  0  0  0  0  0  0  0  0  0  0
  149.5392  140.8156  154.6426 C   0  0  0  0  0  0  0  0  0  0  0  0
  150.2865  139.9598  154.1678 O   0  0  0  0  0  0  0  0  0  0  0  0
  146.3831  135.9857  151.9025 N   0  0  0  0  0  0  0  0  0  0  0  0
  145.6330  134.9751  151.2449 C   0  0  0  0  0  0  0  0  0  0  0  0
  146.0234  133.6938  151.1596 N   0  0  0  0  0  0  0  0  0  0  0  0
  145.1051  132.9162  150.4658 N   0  0  0  0  0  0  0  0  0  0  0  0
  144.0598  133.6406  150.0562 C   0  0  0  0  0  0  0  0  0  0  0  0
  144.0949  135.3437  150.4783 S   0  0  0  0  0  0  0  0  0  0  0  0
  147.8855  137.4669  152.8986 H   0  0  0  0  0  0  0  0  0  0  0  0
  145.7500  139.3704  153.7617 H   0  0  0  0  0  0  0  0  0  0  0  0
  147.0733  138.8796  154.7917 H   0  0  0  0  0  0  0  0  0  0  0  0
  148.4693  139.7365  152.5433 H   0  0  0  0  0  0  0  0  0  0  0  0
  147.0974  140.7876  152.4665 H   0  0  0  0  0  0  0  0  0  0  0  0
  147.8969  143.0017  154.7569 H   0  0  0  0  0  0  0  0  0  0  0  0
  146.4974  142.1858  154.1856 H   0  0  0  0  0  0  0  0  0  0  0  0
  146.7230  142.6734  156.7484 H   0  0  0  0  0  0  0  0  0  0  0  0
  146.0062  141.1853  156.2107 H   0  0  0  0  0  0  0  0  0  0  0  0
  147.5466  140.8513  158.1190 H   0  0  0  0  0  0  0  0  0  0  0  0
  147.9477  139.8802  156.7457 H   0  0  0  0  0  0  0  0  0  0  0  0
  149.3787  142.3959  157.7081 H   0  0  0  0  0  0  0  0  0  0  0  0
  149.9839  140.7689  157.7281 H   0  0  0  0  0  0  0  0  0  0  0  0
  149.9604  142.7496  155.4910 H   0  0  0  0  0  0  0  0  0  0  0  0
  151.1371  141.5503  155.8914 H   0  0  0  0  0  0  0  0  0  0  0  0
  147.3828  135.8478  151.9067 H   0  0  0  0  0  0  0  0  0  0  0  0
  143.2622  133.1689  149.5020 H   0  0  0  0  0  0  0  0  0  0  0  0
  1  2  2  0  0  0  0
  2  3  1  0  0  0  0
  2 14  1  0  0  0  0
  3  4  1  0  0  0  0
  3 20  1  0  0  0  0
  4  5  1  0  0  0  0
  4 21  1  0  0  0  0
  4 22  1  0  0  0  0
  5  6  1  0  0  0  0
  5 23  1  0  0  0  0
  5 24  1  0  0  0  0
  6 12  1  0  0  0  0
  6  7  1  0  0  0  0
  7  8  1  0  0  0  0
  7 25  1  0  0  0  0
  7 26  1  0  0  0  0
  8  9  1  0  0  0  0
  8 27  1  0  0  0  0
  8 28  1  0  0  0  0
  9 10  1  0  0  0  0
  9 29  1  0  0  0  0
  9 30  1  0  0  0  0
 10 11  1  0  0  0  0
 10 31  1  0  0  0  0
 10 32  1  0  0  0  0
 11 12  1  0  0  0  0
 11 33  1  0  0  0  0
 11 34  1  0  0  0  0
 12 13  2  0  0  0  0
 14 15  1  0  0  0  0
 14 35  1  0  0  0  0
 15 19  1  0  0  0  0
 15 16  2  0  0  0  0
 16 17  1  0  0  0  0
 17 18  2  0  0  0  0
 18 19  1  0  0  0  0
 18 36  1  0  0  0  0
M  END
> <s_m_source_file>
AV-unprocessed.smi

> <i_m_source_file_index>
1624

> <i_lp_mmshare_version>
43012

> <i_f3d_flags>
0

> <s_epik_input>
czFbY0hdbm5jMVtOSF1DKD1PKVtOSF1bQ0gyXVtDSDJdTjJbQ0gyXVtDSDJdW0NIMl1bQ0gyXVtDSDJdQzI9Tw==

> <s_epik_cmdline>
J2VwaWtfcHl0aG9uJywgJy1waCcsICc3LjAnLCAnLXRuJywgJzgnLCAnLW1hJywgJzIwMCcsICctbWV0YWxfYmluZGluZycsICctaW1hZScsICc8aW5maWxlLm1hZT4nLCAnLW9tYWUnLCAnPG91dGZpbGUubWFlPic=

> <r_lp_tautomer_probability>
1

> <r_epik_Ionization_Penalty>
0.00222419

> <r_epik_Ionization_Penalty_Charging>
0

> <r_epik_Ionization_Penalty_Neutral>
0.00222419

> <r_epik_State_Penalty>
-0

> <r_epik_Charging_Adjusted_Penalty>
0

> <i_epik_Tot_Q>
0

> <i_epik_Tot_abs_Q>
0

> <r_epik_Metal_State_Penalty>
0.3454

> <b_epik_Metal_Only>
0

> <s_lp_Force_Field>
OPLS_2005

> <r_lp_Energy>
20.1162

> <b_lp_Chiralities_Consistent>
1

> <s_lp_Variant>
AV-unprocessed.smi:1624-1

> <Gold.Version>
5.8.1

> <Gold.Id.Protein>
6NUR|6NUR_protein|mol2

> <Gold.PLP.Fitness>
37.1206

> <Gold.PLP.PLP>
-28.1798

> <Gold.PLP.part.hbond>
-3.0000

> <Gold.PLP.part.metal>
0.0000

> <Gold.PLP.part.buried>
-0.6726

> <Gold.PLP.part.nonpolar>
-25.6118

> <Gold.PLP.part.repulsive>
1.0090

> <Gold.PLP.ligand.clash>
0.0000

> <Gold.PLP.ligand.torsion>
0.7656

> <Gold.PLP.Chemscore.Hbond>
2.8640

> <Gold.PLP.Chemscore.CHOScore>
0.6230

> <Gold.PLP.Chemscore.Metal>
0.0000

> <Gold.Chemscore.Hbonds>
donor molecule, donor type, donor heavy atom, donor atom, acceptor molecule, acceptor atom, score
      L1  H     3    20       P1  7948  0.86
      L1  H    14    35       P1  7948  1.00
      P1  H  7989  7998       L1    13  1.00
      L1  C    18    36       P1 10186  0.62

> <Gold.PLP.Chemscore.Internal.Correction>
0.0109

> <Gold.Rescore>
     Score         DG    S(hbond)    S(metal)    S(lipo)     H(rot)  DE(clash)    DE(int)     intcor
     13.29     -15.64       2.69        0.00      48.62       1.76       1.57       0.78       ----

> <Gold.Chemscore.Fitness>
13.2918

> <Gold.Chemscore.DG>
-15.6421

> <Gold.Chemscore.ZeroCoef>
-5.4800

> <Gold.Chemscore.Hbond>
2.6896

> <Gold.Chemscore.Metal>
0.0000

> <Gold.Chemscore.Lipo>
48.6170

> <Gold.Chemscore.Internal_Hbond>
0.0000

> <Gold.Chemscore.DEClash>
1.5728

> <Gold.Chemscore.DEInternal>
0.7775

> <Gold.Chemscore.Rot>
1.7615

> <Gold.Chemscore.Internal.Correction>
   9.000000E+99

> <Gold.Chemscore.Hbonds>
donor molecule, donor type, donor heavy atom, donor atom, acceptor molecule, acceptor atom, score
      L1  H     3    20       P1  7948  0.84
      L1  H    14    35       P1  7948  0.97
      P1  H  7989  7998       L1    13  0.49

> <Gold.Chemscore.Hbond.Weighted>
-8.9833

> <Gold.Chemscore.Metal.Weighted>
-0.0000

> <Gold.Chemscore.Lipo.Weighted>
-5.6882

> <Gold.Chemscore.Internal_Hbond.Weighted>
0.0000

> <Gold.Chemscore.DEClash.Weighted>
1.5728

> <Gold.Chemscore.DEInternal.Weighted>
0.7775

> <Gold.Chemscore.Rot.Weighted>
4.5095

> <Gold.Chemscore.Internal.Correction.Weighted>
   9.000000E+99

> <Gold.Protein.RotatedTorsions>
[ 6907 6896 6895 6894 ] final   36.37 input  -60.11 | X-H torsion
[ 7974 7965 7964 7962 ] final -132.87 input  175.53 | X-H torsion
[ 8008 7997 7996 7995 ] final  -57.72 input   59.86 | X-H torsion
[ 10167 10162 10161 10158 ] final   93.50 input  -65.29 | X-H torsion
[ 10718 10713 10712 10709 ] final -139.89 input   66.30 | X-H torsion
[ 10763 10752 10751 10750 ] final  -96.53 input  -60.55 | X-H torsion
[ 11005 11000 10999 10996 ] final  138.80 input  -57.11 | X-H torsion

> <Gold.Protein.ActiveResidues>
 VAL166  LYS551  ARG553  GLY616  TRP617  ASP618  TYR619  PRO620  LYS621  CYS622 
 ASP623  PHE694  ASN695  SER759  ASP760  ASP761  ALA762  ILE779  LEU786  VAL792 
 PHE793  MET794  SER795  GLU796  ALA797  LYS798  CYS799  TRP800  GLU811  SER814 

> <Gold.Protein.RotatedAtoms>
  152.1288  134.9151  160.0559 H   0  0  0  0  0  0  0  0  0  0  0  0  # atno 6907 bound_to 6896
  152.0263  133.3914  159.4287 H   0  0  0  0  0  0  0  0  0  0  0  0  # atno 6908 bound_to 6896
  150.6854  134.3491  159.4945 H   0  0  0  0  0  0  0  0  0  0  0  0  # atno 6909 bound_to 6896
  144.9245  140.7055  143.4944 H   0  0  0  0  0  0  0  0  0  0  0  0  # atno 7974 bound_to 7965
  154.4279  140.1100  156.5843 H   0  0  0  0  0  0  0  0  0  0  0  0  # atno 8008 bound_to 7997
  155.6079  140.3494  155.4594 H   0  0  0  0  0  0  0  0  0  0  0  0  # atno 8009 bound_to 7997
  156.0122  140.1221  157.0432 H   0  0  0  0  0  0  0  0  0  0  0  0  # atno 8010 bound_to 7997
  139.8173  144.6747  150.9563 H   0  0  0  0  0  0  0  0  0  0  0  0  # atno 10167 bound_to 10162
  156.3160  130.7508  151.1594 H   0  0  0  0  0  0  0  0  0  0  0  0  # atno 10718 bound_to 10713
  154.7248  135.5080  153.8868 H   0  0  0  0  0  0  0  0  0  0  0  0  # atno 10763 bound_to 10752
  153.0895  135.6655  153.9892 H   0  0  0  0  0  0  0  0  0  0  0  0  # atno 10764 bound_to 10752
  153.9706  135.3038  155.3407 H   0  0  0  0  0  0  0  0  0  0  0  0  # atno 10765 bound_to 10752
  140.0209  134.9397  157.0472 H   0  0  0  0  0  0  0  0  0  0  0  0  # atno 11005 bound_to 11000
  145.3242  139.1779  143.4572 LP  0  0  0  0  0  0  0  0  0  0  0  0  # atno 17320 bound_to 7965
  146.3220  140.3263  142.8637 LP  0  0  0  0  0  0  0  0  0  0  0  0  # atno 17321 bound_to 7965
  140.7815  143.4126  151.0969 LP  0  0  0  0  0  0  0  0  0  0  0  0  # atno 17342 bound_to 10162
  139.7788  143.8385  152.3134 LP  0  0  0  0  0  0  0  0  0  0  0  0  # atno 17343 bound_to 10162
  157.7401  131.0520  150.5185 LP  0  0  0  0  0  0  0  0  0  0  0  0  # atno 17370 bound_to 10713
  156.5331  130.4189  149.6191 LP  0  0  0  0  0  0  0  0  0  0  0  0  # atno 17371 bound_to 10713
  140.4388  134.1702  155.7172 LP  0  0  0  0  0  0  0  0  0  0  0  0  # atno 17394 bound_to 11000
  141.1773  133.8487  157.1378 LP  0  0  0  0  0  0  0  0  0  0  0  0  # atno 17395 bound_to 11000

$$$$
