AV-unprocessed.smi:2925|AV-procd|sdf|11224|dock2
  -GOLD-   2272016113D 1   1.00000     0.00000
 Structure written by MMmdl.
 44 45  0  0  0  0  0  0  0  0  1 V2000
  150.3262  132.6930  155.2678 C   0  0  0  0  0  0  0  0  0  0  0  0
  150.6607  134.1703  155.5223 C   0  0  0  0  0  0  0  0  0  0  0  0
  149.4476  135.1170  155.4081 C   0  0  2  0  0  0  0  0  0  0  0  0
  148.7692  134.9090  154.1284 N   0  0  0  0  0  0  0  0  0  0  0  0
  147.8102  134.0045  153.8847 C   0  0  0  0  0  0  0  0  0  0  0  0
  147.3731  133.2201  154.7274 O   0  0  0  0  0  0  0  0  0  0  0  0
  147.4191  134.0449  152.5988 N   0  0  0  0  0  0  0  0  0  0  0  0
  146.4962  133.1806  151.9900 C   0  0  0  0  0  0  0  0  0  0  0  0
  145.5299  133.7068  151.1923 C   0  0  0  0  0  0  0  0  0  0  0  0
  145.4451  135.1996  150.9151 C   0  0  0  0  0  0  0  0  0  0  0  0
  144.5719  132.8183  150.5680 C   0  0  0  0  0  0  0  0  0  0  0  0
  144.6528  131.4998  150.7921 C   0  0  0  0  0  0  0  0  0  0  0  0
  145.6330  130.9541  151.6336 N   0  0  0  0  0  0  0  0  0  0  0  0
  145.6252  129.5020  151.8299 C   0  0  0  0  0  0  0  0  0  0  0  0
  146.5467  131.7284  152.2865 C   0  0  0  0  0  0  0  0  0  0  0  0
  147.3441  131.2289  153.0837 O   0  0  0  0  0  0  0  0  0  0  0  0
  149.8589  136.5975  155.5359 C   0  0  1  0  0  0  0  0  0  0  0  0
  151.0488  137.0076  154.6650 C   0  0  0  0  0  0  0  0  0  0  0  0
  150.8415  138.5001  154.5513 C   0  0  0  0  0  0  0  0  0  0  0  0
  149.3228  138.5976  154.4392 C   0  0  0  0  0  0  0  0  0  0  0  0
  148.8010  137.4554  155.1142 O   0  0  0  0  0  0  0  0  0  0  0  0
  151.2046  132.0664  155.4221 H   0  0  0  0  0  0  0  0  0  0  0  0
  149.9819  132.5278  154.2468 H   0  0  0  0  0  0  0  0  0  0  0  0
  149.5463  132.3443  155.9454 H   0  0  0  0  0  0  0  0  0  0  0  0
  151.0895  134.2547  156.5214 H   0  0  0  0  0  0  0  0  0  0  0  0
  151.4428  134.4866  154.8310 H   0  0  0  0  0  0  0  0  0  0  0  0
  148.7681  134.8940  156.2328 H   0  0  0  0  0  0  0  0  0  0  0  0
  149.0630  135.5002  153.3649 H   0  0  0  0  0  0  0  0  0  0  0  0
  147.9326  134.6510  151.9762 H   0  0  0  0  0  0  0  0  0  0  0  0
  144.6171  135.4308  150.2446 H   0  0  0  0  0  0  0  0  0  0  0  0
  146.3644  135.5546  150.4477 H   0  0  0  0  0  0  0  0  0  0  0  0
  145.2906  135.7534  151.8417 H   0  0  0  0  0  0  0  0  0  0  0  0
  143.8018  133.2087  149.9184 H   0  0  0  0  0  0  0  0  0  0  0  0
  143.9698  130.7883  150.3515 H   0  0  0  0  0  0  0  0  0  0  0  0
  146.6176  129.0808  151.6610 H   0  0  0  0  0  0  0  0  0  0  0  0
  144.9420  128.9906  151.1509 H   0  0  0  0  0  0  0  0  0  0  0  0
  145.3211  129.2591  152.8490 H   0  0  0  0  0  0  0  0  0  0  0  0
  150.0846  136.8366  156.5767 H   0  0  0  0  0  0  0  0  0  0  0  0
  152.0114  136.7427  155.1033 H   0  0  0  0  0  0  0  0  0  0  0  0
  150.9824  136.5452  153.6789 H   0  0  0  0  0  0  0  0  0  0  0  0
  151.1842  138.9946  155.4614 H   0  0  0  0  0  0  0  0  0  0  0  0
  151.3622  138.9447  153.7026 H   0  0  0  0  0  0  0  0  0  0  0  0
  148.9364  139.5227  154.8675 H   0  0  0  0  0  0  0  0  0  0  0  0
  149.0120  138.5522  153.3948 H   0  0  0  0  0  0  0  0  0  0  0  0
  1  2  1  0  0  0  0
  1 22  1  0  0  0  0
  1 23  1  0  0  0  0
  1 24  1  0  0  0  0
  2  3  1  0  0  0  0
  2 25  1  0  0  0  0
  2 26  1  0  0  0  0
  3  4  1  0  0  0  0
  3 17  1  0  0  0  0
  3 27  1  0  0  0  0
  4  5  1  0  0  0  0
  4 28  1  0  0  0  0
  5  6  2  0  0  0  0
  5  7  1  0  0  0  0
  7  8  1  0  0  0  0
  7 29  1  0  0  0  0
  8 15  1  0  0  0  0
  8  9  2  0  0  0  0
  9 10  1  0  0  0  0
  9 11  1  0  0  0  0
 10 30  1  0  0  0  0
 10 31  1  0  0  0  0
 10 32  1  0  0  0  0
 11 12  2  0  0  0  0
 11 33  1  0  0  0  0
 12 13  1  0  0  0  0
 12 34  1  0  0  0  0
 13 14  1  0  0  0  0
 13 15  1  0  0  0  0
 14 35  1  0  0  0  0
 14 36  1  0  0  0  0
 14 37  1  0  0  0  0
 15 16  2  0  0  0  0
 17 21  1  0  0  0  0
 17 18  1  0  0  0  0
 17 38  1  0  0  0  0
 18 19  1  0  0  0  0
 18 39  1  0  0  0  0
 18 40  1  0  0  0  0
 19 20  1  0  0  0  0
 19 41  1  0  0  0  0
 19 42  1  0  0  0  0
 20 21  1  0  0  0  0
 20 43  1  0  0  0  0
 20 44  1  0  0  0  0
M  END
> <s_m_source_file>
AV-unprocessed.smi

> <i_m_source_file_index>
2925

> <i_lp_mmshare_version>
43012

> <i_f3d_flags>
0

> <s_epik_input>
TzFbQ0gyXVtDSDJdW0NIMl1bQ0BIXTFbQ0BIXShbQ0gyXVtDSDNdKVtOSF1DKD1PKVtOSF1jMmMoW0NIM10pW2NIXVtjSF1uKFtDSDNdKWMyPU8=

> <s_epik_cmdline>
J2VwaWtfcHl0aG9uJywgJy1waCcsICc3LjAnLCAnLXRuJywgJzgnLCAnLW1hJywgJzIwMCcsICctbWV0YWxfYmluZGluZycsICctaW1hZScsICc8aW5maWxlLm1hZT4nLCAnLW9tYWUnLCAnPG91dGZpbGUubWFlPic=

> <r_lp_tautomer_probability>
1

> <r_epik_Ionization_Penalty>
2.58789e-05

> <r_epik_Ionization_Penalty_Charging>
6.72534e-06

> <r_epik_Ionization_Penalty_Neutral>
1.91535e-05

> <r_epik_State_Penalty>
-0

> <r_epik_Charging_Adjusted_Penalty>
6.72534e-06

> <i_epik_Tot_Q>
0

> <i_epik_Tot_abs_Q>
0

> <r_epik_Metal_State_Penalty>
-0

> <b_epik_Metal_Only>
0

> <s_lp_Force_Field>
OPLS_2005

> <r_lp_Energy>
34.9681

> <b_lp_Chiralities_Consistent>
1

> <s_lp_Variant>
AV-unprocessed.smi:2925-3

> <Gold.Version>
5.8.1

> <Gold.Id.Protein>
6NUR|6NUR_protein|mol2

> <Gold.PLP.Fitness>
42.3796

> <Gold.PLP.PLP>
-37.7934

> <Gold.PLP.part.hbond>
-2.0000

> <Gold.PLP.part.metal>
0.0000

> <Gold.PLP.part.buried>
-6.0969

> <Gold.PLP.part.nonpolar>
-30.5071

> <Gold.PLP.part.repulsive>
0.2580

> <Gold.PLP.ligand.clash>
0.0000

> <Gold.PLP.ligand.torsion>
0.9461

> <Gold.PLP.Chemscore.Hbond>
1.9280

> <Gold.PLP.Chemscore.CHOScore>
0.0000

> <Gold.PLP.Chemscore.Metal>
0.0000

> <Gold.Chemscore.Hbonds>
donor molecule, donor type, donor heavy atom, donor atom, acceptor molecule, acceptor atom, score
      L1  H     4    28       P1  7948  1.00
      L1  H     7    29       P1  7948  0.93

> <Gold.PLP.Chemscore.Internal.Correction>
0.6945

> <Gold.Rescore>
     Score         DG    S(hbond)    S(metal)    S(lipo)     H(rot)  DE(clash)    DE(int)     intcor
     12.48     -16.72       1.76        0.00      75.59       1.36       0.01       4.23       ----

> <Gold.Chemscore.Fitness>
12.4776

> <Gold.Chemscore.DG>
-16.7153

> <Gold.Chemscore.ZeroCoef>
-5.4800

> <Gold.Chemscore.Hbond>
1.7568

> <Gold.Chemscore.Metal>
0.0000

> <Gold.Chemscore.Lipo>
75.5889

> <Gold.Chemscore.Internal_Hbond>
0.0000

> <Gold.Chemscore.DEClash>
0.0121

> <Gold.Chemscore.DEInternal>
4.2256

> <Gold.Chemscore.Rot>
1.3579

> <Gold.Chemscore.Internal.Correction>
   9.000000E+99

> <Gold.Chemscore.Hbonds>
donor molecule, donor type, donor heavy atom, donor atom, acceptor molecule, acceptor atom, score
      L1  H     4    28       P1  7948  0.59
      L1  H     7    29       P1  7948  0.23

> <Gold.Chemscore.Hbond.Weighted>
-5.8677

> <Gold.Chemscore.Metal.Weighted>
-0.0000

> <Gold.Chemscore.Lipo.Weighted>
-8.8439

> <Gold.Chemscore.Internal_Hbond.Weighted>
0.0000

> <Gold.Chemscore.DEClash.Weighted>
0.0121

> <Gold.Chemscore.DEInternal.Weighted>
4.2256

> <Gold.Chemscore.Rot.Weighted>
3.4763

> <Gold.Chemscore.Internal.Correction.Weighted>
   9.000000E+99

> <Gold.Protein.RotatedTorsions>
[ 6907 6896 6895 6894 ] final   32.29 input  -60.11 | X-H torsion
[ 7974 7965 7964 7962 ] final -151.60 input  175.53 | X-H torsion
[ 8008 7997 7996 7995 ] final  153.60 input   59.86 | X-H torsion
[ 10167 10162 10161 10158 ] final  -11.68 input  -65.29 | X-H torsion
[ 10718 10713 10712 10709 ] final  154.50 input   66.30 | X-H torsion
[ 10763 10752 10751 10750 ] final  -55.80 input  -60.55 | X-H torsion
[ 11005 11000 10999 10996 ] final  154.51 input  -57.11 | X-H torsion

> <Gold.Protein.ActiveResidues>
 VAL166  LYS551  ARG553  GLY616  TRP617  ASP618  TYR619  PRO620  LYS621  CYS622 
 ASP623  PHE694  ASN695  SER759  ASP760  ASP761  ALA762  ILE779  LEU786  VAL792 
 PHE793  MET794  SER795  GLU796  ALA797  LYS798  CYS799  TRP800  GLU811  SER814 

> <Gold.Protein.RotatedAtoms>
  152.0724  134.9524  160.0574 H   0  0  0  0  0  0  0  0  0  0  0  0  # atno 6907 bound_to 6896
  152.0845  133.4164  159.4524 H   0  0  0  0  0  0  0  0  0  0  0  0  # atno 6908 bound_to 6896
  150.6836  134.2863  159.4691 H   0  0  0  0  0  0  0  0  0  0  0  0  # atno 6909 bound_to 6896
  144.7840  140.4775  143.5819 H   0  0  0  0  0  0  0  0  0  0  0  0  # atno 7974 bound_to 7965
  156.2573  140.1989  156.6515 H   0  0  0  0  0  0  0  0  0  0  0  0  # atno 8008 bound_to 7997
  154.6533  140.0569  157.0005 H   0  0  0  0  0  0  0  0  0  0  0  0  # atno 8009 bound_to 7997
  155.1385  140.3240  155.4460 H   0  0  0  0  0  0  0  0  0  0  0  0  # atno 8010 bound_to 7997
  140.7144  143.5614  150.9191 H   0  0  0  0  0  0  0  0  0  0  0  0  # atno 10167 bound_to 10162
  157.2308  131.0738  151.1854 H   0  0  0  0  0  0  0  0  0  0  0  0  # atno 10718 bound_to 10713
  154.1966  135.6418  153.5075 H   0  0  0  0  0  0  0  0  0  0  0  0  # atno 10763 bound_to 10752
  153.0022  135.5441  154.6359 H   0  0  0  0  0  0  0  0  0  0  0  0  # atno 10764 bound_to 10752
  154.5762  135.2921  155.0752 H   0  0  0  0  0  0  0  0  0  0  0  0  # atno 10765 bound_to 10752
  140.1495  134.8684  157.2436 H   0  0  0  0  0  0  0  0  0  0  0  0  # atno 11005 bound_to 11000
  145.5971  139.1500  143.3150 LP  0  0  0  0  0  0  0  0  0  0  0  0  # atno 17320 bound_to 7965
  146.2063  140.6094  142.9079 LP  0  0  0  0  0  0  0  0  0  0  0  0  # atno 17321 bound_to 7965
  139.9339  143.6460  152.3070 LP  0  0  0  0  0  0  0  0  0  0  0  0  # atno 17342 bound_to 10162
  139.6921  144.7645  151.1420 LP  0  0  0  0  0  0  0  0  0  0  0  0  # atno 17343 bound_to 10162
  157.3480  130.7067  149.6423 LP  0  0  0  0  0  0  0  0  0  0  0  0  # atno 17370 bound_to 10713
  155.9675  130.4261  150.4682 LP  0  0  0  0  0  0  0  0  0  0  0  0  # atno 17371 bound_to 10713
  140.2622  134.3558  155.7403 LP  0  0  0  0  0  0  0  0  0  0  0  0  # atno 17394 bound_to 11000
  141.2197  133.7375  156.9096 LP  0  0  0  0  0  0  0  0  0  0  0  0  # atno 17395 bound_to 11000

$$$$
