AV-unprocessed.smi:1062|AV-procd|sdf|4661|dock9
  -GOLD-   22720 3173D 1   1.00000     0.00000
 Structure written by MMmdl.
 38 40  0  0  0  0  0  0  0  0  1 V2000
  151.3493  145.5614  160.0105 C   0  0  0  0  0  0  0  0  0  0  0  0
  152.0808  144.8223  158.8779 C   0  0  0  0  0  0  0  0  0  0  0  0
  152.3183  143.4066  159.2019 N   0  0  0  0  0  0  0  0  0  0  0  0
  151.8871  142.4278  158.3665 C   0  0  0  0  0  0  0  0  0  0  0  0
  152.2535  141.2569  158.4926 O   0  0  0  0  0  0  0  0  0  0  0  0
  150.8978  142.7824  157.2375 C   0  0  0  0  0  0  0  0  0  0  0  0
  150.6728  141.6224  156.3083 C   0  0  0  0  0  0  0  0  0  0  0  0
  151.6124  140.7205  155.8720 C   0  0  0  0  0  0  0  0  0  0  0  0
  150.9258  139.5260  154.8057 S   0  0  0  0  0  0  0  0  0  0  0  0
  149.3562  140.3151  154.9878 C   0  0  0  0  0  0  0  0  0  0  0  0
  148.1309  139.9148  154.3769 N   0  0  0  0  0  0  0  0  0  0  0  0
  147.9860  138.6143  153.7303 C   0  0  0  0  0  0  0  0  0  0  0  0
  146.5470  138.6153  153.2241 C   0  0  0  0  0  0  0  0  0  0  0  0
  146.0752  139.9105  153.6537 N   0  0  0  0  0  0  0  0  0  0  0  0
  146.9917  140.6313  154.3036 C   0  0  0  0  0  0  0  0  0  0  0  0
  146.7899  141.7600  154.7475 O   0  0  0  0  0  0  0  0  0  0  0  0
  149.3951  141.3834  155.7910 N   0  0  0  0  0  0  0  0  0  0  0  0
  153.2130  143.1932  160.3087 C   0  0  0  0  0  0  0  0  0  0  0  0
  152.9442  142.0797  161.3048 C   0  0  0  0  0  0  0  0  0  0  0  0
  152.7525  143.5142  161.7176 C   0  0  0  0  0  0  0  0  0  0  0  0
  151.1465  146.5945  159.7282 H   0  0  0  0  0  0  0  0  0  0  0  0
  151.9385  145.5823  160.9275 H   0  0  0  0  0  0  0  0  0  0  0  0
  150.3940  145.0868  160.2367 H   0  0  0  0  0  0  0  0  0  0  0  0
  151.4916  144.9170  157.9657 H   0  0  0  0  0  0  0  0  0  0  0  0
  153.0278  145.3189  158.6601 H   0  0  0  0  0  0  0  0  0  0  0  0
  149.9401  143.0962  157.6531 H   0  0  0  0  0  0  0  0  0  0  0  0
  151.2938  143.6342  156.6842 H   0  0  0  0  0  0  0  0  0  0  0  0
  152.6632  140.6831  156.1183 H   0  0  0  0  0  0  0  0  0  0  0  0
  148.6975  138.5102  152.9099 H   0  0  0  0  0  0  0  0  0  0  0  0
  148.1567  137.8072  154.4444 H   0  0  0  0  0  0  0  0  0  0  0  0
  146.4938  138.5282  152.1384 H   0  0  0  0  0  0  0  0  0  0  0  0
  145.9524  137.8199  153.6751 H   0  0  0  0  0  0  0  0  0  0  0  0
  145.1355  140.2317  153.4705 H   0  0  0  0  0  0  0  0  0  0  0  0
  154.2615  143.3973  160.0993 H   0  0  0  0  0  0  0  0  0  0  0  0
  152.0435  141.4806  161.1866 H   0  0  0  0  0  0  0  0  0  0  0  0
  153.8049  141.5504  161.7082 H   0  0  0  0  0  0  0  0  0  0  0  0
  153.4844  143.9434  162.3987 H   0  0  0  0  0  0  0  0  0  0  0  0
  151.7280  143.8520  161.8632 H   0  0  0  0  0  0  0  0  0  0  0  0
  1  2  1  0  0  0  0
  1 21  1  0  0  0  0
  1 22  1  0  0  0  0
  1 23  1  0  0  0  0
  2  3  1  0  0  0  0
  2 24  1  0  0  0  0
  2 25  1  0  0  0  0
  3  4  1  0  0  0  0
  3 18  1  0  0  0  0
  4  5  2  0  0  0  0
  4  6  1  0  0  0  0
  6  7  1  0  0  0  0
  6 26  1  0  0  0  0
  6 27  1  0  0  0  0
  7 17  1  0  0  0  0
  7  8  2  0  0  0  0
  8  9  1  0  0  0  0
  8 28  1  0  0  0  0
  9 10  1  0  0  0  0
 10 11  1  0  0  0  0
 10 17  2  0  0  0  0
 11 15  1  0  0  0  0
 11 12  1  0  0  0  0
 12 13  1  0  0  0  0
 12 29  1  0  0  0  0
 12 30  1  0  0  0  0
 13 14  1  0  0  0  0
 13 31  1  0  0  0  0
 13 32  1  0  0  0  0
 14 15  1  0  0  0  0
 14 33  1  0  0  0  0
 15 16  2  0  0  0  0
 18 20  1  0  0  0  0
 18 19  1  0  0  0  0
 18 34  1  0  0  0  0
 19 20  1  0  0  0  0
 19 35  1  0  0  0  0
 19 36  1  0  0  0  0
 20 37  1  0  0  0  0
 20 38  1  0  0  0  0
M  END
> <s_m_source_file>
AV-unprocessed.smi

> <i_m_source_file_index>
1062

> <i_lp_mmshare_version>
43012

> <i_f3d_flags>
0

> <s_epik_input>
W0NIMl0xW0NIMl1bQ0hdMU4oW0NIMl1bQ0gzXSlDKD1PKVtDSDJdYzJbY0hdc2MobjIpTjNbQ0gyXVtDSDJdW05IXUMzPU8=

> <s_epik_cmdline>
J2VwaWtfcHl0aG9uJywgJy1waCcsICc3LjAnLCAnLXRuJywgJzgnLCAnLW1hJywgJzIwMCcsICctbWV0YWxfYmluZGluZycsICctaW1hZScsICc8aW5maWxlLm1hZT4nLCAnLW9tYWUnLCAnPG91dGZpbGUubWFlPic=

> <r_lp_tautomer_probability>
1

> <r_epik_Ionization_Penalty>
0.000125669

> <r_epik_Ionization_Penalty_Charging>
0

> <r_epik_Ionization_Penalty_Neutral>
0.000125669

> <r_epik_State_Penalty>
-0

> <r_epik_Charging_Adjusted_Penalty>
0

> <i_epik_Tot_Q>
0

> <i_epik_Tot_abs_Q>
0

> <r_epik_Metal_State_Penalty>
-0

> <b_epik_Metal_Only>
0

> <s_lp_Force_Field>
OPLS_2005

> <r_lp_Energy>
60.5217

> <b_lp_Chiralities_Consistent>
1

> <s_lp_Variant>
AV-unprocessed.smi:1062-1

> <Gold.Version>
5.8.1

> <Gold.Id.Protein>
6NUR|6NUR_protein|mol2

> <Gold.PLP.Fitness>
50.1034

> <Gold.PLP.PLP>
-48.5956

> <Gold.PLP.part.hbond>
-1.0000

> <Gold.PLP.part.metal>
0.0000

> <Gold.PLP.part.buried>
-3.3402

> <Gold.PLP.part.nonpolar>
-45.1537

> <Gold.PLP.part.repulsive>
0.2702

> <Gold.PLP.ligand.clash>
0.0000

> <Gold.PLP.ligand.torsion>
0.7634

> <Gold.PLP.Chemscore.Hbond>
0.8960

> <Gold.PLP.Chemscore.CHOScore>
0.0000

> <Gold.PLP.Chemscore.Metal>
0.0000

> <Gold.Chemscore.Hbonds>
donor molecule, donor type, donor heavy atom, donor atom, acceptor molecule, acceptor atom, score
      L1  H    14    33       P1 10175  1.00

> <Gold.PLP.Chemscore.Internal.Correction>
0.3467

> <Gold.Rescore>
     Score         DG    S(hbond)    S(metal)    S(lipo)     H(rot)  DE(clash)    DE(int)     intcor
     12.83     -17.04       0.99        0.00     106.61       1.65       0.41       3.80       ----

> <Gold.Chemscore.Fitness>
12.8341

> <Gold.Chemscore.DG>
-17.0437

> <Gold.Chemscore.ZeroCoef>
-5.4800

> <Gold.Chemscore.Hbond>
0.9907

> <Gold.Chemscore.Metal>
0.0000

> <Gold.Chemscore.Lipo>
106.6065

> <Gold.Chemscore.Internal_Hbond>
0.0000

> <Gold.Chemscore.DEClash>
0.4077

> <Gold.Chemscore.DEInternal>
3.8018

> <Gold.Chemscore.Rot>
1.6477

> <Gold.Chemscore.Internal.Correction>
   9.000000E+99

> <Gold.Chemscore.Hbonds>
donor molecule, donor type, donor heavy atom, donor atom, acceptor molecule, acceptor atom, score
      L1  H    14    33       P1 10175  0.98

> <Gold.Chemscore.Hbond.Weighted>
-3.3089

> <Gold.Chemscore.Metal.Weighted>
-0.0000

> <Gold.Chemscore.Lipo.Weighted>
-12.4730

> <Gold.Chemscore.Internal_Hbond.Weighted>
0.0000

> <Gold.Chemscore.DEClash.Weighted>
0.4077

> <Gold.Chemscore.DEInternal.Weighted>
3.8018

> <Gold.Chemscore.Rot.Weighted>
4.2181

> <Gold.Chemscore.Internal.Correction.Weighted>
   9.000000E+99

> <Gold.Protein.RotatedTorsions>
[ 6907 6896 6895 6894 ] final  -97.61 input  -60.11 | X-H torsion
[ 7974 7965 7964 7962 ] final  -95.75 input  175.53 | X-H torsion
[ 8008 7997 7996 7995 ] final   -0.72 input   59.86 | X-H torsion
[ 10167 10162 10161 10158 ] final -176.77 input  -65.29 | X-H torsion
[ 10718 10713 10712 10709 ] final   31.35 input   66.30 | X-H torsion
[ 10763 10752 10751 10750 ] final  -22.21 input  -60.55 | X-H torsion
[ 11005 11000 10999 10996 ] final  165.28 input  -57.11 | X-H torsion

> <Gold.Protein.ActiveResidues>
 VAL166  LYS551  ARG553  GLY616  TRP617  ASP618  TYR619  PRO620  LYS621  CYS622 
 ASP623  PHE694  ASN695  SER759  ASP760  ASP761  ALA762  ILE779  LEU786  VAL792 
 PHE793  MET794  SER795  GLU796  ALA797  LYS798  CYS799  TRP800  GLU811  SER814 

> <Gold.Protein.RotatedAtoms>
  150.7021  134.1322  159.4073 H   0  0  0  0  0  0  0  0  0  0  0  0  # atno 6907 bound_to 6896
  151.9307  135.0255  160.0538 H   0  0  0  0  0  0  0  0  0  0  0  0  # atno 6908 bound_to 6896
  152.2178  133.4924  159.5182 H   0  0  0  0  0  0  0  0  0  0  0  0  # atno 6909 bound_to 6896
  145.3560  140.9484  143.2527 H   0  0  0  0  0  0  0  0  0  0  0  0  # atno 7974 bound_to 7965
  154.6549  140.2577  155.7173 H   0  0  0  0  0  0  0  0  0  0  0  0  # atno 8008 bound_to 7997
  156.2592  140.2860  156.0918 H   0  0  0  0  0  0  0  0  0  0  0  0  # atno 8009 bound_to 7997
  155.1396  140.0380  157.2785 H   0  0  0  0  0  0  0  0  0  0  0  0  # atno 8010 bound_to 7997
  139.5513  144.2103  152.1081 H   0  0  0  0  0  0  0  0  0  0  0  0  # atno 10167 bound_to 10162
  157.2714  130.7210  149.6506 H   0  0  0  0  0  0  0  0  0  0  0  0  # atno 10718 bound_to 10713
  153.6483  135.6982  153.5217 H   0  0  0  0  0  0  0  0  0  0  0  0  # atno 10763 bound_to 10752
  153.2727  135.4210  155.1002 H   0  0  0  0  0  0  0  0  0  0  0  0  # atno 10764 bound_to 10752
  154.8482  135.3582  154.6028 H   0  0  0  0  0  0  0  0  0  0  0  0  # atno 10765 bound_to 10752
  140.2545  134.7951  157.3532 H   0  0  0  0  0  0  0  0  0  0  0  0  # atno 11005 bound_to 11000
  144.8682  139.5077  143.6780 LP  0  0  0  0  0  0  0  0  0  0  0  0  # atno 17320 bound_to 7965
  146.2948  139.7244  142.9135 LP  0  0  0  0  0  0  0  0  0  0  0  0  # atno 17321 bound_to 7965
  140.1598  144.5036  150.6639 LP  0  0  0  0  0  0  0  0  0  0  0  0  # atno 17342 bound_to 10162
  140.6776  143.2312  151.5468 LP  0  0  0  0  0  0  0  0  0  0  0  0  # atno 17343 bound_to 10162
  155.9663  130.4366  150.5142 LP  0  0  0  0  0  0  0  0  0  0  0  0  # atno 17370 bound_to 10713
  157.3067  131.0656  151.2030 LP  0  0  0  0  0  0  0  0  0  0  0  0  # atno 17371 bound_to 10713
  140.1525  134.4831  155.7951 LP  0  0  0  0  0  0  0  0  0  0  0  0  # atno 17394 bound_to 11000
  141.2197  133.6868  156.7404 LP  0  0  0  0  0  0  0  0  0  0  0  0  # atno 17395 bound_to 11000

$$$$
