AV-unprocessed.smi:198|AV-procd|sdf|1553|dock6
  -GOLD-   2262019423D 1   1.00000     0.00000
 Structure written by MMmdl.
 59 63  0  0  0  0  0  0  0  0  2 V2000
  148.9117  138.3202  154.2870 C   0  0  0  0  0  0  0  0  0  0  0  0
  149.9597  139.2307  153.7695 N   0  3  2  0  0  0  0  0  0  0  0  0
  151.3289  138.6593  153.8234 C   0  0  0  0  0  0  0  0  0  0  0  0
  151.8884  138.6438  155.2560 C   0  0  0  0  0  0  0  0  0  0  0  0
  151.8499  140.0561  155.8824 C   0  0  1  0  0  0  0  0  0  0  0  0
  150.4269  140.6569  155.7930 C   0  0  1  0  0  0  0  0  0  0  0  0
  150.4364  142.1017  156.3287 C   0  0  0  0  0  0  0  0  0  0  0  0
  151.0032  142.1557  157.7558 C   0  0  0  0  0  0  0  0  0  0  0  0
  152.3837  141.4726  157.8384 C   0  0  0  0  0  0  0  0  0  0  0  0
  152.3752  140.1308  157.2532 N   0  0  0  0  0  0  0  0  0  0  0  0
  152.0797  139.1173  158.1027 C   0  0  0  0  0  0  0  0  0  0  0  0
  153.0611  138.5247  158.8307 N   0  0  0  0  0  0  0  0  0  0  0  0
  152.7599  137.5458  159.6890 C   0  0  0  0  0  0  0  0  0  0  0  0
  151.5652  137.0212  159.9707 N   0  0  0  0  0  0  0  0  0  0  0  0
  150.5778  137.6129  159.2383 C   0  0  0  0  0  0  0  0  0  0  0  0
  150.7483  138.6597  158.2904 C   0  0  0  0  0  0  0  0  0  0  0  0
  149.5208  139.0204  157.7516 N   0  0  0  0  0  0  0  0  0  0  0  0
  148.6695  138.2338  158.3519 C   0  0  0  0  0  0  0  0  0  0  0  0
  149.2195  137.3459  159.2516 N   0  0  0  0  0  0  0  0  0  0  0  0
  148.5271  136.3906  160.0700 C   0  0  0  0  0  0  0  0  0  0  0  0
  147.0225  136.1380  159.9421 C   0  0  0  0  0  0  0  0  0  0  0  0
  146.9568  135.8417  161.4591 C   0  0  0  0  0  0  0  0  0  0  0  0
  145.7599  136.4395  162.2195 C   0  0  0  0  0  0  0  0  0  0  0  0
  145.6276  137.8278  161.9923 O   0  0  0  0  0  0  0  0  0  0  0  0
  147.1427  134.3690  161.8818 C   0  0  0  0  0  0  0  0  0  0  0  0
  147.3686  134.2388  163.2702 O   0  0  0  0  0  0  0  0  0  0  0  0
  148.2502  136.6848  161.5439 C   0  0  0  0  0  0  0  0  0  0  0  0
  149.8992  140.5996  154.3427 C   0  0  0  0  0  0  0  0  0  0  0  0
  149.0246  138.1303  155.3543 H   0  0  0  0  0  0  0  0  0  0  0  0
  148.9482  137.3622  153.7680 H   0  0  0  0  0  0  0  0  0  0  0  0
  147.9216  138.7469  154.1228 H   0  0  0  0  0  0  0  0  0  0  0  0
  151.3309  137.6535  153.4015 H   0  0  0  0  0  0  0  0  0  0  0  0
  151.9788  139.2605  153.1863 H   0  0  0  0  0  0  0  0  0  0  0  0
  151.3145  137.9353  155.8538 H   0  0  0  0  0  0  0  0  0  0  0  0
  152.9136  138.2732  155.2384 H   0  0  0  0  0  0  0  0  0  0  0  0
  152.5102  140.6828  155.2807 H   0  0  0  0  0  0  0  0  0  0  0  0
  149.7567  140.0719  156.4237 H   0  0  0  0  0  0  0  0  0  0  0  0
  151.0414  142.7333  155.6766 H   0  0  0  0  0  0  0  0  0  0  0  0
  149.4282  142.5172  156.3158 H   0  0  0  0  0  0  0  0  0  0  0  0
  151.0852  143.1921  158.0840 H   0  0  0  0  0  0  0  0  0  0  0  0
  150.3033  141.6792  158.4417 H   0  0  0  0  0  0  0  0  0  0  0  0
  153.1197  142.0707  157.2996 H   0  0  0  0  0  0  0  0  0  0  0  0
  152.7217  141.4313  158.8750 H   0  0  0  0  0  0  0  0  0  0  0  0
  153.5949  137.1231  160.2280 H   0  0  0  0  0  0  0  0  0  0  0  0
  147.6099  138.2886  158.1511 H   0  0  0  0  0  0  0  0  0  0  0  0
  149.0652  135.4472  159.9634 H   0  0  0  0  0  0  0  0  0  0  0  0
  146.4519  137.0265  159.6689 H   0  0  0  0  0  0  0  0  0  0  0  0
  146.7628  135.2993  159.2957 H   0  0  0  0  0  0  0  0  0  0  0  0
  144.8279  135.9454  161.9431 H   0  0  0  0  0  0  0  0  0  0  0  0
  145.8746  136.2957  163.2943 H   0  0  0  0  0  0  0  0  0  0  0  0
  144.8711  138.1387  162.4659 H   0  0  0  0  0  0  0  0  0  0  0  0
  146.2631  133.7732  161.6370 H   0  0  0  0  0  0  0  0  0  0  0  0
  147.9748  133.9093  161.3473 H   0  0  0  0  0  0  0  0  0  0  0  0
  146.9248  133.4604  163.5722 H   0  0  0  0  0  0  0  0  0  0  0  0
  149.0071  136.3008  162.2285 H   0  0  0  0  0  0  0  0  0  0  0  0
  148.0644  137.7451  161.7257 H   0  0  0  0  0  0  0  0  0  0  0  0
  150.4962  141.2573  153.7092 H   0  0  0  0  0  0  0  0  0  0  0  0
  148.8760  140.9742  154.2923 H   0  0  0  0  0  0  0  0  0  0  0  0
  149.7472  139.3364  152.7875 H   0  0  0  0  0  0  0  0  0  0  0  0
  1  2  1  0  0  0  0
  1 29  1  0  0  0  0
  1 30  1  0  0  0  0
  1 31  1  0  0  0  0
  2 28  1  0  0  0  0
  2  3  1  0  0  0  0
  2 59  1  0  0  0  0
  3  4  1  0  0  0  0
  3 32  1  0  0  0  0
  3 33  1  0  0  0  0
  4  5  1  0  0  0  0
  4 34  1  0  0  0  0
  4 35  1  0  0  0  0
  5 10  1  0  0  0  0
  5  6  1  0  0  0  0
  5 36  1  0  0  0  0
  6  7  1  0  0  0  0
  6 28  1  0  0  0  0
  6 37  1  0  0  0  0
  7  8  1  0  0  0  0
  7 38  1  0  0  0  0
  7 39  1  0  0  0  0
  8  9  1  0  0  0  0
  8 40  1  0  0  0  0
  8 41  1  0  0  0  0
  9 10  1  0  0  0  0
  9 42  1  0  0  0  0
  9 43  1  0  0  0  0
 10 11  1  0  0  0  0
 11 16  1  0  0  0  0
 11 12  2  0  0  0  0
 12 13  1  0  0  0  0
 13 14  2  0  0  0  0
 13 44  1  0  0  0  0
 14 15  1  0  0  0  0
 15 19  1  0  0  0  0
 15 16  2  0  0  0  0
 16 17  1  0  0  0  0
 17 18  2  0  0  0  0
 18 19  1  0  0  0  0
 18 45  1  0  0  0  0
 19 20  1  0  0  0  0
 20 27  1  0  0  0  0
 20 21  1  0  0  0  0
 20 46  1  0  0  0  0
 21 22  1  0  0  0  0
 21 47  1  0  0  0  0
 21 48  1  0  0  0  0
 22 23  1  0  0  0  0
 22 25  1  0  0  0  0
 22 27  1  0  0  0  0
 23 24  1  0  0  0  0
 23 49  1  0  0  0  0
 23 50  1  0  0  0  0
 24 51  1  0  0  0  0
 25 26  1  0  0  0  0
 25 52  1  0  0  0  0
 25 53  1  0  0  0  0
 26 54  1  0  0  0  0
 27 55  1  0  0  0  0
 27 56  1  0  0  0  0
 28 57  1  0  0  0  0
 28 58  1  0  0  0  0
M  CHG  1   2   1
M  END
> <s_m_source_file>
AV-unprocessed.smi

> <i_m_source_file_index>
198

> <i_lp_mmshare_version>
43012

> <i_f3d_flags>
0

> <s_epik_input>
W0NIMl0xW0NIMl1OKFtDSDNdKVtDSDJdW0NAQEhdKFtDQEhdMTIpW0NIMl1bQ0gyXVtDSDJdTjJjKG5bY0hdbjMpYyhjMzQpbltjSF1uNFtDSF0oW0NIMl01KVtDSDJdQzUoW0NIMl1bT0hdKVtDSDJdW09IXQ==

> <s_epik_cmdline>
J2VwaWtfcHl0aG9uJywgJy1waCcsICc3LjAnLCAnLXRuJywgJzgnLCAnLW1hJywgJzIwMCcsICctbWV0YWxfYmluZGluZycsICctaW1hZScsICc8aW5maWxlLm1hZT4nLCAnLW9tYWUnLCAnPG91dGZpbGUubWFlPic=

> <r_lp_tautomer_probability>
1

> <r_epik_Ionization_Penalty>
0.00239938

> <r_epik_Ionization_Penalty_Charging>
0.00138697

> <r_epik_Ionization_Penalty_Neutral>
0.00101241

> <r_epik_State_Penalty>
-0

> <r_epik_Charging_Adjusted_Penalty>
0.00138697

> <i_epik_Tot_Q>
1

> <i_epik_Tot_abs_Q>
1

> <r_epik_Metal_State_Penalty>
-0

> <b_epik_Metal_Only>
0

> <s_lp_Force_Field>
OPLS_2005

> <r_lp_Energy>
59.1545

> <b_lp_Chiralities_Consistent>
1

> <s_lp_Variant>
AV-unprocessed.smi:198-2

> <Gold.Version>
5.8.1

> <Gold.Id.Protein>
6NUR|6NUR_protein|mol2

> <Gold.PLP.Fitness>
43.9541

> <Gold.PLP.PLP>
-37.3429

> <Gold.PLP.part.hbond>
-5.4362

> <Gold.PLP.part.metal>
0.0000

> <Gold.PLP.part.buried>
1.4217

> <Gold.PLP.part.nonpolar>
-32.9060

> <Gold.PLP.part.repulsive>
0.1221

> <Gold.PLP.ligand.clash>
1.5013

> <Gold.PLP.ligand.torsion>
0.8895

> <Gold.PLP.Chemscore.Hbond>
2.9942

> <Gold.PLP.Chemscore.CHOScore>
0.0000

> <Gold.PLP.Chemscore.Metal>
0.0000

> <Gold.Chemscore.Hbonds>
donor molecule, donor type, donor heavy atom, donor atom, acceptor molecule, acceptor atom, score
      L1  H     2    59       P1  7957  1.00
      P1  H  6896  6908       L1    14  1.00
      P1  H  6934  6947       L1    24  0.38
      P1  H  7997  8009       L1    10  0.58

> <Gold.PLP.Chemscore.Internal.Correction>
0.9090

> <Gold.Rescore>
     Score         DG    S(hbond)    S(metal)    S(lipo)     H(rot)  DE(clash)    DE(int)     intcor
     11.19     -17.29       2.09        0.00     108.59       3.08       3.64       2.45       ----

> <Gold.Chemscore.Fitness>
11.1896

> <Gold.Chemscore.DG>
-17.2863

> <Gold.Chemscore.ZeroCoef>
-5.4800

> <Gold.Chemscore.Hbond>
2.0901

> <Gold.Chemscore.Metal>
0.0000

> <Gold.Chemscore.Lipo>
108.5936

> <Gold.Chemscore.Internal_Hbond>
0.0000

> <Gold.Chemscore.DEClash>
3.6443

> <Gold.Chemscore.DEInternal>
2.4524

> <Gold.Chemscore.Rot>
3.0781

> <Gold.Chemscore.Internal.Correction>
   9.000000E+99

> <Gold.Chemscore.Hbonds>
donor molecule, donor type, donor heavy atom, donor atom, acceptor molecule, acceptor atom, score
      L1  H     2    59       P1  7957  0.99
      P1  H  6896  6908       L1    14  0.82
      P1  H  6934  6947       L1    24  0.38
      P1  H  7997  8009       L1    10  0.01

> <Gold.Chemscore.Hbond.Weighted>
-6.9808

> <Gold.Chemscore.Metal.Weighted>
-0.0000

> <Gold.Chemscore.Lipo.Weighted>
-12.7054

> <Gold.Chemscore.Internal_Hbond.Weighted>
0.0000

> <Gold.Chemscore.DEClash.Weighted>
3.6443

> <Gold.Chemscore.DEInternal.Weighted>
2.4524

> <Gold.Chemscore.Rot.Weighted>
7.8800

> <Gold.Chemscore.Internal.Correction.Weighted>
   9.000000E+99

> <Gold.Protein.RotatedTorsions>
[ 6907 6896 6895 6894 ] final -121.29 input  -60.11 | X-H torsion
[ 7974 7965 7964 7962 ] final -165.91 input  175.53 | X-H torsion
[ 8008 7997 7996 7995 ] final  169.75 input   59.86 | X-H torsion
[ 10167 10162 10161 10158 ] final -108.71 input  -65.29 | X-H torsion
[ 10718 10713 10712 10709 ] final  115.52 input   66.30 | X-H torsion
[ 10763 10752 10751 10750 ] final  120.60 input  -60.55 | X-H torsion
[ 11005 11000 10999 10996 ] final  145.91 input  -57.11 | X-H torsion

> <Gold.Protein.ActiveResidues>
 VAL166  LYS551  ARG553  GLY616  TRP617  ASP618  TYR619  PRO620  LYS621  CYS622 
 ASP623  PHE694  ASN695  SER759  ASP760  ASP761  ALA762  ILE779  LEU786  VAL792 
 PHE793  MET794  SER795  GLU796  ALA797  LYS798  CYS799  TRP800  GLU811  SER814 

> <Gold.Protein.RotatedAtoms>
  150.8470  133.7845  159.3039 H   0  0  0  0  0  0  0  0  0  0  0  0  # atno 6907 bound_to 6896
  151.5529  135.1065  159.9963 H   0  0  0  0  0  0  0  0  0  0  0  0  # atno 6908 bound_to 6896
  152.4522  133.7608  159.6802 H   0  0  0  0  0  0  0  0  0  0  0  0  # atno 6909 bound_to 6896
  144.7258  140.2745  143.6245 H   0  0  0  0  0  0  0  0  0  0  0  0  # atno 7974 bound_to 7965
  156.1429  140.1556  156.8893 H   0  0  0  0  0  0  0  0  0  0  0  0  # atno 8008 bound_to 7997
  154.5003  140.0827  156.7821 H   0  0  0  0  0  0  0  0  0  0  0  0  # atno 8009 bound_to 7997
  155.4044  140.3416  155.4261 H   0  0  0  0  0  0  0  0  0  0  0  0  # atno 8010 bound_to 7997
  140.1632  143.4103  152.1410 H   0  0  0  0  0  0  0  0  0  0  0  0  # atno 10167 bound_to 10162
  157.6217  131.1013  150.7342 H   0  0  0  0  0  0  0  0  0  0  0  0  # atno 10718 bound_to 10713
  153.6010  135.3448  155.2945 H   0  0  0  0  0  0  0  0  0  0  0  0  # atno 10763 bound_to 10752
  154.8636  135.4227  154.2413 H   0  0  0  0  0  0  0  0  0  0  0  0  # atno 10764 bound_to 10752
  153.3241  135.7040  153.7076 H   0  0  0  0  0  0  0  0  0  0  0  0  # atno 10765 bound_to 10752
  140.0750  134.9130  157.1408 H   0  0  0  0  0  0  0  0  0  0  0  0  # atno 11005 bound_to 11000
  145.8010  139.1964  143.2048 LP  0  0  0  0  0  0  0  0  0  0  0  0  # atno 17320 bound_to 7965
  146.0676  140.7904  142.9704 LP  0  0  0  0  0  0  0  0  0  0  0  0  # atno 17321 bound_to 7965
  139.5372  144.7221  151.4855 LP  0  0  0  0  0  0  0  0  0  0  0  0  # atno 17342 bound_to 10162
  140.6630  143.8458  150.6909 LP  0  0  0  0  0  0  0  0  0  0  0  0  # atno 17343 bound_to 10162
  156.7698  130.4825  149.5420 LP  0  0  0  0  0  0  0  0  0  0  0  0  # atno 17370 bound_to 10713
  156.1366  130.6215  151.0408 LP  0  0  0  0  0  0  0  0  0  0  0  0  # atno 17371 bound_to 10713
  140.3571  134.2535  155.7191 LP  0  0  0  0  0  0  0  0  0  0  0  0  # atno 17394 bound_to 11000
  141.2026  133.7933  157.0382 LP  0  0  0  0  0  0  0  0  0  0  0  0  # atno 17395 bound_to 11000

$$$$
