AV-unprocessed.smi:2822|AV-procd|sdf|10875|dock7
  -GOLD-   2272015313D 1   1.00000     0.00000
 Structure written by MMmdl.
 40 42  0  0  0  0  0  0  0  0  2 V2000
  147.7643  133.3569  152.0551 Cl  0  0  0  0  0  0  0  0  0  0  0  0
  146.1914  133.0395  151.4099 C   0  0  0  0  0  0  0  0  0  0  0  0
  146.0204  132.0155  150.4561 C   0  0  0  0  0  0  0  0  0  0  0  0
  144.8286  131.7036  149.9054 N   0  0  0  0  0  0  0  0  0  0  0  0
  143.7511  132.4157  150.2950 C   0  0  0  0  0  0  0  0  0  0  0  0
  143.8104  133.4591  151.2406 C   0  0  0  0  0  0  0  0  0  0  0  0
  145.0608  133.7848  151.8171 C   0  0  0  0  0  0  0  0  0  0  0  0
  145.2136  134.8097  152.7634 N   0  0  0  0  0  0  0  0  0  0  0  0
  144.1940  135.8336  152.9323 C   0  0  0  0  0  0  0  0  0  0  0  0
  144.7822  137.2427  152.7747 C   0  0  1  0  0  0  0  0  0  0  0  0
  145.1509  137.8637  154.1345 C   0  0  0  0  0  0  0  0  0  0  0  0
  145.7777  139.1929  153.9475 N   0  3  1  0  0  0  0  0  0  0  0  0
  146.1135  139.8481  155.2371 C   0  0  0  0  0  0  0  0  0  0  0  0
  146.6731  141.2619  155.0101 C   0  0  0  0  0  0  0  0  0  0  0  0
  147.8899  141.2244  154.0765 C   0  0  0  0  0  0  0  0  0  0  0  0
  147.5242  140.5178  152.7643 C   0  0  0  0  0  0  0  0  0  0  0  0
  146.9452  139.1134  153.0278 C   0  0  2  0  0  0  0  0  0  0  0  0
  146.5338  138.4214  151.7136 C   0  0  0  0  0  0  0  0  0  0  0  0
  145.9687  137.1472  151.9935 O   0  0  0  0  0  0  0  0  0  0  0  0
  146.8654  131.4292  150.1259 H   0  0  0  0  0  0  0  0  0  0  0  0
  142.8103  132.1463  149.8381 H   0  0  0  0  0  0  0  0  0  0  0  0
  142.9048  133.9851  151.5018 H   0  0  0  0  0  0  0  0  0  0  0  0
  145.9242  134.7132  153.4751 H   0  0  0  0  0  0  0  0  0  0  0  0
  143.4214  135.6783  152.1785 H   0  0  0  0  0  0  0  0  0  0  0  0
  143.7218  135.7283  153.9099 H   0  0  0  0  0  0  0  0  0  0  0  0
  144.0545  137.8809  152.2688 H   0  0  0  0  0  0  0  0  0  0  0  0
  144.2563  137.9675  154.7501 H   0  0  0  0  0  0  0  0  0  0  0  0
  145.8371  137.2086  154.6743 H   0  0  0  0  0  0  0  0  0  0  0  0
  145.2209  139.9055  155.8613 H   0  0  0  0  0  0  0  0  0  0  0  0
  146.8407  139.2404  155.7777 H   0  0  0  0  0  0  0  0  0  0  0  0
  145.8994  141.8989  154.5797 H   0  0  0  0  0  0  0  0  0  0  0  0
  146.9496  141.7116  155.9643 H   0  0  0  0  0  0  0  0  0  0  0  0
  148.2421  142.2366  153.8742 H   0  0  0  0  0  0  0  0  0  0  0  0
  148.7127  140.6985  154.5628 H   0  0  0  0  0  0  0  0  0  0  0  0
  146.7980  141.1211  152.2174 H   0  0  0  0  0  0  0  0  0  0  0  0
  148.4070  140.4456  152.1279 H   0  0  0  0  0  0  0  0  0  0  0  0
  147.7127  138.5044  153.5090 H   0  0  0  0  0  0  0  0  0  0  0  0
  145.8223  139.0298  151.1524 H   0  0  0  0  0  0  0  0  0  0  0  0
  147.4053  138.2820  151.0733 H   0  0  0  0  0  0  0  0  0  0  0  0
  145.0903  139.7780  153.4943 H   0  0  0  0  0  0  0  0  0  0  0  0
  1  2  1  0  0  0  0
  2  7  1  0  0  0  0
  2  3  2  0  0  0  0
  3  4  1  0  0  0  0
  3 20  1  0  0  0  0
  4  5  2  0  0  0  0
  5  6  1  0  0  0  0
  5 21  1  0  0  0  0
  6  7  2  0  0  0  0
  6 22  1  0  0  0  0
  7  8  1  0  0  0  0
  8  9  1  0  0  0  0
  8 23  1  0  0  0  0
  9 10  1  0  0  0  0
  9 24  1  0  0  0  0
  9 25  1  0  0  0  0
 10 19  1  0  0  0  0
 10 11  1  0  0  0  0
 10 26  1  0  0  0  0
 11 12  1  0  0  0  0
 11 27  1  0  0  0  0
 11 28  1  0  0  0  0
 12 17  1  0  0  0  0
 12 13  1  0  0  0  0
 12 40  1  0  0  0  0
 13 14  1  0  0  0  0
 13 29  1  0  0  0  0
 13 30  1  0  0  0  0
 14 15  1  0  0  0  0
 14 31  1  0  0  0  0
 14 32  1  0  0  0  0
 15 16  1  0  0  0  0
 15 33  1  0  0  0  0
 15 34  1  0  0  0  0
 16 17  1  0  0  0  0
 16 35  1  0  0  0  0
 16 36  1  0  0  0  0
 17 18  1  0  0  0  0
 17 37  1  0  0  0  0
 18 19  1  0  0  0  0
 18 38  1  0  0  0  0
 18 39  1  0  0  0  0
M  CHG  1  12   1
M  END
> <s_m_source_file>
AV-unprocessed.smi

> <i_m_source_file_index>
2822

> <i_lp_mmshare_version>
43012

> <i_f3d_flags>
0

> <s_epik_input>
Q2xjMVtjSF1uW2NIXVtjSF1jMVtOSF1bQ0gyXVtDQEhdKFtDSDJdMilPW0NIMl1bQ0BASF0oTjIzKVtDSDJdW0NIMl1bQ0gyXVtDSDJdMw==

> <s_epik_cmdline>
J2VwaWtfcHl0aG9uJywgJy1waCcsICc3LjAnLCAnLXRuJywgJzgnLCAnLW1hJywgJzIwMCcsICctbWV0YWxfYmluZGluZycsICctaW1hZScsICc8aW5maWxlLm1hZT4nLCAnLW9tYWUnLCAnPG91dGZpbGUubWFlPic=

> <r_lp_tautomer_probability>
0.999999

> <r_epik_Ionization_Penalty>
0.88937

> <r_epik_Ionization_Penalty_Charging>
0.0803403

> <r_epik_Ionization_Penalty_Neutral>
0.80903

> <r_epik_State_Penalty>
0.931884

> <r_epik_Charging_Adjusted_Penalty>
1.01222

> <i_epik_Tot_Q>
1

> <i_epik_Tot_abs_Q>
1

> <r_epik_Metal_State_Penalty>
0.0782275

> <b_epik_Metal_Only>
0

> <s_lp_Force_Field>
OPLS_2005

> <r_lp_Energy>
28.742

> <b_lp_Chiralities_Consistent>
1

> <s_lp_Variant>
AV-unprocessed.smi:2822-16

> <Gold.Version>
5.8.1

> <Gold.Id.Protein>
6NUR|6NUR_protein|mol2

> <Gold.PLP.Fitness>
42.7417

> <Gold.PLP.PLP>
-30.2379

> <Gold.PLP.part.hbond>
-1.9521

> <Gold.PLP.part.metal>
0.0000

> <Gold.PLP.part.buried>
0.5287

> <Gold.PLP.part.nonpolar>
-30.2873

> <Gold.PLP.part.repulsive>
0.3952

> <Gold.PLP.ligand.clash>
0.0000

> <Gold.PLP.ligand.torsion>
0.5677

> <Gold.PLP.Chemscore.Hbond>
2.1030

> <Gold.PLP.Chemscore.CHOScore>
2.4434

> <Gold.PLP.Chemscore.Metal>
0.0000

> <Gold.Chemscore.Hbonds>
donor molecule, donor type, donor heavy atom, donor atom, acceptor molecule, acceptor atom, score
      L1  H    12    40       P1 10175  2.00
      L1  C     3    20       P1 10747  1.00
      L1  C     5    21       P1 10186  0.03
      L1  C     5    21       P1 10952  0.60

> <Gold.PLP.Chemscore.Internal.Correction>
0.0003

> <Gold.Rescore>
     Score         DG    S(hbond)    S(metal)    S(lipo)     H(rot)  DE(clash)    DE(int)     intcor
     14.89     -17.10       1.00        0.00      96.36       1.17       1.78       0.43       ----

> <Gold.Chemscore.Fitness>
14.8888

> <Gold.Chemscore.DG>
-17.1012

> <Gold.Chemscore.ZeroCoef>
-5.4800

> <Gold.Chemscore.Hbond>
1.0000

> <Gold.Chemscore.Metal>
0.0000

> <Gold.Chemscore.Lipo>
96.3640

> <Gold.Chemscore.Internal_Hbond>
0.0000

> <Gold.Chemscore.DEClash>
1.7846

> <Gold.Chemscore.DEInternal>
0.4279

> <Gold.Chemscore.Rot>
1.1693

> <Gold.Chemscore.Internal.Correction>
   9.000000E+99

> <Gold.Chemscore.Hbonds>
donor molecule, donor type, donor heavy atom, donor atom, acceptor molecule, acceptor atom, score
      L1  H    12    40       P1 10175  1.00

> <Gold.Chemscore.Hbond.Weighted>
-3.3400

> <Gold.Chemscore.Metal.Weighted>
-0.0000

> <Gold.Chemscore.Lipo.Weighted>
-11.2746

> <Gold.Chemscore.Internal_Hbond.Weighted>
0.0000

> <Gold.Chemscore.DEClash.Weighted>
1.7846

> <Gold.Chemscore.DEInternal.Weighted>
0.4279

> <Gold.Chemscore.Rot.Weighted>
2.9934

> <Gold.Chemscore.Internal.Correction.Weighted>
   9.000000E+99

> <Gold.Protein.RotatedTorsions>
[ 6907 6896 6895 6894 ] final  134.02 input  -60.11 | X-H torsion
[ 7974 7965 7964 7962 ] final   64.91 input  175.53 | X-H torsion
[ 8008 7997 7996 7995 ] final   15.68 input   59.86 | X-H torsion
[ 10167 10162 10161 10158 ] final  153.85 input  -65.29 | X-H torsion
[ 10718 10713 10712 10709 ] final   34.26 input   66.30 | X-H torsion
[ 10763 10752 10751 10750 ] final  -38.39 input  -60.55 | X-H torsion
[ 11005 11000 10999 10996 ] final  -30.69 input  -57.11 | X-H torsion

> <Gold.Protein.ActiveResidues>
 VAL166  LYS551  ARG553  GLY616  TRP617  ASP618  TYR619  PRO620  LYS621  CYS622 
 ASP623  PHE694  ASN695  SER759  ASP760  ASP761  ALA762  ILE779  LEU786  VAL792 
 PHE793  MET794  SER795  GLU796  ALA797  LYS798  CYS799  TRP800  GLU811  SER814 

> <Gold.Protein.RotatedAtoms>
  152.3157  133.5800  159.5710 H   0  0  0  0  0  0  0  0  0  0  0  0  # atno 6907 bound_to 6896
  150.7345  134.0086  159.3671 H   0  0  0  0  0  0  0  0  0  0  0  0  # atno 6908 bound_to 6896
  151.7975  135.0719  160.0446 H   0  0  0  0  0  0  0  0  0  0  0  0  # atno 6909 bound_to 6896
  145.8447  139.3217  143.0910 H   0  0  0  0  0  0  0  0  0  0  0  0  # atno 7974 bound_to 7965
  154.8660  140.2951  155.5510 H   0  0  0  0  0  0  0  0  0  0  0  0  # atno 8008 bound_to 7997
  156.3021  140.2469  156.3575 H   0  0  0  0  0  0  0  0  0  0  0  0  # atno 8009 bound_to 7997
  154.8867  140.0396  157.1803 H   0  0  0  0  0  0  0  0  0  0  0  0  # atno 8010 bound_to 7997
  139.4825  144.5237  151.7834 H   0  0  0  0  0  0  0  0  0  0  0  0  # atno 10167 bound_to 10162
  157.3081  130.7385  149.6708 H   0  0  0  0  0  0  0  0  0  0  0  0  # atno 10718 bound_to 10713
  153.9121  135.6791  153.4750 H   0  0  0  0  0  0  0  0  0  0  0  0  # atno 10763 bound_to 10752
  153.1073  135.4799  154.8970 H   0  0  0  0  0  0  0  0  0  0  0  0  # atno 10764 bound_to 10752
  154.7521  135.3187  154.8493 H   0  0  0  0  0  0  0  0  0  0  0  0  # atno 10765 bound_to 10752
  140.9404  133.7282  156.1068 H   0  0  0  0  0  0  0  0  0  0  0  0  # atno 11005 bound_to 11000
  145.9425  140.8969  143.0300 LP  0  0  0  0  0  0  0  0  0  0  0  0  # atno 17320 bound_to 7965
  144.6732  140.1569  143.7425 LP  0  0  0  0  0  0  0  0  0  0  0  0  # atno 17321 bound_to 7965
  140.4755  144.1526  150.5924 LP  0  0  0  0  0  0  0  0  0  0  0  0  # atno 17342 bound_to 10162
  140.4336  143.2557  151.9564 LP  0  0  0  0  0  0  0  0  0  0  0  0  # atno 17343 bound_to 10162
  155.9676  130.4259  150.4677 LP  0  0  0  0  0  0  0  0  0  0  0  0  # atno 17370 bound_to 10713
  157.2670  131.0579  151.2284 LP  0  0  0  0  0  0  0  0  0  0  0  0  # atno 17371 bound_to 10713
  140.7741  134.3799  157.5501 LP  0  0  0  0  0  0  0  0  0  0  0  0  # atno 17394 bound_to 11000
  139.8819  134.9041  156.2869 LP  0  0  0  0  0  0  0  0  0  0  0  0  # atno 17395 bound_to 11000

$$$$
