AV-unprocessed.smi:1545|AV-procd|sdf|6215|dock9
  -GOLD-   22720 6383D 1   1.00000     0.00000
 Structure written by MMmdl.
 42 44  0  0  0  0  0  0  0  0  2 V2000
  153.2442  136.2249  159.3986 O   0  0  0  0  0  0  0  0  0  0  0  0
  154.3308  137.1214  159.4804 C   0  0  0  0  0  0  0  0  0  0  0  0
  153.8300  138.5206  159.8614 C   0  0  0  0  0  0  0  0  0  0  0  0
  152.8593  139.0237  158.9030 N   0  0  0  0  0  0  0  0  0  0  0  0
  152.5009  140.3752  158.9449 C   0  0  0  0  0  0  0  0  0  0  0  0
  153.1102  141.3400  159.6845 N   0  3  0  0  0  0  0  0  0  0  0  0
  152.4477  142.5501  159.4600 C   0  0  0  0  0  0  0  0  0  0  0  0
  152.6788  143.8212  159.9768 C   0  0  0  0  0  0  0  0  0  0  0  0
  151.8126  144.8475  159.5459 C   0  0  0  0  0  0  0  0  0  0  0  0
  150.7658  144.5931  158.6358 C   0  0  0  0  0  0  0  0  0  0  0  0
  150.5391  143.3018  158.1160 C   0  0  0  0  0  0  0  0  0  0  0  0
  151.3988  142.2915  158.5450 C   0  0  0  0  0  0  0  0  0  0  0  0
  151.4708  140.9246  158.2501 N   0  0  0  0  0  0  0  0  0  0  0  0
  150.4960  140.3243  157.3268 C   0  0  0  0  0  0  0  0  0  0  0  0
  150.6825  140.8115  155.8763 C   0  0  1  0  0  0  0  0  0  0  0  0
  151.8358  140.1905  155.3482 O   0  0  0  0  0  0  0  0  0  0  0  0
  149.4464  140.5603  155.0240 C   0  0  0  0  0  0  0  0  0  0  0  0
  149.1707  139.2721  154.5142 C   0  0  0  0  0  0  0  0  0  0  0  0
  148.0102  139.0455  153.7493 C   0  0  0  0  0  0  0  0  0  0  0  0
  147.1163  140.1031  153.4943 C   0  0  0  0  0  0  0  0  0  0  0  0
  147.3834  141.3878  154.0039 C   0  0  0  0  0  0  0  0  0  0  0  0
  146.5205  142.4038  153.7666 F   0  0  0  0  0  0  0  0  0  0  0  0
  148.5464  141.6163  154.7643 C   0  0  0  0  0  0  0  0  0  0  0  0
  152.6323  136.5520  158.7567 H   0  0  0  0  0  0  0  0  0  0  0  0
  155.0017  136.7499  160.2552 H   0  0  0  0  0  0  0  0  0  0  0  0
  154.8934  137.1307  158.5460 H   0  0  0  0  0  0  0  0  0  0  0  0
  153.4141  138.5236  160.8701 H   0  0  0  0  0  0  0  0  0  0  0  0
  154.6759  139.2089  159.8635 H   0  0  0  0  0  0  0  0  0  0  0  0
  152.2990  138.3671  158.3780 H   0  0  0  0  0  0  0  0  0  0  0  0
  153.4790  144.0200  160.6748 H   0  0  0  0  0  0  0  0  0  0  0  0
  151.9537  145.8505  159.9217 H   0  0  0  0  0  0  0  0  0  0  0  0
  150.1229  145.4056  158.3297 H   0  0  0  0  0  0  0  0  0  0  0  0
  149.7340  143.1175  157.4200 H   0  0  0  0  0  0  0  0  0  0  0  0
  150.5922  139.2397  157.3906 H   0  0  0  0  0  0  0  0  0  0  0  0
  149.4956  140.5646  157.6889 H   0  0  0  0  0  0  0  0  0  0  0  0
  150.8873  141.8827  155.8817 H   0  0  0  0  0  0  0  0  0  0  0  0
  152.2180  139.6461  156.0198 H   0  0  0  0  0  0  0  0  0  0  0  0
  149.8443  138.4516  154.7137 H   0  0  0  0  0  0  0  0  0  0  0  0
  147.8015  138.0586  153.3637 H   0  0  0  0  0  0  0  0  0  0  0  0
  146.2235  139.9274  152.9125 H   0  0  0  0  0  0  0  0  0  0  0  0
  148.7394  142.6035  155.1580 H   0  0  0  0  0  0  0  0  0  0  0  0
  153.9047  141.1827  160.2906 H   0  0  0  0  0  0  0  0  0  0  0  0
  1  2  1  0  0  0  0
  1 24  1  0  0  0  0
  2  3  1  0  0  0  0
  2 25  1  0  0  0  0
  2 26  1  0  0  0  0
  3  4  1  0  0  0  0
  3 27  1  0  0  0  0
  3 28  1  0  0  0  0
  4  5  1  0  0  0  0
  4 29  1  0  0  0  0
  5 13  1  0  0  0  0
  5  6  2  0  0  0  0
  6  7  1  0  0  0  0
  6 42  1  0  0  0  0
  7 12  2  0  0  0  0
  7  8  1  0  0  0  0
  8  9  2  0  0  0  0
  8 30  1  0  0  0  0
  9 10  1  0  0  0  0
  9 31  1  0  0  0  0
 10 11  2  0  0  0  0
 10 32  1  0  0  0  0
 11 12  1  0  0  0  0
 11 33  1  0  0  0  0
 12 13  1  0  0  0  0
 13 14  1  0  0  0  0
 14 15  1  0  0  0  0
 14 34  1  0  0  0  0
 14 35  1  0  0  0  0
 15 16  1  0  0  0  0
 15 17  1  0  0  0  0
 15 36  1  0  0  0  0
 16 37  1  0  0  0  0
 17 23  1  0  0  0  0
 17 18  2  0  0  0  0
 18 19  1  0  0  0  0
 18 38  1  0  0  0  0
 19 20  2  0  0  0  0
 19 39  1  0  0  0  0
 20 21  1  0  0  0  0
 20 40  1  0  0  0  0
 21 22  1  0  0  0  0
 21 23  2  0  0  0  0
 23 41  1  0  0  0  0
M  CHG  1   6   1
M  END
> <s_m_source_file>
AV-unprocessed.smi

> <i_m_source_file_index>
1545

> <i_lp_mmshare_version>
43012

> <i_f3d_flags>
0

> <s_epik_input>
W09IXVtDSDJdW0NIMl1bTkhdYyhuMSluKGMoYzEyKVtjSF1bY0hdW2NIXVtjSF0yKVtDSDJdW0NASF0oW09IXSljM1tjSF1bY0hdW2NIXWMoRilbY0hdMw==

> <s_epik_cmdline>
J2VwaWtfcHl0aG9uJywgJy1waCcsICc3LjAnLCAnLXRuJywgJzgnLCAnLW1hJywgJzIwMCcsICctbWV0YWxfYmluZGluZycsICctaW1hZScsICc8aW5maWxlLm1hZT4nLCAnLW9tYWUnLCAnPG91dGZpbGUubWFlPic=

> <r_epik_Ionization_Penalty>
0.0688114

> <r_epik_Ionization_Penalty_Charging>
0.0688055

> <r_epik_Ionization_Penalty_Neutral>
5.85933e-06

> <r_epik_State_Penalty>
0.0602293

> <r_epik_Charging_Adjusted_Penalty>
0.129035

> <i_epik_Tot_Q>
1

> <i_epik_Tot_abs_Q>
1

> <r_epik_Metal_State_Penalty>
2.77411

> <b_epik_Metal_Only>
0

> <s_lp_Force_Field>
OPLS_2005

> <r_lp_Energy>
23.1511

> <b_lp_Chiralities_Consistent>
1

> <s_lp_Variant>
AV-unprocessed.smi:1545-2

> <Gold.Version>
5.8.1

> <Gold.Id.Protein>
6NUR|6NUR_protein|mol2

> <Gold.PLP.Fitness>
52.0227

> <Gold.PLP.PLP>
-47.8948

> <Gold.PLP.part.hbond>
-2.0000

> <Gold.PLP.part.metal>
0.0000

> <Gold.PLP.part.buried>
-7.0721

> <Gold.PLP.part.nonpolar>
-40.5906

> <Gold.PLP.part.repulsive>
0.1772

> <Gold.PLP.ligand.clash>
0.0000

> <Gold.PLP.ligand.torsion>
0.7393

> <Gold.PLP.Chemscore.Hbond>
1.8560

> <Gold.PLP.Chemscore.CHOScore>
0.0000

> <Gold.PLP.Chemscore.Metal>
0.0000

> <Gold.Chemscore.Hbonds>
donor molecule, donor type, donor heavy atom, donor atom, acceptor molecule, acceptor atom, score
      P1  H  6896  6907       L1     1  0.85
      P1  H  7989  7998       L1    16  0.71

> <Gold.PLP.Chemscore.Internal.Correction>
0.0385

> <Gold.Rescore>
     Score         DG    S(hbond)    S(metal)    S(lipo)     H(rot)  DE(clash)    DE(int)     intcor
     16.16     -16.60       1.54        0.00     119.95       3.15       0.17       0.27       ----

> <Gold.Chemscore.Fitness>
16.1561

> <Gold.Chemscore.DG>
-16.5984

> <Gold.Chemscore.ZeroCoef>
-5.4800

> <Gold.Chemscore.Hbond>
1.5417

> <Gold.Chemscore.Metal>
0.0000

> <Gold.Chemscore.Lipo>
119.9509

> <Gold.Chemscore.Internal_Hbond>
0.0000

> <Gold.Chemscore.DEClash>
0.1683

> <Gold.Chemscore.DEInternal>
0.2740

> <Gold.Chemscore.Rot>
3.1505

> <Gold.Chemscore.Internal.Correction>
   9.000000E+99

> <Gold.Chemscore.Hbonds>
donor molecule, donor type, donor heavy atom, donor atom, acceptor molecule, acceptor atom, score
      P1  H  6896  6907       L1     1  0.14
      P1  H  7989  7998       L1    16  0.12

> <Gold.Chemscore.Hbond.Weighted>
-5.1493

> <Gold.Chemscore.Metal.Weighted>
-0.0000

> <Gold.Chemscore.Lipo.Weighted>
-14.0343

> <Gold.Chemscore.Internal_Hbond.Weighted>
0.0000

> <Gold.Chemscore.DEClash.Weighted>
0.1683

> <Gold.Chemscore.DEInternal.Weighted>
0.2740

> <Gold.Chemscore.Rot.Weighted>
8.0652

> <Gold.Chemscore.Internal.Correction.Weighted>
   9.000000E+99

> <Gold.Protein.RotatedTorsions>
[ 6907 6896 6895 6894 ] final   40.81 input  -60.11 | X-H torsion
[ 7974 7965 7964 7962 ] final   97.87 input  175.53 | X-H torsion
[ 8008 7997 7996 7995 ] final  130.70 input   59.86 | X-H torsion
[ 10167 10162 10161 10158 ] final  118.46 input  -65.29 | X-H torsion
[ 10718 10713 10712 10709 ] final  179.32 input   66.30 | X-H torsion
[ 10763 10752 10751 10750 ] final  -66.90 input  -60.55 | X-H torsion
[ 11005 11000 10999 10996 ] final  -83.38 input  -57.11 | X-H torsion

> <Gold.Protein.ActiveResidues>
 VAL166  LYS551  ARG553  GLY616  TRP617  ASP618  TYR619  PRO620  LYS621  CYS622 
 ASP623  PHE694  ASN695  SER759  ASP760  ASP761  ALA762  ILE779  LEU786  VAL792 
 PHE793  MET794  SER795  GLU796  ALA797  LYS798  CYS799  TRP800  GLU811  SER814 

> <Gold.Protein.RotatedAtoms>
  152.1873  134.8702  160.0520 H   0  0  0  0  0  0  0  0  0  0  0  0  # atno 6907 bound_to 6896
  151.9604  133.3688  159.4041 H   0  0  0  0  0  0  0  0  0  0  0  0  # atno 6908 bound_to 6896
  150.6928  134.4170  159.5231 H   0  0  0  0  0  0  0  0  0  0  0  0  # atno 6909 bound_to 6896
  145.4198  139.2323  143.3202 H   0  0  0  0  0  0  0  0  0  0  0  0  # atno 7974 bound_to 7965
  156.2959  140.2589  156.2805 H   0  0  0  0  0  0  0  0  0  0  0  0  # atno 8008 bound_to 7997
  154.9607  140.0392  157.2207 H   0  0  0  0  0  0  0  0  0  0  0  0  # atno 8009 bound_to 7997
  154.7949  140.2818  155.5968 H   0  0  0  0  0  0  0  0  0  0  0  0  # atno 8010 bound_to 7997
  139.6110  144.7081  151.2844 H   0  0  0  0  0  0  0  0  0  0  0  0  # atno 10167 bound_to 10162
  156.8775  130.9804  151.3066 H   0  0  0  0  0  0  0  0  0  0  0  0  # atno 10718 bound_to 10713
  154.3666  135.6104  153.5718 H   0  0  0  0  0  0  0  0  0  0  0  0  # atno 10763 bound_to 10752
  152.9791  135.5828  154.4570 H   0  0  0  0  0  0  0  0  0  0  0  0  # atno 10764 bound_to 10752
  154.4317  135.2848  155.1885 H   0  0  0  0  0  0  0  0  0  0  0  0  # atno 10765 bound_to 10752
  141.1658  133.7291  156.8712 H   0  0  0  0  0  0  0  0  0  0  0  0  # atno 11005 bound_to 11000
  146.2662  140.4921  142.8833 LP  0  0  0  0  0  0  0  0  0  0  0  0  # atno 17320 bound_to 7965
  144.8253  140.6618  143.6326 LP  0  0  0  0  0  0  0  0  0  0  0  0  # atno 17321 bound_to 7965
  140.7319  143.6839  150.7978 LP  0  0  0  0  0  0  0  0  0  0  0  0  # atno 17342 bound_to 10162
  140.0433  143.5323  152.2707 LP  0  0  0  0  0  0  0  0  0  0  0  0  # atno 17343 bound_to 10162
  157.6160  130.8618  149.9029 LP  0  0  0  0  0  0  0  0  0  0  0  0  # atno 17370 bound_to 10713
  156.0694  130.3687  150.0808 LP  0  0  0  0  0  0  0  0  0  0  0  0  # atno 17371 bound_to 10713
  140.1780  134.9053  157.2914 LP  0  0  0  0  0  0  0  0  0  0  0  0  # atno 17394 bound_to 11000
  140.2427  134.3777  155.7474 LP  0  0  0  0  0  0  0  0  0  0  0  0  # atno 17395 bound_to 11000

$$$$
