AV-unprocessed.smi:3161|AV-procd|sdf|12056|dock2
  -GOLD-   2272017483D 1   1.00000     0.00000
 Structure written by MMmdl.
 41 42  0  0  0  0  0  0  0  0  2 V2000
  150.6559  136.4546  154.4820 C   0  0  0  0  0  0  0  0  0  0  0  0
  150.5767  137.9516  154.5688 C   0  0  0  0  0  0  0  0  0  0  0  0
  151.6520  138.8800  154.6671 C   0  0  0  0  0  0  0  0  0  0  0  0
  151.2424  140.1369  154.7284 N   0  0  0  0  0  0  0  0  0  0  0  0
  149.8966  140.0559  154.6661 N   0  0  0  0  0  0  0  0  0  0  0  0
  149.0995  141.2684  154.7143 C   0  0  0  0  0  0  0  0  0  0  0  0
  148.6411  141.6364  156.1452 C   0  0  1  0  0  0  0  0  0  0  0  0
  148.4099  140.3972  157.0271 C   0  0  0  0  0  0  0  0  0  0  0  0
  149.6186  142.5279  156.8085 N   0  3  0  0  0  0  0  0  0  0  0  0
  151.0196  142.0552  156.8043 C   0  0  0  0  0  0  0  0  0  0  0  0
  151.8360  142.7550  157.9003 C   0  0  2  0  0  0  0  0  0  0  0  0
  151.7649  142.0010  159.2428 C   0  0  0  0  0  0  0  0  0  0  0  0
  152.5138  142.7733  160.3351 C   0  0  0  0  0  0  0  0  0  0  0  0
  151.9964  144.2143  160.3964 C   0  0  0  0  0  0  0  0  0  0  0  0
  152.0428  144.8579  159.0016 C   0  0  0  0  0  0  0  0  0  0  0  0
  151.3028  144.0660  158.0772 O   0  0  0  0  0  0  0  0  0  0  0  0
  149.4672  138.7487  154.5769 C   0  0  0  0  0  0  0  0  0  0  0  0
  151.6087  136.1233  154.0686 H   0  0  0  0  0  0  0  0  0  0  0  0
  149.8714  136.0442  153.8459 H   0  0  0  0  0  0  0  0  0  0  0  0
  150.5511  135.9899  155.4626 H   0  0  0  0  0  0  0  0  0  0  0  0
  152.7126  138.6782  154.6966 H   0  0  0  0  0  0  0  0  0  0  0  0
  149.6899  142.0816  154.2893 H   0  0  0  0  0  0  0  0  0  0  0  0
  148.2443  141.1269  154.0533 H   0  0  0  0  0  0  0  0  0  0  0  0
  147.6920  142.1715  156.0848 H   0  0  0  0  0  0  0  0  0  0  0  0
  147.6204  139.7599  156.6279 H   0  0  0  0  0  0  0  0  0  0  0  0
  148.1095  140.6844  158.0354 H   0  0  0  0  0  0  0  0  0  0  0  0
  149.3150  139.7943  157.1086 H   0  0  0  0  0  0  0  0  0  0  0  0
  149.5997  143.4134  156.3234 H   0  0  0  0  0  0  0  0  0  0  0  0
  151.0579  140.9754  156.9478 H   0  0  0  0  0  0  0  0  0  0  0  0
  151.4580  142.2673  155.8284 H   0  0  0  0  0  0  0  0  0  0  0  0
  152.8770  142.8255  157.5791 H   0  0  0  0  0  0  0  0  0  0  0  0
  150.7228  141.8719  159.5389 H   0  0  0  0  0  0  0  0  0  0  0  0
  152.1865  141.0008  159.1394 H   0  0  0  0  0  0  0  0  0  0  0  0
  152.3914  142.2832  161.3014 H   0  0  0  0  0  0  0  0  0  0  0  0
  153.5826  142.7759  160.1172 H   0  0  0  0  0  0  0  0  0  0  0  0
  150.9703  144.2198  160.7663 H   0  0  0  0  0  0  0  0  0  0  0  0
  152.5870  144.7990  161.1023 H   0  0  0  0  0  0  0  0  0  0  0  0
  151.6092  145.8575  159.0358 H   0  0  0  0  0  0  0  0  0  0  0  0
  153.0724  144.9698  158.6583 H   0  0  0  0  0  0  0  0  0  0  0  0
  148.4184  138.4954  154.5242 H   0  0  0  0  0  0  0  0  0  0  0  0
  149.3269  142.6822  157.7634 H   0  0  0  0  0  0  0  0  0  0  0  0
  1  2  1  0  0  0  0
  1 18  1  0  0  0  0
  1 19  1  0  0  0  0
  1 20  1  0  0  0  0
  2 17  2  0  0  0  0
  2  3  1  0  0  0  0
  3  4  2  0  0  0  0
  3 21  1  0  0  0  0
  4  5  1  0  0  0  0
  5  6  1  0  0  0  0
  5 17  1  0  0  0  0
  6  7  1  0  0  0  0
  6 22  1  0  0  0  0
  6 23  1  0  0  0  0
  7  8  1  0  0  0  0
  7  9  1  0  0  0  0
  7 24  1  0  0  0  0
  8 25  1  0  0  0  0
  8 26  1  0  0  0  0
  8 27  1  0  0  0  0
  9 10  1  0  0  0  0
  9 28  1  0  0  0  0
  9 41  1  0  0  0  0
 10 11  1  0  0  0  0
 10 29  1  0  0  0  0
 10 30  1  0  0  0  0
 11 16  1  0  0  0  0
 11 12  1  0  0  0  0
 11 31  1  0  0  0  0
 12 13  1  0  0  0  0
 12 32  1  0  0  0  0
 12 33  1  0  0  0  0
 13 14  1  0  0  0  0
 13 34  1  0  0  0  0
 13 35  1  0  0  0  0
 14 15  1  0  0  0  0
 14 36  1  0  0  0  0
 14 37  1  0  0  0  0
 15 16  1  0  0  0  0
 15 38  1  0  0  0  0
 15 39  1  0  0  0  0
 17 40  1  0  0  0  0
M  CHG  1   9   1
M  END
> <s_m_source_file>
AV-unprocessed.smi

> <i_m_source_file_index>
3161

> <i_lp_mmshare_version>
43012

> <i_f3d_flags>
0

> <s_epik_input>
W0NIM11jMVtjSF1ubihbY0hdMSlbQ0gyXVtDQEhdKFtDSDNdKVtOSF1bQ0gyXVtDQEBIXTJbQ0gyXVtDSDJdW0NIMl1bQ0gyXU8y

> <s_epik_cmdline>
J2VwaWtfcHl0aG9uJywgJy1waCcsICc3LjAnLCAnLXRuJywgJzgnLCAnLW1hJywgJzIwMCcsICctbWV0YWxfYmluZGluZycsICctaW1hZScsICc8aW5maWxlLm1hZT4nLCAnLW9tYWUnLCAnPG91dGZpbGUubWFlPic=

> <r_lp_tautomer_probability>
1

> <r_epik_Ionization_Penalty>
0.00849661

> <r_epik_Ionization_Penalty_Charging>
0.00848754

> <r_epik_Ionization_Penalty_Neutral>
9.06711e-06

> <r_epik_State_Penalty>
0.00639836

> <r_epik_Charging_Adjusted_Penalty>
0.0148859

> <i_epik_Tot_Q>
1

> <i_epik_Tot_abs_Q>
1

> <r_epik_Metal_State_Penalty>
0.00639921

> <b_epik_Metal_Only>
0

> <s_lp_Force_Field>
OPLS_2005

> <r_lp_Energy>
12.4763

> <b_lp_Chiralities_Consistent>
1

> <s_lp_Variant>
AV-unprocessed.smi:3161-2

> <Gold.Version>
5.8.1

> <Gold.Id.Protein>
6NUR|6NUR_protein|mol2

> <Gold.PLP.Fitness>
45.3976

> <Gold.PLP.PLP>
-38.7633

> <Gold.PLP.part.hbond>
-1.7731

> <Gold.PLP.part.metal>
0.0000

> <Gold.PLP.part.buried>
-4.2883

> <Gold.PLP.part.nonpolar>
-32.4912

> <Gold.PLP.part.repulsive>
0.2509

> <Gold.PLP.ligand.clash>
0.0000

> <Gold.PLP.ligand.torsion>
1.2214

> <Gold.PLP.Chemscore.Hbond>
3.0000

> <Gold.PLP.Chemscore.CHOScore>
0.0000

> <Gold.PLP.Chemscore.Metal>
0.0000

> <Gold.Chemscore.Hbonds>
donor molecule, donor type, donor heavy atom, donor atom, acceptor molecule, acceptor atom, score
      L1  H     9    28       P1  8028  2.00
      P1  H  7989  7998       L1     4  0.88

> <Gold.PLP.Chemscore.Internal.Correction>
0.0772

> <Gold.Rescore>
     Score         DG    S(hbond)    S(metal)    S(lipo)     H(rot)  DE(clash)    DE(int)     intcor
     16.29     -19.18       1.83        0.00      99.20       1.57       0.10       2.79       ----

> <Gold.Chemscore.Fitness>
16.2912

> <Gold.Chemscore.DG>
-19.1805

> <Gold.Chemscore.ZeroCoef>
-5.4800

> <Gold.Chemscore.Hbond>
1.8315

> <Gold.Chemscore.Metal>
0.0000

> <Gold.Chemscore.Lipo>
99.1988

> <Gold.Chemscore.Internal_Hbond>
0.0000

> <Gold.Chemscore.DEClash>
0.1036

> <Gold.Chemscore.DEInternal>
2.7856

> <Gold.Chemscore.Rot>
1.5714

> <Gold.Chemscore.Internal.Correction>
   9.000000E+99

> <Gold.Chemscore.Hbonds>
donor molecule, donor type, donor heavy atom, donor atom, acceptor molecule, acceptor atom, score
      L1  H     9    28       P1  8028  0.97
      P1  H  7989  7998       L1     4  0.32

> <Gold.Chemscore.Hbond.Weighted>
-6.1170

> <Gold.Chemscore.Metal.Weighted>
-0.0000

> <Gold.Chemscore.Lipo.Weighted>
-11.6063

> <Gold.Chemscore.Internal_Hbond.Weighted>
0.0000

> <Gold.Chemscore.DEClash.Weighted>
0.1036

> <Gold.Chemscore.DEInternal.Weighted>
2.7856

> <Gold.Chemscore.Rot.Weighted>
4.0228

> <Gold.Chemscore.Internal.Correction.Weighted>
   9.000000E+99

> <Gold.Protein.RotatedTorsions>
[ 6907 6896 6895 6894 ] final  -57.19 input  -60.11 | X-H torsion
[ 7974 7965 7964 7962 ] final  -62.62 input  175.53 | X-H torsion
[ 8008 7997 7996 7995 ] final  144.87 input   59.86 | X-H torsion
[ 10167 10162 10161 10158 ] final   74.17 input  -65.29 | X-H torsion
[ 10718 10713 10712 10709 ] final  143.70 input   66.30 | X-H torsion
[ 10763 10752 10751 10750 ] final  -36.64 input  -60.55 | X-H torsion
[ 11005 11000 10999 10996 ] final  -37.98 input  -57.11 | X-H torsion

> <Gold.Protein.ActiveResidues>
 VAL166  LYS551  ARG553  GLY616  TRP617  ASP618  TYR619  PRO620  LYS621  CYS622 
 ASP623  PHE694  ASN695  SER759  ASP760  ASP761  ALA762  ILE779  LEU786  VAL792 
 PHE793  MET794  SER795  GLU796  ALA797  LYS798  CYS799  TRP800  GLU811  SER814 

> <Gold.Protein.RotatedAtoms>
  150.8106  134.7258  159.6683 H   0  0  0  0  0  0  0  0  0  0  0  0  # atno 6907 bound_to 6896
  152.4226  134.5925  159.9987 H   0  0  0  0  0  0  0  0  0  0  0  0  # atno 6908 bound_to 6896
  151.6136  133.3308  159.3108 H   0  0  0  0  0  0  0  0  0  0  0  0  # atno 6909 bound_to 6896
  145.7891  140.8719  143.0290 H   0  0  0  0  0  0  0  0  0  0  0  0  # atno 7974 bound_to 7965
  156.2897  140.2224  156.5123 H   0  0  0  0  0  0  0  0  0  0  0  0  # atno 8008 bound_to 7997
  154.7598  140.0474  157.0986 H   0  0  0  0  0  0  0  0  0  0  0  0  # atno 8009 bound_to 7997
  155.0005  140.3101  155.4872 H   0  0  0  0  0  0  0  0  0  0  0  0  # atno 8010 bound_to 7997
  140.0166  144.5573  150.7615 H   0  0  0  0  0  0  0  0  0  0  0  0  # atno 10167 bound_to 10162
  157.3659  131.0972  151.0873 H   0  0  0  0  0  0  0  0  0  0  0  0  # atno 10718 bound_to 10713
  153.8830  135.6819  153.4765 H   0  0  0  0  0  0  0  0  0  0  0  0  # atno 10763 bound_to 10752
  153.1223  135.4734  154.9213 H   0  0  0  0  0  0  0  0  0  0  0  0  # atno 10764 bound_to 10752
  154.7659  135.3224  154.8238 H   0  0  0  0  0  0  0  0  0  0  0  0  # atno 10765 bound_to 10752
  140.9993  133.6964  156.1992 H   0  0  0  0  0  0  0  0  0  0  0  0  # atno 11005 bound_to 11000
  144.6784  140.0098  143.7484 LP  0  0  0  0  0  0  0  0  0  0  0  0  # atno 17320 bound_to 7965
  145.9995  139.3080  143.0936 LP  0  0  0  0  0  0  0  0  0  0  0  0  # atno 17321 bound_to 7965
  140.7360  143.2747  151.3778 LP  0  0  0  0  0  0  0  0  0  0  0  0  # atno 17342 bound_to 10162
  139.6168  144.0986  152.2353 LP  0  0  0  0  0  0  0  0  0  0  0  0  # atno 17343 bound_to 10162
  157.1995  130.6388  149.5733 LP  0  0  0  0  0  0  0  0  0  0  0  0  # atno 17370 bound_to 10713
  155.9746  130.4695  150.6399 LP  0  0  0  0  0  0  0  0  0  0  0  0  # atno 17371 bound_to 10713
  140.6915  134.4660  157.5588 LP  0  0  0  0  0  0  0  0  0  0  0  0  # atno 17394 bound_to 11000
  139.9030  134.8512  156.1817 LP  0  0  0  0  0  0  0  0  0  0  0  0  # atno 17395 bound_to 11000

$$$$
