AV-unprocessed.smi:331|AV-procd|sdf|2351|dock6
  -GOLD-   2262022263D 1   1.00000     0.00000
 Structure written by MMmdl.
 37 38  0  0  0  0  0  0  0  0  2 V2000
  151.3290  141.2895  157.0653 O   0  0  0  0  0  0  0  0  0  0  0  0
  150.6589  142.2923  156.8285 C   0  0  0  0  0  0  0  0  0  0  0  0
  149.5525  142.2793  156.0665 N   0  0  0  0  0  0  0  0  0  0  0  0
  149.0217  141.1084  155.3757 C   0  0  0  0  0  0  0  0  0  0  0  0
  148.0960  141.4800  154.2002 C   0  0  0  0  0  0  0  0  0  0  0  0
  146.7712  142.0796  154.6408 C   0  0  0  0  0  0  0  0  0  0  0  0
  146.4305  142.1462  156.0105 C   0  0  0  0  0  0  0  0  0  0  0  0
  145.1871  142.6942  156.3883 C   0  0  0  0  0  0  0  0  0  0  0  0
  144.3137  143.1676  155.3880 C   0  0  0  0  0  0  0  0  0  0  0  0
  144.6748  143.0901  154.0882 N   0  3  0  0  0  0  0  0  0  0  0  0
  145.8552  142.5703  153.6855 C   0  0  0  0  0  0  0  0  0  0  0  0
  150.9875  143.5005  157.3192 N   0  0  0  0  0  0  0  0  0  0  0  0
  152.1248  143.8467  158.1755 C   0  0  0  0  0  0  0  0  0  0  0  0
  152.1099  143.0051  159.4662 C   0  0  0  0  0  0  0  0  0  0  0  0
  152.3240  143.9891  160.6172 C   0  0  0  0  0  0  0  0  0  0  0  0
  151.7162  145.2937  160.1136 C   0  0  0  0  0  0  0  0  0  0  0  0
  152.0700  145.3207  158.6266 C   0  0  0  0  0  0  0  0  0  0  0  0
  149.0544  143.1485  155.9415 H   0  0  0  0  0  0  0  0  0  0  0  0
  149.8371  140.4696  155.0326 H   0  0  0  0  0  0  0  0  0  0  0  0
  148.4624  140.5260  156.1081 H   0  0  0  0  0  0  0  0  0  0  0  0
  148.6023  142.1870  153.5416 H   0  0  0  0  0  0  0  0  0  0  0  0
  147.9004  140.5948  153.5940 H   0  0  0  0  0  0  0  0  0  0  0  0
  147.1098  141.7744  156.7641 H   0  0  0  0  0  0  0  0  0  0  0  0
  144.9081  142.7496  157.4304 H   0  0  0  0  0  0  0  0  0  0  0  0
  143.3448  143.6017  155.5869 H   0  0  0  0  0  0  0  0  0  0  0  0
  146.0279  142.5597  152.6191 H   0  0  0  0  0  0  0  0  0  0  0  0
  150.3535  144.2578  157.1081 H   0  0  0  0  0  0  0  0  0  0  0  0
  153.0606  143.6605  157.6454 H   0  0  0  0  0  0  0  0  0  0  0  0
  151.1435  142.5149  159.5961 H   0  0  0  0  0  0  0  0  0  0  0  0
  152.8678  142.2213  159.4552 H   0  0  0  0  0  0  0  0  0  0  0  0
  151.8753  143.6482  161.5506 H   0  0  0  0  0  0  0  0  0  0  0  0
  153.3919  144.1258  160.7915 H   0  0  0  0  0  0  0  0  0  0  0  0
  150.6323  145.2640  160.2333 H   0  0  0  0  0  0  0  0  0  0  0  0
  152.0877  146.1670  160.6500 H   0  0  0  0  0  0  0  0  0  0  0  0
  153.0555  145.7706  158.5004 H   0  0  0  0  0  0  0  0  0  0  0  0
  151.3673  145.9270  158.0532 H   0  0  0  0  0  0  0  0  0  0  0  0
  144.0281  143.4384  153.3801 H   0  0  0  0  0  0  0  0  0  0  0  0
  1  2  2  0  0  0  0
  2  3  1  0  0  0  0
  2 12  1  0  0  0  0
  3  4  1  0  0  0  0
  3 18  1  0  0  0  0
  4  5  1  0  0  0  0
  4 19  1  0  0  0  0
  4 20  1  0  0  0  0
  5  6  1  0  0  0  0
  5 21  1  0  0  0  0
  5 22  1  0  0  0  0
  6 11  1  0  0  0  0
  6  7  2  0  0  0  0
  7  8  1  0  0  0  0
  7 23  1  0  0  0  0
  8  9  2  0  0  0  0
  8 24  1  0  0  0  0
  9 10  1  0  0  0  0
  9 25  1  0  0  0  0
 10 11  2  0  0  0  0
 10 37  1  0  0  0  0
 11 26  1  0  0  0  0
 12 13  1  0  0  0  0
 12 27  1  0  0  0  0
 13 17  1  0  0  0  0
 13 14  1  0  0  0  0
 13 28  1  0  0  0  0
 14 15  1  0  0  0  0
 14 29  1  0  0  0  0
 14 30  1  0  0  0  0
 15 16  1  0  0  0  0
 15 31  1  0  0  0  0
 15 32  1  0  0  0  0
 16 17  1  0  0  0  0
 16 33  1  0  0  0  0
 16 34  1  0  0  0  0
 17 35  1  0  0  0  0
 17 36  1  0  0  0  0
M  CHG  1  10   1
M  END
> <s_m_source_file>
AV-unprocessed.smi

> <i_m_source_file_index>
331

> <i_lp_mmshare_version>
43012

> <i_f3d_flags>
0

> <s_epik_input>
W0NIMl0xW0NIMl1bQ0gyXVtDSDJdW0NIXTFbTkhdQyg9TylbTkhdW0NIMl1bQ0gyXWMyW2NIXVtjSF1bY0hdbltjSF0y

> <s_epik_cmdline>
J2VwaWtfcHl0aG9uJywgJy1waCcsICc3LjAnLCAnLXRuJywgJzgnLCAnLW1hJywgJzIwMCcsICctbWV0YWxfYmluZGluZycsICctaW1hZScsICc8aW5maWxlLm1hZT4nLCAnLW9tYWUnLCAnPG91dGZpbGUubWFlPic=

> <r_epik_Ionization_Penalty>
2.21063

> <r_epik_Ionization_Penalty_Charging>
2.21057

> <r_epik_Ionization_Penalty_Neutral>
5.76468e-05

> <r_epik_State_Penalty>
2.35476

> <r_epik_Charging_Adjusted_Penalty>
4.56533

> <i_epik_Tot_Q>
1

> <i_epik_Tot_abs_Q>
1

> <r_epik_Metal_State_Penalty>
2.36886

> <b_epik_Metal_Only>
0

> <s_lp_Force_Field>
OPLS_2005

> <r_lp_Energy>
33.3407

> <b_lp_Chiralities_Consistent>
1

> <s_lp_Variant>
AV-unprocessed.smi:331-2

> <Gold.Version>
5.8.1

> <Gold.Id.Protein>
6NUR|6NUR_protein|mol2

> <Gold.PLP.Fitness>
48.1976

> <Gold.PLP.PLP>
-40.0014

> <Gold.PLP.part.hbond>
-3.6069

> <Gold.PLP.part.metal>
0.0000

> <Gold.PLP.part.buried>
-4.5632

> <Gold.PLP.part.nonpolar>
-34.2419

> <Gold.PLP.part.repulsive>
0.1729

> <Gold.PLP.ligand.clash>
0.0000

> <Gold.PLP.ligand.torsion>
0.2239

> <Gold.PLP.Chemscore.Hbond>
2.8777

> <Gold.PLP.Chemscore.CHOScore>
0.0000

> <Gold.PLP.Chemscore.Metal>
0.0000

> <Gold.Chemscore.Hbonds>
donor molecule, donor type, donor heavy atom, donor atom, acceptor molecule, acceptor atom, score
      L1  H     3    18       P1  8028  1.00
      L1  H    10    37       P1 10174  1.19
      L1  H    12    27       P1  8028  0.68

> <Gold.PLP.Chemscore.Internal.Correction>
0.0109

> <Gold.Rescore>
     Score         DG    S(hbond)    S(metal)    S(lipo)     H(rot)  DE(clash)    DE(int)     intcor
     19.18     -19.41       1.99        0.00      97.17       1.59       0.04       0.19       ----

> <Gold.Chemscore.Fitness>
19.1834

> <Gold.Chemscore.DG>
-19.4138

> <Gold.Chemscore.ZeroCoef>
-5.4800

> <Gold.Chemscore.Hbond>
1.9892

> <Gold.Chemscore.Metal>
0.0000

> <Gold.Chemscore.Lipo>
97.1658

> <Gold.Chemscore.Internal_Hbond>
0.0000

> <Gold.Chemscore.DEClash>
0.0382

> <Gold.Chemscore.DEInternal>
0.1921

> <Gold.Chemscore.Rot>
1.5932

> <Gold.Chemscore.Internal.Correction>
   9.000000E+99

> <Gold.Chemscore.Hbonds>
donor molecule, donor type, donor heavy atom, donor atom, acceptor molecule, acceptor atom, score
      L1  H     3    18       P1  8028  0.98
      L1  H    10    37       P1 10174  0.17
      L1  H    12    27       P1  8028  0.57

> <Gold.Chemscore.Hbond.Weighted>
-6.6440

> <Gold.Chemscore.Metal.Weighted>
-0.0000

> <Gold.Chemscore.Lipo.Weighted>
-11.3684

> <Gold.Chemscore.Internal_Hbond.Weighted>
0.0000

> <Gold.Chemscore.DEClash.Weighted>
0.0382

> <Gold.Chemscore.DEInternal.Weighted>
0.1921

> <Gold.Chemscore.Rot.Weighted>
4.0785

> <Gold.Chemscore.Internal.Correction.Weighted>
   9.000000E+99

> <Gold.Protein.RotatedTorsions>
[ 6907 6896 6895 6894 ] final   96.42 input  -60.11 | X-H torsion
[ 7974 7965 7964 7962 ] final  116.37 input  175.53 | X-H torsion
[ 8008 7997 7996 7995 ] final -114.94 input   59.86 | X-H torsion
[ 10167 10162 10161 10158 ] final  172.65 input  -65.29 | X-H torsion
[ 10718 10713 10712 10709 ] final  138.84 input   66.30 | X-H torsion
[ 10763 10752 10751 10750 ] final -179.42 input  -60.55 | X-H torsion
[ 11005 11000 10999 10996 ] final   94.10 input  -57.11 | X-H torsion

> <Gold.Protein.ActiveResidues>
 VAL166  LYS551  ARG553  GLY616  TRP617  ASP618  TYR619  PRO620  LYS621  CYS622 
 ASP623  PHE694  ASN695  SER759  ASP760  ASP761  ALA762  ILE779  LEU786  VAL792 
 PHE793  MET794  SER795  GLU796  ALA797  LYS798  CYS799  TRP800  GLU811  SER814 

> <Gold.Protein.RotatedAtoms>
  152.5435  134.0889  159.8267 H   0  0  0  0  0  0  0  0  0  0  0  0  # atno 6907 bound_to 6896
  151.0981  133.5257  159.2618 H   0  0  0  0  0  0  0  0  0  0  0  0  # atno 6908 bound_to 6896
  151.2023  135.0456  159.8931 H   0  0  0  0  0  0  0  0  0  0  0  0  # atno 6909 bound_to 6896
  145.1804  139.3053  143.4421 H   0  0  0  0  0  0  0  0  0  0  0  0  # atno 7974 bound_to 7965
  155.0443  140.0392  157.2521 H   0  0  0  0  0  0  0  0  0  0  0  0  # atno 8008 bound_to 7997
  154.7190  140.2708  155.6534 H   0  0  0  0  0  0  0  0  0  0  0  0  # atno 8009 bound_to 7997
  156.2811  140.2706  156.1856 H   0  0  0  0  0  0  0  0  0  0  0  0  # atno 8010 bound_to 7997
  139.5083  144.3350  152.0074 H   0  0  0  0  0  0  0  0  0  0  0  0  # atno 10167 bound_to 10162
  157.4209  131.1038  151.0354 H   0  0  0  0  0  0  0  0  0  0  0  0  # atno 10718 bound_to 10713
  154.5353  135.2802  155.1144 H   0  0  0  0  0  0  0  0  0  0  0  0  # atno 10763 bound_to 10752
  154.2647  135.6315  153.5291 H   0  0  0  0  0  0  0  0  0  0  0  0  # atno 10764 bound_to 10752
  152.9966  135.5614  154.5878 H   0  0  0  0  0  0  0  0  0  0  0  0  # atno 10765 bound_to 10752
  139.8802  134.8827  156.3815 H   0  0  0  0  0  0  0  0  0  0  0  0  # atno 11005 bound_to 11000
  146.3454  140.1982  142.8589 LP  0  0  0  0  0  0  0  0  0  0  0  0  # atno 17320 bound_to 7965
  145.0142  140.8739  143.5206 LP  0  0  0  0  0  0  0  0  0  0  0  0  # atno 17321 bound_to 7965
  140.2789  144.3882  150.6126 LP  0  0  0  0  0  0  0  0  0  0  0  0  # atno 17342 bound_to 10162
  140.6033  143.2167  151.7029 LP  0  0  0  0  0  0  0  0  0  0  0  0  # atno 17343 bound_to 10162
  157.1285  130.6092  149.5523 LP  0  0  0  0  0  0  0  0  0  0  0  0  # atno 17370 bound_to 10713
  155.9880  130.4922  150.7151 LP  0  0  0  0  0  0  0  0  0  0  0  0  # atno 17371 bound_to 10713
  140.9395  133.7524  156.0128 LP  0  0  0  0  0  0  0  0  0  0  0  0  # atno 17394 bound_to 11000
  140.8236  134.3261  157.5373 LP  0  0  0  0  0  0  0  0  0  0  0  0  # atno 17395 bound_to 11000

$$$$
