AV-unprocessed.smi:3158|AV-procd|sdf|12041|dock9
  -GOLD-   2272017463D 1   1.00000     0.00000
 Structure written by MMmdl.
 40 40  0  0  0  0  0  0  0  0  2 V2000
  144.4595  133.4784  149.8965 C   0  0  0  0  0  0  0  0  0  0  0  0
  144.9980  134.3863  151.0121 C   0  0  0  0  0  0  0  0  0  0  0  0
  146.4212  134.0220  151.4741 C   0  0  2  0  0  0  0  0  0  0  0  0
  146.4870  132.5917  152.0323 C   0  0  0  0  0  0  0  0  0  0  0  0
  146.8828  134.9741  152.4820 N   0  0  0  0  0  0  0  0  0  0  0  0
  146.4933  134.9995  153.7660 C   0  0  0  0  0  0  0  0  0  0  0  0
  145.6795  134.2068  154.2423 O   0  0  0  0  0  0  0  0  0  0  0  0
  147.1295  136.0836  154.6483 C   0  0  2  0  0  0  0  0  0  0  0  0
  146.6473  137.4726  154.2020 C   0  0  0  0  0  0  0  0  0  0  0  0
  148.6078  136.0294  154.6025 N   0  3  0  0  0  0  0  0  0  0  0  0
  149.3024  137.0495  155.4191 C   0  0  0  0  0  0  0  0  0  0  0  0
  150.1973  137.9470  154.5515 C   0  0  0  0  0  0  0  0  0  0  0  0
  149.7153  139.3158  154.5162 N   0  0  0  0  0  0  0  0  0  0  0  0
  148.5377  139.7963  153.9831 C   0  0  0  0  0  0  0  0  0  0  0  0
  148.5124  141.1435  154.2039 C   0  0  0  0  0  0  0  0  0  0  0  0
  149.7343  141.3975  154.8874 C   0  0  0  0  0  0  0  0  0  0  0  0
  150.4510  140.3009  155.0755 N   0  0  0  0  0  0  0  0  0  0  0  0
  143.4357  133.7493  149.6386 H   0  0  0  0  0  0  0  0  0  0  0  0
  144.4571  132.4335  150.2079 H   0  0  0  0  0  0  0  0  0  0  0  0
  145.0583  133.5567  148.9888 H   0  0  0  0  0  0  0  0  0  0  0  0
  144.9712  135.4239  150.6761 H   0  0  0  0  0  0  0  0  0  0  0  0
  144.3198  134.3274  151.8642 H   0  0  0  0  0  0  0  0  0  0  0  0
  147.0765  134.0769  150.6028 H   0  0  0  0  0  0  0  0  0  0  0  0
  146.1618  131.8653  151.2871 H   0  0  0  0  0  0  0  0  0  0  0  0
  145.8479  132.4771  152.9085 H   0  0  0  0  0  0  0  0  0  0  0  0
  147.5037  132.3266  152.3237 H   0  0  0  0  0  0  0  0  0  0  0  0
  147.5602  135.6586  152.1780 H   0  0  0  0  0  0  0  0  0  0  0  0
  146.8150  135.9299  155.6822 H   0  0  0  0  0  0  0  0  0  0  0  0
  145.5608  137.5535  154.2573 H   0  0  0  0  0  0  0  0  0  0  0  0
  146.9451  137.6896  153.1751 H   0  0  0  0  0  0  0  0  0  0  0  0
  147.0634  138.2536  154.8390 H   0  0  0  0  0  0  0  0  0  0  0  0
  148.8966  135.1128  154.9164 H   0  0  0  0  0  0  0  0  0  0  0  0
  148.5557  137.6554  155.9334 H   0  0  0  0  0  0  0  0  0  0  0  0
  149.9077  136.5714  156.1902 H   0  0  0  0  0  0  0  0  0  0  0  0
  151.2268  137.9359  154.9135 H   0  0  0  0  0  0  0  0  0  0  0  0
  150.2213  137.5693  153.5286 H   0  0  0  0  0  0  0  0  0  0  0  0
  147.8224  139.1473  153.4996 H   0  0  0  0  0  0  0  0  0  0  0  0
  147.7386  141.8418  153.9209 H   0  0  0  0  0  0  0  0  0  0  0  0
  150.1180  142.3393  155.2513 H   0  0  0  0  0  0  0  0  0  0  0  0
  148.9043  136.1473  153.6445 H   0  0  0  0  0  0  0  0  0  0  0  0
  1  2  1  0  0  0  0
  1 18  1  0  0  0  0
  1 19  1  0  0  0  0
  1 20  1  0  0  0  0
  2  3  1  0  0  0  0
  2 21  1  0  0  0  0
  2 22  1  0  0  0  0
  3  4  1  0  0  0  0
  3  5  1  0  0  0  0
  3 23  1  0  0  0  0
  4 24  1  0  0  0  0
  4 25  1  0  0  0  0
  4 26  1  0  0  0  0
  5  6  1  0  0  0  0
  5 27  1  0  0  0  0
  6  7  2  0  0  0  0
  6  8  1  0  0  0  0
  8  9  1  0  0  0  0
  8 10  1  0  0  0  0
  8 28  1  0  0  0  0
  9 29  1  0  0  0  0
  9 30  1  0  0  0  0
  9 31  1  0  0  0  0
 10 11  1  0  0  0  0
 10 32  1  0  0  0  0
 10 40  1  0  0  0  0
 11 12  1  0  0  0  0
 11 33  1  0  0  0  0
 11 34  1  0  0  0  0
 12 13  1  0  0  0  0
 12 35  1  0  0  0  0
 12 36  1  0  0  0  0
 13 17  1  0  0  0  0
 13 14  1  0  0  0  0
 14 15  2  0  0  0  0
 14 37  1  0  0  0  0
 15 16  1  0  0  0  0
 15 38  1  0  0  0  0
 16 17  2  0  0  0  0
 16 39  1  0  0  0  0
M  CHG  1  10   1
M  END
> <s_m_source_file>
AV-unprocessed.smi

> <i_m_source_file_index>
3158

> <i_lp_mmshare_version>
43012

> <i_f3d_flags>
0

> <s_epik_input>
W0NIM11bQ0gyXVtDQEhdKFtDSDNdKVtOSF1DKD1PKVtDQEhdKFtDSDNdKVtOSF1bQ0gyXVtDSDJdbjFbY0hdW2NIXVtjSF1uMQ==

> <s_epik_cmdline>
J2VwaWtfcHl0aG9uJywgJy1waCcsICc3LjAnLCAnLXRuJywgJzgnLCAnLW1hJywgJzIwMCcsICctbWV0YWxfYmluZGluZycsICctaW1hZScsICc8aW5maWxlLm1hZT4nLCAnLW9tYWUnLCAnPG91dGZpbGUubWFlPic=

> <r_lp_tautomer_probability>
1

> <r_epik_Ionization_Penalty>
0.20724

> <r_epik_Ionization_Penalty_Charging>
0.207237

> <r_epik_Ionization_Penalty_Neutral>
3.33806e-06

> <r_epik_State_Penalty>
0.197234

> <r_epik_Charging_Adjusted_Penalty>
0.404471

> <i_epik_Tot_Q>
1

> <i_epik_Tot_abs_Q>
1

> <r_epik_Metal_State_Penalty>
0.197524

> <b_epik_Metal_Only>
0

> <s_lp_Force_Field>
OPLS_2005

> <r_lp_Energy>
5.42496

> <b_lp_Chiralities_Consistent>
1

> <s_lp_Variant>
AV-unprocessed.smi:3158-1

> <Gold.Version>
5.8.1

> <Gold.Id.Protein>
6NUR|6NUR_protein|mol2

> <Gold.PLP.Fitness>
39.9324

> <Gold.PLP.PLP>
-26.9040

> <Gold.PLP.part.hbond>
-3.0000

> <Gold.PLP.part.metal>
0.0000

> <Gold.PLP.part.buried>
-2.6980

> <Gold.PLP.part.nonpolar>
-21.2243

> <Gold.PLP.part.repulsive>
0.1482

> <Gold.PLP.ligand.clash>
0.0000

> <Gold.PLP.ligand.torsion>
1.0327

> <Gold.PLP.Chemscore.Hbond>
3.9920

> <Gold.PLP.Chemscore.CHOScore>
1.0000

> <Gold.PLP.Chemscore.Metal>
0.0000

> <Gold.Chemscore.Hbonds>
donor molecule, donor type, donor heavy atom, donor atom, acceptor molecule, acceptor atom, score
      L1  H     5    27       P1  7948  0.96
      L1  H    10    40       P1  7948  2.00
      P1  H  7989  7998       L1    17  0.38
      L1  C    16    39       P1  8028  0.56

> <Gold.PLP.Chemscore.Internal.Correction>
0.1178

> <Gold.Rescore>
     Score         DG    S(hbond)    S(metal)    S(lipo)     H(rot)  DE(clash)    DE(int)     intcor
     13.22     -15.62       2.68        0.00      58.53       2.21       0.35       2.05       ----

> <Gold.Chemscore.Fitness>
13.2248

> <Gold.Chemscore.DG>
-15.6241

> <Gold.Chemscore.ZeroCoef>
-5.4800

> <Gold.Chemscore.Hbond>
2.6831

> <Gold.Chemscore.Metal>
0.0000

> <Gold.Chemscore.Lipo>
58.5330

> <Gold.Chemscore.Internal_Hbond>
0.0000

> <Gold.Chemscore.DEClash>
0.3477

> <Gold.Chemscore.DEInternal>
2.0516

> <Gold.Chemscore.Rot>
2.2132

> <Gold.Chemscore.Internal.Correction>
   9.000000E+99

> <Gold.Chemscore.Hbonds>
donor molecule, donor type, donor heavy atom, donor atom, acceptor molecule, acceptor atom, score
      L1  H     5    27       P1  7948  0.90
      L1  H    10    40       P1  7948  0.99

> <Gold.Chemscore.Hbond.Weighted>
-8.9615

> <Gold.Chemscore.Metal.Weighted>
-0.0000

> <Gold.Chemscore.Lipo.Weighted>
-6.8484

> <Gold.Chemscore.Internal_Hbond.Weighted>
0.0000

> <Gold.Chemscore.DEClash.Weighted>
0.3477

> <Gold.Chemscore.DEInternal.Weighted>
2.0516

> <Gold.Chemscore.Rot.Weighted>
5.6658

> <Gold.Chemscore.Internal.Correction.Weighted>
   9.000000E+99

> <Gold.Protein.RotatedTorsions>
[ 6907 6896 6895 6894 ] final  -82.85 input  -60.11 | X-H torsion
[ 7974 7965 7964 7962 ] final   67.29 input  175.53 | X-H torsion
[ 8008 7997 7996 7995 ] final -130.01 input   59.86 | X-H torsion
[ 10167 10162 10161 10158 ] final   85.17 input  -65.29 | X-H torsion
[ 10718 10713 10712 10709 ] final  170.05 input   66.30 | X-H torsion
[ 10763 10752 10751 10750 ] final  -88.15 input  -60.55 | X-H torsion
[ 11005 11000 10999 10996 ] final -125.66 input  -57.11 | X-H torsion

> <Gold.Protein.ActiveResidues>
 VAL166  LYS551  ARG553  GLY616  TRP617  ASP618  TYR619  PRO620  LYS621  CYS622 
 ASP623  PHE694  ASN695  SER759  ASP760  ASP761  ALA762  ILE779  LEU786  VAL792 
 PHE793  MET794  SER795  GLU796  ALA797  LYS798  CYS799  TRP800  GLU811  SER814 

> <Gold.Protein.RotatedAtoms>
  150.6892  134.3602  159.4946 H   0  0  0  0  0  0  0  0  0  0  0  0  # atno 6907 bound_to 6896
  152.1432  134.9044  160.0562 H   0  0  0  0  0  0  0  0  0  0  0  0  # atno 6908 bound_to 6896
  152.0169  133.3848  159.4279 H   0  0  0  0  0  0  0  0  0  0  0  0  # atno 6909 bound_to 6896
  145.8164  139.3061  143.1069 H   0  0  0  0  0  0  0  0  0  0  0  0  # atno 7974 bound_to 7965
  155.2887  140.0447  157.3021 H   0  0  0  0  0  0  0  0  0  0  0  0  # atno 8008 bound_to 7997
  154.5554  140.2330  155.8387 H   0  0  0  0  0  0  0  0  0  0  0  0  # atno 8009 bound_to 7997
  156.2002  140.3027  155.9519 H   0  0  0  0  0  0  0  0  0  0  0  0  # atno 8010 bound_to 7997
  139.9005  144.6332  150.8642 H   0  0  0  0  0  0  0  0  0  0  0  0  # atno 10167 bound_to 10162
  157.0138  131.0212  151.2795 H   0  0  0  0  0  0  0  0  0  0  0  0  # atno 10718 bound_to 10713
  154.6414  135.5387  153.7793 H   0  0  0  0  0  0  0  0  0  0  0  0  # atno 10763 bound_to 10752
  153.0335  135.6460  154.1155 H   0  0  0  0  0  0  0  0  0  0  0  0  # atno 10764 bound_to 10752
  154.1079  135.2929  155.3217 H   0  0  0  0  0  0  0  0  0  0  0  0  # atno 10765 bound_to 10752
  140.9744  134.0761  157.3835 H   0  0  0  0  0  0  0  0  0  0  0  0  # atno 11005 bound_to 11000
  145.9722  140.8751  143.0157 LP  0  0  0  0  0  0  0  0  0  0  0  0  # atno 17320 bound_to 7965
  144.6752  140.1961  143.7392 LP  0  0  0  0  0  0  0  0  0  0  0  0  # atno 17321 bound_to 7965
  140.7708  143.3440  151.2149 LP  0  0  0  0  0  0  0  0  0  0  0  0  # atno 17342 bound_to 10162
  139.7029  143.9503  152.2914 LP  0  0  0  0  0  0  0  0  0  0  0  0  # atno 17343 bound_to 10162
  157.5301  130.8053  149.7906 LP  0  0  0  0  0  0  0  0  0  0  0  0  # atno 17370 bound_to 10713
  156.0126  130.3826  150.2213 LP  0  0  0  0  0  0  0  0  0  0  0  0  # atno 17371 bound_to 10713
  139.8924  135.0125  156.6847 LP  0  0  0  0  0  0  0  0  0  0  0  0  # atno 17394 bound_to 11000
  140.7281  133.9082  155.8192 LP  0  0  0  0  0  0  0  0  0  0  0  0  # atno 17395 bound_to 11000

$$$$
