AV-unprocessed.smi:763|AV-procd|sdf|3640|dock8
  -GOLD-   22720 1 43D 1   1.00000     0.00000
 Structure written by MMmdl.
 43 44  0  0  0  0  0  0  0  0  2 V2000
  153.6031  136.7928  163.3399 C   0  0  0  0  0  0  0  0  0  0  0  0
  153.6460  137.7356  162.2804 O   0  0  0  0  0  0  0  0  0  0  0  0
  154.8983  138.3934  162.1424 C   0  0  0  0  0  0  0  0  0  0  0  0
  154.7561  139.7716  161.4804 C   0  0  0  0  0  0  0  0  0  0  0  0
  154.1818  139.5914  160.1900 O   0  0  0  0  0  0  0  0  0  0  0  0
  153.2824  140.5309  159.7194 C   0  0  0  0  0  0  0  0  0  0  0  0
  153.0085  141.6004  160.5095 N   0  0  0  0  0  0  0  0  0  0  0  0
  152.1364  142.5243  160.0627 C   0  0  0  0  0  0  0  0  0  0  0  0
  151.4981  142.4333  158.8152 C   0  0  0  0  0  0  0  0  0  0  0  0
  151.7856  141.3240  157.9999 C   0  0  0  0  0  0  0  0  0  0  0  0
  152.6971  140.3336  158.4426 C   0  0  0  0  0  0  0  0  0  0  0  0
  153.0151  139.2506  157.7126 N   0  5  0  0  0  0  0  0  0  0  0  0
  151.9819  138.2701  156.9444 S   0  0  0  0  0  0  0  0  0  0  0  0
  152.4768  136.8852  156.9152 O   0  0  0  0  0  0  0  0  0  0  0  0
  150.6046  138.4621  157.4220 O   0  0  0  0  0  0  0  0  0  0  0  0
  152.0949  138.9424  155.1999 C   0  0  2  0  0  0  0  0  0  0  0  0
  151.7024  140.4387  155.1235 C   0  0  0  0  0  0  0  0  0  0  0  0
  150.1828  140.7027  155.1968 C   0  0  0  0  0  0  0  0  0  0  0  0
  149.3882  139.8220  154.2177 C   0  0  0  0  0  0  0  0  0  0  0  0
  149.7571  138.3349  154.3499 C   0  0  0  0  0  0  0  0  0  0  0  0
  151.2704  138.1466  154.1569 C   0  0  2  0  0  0  0  0  0  0  0  0
  151.6052  136.7750  154.1239 O   0  0  0  0  0  0  0  0  0  0  0  0
  152.6336  136.2948  163.3426 H   0  0  0  0  0  0  0  0  0  0  0  0
  153.7316  137.2691  164.3118 H   0  0  0  0  0  0  0  0  0  0  0  0
  154.3709  136.0272  163.2197 H   0  0  0  0  0  0  0  0  0  0  0  0
  155.4112  138.4679  163.1026 H   0  0  0  0  0  0  0  0  0  0  0  0
  155.5219  137.7631  161.5080 H   0  0  0  0  0  0  0  0  0  0  0  0
  154.1122  140.4053  162.0922 H   0  0  0  0  0  0  0  0  0  0  0  0
  155.7293  140.2561  161.3933 H   0  0  0  0  0  0  0  0  0  0  0  0
  151.9423  143.3599  160.7185 H   0  0  0  0  0  0  0  0  0  0  0  0
  150.8047  143.1944  158.4899 H   0  0  0  0  0  0  0  0  0  0  0  0
  151.2977  141.2480  157.0396 H   0  0  0  0  0  0  0  0  0  0  0  0
  153.1465  138.8509  154.9254 H   0  0  0  0  0  0  0  0  0  0  0  0
  152.2141  141.0044  155.9023 H   0  0  0  0  0  0  0  0  0  0  0  0
  152.0712  140.8391  154.1785 H   0  0  0  0  0  0  0  0  0  0  0  0
  149.8117  140.5508  156.2079 H   0  0  0  0  0  0  0  0  0  0  0  0
  149.9889  141.7531  154.9776 H   0  0  0  0  0  0  0  0  0  0  0  0
  148.3185  139.9571  154.3808 H   0  0  0  0  0  0  0  0  0  0  0  0
  149.5870  140.1510  153.1971 H   0  0  0  0  0  0  0  0  0  0  0  0
  149.4422  137.9519  155.3209 H   0  0  0  0  0  0  0  0  0  0  0  0
  149.2108  137.7605  153.6008 H   0  0  0  0  0  0  0  0  0  0  0  0
  151.5270  138.5284  153.1677 H   0  0  0  0  0  0  0  0  0  0  0  0
  151.4461  136.4504  153.2493 H   0  0  0  0  0  0  0  0  0  0  0  0
  1  2  1  0  0  0  0
  1 23  1  0  0  0  0
  1 24  1  0  0  0  0
  1 25  1  0  0  0  0
  2  3  1  0  0  0  0
  3  4  1  0  0  0  0
  3 26  1  0  0  0  0
  3 27  1  0  0  0  0
  4  5  1  0  0  0  0
  4 28  1  0  0  0  0
  4 29  1  0  0  0  0
  5  6  1  0  0  0  0
  6 11  1  0  0  0  0
  6  7  2  0  0  0  0
  7  8  1  0  0  0  0
  8  9  2  0  0  0  0
  8 30  1  0  0  0  0
  9 10  1  0  0  0  0
  9 31  1  0  0  0  0
 10 11  2  0  0  0  0
 10 32  1  0  0  0  0
 11 12  1  0  0  0  0
 12 13  1  0  0  0  0
 13 14  2  0  0  0  0
 13 15  2  0  0  0  0
 13 16  1  0  0  0  0
 16 21  1  0  0  0  0
 16 17  1  0  0  0  0
 16 33  1  0  0  0  0
 17 18  1  0  0  0  0
 17 34  1  0  0  0  0
 17 35  1  0  0  0  0
 18 19  1  0  0  0  0
 18 36  1  0  0  0  0
 18 37  1  0  0  0  0
 19 20  1  0  0  0  0
 19 38  1  0  0  0  0
 19 39  1  0  0  0  0
 20 21  1  0  0  0  0
 20 40  1  0  0  0  0
 20 41  1  0  0  0  0
 21 22  1  0  0  0  0
 21 42  1  0  0  0  0
 22 43  1  0  0  0  0
M  CHG  1  12  -1
M  END
> <s_m_source_file>
AV-unprocessed.smi

> <i_m_source_file_index>
763

> <i_lp_mmshare_version>
43012

> <i_f3d_flags>
0

> <s_epik_input>
W0NIM11PW0NIMl1bQ0gyXU9jMW5bY0hdW2NIXVtjSF1jMVtOSF1TKD1PKSg9TylbQ0BASF0yW0NIMl1bQ0gyXVtDSDJdW0NIMl1bQ0BIXTJbT0hd

> <s_epik_cmdline>
J2VwaWtfcHl0aG9uJywgJy1waCcsICc3LjAnLCAnLXRuJywgJzgnLCAnLW1hJywgJzIwMCcsICctbWV0YWxfYmluZGluZycsICctaW1hZScsICc8aW5maWxlLm1hZT4nLCAnLW9tYWUnLCAnPG91dGZpbGUubWFlPic=

> <r_epik_Ionization_Penalty>
0.985866

> <r_epik_Ionization_Penalty_Charging>
0.984689

> <r_epik_Ionization_Penalty_Neutral>
0.00117669

> <r_epik_State_Penalty>
1.03185

> <r_epik_Charging_Adjusted_Penalty>
2.01654

> <i_epik_Tot_Q>
-1

> <i_epik_Tot_abs_Q>
1

> <r_epik_Metal_State_Penalty>
0.379327

> <b_epik_Metal_Only>
0

> <s_lp_Force_Field>
OPLS_2005

> <r_lp_Energy>
11.7701

> <b_lp_Chiralities_Consistent>
1

> <s_lp_Variant>
AV-unprocessed.smi:763-7

> <Gold.Version>
5.8.1

> <Gold.Id.Protein>
6NUR|6NUR_protein|mol2

> <Gold.PLP.Fitness>
47.2170

> <Gold.PLP.PLP>
-37.5479

> <Gold.PLP.part.hbond>
-3.0000

> <Gold.PLP.part.metal>
0.0000

> <Gold.PLP.part.buried>
-3.4634

> <Gold.PLP.part.nonpolar>
-30.6349

> <Gold.PLP.part.repulsive>
0.0000

> <Gold.PLP.ligand.clash>
0.0000

> <Gold.PLP.ligand.torsion>
1.3449

> <Gold.PLP.Chemscore.Hbond>
3.7040

> <Gold.PLP.Chemscore.CHOScore>
0.0000

> <Gold.PLP.Chemscore.Metal>
0.0000

> <Gold.Chemscore.Hbonds>
donor molecule, donor type, donor heavy atom, donor atom, acceptor molecule, acceptor atom, score
      L1  H    22    43       P1  7949  1.00
      P1  H  7997  8010       L1    12  1.60
      P1  H 10752 10764       L1    22  0.78

> <Gold.PLP.Chemscore.Internal.Correction>
1.2470

> <Gold.Rescore>
     Score         DG    S(hbond)    S(metal)    S(lipo)     H(rot)  DE(clash)    DE(int)     intcor
     13.80     -16.59       1.86        0.00      93.39       2.35       1.31       1.48       ----

> <Gold.Chemscore.Fitness>
13.7994

> <Gold.Chemscore.DG>
-16.5861

> <Gold.Chemscore.ZeroCoef>
-5.4800

> <Gold.Chemscore.Hbond>
1.8558

> <Gold.Chemscore.Metal>
0.0000

> <Gold.Chemscore.Lipo>
93.3850

> <Gold.Chemscore.Internal_Hbond>
0.0000

> <Gold.Chemscore.DEClash>
1.3064

> <Gold.Chemscore.DEInternal>
1.4803

> <Gold.Chemscore.Rot>
2.3509

> <Gold.Chemscore.Internal.Correction>
   9.000000E+99

> <Gold.Chemscore.Hbonds>
donor molecule, donor type, donor heavy atom, donor atom, acceptor molecule, acceptor atom, score
      L1  H    22    43       P1  7949  0.85
      P1  H  7997  8010       L1    12  0.11
      P1  H 10752 10764       L1    22  0.20

> <Gold.Chemscore.Hbond.Weighted>
-6.1983

> <Gold.Chemscore.Metal.Weighted>
-0.0000

> <Gold.Chemscore.Lipo.Weighted>
-10.9260

> <Gold.Chemscore.Internal_Hbond.Weighted>
0.0000

> <Gold.Chemscore.DEClash.Weighted>
1.3064

> <Gold.Chemscore.DEInternal.Weighted>
1.4803

> <Gold.Chemscore.Rot.Weighted>
6.0182

> <Gold.Chemscore.Internal.Correction.Weighted>
   9.000000E+99

> <Gold.Protein.RotatedTorsions>
[ 6907 6896 6895 6894 ] final  102.97 input  -60.11 | X-H torsion
[ 7974 7965 7964 7962 ] final  -57.79 input  175.53 | X-H torsion
[ 8008 7997 7996 7995 ] final   55.29 input   59.86 | X-H torsion
[ 10167 10162 10161 10158 ] final   98.29 input  -65.29 | X-H torsion
[ 10718 10713 10712 10709 ] final  -16.45 input   66.30 | X-H torsion
[ 10763 10752 10751 10750 ] final  -52.84 input  -60.55 | X-H torsion
[ 11005 11000 10999 10996 ] final -100.81 input  -57.11 | X-H torsion

> <Gold.Protein.ActiveResidues>
 VAL166  LYS551  ARG553  GLY616  TRP617  ASP618  TYR619  PRO620  LYS621  CYS622 
 ASP623  PHE694  ASN695  SER759  ASP760  ASP761  ALA762  ILE779  LEU786  VAL792 
 PHE793  MET794  SER795  GLU796  ALA797  LYS798  CYS799  TRP800  GLU811  SER814 

> <Gold.Protein.RotatedAtoms>
  152.5309  133.9895  159.7843 H   0  0  0  0  0  0  0  0  0  0  0  0  # atno 6907 bound_to 6896
  151.0133  133.5936  159.2687 H   0  0  0  0  0  0  0  0  0  0  0  0  # atno 6908 bound_to 6896
  151.3003  135.0773  159.9289 H   0  0  0  0  0  0  0  0  0  0  0  0  # atno 6909 bound_to 6896
  145.8469  140.8379  143.0006 H   0  0  0  0  0  0  0  0  0  0  0  0  # atno 7974 bound_to 7965
  155.4987  140.3473  155.4367 H   0  0  0  0  0  0  0  0  0  0  0  0  # atno 8008 bound_to 7997
  156.0928  140.1415  156.9597 H   0  0  0  0  0  0  0  0  0  0  0  0  # atno 8009 bound_to 7997
  154.4645  140.0922  156.6961 H   0  0  0  0  0  0  0  0  0  0  0  0  # atno 8010 bound_to 7997
  139.7722  144.6918  151.0139 H   0  0  0  0  0  0  0  0  0  0  0  0  # atno 10167 bound_to 10162
  156.5874  130.4790  149.6294 H   0  0  0  0  0  0  0  0  0  0  0  0  # atno 10718 bound_to 10713
  154.1491  135.6493  153.4959 H   0  0  0  0  0  0  0  0  0  0  0  0  # atno 10763 bound_to 10752
  153.0143  135.5334  154.6826 H   0  0  0  0  0  0  0  0  0  0  0  0  # atno 10764 bound_to 10752
  154.6109  135.2954  155.0404 H   0  0  0  0  0  0  0  0  0  0  0  0  # atno 10765 bound_to 10752
  141.1256  133.8429  157.1151 H   0  0  0  0  0  0  0  0  0  0  0  0  # atno 11005 bound_to 11000
  144.6731  140.0895  143.7466 LP  0  0  0  0  0  0  0  0  0  0  0  0  # atno 17320 bound_to 7965
  145.9402  139.2664  143.1273 LP  0  0  0  0  0  0  0  0  0  0  0  0  # atno 17321 bound_to 7965
  140.7814  143.4575  151.0324 LP  0  0  0  0  0  0  0  0  0  0  0  0  # atno 17342 bound_to 10162
  139.8259  143.7757  152.3178 LP  0  0  0  0  0  0  0  0  0  0  0  0  # atno 17343 bound_to 10162
  156.2579  130.6945  151.1704 LP  0  0  0  0  0  0  0  0  0  0  0  0  # atno 17370 bound_to 10713
  157.7312  131.0610  150.5690 LP  0  0  0  0  0  0  0  0  0  0  0  0  # atno 17371 bound_to 10713
  140.0251  134.9928  157.0670 LP  0  0  0  0  0  0  0  0  0  0  0  0  # atno 17394 bound_to 11000
  140.4376  134.1715  155.7171 LP  0  0  0  0  0  0  0  0  0  0  0  0  # atno 17395 bound_to 11000

$$$$
