AV-unprocessed.smi:2923|AV-procd|sdf|11207|dock3
  -GOLD-   2272016103D 1   1.00000     0.00000
 Structure written by MMmdl.
 47 49  0  0  0  0  0  0  0  0  2 V2000
  145.6419  131.8384  152.5475 C   0  0  0  0  0  0  0  0  0  0  0  0
  144.8781  132.5953  151.5619 N   0  0  0  0  0  0  0  0  0  0  0  0
  144.7129  132.0820  150.2084 C   0  0  0  0  0  0  0  0  0  0  0  0
  144.3860  133.8770  151.8907 C   0  0  0  0  0  0  0  0  0  0  0  0
  144.7421  135.0500  151.1819 C   0  0  0  0  0  0  0  0  0  0  0  0
  144.2089  136.2950  151.5735 C   0  0  0  0  0  0  0  0  0  0  0  0
  143.3226  136.3698  152.6684 C   0  0  0  0  0  0  0  0  0  0  0  0
  142.8235  137.6553  153.0180 N   0  0  0  0  0  0  0  0  0  0  0  0
  141.7677  137.9815  153.7839 C   0  0  0  0  0  0  0  0  0  0  0  0
  141.0037  137.1860  154.3290 O   0  0  0  0  0  0  0  0  0  0  0  0
  141.6362  139.3110  153.8815 N   0  0  0  0  0  0  0  0  0  0  0  0
  140.5876  139.9812  154.6438 C   0  0  1  0  0  0  0  0  0  0  0  0
  140.2026  141.3418  154.0428 C   0  0  2  0  0  0  0  0  0  0  0  0
  140.4683  142.6049  154.8160 C   0  0  0  0  0  0  0  0  0  0  0  0
  139.1299  142.8673  155.5118 C   0  0  0  0  0  0  0  0  0  0  0  0
  138.4847  141.5962  155.5417 O   0  0  0  0  0  0  0  0  0  0  0  0
  138.7557  140.9491  154.3008 C   0  0  2  0  0  0  0  0  0  0  0  0
  139.1541  139.4595  154.3687 C   0  0  0  0  0  0  0  0  0  0  0  0
  138.9179  138.6859  153.0637 C   0  0  0  0  0  0  0  0  0  0  0  0
  138.5075  138.6428  155.4885 C   0  0  0  0  0  0  0  0  0  0  0  0
  142.9962  135.1689  153.3437 C   0  0  0  0  0  0  0  0  0  0  0  0
  143.5302  133.9979  152.9346 N   0  3  0  0  0  0  0  0  0  0  0  0
  145.0453  131.6620  153.4431 H   0  0  0  0  0  0  0  0  0  0  0  0
  146.5435  132.3815  152.8323 H   0  0  0  0  0  0  0  0  0  0  0  0
  145.9461  130.8683  152.1544 H   0  0  0  0  0  0  0  0  0  0  0  0
  145.1867  132.7469  149.4855 H   0  0  0  0  0  0  0  0  0  0  0  0
  143.6554  131.9915  149.9591 H   0  0  0  0  0  0  0  0  0  0  0  0
  145.1648  131.0960  150.0999 H   0  0  0  0  0  0  0  0  0  0  0  0
  145.4180  135.0176  150.3405 H   0  0  0  0  0  0  0  0  0  0  0  0
  144.4836  137.1879  151.0311 H   0  0  0  0  0  0  0  0  0  0  0  0
  143.3403  138.4334  152.6353 H   0  0  0  0  0  0  0  0  0  0  0  0
  142.3018  139.8993  153.4022 H   0  0  0  0  0  0  0  0  0  0  0  0
  140.8014  140.0593  155.7124 H   0  0  0  0  0  0  0  0  0  0  0  0
  140.4150  141.4071  152.9741 H   0  0  0  0  0  0  0  0  0  0  0  0
  141.2627  142.4538  155.5475 H   0  0  0  0  0  0  0  0  0  0  0  0
  140.7573  143.4374  154.1741 H   0  0  0  0  0  0  0  0  0  0  0  0
  139.2494  143.2809  156.5133 H   0  0  0  0  0  0  0  0  0  0  0  0
  138.5226  143.5593  154.9263 H   0  0  0  0  0  0  0  0  0  0  0  0
  138.0681  141.2299  153.5014 H   0  0  0  0  0  0  0  0  0  0  0  0
  137.8534  138.5627  152.8627 H   0  0  0  0  0  0  0  0  0  0  0  0
  139.3600  137.6897  153.0990 H   0  0  0  0  0  0  0  0  0  0  0  0
  139.3465  139.2016  152.2040 H   0  0  0  0  0  0  0  0  0  0  0  0
  137.4311  138.5466  155.3431 H   0  0  0  0  0  0  0  0  0  0  0  0
  138.6612  139.1048  156.4640 H   0  0  0  0  0  0  0  0  0  0  0  0
  138.9257  137.6371  155.5430 H   0  0  0  0  0  0  0  0  0  0  0  0
  142.3368  135.0834  154.1931 H   0  0  0  0  0  0  0  0  0  0  0  0
  143.2734  133.1530  153.4451 H   0  0  0  0  0  0  0  0  0  0  0  0
  1  2  1  0  0  0  0
  1 23  1  0  0  0  0
  1 24  1  0  0  0  0
  1 25  1  0  0  0  0
  2  3  1  0  0  0  0
  2  4  1  0  0  0  0
  3 26  1  0  0  0  0
  3 27  1  0  0  0  0
  3 28  1  0  0  0  0
  4 22  1  0  0  0  0
  4  5  2  0  0  0  0
  5  6  1  0  0  0  0
  5 29  1  0  0  0  0
  6  7  2  0  0  0  0
  6 30  1  0  0  0  0
  7  8  1  0  0  0  0
  7 21  1  0  0  0  0
  8  9  1  0  0  0  0
  8 31  1  0  0  0  0
  9 10  2  0  0  0  0
  9 11  1  0  0  0  0
 11 12  1  0  0  0  0
 11 32  1  0  0  0  0
 12 18  1  0  0  0  0
 12 13  1  0  0  0  0
 12 33  1  0  0  0  0
 13 17  1  0  0  0  0
 13 14  1  0  0  0  0
 13 34  1  0  0  0  0
 14 15  1  0  0  0  0
 14 35  1  0  0  0  0
 14 36  1  0  0  0  0
 15 16  1  0  0  0  0
 15 37  1  0  0  0  0
 15 38  1  0  0  0  0
 16 17  1  0  0  0  0
 17 18  1  0  0  0  0
 17 39  1  0  0  0  0
 18 19  1  0  0  0  0
 18 20  1  0  0  0  0
 19 40  1  0  0  0  0
 19 41  1  0  0  0  0
 19 42  1  0  0  0  0
 20 43  1  0  0  0  0
 20 44  1  0  0  0  0
 20 45  1  0  0  0  0
 21 22  2  0  0  0  0
 21 46  1  0  0  0  0
 22 47  1  0  0  0  0
M  CHG  1  22   1
M  END
> <s_m_source_file>
AV-unprocessed.smi

> <i_m_source_file_index>
2923

> <i_lp_mmshare_version>
43012

> <i_f3d_flags>
0

> <s_epik_input>
W0NIM11OKFtDSDNdKWMxW2NIXVtjSF1jKFtjSF1uMSlbTkhdQyg9TylbTkhdW0NASF0yQyhbQ0gzXSkoW0NIM10pW0NAQEhdKFtDQEhdMjMpT1tDSDJdW0NIMl0z

> <s_epik_cmdline>
J2VwaWtfcHl0aG9uJywgJy1waCcsICc3LjAnLCAnLXRuJywgJzgnLCAnLW1hJywgJzIwMCcsICctbWV0YWxfYmluZGluZycsICctaW1hZScsICc8aW5maWxlLm1hZT4nLCAnLW9tYWUnLCAnPG91dGZpbGUubWFlPic=

> <r_lp_tautomer_probability>
0.999994

> <r_epik_Ionization_Penalty>
0.252205

> <r_epik_Ionization_Penalty_Charging>
0.252185

> <r_epik_Ionization_Penalty_Neutral>
1.99479e-05

> <r_epik_State_Penalty>
0.243573

> <r_epik_Charging_Adjusted_Penalty>
0.495758

> <i_epik_Tot_Q>
1

> <i_epik_Tot_abs_Q>
1

> <r_epik_Metal_State_Penalty>
0.534372

> <b_epik_Metal_Only>
0

> <s_lp_Force_Field>
OPLS_2005

> <r_lp_Energy>
44.3361

> <b_lp_Chiralities_Consistent>
1

> <s_lp_Variant>
AV-unprocessed.smi:2923-6

> <Gold.Version>
5.8.1

> <Gold.Id.Protein>
6NUR|6NUR_protein|mol2

> <Gold.PLP.Fitness>
41.7670

> <Gold.PLP.PLP>
-32.3213

> <Gold.PLP.part.hbond>
-3.0000

> <Gold.PLP.part.metal>
0.0000

> <Gold.PLP.part.buried>
-2.7935

> <Gold.PLP.part.nonpolar>
-26.5815

> <Gold.PLP.part.repulsive>
0.0958

> <Gold.PLP.ligand.clash>
0.0000

> <Gold.PLP.ligand.torsion>
1.3684

> <Gold.PLP.Chemscore.Hbond>
4.0000

> <Gold.PLP.Chemscore.CHOScore>
0.0000

> <Gold.PLP.Chemscore.Metal>
0.0000

> <Gold.Chemscore.Hbonds>
donor molecule, donor type, donor heavy atom, donor atom, acceptor molecule, acceptor atom, score
      L1  H     8    31       P1 10175  0.99
      L1  H    11    32       P1 10175  1.00
      L1  H    22    47       P1 10957  2.00

> <Gold.PLP.Chemscore.Internal.Correction>
0.1824

> <Gold.Rescore>
     Score         DG    S(hbond)    S(metal)    S(lipo)     H(rot)  DE(clash)    DE(int)     intcor
     14.30     -20.18       2.83        0.00      66.84       1.00       0.02       5.86       ----

> <Gold.Chemscore.Fitness>
14.2995

> <Gold.Chemscore.DG>
-20.1796

> <Gold.Chemscore.ZeroCoef>
-5.4800

> <Gold.Chemscore.Hbond>
2.8262

> <Gold.Chemscore.Metal>
0.0000

> <Gold.Chemscore.Lipo>
66.8376

> <Gold.Chemscore.Internal_Hbond>
0.0000

> <Gold.Chemscore.DEClash>
0.0212

> <Gold.Chemscore.DEInternal>
5.8590

> <Gold.Chemscore.Rot>
1.0000

> <Gold.Chemscore.Internal.Correction>
   9.000000E+99

> <Gold.Chemscore.Hbonds>
donor molecule, donor type, donor heavy atom, donor atom, acceptor molecule, acceptor atom, score
      L1  H     8    31       P1 10175  0.88
      L1  H    11    32       P1 10175  0.88
      L1  H    22    47       P1 10957  0.88

> <Gold.Chemscore.Hbond.Weighted>
-9.4396

> <Gold.Chemscore.Metal.Weighted>
-0.0000

> <Gold.Chemscore.Lipo.Weighted>
-7.8200

> <Gold.Chemscore.Internal_Hbond.Weighted>
0.0000

> <Gold.Chemscore.DEClash.Weighted>
0.0212

> <Gold.Chemscore.DEInternal.Weighted>
5.8590

> <Gold.Chemscore.Rot.Weighted>
2.5600

> <Gold.Chemscore.Internal.Correction.Weighted>
   9.000000E+99

> <Gold.Protein.RotatedTorsions>
[ 6907 6896 6895 6894 ] final  -16.20 input  -60.11 | X-H torsion
[ 7974 7965 7964 7962 ] final    0.40 input  175.53 | X-H torsion
[ 8008 7997 7996 7995 ] final   -3.59 input   59.86 | X-H torsion
[ 10167 10162 10161 10158 ] final   81.34 input  -65.29 | X-H torsion
[ 10718 10713 10712 10709 ] final  108.89 input   66.30 | X-H torsion
[ 10763 10752 10751 10750 ] final  -93.44 input  -60.55 | X-H torsion
[ 11005 11000 10999 10996 ] final -129.21 input  -57.11 | X-H torsion

> <Gold.Protein.ActiveResidues>
 VAL166  LYS551  ARG553  GLY616  TRP617  ASP618  TYR619  PRO620  LYS621  CYS622 
 ASP623  PHE694  ASN695  SER759  ASP760  ASP761  ALA762  ILE779  LEU786  VAL792 
 PHE793  MET794  SER795  GLU796  ALA797  LYS798  CYS799  TRP800  GLU811  SER814 

> <Gold.Protein.RotatedAtoms>
  151.3122  135.0797  159.9276 H   0  0  0  0  0  0  0  0  0  0  0  0  # atno 6907 bound_to 6896
  152.5275  133.9724  159.7778 H   0  0  0  0  0  0  0  0  0  0  0  0  # atno 6908 bound_to 6896
  151.0030  133.5986  159.2723 H   0  0  0  0  0  0  0  0  0  0  0  0  # atno 6909 bound_to 6896
  146.2434  140.1144  142.8342 H   0  0  0  0  0  0  0  0  0  0  0  0  # atno 7974 bound_to 7965
  154.6233  140.2505  155.7522 H   0  0  0  0  0  0  0  0  0  0  0  0  # atno 8008 bound_to 7997
  156.2439  140.2922  156.0471 H   0  0  0  0  0  0  0  0  0  0  0  0  # atno 8009 bound_to 7997
  155.1862  140.0390  157.2882 H   0  0  0  0  0  0  0  0  0  0  0  0  # atno 8010 bound_to 7997
  139.9403  144.6094  150.8259 H   0  0  0  0  0  0  0  0  0  0  0  0  # atno 10167 bound_to 10162
  157.6566  131.0903  150.6372 H   0  0  0  0  0  0  0  0  0  0  0  0  # atno 10718 bound_to 10713
  154.6959  135.5194  153.8458 H   0  0  0  0  0  0  0  0  0  0  0  0  # atno 10763 bound_to 10752
  153.0667  135.6587  154.0348 H   0  0  0  0  0  0  0  0  0  0  0  0  # atno 10764 bound_to 10752
  154.0215  135.2993  155.3360 H   0  0  0  0  0  0  0  0  0  0  0  0  # atno 10765 bound_to 10752
  140.9451  134.1141  157.4115 H   0  0  0  0  0  0  0  0  0  0  0  0  # atno 11005 bound_to 11000
  145.0460  140.8981  143.5024 LP  0  0  0  0  0  0  0  0  0  0  0  0  # atno 17320 bound_to 7965
  145.1233  139.2679  143.5577 LP  0  0  0  0  0  0  0  0  0  0  0  0  # atno 17321 bound_to 7965
  140.7613  143.3171  151.2709 LP  0  0  0  0  0  0  0  0  0  0  0  0  # atno 17342 bound_to 10162
  139.6710  144.0020  152.2753 LP  0  0  0  0  0  0  0  0  0  0  0  0  # atno 17343 bound_to 10162
  156.6678  130.4531  149.5667 LP  0  0  0  0  0  0  0  0  0  0  0  0  # atno 17370 bound_to 10713
  156.2020  130.6625  151.1177 LP  0  0  0  0  0  0  0  0  0  0  0  0  # atno 17371 bound_to 10713
  139.8831  135.0049  156.6277 LP  0  0  0  0  0  0  0  0  0  0  0  0  # atno 17394 bound_to 11000
  140.7681  133.8761  155.8470 LP  0  0  0  0  0  0  0  0  0  0  0  0  # atno 17395 bound_to 11000

$$$$
