AV-unprocessed.smi:3220|AV-procd|sdf|12297|dock7
  -GOLD-   2272018143D 1   1.00000     0.00000
 Structure written by MMmdl.
 33 34  0  0  0  0  0  0  0  0  1 V2000
  151.3273  144.7373  158.2989 C   0  0  0  0  0  0  0  0  0  0  0  0
  150.9776  143.2440  158.3761 C   0  0  2  0  0  0  0  0  0  0  0  0
  152.2045  142.3908  158.7535 C   0  0  0  0  0  0  0  0  0  0  0  0
  152.5761  142.5389  160.1502 N   0  0  0  0  0  0  0  0  0  0  0  0
  153.5136  141.8256  160.8674 C   0  0  0  0  0  0  0  0  0  0  0  0
  153.5048  142.3109  162.1435 C   0  0  0  0  0  0  0  0  0  0  0  0
  152.5199  143.3373  162.1073 C   0  0  0  0  0  0  0  0  0  0  0  0
  151.9685  143.4739  160.9123 N   0  0  0  0  0  0  0  0  0  0  0  0
  150.4366  142.7952  157.0951 N   0  0  0  0  0  0  0  0  0  0  0  0
  150.2557  141.5182  156.7222 C   0  0  0  0  0  0  0  0  0  0  0  0
  150.4698  140.5637  157.4698 O   0  0  0  0  0  0  0  0  0  0  0  0
  149.7383  141.2788  155.2918 C   0  0  2  0  0  0  0  0  0  0  0  0
  148.3873  140.5343  155.2373 C   0  0  0  0  0  0  0  0  0  0  0  0
  148.6899  139.2525  154.4783 C   0  0  0  0  0  0  0  0  0  0  0  0
  150.1934  139.1005  154.6513 C   0  0  0  0  0  0  0  0  0  0  0  0
  150.6470  140.4428  154.5714 O   0  0  0  0  0  0  0  0  0  0  0  0
  151.7205  145.0970  159.2501 H   0  0  0  0  0  0  0  0  0  0  0  0
  150.4475  145.3359  158.0607 H   0  0  0  0  0  0  0  0  0  0  0  0
  152.0795  144.9303  157.5333 H   0  0  0  0  0  0  0  0  0  0  0  0
  150.2250  143.1148  159.1563 H   0  0  0  0  0  0  0  0  0  0  0  0
  152.0126  141.3354  158.5540 H   0  0  0  0  0  0  0  0  0  0  0  0
  153.0631  142.6726  158.1423 H   0  0  0  0  0  0  0  0  0  0  0  0
  154.0971  141.0363  160.4166 H   0  0  0  0  0  0  0  0  0  0  0  0
  154.1091  141.9827  162.9759 H   0  0  0  0  0  0  0  0  0  0  0  0
  152.1912  143.9830  162.9082 H   0  0  0  0  0  0  0  0  0  0  0  0
  150.2193  143.5119  156.4175 H   0  0  0  0  0  0  0  0  0  0  0  0
  149.6722  142.2422  154.7853 H   0  0  0  0  0  0  0  0  0  0  0  0
  148.0067  140.2916  156.2305 H   0  0  0  0  0  0  0  0  0  0  0  0
  147.6204  141.1216  154.7317 H   0  0  0  0  0  0  0  0  0  0  0  0
  148.1304  138.3930  154.8488 H   0  0  0  0  0  0  0  0  0  0  0  0
  148.4524  139.3829  153.4217 H   0  0  0  0  0  0  0  0  0  0  0  0
  150.4345  138.6818  155.6294 H   0  0  0  0  0  0  0  0  0  0  0  0
  150.6477  138.4739  153.8837 H   0  0  0  0  0  0  0  0  0  0  0  0
  1  2  1  0  0  0  0
  1 17  1  0  0  0  0
  1 18  1  0  0  0  0
  1 19  1  0  0  0  0
  2  3  1  0  0  0  0
  2  9  1  0  0  0  0
  2 20  1  0  0  0  0
  3  4  1  0  0  0  0
  3 21  1  0  0  0  0
  3 22  1  0  0  0  0
  4  8  1  0  0  0  0
  4  5  1  0  0  0  0
  5  6  2  0  0  0  0
  5 23  1  0  0  0  0
  6  7  1  0  0  0  0
  6 24  1  0  0  0  0
  7  8  2  0  0  0  0
  7 25  1  0  0  0  0
  9 10  1  0  0  0  0
  9 26  1  0  0  0  0
 10 11  2  0  0  0  0
 10 12  1  0  0  0  0
 12 16  1  0  0  0  0
 12 13  1  0  0  0  0
 12 27  1  0  0  0  0
 13 14  1  0  0  0  0
 13 28  1  0  0  0  0
 13 29  1  0  0  0  0
 14 15  1  0  0  0  0
 14 30  1  0  0  0  0
 14 31  1  0  0  0  0
 15 16  1  0  0  0  0
 15 32  1  0  0  0  0
 15 33  1  0  0  0  0
M  END
> <s_m_source_file>
AV-unprocessed.smi

> <i_m_source_file_index>
3220

> <i_lp_mmshare_version>
43012

> <i_f3d_flags>
0

> <s_epik_input>
bjFbY0hdW2NIXVtjSF1uMVtDSDJdW0NAQEhdKFtDSDNdKVtOSF1DKD1PKVtDQEBIXTJbQ0gyXVtDSDJdW0NIMl1PMg==

> <s_epik_cmdline>
J2VwaWtfcHl0aG9uJywgJy1waCcsICc3LjAnLCAnLXRuJywgJzgnLCAnLW1hJywgJzIwMCcsICctbWV0YWxfYmluZGluZycsICctaW1hZScsICc8aW5maWxlLm1hZT4nLCAnLW9tYWUnLCAnPG91dGZpbGUubWFlPic=

> <r_lp_tautomer_probability>
1

> <r_epik_Ionization_Penalty>
0.00033363

> <r_epik_Ionization_Penalty_Charging>
0

> <r_epik_Ionization_Penalty_Neutral>
0.00033363

> <r_epik_State_Penalty>
-0

> <r_epik_Charging_Adjusted_Penalty>
0

> <i_epik_Tot_Q>
0

> <i_epik_Tot_abs_Q>
0

> <r_epik_Metal_State_Penalty>
-0

> <b_epik_Metal_Only>
0

> <s_lp_Force_Field>
OPLS_2005

> <r_lp_Energy>
17.2779

> <b_lp_Chiralities_Consistent>
1

> <s_lp_Variant>
AV-unprocessed.smi:3220-1

> <Gold.Version>
5.8.1

> <Gold.Id.Protein>
6NUR|6NUR_protein|mol2

> <Gold.PLP.Fitness>
43.2277

> <Gold.PLP.PLP>
-37.9945

> <Gold.PLP.part.hbond>
-1.8065

> <Gold.PLP.part.metal>
0.0000

> <Gold.PLP.part.buried>
-5.8737

> <Gold.PLP.part.nonpolar>
-31.6195

> <Gold.PLP.part.repulsive>
0.2257

> <Gold.PLP.ligand.clash>
0.0000

> <Gold.PLP.ligand.torsion>
0.3449

> <Gold.PLP.Chemscore.Hbond>
1.9673

> <Gold.PLP.Chemscore.CHOScore>
0.0000

> <Gold.PLP.Chemscore.Metal>
0.0000

> <Gold.Chemscore.Hbonds>
donor molecule, donor type, donor heavy atom, donor atom, acceptor molecule, acceptor atom, score
      L1  H     9    26       P1  8028  0.96
      P1  H  7989  7998       L1    16  0.96

> <Gold.PLP.Chemscore.Internal.Correction>
0.0212

> <Gold.Rescore>
     Score         DG    S(hbond)    S(metal)    S(lipo)     H(rot)  DE(clash)    DE(int)     intcor
     17.57     -17.96       1.94        0.00      86.90       1.62       0.01       0.39       ----

> <Gold.Chemscore.Fitness>
17.5682

> <Gold.Chemscore.DG>
-17.9632

> <Gold.Chemscore.ZeroCoef>
-5.4800

> <Gold.Chemscore.Hbond>
1.9365

> <Gold.Chemscore.Metal>
0.0000

> <Gold.Chemscore.Lipo>
86.8999

> <Gold.Chemscore.Internal_Hbond>
0.0000

> <Gold.Chemscore.DEClash>
0.0081

> <Gold.Chemscore.DEInternal>
0.3869

> <Gold.Chemscore.Rot>
1.6219

> <Gold.Chemscore.Internal.Correction>
   9.000000E+99

> <Gold.Chemscore.Hbonds>
donor molecule, donor type, donor heavy atom, donor atom, acceptor molecule, acceptor atom, score
      L1  H     9    26       P1  8028  0.91
      P1  H  7989  7998       L1    16  0.88

> <Gold.Chemscore.Hbond.Weighted>
-6.4679

> <Gold.Chemscore.Metal.Weighted>
-0.0000

> <Gold.Chemscore.Lipo.Weighted>
-10.1673

> <Gold.Chemscore.Internal_Hbond.Weighted>
0.0000

> <Gold.Chemscore.DEClash.Weighted>
0.0081

> <Gold.Chemscore.DEInternal.Weighted>
0.3869

> <Gold.Chemscore.Rot.Weighted>
4.1520

> <Gold.Chemscore.Internal.Correction.Weighted>
   9.000000E+99

> <Gold.Protein.RotatedTorsions>
[ 6907 6896 6895 6894 ] final  167.63 input  -60.11 | X-H torsion
[ 7974 7965 7964 7962 ] final  100.07 input  175.53 | X-H torsion
[ 8008 7997 7996 7995 ] final  -77.46 input   59.86 | X-H torsion
[ 10167 10162 10161 10158 ] final  -11.51 input  -65.29 | X-H torsion
[ 10718 10713 10712 10709 ] final   -7.97 input   66.30 | X-H torsion
[ 10763 10752 10751 10750 ] final  -14.79 input  -60.55 | X-H torsion
[ 11005 11000 10999 10996 ] final -152.62 input  -57.11 | X-H torsion

> <Gold.Protein.ActiveResidues>
 VAL166  LYS551  ARG553  GLY616  TRP617  ASP618  TYR619  PRO620  LYS621  CYS622 
 ASP623  PHE694  ASN695  SER759  ASP760  ASP761  ALA762  ILE779  LEU786  VAL792 
 PHE793  MET794  SER795  GLU796  ALA797  LYS798  CYS799  TRP800  GLU811  SER814 

> <Gold.Protein.RotatedAtoms>
  151.8603  133.3456  159.3701 H   0  0  0  0  0  0  0  0  0  0  0  0  # atno 6907 bound_to 6896
  150.7181  134.5212  159.5664 H   0  0  0  0  0  0  0  0  0  0  0  0  # atno 6908 bound_to 6896
  152.2724  134.7918  160.0463 H   0  0  0  0  0  0  0  0  0  0  0  0  # atno 6909 bound_to 6896
  145.3904  139.2364  143.3355 H   0  0  0  0  0  0  0  0  0  0  0  0  # atno 7974 bound_to 7965
  154.5598  140.0710  156.8801 H   0  0  0  0  0  0  0  0  0  0  0  0  # atno 8008 bound_to 7997
  155.2833  140.3373  155.4239 H   0  0  0  0  0  0  0  0  0  0  0  0  # atno 8009 bound_to 7997
  156.2033  140.1730  156.7840 H   0  0  0  0  0  0  0  0  0  0  0  0  # atno 8010 bound_to 7997
  140.7140  143.5631  150.9173 H   0  0  0  0  0  0  0  0  0  0  0  0  # atno 10167 bound_to 10162
  156.7094  130.5117  149.5896 H   0  0  0  0  0  0  0  0  0  0  0  0  # atno 10718 bound_to 10713
  153.5335  135.7014  153.5671 H   0  0  0  0  0  0  0  0  0  0  0  0  # atno 10763 bound_to 10752
  153.3668  135.3955  155.1759 H   0  0  0  0  0  0  0  0  0  0  0  0  # atno 10764 bound_to 10752
  154.8682  135.3802  154.4834 H   0  0  0  0  0  0  0  0  0  0  0  0  # atno 10765 bound_to 10752
  140.7169  134.3771  157.5189 H   0  0  0  0  0  0  0  0  0  0  0  0  # atno 11005 bound_to 11000
  146.2800  140.4586  142.8780 LP  0  0  0  0  0  0  0  0  0  0  0  0  # atno 17320 bound_to 7965
  144.8444  140.6907  143.6208 LP  0  0  0  0  0  0  0  0  0  0  0  0  # atno 17321 bound_to 7965
  139.9357  143.6441  152.3066 LP  0  0  0  0  0  0  0  0  0  0  0  0  # atno 17342 bound_to 10162
  139.6907  144.7647  151.1443 LP  0  0  0  0  0  0  0  0  0  0  0  0  # atno 17343 bound_to 10162
  156.1671  130.6413  151.0792 LP  0  0  0  0  0  0  0  0  0  0  0  0  # atno 17370 bound_to 10713
  157.6942  131.0800  150.7019 LP  0  0  0  0  0  0  0  0  0  0  0  0  # atno 17371 bound_to 10713
  139.8858  134.8928  156.2624 LP  0  0  0  0  0  0  0  0  0  0  0  0  # atno 17394 bound_to 11000
  141.0037  133.7136  156.1001 LP  0  0  0  0  0  0  0  0  0  0  0  0  # atno 17395 bound_to 11000

$$$$
