AV-unprocessed.smi:2086|AV-procd|sdf|8519|dock5
  -GOLD-   2272011233D 1   1.00000     0.00000
 Structure written by MMmdl.
 33 34  0  0  0  0  0  0  0  0  2 V2000
  150.1013  136.8486  159.5698 O   0  0  0  0  0  0  0  0  0  0  0  0
  148.9149  137.1523  159.4032 C   0  0  0  0  0  0  0  0  0  0  0  0
  147.8954  137.2108  160.3044 N   0  5  0  0  0  0  0  0  0  0  0  0
  147.1685  136.0389  160.7911 C   0  0  0  0  0  0  0  0  0  0  0  0
  146.4819  136.3449  162.1353 C   0  0  0  0  0  0  0  0  0  0  0  0
  145.8083  135.2671  162.5374 F   0  0  0  0  0  0  0  0  0  0  0  0
  147.3838  136.6521  163.0691 F   0  0  0  0  0  0  0  0  0  0  0  0
  145.6218  137.3564  162.0065 F   0  0  0  0  0  0  0  0  0  0  0  0
  148.4920  137.5926  158.0242 C   0  0  0  0  0  0  0  0  0  0  0  0
  147.1107  137.6352  157.7308 C   0  0  0  0  0  0  0  0  0  0  0  0
  146.6813  138.0318  156.4522 C   0  0  0  0  0  0  0  0  0  0  0  0
  147.6572  138.3821  155.5044 C   0  0  0  0  0  0  0  0  0  0  0  0
  148.9789  138.3709  155.7679 N   0  0  0  0  0  0  0  0  0  0  0  0
  149.4052  137.9955  157.0005 C   0  0  0  0  0  0  0  0  0  0  0  0
  150.7952  138.0711  157.2276 N   0  0  0  0  0  0  0  0  0  0  0  0
  151.6830  137.4964  156.2232 C   0  0  0  0  0  0  0  0  0  0  0  0
  153.1144  137.4167  156.7805 C   0  0  0  0  0  0  0  0  0  0  0  0
  153.5343  138.7087  157.2119 O   0  0  0  0  0  0  0  0  0  0  0  0
  152.7015  139.2241  158.2478 C   0  0  0  0  0  0  0  0  0  0  0  0
  151.2576  139.3564  157.7349 C   0  0  0  0  0  0  0  0  0  0  0  0
  146.4088  135.7115  160.0793 H   0  0  0  0  0  0  0  0  0  0  0  0
  147.8366  135.1862  160.9211 H   0  0  0  0  0  0  0  0  0  0  0  0
  146.3805  137.3533  158.4758 H   0  0  0  0  0  0  0  0  0  0  0  0
  145.6308  138.0615  156.2044 H   0  0  0  0  0  0  0  0  0  0  0  0
  147.3689  138.6886  154.5098 H   0  0  0  0  0  0  0  0  0  0  0  0
  151.3338  136.5016  155.9439 H   0  0  0  0  0  0  0  0  0  0  0  0
  151.6692  138.1139  155.3241 H   0  0  0  0  0  0  0  0  0  0  0  0
  153.1692  136.7097  157.6097 H   0  0  0  0  0  0  0  0  0  0  0  0
  153.7979  137.0588  156.0107 H   0  0  0  0  0  0  0  0  0  0  0  0
  152.7437  138.5724  159.1222 H   0  0  0  0  0  0  0  0  0  0  0  0
  153.0806  140.1978  158.5578 H   0  0  0  0  0  0  0  0  0  0  0  0
  151.2104  140.0936  156.9325 H   0  0  0  0  0  0  0  0  0  0  0  0
  150.6112  139.7156  158.5355 H   0  0  0  0  0  0  0  0  0  0  0  0
  1  2  2  0  0  0  0
  2  3  1  0  0  0  0
  2  9  1  0  0  0  0
  3  4  1  0  0  0  0
  4  5  1  0  0  0  0
  4 21  1  0  0  0  0
  4 22  1  0  0  0  0
  5  6  1  0  0  0  0
  5  7  1  0  0  0  0
  5  8  1  0  0  0  0
  9 14  1  0  0  0  0
  9 10  2  0  0  0  0
 10 11  1  0  0  0  0
 10 23  1  0  0  0  0
 11 12  2  0  0  0  0
 11 24  1  0  0  0  0
 12 13  1  0  0  0  0
 12 25  1  0  0  0  0
 13 14  2  0  0  0  0
 14 15  1  0  0  0  0
 15 20  1  0  0  0  0
 15 16  1  0  0  0  0
 16 17  1  0  0  0  0
 16 26  1  0  0  0  0
 16 27  1  0  0  0  0
 17 18  1  0  0  0  0
 17 28  1  0  0  0  0
 17 29  1  0  0  0  0
 18 19  1  0  0  0  0
 19 20  1  0  0  0  0
 19 30  1  0  0  0  0
 19 31  1  0  0  0  0
 20 32  1  0  0  0  0
 20 33  1  0  0  0  0
M  CHG  1   3  -1
M  END
> <s_m_source_file>
AV-unprocessed.smi

> <i_m_source_file_index>
2086

> <i_lp_mmshare_version>
43012

> <i_f3d_flags>
0

> <s_epik_input>
RkMoRikoRilbQ0gyXVtOSF1DKD1PKWMxW2NIXVtjSF1bY0hdbmMxTjJbQ0gyXVtDSDJdT1tDSDJdW0NIMl0y

> <s_epik_cmdline>
J2VwaWtfcHl0aG9uJywgJy1waCcsICc3LjAnLCAnLXRuJywgJzgnLCAnLW1hJywgJzIwMCcsICctbWV0YWxfYmluZGluZycsICctaW1hZScsICc8aW5maWxlLm1hZT4nLCAnLW9tYWUnLCAnPG91dGZpbGUubWFlPic=

> <r_lp_tautomer_probability>
1

> <r_epik_Ionization_Penalty>
6.70774

> <r_epik_Ionization_Penalty_Charging>
6.70732

> <r_epik_Ionization_Penalty_Neutral>
0.000422769

> <r_epik_State_Penalty>
6.70731

> <r_epik_Charging_Adjusted_Penalty>
13.4146

> <i_epik_Tot_Q>
-1

> <i_epik_Tot_abs_Q>
1

> <r_epik_Metal_State_Penalty>
2.62875

> <b_epik_Metal_Only>
1

> <s_lp_Force_Field>
OPLS_2005

> <r_lp_Energy>
34.3175

> <b_lp_Chiralities_Consistent>
1

> <s_lp_Variant>
AV-unprocessed.smi:2086-2

> <Gold.Version>
5.8.1

> <Gold.Id.Protein>
6NUR|6NUR_protein|mol2

> <Gold.PLP.Fitness>
37.3547

> <Gold.PLP.PLP>
-26.3156

> <Gold.PLP.part.hbond>
-3.8176

> <Gold.PLP.part.metal>
0.0000

> <Gold.PLP.part.buried>
-3.3275

> <Gold.PLP.part.nonpolar>
-19.4709

> <Gold.PLP.part.repulsive>
0.0237

> <Gold.PLP.ligand.clash>
0.9484

> <Gold.PLP.ligand.torsion>
1.5168

> <Gold.PLP.Chemscore.Hbond>
4.7122

> <Gold.PLP.Chemscore.CHOScore>
0.0000

> <Gold.PLP.Chemscore.Metal>
0.0000

> <Gold.Chemscore.Hbonds>
donor molecule, donor type, donor heavy atom, donor atom, acceptor molecule, acceptor atom, score
      P1  H  6896  6909       L1     1  0.91
      P1  H  6931  6943       L1     3  0.59
      P1  H  6934  6947       L1     3  1.56
      P1  H  7997  8009       L1    18  1.00

> <Gold.PLP.Chemscore.Internal.Correction>
0.8846

> <Gold.Rescore>
     Score         DG    S(hbond)    S(metal)    S(lipo)     H(rot)  DE(clash)    DE(int)     intcor
     11.70     -14.85       2.53        0.00      36.53       1.32       0.00       3.15       ----

> <Gold.Chemscore.Fitness>
11.7022

> <Gold.Chemscore.DG>
-14.8517

> <Gold.Chemscore.ZeroCoef>
-5.4800

> <Gold.Chemscore.Hbond>
2.5343

> <Gold.Chemscore.Metal>
0.0000

> <Gold.Chemscore.Lipo>
36.5338

> <Gold.Chemscore.Internal_Hbond>
0.0000

> <Gold.Chemscore.DEClash>
0.0000

> <Gold.Chemscore.DEInternal>
3.1494

> <Gold.Chemscore.Rot>
1.3154

> <Gold.Chemscore.Internal.Correction>
   9.000000E+99

> <Gold.Chemscore.Hbonds>
donor molecule, donor type, donor heavy atom, donor atom, acceptor molecule, acceptor atom, score
      P1  H  6896  6909       L1     1  0.87
      P1  H  6931  6943       L1     3  0.04
      P1  H  6934  6947       L1     3  0.67
      P1  H  7997  8009       L1    18  0.43

> <Gold.Chemscore.Hbond.Weighted>
-8.4647

> <Gold.Chemscore.Metal.Weighted>
-0.0000

> <Gold.Chemscore.Lipo.Weighted>
-4.2745

> <Gold.Chemscore.Internal_Hbond.Weighted>
0.0000

> <Gold.Chemscore.DEClash.Weighted>
0.0000

> <Gold.Chemscore.DEInternal.Weighted>
3.1494

> <Gold.Chemscore.Rot.Weighted>
3.3675

> <Gold.Chemscore.Internal.Correction.Weighted>
   9.000000E+99

> <Gold.Protein.RotatedTorsions>
[ 6907 6896 6895 6894 ] final   96.73 input  -60.11 | X-H torsion
[ 7974 7965 7964 7962 ] final  133.84 input  175.53 | X-H torsion
[ 8008 7997 7996 7995 ] final  174.91 input   59.86 | X-H torsion
[ 10167 10162 10161 10158 ] final  127.85 input  -65.29 | X-H torsion
[ 10718 10713 10712 10709 ] final  -40.82 input   66.30 | X-H torsion
[ 10763 10752 10751 10750 ] final   24.28 input  -60.55 | X-H torsion
[ 11005 11000 10999 10996 ] final  149.17 input  -57.11 | X-H torsion

> <Gold.Protein.ActiveResidues>
 VAL166  LYS551  ARG553  GLY616  TRP617  ASP618  TYR619  PRO620  LYS621  CYS622 
 ASP623  PHE694  ASN695  SER759  ASP760  ASP761  ALA762  ILE779  LEU786  VAL792 
 PHE793  MET794  SER795  GLU796  ALA797  LYS798  CYS799  TRP800  GLU811  SER814 

> <Gold.Protein.RotatedAtoms>
  152.5432  134.0841  159.8248 H   0  0  0  0  0  0  0  0  0  0  0  0  # atno 6907 bound_to 6896
  151.0939  133.5287  159.2621 H   0  0  0  0  0  0  0  0  0  0  0  0  # atno 6908 bound_to 6896
  151.2068  135.0474  159.8949 H   0  0  0  0  0  0  0  0  0  0  0  0  # atno 6909 bound_to 6896
  144.9824  139.4490  143.5379 H   0  0  0  0  0  0  0  0  0  0  0  0  # atno 7974 bound_to 7965
  156.0925  140.1422  156.9573 H   0  0  0  0  0  0  0  0  0  0  0  0  # atno 8008 bound_to 7997
  154.4651  140.0929  156.7044 H   0  0  0  0  0  0  0  0  0  0  0  0  # atno 8009 bound_to 7997
  155.4896  140.3447  155.4355 H   0  0  0  0  0  0  0  0  0  0  0  0  # atno 8010 bound_to 7997
  139.5557  144.6846  151.4190 H   0  0  0  0  0  0  0  0  0  0  0  0  # atno 10167 bound_to 10162
  156.2771  130.4213  149.8376 H   0  0  0  0  0  0  0  0  0  0  0  0  # atno 10718 bound_to 10713
  153.0775  135.6608  154.0114 H   0  0  0  0  0  0  0  0  0  0  0  0  # atno 10763 bound_to 10752
  153.9744  135.2961  155.3426 H   0  0  0  0  0  0  0  0  0  0  0  0  # atno 10764 bound_to 10752
  154.7167  135.5182  153.8819 H   0  0  0  0  0  0  0  0  0  0  0  0  # atno 10765 bound_to 10752
  140.1022  134.8976  157.1813 H   0  0  0  0  0  0  0  0  0  0  0  0  # atno 11005 bound_to 11000
  146.3411  139.9106  142.8781 LP  0  0  0  0  0  0  0  0  0  0  0  0  # atno 17320 bound_to 7965
  145.2401  141.0006  143.3940 LP  0  0  0  0  0  0  0  0  0  0  0  0  # atno 17321 bound_to 7965
  140.6829  143.8041  150.7146 LP  0  0  0  0  0  0  0  0  0  0  0  0  # atno 17342 bound_to 10162
  140.1500  143.4366  152.2138 LP  0  0  0  0  0  0  0  0  0  0  0  0  # atno 17343 bound_to 10162
  156.5837  130.8476  151.3389 LP  0  0  0  0  0  0  0  0  0  0  0  0  # atno 17370 bound_to 10713
  157.7303  130.9683  150.1825 LP  0  0  0  0  0  0  0  0  0  0  0  0  # atno 17371 bound_to 10713
  140.3204  134.2923  155.7247 LP  0  0  0  0  0  0  0  0  0  0  0  0  # atno 17394 bound_to 11000
  141.2109  133.7706  156.9903 LP  0  0  0  0  0  0  0  0  0  0  0  0  # atno 17395 bound_to 11000

$$$$
