AV-unprocessed.smi:1840|AV-procd|sdf|7494|dock3
  -GOLD-   22720 9193D 1   1.00000     0.00000
 Structure written by MMmdl.
 43 44  0  0  0  0  0  0  0  0  1 V2000
  154.7741  140.5412  161.0800 C   0  0  0  0  0  0  0  0  0  0  0  0
  153.8326  141.4404  160.2674 C   0  0  2  0  0  0  0  0  0  0  0  0
  153.0876  142.4417  161.1748 C   0  0  0  0  0  0  0  0  0  0  0  0
  152.4575  143.5137  160.4236 N   0  0  0  0  0  0  0  0  0  0  0  0
  152.5108  143.7549  159.0671 C   0  0  0  0  0  0  0  0  0  0  0  0
  151.7518  144.8629  158.8211 C   0  0  0  0  0  0  0  0  0  0  0  0
  151.2752  145.2377  160.1082 C   0  0  0  0  0  0  0  0  0  0  0  0
  151.7001  144.4294  161.0657 N   0  0  0  0  0  0  0  0  0  0  0  0
  152.8847  140.6016  159.5340 N   0  0  0  0  0  0  0  0  0  0  0  0
  153.2091  139.6375  158.6600 C   0  0  0  0  0  0  0  0  0  0  0  0
  154.3649  139.3111  158.3882 O   0  0  0  0  0  0  0  0  0  0  0  0
  152.1199  139.0859  158.1054 N   0  0  0  0  0  0  0  0  0  0  0  0
  152.1161  138.0124  157.1118 C   0  0  1  0  0  0  0  0  0  0  0  0
  151.3218  136.8183  157.6772 C   0  0  0  0  0  0  0  0  0  0  0  0
  151.2356  135.6648  156.6674 C   0  0  0  0  0  0  0  0  0  0  0  0
  150.6305  136.1409  155.3399 C   0  0  0  0  0  0  0  0  0  0  0  0
  151.4243  137.3239  154.7652 C   0  0  0  0  0  0  0  0  0  0  0  0
  151.5171  138.4952  155.7646 C   0  0  2  0  0  0  0  0  0  0  0  0
  152.2980  139.6688  155.1467 C   0  0  0  0  0  0  0  0  0  0  0  0
  155.5141  141.1337  161.6189 H   0  0  0  0  0  0  0  0  0  0  0  0
  155.3149  139.8510  160.4315 H   0  0  0  0  0  0  0  0  0  0  0  0
  154.2249  139.9490  161.8129 H   0  0  0  0  0  0  0  0  0  0  0  0
  154.4523  142.0033  159.5667 H   0  0  0  0  0  0  0  0  0  0  0  0
  152.3325  141.9286  161.7728 H   0  0  0  0  0  0  0  0  0  0  0  0
  153.7847  142.8964  161.8797 H   0  0  0  0  0  0  0  0  0  0  0  0
  153.0717  143.1201  158.3970 H   0  0  0  0  0  0  0  0  0  0  0  0
  151.5647  145.3327  157.8672 H   0  0  0  0  0  0  0  0  0  0  0  0
  150.6346  146.0659  160.3738 H   0  0  0  0  0  0  0  0  0  0  0  0
  151.9048  140.7931  159.6823 H   0  0  0  0  0  0  0  0  0  0  0  0
  151.2175  139.4369  158.3909 H   0  0  0  0  0  0  0  0  0  0  0  0
  153.1376  137.6717  156.9309 H   0  0  0  0  0  0  0  0  0  0  0  0
  151.7864  136.4624  158.5976 H   0  0  0  0  0  0  0  0  0  0  0  0
  150.3134  137.1377  157.9451 H   0  0  0  0  0  0  0  0  0  0  0  0
  152.2314  135.2562  156.4916 H   0  0  0  0  0  0  0  0  0  0  0  0
  150.6357  134.8532  157.0800 H   0  0  0  0  0  0  0  0  0  0  0  0
  150.6148  135.3197  154.6229 H   0  0  0  0  0  0  0  0  0  0  0  0
  149.5921  136.4369  155.4945 H   0  0  0  0  0  0  0  0  0  0  0  0
  152.4274  136.9902  154.4959 H   0  0  0  0  0  0  0  0  0  0  0  0
  150.9540  137.6590  153.8402 H   0  0  0  0  0  0  0  0  0  0  0  0
  150.5011  138.8467  155.9529 H   0  0  0  0  0  0  0  0  0  0  0  0
  153.3459  139.4101  154.9914 H   0  0  0  0  0  0  0  0  0  0  0  0
  152.2634  140.5510  155.7849 H   0  0  0  0  0  0  0  0  0  0  0  0
  151.8790  139.9558  154.1820 H   0  0  0  0  0  0  0  0  0  0  0  0
  1  2  1  0  0  0  0
  1 20  1  0  0  0  0
  1 21  1  0  0  0  0
  1 22  1  0  0  0  0
  2  3  1  0  0  0  0
  2  9  1  0  0  0  0
  2 23  1  0  0  0  0
  3  4  1  0  0  0  0
  3 24  1  0  0  0  0
  3 25  1  0  0  0  0
  4  8  1  0  0  0  0
  4  5  1  0  0  0  0
  5  6  2  0  0  0  0
  5 26  1  0  0  0  0
  6  7  1  0  0  0  0
  6 27  1  0  0  0  0
  7  8  2  0  0  0  0
  7 28  1  0  0  0  0
  9 10  1  0  0  0  0
  9 29  1  0  0  0  0
 10 11  2  0  0  0  0
 10 12  1  0  0  0  0
 12 13  1  0  0  0  0
 12 30  1  0  0  0  0
 13 18  1  0  0  0  0
 13 14  1  0  0  0  0
 13 31  1  0  0  0  0
 14 15  1  0  0  0  0
 14 32  1  0  0  0  0
 14 33  1  0  0  0  0
 15 16  1  0  0  0  0
 15 34  1  0  0  0  0
 15 35  1  0  0  0  0
 16 17  1  0  0  0  0
 16 36  1  0  0  0  0
 16 37  1  0  0  0  0
 17 18  1  0  0  0  0
 17 38  1  0  0  0  0
 17 39  1  0  0  0  0
 18 19  1  0  0  0  0
 18 40  1  0  0  0  0
 19 41  1  0  0  0  0
 19 42  1  0  0  0  0
 19 43  1  0  0  0  0
M  END
> <s_m_source_file>
AV-unprocessed.smi

> <i_m_source_file_index>
1840

> <i_lp_mmshare_version>
43012

> <i_f3d_flags>
0

> <s_epik_input>
bjFbY0hdW2NIXVtjSF1uMVtDSDJdW0NAQEhdKFtDSDNdKVtOSF1DKD1PKVtOSF1bQ0BASF0yW0NIMl1bQ0gyXVtDSDJdW0NIMl1bQ0BIXTJbQ0gzXQ==

> <s_epik_cmdline>
J2VwaWtfcHl0aG9uJywgJy1waCcsICc3LjAnLCAnLXRuJywgJzgnLCAnLW1hJywgJzIwMCcsICctbWV0YWxfYmluZGluZycsICctaW1hZScsICc8aW5maWxlLm1hZT4nLCAnLW9tYWUnLCAnPG91dGZpbGUubWFlPic=

> <r_lp_tautomer_probability>
1

> <r_epik_Ionization_Penalty>
7.38659e-05

> <r_epik_Ionization_Penalty_Charging>
0

> <r_epik_Ionization_Penalty_Neutral>
7.38659e-05

> <r_epik_State_Penalty>
-0

> <r_epik_Charging_Adjusted_Penalty>
0

> <i_epik_Tot_Q>
0

> <i_epik_Tot_abs_Q>
0

> <r_epik_Metal_State_Penalty>
-0

> <b_epik_Metal_Only>
0

> <s_lp_Force_Field>
OPLS_2005

> <r_lp_Energy>
7.66905

> <b_lp_Chiralities_Consistent>
1

> <s_lp_Variant>
AV-unprocessed.smi:1840-7

> <Gold.Version>
5.8.1

> <Gold.Id.Protein>
6NUR|6NUR_protein|mol2

> <Gold.PLP.Fitness>
44.2803

> <Gold.PLP.PLP>
-41.4985

> <Gold.PLP.part.hbond>
-1.0000

> <Gold.PLP.part.metal>
0.0000

> <Gold.PLP.part.buried>
-4.5775

> <Gold.PLP.part.nonpolar>
-36.7197

> <Gold.PLP.part.repulsive>
0.3593

> <Gold.PLP.ligand.clash>
0.0000

> <Gold.PLP.ligand.torsion>
0.1201

> <Gold.PLP.Chemscore.Hbond>
1.0000

> <Gold.PLP.Chemscore.CHOScore>
0.0000

> <Gold.PLP.Chemscore.Metal>
0.0000

> <Gold.Chemscore.Hbonds>
donor molecule, donor type, donor heavy atom, donor atom, acceptor molecule, acceptor atom, score
      P1  H  7997  8010       L1    11  0.84

> <Gold.PLP.Chemscore.Internal.Correction>
0.0220

> <Gold.Rescore>
     Score         DG    S(hbond)    S(metal)    S(lipo)     H(rot)  DE(clash)    DE(int)     intcor
     16.61     -17.07       0.88        0.00     107.96       1.56       0.22       0.24       ----

> <Gold.Chemscore.Fitness>
16.6137

> <Gold.Chemscore.DG>
-17.0702

> <Gold.Chemscore.ZeroCoef>
-5.4800

> <Gold.Chemscore.Hbond>
0.8821

> <Gold.Chemscore.Metal>
0.0000

> <Gold.Chemscore.Lipo>
107.9619

> <Gold.Chemscore.Internal_Hbond>
0.0000

> <Gold.Chemscore.DEClash>
0.2208

> <Gold.Chemscore.DEInternal>
0.2357

> <Gold.Chemscore.Rot>
1.5576

> <Gold.Chemscore.Internal.Correction>
   9.000000E+99

> <Gold.Chemscore.Hbonds>
donor molecule, donor type, donor heavy atom, donor atom, acceptor molecule, acceptor atom, score
      P1  H  7997  8010       L1    11  0.53

> <Gold.Chemscore.Hbond.Weighted>
-2.9461

> <Gold.Chemscore.Metal.Weighted>
-0.0000

> <Gold.Chemscore.Lipo.Weighted>
-12.6315

> <Gold.Chemscore.Internal_Hbond.Weighted>
0.0000

> <Gold.Chemscore.DEClash.Weighted>
0.2208

> <Gold.Chemscore.DEInternal.Weighted>
0.2357

> <Gold.Chemscore.Rot.Weighted>
3.9875

> <Gold.Chemscore.Internal.Correction.Weighted>
   9.000000E+99

> <Gold.Protein.RotatedTorsions>
[ 6907 6896 6895 6894 ] final -140.68 input  -60.11 | X-H torsion
[ 7974 7965 7964 7962 ] final  123.74 input  175.53 | X-H torsion
[ 8008 7997 7996 7995 ] final   24.49 input   59.86 | X-H torsion
[ 10167 10162 10161 10158 ] final   47.87 input  -65.29 | X-H torsion
[ 10718 10713 10712 10709 ] final -108.59 input   66.30 | X-H torsion
[ 10763 10752 10751 10750 ] final   78.94 input  -60.55 | X-H torsion
[ 11005 11000 10999 10996 ] final  -44.07 input  -57.11 | X-H torsion

> <Gold.Protein.ActiveResidues>
 VAL166  LYS551  ARG553  GLY616  TRP617  ASP618  TYR619  PRO620  LYS621  CYS622 
 ASP623  PHE694  ASN695  SER759  ASP760  ASP761  ALA762  ILE779  LEU786  VAL792 
 PHE793  MET794  SER795  GLU796  ALA797  LYS798  CYS799  TRP800  GLU811  SER814 

> <Gold.Protein.RotatedAtoms>
  151.0638  133.5522  159.2632 H   0  0  0  0  0  0  0  0  0  0  0  0  # atno 6907 bound_to 6896
  151.2487  135.0614  159.9063 H   0  0  0  0  0  0  0  0  0  0  0  0  # atno 6908 bound_to 6896
  152.5401  134.0402  159.8118 H   0  0  0  0  0  0  0  0  0  0  0  0  # atno 6909 bound_to 6896
  145.0924  139.3577  143.4854 H   0  0  0  0  0  0  0  0  0  0  0  0  # atno 7974 bound_to 7965
  154.9970  140.3120  155.4882 H   0  0  0  0  0  0  0  0  0  0  0  0  # atno 8008 bound_to 7997
  156.2931  140.2239  156.5019 H   0  0  0  0  0  0  0  0  0  0  0  0  # atno 8009 bound_to 7997
  154.7652  140.0456  157.0994 H   0  0  0  0  0  0  0  0  0  0  0  0  # atno 8010 bound_to 7997
  140.2992  144.2954  150.6223 H   0  0  0  0  0  0  0  0  0  0  0  0  # atno 10167 bound_to 10162
  156.0493  130.5720  150.7982 H   0  0  0  0  0  0  0  0  0  0  0  0  # atno 10718 bound_to 10713
  153.0914  135.4858  154.8696 H   0  0  0  0  0  0  0  0  0  0  0  0  # atno 10763 bound_to 10752
  154.7273  135.3052  154.8952 H   0  0  0  0  0  0  0  0  0  0  0  0  # atno 10764 bound_to 10752
  153.9598  135.6813  153.4798 H   0  0  0  0  0  0  0  0  0  0  0  0  # atno 10765 bound_to 10752
  141.0426  133.6774  156.2822 H   0  0  0  0  0  0  0  0  0  0  0  0  # atno 11005 bound_to 11000
  146.3531  140.0764  142.8620 LP  0  0  0  0  0  0  0  0  0  0  0  0  # atno 17320 bound_to 7965
  145.1051  140.9370  143.4690 LP  0  0  0  0  0  0  0  0  0  0  0  0  # atno 17321 bound_to 7965
  140.5666  143.2185  151.7673 LP  0  0  0  0  0  0  0  0  0  0  0  0  # atno 17342 bound_to 10162
  139.4919  144.4275  151.9909 LP  0  0  0  0  0  0  0  0  0  0  0  0  # atno 17343 bound_to 10162
  157.5403  131.0940  150.9836 LP  0  0  0  0  0  0  0  0  0  0  0  0  # atno 17370 bound_to 10713
  157.0121  130.5641  149.5322 LP  0  0  0  0  0  0  0  0  0  0  0  0  # atno 17371 bound_to 10713
  140.6206  134.5366  157.5547 LP  0  0  0  0  0  0  0  0  0  0  0  0  # atno 17394 bound_to 11000
  139.9287  134.8005  156.0992 LP  0  0  0  0  0  0  0  0  0  0  0  0  # atno 17395 bound_to 11000

$$$$
