AV-unprocessed.smi:1381|AV-procd|sdf|5615|dock2
  -GOLD-   22720 5223D 1   1.00000     0.00000
 Structure written by MMmdl.
 42 43  0  0  0  0  0  0  0  0  3 V2000
  150.7473  141.0914  156.0793 C   0  0  0  0  0  0  0  0  0  0  0  0
  151.1808  139.7446  155.6107 C   0  0  0  0  0  0  0  0  0  0  0  0
  150.5086  138.5738  155.4028 C   0  0  0  0  0  0  0  0  0  0  0  0
  151.5287  137.6879  154.9596 C   0  0  0  0  0  0  0  0  0  0  0  0
  151.3612  136.4022  154.6129 N   0  5  0  0  0  0  0  0  0  0  0  0
  150.3685  135.6715  155.1688 C   0  0  0  0  0  0  0  0  0  0  0  0
  150.3568  135.1980  156.3075 O   0  0  0  0  0  0  0  0  0  0  0  0
  149.3176  135.4834  154.3577 N   0  0  0  0  0  0  0  0  0  0  0  0
  148.1004  134.7560  154.6976 C   0  0  0  0  0  0  0  0  0  0  0  0
  147.7190  133.7574  153.5890 C   0  0  0  0  0  0  0  0  0  0  0  0
  147.0966  134.4270  152.4168 N   0  3  1  0  0  0  0  0  0  0  0  0
  147.0406  133.5722  151.2062 C   0  0  0  0  0  0  0  0  0  0  0  0
  145.9031  132.5359  151.3063 C   0  0  2  0  0  0  0  0  0  0  0  0
  145.7759  131.6941  150.0319 C   0  0  0  0  0  0  0  0  0  0  0  0
  144.6728  133.2235  151.5072 O   0  0  0  0  0  0  0  0  0  0  0  0
  144.6488  133.9747  152.7166 C   0  0  2  0  0  0  0  0  0  0  0  0
  143.2599  134.6082  152.8519 C   0  0  0  0  0  0  0  0  0  0  0  0
  145.7686  135.0378  152.6801 C   0  0  0  0  0  0  0  0  0  0  0  0
  152.7120  138.2741  154.8891 N   0  0  0  0  0  0  0  0  0  0  0  0
  152.4987  139.5921  155.3104 O   0  0  0  0  0  0  0  0  0  0  0  0
  150.2807  141.6492  155.2674 H   0  0  0  0  0  0  0  0  0  0  0  0
  151.5948  141.6711  156.4454 H   0  0  0  0  0  0  0  0  0  0  0  0
  150.0238  141.0043  156.8901 H   0  0  0  0  0  0  0  0  0  0  0  0
  149.4564  138.3802  155.5473 H   0  0  0  0  0  0  0  0  0  0  0  0
  149.3708  135.8835  153.4322 H   0  0  0  0  0  0  0  0  0  0  0  0
  148.2856  134.2408  155.6390 H   0  0  0  0  0  0  0  0  0  0  0  0
  147.2847  135.4573  154.8819 H   0  0  0  0  0  0  0  0  0  0  0  0
  148.6267  133.2507  153.2590 H   0  0  0  0  0  0  0  0  0  0  0  0
  147.0665  132.9790  153.9840 H   0  0  0  0  0  0  0  0  0  0  0  0
  146.8719  134.2161  150.3418 H   0  0  0  0  0  0  0  0  0  0  0  0
  148.0012  133.0834  151.0382 H   0  0  0  0  0  0  0  0  0  0  0  0
  146.0819  131.8618  152.1458 H   0  0  0  0  0  0  0  0  0  0  0  0
  146.6948  131.1414  149.8334 H   0  0  0  0  0  0  0  0  0  0  0  0
  145.5661  132.3192  149.1634 H   0  0  0  0  0  0  0  0  0  0  0  0
  144.9665  130.9693  150.1232 H   0  0  0  0  0  0  0  0  0  0  0  0
  144.7958  133.2987  153.5597 H   0  0  0  0  0  0  0  0  0  0  0  0
  143.1807  135.1870  153.7725 H   0  0  0  0  0  0  0  0  0  0  0  0
  142.4834  133.8431  152.8736 H   0  0  0  0  0  0  0  0  0  0  0  0
  143.0460  135.2757  152.0167 H   0  0  0  0  0  0  0  0  0  0  0  0
  145.7796  135.6178  153.6020 H   0  0  0  0  0  0  0  0  0  0  0  0
  145.5642  135.7496  151.8790 H   0  0  0  0  0  0  0  0  0  0  0  0
  147.7243  135.1849  152.1883 H   0  0  0  0  0  0  0  0  0  0  0  0
  1  2  1  0  0  0  0
  1 21  1  0  0  0  0
  1 22  1  0  0  0  0
  1 23  1  0  0  0  0
  2 20  1  0  0  0  0
  2  3  2  0  0  0  0
  3  4  1  0  0  0  0
  3 24  1  0  0  0  0
  4  5  1  0  0  0  0
  4 19  2  0  0  0  0
  5  6  1  0  0  0  0
  6  7  2  0  0  0  0
  6  8  1  0  0  0  0
  8  9  1  0  0  0  0
  8 25  1  0  0  0  0
  9 10  1  0  0  0  0
  9 26  1  0  0  0  0
  9 27  1  0  0  0  0
 10 11  1  0  0  0  0
 10 28  1  0  0  0  0
 10 29  1  0  0  0  0
 11 18  1  0  0  0  0
 11 12  1  0  0  0  0
 11 42  1  0  0  0  0
 12 13  1  0  0  0  0
 12 30  1  0  0  0  0
 12 31  1  0  0  0  0
 13 14  1  0  0  0  0
 13 15  1  0  0  0  0
 13 32  1  0  0  0  0
 14 33  1  0  0  0  0
 14 34  1  0  0  0  0
 14 35  1  0  0  0  0
 15 16  1  0  0  0  0
 16 17  1  0  0  0  0
 16 18  1  0  0  0  0
 16 36  1  0  0  0  0
 17 37  1  0  0  0  0
 17 38  1  0  0  0  0
 17 39  1  0  0  0  0
 18 40  1  0  0  0  0
 18 41  1  0  0  0  0
 19 20  1  0  0  0  0
M  CHG  1   5  -1
M  CHG  1  11   1
M  END
> <s_m_source_file>
AV-unprocessed.smi

> <i_m_source_file_index>
1381

> <i_lp_mmshare_version>
43012

> <i_f3d_flags>
0

> <s_epik_input>
W0NIM11jMVtjSF1jKG5vMSlbTkhdQyg9TylbTkhdW0NIMl1bQ0gyXU4yW0NIMl1bQ0BASF0oW0NIM10pT1tDQEBIXShbQ0gzXSlbQ0gyXTI=

> <s_epik_cmdline>
J2VwaWtfcHl0aG9uJywgJy1waCcsICc3LjAnLCAnLXRuJywgJzgnLCAnLW1hJywgJzIwMCcsICctbWV0YWxfYmluZGluZycsICctaW1hZScsICc8aW5maWxlLm1hZT4nLCAnLW9tYWUnLCAnPG91dGZpbGUubWFlPic=

> <r_epik_Ionization_Penalty>
6.73511

> <r_epik_Ionization_Penalty_Charging>
6.73502

> <r_epik_Ionization_Penalty_Neutral>
9.26583e-05

> <r_epik_State_Penalty>
6.93549

> <r_epik_Charging_Adjusted_Penalty>
13.6705

> <i_epik_Tot_Q>
0

> <i_epik_Tot_abs_Q>
2

> <r_epik_Metal_State_Penalty>
2.87211

> <b_epik_Metal_Only>
1

> <s_lp_Force_Field>
OPLS_2005

> <r_lp_Energy>
4.17006

> <b_lp_Chiralities_Consistent>
1

> <s_lp_Variant>
AV-unprocessed.smi:1381-14

> <Gold.Version>
5.8.1

> <Gold.Id.Protein>
6NUR|6NUR_protein|mol2

> <Gold.PLP.Fitness>
48.4196

> <Gold.PLP.PLP>
-32.3782

> <Gold.PLP.part.hbond>
-5.3256

> <Gold.PLP.part.metal>
0.0000

> <Gold.PLP.part.buried>
-5.2460

> <Gold.PLP.part.nonpolar>
-22.1519

> <Gold.PLP.part.repulsive>
0.3629

> <Gold.PLP.ligand.clash>
0.0000

> <Gold.PLP.ligand.torsion>
1.0720

> <Gold.PLP.Chemscore.Hbond>
6.0000

> <Gold.PLP.Chemscore.CHOScore>
0.0000

> <Gold.PLP.Chemscore.Metal>
0.0000

> <Gold.Chemscore.Hbonds>
donor molecule, donor type, donor heavy atom, donor atom, acceptor molecule, acceptor atom, score
      L1  H     8    25       P1  7948  1.00
      L1  H    11    42       P1  7948  2.00
      P1  H  7997  8010       L1    20  0.80
      P1  H 10752 10765       L1     5  2.00

> <Gold.PLP.Chemscore.Internal.Correction>
0.1854

> <Gold.Rescore>
     Score         DG    S(hbond)    S(metal)    S(lipo)     H(rot)  DE(clash)    DE(int)     intcor
     17.88     -19.07       3.25        0.00      57.82       1.58       0.01       1.17       ----

> <Gold.Chemscore.Fitness>
17.8850

> <Gold.Chemscore.DG>
-19.0663

> <Gold.Chemscore.ZeroCoef>
-5.4800

> <Gold.Chemscore.Hbond>
3.2527

> <Gold.Chemscore.Metal>
0.0000

> <Gold.Chemscore.Lipo>
57.8201

> <Gold.Chemscore.Internal_Hbond>
0.0000

> <Gold.Chemscore.DEClash>
0.0141

> <Gold.Chemscore.DEInternal>
1.1672

> <Gold.Chemscore.Rot>
1.5792

> <Gold.Chemscore.Internal.Correction>
   9.000000E+99

> <Gold.Chemscore.Hbonds>
donor molecule, donor type, donor heavy atom, donor atom, acceptor molecule, acceptor atom, score
      L1  H     8    25       P1  7948  0.49
      L1  H    11    42       P1  7948  0.96
      P1  H  7997  8010       L1    20  0.35
      P1  H 10752 10765       L1     5  0.70

> <Gold.Chemscore.Hbond.Weighted>
-10.8642

> <Gold.Chemscore.Metal.Weighted>
-0.0000

> <Gold.Chemscore.Lipo.Weighted>
-6.7649

> <Gold.Chemscore.Internal_Hbond.Weighted>
0.0000

> <Gold.Chemscore.DEClash.Weighted>
0.0141

> <Gold.Chemscore.DEInternal.Weighted>
1.1672

> <Gold.Chemscore.Rot.Weighted>
4.0428

> <Gold.Chemscore.Internal.Correction.Weighted>
   9.000000E+99

> <Gold.Protein.RotatedTorsions>
[ 6907 6896 6895 6894 ] final -118.56 input  -60.11 | X-H torsion
[ 7974 7965 7964 7962 ] final   31.58 input  175.53 | X-H torsion
[ 8008 7997 7996 7995 ] final   87.17 input   59.86 | X-H torsion
[ 10167 10162 10161 10158 ] final -157.59 input  -65.29 | X-H torsion
[ 10718 10713 10712 10709 ] final  120.10 input   66.30 | X-H torsion
[ 10763 10752 10751 10750 ] final  171.59 input  -60.55 | X-H torsion
[ 11005 11000 10999 10996 ] final   46.28 input  -57.11 | X-H torsion

> <Gold.Protein.ActiveResidues>
 VAL166  LYS551  ARG553  GLY616  TRP617  ASP618  TYR619  PRO620  LYS621  CYS622 
 ASP623  PHE694  ASN695  SER759  ASP760  ASP761  ALA762  ILE779  LEU786  VAL792 
 PHE793  MET794  SER795  GLU796  ALA797  LYS798  CYS799  TRP800  GLU811  SER814 

> <Gold.Protein.RotatedAtoms>
  150.8230  133.8220  159.3130 H   0  0  0  0  0  0  0  0  0  0  0  0  # atno 6907 bound_to 6896
  151.5973  135.1048  160.0062 H   0  0  0  0  0  0  0  0  0  0  0  0  # atno 6908 bound_to 6896
  152.4317  133.7249  159.6611 H   0  0  0  0  0  0  0  0  0  0  0  0  # atno 6909 bound_to 6896
  146.1541  139.6638  142.9078 H   0  0  0  0  0  0  0  0  0  0  0  0  # atno 7974 bound_to 7965
  155.9720  140.3385  155.6584 H   0  0  0  0  0  0  0  0  0  0  0  0  # atno 8008 bound_to 7997
  155.6662  140.0721  157.2555 H   0  0  0  0  0  0  0  0  0  0  0  0  # atno 8009 bound_to 7997
  154.4169  140.1700  156.1817 H   0  0  0  0  0  0  0  0  0  0  0  0  # atno 8010 bound_to 7997
  139.6758  143.9666  152.2309 H   0  0  0  0  0  0  0  0  0  0  0  0  # atno 10167 bound_to 10162
  157.5915  131.1063  150.7988 H   0  0  0  0  0  0  0  0  0  0  0  0  # atno 10718 bound_to 10713
  154.4141  135.2756  155.2018 H   0  0  0  0  0  0  0  0  0  0  0  0  # atno 10763 bound_to 10752
  154.3991  135.6048  153.5890 H   0  0  0  0  0  0  0  0  0  0  0  0  # atno 10764 bound_to 10752
  152.9831  135.5922  154.4427 H   0  0  0  0  0  0  0  0  0  0  0  0  # atno 10765 bound_to 10752
  140.1383  134.4616  155.8469 H   0  0  0  0  0  0  0  0  0  0  0  0  # atno 11005 bound_to 11000
  145.4751  141.0437  143.2677 LP  0  0  0  0  0  0  0  0  0  0  0  0  # atno 17320 bound_to 7965
  144.7941  139.6269  143.7100 LP  0  0  0  0  0  0  0  0  0  0  0  0  # atno 17321 bound_to 7965
  139.9442  144.6662  150.8235 LP  0  0  0  0  0  0  0  0  0  0  0  0  # atno 17342 bound_to 10162
  140.7635  143.3224  151.2592 LP  0  0  0  0  0  0  0  0  0  0  0  0  # atno 17343 bound_to 10162
  156.8409  130.5048  149.5321 LP  0  0  0  0  0  0  0  0  0  0  0  0  # atno 17370 bound_to 10713
  156.0970  130.5940  150.9831 LP  0  0  0  0  0  0  0  0  0  0  0  0  # atno 17371 bound_to 10713
  141.2182  133.6823  156.7198 LP  0  0  0  0  0  0  0  0  0  0  0  0  # atno 17394 bound_to 11000
  140.2755  134.8359  157.3886 LP  0  0  0  0  0  0  0  0  0  0  0  0  # atno 17395 bound_to 11000

$$$$
