AV-unprocessed.smi:1915|AV-procd|sdf|7760|dock9
  -GOLD-   22720 9503D 1   1.00000     0.00000
 Structure written by MMmdl.
 44 45  0  0  0  0  0  0  0  0  1 V2000
  152.5626  133.8094  166.0630 C   0  0  0  0  0  0  0  0  0  0  0  0
  153.9764  133.4163  165.6010 C   0  0  0  0  0  0  0  0  0  0  0  0
  154.7183  132.6702  166.7199 C   0  0  0  0  0  0  0  0  0  0  0  0
  154.8141  134.6162  165.1047 C   0  0  0  0  0  0  0  0  0  0  0  0
  154.2557  135.2454  163.9086 N   0  0  0  0  0  0  0  0  0  0  0  0
  153.5614  136.5184  164.0056 C   0  0  0  0  0  0  0  0  0  0  0  0
  153.2643  136.9398  162.5515 C   0  0  1  0  0  0  0  0  0  0  0  0
  154.1512  138.1087  162.0944 C   0  0  0  0  0  0  0  0  0  0  0  0
  155.3757  138.0433  162.2115 O   0  0  0  0  0  0  0  0  0  0  0  0
  153.5191  139.1728  161.5808 N   0  0  0  0  0  0  0  0  0  0  0  0
  154.1822  140.3826  161.1093 C   0  0  0  0  0  0  0  0  0  0  0  0
  153.5956  141.6486  161.7577 C   0  0  0  0  0  0  0  0  0  0  0  0
  153.0559  142.6516  160.7511 C   0  0  0  0  0  0  0  0  0  0  0  0
  152.9510  142.3084  159.3864 C   0  0  0  0  0  0  0  0  0  0  0  0
  152.4580  143.2734  158.4870 C   0  0  0  0  0  0  0  0  0  0  0  0
  152.0915  144.5390  158.9841 C   0  0  0  0  0  0  0  0  0  0  0  0
  152.2351  144.7842  160.3641 C   0  0  0  0  0  0  0  0  0  0  0  0
  152.7078  143.8662  161.2348 N   0  0  0  0  0  0  0  0  0  0  0  0
  153.5154  135.6723  161.7106 C   0  0  0  0  0  0  0  0  0  0  0  0
  154.1983  134.7204  162.6789 C   0  0  0  0  0  0  0  0  0  0  0  0
  154.6369  133.6236  162.3358 O   0  0  0  0  0  0  0  0  0  0  0  0
  152.5986  134.5632  166.8499 H   0  0  0  0  0  0  0  0  0  0  0  0
  152.0239  132.9460  166.4545 H   0  0  0  0  0  0  0  0  0  0  0  0
  151.9684  134.2091  165.2413 H   0  0  0  0  0  0  0  0  0  0  0  0
  153.8655  132.7195  164.7690 H   0  0  0  0  0  0  0  0  0  0  0  0
  154.8685  133.3102  167.5901 H   0  0  0  0  0  0  0  0  0  0  0  0
  155.6981  132.3296  166.3834 H   0  0  0  0  0  0  0  0  0  0  0  0
  154.1610  131.7912  167.0452 H   0  0  0  0  0  0  0  0  0  0  0  0
  154.9149  135.3557  165.9011 H   0  0  0  0  0  0  0  0  0  0  0  0
  155.8285  134.2866  164.8755 H   0  0  0  0  0  0  0  0  0  0  0  0
  152.6348  136.3834  164.5651 H   0  0  0  0  0  0  0  0  0  0  0  0
  154.1681  137.2470  164.5463 H   0  0  0  0  0  0  0  0  0  0  0  0
  152.2170  137.2354  162.4659 H   0  0  0  0  0  0  0  0  0  0  0  0
  152.5106  139.1529  161.5283 H   0  0  0  0  0  0  0  0  0  0  0  0
  155.2495  140.3241  161.3301 H   0  0  0  0  0  0  0  0  0  0  0  0
  154.0841  140.4418  160.0247 H   0  0  0  0  0  0  0  0  0  0  0  0
  152.7935  141.3684  162.4413 H   0  0  0  0  0  0  0  0  0  0  0  0
  154.3561  142.1346  162.3709 H   0  0  0  0  0  0  0  0  0  0  0  0
  153.2434  141.3298  159.0351 H   0  0  0  0  0  0  0  0  0  0  0  0
  152.3636  143.0470  157.4354 H   0  0  0  0  0  0  0  0  0  0  0  0
  151.7093  145.3033  158.3237 H   0  0  0  0  0  0  0  0  0  0  0  0
  151.9633  145.7431  160.7801 H   0  0  0  0  0  0  0  0  0  0  0  0
  152.5766  135.2334  161.3717 H   0  0  0  0  0  0  0  0  0  0  0  0
  154.1427  135.8424  160.8339 H   0  0  0  0  0  0  0  0  0  0  0  0
  1  2  1  0  0  0  0
  1 22  1  0  0  0  0
  1 23  1  0  0  0  0
  1 24  1  0  0  0  0
  2  3  1  0  0  0  0
  2  4  1  0  0  0  0
  2 25  1  0  0  0  0
  3 26  1  0  0  0  0
  3 27  1  0  0  0  0
  3 28  1  0  0  0  0
  4  5  1  0  0  0  0
  4 29  1  0  0  0  0
  4 30  1  0  0  0  0
  5 20  1  0  0  0  0
  5  6  1  0  0  0  0
  6  7  1  0  0  0  0
  6 31  1  0  0  0  0
  6 32  1  0  0  0  0
  7  8  1  0  0  0  0
  7 19  1  0  0  0  0
  7 33  1  0  0  0  0
  8  9  2  0  0  0  0
  8 10  1  0  0  0  0
 10 11  1  0  0  0  0
 10 34  1  0  0  0  0
 11 12  1  0  0  0  0
 11 35  1  0  0  0  0
 11 36  1  0  0  0  0
 12 13  1  0  0  0  0
 12 37  1  0  0  0  0
 12 38  1  0  0  0  0
 13 18  1  0  0  0  0
 13 14  2  0  0  0  0
 14 15  1  0  0  0  0
 14 39  1  0  0  0  0
 15 16  2  0  0  0  0
 15 40  1  0  0  0  0
 16 17  1  0  0  0  0
 16 41  1  0  0  0  0
 17 18  2  0  0  0  0
 17 42  1  0  0  0  0
 19 20  1  0  0  0  0
 19 43  1  0  0  0  0
 19 44  1  0  0  0  0
 20 21  2  0  0  0  0
M  END
> <s_m_source_file>
AV-unprocessed.smi

> <i_m_source_file_index>
1915

> <i_lp_mmshare_version>
43012

> <i_f3d_flags>
0

> <s_epik_input>
W0NIM11bQ0hdKFtDSDNdKVtDSDJdTjFbQ0gyXVtDQEhdKFtDSDJdQzE9TylDKD1PKVtOSF1bQ0gyXVtDSDJdYzJbY0hdW2NIXVtjSF1bY0hdbjI=

> <s_epik_cmdline>
J2VwaWtfcHl0aG9uJywgJy1waCcsICc3LjAnLCAnLXRuJywgJzgnLCAnLW1hJywgJzIwMCcsICctbWV0YWxfYmluZGluZycsICctaW1hZScsICc8aW5maWxlLm1hZT4nLCAnLW9tYWUnLCAnPG91dGZpbGUubWFlPic=

> <r_epik_Ionization_Penalty>
0.0252359

> <r_epik_Ionization_Penalty_Charging>
0

> <r_epik_Ionization_Penalty_Neutral>
0.0252359

> <r_epik_State_Penalty>
0.020532

> <r_epik_Charging_Adjusted_Penalty>
0.020532

> <i_epik_Tot_Q>
0

> <i_epik_Tot_abs_Q>
0

> <r_epik_Metal_State_Penalty>
0.0196901

> <b_epik_Metal_Only>
0

> <s_lp_Force_Field>
OPLS_2005

> <r_lp_Energy>
14.3845

> <b_lp_Chiralities_Consistent>
1

> <s_lp_Variant>
AV-unprocessed.smi:1915-1

> <Gold.Version>
5.8.1

> <Gold.Id.Protein>
6NUR|6NUR_protein|mol2

> <Gold.PLP.Fitness>
45.8886

> <Gold.PLP.PLP>
-47.2192

> <Gold.PLP.part.hbond>
0.0000

> <Gold.PLP.part.metal>
0.0000

> <Gold.PLP.part.buried>
-4.6186

> <Gold.PLP.part.nonpolar>
-43.0866

> <Gold.PLP.part.repulsive>
0.1560

> <Gold.PLP.ligand.clash>
0.0000

> <Gold.PLP.ligand.torsion>
0.7062

> <Gold.PLP.Chemscore.Hbond>
0.0000

> <Gold.PLP.Chemscore.CHOScore>
0.0000

> <Gold.PLP.Chemscore.Metal>
0.0000

> <Gold.PLP.Chemscore.Internal.Correction>
0.0819

> <Gold.Rescore>
     Score         DG    S(hbond)    S(metal)    S(lipo)     H(rot)  DE(clash)    DE(int)     intcor
     15.90     -16.46       0.00        0.00     132.04       1.75       0.02       0.54       ----

> <Gold.Chemscore.Fitness>
15.8980

> <Gold.Chemscore.DG>
-16.4603

> <Gold.Chemscore.ZeroCoef>
-5.4800

> <Gold.Chemscore.Hbond>
0.0000

> <Gold.Chemscore.Metal>
0.0000

> <Gold.Chemscore.Lipo>
132.0430

> <Gold.Chemscore.Internal_Hbond>
0.0000

> <Gold.Chemscore.DEClash>
0.0243

> <Gold.Chemscore.DEInternal>
0.5379

> <Gold.Chemscore.Rot>
1.7456

> <Gold.Chemscore.Internal.Correction>
   9.000000E+99

> <Gold.Chemscore.Hbond.Weighted>
-0.0000

> <Gold.Chemscore.Metal.Weighted>
-0.0000

> <Gold.Chemscore.Lipo.Weighted>
-15.4490

> <Gold.Chemscore.Internal_Hbond.Weighted>
0.0000

> <Gold.Chemscore.DEClash.Weighted>
0.0243

> <Gold.Chemscore.DEInternal.Weighted>
0.5379

> <Gold.Chemscore.Rot.Weighted>
4.4688

> <Gold.Chemscore.Internal.Correction.Weighted>
   9.000000E+99

> <Gold.Protein.RotatedTorsions>
[ 6907 6896 6895 6894 ] final  131.10 input  -60.11 | X-H torsion
[ 7974 7965 7964 7962 ] final  -28.31 input  175.53 | X-H torsion
[ 8008 7997 7996 7995 ] final  -27.94 input   59.86 | X-H torsion
[ 10167 10162 10161 10158 ] final  173.86 input  -65.29 | X-H torsion
[ 10718 10713 10712 10709 ] final -126.77 input   66.30 | X-H torsion
[ 10763 10752 10751 10750 ] final  116.57 input  -60.55 | X-H torsion
[ 11005 11000 10999 10996 ] final  -55.95 input  -57.11 | X-H torsion

> <Gold.Protein.ActiveResidues>
 VAL166  LYS551  ARG553  GLY616  TRP617  ASP618  TYR619  PRO620  LYS621  CYS622 
 ASP623  PHE694  ASN695  SER759  ASP760  ASP761  ALA762  ILE779  LEU786  VAL792 
 PHE793  MET794  SER795  GLU796  ALA797  LYS798  CYS799  TRP800  GLU811  SER814 

> <Gold.Protein.RotatedAtoms>
  152.3460  133.6123  159.5910 H   0  0  0  0  0  0  0  0  0  0  0  0  # atno 6907 bound_to 6896
  150.7508  133.9649  159.3536 H   0  0  0  0  0  0  0  0  0  0  0  0  # atno 6908 bound_to 6896
  151.7507  135.0834  160.0381 H   0  0  0  0  0  0  0  0  0  0  0  0  # atno 6909 bound_to 6896
  146.1297  140.5266  142.8699 H   0  0  0  0  0  0  0  0  0  0  0  0  # atno 7974 bound_to 7965
  154.4354  140.1859  156.1011 H   0  0  0  0  0  0  0  0  0  0  0  0  # atno 8008 bound_to 7997
  156.0291  140.3332  155.7095 H   0  0  0  0  0  0  0  0  0  0  0  0  # atno 8009 bound_to 7997
  155.5865  140.0627  157.2760 H   0  0  0  0  0  0  0  0  0  0  0  0  # atno 8010 bound_to 7997
  139.5122  144.3212  152.0200 H   0  0  0  0  0  0  0  0  0  0  0  0  # atno 10167 bound_to 10162
  156.1796  130.6723  151.0287 H   0  0  0  0  0  0  0  0  0  0  0  0  # atno 10718 bound_to 10713
  153.5392  135.3562  155.2711 H   0  0  0  0  0  0  0  0  0  0  0  0  # atno 10763 bound_to 10752
  154.8719  135.4087  154.3063 H   0  0  0  0  0  0  0  0  0  0  0  0  # atno 10764 bound_to 10752
  153.3767  135.7066  153.6664 H   0  0  0  0  0  0  0  0  0  0  0  0  # atno 10765 bound_to 10752
  141.1097  133.6611  156.4546 H   0  0  0  0  0  0  0  0  0  0  0  0  # atno 11005 bound_to 11000
  144.7678  140.5569  143.6691 LP  0  0  0  0  0  0  0  0  0  0  0  0  # atno 17320 bound_to 7965
  145.5288  139.1475  143.3511 LP  0  0  0  0  0  0  0  0  0  0  0  0  # atno 17321 bound_to 7965
  140.2654  144.4022  150.6170 LP  0  0  0  0  0  0  0  0  0  0  0  0  # atno 17342 bound_to 10162
  140.6127  143.2170  151.6854 LP  0  0  0  0  0  0  0  0  0  0  0  0  # atno 17343 bound_to 10162
  157.6859  131.0825  150.7244 LP  0  0  0  0  0  0  0  0  0  0  0  0  # atno 17370 bound_to 10713
  156.7301  130.4707  149.5501 LP  0  0  0  0  0  0  0  0  0  0  0  0  # atno 17371 bound_to 10713
  140.4807  134.6667  157.5169 LP  0  0  0  0  0  0  0  0  0  0  0  0  # atno 17394 bound_to 11000
  139.9985  134.6873  155.9569 LP  0  0  0  0  0  0  0  0  0  0  0  0  # atno 17395 bound_to 11000

$$$$
