AV-unprocessed.smi:1671|AV-procd|sdf|6700|dock1
  -GOLD-   22720 7433D 1   1.00000     0.00000
 Structure written by MMmdl.
 44 45  0  0  0  0  0  0  0  0  1 V2000
  146.7717  141.7818  154.3487 C   0  0  0  0  0  0  0  0  0  0  0  0
  147.0940  141.1225  152.6901 S   0  0  0  0  0  0  0  0  0  0  0  0
  146.7693  139.3530  152.9510 C   0  0  1  0  0  0  0  0  0  0  0  0
  146.7994  138.6042  151.6093 C   0  0  0  0  0  0  0  0  0  0  0  0
  147.7503  138.7320  153.9528 C   0  0  0  0  0  0  0  0  0  0  0  0
  147.3408  138.2524  155.0107 O   0  0  0  0  0  0  0  0  0  0  0  0
  149.0468  138.7421  153.6051 N   0  0  0  0  0  0  0  0  0  0  0  0
  150.1329  138.2003  154.4151 C   0  0  0  0  0  0  0  0  0  0  0  0
  150.6191  139.1286  155.5193 C   0  0  0  0  0  0  0  0  0  0  0  0
  149.7300  139.7731  156.4049 C   0  0  0  0  0  0  0  0  0  0  0  0
  150.2512  140.6223  157.3994 C   0  0  0  0  0  0  0  0  0  0  0  0
  151.6515  140.8096  157.4847 C   0  0  0  0  0  0  0  0  0  0  0  0
  152.1975  141.6531  158.4767 N   0  0  0  0  0  0  0  0  0  0  0  0
  152.4718  141.0772  159.7918 C   0  0  0  0  0  0  0  0  0  0  0  0
  153.3231  142.0427  160.6320 C   0  0  0  0  0  0  0  0  0  0  0  0
  152.6776  143.3095  160.7066 O   0  0  0  0  0  0  0  0  0  0  0  0
  152.5202  143.9080  159.4231 C   0  0  2  0  0  0  0  0  0  0  0  0
  151.9051  145.2983  159.6130 C   0  0  0  0  0  0  0  0  0  0  0  0
  151.6386  143.0012  158.5422 C   0  0  0  0  0  0  0  0  0  0  0  0
  152.5008  140.1996  156.6214 N   0  0  0  0  0  0  0  0  0  0  0  0
  151.9960  139.3857  155.6708 C   0  0  0  0  0  0  0  0  0  0  0  0
  146.8625  142.8677  154.3422 H   0  0  0  0  0  0  0  0  0  0  0  0
  147.4861  141.3835  155.0690 H   0  0  0  0  0  0  0  0  0  0  0  0
  145.7645  141.5220  154.6741 H   0  0  0  0  0  0  0  0  0  0  0  0
  145.7582  139.2659  153.3522 H   0  0  0  0  0  0  0  0  0  0  0  0
  146.6150  137.5378  151.7447 H   0  0  0  0  0  0  0  0  0  0  0  0
  147.7619  138.7158  151.1086 H   0  0  0  0  0  0  0  0  0  0  0  0
  146.0322  138.9851  150.9348 H   0  0  0  0  0  0  0  0  0  0  0  0
  149.2984  139.1522  152.7174 H   0  0  0  0  0  0  0  0  0  0  0  0
  149.8274  137.2442  154.8440 H   0  0  0  0  0  0  0  0  0  0  0  0
  150.9737  137.9865  153.7550 H   0  0  0  0  0  0  0  0  0  0  0  0
  148.6626  139.6275  156.3280 H   0  0  0  0  0  0  0  0  0  0  0  0
  149.5733  141.1281  158.0703 H   0  0  0  0  0  0  0  0  0  0  0  0
  151.5287  140.8727  160.3006 H   0  0  0  0  0  0  0  0  0  0  0  0
  153.0000  140.1286  159.6876 H   0  0  0  0  0  0  0  0  0  0  0  0
  153.4511  141.6496  161.6404 H   0  0  0  0  0  0  0  0  0  0  0  0
  154.3211  142.1544  160.2050 H   0  0  0  0  0  0  0  0  0  0  0  0
  153.5021  144.0244  158.9604 H   0  0  0  0  0  0  0  0  0  0  0  0
  151.7740  145.8032  158.6556 H   0  0  0  0  0  0  0  0  0  0  0  0
  152.5447  145.9256  160.2344 H   0  0  0  0  0  0  0  0  0  0  0  0
  150.9293  145.2358  160.0956 H   0  0  0  0  0  0  0  0  0  0  0  0
  151.5490  143.4480  157.5532 H   0  0  0  0  0  0  0  0  0  0  0  0
  150.6302  142.9414  158.9544 H   0  0  0  0  0  0  0  0  0  0  0  0
  152.7166  138.9243  155.0118 H   0  0  0  0  0  0  0  0  0  0  0  0
  1  2  1  0  0  0  0
  1 22  1  0  0  0  0
  1 23  1  0  0  0  0
  1 24  1  0  0  0  0
  2  3  1  0  0  0  0
  3  4  1  0  0  0  0
  3  5  1  0  0  0  0
  3 25  1  0  0  0  0
  4 26  1  0  0  0  0
  4 27  1  0  0  0  0
  4 28  1  0  0  0  0
  5  6  2  0  0  0  0
  5  7  1  0  0  0  0
  7  8  1  0  0  0  0
  7 29  1  0  0  0  0
  8  9  1  0  0  0  0
  8 30  1  0  0  0  0
  8 31  1  0  0  0  0
  9 21  1  0  0  0  0
  9 10  2  0  0  0  0
 10 11  1  0  0  0  0
 10 32  1  0  0  0  0
 11 12  2  0  0  0  0
 11 33  1  0  0  0  0
 12 13  1  0  0  0  0
 12 20  1  0  0  0  0
 13 19  1  0  0  0  0
 13 14  1  0  0  0  0
 14 15  1  0  0  0  0
 14 34  1  0  0  0  0
 14 35  1  0  0  0  0
 15 16  1  0  0  0  0
 15 36  1  0  0  0  0
 15 37  1  0  0  0  0
 16 17  1  0  0  0  0
 17 18  1  0  0  0  0
 17 19  1  0  0  0  0
 17 38  1  0  0  0  0
 18 39  1  0  0  0  0
 18 40  1  0  0  0  0
 18 41  1  0  0  0  0
 19 42  1  0  0  0  0
 19 43  1  0  0  0  0
 20 21  2  0  0  0  0
 21 44  1  0  0  0  0
M  END
> <s_m_source_file>
AV-unprocessed.smi

> <i_m_source_file_index>
1671

> <i_lp_mmshare_version>
43012

> <i_f3d_flags>
0

> <s_epik_input>
W0NIM11TW0NASF0oW0NIM10pQyg9TylbTkhdW0NIMl1jMVtjSF1bY0hdYyhuW2NIXTEpTjJbQ0gyXVtDSDJdT1tDQEBIXShbQ0gzXSlbQ0gyXTI=

> <s_epik_cmdline>
J2VwaWtfcHl0aG9uJywgJy1waCcsICc3LjAnLCAnLXRuJywgJzgnLCAnLW1hJywgJzIwMCcsICctbWV0YWxfYmluZGluZycsICctaW1hZScsICc8aW5maWxlLm1hZT4nLCAnLW9tYWUnLCAnPG91dGZpbGUubWFlPic=

> <r_lp_tautomer_probability>
1

> <r_epik_Ionization_Penalty>
0.00480033

> <r_epik_Ionization_Penalty_Charging>
0

> <r_epik_Ionization_Penalty_Neutral>
0.00480033

> <r_epik_State_Penalty>
0.00347981

> <r_epik_Charging_Adjusted_Penalty>
0.00347981

> <i_epik_Tot_Q>
0

> <i_epik_Tot_abs_Q>
0

> <r_epik_Metal_State_Penalty>
-0

> <b_epik_Metal_Only>
0

> <s_lp_Force_Field>
OPLS_2005

> <r_lp_Energy>
15.0592

> <b_lp_Chiralities_Consistent>
1

> <s_lp_Variant>
AV-unprocessed.smi:1671-4

> <Gold.Version>
5.8.1

> <Gold.Id.Protein>
6NUR|6NUR_protein|mol2

> <Gold.PLP.Fitness>
46.4570

> <Gold.PLP.PLP>
-41.4429

> <Gold.PLP.part.hbond>
-2.9931

> <Gold.PLP.part.metal>
0.0000

> <Gold.PLP.part.buried>
-1.4861

> <Gold.PLP.part.nonpolar>
-36.6999

> <Gold.PLP.part.repulsive>
0.1628

> <Gold.PLP.ligand.clash>
0.0000

> <Gold.PLP.ligand.torsion>
0.6987

> <Gold.PLP.Chemscore.Hbond>
2.0000

> <Gold.PLP.Chemscore.CHOScore>
0.0000

> <Gold.PLP.Chemscore.Metal>
0.0000

> <Gold.Chemscore.Hbonds>
donor molecule, donor type, donor heavy atom, donor atom, acceptor molecule, acceptor atom, score
      L1  H     7    29       P1  7957  1.00
      P1  H  7997  8010       L1    20  1.00

> <Gold.PLP.Chemscore.Internal.Correction>
0.4115

> <Gold.Rescore>
     Score         DG    S(hbond)    S(metal)    S(lipo)     H(rot)  DE(clash)    DE(int)     intcor
     20.20     -21.35       1.95        0.00     115.48       1.63       0.41       0.74       ----

> <Gold.Chemscore.Fitness>
20.2003

> <Gold.Chemscore.DG>
-21.3508

> <Gold.Chemscore.ZeroCoef>
-5.4800

> <Gold.Chemscore.Hbond>
1.9538

> <Gold.Chemscore.Metal>
0.0000

> <Gold.Chemscore.Lipo>
115.4769

> <Gold.Chemscore.Internal_Hbond>
0.0000

> <Gold.Chemscore.DEClash>
0.4150

> <Gold.Chemscore.DEInternal>
0.7355

> <Gold.Chemscore.Rot>
1.6272

> <Gold.Chemscore.Internal.Correction>
   9.000000E+99

> <Gold.Chemscore.Hbonds>
donor molecule, donor type, donor heavy atom, donor atom, acceptor molecule, acceptor atom, score
      L1  H     7    29       P1  7957  1.00
      P1  H  7997  8010       L1    20  0.49

> <Gold.Chemscore.Hbond.Weighted>
-6.5257

> <Gold.Chemscore.Metal.Weighted>
-0.0000

> <Gold.Chemscore.Lipo.Weighted>
-13.5108

> <Gold.Chemscore.Internal_Hbond.Weighted>
0.0000

> <Gold.Chemscore.DEClash.Weighted>
0.4150

> <Gold.Chemscore.DEInternal.Weighted>
0.7355

> <Gold.Chemscore.Rot.Weighted>
4.1657

> <Gold.Chemscore.Internal.Correction.Weighted>
   9.000000E+99

> <Gold.Protein.RotatedTorsions>
[ 6907 6896 6895 6894 ] final  127.66 input  -60.11 | X-H torsion
[ 7974 7965 7964 7962 ] final   24.72 input  175.53 | X-H torsion
[ 8008 7997 7996 7995 ] final   75.81 input   59.86 | X-H torsion
[ 10167 10162 10161 10158 ] final -160.12 input  -65.29 | X-H torsion
[ 10718 10713 10712 10709 ] final   31.78 input   66.30 | X-H torsion
[ 10763 10752 10751 10750 ] final   39.76 input  -60.55 | X-H torsion
[ 11005 11000 10999 10996 ] final   96.42 input  -57.11 | X-H torsion

> <Gold.Protein.ActiveResidues>
 VAL166  LYS551  ARG553  GLY616  TRP617  ASP618  TYR619  PRO620  LYS621  CYS622 
 ASP623  PHE694  ASN695  SER759  ASP760  ASP761  ALA762  ILE779  LEU786  VAL792 
 PHE793  MET794  SER795  GLU796  ALA797  LYS798  CYS799  TRP800  GLU811  SER814 

> <Gold.Protein.RotatedAtoms>
  152.3792  133.6523  159.6147 H   0  0  0  0  0  0  0  0  0  0  0  0  # atno 6907 bound_to 6896
  150.7728  133.9142  159.3387 H   0  0  0  0  0  0  0  0  0  0  0  0  # atno 6908 bound_to 6896
  151.6951  135.0941  160.0292 H   0  0  0  0  0  0  0  0  0  0  0  0  # atno 6909 bound_to 6896
  146.1924  139.7566  142.8822 H   0  0  0  0  0  0  0  0  0  0  0  0  # atno 7974 bound_to 7965
  155.8183  140.3471  155.5498 H   0  0  0  0  0  0  0  0  0  0  0  0  # atno 8008 bound_to 7997
  155.8369  140.0935  157.1778 H   0  0  0  0  0  0  0  0  0  0  0  0  # atno 8009 bound_to 7997
  154.4004  140.1401  156.3669 H   0  0  0  0  0  0  0  0  0  0  0  0  # atno 8010 bound_to 7997
  139.6563  143.9992  152.2196 H   0  0  0  0  0  0  0  0  0  0  0  0  # atno 10167 bound_to 10162
  157.2769  130.7235  149.6535 H   0  0  0  0  0  0  0  0  0  0  0  0  # atno 10718 bound_to 10713
  152.9957  135.6211  154.2517 H   0  0  0  0  0  0  0  0  0  0  0  0  # atno 10763 bound_to 10752
  154.2255  135.2794  155.2911 H   0  0  0  0  0  0  0  0  0  0  0  0  # atno 10764 bound_to 10752
  154.5493  135.5738  153.6966 H   0  0  0  0  0  0  0  0  0  0  0  0  # atno 10765 bound_to 10752
  139.8782  134.8950  156.4156 H   0  0  0  0  0  0  0  0  0  0  0  0  # atno 11005 bound_to 11000
  145.3751  141.0349  143.3209 LP  0  0  0  0  0  0  0  0  0  0  0  0  # atno 17320 bound_to 7965
  144.8512  139.5318  143.6855 LP  0  0  0  0  0  0  0  0  0  0  0  0  # atno 17321 bound_to 7965
  139.9720  144.6487  150.7980 LP  0  0  0  0  0  0  0  0  0  0  0  0  # atno 17342 bound_to 10162
  140.7560  143.3058  151.2965 LP  0  0  0  0  0  0  0  0  0  0  0  0  # atno 17343 bound_to 10162
  155.9664  130.4350  150.5074 LP  0  0  0  0  0  0  0  0  0  0  0  0  # atno 17370 bound_to 10713
  157.3010  131.0645  151.2068 LP  0  0  0  0  0  0  0  0  0  0  0  0  # atno 17371 bound_to 10713
  140.9170  133.7672  155.9860 LP  0  0  0  0  0  0  0  0  0  0  0  0  # atno 17394 bound_to 11000
  140.8483  134.2985  157.5286 LP  0  0  0  0  0  0  0  0  0  0  0  0  # atno 17395 bound_to 11000

$$$$
