AV-unprocessed.smi:1653|AV-procd|sdf|6641|dock1
  -GOLD-   22720 7343D 1   1.00000     0.00000
 Structure written by MMmdl.
 41 42  0  0  0  0  0  0  0  0  3 V2000
  145.1158  135.7972  155.8386 N   0  0  0  0  0  0  0  0  0  0  0  0
  145.3156  135.4665  154.7478 C   0  0  0  0  0  0  0  0  0  0  0  0
  145.5693  135.0442  153.3562 C   0  0  0  0  0  0  0  0  0  0  0  0
  146.8881  134.4081  153.2580 N   0  0  0  0  0  0  0  0  0  0  0  0
  147.2507  133.2095  153.7435 C   0  0  0  0  0  0  0  0  0  0  0  0
  146.4802  132.4566  154.3392 O   0  0  0  0  0  0  0  0  0  0  0  0
  148.7069  132.7963  153.4899 C   0  0  0  0  0  0  0  0  0  0  0  0
  149.6098  133.1559  154.5967 N   0  0  0  0  0  0  0  0  0  0  0  0
  149.8114  134.5280  154.8361 C   0  0  0  0  0  0  0  0  0  0  0  0
  150.6179  134.9656  155.8134 C   0  0  0  0  0  0  0  0  0  0  0  0
  151.2859  133.9875  156.6368 C   0  0  0  0  0  0  0  0  0  0  0  0
  151.1093  132.6630  156.4243 C   0  0  0  0  0  0  0  0  0  0  0  0
  151.8029  131.7370  157.2897 N   0  3  0  0  0  0  0  0  0  0  0  0
  151.6723  130.5324  157.0949 O   0  0  0  0  0  0  0  0  0  0  0  0
  152.4895  132.1889  158.2011 O   0  5  0  0  0  0  0  0  0  0  0  0
  150.2293  132.1850  155.3378 C   0  0  0  0  0  0  0  0  0  0  0  0
  150.0574  130.9892  155.0929 O   0  0  0  0  0  0  0  0  0  0  0  0
  144.4341  134.0767  152.9190 C   0  0  0  0  0  0  0  0  0  0  0  0
  144.6356  133.3759  151.5587 C   0  0  0  0  0  0  0  0  0  0  0  0
  144.1512  134.1588  150.3261 C   0  0  0  0  0  0  0  0  0  0  0  0
  144.4040  135.6760  150.3270 C   0  0  0  0  0  0  0  0  0  0  0  0
  145.7223  136.1280  150.9745 C   0  0  0  0  0  0  0  0  0  0  0  0
  145.5978  136.3277  152.4974 C   0  0  0  0  0  0  0  0  0  0  0  0
  147.5986  134.9425  152.7795 H   0  0  0  0  0  0  0  0  0  0  0  0
  148.7261  131.7203  153.3115 H   0  0  0  0  0  0  0  0  0  0  0  0
  149.0602  133.2449  152.5592 H   0  0  0  0  0  0  0  0  0  0  0  0
  149.2807  135.1953  154.1724 H   0  0  0  0  0  0  0  0  0  0  0  0
  150.7653  136.0227  155.9790 H   0  0  0  0  0  0  0  0  0  0  0  0
  151.9259  134.3313  157.4365 H   0  0  0  0  0  0  0  0  0  0  0  0
  144.3413  133.2984  153.6772 H   0  0  0  0  0  0  0  0  0  0  0  0
  143.4731  134.5927  152.9311 H   0  0  0  0  0  0  0  0  0  0  0  0
  145.6787  133.0950  151.4208 H   0  0  0  0  0  0  0  0  0  0  0  0
  144.0965  132.4282  151.5754 H   0  0  0  0  0  0  0  0  0  0  0  0
  144.6202  133.7210  149.4442 H   0  0  0  0  0  0  0  0  0  0  0  0
  143.0810  133.9947  150.1961 H   0  0  0  0  0  0  0  0  0  0  0  0
  144.3814  136.0192  149.2920 H   0  0  0  0  0  0  0  0  0  0  0  0
  143.5694  136.1833  150.8125 H   0  0  0  0  0  0  0  0  0  0  0  0
  146.5397  135.4531  150.7192 H   0  0  0  0  0  0  0  0  0  0  0  0
  145.9906  137.0916  150.5401 H   0  0  0  0  0  0  0  0  0  0  0  0
  144.7090  136.9252  152.7060 H   0  0  0  0  0  0  0  0  0  0  0  0
  146.4349  136.9438  152.8297 H   0  0  0  0  0  0  0  0  0  0  0  0
  1  2  3  0  0  0  0
  2  3  1  0  0  0  0
  3 23  1  0  0  0  0
  3  4  1  0  0  0  0
  3 18  1  0  0  0  0
  4  5  1  0  0  0  0
  4 24  1  0  0  0  0
  5  6  2  0  0  0  0
  5  7  1  0  0  0  0
  7  8  1  0  0  0  0
  7 25  1  0  0  0  0
  7 26  1  0  0  0  0
  8 16  1  0  0  0  0
  8  9  1  0  0  0  0
  9 10  2  0  0  0  0
  9 27  1  0  0  0  0
 10 11  1  0  0  0  0
 10 28  1  0  0  0  0
 11 12  2  0  0  0  0
 11 29  1  0  0  0  0
 12 13  1  0  0  0  0
 12 16  1  0  0  0  0
 13 14  2  0  0  0  0
 13 15  1  0  0  0  0
 16 17  2  0  0  0  0
 18 19  1  0  0  0  0
 18 30  1  0  0  0  0
 18 31  1  0  0  0  0
 19 20  1  0  0  0  0
 19 32  1  0  0  0  0
 19 33  1  0  0  0  0
 20 21  1  0  0  0  0
 20 34  1  0  0  0  0
 20 35  1  0  0  0  0
 21 22  1  0  0  0  0
 21 36  1  0  0  0  0
 21 37  1  0  0  0  0
 22 23  1  0  0  0  0
 22 38  1  0  0  0  0
 22 39  1  0  0  0  0
 23 40  1  0  0  0  0
 23 41  1  0  0  0  0
M  CHG  1  13   1
M  CHG  1  15  -1
M  END
> <s_m_source_file>
AV-unprocessed.smi

> <i_m_source_file_index>
1653

> <i_lp_mmshare_version>
43012

> <i_f3d_flags>
0

> <s_epik_input>
W0NIMl0xW0NIMl1bQ0gyXVtDSDJdW0NIMl1bQ0gyXUMxKEMjTilbTkhdQyg9TylbQ0gyXW4yW2NIXVtjSF1bY0hdYyhbTitdKD1PKVtPLV0pYzI9Tw==

> <s_epik_cmdline>
J2VwaWtfcHl0aG9uJywgJy1waCcsICc3LjAnLCAnLXRuJywgJzgnLCAnLW1hJywgJzIwMCcsICctbWV0YWxfYmluZGluZycsICctaW1hZScsICc8aW5maWxlLm1hZT4nLCAnLW9tYWUnLCAnPG91dGZpbGUubWFlPic=

> <r_lp_tautomer_probability>
1

> <r_epik_Ionization_Penalty>
4.51252e-07

> <r_epik_Ionization_Penalty_Charging>
1.09758e-10

> <r_epik_Ionization_Penalty_Neutral>
4.51142e-07

> <r_epik_State_Penalty>
-0

> <r_epik_Charging_Adjusted_Penalty>
1.09758e-10

> <i_epik_Tot_Q>
0

> <i_epik_Tot_abs_Q>
2

> <r_epik_Metal_State_Penalty>
-0

> <b_epik_Metal_Only>
0

> <s_lp_Force_Field>
OPLS_2005

> <r_lp_Energy>
31.6459

> <b_lp_Chiralities_Consistent>
1

> <s_lp_Variant>
AV-unprocessed.smi:1653-1

> <Gold.Version>
5.8.1

> <Gold.Id.Protein>
6NUR|6NUR_protein|mol2

> <Gold.PLP.Fitness>
41.1091

> <Gold.PLP.PLP>
-33.1769

> <Gold.PLP.part.hbond>
-1.9509

> <Gold.PLP.part.metal>
0.0000

> <Gold.PLP.part.buried>
-2.4861

> <Gold.PLP.part.nonpolar>
-27.5828

> <Gold.PLP.part.repulsive>
0.1562

> <Gold.PLP.ligand.clash>
0.0000

> <Gold.PLP.ligand.torsion>
0.5290

> <Gold.PLP.Chemscore.Hbond>
1.9913

> <Gold.PLP.Chemscore.CHOScore>
1.0000

> <Gold.PLP.Chemscore.Metal>
0.0000

> <Gold.Chemscore.Hbonds>
donor molecule, donor type, donor heavy atom, donor atom, acceptor molecule, acceptor atom, score
      L1  H     4    24       P1  7948  0.94
      P1  H  6896  6908       L1    15  1.00
      L1  C     9    27       P1  7948  1.00

> <Gold.PLP.Chemscore.Internal.Correction>
0.0164

> <Gold.Rescore>
     Score         DG    S(hbond)    S(metal)    S(lipo)     H(rot)  DE(clash)    DE(int)     intcor
     11.78     -14.93       1.73        0.00      67.09       1.63       0.19       2.96       ----

> <Gold.Chemscore.Fitness>
11.7790

> <Gold.Chemscore.DG>
-14.9324

> <Gold.Chemscore.ZeroCoef>
-5.4800

> <Gold.Chemscore.Hbond>
1.7281

> <Gold.Chemscore.Metal>
0.0000

> <Gold.Chemscore.Lipo>
67.0932

> <Gold.Chemscore.Internal_Hbond>
0.0000

> <Gold.Chemscore.DEClash>
0.1917

> <Gold.Chemscore.DEInternal>
2.9617

> <Gold.Chemscore.Rot>
1.6287

> <Gold.Chemscore.Internal.Correction>
   9.000000E+99

> <Gold.Chemscore.Hbonds>
donor molecule, donor type, donor heavy atom, donor atom, acceptor molecule, acceptor atom, score
      L1  H     4    24       P1  7948  0.89
      P1  H  6896  6908       L1    15  1.00

> <Gold.Chemscore.Hbond.Weighted>
-5.7719

> <Gold.Chemscore.Metal.Weighted>
-0.0000

> <Gold.Chemscore.Lipo.Weighted>
-7.8499

> <Gold.Chemscore.Internal_Hbond.Weighted>
0.0000

> <Gold.Chemscore.DEClash.Weighted>
0.1917

> <Gold.Chemscore.DEInternal.Weighted>
2.9617

> <Gold.Chemscore.Rot.Weighted>
4.1694

> <Gold.Chemscore.Internal.Correction.Weighted>
   9.000000E+99

> <Gold.Protein.RotatedTorsions>
[ 6907 6896 6895 6894 ] final   43.78 input  -60.11 | X-H torsion
[ 7974 7965 7964 7962 ] final   78.69 input  175.53 | X-H torsion
[ 8008 7997 7996 7995 ] final   33.07 input   59.86 | X-H torsion
[ 10167 10162 10161 10158 ] final  -76.13 input  -65.29 | X-H torsion
[ 10718 10713 10712 10709 ] final   47.37 input   66.30 | X-H torsion
[ 10763 10752 10751 10750 ] final -130.54 input  -60.55 | X-H torsion
[ 11005 11000 10999 10996 ] final   90.56 input  -57.11 | X-H torsion

> <Gold.Protein.ActiveResidues>
 VAL166  LYS551  ARG553  GLY616  TRP617  ASP618  TYR619  PRO620  LYS621  CYS622 
 ASP623  PHE694  ASN695  SER759  ASP760  ASP761  ALA762  ILE779  LEU786  VAL792 
 PHE793  MET794  SER795  GLU796  ALA797  LYS798  CYS799  TRP800  GLU811  SER814 

> <Gold.Protein.RotatedAtoms>
  152.2245  134.8381  160.0481 H   0  0  0  0  0  0  0  0  0  0  0  0  # atno 6907 bound_to 6896
  151.9152  133.3566  159.3886 H   0  0  0  0  0  0  0  0  0  0  0  0  # atno 6908 bound_to 6896
  150.7009  134.4616  159.5427 H   0  0  0  0  0  0  0  0  0  0  0  0  # atno 6909 bound_to 6896
  145.6739  139.2504  143.1852 H   0  0  0  0  0  0  0  0  0  0  0  0  # atno 7974 bound_to 7965
  155.1327  140.3259  155.4470 H   0  0  0  0  0  0  0  0  0  0  0  0  # atno 8008 bound_to 7997
  156.2629  140.2007  156.6395 H   0  0  0  0  0  0  0  0  0  0  0  0  # atno 8009 bound_to 7997
  154.6600  140.0548  157.0039 H   0  0  0  0  0  0  0  0  0  0  0  0  # atno 8010 bound_to 7997
  140.4884  143.2386  151.7947 H   0  0  0  0  0  0  0  0  0  0  0  0  # atno 10167 bound_to 10162
  157.4578  130.8178  149.7855 H   0  0  0  0  0  0  0  0  0  0  0  0  # atno 10718 bound_to 10713
  154.8755  135.3859  154.4099 H   0  0  0  0  0  0  0  0  0  0  0  0  # atno 10763 bound_to 10752
  153.4814  135.7030  153.5941 H   0  0  0  0  0  0  0  0  0  0  0  0  # atno 10764 bound_to 10752
  153.4355  135.3868  155.2164 H   0  0  0  0  0  0  0  0  0  0  0  0  # atno 10765 bound_to 10752
  139.8854  134.8621  156.3302 H   0  0  0  0  0  0  0  0  0  0  0  0  # atno 11005 bound_to 11000
  146.1022  140.7530  142.9544 LP  0  0  0  0  0  0  0  0  0  0  0  0  # atno 17320 bound_to 7965
  144.7048  140.3805  143.7127 LP  0  0  0  0  0  0  0  0  0  0  0  0  # atno 17321 bound_to 7965
  139.4846  144.4682  151.9458 LP  0  0  0  0  0  0  0  0  0  0  0  0  # atno 17342 bound_to 10162
  140.3768  144.2786  150.5913 LP  0  0  0  0  0  0  0  0  0  0  0  0  # atno 17343 bound_to 10162
  156.0015  130.3878  150.2588 LP  0  0  0  0  0  0  0  0  0  0  0  0  # atno 17370 bound_to 10713
  157.0764  131.0131  151.3172 LP  0  0  0  0  0  0  0  0  0  0  0  0  # atno 17371 bound_to 10713
  140.9728  133.7317  156.0558 LP  0  0  0  0  0  0  0  0  0  0  0  0  # atno 17394 bound_to 11000
  140.7849  134.3683  157.5478 LP  0  0  0  0  0  0  0  0  0  0  0  0  # atno 17395 bound_to 11000

$$$$
