AV-unprocessed.smi:1406|AV-procd|sdf|5716|dock6
  -GOLD-   22720 5353D 1   1.00000     0.00000
 Structure written by MMmdl.
 41 43  0  0  0  0  0  0  0  0  2 V2000
  150.6509  141.5193  155.9803 C   0  0  0  0  0  0  0  0  0  0  0  0
  150.0008  140.1756  155.5927 C   0  0  1  0  0  0  0  0  0  0  0  0
  148.8824  140.3329  154.5500 C   0  0  0  0  0  0  0  0  0  0  0  0
  148.8389  141.3199  153.8150 O   0  0  0  0  0  0  0  0  0  0  0  0
  147.9721  139.3465  154.5020 N   0  0  0  0  0  0  0  0  0  0  0  0
  146.8509  139.2776  153.5669 C   0  0  1  0  0  0  0  0  0  0  0  0
  147.2334  139.7048  152.1371 C   0  0  0  0  0  0  0  0  0  0  0  0
  146.4824  138.7260  151.2286 C   0  0  0  0  0  0  0  0  0  0  0  0
  146.4819  137.4863  152.0138 N   0  3  2  0  0  0  0  0  0  0  0  0
  145.6315  136.3646  151.5667 C   0  0  0  0  0  0  0  0  0  0  0  0
  145.9555  135.1318  152.4381 C   0  0  0  0  0  0  0  0  0  0  0  0
  145.8654  135.4422  153.9499 C   0  0  0  0  0  0  0  0  0  0  0  0
  146.6707  136.7047  154.3279 C   0  0  0  0  0  0  0  0  0  0  0  0
  146.2354  137.8657  153.4159 C   0  0  1  0  0  0  0  0  0  0  0  0
  150.9851  139.2022  155.1361 N   0  0  0  0  0  0  0  0  0  0  0  0
  150.8254  137.9305  154.7632 C   0  0  0  0  0  0  0  0  0  0  0  0
  151.9424  137.3432  154.3578 N   0  0  0  0  0  0  0  0  0  0  0  0
  152.8148  138.3835  154.5088 C   0  0  0  0  0  0  0  0  0  0  0  0
  152.2915  139.5229  154.9611 N   0  0  0  0  0  0  0  0  0  0  0  0
  149.9092  142.2162  156.3724 H   0  0  0  0  0  0  0  0  0  0  0  0
  151.1391  141.9997  155.1311 H   0  0  0  0  0  0  0  0  0  0  0  0
  151.4046  141.3758  156.7550 H   0  0  0  0  0  0  0  0  0  0  0  0
  149.5434  139.7686  156.4960 H   0  0  0  0  0  0  0  0  0  0  0  0
  148.0806  138.5739  155.1432 H   0  0  0  0  0  0  0  0  0  0  0  0
  146.0666  139.9543  153.9128 H   0  0  0  0  0  0  0  0  0  0  0  0
  146.9829  140.7452  151.9273 H   0  0  0  0  0  0  0  0  0  0  0  0
  148.3072  139.5874  151.9809 H   0  0  0  0  0  0  0  0  0  0  0  0
  145.4566  139.0608  151.0660 H   0  0  0  0  0  0  0  0  0  0  0  0
  146.9641  138.5959  150.2591 H   0  0  0  0  0  0  0  0  0  0  0  0
  144.5775  136.6346  151.6483 H   0  0  0  0  0  0  0  0  0  0  0  0
  145.8307  136.1464  150.5169 H   0  0  0  0  0  0  0  0  0  0  0  0
  145.2866  134.3087  152.1848 H   0  0  0  0  0  0  0  0  0  0  0  0
  146.9644  134.7871  152.2073 H   0  0  0  0  0  0  0  0  0  0  0  0
  144.8195  135.5891  154.2225 H   0  0  0  0  0  0  0  0  0  0  0  0
  146.2149  134.5872  154.5294 H   0  0  0  0  0  0  0  0  0  0  0  0
  146.4948  136.9516  155.3751 H   0  0  0  0  0  0  0  0  0  0  0  0
  147.7395  136.5150  154.2193 H   0  0  0  0  0  0  0  0  0  0  0  0
  145.1570  137.9928  153.5347 H   0  0  0  0  0  0  0  0  0  0  0  0
  149.8713  137.4246  154.7845 H   0  0  0  0  0  0  0  0  0  0  0  0
  153.8652  138.3008  154.2715 H   0  0  0  0  0  0  0  0  0  0  0  0
  147.4340  137.1509  151.9810 H   0  0  0  0  0  0  0  0  0  0  0  0
  1  2  1  0  0  0  0
  1 20  1  0  0  0  0
  1 21  1  0  0  0  0
  1 22  1  0  0  0  0
  2  3  1  0  0  0  0
  2 15  1  0  0  0  0
  2 23  1  0  0  0  0
  3  4  2  0  0  0  0
  3  5  1  0  0  0  0
  5  6  1  0  0  0  0
  5 24  1  0  0  0  0
  6 14  1  0  0  0  0
  6  7  1  0  0  0  0
  6 25  1  0  0  0  0
  7  8  1  0  0  0  0
  7 26  1  0  0  0  0
  7 27  1  0  0  0  0
  8  9  1  0  0  0  0
  8 28  1  0  0  0  0
  8 29  1  0  0  0  0
  9 14  1  0  0  0  0
  9 10  1  0  0  0  0
  9 41  1  0  0  0  0
 10 11  1  0  0  0  0
 10 30  1  0  0  0  0
 10 31  1  0  0  0  0
 11 12  1  0  0  0  0
 11 32  1  0  0  0  0
 11 33  1  0  0  0  0
 12 13  1  0  0  0  0
 12 34  1  0  0  0  0
 12 35  1  0  0  0  0
 13 14  1  0  0  0  0
 13 36  1  0  0  0  0
 13 37  1  0  0  0  0
 14 38  1  0  0  0  0
 15 19  1  0  0  0  0
 15 16  1  0  0  0  0
 16 17  2  0  0  0  0
 16 39  1  0  0  0  0
 17 18  1  0  0  0  0
 18 19  2  0  0  0  0
 18 40  1  0  0  0  0
M  CHG  1   9   1
M  END
> <s_m_source_file>
AV-unprocessed.smi

> <i_m_source_file_index>
1406

> <i_lp_mmshare_version>
43012

> <i_f3d_flags>
0

> <s_epik_input>
bjFbY0hdbltjSF1uMVtDQEhdKFtDSDNdKUMoPU8pW05IXVtDQEhdKFtDSDJdW0NIMl0yKVtDQEBIXShOMjMpW0NIMl1bQ0gyXVtDSDJdW0NIMl0z

> <s_epik_cmdline>
J2VwaWtfcHl0aG9uJywgJy1waCcsICc3LjAnLCAnLXRuJywgJzgnLCAnLW1hJywgJzIwMCcsICctbWV0YWxfYmluZGluZycsICctaW1hZScsICc8aW5maWxlLm1hZT4nLCAnLW9tYWUnLCAnPG91dGZpbGUubWFlPic=

> <r_lp_tautomer_probability>
1

> <r_epik_Ionization_Penalty>
0.00197066

> <r_epik_Ionization_Penalty_Charging>
0.00196223

> <r_epik_Ionization_Penalty_Neutral>
8.43107e-06

> <r_epik_State_Penalty>
0.00133866

> <r_epik_Charging_Adjusted_Penalty>
0.00330089

> <i_epik_Tot_Q>
1

> <i_epik_Tot_abs_Q>
1

> <r_epik_Metal_State_Penalty>
-0

> <b_epik_Metal_Only>
0

> <s_lp_Force_Field>
OPLS_2005

> <r_lp_Energy>
47.4686

> <b_lp_Chiralities_Consistent>
1

> <s_lp_Variant>
AV-unprocessed.smi:1406-8

> <Gold.Version>
5.8.1

> <Gold.Id.Protein>
6NUR|6NUR_protein|mol2

> <Gold.PLP.Fitness>
42.4773

> <Gold.PLP.PLP>
-31.8324

> <Gold.PLP.part.hbond>
-4.0243

> <Gold.PLP.part.metal>
0.0000

> <Gold.PLP.part.buried>
-0.2855

> <Gold.PLP.part.nonpolar>
-29.5365

> <Gold.PLP.part.repulsive>
1.2508

> <Gold.PLP.ligand.clash>
0.0000

> <Gold.PLP.ligand.torsion>
0.8167

> <Gold.PLP.Chemscore.Hbond>
4.0608

> <Gold.PLP.Chemscore.CHOScore>
0.0000

> <Gold.PLP.Chemscore.Metal>
0.0000

> <Gold.Chemscore.Hbonds>
donor molecule, donor type, donor heavy atom, donor atom, acceptor molecule, acceptor atom, score
      L1  H     9    41       P1  7948  2.00
      P1  H  7989  7998       L1    19  0.27
      P1  H  8011  8017       L1     4  0.72
      P1  H 10752 10765       L1    17  0.93

> <Gold.PLP.Chemscore.Internal.Correction>
0.0961

> <Gold.Rescore>
     Score         DG    S(hbond)    S(metal)    S(lipo)     H(rot)  DE(clash)    DE(int)     intcor
     11.54     -16.24       2.57        0.00      59.82       1.89       2.39       2.31       ----

> <Gold.Chemscore.Fitness>
11.5431

> <Gold.Chemscore.DG>
-16.2421

> <Gold.Chemscore.ZeroCoef>
-5.4800

> <Gold.Chemscore.Hbond>
2.5728

> <Gold.Chemscore.Metal>
0.0000

> <Gold.Chemscore.Lipo>
59.8156

> <Gold.Chemscore.Internal_Hbond>
0.0000

> <Gold.Chemscore.DEClash>
2.3939

> <Gold.Chemscore.DEInternal>
2.3051

> <Gold.Chemscore.Rot>
1.8865

> <Gold.Chemscore.Internal.Correction>
   9.000000E+99

> <Gold.Chemscore.Hbonds>
donor molecule, donor type, donor heavy atom, donor atom, acceptor molecule, acceptor atom, score
      L1  H     9    41       P1  7948  1.00
      P1  H  7989  7998       L1    19  0.01
      P1  H  8011  8017       L1     4  0.68
      P1  H 10752 10765       L1    17  0.58

> <Gold.Chemscore.Hbond.Weighted>
-8.5933

> <Gold.Chemscore.Metal.Weighted>
-0.0000

> <Gold.Chemscore.Lipo.Weighted>
-6.9984

> <Gold.Chemscore.Internal_Hbond.Weighted>
0.0000

> <Gold.Chemscore.DEClash.Weighted>
2.3939

> <Gold.Chemscore.DEInternal.Weighted>
2.3051

> <Gold.Chemscore.Rot.Weighted>
4.8295

> <Gold.Chemscore.Internal.Correction.Weighted>
   9.000000E+99

> <Gold.Protein.RotatedTorsions>
[ 6907 6896 6895 6894 ] final -164.05 input  -60.11 | X-H torsion
[ 7974 7965 7964 7962 ] final   39.71 input  175.53 | X-H torsion
[ 8008 7997 7996 7995 ] final  -85.79 input   59.86 | X-H torsion
[ 10167 10162 10161 10158 ] final  113.98 input  -65.29 | X-H torsion
[ 10718 10713 10712 10709 ] final  -10.52 input   66.30 | X-H torsion
[ 10763 10752 10751 10750 ] final  151.04 input  -60.55 | X-H torsion
[ 11005 11000 10999 10996 ] final  -41.92 input  -57.11 | X-H torsion

> <Gold.Protein.ActiveResidues>
 VAL166  LYS551  ARG553  GLY616  TRP617  ASP618  TYR619  PRO620  LYS621  CYS622 
 ASP623  PHE694  ASN695  SER759  ASP760  ASP761  ALA762  ILE779  LEU786  VAL792 
 PHE793  MET794  SER795  GLU796  ALA797  LYS798  CYS799  TRP800  GLU811  SER814 

> <Gold.Protein.RotatedAtoms>
  151.4058  133.3743  159.2737 H   0  0  0  0  0  0  0  0  0  0  0  0  # atno 6907 bound_to 6896
  150.9400  134.8811  159.7616 H   0  0  0  0  0  0  0  0  0  0  0  0  # atno 6908 bound_to 6896
  152.5067  134.4008  159.9468 H   0  0  0  0  0  0  0  0  0  0  0  0  # atno 6909 bound_to 6896
  146.0962  139.5619  142.9443 H   0  0  0  0  0  0  0  0  0  0  0  0  # atno 7974 bound_to 7965
  154.6447  140.0587  156.9886 H   0  0  0  0  0  0  0  0  0  0  0  0  # atno 8008 bound_to 7997
  155.1463  140.3270  155.4422 H   0  0  0  0  0  0  0  0  0  0  0  0  # atno 8009 bound_to 7997
  156.2548  140.1955  156.6577 H   0  0  0  0  0  0  0  0  0  0  0  0  # atno 8010 bound_to 7997
  139.6421  144.7124  151.2215 H   0  0  0  0  0  0  0  0  0  0  0  0  # atno 10167 bound_to 10162
  156.6723  130.5013  149.5996 H   0  0  0  0  0  0  0  0  0  0  0  0  # atno 10718 bound_to 10713
  154.0972  135.2848  155.3259 H   0  0  0  0  0  0  0  0  0  0  0  0  # atno 10763 bound_to 10752
  154.6580  135.5345  153.7985 H   0  0  0  0  0  0  0  0  0  0  0  0  # atno 10764 bound_to 10752
  153.0392  135.6526  154.1138 H   0  0  0  0  0  0  0  0  0  0  0  0  # atno 10765 bound_to 10752
  141.0279  133.6833  156.2523 H   0  0  0  0  0  0  0  0  0  0  0  0  # atno 11005 bound_to 11000
  145.5943  141.0365  143.2053 LP  0  0  0  0  0  0  0  0  0  0  0  0  # atno 17320 bound_to 7965
  144.7397  139.7483  143.7315 LP  0  0  0  0  0  0  0  0  0  0  0  0  # atno 17321 bound_to 7965
  140.7496  143.6293  150.8438 LP  0  0  0  0  0  0  0  0  0  0  0  0  # atno 17342 bound_to 10162
  139.9932  143.5825  152.2903 LP  0  0  0  0  0  0  0  0  0  0  0  0  # atno 17343 bound_to 10162
  156.1929  130.6571  151.1082 LP  0  0  0  0  0  0  0  0  0  0  0  0  # atno 17370 bound_to 10713
  157.7073  131.0751  150.6624 LP  0  0  0  0  0  0  0  0  0  0  0  0  # atno 17371 bound_to 10713
  140.6458  134.5118  157.5573 LP  0  0  0  0  0  0  0  0  0  0  0  0  # atno 17394 bound_to 11000
  139.9188  134.8190  156.1277 LP  0  0  0  0  0  0  0  0  0  0  0  0  # atno 17395 bound_to 11000

$$$$
