AV-unprocessed.smi:1900|AV-procd|sdf|7712|dock1
  -GOLD-   22720 9453D 1   1.00000     0.00000
 Structure written by MMmdl.
 44 45  0  0  0  0  0  0  0  0  2 V2000
  145.8273  128.5366  151.7645 C   0  0  0  0  0  0  0  0  0  0  0  0
  145.5330  130.0378  151.8602 C   0  0  1  0  0  0  0  0  0  0  0  0
  146.5895  130.7814  152.6974 C   0  0  0  0  0  0  0  0  0  0  0  0
  146.3239  132.2387  152.6939 N   0  3  1  0  0  0  0  0  0  0  0  0
  147.2586  132.9870  153.5716 C   0  0  0  0  0  0  0  0  0  0  0  0
  148.7082  132.4858  153.4525 C   0  0  0  0  0  0  0  0  0  0  0  0
  149.6704  133.2657  154.3643 C   0  0  0  0  0  0  0  0  0  0  0  0
  149.6865  134.6895  154.0467 N   0  0  0  0  0  0  0  0  0  0  0  0
  150.4896  135.5954  154.6234 C   0  0  0  0  0  0  0  0  0  0  0  0
  151.3319  135.3111  155.4751 O   0  0  0  0  0  0  0  0  0  0  0  0
  150.2510  136.8315  154.1550 N   0  0  0  0  0  0  0  0  0  0  0  0
  150.8894  138.0367  154.5433 C   0  0  0  0  0  0  0  0  0  0  0  0
  150.4179  139.3403  154.2289 C   0  0  0  0  0  0  0  0  0  0  0  0
  151.2165  140.2758  154.7227 N   0  0  0  0  0  0  0  0  0  0  0  0
  152.1950  139.5820  155.3464 N   0  0  0  0  0  0  0  0  0  0  0  0
  152.0377  138.2162  155.2625 C   0  0  0  0  0  0  0  0  0  0  0  0
  146.2820  132.7489  151.3010 C   0  0  0  0  0  0  0  0  0  0  0  0
  145.2606  131.9669  150.4520 C   0  0  2  0  0  0  0  0  0  0  0  0
  143.7968  132.3123  150.7791 C   0  0  0  0  0  0  0  0  0  0  0  0
  145.5185  130.5655  150.5364 O   0  0  0  0  0  0  0  0  0  0  0  0
  152.9545  140.0495  155.8211 H   0  0  0  0  0  0  0  0  0  0  0  0
  145.8422  128.0748  152.7521 H   0  0  0  0  0  0  0  0  0  0  0  0
  146.7934  128.3522  151.2934 H   0  0  0  0  0  0  0  0  0  0  0  0
  145.0662  128.0280  151.1723 H   0  0  0  0  0  0  0  0  0  0  0  0
  144.5505  130.1601  152.3165 H   0  0  0  0  0  0  0  0  0  0  0  0
  146.5720  130.4051  153.7212 H   0  0  0  0  0  0  0  0  0  0  0  0
  147.5897  130.5926  152.3038 H   0  0  0  0  0  0  0  0  0  0  0  0
  147.2425  134.0410  153.2906 H   0  0  0  0  0  0  0  0  0  0  0  0
  146.9153  132.9385  154.6063 H   0  0  0  0  0  0  0  0  0  0  0  0
  148.7594  131.4272  153.7051 H   0  0  0  0  0  0  0  0  0  0  0  0
  149.0400  132.5728  152.4169 H   0  0  0  0  0  0  0  0  0  0  0  0
  149.3672  133.1558  155.4060 H   0  0  0  0  0  0  0  0  0  0  0  0
  150.6806  132.8591  154.2912 H   0  0  0  0  0  0  0  0  0  0  0  0
  149.0244  135.0114  153.3558 H   0  0  0  0  0  0  0  0  0  0  0  0
  149.5242  136.9240  153.4607 H   0  0  0  0  0  0  0  0  0  0  0  0
  149.5393  139.6328  153.6728 H   0  0  0  0  0  0  0  0  0  0  0  0
  152.7368  137.5252  155.7096 H   0  0  0  0  0  0  0  0  0  0  0  0
  146.0334  133.8093  151.2805 H   0  0  0  0  0  0  0  0  0  0  0  0
  147.2743  132.6516  150.8575 H   0  0  0  0  0  0  0  0  0  0  0  0
  145.4208  132.2393  149.4084 H   0  0  0  0  0  0  0  0  0  0  0  0
  143.5943  133.3645  150.5775 H   0  0  0  0  0  0  0  0  0  0  0  0
  143.5511  132.1313  151.8250 H   0  0  0  0  0  0  0  0  0  0  0  0
  143.1131  131.7234  150.1673 H   0  0  0  0  0  0  0  0  0  0  0  0
  145.4001  132.3596  153.0839 H   0  0  0  0  0  0  0  0  0  0  0  0
  1  2  1  0  0  0  0
  1 22  1  0  0  0  0
  1 23  1  0  0  0  0
  1 24  1  0  0  0  0
  2 20  1  0  0  0  0
  2  3  1  0  0  0  0
  2 25  1  0  0  0  0
  3  4  1  0  0  0  0
  3 26  1  0  0  0  0
  3 27  1  0  0  0  0
  4  5  1  0  0  0  0
  4 17  1  0  0  0  0
  4 44  1  0  0  0  0
  5  6  1  0  0  0  0
  5 28  1  0  0  0  0
  5 29  1  0  0  0  0
  6  7  1  0  0  0  0
  6 30  1  0  0  0  0
  6 31  1  0  0  0  0
  7  8  1  0  0  0  0
  7 32  1  0  0  0  0
  7 33  1  0  0  0  0
  8  9  1  0  0  0  0
  8 34  1  0  0  0  0
  9 10  2  0  0  0  0
  9 11  1  0  0  0  0
 11 12  1  0  0  0  0
 11 35  1  0  0  0  0
 12 16  2  0  0  0  0
 12 13  1  0  0  0  0
 13 14  2  0  0  0  0
 13 36  1  0  0  0  0
 14 15  1  0  0  0  0
 15 21  1  0  0  0  0
 15 16  1  0  0  0  0
 16 37  1  0  0  0  0
 17 18  1  0  0  0  0
 17 38  1  0  0  0  0
 17 39  1  0  0  0  0
 18 19  1  0  0  0  0
 18 20  1  0  0  0  0
 18 40  1  0  0  0  0
 19 41  1  0  0  0  0
 19 42  1  0  0  0  0
 19 43  1  0  0  0  0
M  CHG  1   4   1
M  END
> <s_m_source_file>
AV-unprocessed.smi

> <i_m_source_file_index>
1900

> <i_lp_mmshare_version>
43012

> <i_f3d_flags>
0

> <s_epik_input>
W0NIM11bQ0BASF0xW0NIMl1OKFtDSDJdW0NASF0oTzEpW0NIM10pW0NIMl1bQ0gyXVtDSDJdW05IXUMoPU8pW05IXWMyW2NIXW5bbkhdW2NIXTI=

> <s_epik_cmdline>
J2VwaWtfcHl0aG9uJywgJy1waCcsICc3LjAnLCAnLXRuJywgJzgnLCAnLW1hJywgJzIwMCcsICctbWV0YWxfYmluZGluZycsICctaW1hZScsICc8aW5maWxlLm1hZT4nLCAnLW9tYWUnLCAnPG91dGZpbGUubWFlPic=

> <r_lp_tautomer_probability>
0.5

> <r_epik_Ionization_Penalty>
0.270543

> <r_epik_Ionization_Penalty_Charging>
0.270496

> <r_epik_Ionization_Penalty_Neutral>
4.67091e-05

> <r_epik_State_Penalty>
0.262618

> <r_epik_Charging_Adjusted_Penalty>
0.533114

> <i_epik_Tot_Q>
1

> <i_epik_Tot_abs_Q>
1

> <r_epik_Metal_State_Penalty>
0.262618

> <b_epik_Metal_Only>
0

> <s_lp_Force_Field>
OPLS_2005

> <r_lp_Energy>
21.5788

> <b_lp_Chiralities_Consistent>
1

> <s_lp_Variant>
AV-unprocessed.smi:1900-4

> <Gold.Version>
5.8.1

> <Gold.Id.Protein>
6NUR|6NUR_protein|mol2

> <Gold.PLP.Fitness>
48.8662

> <Gold.PLP.PLP>
-35.6203

> <Gold.PLP.part.hbond>
-4.7666

> <Gold.PLP.part.metal>
0.0000

> <Gold.PLP.part.buried>
-1.8044

> <Gold.PLP.part.nonpolar>
-30.1647

> <Gold.PLP.part.repulsive>
0.5048

> <Gold.PLP.ligand.clash>
0.0000

> <Gold.PLP.ligand.torsion>
0.2606

> <Gold.PLP.Chemscore.Hbond>
3.5837

> <Gold.PLP.Chemscore.CHOScore>
0.9923

> <Gold.PLP.Chemscore.Metal>
0.0000

> <Gold.Chemscore.Hbonds>
donor molecule, donor type, donor heavy atom, donor atom, acceptor molecule, acceptor atom, score
      L1  H     8    34       P1  7948  0.77
      L1  H    11    35       P1  7948  0.82
      P1  H  7989  7998       L1    14  0.69
      P1  H 10752 10764       L1    10  1.00
      L1  C    13    36       P1  7957  0.80

> <Gold.PLP.Chemscore.Internal.Correction>
0.0392

> <Gold.Rescore>
     Score         DG    S(hbond)    S(metal)    S(lipo)     H(rot)  DE(clash)    DE(int)     intcor
     15.53     -18.37       2.10        0.00      92.47       1.93       1.35       1.49       ----

> <Gold.Chemscore.Fitness>
15.5315

> <Gold.Chemscore.DG>
-18.3700

> <Gold.Chemscore.ZeroCoef>
-5.4800

> <Gold.Chemscore.Hbond>
2.1030

> <Gold.Chemscore.Metal>
0.0000

> <Gold.Chemscore.Lipo>
92.4694

> <Gold.Chemscore.Internal_Hbond>
0.0000

> <Gold.Chemscore.DEClash>
1.3480

> <Gold.Chemscore.DEInternal>
1.4905

> <Gold.Chemscore.Rot>
1.9347

> <Gold.Chemscore.Internal.Correction>
   9.000000E+99

> <Gold.Chemscore.Hbonds>
donor molecule, donor type, donor heavy atom, donor atom, acceptor molecule, acceptor atom, score
      L1  H     8    34       P1  7948  0.19
      L1  H    11    35       P1  7948  0.67
      P1  H  7989  7998       L1    14  0.13
      P1  H 10752 10764       L1    10  0.80

> <Gold.Chemscore.Hbond.Weighted>
-7.0240

> <Gold.Chemscore.Metal.Weighted>
-0.0000

> <Gold.Chemscore.Lipo.Weighted>
-10.8189

> <Gold.Chemscore.Internal_Hbond.Weighted>
0.0000

> <Gold.Chemscore.DEClash.Weighted>
1.3480

> <Gold.Chemscore.DEInternal.Weighted>
1.4905

> <Gold.Chemscore.Rot.Weighted>
4.9528

> <Gold.Chemscore.Internal.Correction.Weighted>
   9.000000E+99

> <Gold.Protein.RotatedTorsions>
[ 6907 6896 6895 6894 ] final   -4.10 input  -60.11 | X-H torsion
[ 7974 7965 7964 7962 ] final  164.52 input  175.53 | X-H torsion
[ 8008 7997 7996 7995 ] final  124.03 input   59.86 | X-H torsion
[ 10167 10162 10161 10158 ] final -141.86 input  -65.29 | X-H torsion
[ 10718 10713 10712 10709 ] final  -38.52 input   66.30 | X-H torsion
[ 10763 10752 10751 10750 ] final  -43.39 input  -60.55 | X-H torsion
[ 11005 11000 10999 10996 ] final   63.34 input  -57.11 | X-H torsion

> <Gold.Protein.ActiveResidues>
 VAL166  LYS551  ARG553  GLY616  TRP617  ASP618  TYR619  PRO620  LYS621  CYS622 
 ASP623  PHE694  ASN695  SER759  ASP760  ASP761  ALA762  ILE779  LEU786  VAL792 
 PHE793  MET794  SER795  GLU796  ALA797  LYS798  CYS799  TRP800  GLU811  SER814 

> <Gold.Protein.RotatedAtoms>
  151.5031  135.1062  159.9833 H   0  0  0  0  0  0  0  0  0  0  0  0  # atno 6907 bound_to 6896
  152.4693  133.7990  159.6953 H   0  0  0  0  0  0  0  0  0  0  0  0  # atno 6908 bound_to 6896
  150.8693  133.7465  159.2992 H   0  0  0  0  0  0  0  0  0  0  0  0  # atno 6909 bound_to 6896
  144.7541  139.8338  143.6356 H   0  0  0  0  0  0  0  0  0  0  0  0  # atno 7974 bound_to 7965
  156.2787  140.2749  156.1723 H   0  0  0  0  0  0  0  0  0  0  0  0  # atno 8008 bound_to 7997
  155.0642  140.0387  157.2605 H   0  0  0  0  0  0  0  0  0  0  0  0  # atno 8009 bound_to 7997
  154.7092  140.2665  155.6650 H   0  0  0  0  0  0  0  0  0  0  0  0  # atno 8010 bound_to 7997
  139.8144  143.7659  152.2664 H   0  0  0  0  0  0  0  0  0  0  0  0  # atno 10167 bound_to 10162
  156.3028  130.4242  149.8126 H   0  0  0  0  0  0  0  0  0  0  0  0  # atno 10718 bound_to 10713
  153.9948  135.6701  153.4756 H   0  0  0  0  0  0  0  0  0  0  0  0  # atno 10763 bound_to 10752
  153.0689  135.4985  154.8257 H   0  0  0  0  0  0  0  0  0  0  0  0  # atno 10764 bound_to 10752
  154.7088  135.3093  154.9192 H   0  0  0  0  0  0  0  0  0  0  0  0  # atno 10765 bound_to 10752
  140.0031  134.6411  155.9899 H   0  0  0  0  0  0  0  0  0  0  0  0  # atno 11005 bound_to 11000
  146.1530  139.4619  143.0036 LP  0  0  0  0  0  0  0  0  0  0  0  0  # atno 17320 bound_to 7965
  145.6839  141.0183  143.1591 LP  0  0  0  0  0  0  0  0  0  0  0  0  # atno 17321 bound_to 7965
  139.7818  144.7442  151.0078 LP  0  0  0  0  0  0  0  0  0  0  0  0  # atno 17342 bound_to 10162
  140.7816  143.4534  151.0380 LP  0  0  0  0  0  0  0  0  0  0  0  0  # atno 17343 bound_to 10162
  156.5498  130.8337  151.3296 LP  0  0  0  0  0  0  0  0  0  0  0  0  # atno 17370 bound_to 10713
  157.7372  130.9792  150.2180 LP  0  0  0  0  0  0  0  0  0  0  0  0  # atno 17371 bound_to 10713
  141.1657  133.6537  156.4470 LP  0  0  0  0  0  0  0  0  0  0  0  0  # atno 17394 bound_to 11000
  140.4691  134.6770  157.5121 LP  0  0  0  0  0  0  0  0  0  0  0  0  # atno 17395 bound_to 11000

$$$$
