AV-unprocessed.smi:3110|AV-procd|sdf|11830|dock4
  -GOLD-   2272017203D 1   1.00000     0.00000
 Structure written by MMmdl.
 33 34  0  0  0  0  0  0  0  0  1 V2000
  153.6829  140.0218  158.8923 O   0  0  0  0  0  0  0  0  0  0  0  0
  152.7986  140.8744  158.9698 C   0  0  0  0  0  0  0  0  0  0  0  0
  152.9106  142.0099  159.9906 C   0  0  0  0  0  0  0  0  0  0  0  0
  151.9189  143.1584  159.7103 C   0  0  2  0  0  0  0  0  0  0  0  0
  152.2249  143.8801  158.4231 C   0  0  0  0  0  0  0  0  0  0  0  0
  152.2473  145.2034  158.5672 C   0  0  0  0  0  0  0  0  0  0  0  0
  151.9630  145.6316  159.9798 C   0  0  0  0  0  0  0  0  0  0  0  0
  151.9161  144.3009  160.7618 C   0  0  0  0  0  0  0  0  0  0  0  0
  151.7006  140.8715  158.1977 N   0  0  0  0  0  0  0  0  0  0  0  0
  151.3569  139.8378  157.2255 C   0  0  0  0  0  0  0  0  0  0  0  0
  151.1590  140.4215  155.8138 C   0  0  0  0  0  0  0  0  0  0  0  0
  149.8236  140.9522  155.6091 N   0  0  0  0  0  0  0  0  0  0  0  0
  149.1717  141.1378  154.3966 C   0  0  0  0  0  0  0  0  0  0  0  0
  147.9383  141.6732  154.6916 C   0  0  0  0  0  0  0  0  0  0  0  0
  147.8077  141.8177  156.0707 N   0  0  0  0  0  0  0  0  0  0  0  0
  148.9622  141.3697  156.5469 C   0  0  0  0  0  0  0  0  0  0  0  0
  152.7411  141.6014  160.9879 H   0  0  0  0  0  0  0  0  0  0  0  0
  153.9314  142.3956  159.9896 H   0  0  0  0  0  0  0  0  0  0  0  0
  150.9109  142.7521  159.6110 H   0  0  0  0  0  0  0  0  0  0  0  0
  152.3847  143.3549  157.4930 H   0  0  0  0  0  0  0  0  0  0  0  0
  152.4280  145.9142  157.7746 H   0  0  0  0  0  0  0  0  0  0  0  0
  152.7435  146.2955  160.3522 H   0  0  0  0  0  0  0  0  0  0  0  0
  151.0081  146.1563  160.0188 H   0  0  0  0  0  0  0  0  0  0  0  0
  151.0466  144.2448  161.4177 H   0  0  0  0  0  0  0  0  0  0  0  0
  152.8003  144.2384  161.3974 H   0  0  0  0  0  0  0  0  0  0  0  0
  151.0325  141.6180  158.3236 H   0  0  0  0  0  0  0  0  0  0  0  0
  152.1783  139.1213  157.2049 H   0  0  0  0  0  0  0  0  0  0  0  0
  150.4747  139.2765  157.5381 H   0  0  0  0  0  0  0  0  0  0  0  0
  151.8859  141.2114  155.6209 H   0  0  0  0  0  0  0  0  0  0  0  0
  151.3334  139.6472  155.0659 H   0  0  0  0  0  0  0  0  0  0  0  0
  149.6295  140.8893  153.4506 H   0  0  0  0  0  0  0  0  0  0  0  0
  147.1418  141.9633  154.0224 H   0  0  0  0  0  0  0  0  0  0  0  0
  149.1892  141.3492  157.6030 H   0  0  0  0  0  0  0  0  0  0  0  0
  1  2  2  0  0  0  0
  2  3  1  0  0  0  0
  2  9  1  0  0  0  0
  3  4  1  0  0  0  0
  3 17  1  0  0  0  0
  3 18  1  0  0  0  0
  4  8  1  0  0  0  0
  4  5  1  0  0  0  0
  4 19  1  0  0  0  0
  5  6  2  0  0  0  0
  5 20  1  0  0  0  0
  6  7  1  0  0  0  0
  6 21  1  0  0  0  0
  7  8  1  0  0  0  0
  7 22  1  0  0  0  0
  7 23  1  0  0  0  0
  8 24  1  0  0  0  0
  8 25  1  0  0  0  0
  9 10  1  0  0  0  0
  9 26  1  0  0  0  0
 10 11  1  0  0  0  0
 10 27  1  0  0  0  0
 10 28  1  0  0  0  0
 11 12  1  0  0  0  0
 11 29  1  0  0  0  0
 11 30  1  0  0  0  0
 12 16  1  0  0  0  0
 12 13  1  0  0  0  0
 13 14  2  0  0  0  0
 13 31  1  0  0  0  0
 14 15  1  0  0  0  0
 14 32  1  0  0  0  0
 15 16  2  0  0  0  0
 16 33  1  0  0  0  0
M  END
> <s_m_source_file>
AV-unprocessed.smi

> <i_m_source_file_index>
3110

> <i_lp_mmshare_version>
43012

> <i_f3d_flags>
0

> <s_epik_input>
W0NIMl0xW0NIMl1bQ0hdPVtDSF1bQ0BIXTFbQ0gyXUMoPU8pW05IXVtDSDJdW0NIMl1uMltjSF1bY0hdbltjSF0y

> <s_epik_cmdline>
J2VwaWtfcHl0aG9uJywgJy1waCcsICc3LjAnLCAnLXRuJywgJzgnLCAnLW1hJywgJzIwMCcsICctbWV0YWxfYmluZGluZycsICctaW1hZScsICc8aW5maWxlLm1hZT4nLCAnLW9tYWUnLCAnPG91dGZpbGUubWFlPic=

> <r_lp_tautomer_probability>
1

> <r_epik_Ionization_Penalty>
0.593629

> <r_epik_Ionization_Penalty_Charging>
0.593629

> <r_epik_Ionization_Penalty_Neutral>
1.57355e-08

> <r_epik_State_Penalty>
0.607413

> <r_epik_Charging_Adjusted_Penalty>
1.20104

> <i_epik_Tot_Q>
0

> <i_epik_Tot_abs_Q>
0

> <r_epik_Metal_State_Penalty>
0.299385

> <b_epik_Metal_Only>
0

> <s_lp_Force_Field>
OPLS_2005

> <r_lp_Energy>
17.6057

> <b_lp_Chiralities_Consistent>
1

> <s_lp_Variant>
AV-unprocessed.smi:3110-3

> <Gold.Version>
5.8.1

> <Gold.Id.Protein>
6NUR|6NUR_protein|mol2

> <Gold.PLP.Fitness>
46.3543

> <Gold.PLP.PLP>
-41.6480

> <Gold.PLP.part.hbond>
-1.0000

> <Gold.PLP.part.metal>
0.0000

> <Gold.PLP.part.buried>
-3.3039

> <Gold.PLP.part.nonpolar>
-37.0716

> <Gold.PLP.part.repulsive>
0.4074

> <Gold.PLP.ligand.clash>
0.0000

> <Gold.PLP.ligand.torsion>
0.6550

> <Gold.PLP.Chemscore.Hbond>
1.0000

> <Gold.PLP.Chemscore.CHOScore>
1.0000

> <Gold.PLP.Chemscore.Metal>
0.0000

> <Gold.Chemscore.Hbonds>
donor molecule, donor type, donor heavy atom, donor atom, acceptor molecule, acceptor atom, score
      P1  H  7997  8008       L1     1  1.00
      L1  C    13    31       P1  7957  1.00

> <Gold.PLP.Chemscore.Internal.Correction>
0.0163

> <Gold.Rescore>
     Score         DG    S(hbond)    S(metal)    S(lipo)     H(rot)  DE(clash)    DE(int)     intcor
     14.69     -15.26       0.93        0.00     100.98       2.01       0.03       0.54       ----

> <Gold.Chemscore.Fitness>
14.6856

> <Gold.Chemscore.DG>
-15.2555

> <Gold.Chemscore.ZeroCoef>
-5.4800

> <Gold.Chemscore.Hbond>
0.9306

> <Gold.Chemscore.Metal>
0.0000

> <Gold.Chemscore.Lipo>
100.9836

> <Gold.Chemscore.Internal_Hbond>
0.0000

> <Gold.Chemscore.DEClash>
0.0300

> <Gold.Chemscore.DEInternal>
0.5399

> <Gold.Chemscore.Rot>
2.0108

> <Gold.Chemscore.Internal.Correction>
   9.000000E+99

> <Gold.Chemscore.Hbonds>
donor molecule, donor type, donor heavy atom, donor atom, acceptor molecule, acceptor atom, score
      P1  H  7997  8008       L1     1  0.84

> <Gold.Chemscore.Hbond.Weighted>
-3.1082

> <Gold.Chemscore.Metal.Weighted>
-0.0000

> <Gold.Chemscore.Lipo.Weighted>
-11.8151

> <Gold.Chemscore.Internal_Hbond.Weighted>
0.0000

> <Gold.Chemscore.DEClash.Weighted>
0.0300

> <Gold.Chemscore.DEInternal.Weighted>
0.5399

> <Gold.Chemscore.Rot.Weighted>
5.1477

> <Gold.Chemscore.Internal.Correction.Weighted>
   9.000000E+99

> <Gold.Protein.RotatedTorsions>
[ 6907 6896 6895 6894 ] final  174.28 input  -60.11 | X-H torsion
[ 7974 7965 7964 7962 ] final   19.38 input  175.53 | X-H torsion
[ 8008 7997 7996 7995 ] final -100.55 input   59.86 | X-H torsion
[ 10167 10162 10161 10158 ] final   15.31 input  -65.29 | X-H torsion
[ 10718 10713 10712 10709 ] final   61.11 input   66.30 | X-H torsion
[ 10763 10752 10751 10750 ] final  164.25 input  -60.55 | X-H torsion
[ 11005 11000 10999 10996 ] final  -87.49 input  -57.11 | X-H torsion

> <Gold.Protein.ActiveResidues>
 VAL166  LYS551  ARG553  GLY616  TRP617  ASP618  TYR619  PRO620  LYS621  CYS622 
 ASP623  PHE694  ASN695  SER759  ASP760  ASP761  ALA762  ILE779  LEU786  VAL792 
 PHE793  MET794  SER795  GLU796  ALA797  LYS798  CYS799  TRP800  GLU811  SER814 

> <Gold.Protein.RotatedAtoms>
  151.7548  133.3329  159.3401 H   0  0  0  0  0  0  0  0  0  0  0  0  # atno 6907 bound_to 6896
  150.7521  134.6159  159.6120 H   0  0  0  0  0  0  0  0  0  0  0  0  # atno 6908 bound_to 6896
  152.3444  134.7093  160.0306 H   0  0  0  0  0  0  0  0  0  0  0  0  # atno 6909 bound_to 6896
  146.2151  139.8322  142.8658 H   0  0  0  0  0  0  0  0  0  0  0  0  # atno 7974 bound_to 7965
  154.8302  140.0440  157.1472 H   0  0  0  0  0  0  0  0  0  0  0  0  # atno 8008 bound_to 7997
  154.9161  140.3020  155.5220 H   0  0  0  0  0  0  0  0  0  0  0  0  # atno 8009 bound_to 7997
  156.2986  140.2349  156.4206 H   0  0  0  0  0  0  0  0  0  0  0  0  # atno 8010 bound_to 7997
  140.5876  143.8859  150.6844 H   0  0  0  0  0  0  0  0  0  0  0  0  # atno 10167 bound_to 10162
  157.5803  130.8976  149.9420 H   0  0  0  0  0  0  0  0  0  0  0  0  # atno 10718 bound_to 10713
  154.3060  135.2758  155.2588 H   0  0  0  0  0  0  0  0  0  0  0  0  # atno 10763 bound_to 10752
  154.5004  135.5809  153.6530 H   0  0  0  0  0  0  0  0  0  0  0  0  # atno 10764 bound_to 10752
  152.9894  135.6156  154.3234 H   0  0  0  0  0  0  0  0  0  0  0  0  # atno 10765 bound_to 10752
  141.1616  133.7515  156.9315 H   0  0  0  0  0  0  0  0  0  0  0  0  # atno 11005 bound_to 11000
  145.2986  141.0188  143.3622 LP  0  0  0  0  0  0  0  0  0  0  0  0  # atno 17320 bound_to 7965
  144.9023  139.4633  143.6626 LP  0  0  0  0  0  0  0  0  0  0  0  0  # atno 17321 bound_to 7965
  140.2374  143.3690  152.1515 LP  0  0  0  0  0  0  0  0  0  0  0  0  # atno 17342 bound_to 10162
  139.5207  144.7036  151.5419 LP  0  0  0  0  0  0  0  0  0  0  0  0  # atno 17343 bound_to 10162
  156.0849  130.3669  150.0507 LP  0  0  0  0  0  0  0  0  0  0  0  0  # atno 17370 bound_to 10713
  156.8647  130.9504  151.3615 LP  0  0  0  0  0  0  0  0  0  0  0  0  # atno 17371 bound_to 10713
  140.1383  134.9310  157.2432 LP  0  0  0  0  0  0  0  0  0  0  0  0  # atno 17394 bound_to 11000
  140.2868  134.3287  155.7327 LP  0  0  0  0  0  0  0  0  0  0  0  0  # atno 17395 bound_to 11000

$$$$
