AV-unprocessed.smi:3228|AV-procd|sdf|12321|dock9
  -GOLD-   2272018173D 1   1.00000     0.00000
 Structure written by MMmdl.
 31 32  0  0  0  0  0  0  0  0  1 V2000
  150.5446  140.1005  156.1620 O   0  0  0  0  0  0  0  0  0  0  0  0
  150.2077  141.2848  156.1473 C   0  0  0  0  0  0  0  0  0  0  0  0
  150.7841  142.2256  156.9092 N   0  0  0  0  0  0  0  0  0  0  0  0
  151.8706  141.9860  157.8537 C   0  0  0  0  0  0  0  0  0  0  0  0
  152.0923  143.1815  158.8050 C   0  0  2  0  0  0  0  0  0  0  0  0
  152.4375  142.7844  160.2448 C   0  0  0  0  0  0  0  0  0  0  0  0
  152.0761  144.0008  161.1113 C   0  0  0  0  0  0  0  0  0  0  0  0
  151.2798  144.9598  160.2120 C   0  0  0  0  0  0  0  0  0  0  0  0
  150.9156  144.1588  158.9576 C   0  0  2  0  0  0  0  0  0  0  0  0
  149.6984  143.4729  159.1877 O   0  0  0  0  0  0  0  0  0  0  0  0
  149.2339  141.8066  155.3806 N   0  0  0  0  0  0  0  0  0  0  0  0
  148.3873  141.1343  154.4603 C   0  0  0  0  0  0  0  0  0  0  0  0
  148.5744  139.8770  154.0418 N   0  0  0  0  0  0  0  0  0  0  0  0
  147.5863  139.4712  153.1413 C   0  0  0  0  0  0  0  0  0  0  0  0
  146.6479  140.4392  152.8834 C   0  0  0  0  0  0  0  0  0  0  0  0
  146.9699  141.9078  153.7661 S   0  0  0  0  0  0  0  0  0  0  0  0
  150.4439  143.1733  156.8361 H   0  0  0  0  0  0  0  0  0  0  0  0
  151.6353  141.0850  158.4207 H   0  0  0  0  0  0  0  0  0  0  0  0
  152.7904  141.7668  157.3088 H   0  0  0  0  0  0  0  0  0  0  0  0
  152.9385  143.7588  158.4277 H   0  0  0  0  0  0  0  0  0  0  0  0
  151.8338  141.9292  160.5517 H   0  0  0  0  0  0  0  0  0  0  0  0
  153.4846  142.4986  160.3500 H   0  0  0  0  0  0  0  0  0  0  0  0
  151.4819  143.6886  161.9705 H   0  0  0  0  0  0  0  0  0  0  0  0
  152.9703  144.4921  161.4957 H   0  0  0  0  0  0  0  0  0  0  0  0
  150.4101  145.3847  160.7151 H   0  0  0  0  0  0  0  0  0  0  0  0
  151.9236  145.7928  159.9269 H   0  0  0  0  0  0  0  0  0  0  0  0
  150.7994  144.8021  158.0850 H   0  0  0  0  0  0  0  0  0  0  0  0
  149.0267  143.8661  158.6523 H   0  0  0  0  0  0  0  0  0  0  0  0
  149.0742  142.7991  155.4702 H   0  0  0  0  0  0  0  0  0  0  0  0
  147.6280  138.4729  152.7311 H   0  0  0  0  0  0  0  0  0  0  0  0
  145.7902  140.3774  152.2304 H   0  0  0  0  0  0  0  0  0  0  0  0
  1  2  2  0  0  0  0
  2  3  1  0  0  0  0
  2 11  1  0  0  0  0
  3  4  1  0  0  0  0
  3 17  1  0  0  0  0
  4  5  1  0  0  0  0
  4 18  1  0  0  0  0
  4 19  1  0  0  0  0
  5  9  1  0  0  0  0
  5  6  1  0  0  0  0
  5 20  1  0  0  0  0
  6  7  1  0  0  0  0
  6 21  1  0  0  0  0
  6 22  1  0  0  0  0
  7  8  1  0  0  0  0
  7 23  1  0  0  0  0
  7 24  1  0  0  0  0
  8  9  1  0  0  0  0
  8 25  1  0  0  0  0
  8 26  1  0  0  0  0
  9 10  1  0  0  0  0
  9 27  1  0  0  0  0
 10 28  1  0  0  0  0
 11 12  1  0  0  0  0
 11 29  1  0  0  0  0
 12 16  1  0  0  0  0
 12 13  2  0  0  0  0
 13 14  1  0  0  0  0
 14 15  2  0  0  0  0
 14 30  1  0  0  0  0
 15 16  1  0  0  0  0
 15 31  1  0  0  0  0
M  END
> <s_m_source_file>
AV-unprocessed.smi

> <i_m_source_file_index>
3228

> <i_lp_mmshare_version>
43012

> <i_f3d_flags>
0

> <s_epik_input>
czFbY0hdW2NIXW5jMVtOSF1DKD1PKVtOSF1bQ0gyXVtDQEBIXTJbQ0gyXVtDSDJdW0NIMl1bQ0BIXTJbT0hd

> <s_epik_cmdline>
J2VwaWtfcHl0aG9uJywgJy1waCcsICc3LjAnLCAnLXRuJywgJzgnLCAnLW1hJywgJzIwMCcsICctbWV0YWxfYmluZGluZycsICctaW1hZScsICc8aW5maWxlLm1hZT4nLCAnLW9tYWUnLCAnPG91dGZpbGUubWFlPic=

> <r_lp_tautomer_probability>
0.999

> <r_epik_Ionization_Penalty>
0.000399498

> <r_epik_Ionization_Penalty_Charging>
0

> <r_epik_Ionization_Penalty_Neutral>
0.000399498

> <r_epik_State_Penalty>
0.000177984

> <r_epik_Charging_Adjusted_Penalty>
0.000177984

> <i_epik_Tot_Q>
0

> <i_epik_Tot_abs_Q>
0

> <r_epik_Metal_State_Penalty>
0.0060793

> <b_epik_Metal_Only>
0

> <s_lp_Force_Field>
OPLS_2005

> <r_lp_Energy>
23.3722

> <b_lp_Chiralities_Consistent>
1

> <s_lp_Variant>
AV-unprocessed.smi:3228-3

> <Gold.Version>
5.8.1

> <Gold.Id.Protein>
6NUR|6NUR_protein|mol2

> <Gold.PLP.Fitness>
41.3291

> <Gold.PLP.PLP>
-33.6828

> <Gold.PLP.part.hbond>
-1.5591

> <Gold.PLP.part.metal>
0.0000

> <Gold.PLP.part.buried>
-2.7323

> <Gold.PLP.part.nonpolar>
-29.5531

> <Gold.PLP.part.repulsive>
0.5365

> <Gold.PLP.ligand.clash>
0.0000

> <Gold.PLP.ligand.torsion>
0.6542

> <Gold.PLP.Chemscore.Hbond>
1.0000

> <Gold.PLP.Chemscore.CHOScore>
1.9846

> <Gold.PLP.Chemscore.Metal>
0.0000

> <Gold.Chemscore.Hbonds>
donor molecule, donor type, donor heavy atom, donor atom, acceptor molecule, acceptor atom, score
      L1  H    11    29       P1  8028  1.00
      L1  C    14    30       P1  7948  0.51
      L1  C    15    31       P1 10175  1.00

> <Gold.PLP.Chemscore.Internal.Correction>
0.0011

> <Gold.Rescore>
     Score         DG    S(hbond)    S(metal)    S(lipo)     H(rot)  DE(clash)    DE(int)     intcor
     11.23     -14.54       1.00        0.00      89.99       1.88       0.07       3.24       ----

> <Gold.Chemscore.Fitness>
11.2309

> <Gold.Chemscore.DG>
-14.5365

> <Gold.Chemscore.ZeroCoef>
-5.4800

> <Gold.Chemscore.Hbond>
0.9991

> <Gold.Chemscore.Metal>
0.0000

> <Gold.Chemscore.Lipo>
89.9887

> <Gold.Chemscore.Internal_Hbond>
0.0000

> <Gold.Chemscore.DEClash>
0.0662

> <Gold.Chemscore.DEInternal>
3.2394

> <Gold.Chemscore.Rot>
1.8786

> <Gold.Chemscore.Internal.Correction>
   9.000000E+99

> <Gold.Chemscore.Hbonds>
donor molecule, donor type, donor heavy atom, donor atom, acceptor molecule, acceptor atom, score
      L1  H     3    17       P1  8028  0.02
      L1  H    11    29       P1  8028  0.99

> <Gold.Chemscore.Hbond.Weighted>
-3.3369

> <Gold.Chemscore.Metal.Weighted>
-0.0000

> <Gold.Chemscore.Lipo.Weighted>
-10.5287

> <Gold.Chemscore.Internal_Hbond.Weighted>
0.0000

> <Gold.Chemscore.DEClash.Weighted>
0.0662

> <Gold.Chemscore.DEInternal.Weighted>
3.2394

> <Gold.Chemscore.Rot.Weighted>
4.8091

> <Gold.Chemscore.Internal.Correction.Weighted>
   9.000000E+99

> <Gold.Protein.RotatedTorsions>
[ 6907 6896 6895 6894 ] final -136.31 input  -60.11 | X-H torsion
[ 7974 7965 7964 7962 ] final  119.94 input  175.53 | X-H torsion
[ 8008 7997 7996 7995 ] final  -91.68 input   59.86 | X-H torsion
[ 10167 10162 10161 10158 ] final  -55.05 input  -65.29 | X-H torsion
[ 10718 10713 10712 10709 ] final  -96.91 input   66.30 | X-H torsion
[ 10763 10752 10751 10750 ] final  124.94 input  -60.55 | X-H torsion
[ 11005 11000 10999 10996 ] final   21.77 input  -57.11 | X-H torsion

> <Gold.Protein.ActiveResidues>
 VAL166  LYS551  ARG553  GLY616  TRP617  ASP618  TYR619  PRO620  LYS621  CYS622 
 ASP623  PHE694  ASN695  SER759  ASP760  ASP761  ALA762  ILE779  LEU786  VAL792 
 PHE793  MET794  SER795  GLU796  ALA797  LYS798  CYS799  TRP800  GLU811  SER814 

> <Gold.Protein.RotatedAtoms>
  151.0085  133.5988  159.2685 H   0  0  0  0  0  0  0  0  0  0  0  0  # atno 6907 bound_to 6896
  151.3148  135.0802  159.9295 H   0  0  0  0  0  0  0  0  0  0  0  0  # atno 6908 bound_to 6896
  152.5293  133.9743  159.7831 H   0  0  0  0  0  0  0  0  0  0  0  0  # atno 6909 bound_to 6896
  145.1371  139.3291  143.4635 H   0  0  0  0  0  0  0  0  0  0  0  0  # atno 7974 bound_to 7965
  154.7138  140.0517  157.0575 H   0  0  0  0  0  0  0  0  0  0  0  0  # atno 8008 bound_to 7997
  155.0519  140.3180  155.4670 H   0  0  0  0  0  0  0  0  0  0  0  0  # atno 8009 bound_to 7997
  156.2797  140.2114  156.5645 H   0  0  0  0  0  0  0  0  0  0  0  0  # atno 8010 bound_to 7997
  140.6396  143.2501  151.5024 H   0  0  0  0  0  0  0  0  0  0  0  0  # atno 10167 bound_to 10162
  156.0072  130.5172  150.6297 H   0  0  0  0  0  0  0  0  0  0  0  0  # atno 10718 bound_to 10713
  153.6694  135.3333  155.3149 H   0  0  0  0  0  0  0  0  0  0  0  0  # atno 10763 bound_to 10752
  154.8495  135.4382  154.1721 H   0  0  0  0  0  0  0  0  0  0  0  0  # atno 10764 bound_to 10752
  153.2708  135.7000  153.7558 H   0  0  0  0  0  0  0  0  0  0  0  0  # atno 10765 bound_to 10752
  140.3880  134.1850  155.7663 H   0  0  0  0  0  0  0  0  0  0  0  0  # atno 11005 bound_to 11000
  146.3509  140.1393  142.8595 LP  0  0  0  0  0  0  0  0  0  0  0  0  # atno 17320 bound_to 7965
  145.0573  140.9062  143.4960 LP  0  0  0  0  0  0  0  0  0  0  0  0  # atno 17321 bound_to 7965
  139.5606  144.2166  152.1685 LP  0  0  0  0  0  0  0  0  0  0  0  0  # atno 17342 bound_to 10162
  140.1433  144.5182  150.6731 LP  0  0  0  0  0  0  0  0  0  0  0  0  # atno 17343 bound_to 10162
  157.4097  131.0822  151.1232 LP  0  0  0  0  0  0  0  0  0  0  0  0  # atno 17370 bound_to 10713
  157.1868  130.6334  149.5690 LP  0  0  0  0  0  0  0  0  0  0  0  0  # atno 17371 bound_to 10713
  141.1901  133.8225  157.0932 LP  0  0  0  0  0  0  0  0  0  0  0  0  # atno 17394 bound_to 11000
  140.0428  134.9845  157.0994 LP  0  0  0  0  0  0  0  0  0  0  0  0  # atno 17395 bound_to 11000

$$$$
