AV-unprocessed.smi:87|AV-procd|sdf|820|dock1
  -GOLD-   2262017223D 1   1.00000     0.00000
 Structure written by MMmdl.
 58 60  0  0  0  0  0  0  0  0  1 V2000
  152.7422  143.8964  158.8467 C   0  0  0  0  0  0  0  0  0  0  0  0
  152.1968  142.5583  159.3669 C   0  0  0  0  0  0  0  0  0  0  0  0
  152.6306  142.2094  160.8107 C   0  0  0  0  0  0  0  0  0  0  0  0
  152.3548  143.3817  161.7810 C   0  0  0  0  0  0  0  0  0  0  0  0
  153.1225  143.2938  163.1085 C   0  0  0  0  0  0  0  0  0  0  0  0
  154.1244  141.7964  160.8674 C   0  0  0  0  0  0  0  0  0  0  0  0
  154.3464  140.3475  160.8881 N   0  0  0  0  0  0  0  0  0  0  0  0
  154.0514  139.5571  159.6935 C   0  0  0  0  0  0  0  0  0  0  0  0
  155.0668  138.4266  159.4683 C   0  0  0  0  0  0  0  0  0  0  0  0
  154.5227  137.1073  159.8205 C   0  0  0  0  0  0  0  0  0  0  0  0
  154.0947  136.0689  160.0976 N   0  0  0  0  0  0  0  0  0  0  0  0
  154.5590  139.7425  162.0892 C   0  0  0  0  0  0  0  0  0  0  0  0
  154.0485  138.4954  162.2690 N   0  0  0  0  0  0  0  0  0  0  0  0
  154.2247  137.8461  163.4225 C   0  0  0  0  0  0  0  0  0  0  0  0
  154.8708  138.2510  164.5160 N   0  0  0  0  0  0  0  0  0  0  0  0
  155.3953  139.4975  164.3449 C   0  0  0  0  0  0  0  0  0  0  0  0
  155.2920  140.3075  163.1767 C   0  0  0  0  0  0  0  0  0  0  0  0
  155.9738  141.5030  163.3823 N   0  0  0  0  0  0  0  0  0  0  0  0
  156.4399  141.4097  164.5969 C   0  0  0  0  0  0  0  0  0  0  0  0
  156.1388  140.2369  165.2477 N   0  0  0  0  0  0  0  0  0  0  0  0
  156.5328  139.8677  166.5970 C   0  0  0  0  0  0  0  0  0  0  0  0
  156.6048  141.0822  167.5511 C   0  0  2  0  0  0  0  0  0  0  0  0
  157.0259  140.6145  168.8195 O   0  0  0  0  0  0  0  0  0  0  0  0
  155.2540  141.8087  167.7597 C   0  0  2  0  0  0  0  0  0  0  0  0
  154.9163  142.8934  166.7221 C   0  0  0  0  0  0  0  0  0  0  0  0
  155.4679  144.1552  167.3437 C   0  0  0  0  0  0  0  0  0  0  0  0
  155.1474  143.9160  168.8100 C   0  0  0  0  0  0  0  0  0  0  0  0
  155.3453  142.5202  168.9982 O   0  0  0  0  0  0  0  0  0  0  0  0
  152.3246  144.1240  157.8657 H   0  0  0  0  0  0  0  0  0  0  0  0
  153.8260  143.8853  158.7394 H   0  0  0  0  0  0  0  0  0  0  0  0
  152.4768  144.7159  159.5151 H   0  0  0  0  0  0  0  0  0  0  0  0
  151.1111  142.6245  159.3162 H   0  0  0  0  0  0  0  0  0  0  0  0
  152.4796  141.7535  158.6876 H   0  0  0  0  0  0  0  0  0  0  0  0
  152.0250  141.3648  161.1415 H   0  0  0  0  0  0  0  0  0  0  0  0
  152.5773  144.3299  161.2902 H   0  0  0  0  0  0  0  0  0  0  0  0
  151.2954  143.4167  162.0295 H   0  0  0  0  0  0  0  0  0  0  0  0
  152.8144  144.0930  163.7828 H   0  0  0  0  0  0  0  0  0  0  0  0
  154.1985  143.3889  162.9676 H   0  0  0  0  0  0  0  0  0  0  0  0
  152.9306  142.3457  163.6115 H   0  0  0  0  0  0  0  0  0  0  0  0
  154.6493  142.2335  160.0175 H   0  0  0  0  0  0  0  0  0  0  0  0
  154.6086  142.2198  161.7461 H   0  0  0  0  0  0  0  0  0  0  0  0
  153.0398  139.1576  159.7486 H   0  0  0  0  0  0  0  0  0  0  0  0
  154.0601  140.2088  158.8195 H   0  0  0  0  0  0  0  0  0  0  0  0
  155.3693  138.3932  158.4216 H   0  0  0  0  0  0  0  0  0  0  0  0
  155.9703  138.5729  160.0589 H   0  0  0  0  0  0  0  0  0  0  0  0
  153.7854  136.8609  163.4761 H   0  0  0  0  0  0  0  0  0  0  0  0
  157.0236  142.1963  165.0526 H   0  0  0  0  0  0  0  0  0  0  0  0
  155.8098  139.1347  166.9530 H   0  0  0  0  0  0  0  0  0  0  0  0
  157.4972  139.3603  166.5534 H   0  0  0  0  0  0  0  0  0  0  0  0
  157.3504  141.7854  167.1775 H   0  0  0  0  0  0  0  0  0  0  0  0
  157.7473  140.0165  168.6955 H   0  0  0  0  0  0  0  0  0  0  0  0
  154.4408  141.0824  167.8036 H   0  0  0  0  0  0  0  0  0  0  0  0
  155.2976  142.7125  165.7193 H   0  0  0  0  0  0  0  0  0  0  0  0
  153.8324  142.9840  166.6376 H   0  0  0  0  0  0  0  0  0  0  0  0
  156.5465  144.2136  167.1927 H   0  0  0  0  0  0  0  0  0  0  0  0
  155.0126  145.0641  166.9499 H   0  0  0  0  0  0  0  0  0  0  0  0
  155.7734  144.5048  169.4808 H   0  0  0  0  0  0  0  0  0  0  0  0
  154.1037  144.1558  169.0175 H   0  0  0  0  0  0  0  0  0  0  0  0
  1  2  1  0  0  0  0
  1 29  1  0  0  0  0
  1 30  1  0  0  0  0
  1 31  1  0  0  0  0
  2  3  1  0  0  0  0
  2 32  1  0  0  0  0
  2 33  1  0  0  0  0
  3  4  1  0  0  0  0
  3  6  1  0  0  0  0
  3 34  1  0  0  0  0
  4  5  1  0  0  0  0
  4 35  1  0  0  0  0
  4 36  1  0  0  0  0
  5 37  1  0  0  0  0
  5 38  1  0  0  0  0
  5 39  1  0  0  0  0
  6  7  1  0  0  0  0
  6 40  1  0  0  0  0
  6 41  1  0  0  0  0
  7  8  1  0  0  0  0
  7 12  1  0  0  0  0
  8  9  1  0  0  0  0
  8 42  1  0  0  0  0
  8 43  1  0  0  0  0
  9 10  1  0  0  0  0
  9 44  1  0  0  0  0
  9 45  1  0  0  0  0
 10 11  3  0  0  0  0
 12 17  1  0  0  0  0
 12 13  2  0  0  0  0
 13 14  1  0  0  0  0
 14 15  2  0  0  0  0
 14 46  1  0  0  0  0
 15 16  1  0  0  0  0
 16 20  1  0  0  0  0
 16 17  2  0  0  0  0
 17 18  1  0  0  0  0
 18 19  2  0  0  0  0
 19 20  1  0  0  0  0
 19 47  1  0  0  0  0
 20 21  1  0  0  0  0
 21 22  1  0  0  0  0
 21 48  1  0  0  0  0
 21 49  1  0  0  0  0
 22 23  1  0  0  0  0
 22 24  1  0  0  0  0
 22 50  1  0  0  0  0
 23 51  1  0  0  0  0
 24 28  1  0  0  0  0
 24 25  1  0  0  0  0
 24 52  1  0  0  0  0
 25 26  1  0  0  0  0
 25 53  1  0  0  0  0
 25 54  1  0  0  0  0
 26 27  1  0  0  0  0
 26 55  1  0  0  0  0
 26 56  1  0  0  0  0
 27 28  1  0  0  0  0
 27 57  1  0  0  0  0
 27 58  1  0  0  0  0
M  END
> <s_m_source_file>
AV-unprocessed.smi

> <i_m_source_file_index>
87

> <i_lp_mmshare_version>
43012

> <i_f3d_flags>
0

> <s_epik_input>
W0NIM11bQ0gyXVtDSF0oW0NIMl1bQ0gzXSlbQ0gyXU4oW0NIMl1bQ0gyXUMjTiljKG5bY0hdbjEpYyhjMTIpbltjSF1uMltDSDJdW0NASF0oW09IXSlbQ0BASF0zW0NIMl1bQ0gyXVtDSDJdTzM=

> <s_epik_cmdline>
J2VwaWtfcHl0aG9uJywgJy1waCcsICc3LjAnLCAnLXRuJywgJzgnLCAnLW1hJywgJzIwMCcsICctbWV0YWxfYmluZGluZycsICctaW1hZScsICc8aW5maWxlLm1hZT4nLCAnLW9tYWUnLCAnPG91dGZpbGUubWFlPic=

> <r_lp_tautomer_probability>
1

> <r_epik_Ionization_Penalty>
0.000348566

> <r_epik_Ionization_Penalty_Charging>
0

> <r_epik_Ionization_Penalty_Neutral>
0.000348566

> <r_epik_State_Penalty>
-0

> <r_epik_Charging_Adjusted_Penalty>
0

> <i_epik_Tot_Q>
0

> <i_epik_Tot_abs_Q>
0

> <r_epik_Metal_State_Penalty>
-0

> <b_epik_Metal_Only>
0

> <s_lp_Force_Field>
OPLS_2005

> <r_lp_Energy>
36.7846

> <b_lp_Chiralities_Consistent>
1

> <s_lp_Variant>
AV-unprocessed.smi:87-1

> <Gold.Version>
5.8.1

> <Gold.Id.Protein>
6NUR|6NUR_protein|mol2

> <Gold.PLP.Fitness>
55.1285

> <Gold.PLP.PLP>
-54.9826

> <Gold.PLP.part.hbond>
-2.9101

> <Gold.PLP.part.metal>
0.0000

> <Gold.PLP.part.buried>
-7.1418

> <Gold.PLP.part.nonpolar>
-44.0186

> <Gold.PLP.part.repulsive>
0.1706

> <Gold.PLP.ligand.clash>
0.0000

> <Gold.PLP.ligand.torsion>
2.8014

> <Gold.PLP.Chemscore.Hbond>
1.0000

> <Gold.PLP.Chemscore.CHOScore>
0.0000

> <Gold.PLP.Chemscore.Metal>
0.0000

> <Gold.Chemscore.Hbonds>
donor molecule, donor type, donor heavy atom, donor atom, acceptor molecule, acceptor atom, score
      P1  H  6896  6907       L1    11  0.70

> <Gold.PLP.Chemscore.Internal.Correction>
2.7487

> <Gold.Rescore>
     Score         DG    S(hbond)    S(metal)    S(lipo)     H(rot)  DE(clash)    DE(int)     intcor
      9.57     -13.12       1.00        0.00     110.47       3.37       1.31       2.25       ----

> <Gold.Chemscore.Fitness>
9.5681

> <Gold.Chemscore.DG>
-13.1238

> <Gold.Chemscore.ZeroCoef>
-5.4800

> <Gold.Chemscore.Hbond>
0.9997

> <Gold.Chemscore.Metal>
0.0000

> <Gold.Chemscore.Lipo>
110.4686

> <Gold.Chemscore.Internal_Hbond>
0.0000

> <Gold.Chemscore.DEClash>
1.3075

> <Gold.Chemscore.DEInternal>
2.2482

> <Gold.Chemscore.Rot>
3.3672

> <Gold.Chemscore.Internal.Correction>
   9.000000E+99

> <Gold.Chemscore.Hbonds>
donor molecule, donor type, donor heavy atom, donor atom, acceptor molecule, acceptor atom, score
      P1  H  6896  6907       L1    11  0.71

> <Gold.Chemscore.Hbond.Weighted>
-3.3391

> <Gold.Chemscore.Metal.Weighted>
-0.0000

> <Gold.Chemscore.Lipo.Weighted>
-12.9248

> <Gold.Chemscore.Internal_Hbond.Weighted>
0.0000

> <Gold.Chemscore.DEClash.Weighted>
1.3075

> <Gold.Chemscore.DEInternal.Weighted>
2.2482

> <Gold.Chemscore.Rot.Weighted>
8.6201

> <Gold.Chemscore.Internal.Correction.Weighted>
   9.000000E+99

> <Gold.Protein.RotatedTorsions>
[ 6907 6896 6895 6894 ] final   56.48 input  -60.11 | X-H torsion
[ 7974 7965 7964 7962 ] final  -89.55 input  175.53 | X-H torsion
[ 8008 7997 7996 7995 ] final  101.96 input   59.86 | X-H torsion
[ 10167 10162 10161 10158 ] final  -49.75 input  -65.29 | X-H torsion
[ 10718 10713 10712 10709 ] final  -89.11 input   66.30 | X-H torsion
[ 10763 10752 10751 10750 ] final  -38.76 input  -60.55 | X-H torsion
[ 11005 11000 10999 10996 ] final -168.17 input  -57.11 | X-H torsion

> <Gold.Protein.ActiveResidues>
 VAL166  LYS551  ARG553  GLY616  TRP617  ASP618  TYR619  PRO620  LYS621  CYS622 
 ASP623  PHE694  ASN695  SER759  ASP760  ASP761  ALA762  ILE779  LEU786  VAL792 
 PHE793  MET794  SER795  GLU796  ALA797  LYS798  CYS799  TRP800  GLU811  SER814 

> <Gold.Protein.RotatedAtoms>
  152.3640  134.6831  160.0197 H   0  0  0  0  0  0  0  0  0  0  0  0  # atno 6907 bound_to 6896
  151.7145  133.3307  159.3307 H   0  0  0  0  0  0  0  0  0  0  0  0  # atno 6908 bound_to 6896
  150.7625  134.6437  159.6295 H   0  0  0  0  0  0  0  0  0  0  0  0  # atno 6909 bound_to 6896
  145.4383  140.9558  143.2089 H   0  0  0  0  0  0  0  0  0  0  0  0  # atno 7974 bound_to 7965
  156.1348  140.3189  155.8404 H   0  0  0  0  0  0  0  0  0  0  0  0  # atno 8008 bound_to 7997
  155.4265  140.0516  157.3039 H   0  0  0  0  0  0  0  0  0  0  0  0  # atno 8009 bound_to 7997
  154.4928  140.2099  155.9524 H   0  0  0  0  0  0  0  0  0  0  0  0  # atno 8010 bound_to 7997
  140.6670  143.2685  151.4260 H   0  0  0  0  0  0  0  0  0  0  0  0  # atno 10167 bound_to 10162
  155.9984  130.4860  150.5121 H   0  0  0  0  0  0  0  0  0  0  0  0  # atno 10718 bound_to 10713
  153.9182  135.6785  153.4748 H   0  0  0  0  0  0  0  0  0  0  0  0  # atno 10763 bound_to 10752
  153.1043  135.4813  154.8920 H   0  0  0  0  0  0  0  0  0  0  0  0  # atno 10764 bound_to 10752
  154.7492  135.3180  154.8545 H   0  0  0  0  0  0  0  0  0  0  0  0  # atno 10765 bound_to 10752
  140.5450  134.5485  157.5109 H   0  0  0  0  0  0  0  0  0  0  0  0  # atno 11005 bound_to 11000
  144.8138  139.5914  143.7017 LP  0  0  0  0  0  0  0  0  0  0  0  0  # atno 17320 bound_to 7965
  146.2570  139.6324  142.9388 LP  0  0  0  0  0  0  0  0  0  0  0  0  # atno 17321 bound_to 7965
  139.5923  144.1473  152.2103 LP  0  0  0  0  0  0  0  0  0  0  0  0  # atno 17342 bound_to 10162
  140.0831  144.5684  150.7108 LP  0  0  0  0  0  0  0  0  0  0  0  0  # atno 17343 bound_to 10162
  157.3093  131.0660  151.2012 LP  0  0  0  0  0  0  0  0  0  0  0  0  # atno 17370 bound_to 10713
  157.2964  130.6821  149.6141 LP  0  0  0  0  0  0  0  0  0  0  0  0  # atno 17371 bound_to 10713
  139.9484  134.7660  156.0506 LP  0  0  0  0  0  0  0  0  0  0  0  0  # atno 17394 bound_to 11000
  141.1205  133.6614  156.3202 LP  0  0  0  0  0  0  0  0  0  0  0  0  # atno 17395 bound_to 11000

$$$$
