AV-unprocessed.smi:3331|AV-procd|sdf|12818|dock5
  -GOLD-   2272019193D 1   1.00000     0.00000
 Structure written by MMmdl.
 47 48  0  0  0  0  0  0  0  0  2 V2000
  151.4065  145.2638  158.9466 C   0  0  0  0  0  0  0  0  0  0  0  0
  151.4664  143.7579  159.2381 C   0  0  2  0  0  0  0  0  0  0  0  0
  152.6090  143.4154  160.2213 C   0  0  0  0  0  0  0  0  0  0  0  0
  152.7767  141.8925  160.4260 C   0  0  2  0  0  0  0  0  0  0  0  0
  153.9941  141.5722  161.3037 C   0  0  0  0  0  0  0  0  0  0  0  0
  152.8590  141.1880  159.0567 C   0  0  0  0  0  0  0  0  0  0  0  0
  151.6443  141.5087  158.2969 N   0  0  0  0  0  0  0  0  0  0  0  0
  150.5942  140.6785  158.0757 C   0  0  0  0  0  0  0  0  0  0  0  0
  149.5964  141.0415  157.4496 O   0  0  0  0  0  0  0  0  0  0  0  0
  150.6244  139.2316  158.6132 C   0  0  2  0  0  0  0  0  0  0  0  0
  151.6293  138.3899  157.8102 C   0  0  0  0  0  0  0  0  0  0  0  0
  149.2875  138.5950  158.5524 N   0  3  0  0  0  0  0  0  0  0  0  0
  149.2508  137.1792  158.9779 C   0  0  0  0  0  0  0  0  0  0  0  0
  147.8147  136.7342  159.2869 C   0  0  0  0  0  0  0  0  0  0  0  0
  147.6732  136.2954  160.6617 N   0  0  0  0  0  0  0  0  0  0  0  0
  147.4603  135.0188  161.1380 C   0  0  0  0  0  0  0  0  0  0  0  0
  147.3979  135.0990  162.4997 C   0  0  0  0  0  0  0  0  0  0  0  0
  147.5898  136.4835  162.7663 C   0  0  0  0  0  0  0  0  0  0  0  0
  147.7555  137.1970  161.6637 N   0  0  0  0  0  0  0  0  0  0  0  0
  151.6090  142.9327  157.9411 C   0  0  0  0  0  0  0  0  0  0  0  0
  152.3209  145.6117  158.4652 H   0  0  0  0  0  0  0  0  0  0  0  0
  151.2748  145.8363  159.8651 H   0  0  0  0  0  0  0  0  0  0  0  0
  150.5715  145.5024  158.2874 H   0  0  0  0  0  0  0  0  0  0  0  0
  150.5233  143.4784  159.7105 H   0  0  0  0  0  0  0  0  0  0  0  0
  153.5435  143.8274  159.8375 H   0  0  0  0  0  0  0  0  0  0  0  0
  152.4319  143.9027  161.1809 H   0  0  0  0  0  0  0  0  0  0  0  0
  151.8914  141.5210  160.9448 H   0  0  0  0  0  0  0  0  0  0  0  0
  154.9191  141.9153  160.8392 H   0  0  0  0  0  0  0  0  0  0  0  0
  154.0841  140.4990  161.4737 H   0  0  0  0  0  0  0  0  0  0  0  0
  153.9119  142.0544  162.2783 H   0  0  0  0  0  0  0  0  0  0  0  0
  153.7302  141.5482  158.5069 H   0  0  0  0  0  0  0  0  0  0  0  0
  153.0318  140.1205  159.1769 H   0  0  0  0  0  0  0  0  0  0  0  0
  150.9150  139.2207  159.6631 H   0  0  0  0  0  0  0  0  0  0  0  0
  152.6296  138.8232  157.8363 H   0  0  0  0  0  0  0  0  0  0  0  0
  151.3341  138.3056  156.7633 H   0  0  0  0  0  0  0  0  0  0  0  0
  151.7035  137.3802  158.2150 H   0  0  0  0  0  0  0  0  0  0  0  0
  148.6525  139.1304  159.1276 H   0  0  0  0  0  0  0  0  0  0  0  0
  149.6734  136.5586  158.1864 H   0  0  0  0  0  0  0  0  0  0  0  0
  149.8755  137.0421  159.8614 H   0  0  0  0  0  0  0  0  0  0  0  0
  147.1175  137.5547  159.1111 H   0  0  0  0  0  0  0  0  0  0  0  0
  147.5154  135.9161  158.6300 H   0  0  0  0  0  0  0  0  0  0  0  0
  147.3708  134.1691  160.4771 H   0  0  0  0  0  0  0  0  0  0  0  0
  147.2402  134.2914  163.1993 H   0  0  0  0  0  0  0  0  0  0  0  0
  147.6133  136.9871  163.7214 H   0  0  0  0  0  0  0  0  0  0  0  0
  150.7994  143.1747  157.2510 H   0  0  0  0  0  0  0  0  0  0  0  0
  152.5283  143.2015  157.4186 H   0  0  0  0  0  0  0  0  0  0  0  0
  148.9672  138.6331  157.5954 H   0  0  0  0  0  0  0  0  0  0  0  0
  1  2  1  0  0  0  0
  1 21  1  0  0  0  0
  1 22  1  0  0  0  0
  1 23  1  0  0  0  0
  2 20  1  0  0  0  0
  2  3  1  0  0  0  0
  2 24  1  0  0  0  0
  3  4  1  0  0  0  0
  3 25  1  0  0  0  0
  3 26  1  0  0  0  0
  4  5  1  0  0  0  0
  4  6  1  0  0  0  0
  4 27  1  0  0  0  0
  5 28  1  0  0  0  0
  5 29  1  0  0  0  0
  5 30  1  0  0  0  0
  6  7  1  0  0  0  0
  6 31  1  0  0  0  0
  6 32  1  0  0  0  0
  7  8  1  0  0  0  0
  7 20  1  0  0  0  0
  8  9  2  0  0  0  0
  8 10  1  0  0  0  0
 10 11  1  0  0  0  0
 10 12  1  0  0  0  0
 10 33  1  0  0  0  0
 11 34  1  0  0  0  0
 11 35  1  0  0  0  0
 11 36  1  0  0  0  0
 12 13  1  0  0  0  0
 12 37  1  0  0  0  0
 12 47  1  0  0  0  0
 13 14  1  0  0  0  0
 13 38  1  0  0  0  0
 13 39  1  0  0  0  0
 14 15  1  0  0  0  0
 14 40  1  0  0  0  0
 14 41  1  0  0  0  0
 15 19  1  0  0  0  0
 15 16  1  0  0  0  0
 16 17  2  0  0  0  0
 16 42  1  0  0  0  0
 17 18  1  0  0  0  0
 17 43  1  0  0  0  0
 18 19  2  0  0  0  0
 18 44  1  0  0  0  0
 20 45  1  0  0  0  0
 20 46  1  0  0  0  0
M  CHG  1  12   1
M  END
> <s_m_source_file>
AV-unprocessed.smi

> <i_m_source_file_index>
3331

> <i_lp_mmshare_version>
43012

> <i_f3d_flags>
0

> <s_epik_input>
W0NIM11bQ0BASF0xW0NIMl1bQ0BASF0oW0NIM10pW0NIMl1OKFtDSDJdMSlDKD1PKVtDQEhdKFtDSDNdKVtOSF1bQ0gyXVtDSDJdbjJbY0hdW2NIXVtjSF1uMg==

> <s_epik_cmdline>
J2VwaWtfcHl0aG9uJywgJy1waCcsICc3LjAnLCAnLXRuJywgJzgnLCAnLW1hJywgJzIwMCcsICctbWV0YWxfYmluZGluZycsICctaW1hZScsICc8aW5maWxlLm1hZT4nLCAnLW9tYWUnLCAnPG91dGZpbGUubWFlPic=

> <r_lp_tautomer_probability>
1

> <r_epik_Ionization_Penalty>
0.189706

> <r_epik_Ionization_Penalty_Charging>
0.189703

> <r_epik_Ionization_Penalty_Neutral>
2.45875e-06

> <r_epik_State_Penalty>
0.179341

> <r_epik_Charging_Adjusted_Penalty>
0.369044

> <i_epik_Tot_Q>
1

> <i_epik_Tot_abs_Q>
1

> <r_epik_Metal_State_Penalty>
0.179578

> <b_epik_Metal_Only>
0

> <s_lp_Force_Field>
OPLS_2005

> <r_lp_Energy>
26.1648

> <b_lp_Chiralities_Consistent>
1

> <s_lp_Variant>
AV-unprocessed.smi:3331-2

> <Gold.Version>
5.8.1

> <Gold.Id.Protein>
6NUR|6NUR_protein|mol2

> <Gold.PLP.Fitness>
50.1844

> <Gold.PLP.PLP>
-46.7111

> <Gold.PLP.part.hbond>
-2.0000

> <Gold.PLP.part.metal>
0.0000

> <Gold.PLP.part.buried>
-5.1815

> <Gold.PLP.part.nonpolar>
-38.8021

> <Gold.PLP.part.repulsive>
0.2478

> <Gold.PLP.ligand.clash>
0.0000

> <Gold.PLP.ligand.torsion>
0.8297

> <Gold.PLP.Chemscore.Hbond>
1.6864

> <Gold.PLP.Chemscore.CHOScore>
0.0000

> <Gold.PLP.Chemscore.Metal>
0.0000

> <Gold.Chemscore.Hbonds>
donor molecule, donor type, donor heavy atom, donor atom, acceptor molecule, acceptor atom, score
      P1  H  6931  6943       L1    19  1.00
      P1  H  6934  6947       L1    19  0.69

> <Gold.PLP.Chemscore.Internal.Correction>
0.0734

> <Gold.Rescore>
     Score         DG    S(hbond)    S(metal)    S(lipo)     H(rot)  DE(clash)    DE(int)     intcor
     18.04     -18.88       1.37        0.00     113.26       1.73       0.03       0.81       ----

> <Gold.Chemscore.Fitness>
18.0424

> <Gold.Chemscore.DG>
-18.8838

> <Gold.Chemscore.ZeroCoef>
-5.4800

> <Gold.Chemscore.Hbond>
1.3681

> <Gold.Chemscore.Metal>
0.0000

> <Gold.Chemscore.Lipo>
113.2606

> <Gold.Chemscore.Internal_Hbond>
0.0000

> <Gold.Chemscore.DEClash>
0.0310

> <Gold.Chemscore.DEInternal>
0.8104

> <Gold.Chemscore.Rot>
1.7254

> <Gold.Chemscore.Internal.Correction>
   9.000000E+99

> <Gold.Chemscore.Hbonds>
donor molecule, donor type, donor heavy atom, donor atom, acceptor molecule, acceptor atom, score
      P1  H  6931  6943       L1    19  0.63
      P1  H  6934  6947       L1    19  0.45

> <Gold.Chemscore.Hbond.Weighted>
-4.5694

> <Gold.Chemscore.Metal.Weighted>
-0.0000

> <Gold.Chemscore.Lipo.Weighted>
-13.2515

> <Gold.Chemscore.Internal_Hbond.Weighted>
0.0000

> <Gold.Chemscore.DEClash.Weighted>
0.0310

> <Gold.Chemscore.DEInternal.Weighted>
0.8104

> <Gold.Chemscore.Rot.Weighted>
4.4170

> <Gold.Chemscore.Internal.Correction.Weighted>
   9.000000E+99

> <Gold.Protein.RotatedTorsions>
[ 6907 6896 6895 6894 ] final  -44.05 input  -60.11 | X-H torsion
[ 7974 7965 7964 7962 ] final   58.99 input  175.53 | X-H torsion
[ 8008 7997 7996 7995 ] final   65.08 input   59.86 | X-H torsion
[ 10167 10162 10161 10158 ] final  -33.79 input  -65.29 | X-H torsion
[ 10718 10713 10712 10709 ] final   20.18 input   66.30 | X-H torsion
[ 10763 10752 10751 10750 ] final  111.31 input  -60.55 | X-H torsion
[ 11005 11000 10999 10996 ] final  146.82 input  -57.11 | X-H torsion

> <Gold.Protein.ActiveResidues>
 VAL166  LYS551  ARG553  GLY616  TRP617  ASP618  TYR619  PRO620  LYS621  CYS622 
 ASP623  PHE694  ASN695  SER759  ASP760  ASP761  ALA762  ILE779  LEU786  VAL792 
 PHE793  MET794  SER795  GLU796  ALA797  LYS798  CYS799  TRP800  GLU811  SER814 

> <Gold.Protein.RotatedAtoms>
  150.9372  134.8783  159.7588 H   0  0  0  0  0  0  0  0  0  0  0  0  # atno 6907 bound_to 6896
  152.5064  134.3994  159.9421 H   0  0  0  0  0  0  0  0  0  0  0  0  # atno 6908 bound_to 6896
  151.4018  133.3715  159.2768 H   0  0  0  0  0  0  0  0  0  0  0  0  # atno 6909 bound_to 6896
  145.9122  139.3662  143.0529 H   0  0  0  0  0  0  0  0  0  0  0  0  # atno 7974 bound_to 7965
  155.6561  140.3497  155.4765 H   0  0  0  0  0  0  0  0  0  0  0  0  # atno 8008 bound_to 7997
  155.9808  140.1174  157.0751 H   0  0  0  0  0  0  0  0  0  0  0  0  # atno 8009 bound_to 7997
  154.4191  140.1138  156.5418 H   0  0  0  0  0  0  0  0  0  0  0  0  # atno 8010 bound_to 7997
  140.7198  143.3594  151.1993 H   0  0  0  0  0  0  0  0  0  0  0  0  # atno 10167 bound_to 10162
  157.1209  130.6549  149.5923 H   0  0  0  0  0  0  0  0  0  0  0  0  # atno 10718 bound_to 10713
  153.4615  135.3721  155.2341 H   0  0  0  0  0  0  0  0  0  0  0  0  # atno 10763 bound_to 10752
  154.8757  135.3910  154.3919 H   0  0  0  0  0  0  0  0  0  0  0  0  # atno 10764 bound_to 10752
  153.4493  135.7085  153.6183 H   0  0  0  0  0  0  0  0  0  0  0  0  # atno 10765 bound_to 10752
  140.0824  134.9089  157.1522 H   0  0  0  0  0  0  0  0  0  0  0  0  # atno 11005 bound_to 11000
  145.8657  140.9449  143.0676 LP  0  0  0  0  0  0  0  0  0  0  0  0  # atno 17320 bound_to 7965
  144.6744  140.0589  143.7476 LP  0  0  0  0  0  0  0  0  0  0  0  0  # atno 17321 bound_to 7965
  139.7143  143.9326  152.2960 LP  0  0  0  0  0  0  0  0  0  0  0  0  # atno 17342 bound_to 10162
  139.9061  144.6883  150.8612 LP  0  0  0  0  0  0  0  0  0  0  0  0  # atno 17343 bound_to 10162
  155.9829  130.4845  150.6904 LP  0  0  0  0  0  0  0  0  0  0  0  0  # atno 17370 bound_to 10713
  157.4477  131.0869  151.0878 LP  0  0  0  0  0  0  0  0  0  0  0  0  # atno 17371 bound_to 10713
  140.3468  134.2642  155.7204 LP  0  0  0  0  0  0  0  0  0  0  0  0  # atno 17394 bound_to 11000
  141.2051  133.7868  157.0250 LP  0  0  0  0  0  0  0  0  0  0  0  0  # atno 17395 bound_to 11000

$$$$
