AV-unprocessed.smi:175|AV-procd|sdf|1431|dock10
  -GOLD-   2262019213D 1   1.00000     0.00000
 Structure written by MMmdl.
 47 50  0  0  0  0  0  0  0  0  1 V2000
  145.5795  135.5067  151.2141 C   0  0  0  0  0  0  0  0  0  0  0  0
  146.2764  134.1422  151.3418 C   0  0  2  0  0  0  0  0  0  0  0  0
  145.5108  133.1328  150.6985 O   0  0  0  0  0  0  0  0  0  0  0  0
  145.9512  131.8862  151.2053 C   0  0  0  0  0  0  0  0  0  0  0  0
  146.0563  132.1558  152.7007 C   0  0  0  0  0  0  0  0  0  0  0  0
  146.5281  133.6107  152.7790 C   0  0  2  0  0  0  0  0  0  0  0  0
  145.7304  134.2831  153.7393 O   0  0  0  0  0  0  0  0  0  0  0  0
  148.0111  133.7147  153.2152 C   0  0  0  0  0  0  0  0  0  0  0  0
  148.1842  134.1166  154.6031 N   0  0  0  0  0  0  0  0  0  0  0  0
  148.3587  135.3978  155.0784 C   0  0  0  0  0  0  0  0  0  0  0  0
  148.4859  135.5006  156.3736 N   0  0  0  0  0  0  0  0  0  0  0  0
  148.4045  134.1892  156.8225 C   0  0  0  0  0  0  0  0  0  0  0  0
  148.4646  133.5804  158.1022 C   0  0  0  0  0  0  0  0  0  0  0  0
  148.6371  134.3042  159.2303 N   0  0  0  0  0  0  0  0  0  0  0  0
  148.3206  135.7287  159.1235 C   0  0  0  0  0  0  0  0  0  0  0  0
  147.4641  135.9769  160.3491 C   0  0  0  0  0  0  0  0  0  0  0  0
  147.0010  137.0792  160.6372 O   0  0  0  0  0  0  0  0  0  0  0  0
  147.3100  134.8444  161.0372 N   0  0  0  0  0  0  0  0  0  0  0  0
  146.5664  134.6704  162.2830 C   0  0  0  0  0  0  0  0  0  0  0  0
  145.3626  133.7252  162.1203 C   0  0  0  0  0  0  0  0  0  0  0  0
  145.8034  132.4693  162.0592 F   0  0  0  0  0  0  0  0  0  0  0  0
  144.5246  133.8289  163.1513 F   0  0  0  0  0  0  0  0  0  0  0  0
  144.7069  134.0002  160.9927 F   0  0  0  0  0  0  0  0  0  0  0  0
  148.0216  133.7331  160.4287 C   0  0  0  0  0  0  0  0  0  0  0  0
  148.3548  132.2273  158.1717 N   0  0  0  0  0  0  0  0  0  0  0  0
  148.1906  131.5148  157.0528 C   0  0  0  0  0  0  0  0  0  0  0  0
  148.1126  131.9463  155.7914 N   0  0  0  0  0  0  0  0  0  0  0  0
  148.2232  133.3047  155.7234 C   0  0  0  0  0  0  0  0  0  0  0  0
  146.1513  136.2889  151.7141 H   0  0  0  0  0  0  0  0  0  0  0  0
  144.5798  135.4878  151.6487 H   0  0  0  0  0  0  0  0  0  0  0  0
  145.4760  135.7905  150.1666 H   0  0  0  0  0  0  0  0  0  0  0  0
  147.2231  134.1859  150.8017 H   0  0  0  0  0  0  0  0  0  0  0  0
  145.2522  131.0836  150.9690 H   0  0  0  0  0  0  0  0  0  0  0  0
  146.9246  131.6355  150.7809 H   0  0  0  0  0  0  0  0  0  0  0  0
  145.0658  132.0410  153.1449 H   0  0  0  0  0  0  0  0  0  0  0  0
  146.7212  131.4528  153.2038 H   0  0  0  0  0  0  0  0  0  0  0  0
  146.2935  134.8183  154.2772 H   0  0  0  0  0  0  0  0  0  0  0  0
  148.5160  132.7584  153.0714 H   0  0  0  0  0  0  0  0  0  0  0  0
  148.5381  134.4328  152.5854 H   0  0  0  0  0  0  0  0  0  0  0  0
  148.3836  136.2623  154.4311 H   0  0  0  0  0  0  0  0  0  0  0  0
  149.2335  136.3227  159.1711 H   0  0  0  0  0  0  0  0  0  0  0  0
  147.7763  135.9959  158.2161 H   0  0  0  0  0  0  0  0  0  0  0  0
  147.2401  134.2776  163.0457 H   0  0  0  0  0  0  0  0  0  0  0  0
  146.2315  135.6435  162.6461 H   0  0  0  0  0  0  0  0  0  0  0  0
  147.3334  132.9133  160.2135 H   0  0  0  0  0  0  0  0  0  0  0  0
  148.7958  133.3631  161.1017 H   0  0  0  0  0  0  0  0  0  0  0  0
  148.1103  130.4462  157.1872 H   0  0  0  0  0  0  0  0  0  0  0  0
  1  2  1  0  0  0  0
  1 29  1  0  0  0  0
  1 30  1  0  0  0  0
  1 31  1  0  0  0  0
  2  6  1  0  0  0  0
  2  3  1  0  0  0  0
  2 32  1  0  0  0  0
  3  4  1  0  0  0  0
  4  5  1  0  0  0  0
  4 33  1  0  0  0  0
  4 34  1  0  0  0  0
  5  6  1  0  0  0  0
  5 35  1  0  0  0  0
  5 36  1  0  0  0  0
  6  7  1  0  0  0  0
  6  8  1  0  0  0  0
  7 37  1  0  0  0  0
  8  9  1  0  0  0  0
  8 38  1  0  0  0  0
  8 39  1  0  0  0  0
  9 28  1  0  0  0  0
  9 10  1  0  0  0  0
 10 11  2  0  0  0  0
 10 40  1  0  0  0  0
 11 12  1  0  0  0  0
 12 28  2  0  0  0  0
 12 13  1  0  0  0  0
 13 14  1  0  0  0  0
 13 25  2  0  0  0  0
 14 24  1  0  0  0  0
 14 15  1  0  0  0  0
 15 16  1  0  0  0  0
 15 41  1  0  0  0  0
 15 42  1  0  0  0  0
 16 17  2  0  0  0  0
 16 18  1  0  0  0  0
 18 19  1  0  0  0  0
 18 24  1  0  0  0  0
 19 20  1  0  0  0  0
 19 43  1  0  0  0  0
 19 44  1  0  0  0  0
 20 21  1  0  0  0  0
 20 22  1  0  0  0  0
 20 23  1  0  0  0  0
 24 45  1  0  0  0  0
 24 46  1  0  0  0  0
 25 26  1  0  0  0  0
 26 27  2  0  0  0  0
 26 47  1  0  0  0  0
 27 28  1  0  0  0  0
M  END
> <s_m_source_file>
AV-unprocessed.smi

> <i_m_source_file_index>
175

> <i_lp_mmshare_version>
43012

> <i_f3d_flags>
0

> <s_epik_input>
W0NIMl0xW0NIMl1PW0NAQEhdKFtDSDNdKVtDQEBdMShbT0hdKVtDSDJdbihbY0hdbjIpYyhjMjMpbltjSF1uYzNONFtDSDJdQyg9TylOKFtDSDJdNClbQ0gyXUMoRikoRilG

> <s_epik_cmdline>
J2VwaWtfcHl0aG9uJywgJy1waCcsICc3LjAnLCAnLXRuJywgJzgnLCAnLW1hJywgJzIwMCcsICctbWV0YWxfYmluZGluZycsICctaW1hZScsICc8aW5maWxlLm1hZT4nLCAnLW9tYWUnLCAnPG91dGZpbGUubWFlPic=

> <r_lp_tautomer_probability>
1

> <r_epik_Ionization_Penalty>
0.000307802

> <r_epik_Ionization_Penalty_Charging>
0

> <r_epik_Ionization_Penalty_Neutral>
0.000307802

> <r_epik_State_Penalty>
-0

> <r_epik_Charging_Adjusted_Penalty>
0

> <i_epik_Tot_Q>
0

> <i_epik_Tot_abs_Q>
0

> <r_epik_Metal_State_Penalty>
-0

> <b_epik_Metal_Only>
0

> <s_epik_Chemistry_Notes>
This compound contains an acetal/aminal-like group ( X-CH(R)-Y where X, Y are N, S, or O) that may be acid/base labile, releasing an aldehyde.

> <s_lp_Force_Field>
OPLS_2005

> <r_lp_Energy>
38.2687

> <b_lp_Chiralities_Consistent>
1

> <s_lp_Variant>
AV-unprocessed.smi:175-3

> <Gold.Version>
5.8.1

> <Gold.Id.Protein>
6NUR|6NUR_protein|mol2

> <Gold.PLP.Fitness>
40.0885

> <Gold.PLP.PLP>
-35.1165

> <Gold.PLP.part.hbond>
-2.0000

> <Gold.PLP.part.metal>
0.0000

> <Gold.PLP.part.buried>
-5.4344

> <Gold.PLP.part.nonpolar>
-28.1950

> <Gold.PLP.part.repulsive>
0.1421

> <Gold.PLP.ligand.clash>
0.0000

> <Gold.PLP.ligand.torsion>
2.1069

> <Gold.PLP.Chemscore.Hbond>
2.0000

> <Gold.PLP.Chemscore.CHOScore>
1.0000

> <Gold.PLP.Chemscore.Metal>
0.0000

> <Gold.Chemscore.Hbonds>
donor molecule, donor type, donor heavy atom, donor atom, acceptor molecule, acceptor atom, score
      P1  H  6896  6909       L1    14  1.00
      P1  H  6934  6947       L1    17  1.00
      L1  C    10    40       P1  7948  0.69

> <Gold.PLP.Chemscore.Internal.Correction>
0.1857

> <Gold.Rescore>
     Score         DG    S(hbond)    S(metal)    S(lipo)     H(rot)  DE(clash)    DE(int)     intcor
      5.21      -9.22       1.65        0.00      51.52       3.05       0.05       3.96       ----

> <Gold.Chemscore.Fitness>
5.2091

> <Gold.Chemscore.DG>
-9.2182

> <Gold.Chemscore.ZeroCoef>
-5.4800

> <Gold.Chemscore.Hbond>
1.6512

> <Gold.Chemscore.Metal>
0.0000

> <Gold.Chemscore.Lipo>
51.5205

> <Gold.Chemscore.Internal_Hbond>
0.0000

> <Gold.Chemscore.DEClash>
0.0505

> <Gold.Chemscore.DEInternal>
3.9587

> <Gold.Chemscore.Rot>
3.0487

> <Gold.Chemscore.Internal.Correction>
   9.000000E+99

> <Gold.Chemscore.Hbonds>
donor molecule, donor type, donor heavy atom, donor atom, acceptor molecule, acceptor atom, score
      P1  H  6896  6909       L1    14  0.09
      P1  H  6934  6947       L1    17  0.98

> <Gold.Chemscore.Hbond.Weighted>
-5.5149

> <Gold.Chemscore.Metal.Weighted>
-0.0000

> <Gold.Chemscore.Lipo.Weighted>
-6.0279

> <Gold.Chemscore.Internal_Hbond.Weighted>
0.0000

> <Gold.Chemscore.DEClash.Weighted>
0.0505

> <Gold.Chemscore.DEInternal.Weighted>
3.9587

> <Gold.Chemscore.Rot.Weighted>
7.8046

> <Gold.Chemscore.Internal.Correction.Weighted>
   9.000000E+99

> <Gold.Protein.RotatedTorsions>
[ 6907 6896 6895 6894 ] final   24.00 input  -60.11 | X-H torsion
[ 7974 7965 7964 7962 ] final  -46.29 input  175.53 | X-H torsion
[ 8008 7997 7996 7995 ] final   15.89 input   59.86 | X-H torsion
[ 10167 10162 10161 10158 ] final -166.56 input  -65.29 | X-H torsion
[ 10718 10713 10712 10709 ] final  143.15 input   66.30 | X-H torsion
[ 10763 10752 10751 10750 ] final -106.74 input  -60.55 | X-H torsion
[ 11005 11000 10999 10996 ] final   95.13 input  -57.11 | X-H torsion

> <Gold.Protein.ActiveResidues>
 VAL166  LYS551  ARG553  GLY616  TRP617  ASP618  TYR619  PRO620  LYS621  CYS622 
 ASP623  PHE694  ASN695  SER759  ASP760  ASP761  ALA762  ILE779  LEU786  VAL792 
 PHE793  MET794  SER795  GLU796  ALA797  LYS798  CYS799  TRP800  GLU811  SER814 

> <Gold.Protein.RotatedAtoms>
  151.9509  135.0169  160.0541 H   0  0  0  0  0  0  0  0  0  0  0  0  # atno 6907 bound_to 6896
  152.1954  133.4798  159.5038 H   0  0  0  0  0  0  0  0  0  0  0  0  # atno 6908 bound_to 6896
  150.6943  134.1576  159.4207 H   0  0  0  0  0  0  0  0  0  0  0  0  # atno 6909 bound_to 6896
  145.9734  140.7359  142.9399 H   0  0  0  0  0  0  0  0  0  0  0  0  # atno 7974 bound_to 7965
  154.8692  140.2956  155.5492 H   0  0  0  0  0  0  0  0  0  0  0  0  # atno 8008 bound_to 7997
  156.3021  140.2463  156.3611 H   0  0  0  0  0  0  0  0  0  0  0  0  # atno 8009 bound_to 7997
  154.8836  140.0397  157.1786 H   0  0  0  0  0  0  0  0  0  0  0  0  # atno 8010 bound_to 7997
  139.6107  144.0820  152.1839 H   0  0  0  0  0  0  0  0  0  0  0  0  # atno 10167 bound_to 10162
  157.3722  131.0980  151.0817 H   0  0  0  0  0  0  0  0  0  0  0  0  # atno 10718 bound_to 10713
  154.8031  135.4701  154.0325 H   0  0  0  0  0  0  0  0  0  0  0  0  # atno 10763 bound_to 10752
  153.1815  135.6841  153.8478 H   0  0  0  0  0  0  0  0  0  0  0  0  # atno 10764 bound_to 10752
  153.8027  135.3228  155.3369 H   0  0  0  0  0  0  0  0  0  0  0  0  # atno 10765 bound_to 10752
  139.8792  134.8882  156.3966 H   0  0  0  0  0  0  0  0  0  0  0  0  # atno 11005 bound_to 11000
  144.6842  140.2787  143.7295 LP  0  0  0  0  0  0  0  0  0  0  0  0  # atno 17320 bound_to 7965
  145.7873  139.1914  143.2123 LP  0  0  0  0  0  0  0  0  0  0  0  0  # atno 17321 bound_to 7965
  140.0438  144.5986  150.7389 LP  0  0  0  0  0  0  0  0  0  0  0  0  # atno 17342 bound_to 10162
  140.7317  143.2697  151.3928 LP  0  0  0  0  0  0  0  0  0  0  0  0  # atno 17343 bound_to 10162
  157.1917  130.6355  149.5707 LP  0  0  0  0  0  0  0  0  0  0  0  0  # atno 17370 bound_to 10713
  155.9758  130.4720  150.6484 LP  0  0  0  0  0  0  0  0  0  0  0  0  # atno 17371 bound_to 10713
  140.9296  133.7588  156.0008 LP  0  0  0  0  0  0  0  0  0  0  0  0  # atno 17394 bound_to 11000
  140.8346  134.3138  157.5336 LP  0  0  0  0  0  0  0  0  0  0  0  0  # atno 17395 bound_to 11000

$$$$
