AV-unprocessed.smi:1824|AV-procd|sdf|7410|dock7
  -GOLD-   22720 9 83D 1   1.00000     0.00000
 Structure written by MMmdl.
 45 47  0  0  0  0  0  0  0  0  2 V2000
  151.2353  134.1916  156.6888 C   0  0  0  0  0  0  0  0  0  0  0  0
  150.0522  135.1639  156.7468 C   0  0  2  0  0  0  0  0  0  0  0  0
  150.4904  136.6279  156.5524 C   0  0  0  0  0  0  0  0  0  0  0  0
  149.3727  137.5554  156.6838 N   0  0  0  0  0  0  0  0  0  0  0  0
  149.8106  138.9367  156.4780 C   0  0  0  0  0  0  0  0  0  0  0  0
  151.1323  139.0987  155.7024 C   0  0  1  0  0  0  0  0  0  0  0  0
  150.8299  139.6018  154.4172 O   0  0  0  0  0  0  0  0  0  0  0  0
  152.1133  140.0618  156.4012 C   0  0  0  0  0  0  0  0  0  0  0  0
  151.4962  141.3479  156.7479 N   0  0  0  0  0  0  0  0  0  0  0  0
  150.6422  142.1328  156.0362 C   0  0  0  0  0  0  0  0  0  0  0  0
  150.3584  143.2254  156.7987 N   0  3  0  0  0  0  0  0  0  0  0  0
  151.0377  143.1343  158.0163 C   0  0  0  0  0  0  0  0  0  0  0  0
  151.0683  143.9909  159.1120 C   0  0  0  0  0  0  0  0  0  0  0  0
  151.8686  143.5967  160.2049 C   0  0  0  0  0  0  0  0  0  0  0  0
  151.9336  144.3937  161.2975 F   0  0  0  0  0  0  0  0  0  0  0  0
  152.6007  142.3902  160.1817 C   0  0  0  0  0  0  0  0  0  0  0  0
  153.3559  142.0487  161.2525 F   0  0  0  0  0  0  0  0  0  0  0  0
  152.5623  141.5301  159.0646 C   0  0  0  0  0  0  0  0  0  0  0  0
  151.7689  141.9288  157.9902 C   0  0  0  0  0  0  0  0  0  0  0  0
  148.7403  137.3493  157.9847 C   0  0  0  0  0  0  0  0  0  0  0  0
  148.2971  135.8873  158.1830 C   0  0  2  0  0  0  0  0  0  0  0  0
  147.7040  135.6451  159.5748 C   0  0  0  0  0  0  0  0  0  0  0  0
  149.4245  135.0319  158.0194 O   0  0  0  0  0  0  0  0  0  0  0  0
  151.7421  134.2475  155.7250 H   0  0  0  0  0  0  0  0  0  0  0  0
  150.9012  133.1635  156.8294 H   0  0  0  0  0  0  0  0  0  0  0  0
  151.9674  134.4135  157.4659 H   0  0  0  0  0  0  0  0  0  0  0  0
  149.3362  134.8907  155.9698 H   0  0  0  0  0  0  0  0  0  0  0  0
  151.2624  136.8760  157.2828 H   0  0  0  0  0  0  0  0  0  0  0  0
  150.9468  136.7382  155.5679 H   0  0  0  0  0  0  0  0  0  0  0  0
  149.0212  139.4917  155.9681 H   0  0  0  0  0  0  0  0  0  0  0  0
  149.9321  139.4190  157.4492 H   0  0  0  0  0  0  0  0  0  0  0  0
  151.6024  138.1273  155.5540 H   0  0  0  0  0  0  0  0  0  0  0  0
  150.1601  139.0578  154.0325 H   0  0  0  0  0  0  0  0  0  0  0  0
  152.4929  139.6177  157.3226 H   0  0  0  0  0  0  0  0  0  0  0  0
  152.9837  140.2612  155.7748 H   0  0  0  0  0  0  0  0  0  0  0  0
  150.2613  141.9271  155.0459 H   0  0  0  0  0  0  0  0  0  0  0  0
  150.5093  144.9146  159.1347 H   0  0  0  0  0  0  0  0  0  0  0  0
  153.1258  140.6089  159.0561 H   0  0  0  0  0  0  0  0  0  0  0  0
  149.4322  137.6322  158.7797 H   0  0  0  0  0  0  0  0  0  0  0  0
  147.8664  137.9908  158.0880 H   0  0  0  0  0  0  0  0  0  0  0  0
  147.5464  135.6295  157.4336 H   0  0  0  0  0  0  0  0  0  0  0  0
  146.8278  136.2718  159.7423 H   0  0  0  0  0  0  0  0  0  0  0  0
  148.4300  135.8676  160.3572 H   0  0  0  0  0  0  0  0  0  0  0  0
  147.3962  134.6058  159.6917 H   0  0  0  0  0  0  0  0  0  0  0  0
  149.7443  143.9753  156.5071 H   0  0  0  0  0  0  0  0  0  0  0  0
  1  2  1  0  0  0  0
  1 24  1  0  0  0  0
  1 25  1  0  0  0  0
  1 26  1  0  0  0  0
  2 23  1  0  0  0  0
  2  3  1  0  0  0  0
  2 27  1  0  0  0  0
  3  4  1  0  0  0  0
  3 28  1  0  0  0  0
  3 29  1  0  0  0  0
  4  5  1  0  0  0  0
  4 20  1  0  0  0  0
  5  6  1  0  0  0  0
  5 30  1  0  0  0  0
  5 31  1  0  0  0  0
  6  7  1  0  0  0  0
  6  8  1  0  0  0  0
  6 32  1  0  0  0  0
  7 33  1  0  0  0  0
  8  9  1  0  0  0  0
  8 34  1  0  0  0  0
  8 35  1  0  0  0  0
  9 19  1  0  0  0  0
  9 10  1  0  0  0  0
 10 11  2  0  0  0  0
 10 36  1  0  0  0  0
 11 12  1  0  0  0  0
 11 45  1  0  0  0  0
 12 19  2  0  0  0  0
 12 13  1  0  0  0  0
 13 14  2  0  0  0  0
 13 37  1  0  0  0  0
 14 15  1  0  0  0  0
 14 16  1  0  0  0  0
 16 17  1  0  0  0  0
 16 18  2  0  0  0  0
 18 19  1  0  0  0  0
 18 38  1  0  0  0  0
 20 21  1  0  0  0  0
 20 39  1  0  0  0  0
 20 40  1  0  0  0  0
 21 22  1  0  0  0  0
 21 23  1  0  0  0  0
 21 41  1  0  0  0  0
 22 42  1  0  0  0  0
 22 43  1  0  0  0  0
 22 44  1  0  0  0  0
M  CHG  1  11   1
M  END
> <s_m_source_file>
AV-unprocessed.smi

> <i_m_source_file_index>
1824

> <i_lp_mmshare_version>
43012

> <i_f3d_flags>
0

> <s_epik_input>
W0NIM11bQ0BASF0xW0NIMl1OKFtDSDJdW0NASF0oTzEpW0NIM10pW0NIMl1bQ0BIXShbT0hdKVtDSDJdbihbY0hdbjIpYyhjMjMpW2NIXWMoRiljKEYpW2NIXTM=

> <s_epik_cmdline>
J2VwaWtfcHl0aG9uJywgJy1waCcsICc3LjAnLCAnLXRuJywgJzgnLCAnLW1hJywgJzIwMCcsICctbWV0YWxfYmluZGluZycsICctaW1hZScsICc8aW5maWxlLm1hZT4nLCAnLW9tYWUnLCAnPG91dGZpbGUubWFlPic=

> <r_epik_Ionization_Penalty>
2.58709

> <r_epik_Ionization_Penalty_Charging>
2.37273

> <r_epik_Ionization_Penalty_Neutral>
0.214359

> <r_epik_State_Penalty>
2.71799

> <r_epik_Charging_Adjusted_Penalty>
5.09071

> <i_epik_Tot_Q>
1

> <i_epik_Tot_abs_Q>
1

> <r_epik_Metal_State_Penalty>
6.80217

> <b_epik_Metal_Only>
0

> <s_lp_Force_Field>
OPLS_2005

> <r_lp_Energy>
28.8683

> <b_lp_Chiralities_Consistent>
1

> <s_lp_Variant>
AV-unprocessed.smi:1824-18

> <Gold.Version>
5.8.1

> <Gold.Id.Protein>
6NUR|6NUR_protein|mol2

> <Gold.PLP.Fitness>
48.9712

> <Gold.PLP.PLP>
-42.0817

> <Gold.PLP.part.hbond>
-3.0000

> <Gold.PLP.part.metal>
0.0000

> <Gold.PLP.part.buried>
-5.8605

> <Gold.PLP.part.nonpolar>
-32.5194

> <Gold.PLP.part.repulsive>
0.0128

> <Gold.PLP.ligand.clash>
2.1361

> <Gold.PLP.ligand.torsion>
1.4907

> <Gold.PLP.Chemscore.Hbond>
4.0000

> <Gold.PLP.Chemscore.CHOScore>
0.0000

> <Gold.PLP.Chemscore.Metal>
0.0000

> <Gold.Chemscore.Hbonds>
donor molecule, donor type, donor heavy atom, donor atom, acceptor molecule, acceptor atom, score
      L1  H    11    45       P1  8028  1.37
      P1  H  6896  6907       L1    23  0.92
      P1  H  7989  7998       L1     7  1.00

> <Gold.PLP.Chemscore.Internal.Correction>
0.0068

> <Gold.Rescore>
     Score         DG    S(hbond)    S(metal)    S(lipo)     H(rot)  DE(clash)    DE(int)     intcor
     17.24     -19.88       2.75        0.00      95.22       2.32       0.08       2.56       ----

> <Gold.Chemscore.Fitness>
17.2406

> <Gold.Chemscore.DG>
-19.8776

> <Gold.Chemscore.ZeroCoef>
-5.4800

> <Gold.Chemscore.Hbond>
2.7540

> <Gold.Chemscore.Metal>
0.0000

> <Gold.Chemscore.Lipo>
95.2220

> <Gold.Chemscore.Internal_Hbond>
0.0000

> <Gold.Chemscore.DEClash>
0.0805

> <Gold.Chemscore.DEInternal>
2.5566

> <Gold.Chemscore.Rot>
2.3210

> <Gold.Chemscore.Internal.Correction>
   9.000000E+99

> <Gold.Chemscore.Hbonds>
donor molecule, donor type, donor heavy atom, donor atom, acceptor molecule, acceptor atom, score
      L1  H    11    45       P1  8028  0.68
      P1  H  6896  6907       L1    23  0.62
      P1  H  7989  7998       L1     7  0.98

> <Gold.Chemscore.Hbond.Weighted>
-9.1983

> <Gold.Chemscore.Metal.Weighted>
-0.0000

> <Gold.Chemscore.Lipo.Weighted>
-11.1410

> <Gold.Chemscore.Internal_Hbond.Weighted>
0.0000

> <Gold.Chemscore.DEClash.Weighted>
0.0805

> <Gold.Chemscore.DEInternal.Weighted>
2.5566

> <Gold.Chemscore.Rot.Weighted>
5.9416

> <Gold.Chemscore.Internal.Correction.Weighted>
   9.000000E+99

> <Gold.Protein.RotatedTorsions>
[ 6907 6896 6895 6894 ] final -102.66 input  -60.11 | X-H torsion
[ 7974 7965 7964 7962 ] final -145.19 input  175.53 | X-H torsion
[ 8008 7997 7996 7995 ] final  -87.97 input   59.86 | X-H torsion
[ 10167 10162 10161 10158 ] final  -24.53 input  -65.29 | X-H torsion
[ 10718 10713 10712 10709 ] final  111.05 input   66.30 | X-H torsion
[ 10763 10752 10751 10750 ] final  176.27 input  -60.55 | X-H torsion
[ 11005 11000 10999 10996 ] final -179.96 input  -57.11 | X-H torsion

> <Gold.Protein.ActiveResidues>
 VAL166  LYS551  ARG553  GLY616  TRP617  ASP618  TYR619  PRO620  LYS621  CYS622 
 ASP623  PHE694  ASN695  SER759  ASP760  ASP761  ALA762  ILE779  LEU786  VAL792 
 PHE793  MET794  SER795  GLU796  ALA797  LYS798  CYS799  TRP800  GLU811  SER814 

> <Gold.Protein.RotatedAtoms>
  150.7206  134.0547  159.3810 H   0  0  0  0  0  0  0  0  0  0  0  0  # atno 6907 bound_to 6896
  151.8525  135.0550  160.0470 H   0  0  0  0  0  0  0  0  0  0  0  0  # atno 6908 bound_to 6896
  152.2779  133.5407  159.5516 H   0  0  0  0  0  0  0  0  0  0  0  0  # atno 6909 bound_to 6896
  144.8245  140.5615  143.5556 H   0  0  0  0  0  0  0  0  0  0  0  0  # atno 7974 bound_to 7965
  154.6693  140.0559  157.0148 H   0  0  0  0  0  0  0  0  0  0  0  0  # atno 8008 bound_to 7997
  155.1112  140.3238  155.4502 H   0  0  0  0  0  0  0  0  0  0  0  0  # atno 8009 bound_to 7997
  156.2651  140.2014  156.6236 H   0  0  0  0  0  0  0  0  0  0  0  0  # atno 8010 bound_to 7997
  140.7288  143.4345  151.0751 H   0  0  0  0  0  0  0  0  0  0  0  0  # atno 10167 bound_to 10162
  157.6464  131.0944  150.6692 H   0  0  0  0  0  0  0  0  0  0  0  0  # atno 10718 bound_to 10713
  154.4789  135.2774  155.1586 H   0  0  0  0  0  0  0  0  0  0  0  0  # atno 10763 bound_to 10752
  154.3304  135.6191  153.5552 H   0  0  0  0  0  0  0  0  0  0  0  0  # atno 10764 bound_to 10752
  152.9873  135.5764  154.5185 H   0  0  0  0  0  0  0  0  0  0  0  0  # atno 10765 bound_to 10752
  140.4129  134.6676  157.4623 H   0  0  0  0  0  0  0  0  0  0  0  0  # atno 11005 bound_to 11000
  145.5032  139.1482  143.3646 LP  0  0  0  0  0  0  0  0  0  0  0  0  # atno 17320 bound_to 7965
  146.2550  140.5172  142.8877 LP  0  0  0  0  0  0  0  0  0  0  0  0  # atno 17321 bound_to 7965
  139.8006  143.8090  152.3162 LP  0  0  0  0  0  0  0  0  0  0  0  0  # atno 17342 bound_to 10162
  139.8105  144.7338  150.9704 LP  0  0  0  0  0  0  0  0  0  0  0  0  # atno 17343 bound_to 10162
  156.7008  130.4623  149.5573 LP  0  0  0  0  0  0  0  0  0  0  0  0  # atno 17370 bound_to 10713
  156.1796  130.6490  151.0936 LP  0  0  0  0  0  0  0  0  0  0  0  0  # atno 17371 bound_to 10713
  140.0255  134.6484  155.9179 LP  0  0  0  0  0  0  0  0  0  0  0  0  # atno 17394 bound_to 11000
  141.1814  133.6547  156.5036 LP  0  0  0  0  0  0  0  0  0  0  0  0  # atno 17395 bound_to 11000

$$$$
