AV-unprocessed.smi:1222|AV-procd|sdf|5124|dock9
  -GOLD-   22720 4183D 1   1.00000     0.00000
 Structure written by MMmdl.
 36 38  0  0  0  0  0  0  0  0  3 V2000
  145.5045  138.1709  154.4077 O   0  0  0  0  0  0  0  0  0  0  0  0
  146.5332  137.7526  153.8718 C   0  0  0  0  0  0  0  0  0  0  0  0
  147.8003  137.9852  154.2816 N   0  5  0  0  0  0  0  0  0  0  0  0
  148.2447  139.2466  154.4036 C   0  0  0  0  0  0  0  0  0  0  0  0
  149.3956  139.5608  155.0098 N   0  0  0  0  0  0  0  0  0  0  0  0
  149.6617  140.9312  155.0188 C   0  0  0  0  0  0  0  0  0  0  0  0
  148.6970  141.6766  154.3945 C   0  0  0  0  0  0  0  0  0  0  0  0
  147.4153  140.6740  153.7773 S   0  0  0  0  0  0  0  0  0  0  0  0
  146.4589  136.9885  152.7722 N   0  0  0  0  0  0  0  0  0  0  0  0
  145.2423  136.5575  152.0886 C   0  0  2  0  0  0  0  0  0  0  0  0
  144.3954  135.6825  153.0273 C   0  0  0  0  0  0  0  0  0  0  0  0
  143.1637  135.1146  152.2979 C   0  0  0  0  0  0  0  0  0  0  0  0
  143.5349  134.3749  151.0640 N   0  3  2  0  0  0  0  0  0  0  0  0
  144.1266  133.0434  151.3327 C   0  0  0  0  0  0  0  0  0  0  0  0
  145.0075  132.5351  150.2152 C   0  0  0  0  0  0  0  0  0  0  0  0
  143.6230  131.9585  150.4094 C   0  0  0  0  0  0  0  0  0  0  0  0
  144.3486  135.2036  150.1376 C   0  0  0  0  0  0  0  0  0  0  0  0
  145.6075  135.7697  150.8202 C   0  0  0  0  0  0  0  0  0  0  0  0
  150.5647  141.2889  155.4907 H   0  0  0  0  0  0  0  0  0  0  0  0
  148.6612  142.7471  154.2606 H   0  0  0  0  0  0  0  0  0  0  0  0
  147.3344  136.6761  152.3781 H   0  0  0  0  0  0  0  0  0  0  0  0
  144.6415  137.4179  151.7890 H   0  0  0  0  0  0  0  0  0  0  0  0
  144.9998  134.8656  153.4239 H   0  0  0  0  0  0  0  0  0  0  0  0
  144.0727  136.2682  153.8890 H   0  0  0  0  0  0  0  0  0  0  0  0
  142.5922  134.4670  152.9639 H   0  0  0  0  0  0  0  0  0  0  0  0
  142.4978  135.9328  152.0204 H   0  0  0  0  0  0  0  0  0  0  0  0
  144.3680  132.8126  152.3687 H   0  0  0  0  0  0  0  0  0  0  0  0
  145.1673  133.1778  149.3512 H   0  0  0  0  0  0  0  0  0  0  0  0
  145.8518  131.9052  150.4879 H   0  0  0  0  0  0  0  0  0  0  0  0
  143.5549  130.9500  150.8118 H   0  0  0  0  0  0  0  0  0  0  0  0
  142.8639  132.2174  149.6732 H   0  0  0  0  0  0  0  0  0  0  0  0
  144.6224  134.6201  149.2580 H   0  0  0  0  0  0  0  0  0  0  0  0
  143.7292  136.0270  149.7794 H   0  0  0  0  0  0  0  0  0  0  0  0
  146.1425  136.4162  150.1234 H   0  0  0  0  0  0  0  0  0  0  0  0
  146.2917  134.9574  151.0683 H   0  0  0  0  0  0  0  0  0  0  0  0
  142.6681  134.1862  150.5811 H   0  0  0  0  0  0  0  0  0  0  0  0
  1  2  2  0  0  0  0
  2  3  1  0  0  0  0
  2  9  1  0  0  0  0
  3  4  1  0  0  0  0
  4  8  1  0  0  0  0
  4  5  2  0  0  0  0
  5  6  1  0  0  0  0
  6  7  2  0  0  0  0
  6 19  1  0  0  0  0
  7  8  1  0  0  0  0
  7 20  1  0  0  0  0
  9 10  1  0  0  0  0
  9 21  1  0  0  0  0
 10 18  1  0  0  0  0
 10 11  1  0  0  0  0
 10 22  1  0  0  0  0
 11 12  1  0  0  0  0
 11 23  1  0  0  0  0
 11 24  1  0  0  0  0
 12 13  1  0  0  0  0
 12 25  1  0  0  0  0
 12 26  1  0  0  0  0
 13 14  1  0  0  0  0
 13 17  1  0  0  0  0
 13 36  1  0  0  0  0
 14 16  1  0  0  0  0
 14 15  1  0  0  0  0
 14 27  1  0  0  0  0
 15 16  1  0  0  0  0
 15 28  1  0  0  0  0
 15 29  1  0  0  0  0
 16 30  1  0  0  0  0
 16 31  1  0  0  0  0
 17 18  1  0  0  0  0
 17 32  1  0  0  0  0
 17 33  1  0  0  0  0
 18 34  1  0  0  0  0
 18 35  1  0  0  0  0
M  CHG  1   3  -1
M  CHG  1  13   1
M  END
> <s_m_source_file>
AV-unprocessed.smi

> <i_m_source_file_index>
1222

> <i_lp_mmshare_version>
43012

> <i_f3d_flags>
0

> <s_epik_input>
czFbY0hdW2NIXW5jMVtOSF1DKD1PKVtOSF1bQ0hdMltDSDJdW0NIMl1OKFtDSDJdW0NIMl0yKVtDSF0zW0NIMl1bQ0gyXTM=

> <s_epik_cmdline>
J2VwaWtfcHl0aG9uJywgJy1waCcsICc3LjAnLCAnLXRuJywgJzgnLCAnLW1hJywgJzIwMCcsICctbWV0YWxfYmluZGluZycsICctaW1hZScsICc8aW5maWxlLm1hZT4nLCAnLW9tYWUnLCAnPG91dGZpbGUubWFlPic=

> <r_lp_tautomer_probability>
0.999

> <r_epik_Ionization_Penalty>
6.4609

> <r_epik_Ionization_Penalty_Charging>
5.58663

> <r_epik_Ionization_Penalty_Neutral>
0.874262

> <r_epik_State_Penalty>
5.57752

> <r_epik_Charging_Adjusted_Penalty>
11.1642

> <i_epik_Tot_Q>
0

> <i_epik_Tot_abs_Q>
2

> <r_epik_Metal_State_Penalty>
1.58738

> <b_epik_Metal_Only>
1

> <s_lp_Force_Field>
OPLS_2005

> <r_lp_Energy>
18.4685

> <b_lp_Chiralities_Consistent>
1

> <s_lp_Variant>
AV-unprocessed.smi:1222-5

> <Gold.Version>
5.8.1

> <Gold.Id.Protein>
6NUR|6NUR_protein|mol2

> <Gold.PLP.Fitness>
41.2505

> <Gold.PLP.PLP>
-30.8683

> <Gold.PLP.part.hbond>
-2.0000

> <Gold.PLP.part.metal>
0.0000

> <Gold.PLP.part.buried>
-3.7476

> <Gold.PLP.part.nonpolar>
-26.2671

> <Gold.PLP.part.repulsive>
0.3487

> <Gold.PLP.ligand.clash>
0.0099

> <Gold.PLP.ligand.torsion>
1.4387

> <Gold.PLP.Chemscore.Hbond>
3.0000

> <Gold.PLP.Chemscore.CHOScore>
1.0000

> <Gold.PLP.Chemscore.Metal>
0.0000

> <Gold.Chemscore.Hbonds>
donor molecule, donor type, donor heavy atom, donor atom, acceptor molecule, acceptor atom, score
      L1  H     9    21       P1  7948  1.00
      L1  H    13    36       P1 10186  2.00
      L1  C     7    20       P1  8028  1.00

> <Gold.PLP.Chemscore.Internal.Correction>
1.2695

> <Gold.Rescore>
     Score         DG    S(hbond)    S(metal)    S(lipo)     H(rot)  DE(clash)    DE(int)     intcor
     16.02     -17.59       1.87        0.00      77.38       1.25       0.07       1.49       ----

> <Gold.Chemscore.Fitness>
16.0241

> <Gold.Chemscore.DG>
-17.5855

> <Gold.Chemscore.ZeroCoef>
-5.4800

> <Gold.Chemscore.Hbond>
1.8697

> <Gold.Chemscore.Metal>
0.0000

> <Gold.Chemscore.Lipo>
77.3773

> <Gold.Chemscore.Internal_Hbond>
0.0000

> <Gold.Chemscore.DEClash>
0.0700

> <Gold.Chemscore.DEInternal>
1.4915

> <Gold.Chemscore.Rot>
1.2470

> <Gold.Chemscore.Internal.Correction>
   9.000000E+99

> <Gold.Chemscore.Hbonds>
donor molecule, donor type, donor heavy atom, donor atom, acceptor molecule, acceptor atom, score
      L1  H     9    21       P1  7948  1.00
      L1  H    13    36       P1 10186  0.69

> <Gold.Chemscore.Hbond.Weighted>
-6.2447

> <Gold.Chemscore.Metal.Weighted>
-0.0000

> <Gold.Chemscore.Lipo.Weighted>
-9.0531

> <Gold.Chemscore.Internal_Hbond.Weighted>
0.0000

> <Gold.Chemscore.DEClash.Weighted>
0.0700

> <Gold.Chemscore.DEInternal.Weighted>
1.4915

> <Gold.Chemscore.Rot.Weighted>
3.1924

> <Gold.Chemscore.Internal.Correction.Weighted>
   9.000000E+99

> <Gold.Protein.RotatedTorsions>
[ 6907 6896 6895 6894 ] final  169.05 input  -60.11 | X-H torsion
[ 7974 7965 7964 7962 ] final  120.60 input  175.53 | X-H torsion
[ 8008 7997 7996 7995 ] final -105.93 input   59.86 | X-H torsion
[ 10167 10162 10161 10158 ] final  -88.14 input  -65.29 | X-H torsion
[ 10718 10713 10712 10709 ] final   21.88 input   66.30 | X-H torsion
[ 10763 10752 10751 10750 ] final -100.15 input  -60.55 | X-H torsion
[ 11005 11000 10999 10996 ] final  121.40 input  -57.11 | X-H torsion

> <Gold.Protein.ActiveResidues>
 VAL166  LYS551  ARG553  GLY616  TRP617  ASP618  TYR619  PRO620  LYS621  CYS622 
 ASP623  PHE694  ASN695  SER759  ASP760  ASP761  ALA762  ILE779  LEU786  VAL792 
 PHE793  MET794  SER795  GLU796  ALA797  LYS798  CYS799  TRP800  GLU811  SER814 

> <Gold.Protein.RotatedAtoms>
  151.8380  133.3419  159.3634 H   0  0  0  0  0  0  0  0  0  0  0  0  # atno 6907 bound_to 6896
  150.7243  134.5418  159.5760 H   0  0  0  0  0  0  0  0  0  0  0  0  # atno 6908 bound_to 6896
  152.2886  134.7748  160.0433 H   0  0  0  0  0  0  0  0  0  0  0  0  # atno 6909 bound_to 6896
  145.1292  139.3338  143.4674 H   0  0  0  0  0  0  0  0  0  0  0  0  # atno 7974 bound_to 7965
  154.9070  140.0411  157.1925 H   0  0  0  0  0  0  0  0  0  0  0  0  # atno 8008 bound_to 7997
  154.8386  140.2910  155.5653 H   0  0  0  0  0  0  0  0  0  0  0  0  # atno 8009 bound_to 7997
  156.2991  140.2487  156.3325 H   0  0  0  0  0  0  0  0  0  0  0  0  # atno 8010 bound_to 7997
  140.3776  143.2764  151.9424 H   0  0  0  0  0  0  0  0  0  0  0  0  # atno 10167 bound_to 10162
  157.1445  130.6647  149.5992 H   0  0  0  0  0  0  0  0  0  0  0  0  # atno 10718 bound_to 10713
  154.7556  135.4946  153.9368 H   0  0  0  0  0  0  0  0  0  0  0  0  # atno 10763 bound_to 10752
  153.1192  135.6727  153.9373 H   0  0  0  0  0  0  0  0  0  0  0  0  # atno 10764 bound_to 10752
  153.9110  135.3099  155.3427 H   0  0  0  0  0  0  0  0  0  0  0  0  # atno 10765 bound_to 10752
  139.9224  134.9638  156.7953 H   0  0  0  0  0  0  0  0  0  0  0  0  # atno 11005 bound_to 11000
  146.3515  140.1284  142.8598 LP  0  0  0  0  0  0  0  0  0  0  0  0  # atno 17320 bound_to 7965
  145.0654  140.9118  143.4913 LP  0  0  0  0  0  0  0  0  0  0  0  0  # atno 17321 bound_to 7965
  139.4798  144.5849  151.7870 LP  0  0  0  0  0  0  0  0  0  0  0  0  # atno 17342 bound_to 10162
  140.4970  144.1225  150.5962 LP  0  0  0  0  0  0  0  0  0  0  0  0  # atno 17343 bound_to 10162
  155.9782  130.4766  150.6641 LP  0  0  0  0  0  0  0  0  0  0  0  0  # atno 17370 bound_to 10713
  157.4276  131.0845  151.1070 LP  0  0  0  0  0  0  0  0  0  0  0  0  # atno 17371 bound_to 10713
  140.6434  133.9797  155.7719 LP  0  0  0  0  0  0  0  0  0  0  0  0  # atno 17394 bound_to 11000
  141.0756  134.0140  157.3462 LP  0  0  0  0  0  0  0  0  0  0  0  0  # atno 17395 bound_to 11000

$$$$
