AV-unprocessed.smi:334|AV-procd|sdf|2366|dock4
  -GOLD-   2262022283D 1   1.00000     0.00000
 Structure written by MMmdl.
 44 46  0  0  0  0  0  0  0  0  3 V2000
  153.7536  141.0383  160.7025 C   0  0  0  0  0  0  0  0  0  0  0  0
  152.5189  141.7062  160.0744 C   0  0  2  0  0  0  0  0  0  0  0  0
  151.6746  140.6992  159.4418 N   0  0  0  0  0  0  0  0  0  0  0  0
  152.0929  139.6973  158.6507 C   0  0  0  0  0  0  0  0  0  0  0  0
  153.2628  139.5715  158.2914 O   0  0  0  0  0  0  0  0  0  0  0  0
  151.0532  138.6540  158.2069 C   0  0  0  0  0  0  0  0  0  0  0  0
  150.6611  138.7478  156.7880 N   0  0  0  0  0  0  0  0  0  0  0  0
  150.0256  139.9357  156.3757 C   0  0  0  0  0  0  0  0  0  0  0  0
  149.6059  140.1205  155.1088 C   0  0  0  0  0  0  0  0  0  0  0  0
  148.9425  141.3410  154.7066 N   0  3  0  0  0  0  0  0  0  0  0  0
  148.3269  141.9823  155.5519 O   0  0  0  0  0  0  0  0  0  0  0  0
  149.0153  141.6997  153.5350 O   0  5  0  0  0  0  0  0  0  0  0  0
  149.8330  139.0477  154.1601 C   0  0  0  0  0  0  0  0  0  0  0  0
  150.4357  137.9072  154.5489 C   0  0  0  0  0  0  0  0  0  0  0  0
  150.8829  137.7041  155.9305 C   0  0  0  0  0  0  0  0  0  0  0  0
  151.4144  136.6562  156.2971 O   0  0  0  0  0  0  0  0  0  0  0  0
  152.9071  142.7744  159.0251 C   0  0  2  0  0  0  0  0  0  0  0  0
  153.2847  144.1518  159.6137 C   0  0  0  0  0  0  0  0  0  0  0  0
  152.4200  145.1268  158.7924 C   0  0  2  0  0  0  0  0  0  0  0  0
  150.9531  145.0042  159.2454 C   0  0  0  0  0  0  0  0  0  0  0  0
  150.5292  143.6463  158.6573 C   0  0  0  0  0  0  0  0  0  0  0  0
  151.8235  143.1502  157.9812 C   0  0  1  0  0  0  0  0  0  0  0  0
  152.3858  144.4539  157.4251 C   0  0  0  0  0  0  0  0  0  0  0  0
  154.3907  141.7719  161.1964 H   0  0  0  0  0  0  0  0  0  0  0  0
  154.3556  140.5282  159.9498 H   0  0  0  0  0  0  0  0  0  0  0  0
  153.4652  140.3015  161.4528 H   0  0  0  0  0  0  0  0  0  0  0  0
  151.9524  142.1881  160.8729 H   0  0  0  0  0  0  0  0  0  0  0  0
  150.6933  140.7287  159.6769 H   0  0  0  0  0  0  0  0  0  0  0  0
  151.4569  137.6645  158.4244 H   0  0  0  0  0  0  0  0  0  0  0  0
  150.1734  138.7453  158.8464 H   0  0  0  0  0  0  0  0  0  0  0  0
  149.8960  140.6691  157.1589 H   0  0  0  0  0  0  0  0  0  0  0  0
  149.5218  139.1512  153.1309 H   0  0  0  0  0  0  0  0  0  0  0  0
  150.5941  137.1206  153.8256 H   0  0  0  0  0  0  0  0  0  0  0  0
  153.7670  142.3957  158.4691 H   0  0  0  0  0  0  0  0  0  0  0  0
  153.0796  144.2327  160.6820 H   0  0  0  0  0  0  0  0  0  0  0  0
  154.3468  144.3510  159.4662 H   0  0  0  0  0  0  0  0  0  0  0  0
  152.7937  146.1510  158.7945 H   0  0  0  0  0  0  0  0  0  0  0  0
  150.8513  145.0369  160.3307 H   0  0  0  0  0  0  0  0  0  0  0  0
  150.3463  145.8087  158.8283 H   0  0  0  0  0  0  0  0  0  0  0  0
  150.1434  142.9602  159.4105 H   0  0  0  0  0  0  0  0  0  0  0  0
  149.7425  143.7843  157.9144 H   0  0  0  0  0  0  0  0  0  0  0  0
  151.6531  142.3791  157.2292 H   0  0  0  0  0  0  0  0  0  0  0  0
  151.7188  144.9471  156.7157 H   0  0  0  0  0  0  0  0  0  0  0  0
  153.3724  144.3442  156.9712 H   0  0  0  0  0  0  0  0  0  0  0  0
  1  2  1  0  0  0  0
  1 24  1  0  0  0  0
  1 25  1  0  0  0  0
  1 26  1  0  0  0  0
  2  3  1  0  0  0  0
  2 17  1  0  0  0  0
  2 27  1  0  0  0  0
  3  4  1  0  0  0  0
  3 28  1  0  0  0  0
  4  5  2  0  0  0  0
  4  6  1  0  0  0  0
  6  7  1  0  0  0  0
  6 29  1  0  0  0  0
  6 30  1  0  0  0  0
  7 15  1  0  0  0  0
  7  8  1  0  0  0  0
  8  9  2  0  0  0  0
  8 31  1  0  0  0  0
  9 10  1  0  0  0  0
  9 13  1  0  0  0  0
 10 11  2  0  0  0  0
 10 12  1  0  0  0  0
 13 14  2  0  0  0  0
 13 32  1  0  0  0  0
 14 15  1  0  0  0  0
 14 33  1  0  0  0  0
 15 16  2  0  0  0  0
 17 22  1  0  0  0  0
 17 18  1  0  0  0  0
 17 34  1  0  0  0  0
 18 19  1  0  0  0  0
 18 35  1  0  0  0  0
 18 36  1  0  0  0  0
 19 23  1  0  0  0  0
 19 20  1  0  0  0  0
 19 37  1  0  0  0  0
 20 21  1  0  0  0  0
 20 38  1  0  0  0  0
 20 39  1  0  0  0  0
 21 22  1  0  0  0  0
 21 40  1  0  0  0  0
 21 41  1  0  0  0  0
 22 23  1  0  0  0  0
 22 42  1  0  0  0  0
 23 43  1  0  0  0  0
 23 44  1  0  0  0  0
M  CHG  1  10   1
M  CHG  1  12  -1
M  END
> <s_m_source_file>
AV-unprocessed.smi

> <i_m_source_file_index>
334

> <i_lp_mmshare_version>
43012

> <i_f3d_flags>
0

> <s_epik_input>
W0NIMl0xW0NIMl1bQ0BIXShbQ0gyXTIpW0NAQEhdKFtDSDJdW0NAQEhdMTIpW0NASF0oW0NIM10pW05IXUMoPU8pW0NIMl1uM1tjSF1jKFtOK10oPU8pW08tXSlbY0hdW2NIXWMzPU8=

> <s_epik_cmdline>
J2VwaWtfcHl0aG9uJywgJy1waCcsICc3LjAnLCAnLXRuJywgJzgnLCAnLW1hJywgJzIwMCcsICctbWV0YWxfYmluZGluZycsICctaW1hZScsICc8aW5maWxlLm1hZT4nLCAnLW9tYWUnLCAnPG91dGZpbGUubWFlPic=

> <r_lp_tautomer_probability>
1

> <r_epik_Ionization_Penalty>
2.17081e-08

> <r_epik_Ionization_Penalty_Charging>
8.1195e-11

> <r_epik_Ionization_Penalty_Neutral>
2.16269e-08

> <r_epik_State_Penalty>
-0

> <r_epik_Charging_Adjusted_Penalty>
8.1195e-11

> <i_epik_Tot_Q>
0

> <i_epik_Tot_abs_Q>
2

> <r_epik_Metal_State_Penalty>
-0

> <b_epik_Metal_Only>
0

> <s_lp_Force_Field>
OPLS_2005

> <r_lp_Energy>
61.6433

> <b_lp_Chiralities_Consistent>
1

> <s_lp_Variant>
AV-unprocessed.smi:334-5

> <Gold.Version>
5.8.1

> <Gold.Id.Protein>
6NUR|6NUR_protein|mol2

> <Gold.PLP.Fitness>
52.4983

> <Gold.PLP.PLP>
-45.8696

> <Gold.PLP.part.hbond>
-4.0000

> <Gold.PLP.part.metal>
0.0000

> <Gold.PLP.part.buried>
-7.3258

> <Gold.PLP.part.nonpolar>
-38.1891

> <Gold.PLP.part.repulsive>
3.3419

> <Gold.PLP.ligand.clash>
0.0000

> <Gold.PLP.ligand.torsion>
1.1420

> <Gold.PLP.Chemscore.Hbond>
2.9613

> <Gold.PLP.Chemscore.CHOScore>
0.0000

> <Gold.PLP.Chemscore.Metal>
0.0000

> <Gold.Chemscore.Hbonds>
donor molecule, donor type, donor heavy atom, donor atom, acceptor molecule, acceptor atom, score
      P1  H  7997  8010       L1     5  1.00
      P1  H  8011  8017       L1    12  0.70
      P1  H 10752 10763       L1    16  0.02

> <Gold.PLP.Chemscore.Internal.Correction>
0.0288

> <Gold.Rescore>
     Score         DG    S(hbond)    S(metal)    S(lipo)     H(rot)  DE(clash)    DE(int)     intcor
     22.47     -25.51       2.77        0.00     130.28       1.75       1.43       1.61       ----

> <Gold.Chemscore.Fitness>
22.4682

> <Gold.Chemscore.DG>
-25.5086

> <Gold.Chemscore.ZeroCoef>
-5.4800

> <Gold.Chemscore.Hbond>
2.7722

> <Gold.Chemscore.Metal>
0.0000

> <Gold.Chemscore.Lipo>
130.2797

> <Gold.Chemscore.Internal_Hbond>
0.0000

> <Gold.Chemscore.DEClash>
1.4306

> <Gold.Chemscore.DEInternal>
1.6098

> <Gold.Chemscore.Rot>
1.7474

> <Gold.Chemscore.Internal.Correction>
   9.000000E+99

> <Gold.Chemscore.Hbonds>
donor molecule, donor type, donor heavy atom, donor atom, acceptor molecule, acceptor atom, score
      P1  H  7997  8010       L1     5  0.99
      P1  H  8011  8017       L1    12  0.69
      P1  H 10752 10763       L1    16  0.07

> <Gold.Chemscore.Hbond.Weighted>
-9.2592

> <Gold.Chemscore.Metal.Weighted>
-0.0000

> <Gold.Chemscore.Lipo.Weighted>
-15.2427

> <Gold.Chemscore.Internal_Hbond.Weighted>
0.0000

> <Gold.Chemscore.DEClash.Weighted>
1.4306

> <Gold.Chemscore.DEInternal.Weighted>
1.6098

> <Gold.Chemscore.Rot.Weighted>
4.4733

> <Gold.Chemscore.Internal.Correction.Weighted>
   9.000000E+99

> <Gold.Protein.RotatedTorsions>
[ 6907 6896 6895 6894 ] final  -55.72 input  -60.11 | X-H torsion
[ 7974 7965 7964 7962 ] final   90.19 input  175.53 | X-H torsion
[ 8008 7997 7996 7995 ] final   22.55 input   59.86 | X-H torsion
[ 10167 10162 10161 10158 ] final  160.05 input  -65.29 | X-H torsion
[ 10718 10713 10712 10709 ] final  -70.10 input   66.30 | X-H torsion
[ 10763 10752 10751 10750 ] final   79.55 input  -60.55 | X-H torsion
[ 11005 11000 10999 10996 ] final  -52.55 input  -57.11 | X-H torsion

> <Gold.Protein.ActiveResidues>
 VAL166  LYS551  ARG553  GLY616  TRP617  ASP618  TYR619  PRO620  LYS621  CYS622 
 ASP623  PHE694  ASN695  SER759  ASP760  ASP761  ALA762  ILE779  LEU786  VAL792 
 PHE793  MET794  SER795  GLU796  ALA797  LYS798  CYS799  TRP800  GLU811  SER814 

> <Gold.Protein.RotatedAtoms>
  150.8228  134.7444  159.6786 H   0  0  0  0  0  0  0  0  0  0  0  0  # atno 6907 bound_to 6896
  152.4342  134.5716  159.9932 H   0  0  0  0  0  0  0  0  0  0  0  0  # atno 6908 bound_to 6896
  151.5896  133.3330  159.3061 H   0  0  0  0  0  0  0  0  0  0  0  0  # atno 6909 bound_to 6896
  145.5223  139.2280  143.2665 H   0  0  0  0  0  0  0  0  0  0  0  0  # atno 7974 bound_to 7965
  154.9674  140.3086  155.5003 H   0  0  0  0  0  0  0  0  0  0  0  0  # atno 8008 bound_to 7997
  156.2970  140.2290  156.4703 H   0  0  0  0  0  0  0  0  0  0  0  0  # atno 8009 bound_to 7997
  154.7908  140.0440  157.1188 H   0  0  0  0  0  0  0  0  0  0  0  0  # atno 8010 bound_to 7997
  139.4837  144.4671  151.8627 H   0  0  0  0  0  0  0  0  0  0  0  0  # atno 10167 bound_to 10162
  156.0423  130.4325  150.2246 H   0  0  0  0  0  0  0  0  0  0  0  0  # atno 10718 bound_to 10713
  153.0961  135.4836  154.8781 H   0  0  0  0  0  0  0  0  0  0  0  0  # atno 10763 bound_to 10752
  154.7326  135.3063  154.8868 H   0  0  0  0  0  0  0  0  0  0  0  0  # atno 10764 bound_to 10752
  153.9499  135.6824  153.4797 H   0  0  0  0  0  0  0  0  0  0  0  0  # atno 10765 bound_to 10752
  141.0930  133.6629  156.4041 H   0  0  0  0  0  0  0  0  0  0  0  0  # atno 11005 bound_to 11000
  146.2098  140.6035  142.9064 LP  0  0  0  0  0  0  0  0  0  0  0  0  # atno 17320 bound_to 7965
  144.7670  140.5552  143.6696 LP  0  0  0  0  0  0  0  0  0  0  0  0  # atno 17321 bound_to 7965
  140.4137  144.2335  150.5888 LP  0  0  0  0  0  0  0  0  0  0  0  0  # atno 17342 bound_to 10162
  140.4941  143.2338  151.8775 LP  0  0  0  0  0  0  0  0  0  0  0  0  # atno 17343 bound_to 10162
  157.0339  131.0015  151.3304 LP  0  0  0  0  0  0  0  0  0  0  0  0  # atno 17370 bound_to 10713
  157.5257  130.8026  149.7860 LP  0  0  0  0  0  0  0  0  0  0  0  0  # atno 17371 bound_to 10713
  140.5206  134.6307  157.5317 LP  0  0  0  0  0  0  0  0  0  0  0  0  # atno 17394 bound_to 11000
  139.9760  134.7214  155.9949 LP  0  0  0  0  0  0  0  0  0  0  0  0  # atno 17395 bound_to 11000

$$$$
