AV-unprocessed.smi:801|AV-procd|sdf|3790|dock7
  -GOLD-   22720 1223D 1   1.00000     0.00000
 Structure written by MMmdl.
 43 44  0  0  0  0  0  0  0  0  2 V2000
  150.1012  134.6402  155.1469 C   0  0  0  0  0  0  0  0  0  0  0  0
  149.8282  135.5659  156.1839 O   0  0  0  0  0  0  0  0  0  0  0  0
  148.9355  136.5886  155.7760 C   0  0  0  0  0  0  0  0  0  0  0  0
  148.4922  137.3846  157.0123 C   0  0  0  0  0  0  0  0  0  0  0  0
  149.6472  137.7453  157.8623 N   0  0  0  0  0  0  0  0  0  0  0  0
  150.1937  139.0535  157.7712 C   0  0  0  0  0  0  0  0  0  0  0  0
  149.6546  139.9450  156.8281 N   0  0  0  0  0  0  0  0  0  0  0  0
  150.3375  140.5231  155.8234 C   0  0  0  0  0  0  0  0  0  0  0  0
  149.5655  141.5434  154.9945 C   0  0  0  0  0  0  0  0  0  0  0  0
  151.5159  140.2833  155.5599 O   0  0  0  0  0  0  0  0  0  0  0  0
  151.2575  139.4191  158.5432 C   0  0  0  0  0  0  0  0  0  0  0  0
  151.8420  140.6833  158.4280 N   0  0  0  0  0  0  0  0  0  0  0  0
  152.9616  141.3024  159.1216 C   0  0  0  0  0  0  0  0  0  0  0  0
  152.6495  142.6896  159.6562 C   0  0  0  0  0  0  0  0  0  0  0  0
  152.6820  142.9488  161.0444 C   0  0  0  0  0  0  0  0  0  0  0  0
  152.3864  144.2364  161.5333 C   0  0  0  0  0  0  0  0  0  0  0  0
  152.0530  145.2706  160.6377 C   0  0  0  0  0  0  0  0  0  0  0  0
  152.0125  145.0158  159.2534 C   0  0  0  0  0  0  0  0  0  0  0  0
  152.3077  143.7283  158.7642 C   0  0  0  0  0  0  0  0  0  0  0  0
  151.7980  138.4235  159.4868 C   0  0  0  0  0  0  0  0  0  0  0  0
  152.7275  138.6978  160.2445 O   0  0  0  0  0  0  0  0  0  0  0  0
  151.2385  137.1846  159.4954 N   0  5  0  0  0  0  0  0  0  0  0  0
  150.1939  136.8187  158.7029 C   0  0  0  0  0  0  0  0  0  0  0  0
  149.7339  135.6762  158.7246 O   0  0  0  0  0  0  0  0  0  0  0  0
  150.7912  133.8779  155.5085 H   0  0  0  0  0  0  0  0  0  0  0  0
  150.5628  135.1324  154.2899 H   0  0  0  0  0  0  0  0  0  0  0  0
  149.1904  134.1398  154.8150 H   0  0  0  0  0  0  0  0  0  0  0  0
  149.4250  137.2487  155.0581 H   0  0  0  0  0  0  0  0  0  0  0  0
  148.0698  136.1471  155.2800 H   0  0  0  0  0  0  0  0  0  0  0  0
  147.9368  138.2706  156.7051 H   0  0  0  0  0  0  0  0  0  0  0  0
  147.7546  136.8057  157.5708 H   0  0  0  0  0  0  0  0  0  0  0  0
  148.7262  140.2903  157.0227 H   0  0  0  0  0  0  0  0  0  0  0  0
  149.3035  142.4073  155.6058 H   0  0  0  0  0  0  0  0  0  0  0  0
  148.6472  141.1029  154.6050 H   0  0  0  0  0  0  0  0  0  0  0  0
  150.1627  141.8895  154.1502 H   0  0  0  0  0  0  0  0  0  0  0  0
  151.4078  141.2943  157.7520 H   0  0  0  0  0  0  0  0  0  0  0  0
  153.2648  140.6569  159.9468 H   0  0  0  0  0  0  0  0  0  0  0  0
  153.8090  141.3844  158.4403 H   0  0  0  0  0  0  0  0  0  0  0  0
  152.9322  142.1611  161.7402 H   0  0  0  0  0  0  0  0  0  0  0  0
  152.4139  144.4300  162.5954 H   0  0  0  0  0  0  0  0  0  0  0  0
  151.8260  146.2579  161.0122 H   0  0  0  0  0  0  0  0  0  0  0  0
  151.7546  145.8082  158.5663 H   0  0  0  0  0  0  0  0  0  0  0  0
  152.2724  143.5421  157.7007 H   0  0  0  0  0  0  0  0  0  0  0  0
  1  2  1  0  0  0  0
  1 25  1  0  0  0  0
  1 26  1  0  0  0  0
  1 27  1  0  0  0  0
  2  3  1  0  0  0  0
  3  4  1  0  0  0  0
  3 28  1  0  0  0  0
  3 29  1  0  0  0  0
  4  5  1  0  0  0  0
  4 30  1  0  0  0  0
  4 31  1  0  0  0  0
  5 23  1  0  0  0  0
  5  6  1  0  0  0  0
  6  7  1  0  0  0  0
  6 11  2  0  0  0  0
  7  8  1  0  0  0  0
  7 32  1  0  0  0  0
  8  9  1  0  0  0  0
  8 10  2  0  0  0  0
  9 33  1  0  0  0  0
  9 34  1  0  0  0  0
  9 35  1  0  0  0  0
 11 12  1  0  0  0  0
 11 20  1  0  0  0  0
 12 13  1  0  0  0  0
 12 36  1  0  0  0  0
 13 14  1  0  0  0  0
 13 37  1  0  0  0  0
 13 38  1  0  0  0  0
 14 19  1  0  0  0  0
 14 15  2  0  0  0  0
 15 16  1  0  0  0  0
 15 39  1  0  0  0  0
 16 17  2  0  0  0  0
 16 40  1  0  0  0  0
 17 18  1  0  0  0  0
 17 41  1  0  0  0  0
 18 19  2  0  0  0  0
 18 42  1  0  0  0  0
 19 43  1  0  0  0  0
 20 21  2  0  0  0  0
 20 22  1  0  0  0  0
 22 23  1  0  0  0  0
 23 24  2  0  0  0  0
M  CHG  1  22  -1
M  END
> <s_m_source_file>
AV-unprocessed.smi

> <i_m_source_file_index>
801

> <i_lp_mmshare_version>
43012

> <i_f3d_flags>
0

> <s_epik_input>
W0NIM11PW0NIMl1bQ0gyXW4xYyhbTkhdQyg9TylbQ0gzXSljKGMoPU8pW25IXWMxPU8pW05IXVtDSDJdYzJbY0hdW2NIXVtjSF1bY0hdW2NIXTI=

> <s_epik_cmdline>
J2VwaWtfcHl0aG9uJywgJy1waCcsICc3LjAnLCAnLXRuJywgJzgnLCAnLW1hJywgJzIwMCcsICctbWV0YWxfYmluZGluZycsICctaW1hZScsICc8aW5maWxlLm1hZT4nLCAnLW9tYWUnLCAnPG91dGZpbGUubWFlPic=

> <r_lp_tautomer_probability>
0.999901

> <r_epik_Ionization_Penalty>
3.93073

> <r_epik_Ionization_Penalty_Charging>
1.379e-07

> <r_epik_Ionization_Penalty_Neutral>
3.93073

> <r_epik_State_Penalty>
3.9304

> <r_epik_Charging_Adjusted_Penalty>
3.9304

> <i_epik_Tot_Q>
-1

> <i_epik_Tot_abs_Q>
1

> <r_epik_Metal_State_Penalty>
0.600886

> <b_epik_Metal_Only>
1

> <s_lp_Force_Field>
OPLS_2005

> <r_lp_Energy>
31.5589

> <b_lp_Chiralities_Consistent>
1

> <s_lp_Variant>
AV-unprocessed.smi:801-2

> <Gold.Version>
5.8.1

> <Gold.Id.Protein>
6NUR|6NUR_protein|mol2

> <Gold.PLP.Fitness>
51.2219

> <Gold.PLP.PLP>
-42.9810

> <Gold.PLP.part.hbond>
-3.0000

> <Gold.PLP.part.metal>
0.0000

> <Gold.PLP.part.buried>
-6.1915

> <Gold.PLP.part.nonpolar>
-35.1671

> <Gold.PLP.part.repulsive>
0.2091

> <Gold.PLP.ligand.clash>
0.0000

> <Gold.PLP.ligand.torsion>
0.9434

> <Gold.PLP.Chemscore.Hbond>
3.0000

> <Gold.PLP.Chemscore.CHOScore>
0.0000

> <Gold.PLP.Chemscore.Metal>
0.0000

> <Gold.Chemscore.Hbonds>
donor molecule, donor type, donor heavy atom, donor atom, acceptor molecule, acceptor atom, score
      P1  H  6896  6908       L1    22  0.26
      P1  H  7989  7998       L1    10  0.66

> <Gold.PLP.Chemscore.Internal.Correction>
1.1278

> <Gold.Rescore>
     Score         DG    S(hbond)    S(metal)    S(lipo)     H(rot)  DE(clash)    DE(int)     intcor
     11.30     -16.71       1.53        0.00      95.75       1.98       0.08       5.33       ----

> <Gold.Chemscore.Fitness>
11.2952

> <Gold.Chemscore.DG>
-16.7136

> <Gold.Chemscore.ZeroCoef>
-5.4800

> <Gold.Chemscore.Hbond>
1.5286

> <Gold.Chemscore.Metal>
0.0000

> <Gold.Chemscore.Lipo>
95.7513

> <Gold.Chemscore.Internal_Hbond>
0.0000

> <Gold.Chemscore.DEClash>
0.0850

> <Gold.Chemscore.DEInternal>
5.3335

> <Gold.Chemscore.Rot>
1.9824

> <Gold.Chemscore.Internal.Correction>
   9.000000E+99

> <Gold.Chemscore.Hbonds>
donor molecule, donor type, donor heavy atom, donor atom, acceptor molecule, acceptor atom, score
      P1  H  6896  6908       L1    24  0.01
      P1  H  7989  7998       L1    10  0.22

> <Gold.Chemscore.Hbond.Weighted>
-5.1056

> <Gold.Chemscore.Metal.Weighted>
-0.0000

> <Gold.Chemscore.Lipo.Weighted>
-11.2029

> <Gold.Chemscore.Internal_Hbond.Weighted>
0.0000

> <Gold.Chemscore.DEClash.Weighted>
0.0850

> <Gold.Chemscore.DEInternal.Weighted>
5.3335

> <Gold.Chemscore.Rot.Weighted>
5.0749

> <Gold.Chemscore.Internal.Correction.Weighted>
   9.000000E+99

> <Gold.Protein.RotatedTorsions>
[ 6907 6896 6895 6894 ] final -136.04 input  -60.11 | X-H torsion
[ 7974 7965 7964 7962 ] final -177.14 input  175.53 | X-H torsion
[ 8008 7997 7996 7995 ] final  -34.96 input   59.86 | X-H torsion
[ 10167 10162 10161 10158 ] final    3.44 input  -65.29 | X-H torsion
[ 10718 10713 10712 10709 ] final  -99.38 input   66.30 | X-H torsion
[ 10763 10752 10751 10750 ] final  102.87 input  -60.55 | X-H torsion
[ 11005 11000 10999 10996 ] final   53.35 input  -57.11 | X-H torsion

> <Gold.Protein.ActiveResidues>
 VAL166  LYS551  ARG553  GLY616  TRP617  ASP618  TYR619  PRO620  LYS621  CYS622 
 ASP623  PHE694  ASN695  SER759  ASP760  ASP761  ALA762  ILE779  LEU786  VAL792 
 PHE793  MET794  SER795  GLU796  ALA797  LYS798  CYS799  TRP800  GLU811  SER814 

> <Gold.Protein.RotatedAtoms>
  151.0052  133.6018  159.2689 H   0  0  0  0  0  0  0  0  0  0  0  0  # atno 6907 bound_to 6896
  151.3189  135.0812  159.9308 H   0  0  0  0  0  0  0  0  0  0  0  0  # atno 6908 bound_to 6896
  152.5285  133.9703  159.7813 H   0  0  0  0  0  0  0  0  0  0  0  0  # atno 6909 bound_to 6896
  144.7127  140.1064  143.6413 H   0  0  0  0  0  0  0  0  0  0  0  0  # atno 7974 bound_to 7965
  154.4107  140.1670  156.2135 H   0  0  0  0  0  0  0  0  0  0  0  0  # atno 8008 bound_to 7997
  155.9424  140.3407  155.6315 H   0  0  0  0  0  0  0  0  0  0  0  0  # atno 8009 bound_to 7997
  155.6972  140.0741  157.2415 H   0  0  0  0  0  0  0  0  0  0  0  0  # atno 8010 bound_to 7997
  140.6586  143.7363  150.7697 H   0  0  0  0  0  0  0  0  0  0  0  0  # atno 10167 bound_to 10162
  156.0132  130.5280  150.6661 H   0  0  0  0  0  0  0  0  0  0  0  0  # atno 10718 bound_to 10713
  153.3453  135.3996  155.1604 H   0  0  0  0  0  0  0  0  0  0  0  0  # atno 10763 bound_to 10752
  154.8652  135.3643  154.5293 H   0  0  0  0  0  0  0  0  0  0  0  0  # atno 10764 bound_to 10752
  153.5740  135.7078  153.5552 H   0  0  0  0  0  0  0  0  0  0  0  0  # atno 10765 bound_to 10752
  140.0774  134.5385  155.8982 H   0  0  0  0  0  0  0  0  0  0  0  0  # atno 11005 bound_to 11000
  145.9493  139.2722  143.1222 LP  0  0  0  0  0  0  0  0  0  0  0  0  # atno 17320 bound_to 7965
  145.9340  140.9028  143.0341 LP  0  0  0  0  0  0  0  0  0  0  0  0  # atno 17321 bound_to 7965
  140.1028  143.4772  152.2415 LP  0  0  0  0  0  0  0  0  0  0  0  0  # atno 17342 bound_to 10162
  139.5814  144.7512  151.3631 LP  0  0  0  0  0  0  0  0  0  0  0  0  # atno 17343 bound_to 10162
  157.4393  131.0859  151.0959 LP  0  0  0  0  0  0  0  0  0  0  0  0  # atno 17370 bound_to 10713
  157.1508  130.6183  149.5582 LP  0  0  0  0  0  0  0  0  0  0  0  0  # atno 17371 bound_to 10713
  141.2034  133.6632  156.6064 LP  0  0  0  0  0  0  0  0  0  0  0  0  # atno 17394 bound_to 11000
  140.3537  134.7747  157.4485 LP  0  0  0  0  0  0  0  0  0  0  0  0  # atno 17395 bound_to 11000

$$$$
