AV-unprocessed.smi:2061|AV-procd|sdf|8367|dock8
  -GOLD-   2272011 43D 1   1.00000     0.00000
 Structure written by MMmdl.
 46 47  0  0  0  0  0  0  0  0  2 V2000
  150.1960  142.2197  157.5135 C   0  0  0  0  0  0  0  0  0  0  0  0
  150.1674  141.3852  156.2792 C   0  0  0  0  0  0  0  0  0  0  0  0
  149.1542  140.9648  155.4642 C   0  0  0  0  0  0  0  0  0  0  0  0
  149.8337  140.2037  154.4762 C   0  0  0  0  0  0  0  0  0  0  0  0
  149.1200  139.5768  153.4232 N   0  0  0  0  0  0  0  0  0  0  0  0
  147.8820  139.0565  153.4692 C   0  0  0  0  0  0  0  0  0  0  0  0
  147.1637  139.0158  154.4684 O   0  0  0  0  0  0  0  0  0  0  0  0
  147.5066  138.5841  152.2717 N   0  0  0  0  0  0  0  0  0  0  0  0
  146.2068  137.9866  151.9788 C   0  0  0  0  0  0  0  0  0  0  0  0
  145.8549  136.7934  152.9106 C   0  0  1  0  0  0  0  0  0  0  0  0
  144.3174  136.6314  153.0092 C   0  0  0  0  0  0  0  0  0  0  0  0
  146.5529  135.5442  152.4587 N   0  3  1  0  0  0  0  0  0  0  0  0
  147.0180  134.7000  153.5933 C   0  0  0  0  0  0  0  0  0  0  0  0
  147.8076  133.4774  153.0912 C   0  0  1  0  0  0  0  0  0  0  0  0
  148.2479  132.5619  154.2389 C   0  0  0  0  0  0  0  0  0  0  0  0
  146.9796  132.7225  152.2179 O   0  0  0  0  0  0  0  0  0  0  0  0
  146.5983  133.4636  151.0673 C   0  0  1  0  0  0  0  0  0  0  0  0
  145.7925  132.5351  150.1517 C   0  0  0  0  0  0  0  0  0  0  0  0
  145.7862  134.6998  151.5004 C   0  0  0  0  0  0  0  0  0  0  0  0
  151.1430  140.1635  154.6695 N   0  0  0  0  0  0  0  0  0  0  0  0
  151.3636  140.9209  155.8262 O   0  0  0  0  0  0  0  0  0  0  0  0
  149.1893  142.5215  157.8030 H   0  0  0  0  0  0  0  0  0  0  0  0
  150.7874  143.1218  157.3560 H   0  0  0  0  0  0  0  0  0  0  0  0
  150.6350  141.6668  158.3442 H   0  0  0  0  0  0  0  0  0  0  0  0
  148.0984  141.1694  155.5630 H   0  0  0  0  0  0  0  0  0  0  0  0
  149.5970  139.5381  152.5347 H   0  0  0  0  0  0  0  0  0  0  0  0
  148.1608  138.6517  151.5057 H   0  0  0  0  0  0  0  0  0  0  0  0
  145.4512  138.7664  152.0794 H   0  0  0  0  0  0  0  0  0  0  0  0
  146.2091  137.7019  150.9278 H   0  0  0  0  0  0  0  0  0  0  0  0
  146.2126  137.0167  153.9170 H   0  0  0  0  0  0  0  0  0  0  0  0
  143.8276  137.5604  153.2998 H   0  0  0  0  0  0  0  0  0  0  0  0
  144.0294  135.9046  153.7688 H   0  0  0  0  0  0  0  0  0  0  0  0
  143.8874  136.3206  152.0564 H   0  0  0  0  0  0  0  0  0  0  0  0
  147.6598  135.2638  154.2672 H   0  0  0  0  0  0  0  0  0  0  0  0
  146.1567  134.3738  154.1790 H   0  0  0  0  0  0  0  0  0  0  0  0
  148.6973  133.8082  152.5521 H   0  0  0  0  0  0  0  0  0  0  0  0
  148.8976  133.0910  154.9368 H   0  0  0  0  0  0  0  0  0  0  0  0
  148.7995  131.7010  153.8604 H   0  0  0  0  0  0  0  0  0  0  0  0
  147.3898  132.1878  154.7983 H   0  0  0  0  0  0  0  0  0  0  0  0
  147.4945  133.7830  150.5323 H   0  0  0  0  0  0  0  0  0  0  0  0
  145.4811  133.0509  149.2430 H   0  0  0  0  0  0  0  0  0  0  0  0
  144.8962  132.1671  150.6519 H   0  0  0  0  0  0  0  0  0  0  0  0
  146.3861  131.6700  149.8549 H   0  0  0  0  0  0  0  0  0  0  0  0
  144.8442  134.3943  151.9593 H   0  0  0  0  0  0  0  0  0  0  0  0
  145.5457  135.2601  150.5976 H   0  0  0  0  0  0  0  0  0  0  0  0
  147.3777  135.8463  151.9601 H   0  0  0  0  0  0  0  0  0  0  0  0
  1  2  1  0  0  0  0
  1 22  1  0  0  0  0
  1 23  1  0  0  0  0
  1 24  1  0  0  0  0
  2 21  1  0  0  0  0
  2  3  2  0  0  0  0
  3  4  1  0  0  0  0
  3 25  1  0  0  0  0
  4  5  1  0  0  0  0
  4 20  2  0  0  0  0
  5  6  1  0  0  0  0
  5 26  1  0  0  0  0
  6  7  2  0  0  0  0
  6  8  1  0  0  0  0
  8  9  1  0  0  0  0
  8 27  1  0  0  0  0
  9 10  1  0  0  0  0
  9 28  1  0  0  0  0
  9 29  1  0  0  0  0
 10 11  1  0  0  0  0
 10 12  1  0  0  0  0
 10 30  1  0  0  0  0
 11 31  1  0  0  0  0
 11 32  1  0  0  0  0
 11 33  1  0  0  0  0
 12 19  1  0  0  0  0
 12 13  1  0  0  0  0
 12 46  1  0  0  0  0
 13 14  1  0  0  0  0
 13 34  1  0  0  0  0
 13 35  1  0  0  0  0
 14 15  1  0  0  0  0
 14 16  1  0  0  0  0
 14 36  1  0  0  0  0
 15 37  1  0  0  0  0
 15 38  1  0  0  0  0
 15 39  1  0  0  0  0
 16 17  1  0  0  0  0
 17 18  1  0  0  0  0
 17 19  1  0  0  0  0
 17 40  1  0  0  0  0
 18 41  1  0  0  0  0
 18 42  1  0  0  0  0
 18 43  1  0  0  0  0
 19 44  1  0  0  0  0
 19 45  1  0  0  0  0
 20 21  1  0  0  0  0
M  CHG  1  12   1
M  END
> <s_m_source_file>
AV-unprocessed.smi

> <i_m_source_file_index>
2061

> <i_lp_mmshare_version>
43012

> <i_f3d_flags>
0

> <s_epik_input>
W0NIM11jMVtjSF1jKG5vMSlbTkhdQyg9TylbTkhdW0NIMl1bQ0BIXShbQ0gzXSlOMltDSDJdW0NAQEhdKFtDSDNdKU9bQ0BASF0oW0NIM10pW0NIMl0y

> <s_epik_cmdline>
J2VwaWtfcHl0aG9uJywgJy1waCcsICc3LjAnLCAnLXRuJywgJzgnLCAnLW1hJywgJzIwMCcsICctbWV0YWxfYmluZGluZycsICctaW1hZScsICc8aW5maWxlLm1hZT4nLCAnLW9tYWUnLCAnPG91dGZpbGUubWFlPic=

> <r_epik_Ionization_Penalty>
0.707076

> <r_epik_Ionization_Penalty_Charging>
0.707039

> <r_epik_Ionization_Penalty_Neutral>
3.6548e-05

> <r_epik_State_Penalty>
0.730276

> <r_epik_Charging_Adjusted_Penalty>
1.43732

> <i_epik_Tot_Q>
1

> <i_epik_Tot_abs_Q>
1

> <r_epik_Metal_State_Penalty>
0.743132

> <b_epik_Metal_Only>
0

> <s_lp_Force_Field>
OPLS_2005

> <r_lp_Energy>
16.4142

> <b_lp_Chiralities_Consistent>
1

> <s_lp_Variant>
AV-unprocessed.smi:2061-8

> <Gold.Version>
5.8.1

> <Gold.Id.Protein>
6NUR|6NUR_protein|mol2

> <Gold.PLP.Fitness>
44.6913

> <Gold.PLP.PLP>
-33.2187

> <Gold.PLP.part.hbond>
-4.9782

> <Gold.PLP.part.metal>
0.0000

> <Gold.PLP.part.buried>
-3.1280

> <Gold.PLP.part.nonpolar>
-25.2546

> <Gold.PLP.part.repulsive>
0.5597

> <Gold.PLP.ligand.clash>
0.0000

> <Gold.PLP.ligand.torsion>
1.3086

> <Gold.PLP.Chemscore.Hbond>
4.6800

> <Gold.PLP.Chemscore.CHOScore>
0.0000

> <Gold.PLP.Chemscore.Metal>
0.0000

> <Gold.Chemscore.Hbonds>
donor molecule, donor type, donor heavy atom, donor atom, acceptor molecule, acceptor atom, score
      L1  H     5    26       P1  7957  0.74
      L1  H     8    27       P1  7957  0.62
      L1  H    12    46       P1  7948  2.00
      P1  H  7989  7998       L1    20  0.80

> <Gold.PLP.Chemscore.Internal.Correction>
0.0498

> <Gold.Rescore>
     Score         DG    S(hbond)    S(metal)    S(lipo)     H(rot)  DE(clash)    DE(int)     intcor
     16.88     -20.04       3.46        0.00      60.17       1.58       0.01       3.15       ----

> <Gold.Chemscore.Fitness>
16.8839

> <Gold.Chemscore.DG>
-20.0374

> <Gold.Chemscore.ZeroCoef>
-5.4800

> <Gold.Chemscore.Hbond>
3.4643

> <Gold.Chemscore.Metal>
0.0000

> <Gold.Chemscore.Lipo>
60.1731

> <Gold.Chemscore.Internal_Hbond>
0.0000

> <Gold.Chemscore.DEClash>
0.0074

> <Gold.Chemscore.DEInternal>
3.1461

> <Gold.Chemscore.Rot>
1.5834

> <Gold.Chemscore.Internal.Correction>
   9.000000E+99

> <Gold.Chemscore.Hbonds>
donor molecule, donor type, donor heavy atom, donor atom, acceptor molecule, acceptor atom, score
      L1  H     5    26       P1  7957  0.72
      L1  H     8    27       P1  7957  0.27
      L1  H    12    46       P1  7948  0.96
      P1  H  7989  7998       L1    20  0.20

> <Gold.Chemscore.Hbond.Weighted>
-11.5706

> <Gold.Chemscore.Metal.Weighted>
-0.0000

> <Gold.Chemscore.Lipo.Weighted>
-7.0403

> <Gold.Chemscore.Internal_Hbond.Weighted>
0.0000

> <Gold.Chemscore.DEClash.Weighted>
0.0074

> <Gold.Chemscore.DEInternal.Weighted>
3.1461

> <Gold.Chemscore.Rot.Weighted>
4.0535

> <Gold.Chemscore.Internal.Correction.Weighted>
   9.000000E+99

> <Gold.Protein.RotatedTorsions>
[ 6907 6896 6895 6894 ] final  -31.28 input  -60.11 | X-H torsion
[ 7974 7965 7964 7962 ] final -140.32 input  175.53 | X-H torsion
[ 8008 7997 7996 7995 ] final  -30.60 input   59.86 | X-H torsion
[ 10167 10162 10161 10158 ] final  154.01 input  -65.29 | X-H torsion
[ 10718 10713 10712 10709 ] final   25.09 input   66.30 | X-H torsion
[ 10763 10752 10751 10750 ] final -167.93 input  -60.55 | X-H torsion
[ 11005 11000 10999 10996 ] final  -14.81 input  -57.11 | X-H torsion

> <Gold.Protein.ActiveResidues>
 VAL166  LYS551  ARG553  GLY616  TRP617  ASP618  TYR619  PRO620  LYS621  CYS622 
 ASP623  PHE694  ASN695  SER759  ASP760  ASP761  ALA762  ILE779  LEU786  VAL792 
 PHE793  MET794  SER795  GLU796  ALA797  LYS798  CYS799  TRP800  GLU811  SER814 

> <Gold.Protein.RotatedAtoms>
  151.0942  134.9934  159.8417 H   0  0  0  0  0  0  0  0  0  0  0  0  # atno 6907 bound_to 6896
  152.5431  134.2028  159.8729 H   0  0  0  0  0  0  0  0  0  0  0  0  # atno 6908 bound_to 6896
  151.2067  133.4535  159.2630 H   0  0  0  0  0  0  0  0  0  0  0  0  # atno 6909 bound_to 6896
  144.8606  140.6214  143.5330 H   0  0  0  0  0  0  0  0  0  0  0  0  # atno 7974 bound_to 7965
  154.4244  140.1787  156.1433 H   0  0  0  0  0  0  0  0  0  0  0  0  # atno 8008 bound_to 7997
  155.9974  140.3363  155.6787 H   0  0  0  0  0  0  0  0  0  0  0  0  # atno 8009 bound_to 7997
  155.6289  140.0667  157.2646 H   0  0  0  0  0  0  0  0  0  0  0  0  # atno 8010 bound_to 7997
  139.4825  144.5224  151.7855 H   0  0  0  0  0  0  0  0  0  0  0  0  # atno 10167 bound_to 10162
  157.1886  130.6835  149.6141 H   0  0  0  0  0  0  0  0  0  0  0  0  # atno 10718 bound_to 10713
  154.6681  135.2935  154.9778 H   0  0  0  0  0  0  0  0  0  0  0  0  # atno 10763 bound_to 10752
  154.0814  135.6604  153.4842 H   0  0  0  0  0  0  0  0  0  0  0  0  # atno 10764 bound_to 10752
  153.0470  135.5198  154.7664 H   0  0  0  0  0  0  0  0  0  0  0  0  # atno 10765 bound_to 10752
  140.7902  133.8294  155.9373 H   0  0  0  0  0  0  0  0  0  0  0  0  # atno 11005 bound_to 11000
  145.4319  139.1548  143.4017 LP  0  0  0  0  0  0  0  0  0  0  0  0  # atno 17320 bound_to 7965
  146.2858  140.4436  142.8758 LP  0  0  0  0  0  0  0  0  0  0  0  0  # atno 17321 bound_to 7965
  140.4739  144.1547  150.5922 LP  0  0  0  0  0  0  0  0  0  0  0  0  # atno 17342 bound_to 10162
  140.4352  143.2550  151.9545 LP  0  0  0  0  0  0  0  0  0  0  0  0  # atno 17343 bound_to 10162
  155.9714  130.4622  150.6138 LP  0  0  0  0  0  0  0  0  0  0  0  0  # atno 17370 bound_to 10713
  157.3883  131.0791  151.1416 LP  0  0  0  0  0  0  0  0  0  0  0  0  # atno 17371 bound_to 10713
  140.9397  134.1917  157.4806 LP  0  0  0  0  0  0  0  0  0  0  0  0  # atno 17394 bound_to 11000
  139.8732  134.9867  156.5334 LP  0  0  0  0  0  0  0  0  0  0  0  0  # atno 17395 bound_to 11000

$$$$
