AV-unprocessed.smi:1033|AV-procd|sdf|4494|dock6
  -GOLD-   22720 2483D 1   1.00000     0.00000
 Structure written by MMmdl.
 56 58  0  0  0  0  0  0  0  0  2 V2000
  152.7583  143.4746  162.2185 C   0  0  0  0  0  0  0  0  0  0  0  0
  152.4382  142.9378  160.8345 C   0  0  0  0  0  0  0  0  0  0  0  0
  152.6017  141.5582  160.5782 C   0  0  0  0  0  0  0  0  0  0  0  0
  152.2982  141.0163  159.3104 C   0  0  0  0  0  0  0  0  0  0  0  0
  152.3523  139.7103  158.8570 N   0  0  0  0  0  0  0  0  0  0  0  0
  151.9048  139.8399  157.6118 C   0  0  0  0  0  0  0  0  0  0  0  0
  151.5574  141.0764  157.2065 N   0  0  0  0  0  0  0  0  0  0  0  0
  151.0065  141.4417  155.9135 C   0  0  0  0  0  0  0  0  0  0  0  0
  149.9108  140.4611  155.4440 C   0  0  2  0  0  0  0  0  0  0  0  0
  150.2144  140.0951  154.1142 O   0  0  0  0  0  0  0  0  0  0  0  0
  148.4843  141.0639  155.4688 C   0  0  0  0  0  0  0  0  0  0  0  0
  147.5394  140.5038  154.4943 N   0  0  0  0  0  0  0  0  0  0  0  0
  146.3735  139.8430  155.0858 C   0  0  0  0  0  0  0  0  0  0  0  0
  145.3841  140.8156  155.7599 C   0  0  0  0  0  0  0  0  0  0  0  0
  144.9461  141.8891  154.8286 N   0  3  0  0  0  0  0  0  0  0  0  0
  144.0526  142.8921  155.4664 C   0  0  0  0  0  0  0  0  0  0  0  0
  142.6675  142.3391  155.8595 C   0  0  2  0  0  0  0  0  0  0  0  0
  142.7216  141.3583  157.0400 C   0  0  0  0  0  0  0  0  0  0  0  0
  142.1365  141.6546  154.7445 O   0  0  0  0  0  0  0  0  0  0  0  0
  146.1134  142.5439  154.1805 C   0  0  0  0  0  0  0  0  0  0  0  0
  147.0547  141.5017  153.5426 C   0  0  0  0  0  0  0  0  0  0  0  0
  151.8239  141.8995  158.2961 C   0  0  0  0  0  0  0  0  0  0  0  0
  151.6782  143.2781  158.5334 C   0  0  0  0  0  0  0  0  0  0  0  0
  151.9793  143.8016  159.8080 C   0  0  0  0  0  0  0  0  0  0  0  0
  151.7977  145.2876  160.0603 C   0  0  0  0  0  0  0  0  0  0  0  0
  153.0772  142.6778  162.8913 H   0  0  0  0  0  0  0  0  0  0  0  0
  151.8806  143.9502  162.6572 H   0  0  0  0  0  0  0  0  0  0  0  0
  153.5617  144.2098  162.1662 H   0  0  0  0  0  0  0  0  0  0  0  0
  152.9533  140.8998  161.3590 H   0  0  0  0  0  0  0  0  0  0  0  0
  151.8052  138.9833  156.9610 H   0  0  0  0  0  0  0  0  0  0  0  0
  150.6161  142.4587  155.9692 H   0  0  0  0  0  0  0  0  0  0  0  0
  151.8275  141.4627  155.1949 H   0  0  0  0  0  0  0  0  0  0  0  0
  149.9689  139.5532  156.0440 H   0  0  0  0  0  0  0  0  0  0  0  0
  149.4088  139.8734  153.6722 H   0  0  0  0  0  0  0  0  0  0  0  0
  148.0680  140.9695  156.4686 H   0  0  0  0  0  0  0  0  0  0  0  0
  148.5608  142.1414  155.3144 H   0  0  0  0  0  0  0  0  0  0  0  0
  145.8453  139.2971  154.3028 H   0  0  0  0  0  0  0  0  0  0  0  0
  146.6852  139.0868  155.8052 H   0  0  0  0  0  0  0  0  0  0  0  0
  144.5256  140.2434  156.1085 H   0  0  0  0  0  0  0  0  0  0  0  0
  145.8301  141.2725  156.6366 H   0  0  0  0  0  0  0  0  0  0  0  0
  144.5529  143.3012  156.3464 H   0  0  0  0  0  0  0  0  0  0  0  0
  143.9130  143.7272  154.7777 H   0  0  0  0  0  0  0  0  0  0  0  0
  141.9749  143.1491  156.0854 H   0  0  0  0  0  0  0  0  0  0  0  0
  143.0852  141.8471  157.9441 H   0  0  0  0  0  0  0  0  0  0  0  0
  143.3806  140.5156  156.8284 H   0  0  0  0  0  0  0  0  0  0  0  0
  141.7320  140.9579  157.2621 H   0  0  0  0  0  0  0  0  0  0  0  0
  142.3061  142.1628  153.9656 H   0  0  0  0  0  0  0  0  0  0  0  0
  145.7592  143.2279  153.4087 H   0  0  0  0  0  0  0  0  0  0  0  0
  146.6503  143.1517  154.9102 H   0  0  0  0  0  0  0  0  0  0  0  0
  147.9003  142.0064  153.0736 H   0  0  0  0  0  0  0  0  0  0  0  0
  146.5271  140.9955  152.7329 H   0  0  0  0  0  0  0  0  0  0  0  0
  151.3166  143.9238  157.7468 H   0  0  0  0  0  0  0  0  0  0  0  0
  151.4535  145.8043  159.1638 H   0  0  0  0  0  0  0  0  0  0  0  0
  152.7411  145.7412  160.3652 H   0  0  0  0  0  0  0  0  0  0  0  0
  151.0613  145.4552  160.8469 H   0  0  0  0  0  0  0  0  0  0  0  0
  144.4195  141.4433  154.0910 H   0  0  0  0  0  0  0  0  0  0  0  0
  1  2  1  0  0  0  0
  1 26  1  0  0  0  0
  1 27  1  0  0  0  0
  1 28  1  0  0  0  0
  2 24  1  0  0  0  0
  2  3  2  0  0  0  0
  3  4  1  0  0  0  0
  3 29  1  0  0  0  0
  4 22  2  0  0  0  0
  4  5  1  0  0  0  0
  5  6  2  0  0  0  0
  6  7  1  0  0  0  0
  6 30  1  0  0  0  0
  7  8  1  0  0  0  0
  7 22  1  0  0  0  0
  8  9  1  0  0  0  0
  8 31  1  0  0  0  0
  8 32  1  0  0  0  0
  9 10  1  0  0  0  0
  9 11  1  0  0  0  0
  9 33  1  0  0  0  0
 10 34  1  0  0  0  0
 11 12  1  0  0  0  0
 11 35  1  0  0  0  0
 11 36  1  0  0  0  0
 12 21  1  0  0  0  0
 12 13  1  0  0  0  0
 13 14  1  0  0  0  0
 13 37  1  0  0  0  0
 13 38  1  0  0  0  0
 14 15  1  0  0  0  0
 14 39  1  0  0  0  0
 14 40  1  0  0  0  0
 15 16  1  0  0  0  0
 15 20  1  0  0  0  0
 15 56  1  0  0  0  0
 16 17  1  0  0  0  0
 16 41  1  0  0  0  0
 16 42  1  0  0  0  0
 17 18  1  0  0  0  0
 17 19  1  0  0  0  0
 17 43  1  0  0  0  0
 18 44  1  0  0  0  0
 18 45  1  0  0  0  0
 18 46  1  0  0  0  0
 19 47  1  0  0  0  0
 20 21  1  0  0  0  0
 20 48  1  0  0  0  0
 20 49  1  0  0  0  0
 21 50  1  0  0  0  0
 21 51  1  0  0  0  0
 22 23  1  0  0  0  0
 23 24  2  0  0  0  0
 23 52  1  0  0  0  0
 24 25  1  0  0  0  0
 25 53  1  0  0  0  0
 25 54  1  0  0  0  0
 25 55  1  0  0  0  0
M  CHG  1  15   1
M  END
> <s_m_source_file>
AV-unprocessed.smi

> <i_m_source_file_index>
1033

> <i_lp_mmshare_version>
43012

> <i_f3d_flags>
0

> <s_epik_input>
W0NIM11jKFtjSF0xKWMoW0NIM10pW2NIXWMoYzEyKW4oW2NIXW4yKVtDSDJdW0NASF0oW09IXSlbQ0gyXU4zW0NIMl1bQ0gyXU4oW0NIMl1bQ0gyXTMpW0NIMl1bQ0BIXShbQ0gzXSlbT0hd

> <s_epik_cmdline>
J2VwaWtfcHl0aG9uJywgJy1waCcsICc3LjAnLCAnLXRuJywgJzgnLCAnLW1hJywgJzIwMCcsICctbWV0YWxfYmluZGluZycsICctaW1hZScsICc8aW5maWxlLm1hZT4nLCAnLW9tYWUnLCAnPG91dGZpbGUubWFlPic=

> <r_epik_Ionization_Penalty>
0.129152

> <r_epik_Ionization_Penalty_Charging>
0.00083231

> <r_epik_Ionization_Penalty_Neutral>
0.128319

> <r_epik_State_Penalty>
0.556973

> <r_epik_Charging_Adjusted_Penalty>
0.557805

> <i_epik_Tot_Q>
1

> <i_epik_Tot_abs_Q>
1

> <r_epik_Metal_State_Penalty>
0.490047

> <b_epik_Metal_Only>
0

> <s_lp_Force_Field>
OPLS_2005

> <r_lp_Energy>
33.6507

> <b_lp_Chiralities_Consistent>
1

> <s_lp_Variant>
AV-unprocessed.smi:1033-5

> <Gold.Version>
5.8.1

> <Gold.Id.Protein>
6NUR|6NUR_protein|mol2

> <Gold.PLP.Fitness>
57.8712

> <Gold.PLP.PLP>
-49.9391

> <Gold.PLP.part.hbond>
-4.9932

> <Gold.PLP.part.metal>
0.0000

> <Gold.PLP.part.buried>
-7.1797

> <Gold.PLP.part.nonpolar>
-36.6529

> <Gold.PLP.part.repulsive>
0.1090

> <Gold.PLP.ligand.clash>
0.0000

> <Gold.PLP.ligand.torsion>
2.0917

> <Gold.PLP.Chemscore.Hbond>
4.0000

> <Gold.PLP.Chemscore.CHOScore>
0.0000

> <Gold.PLP.Chemscore.Metal>
0.0000

> <Gold.Chemscore.Hbonds>
donor molecule, donor type, donor heavy atom, donor atom, acceptor molecule, acceptor atom, score
      L1  H    15    56       P1 10175  2.00
      L1  H    19    47       P1 10174  1.00
      P1  H  7989  7998       L1    10  0.99

> <Gold.PLP.Chemscore.Internal.Correction>
0.1155

> <Gold.Rescore>
     Score         DG    S(hbond)    S(metal)    S(lipo)     H(rot)  DE(clash)    DE(int)     intcor
     19.07     -21.36       2.81        0.00     122.61       3.07       0.02       2.27       ----

> <Gold.Chemscore.Fitness>
19.0668

> <Gold.Chemscore.DG>
-21.3605

> <Gold.Chemscore.ZeroCoef>
-5.4800

> <Gold.Chemscore.Hbond>
2.8090

> <Gold.Chemscore.Metal>
0.0000

> <Gold.Chemscore.Lipo>
122.6053

> <Gold.Chemscore.Internal_Hbond>
0.0000

> <Gold.Chemscore.DEClash>
0.0212

> <Gold.Chemscore.DEInternal>
2.2725

> <Gold.Chemscore.Rot>
3.0650

> <Gold.Chemscore.Internal.Correction>
   9.000000E+99

> <Gold.Chemscore.Hbonds>
donor molecule, donor type, donor heavy atom, donor atom, acceptor molecule, acceptor atom, score
      L1  H    15    56       P1 10175  0.34
      L1  H    19    47       P1 10174  0.44
      P1  H  7989  7998       L1    10  0.83

> <Gold.Chemscore.Hbond.Weighted>
-9.3821

> <Gold.Chemscore.Metal.Weighted>
-0.0000

> <Gold.Chemscore.Lipo.Weighted>
-14.3448

> <Gold.Chemscore.Internal_Hbond.Weighted>
0.0000

> <Gold.Chemscore.DEClash.Weighted>
0.0212

> <Gold.Chemscore.DEInternal.Weighted>
2.2725

> <Gold.Chemscore.Rot.Weighted>
7.8465

> <Gold.Chemscore.Internal.Correction.Weighted>
   9.000000E+99

> <Gold.Protein.RotatedTorsions>
[ 6907 6896 6895 6894 ] final   11.24 input  -60.11 | X-H torsion
[ 7974 7965 7964 7962 ] final  -67.27 input  175.53 | X-H torsion
[ 8008 7997 7996 7995 ] final    8.45 input   59.86 | X-H torsion
[ 10167 10162 10161 10158 ] final  158.16 input  -65.29 | X-H torsion
[ 10718 10713 10712 10709 ] final -110.15 input   66.30 | X-H torsion
[ 10763 10752 10751 10750 ] final  -36.46 input  -60.55 | X-H torsion
[ 11005 11000 10999 10996 ] final  141.33 input  -57.11 | X-H torsion

> <Gold.Protein.ActiveResidues>
 VAL166  LYS551  ARG553  GLY616  TRP617  ASP618  TYR619  PRO620  LYS621  CYS622 
 ASP623  PHE694  ASN695  SER759  ASP760  ASP761  ALA762  ILE779  LEU786  VAL792 
 PHE793  MET794  SER795  GLU796  ALA797  LYS798  CYS799  TRP800  GLU811  SER814 

> <Gold.Protein.RotatedAtoms>
  151.7512  135.0832  160.0330 H   0  0  0  0  0  0  0  0  0  0  0  0  # atno 6907 bound_to 6896
  152.3415  133.6068  159.5888 H   0  0  0  0  0  0  0  0  0  0  0  0  # atno 6908 bound_to 6896
  150.7482  133.9630  159.3563 H   0  0  0  0  0  0  0  0  0  0  0  0  # atno 6909 bound_to 6896
  145.7313  140.8995  143.0578 H   0  0  0  0  0  0  0  0  0  0  0  0  # atno 7974 bound_to 7965
  154.7670  140.2795  155.6168 H   0  0  0  0  0  0  0  0  0  0  0  0  # atno 8008 bound_to 7997
  156.2926  140.2649  156.2391 H   0  0  0  0  0  0  0  0  0  0  0  0  # atno 8009 bound_to 7997
  154.9946  140.0373  157.2324 H   0  0  0  0  0  0  0  0  0  0  0  0  # atno 8010 bound_to 7997
  139.4825  144.4850  151.8390 H   0  0  0  0  0  0  0  0  0  0  0  0  # atno 10167 bound_to 10162
  156.0575  130.5800  150.8197 H   0  0  0  0  0  0  0  0  0  0  0  0  # atno 10718 bound_to 10713
  153.8801  135.6822  153.4767 H   0  0  0  0  0  0  0  0  0  0  0  0  # atno 10763 bound_to 10752
  153.1238  135.4728  154.9237 H   0  0  0  0  0  0  0  0  0  0  0  0  # atno 10764 bound_to 10752
  154.7673  135.3228  154.8213 H   0  0  0  0  0  0  0  0  0  0  0  0  # atno 10765 bound_to 10752
  140.0394  134.9312  157.0814 H   0  0  0  0  0  0  0  0  0  0  0  0  # atno 11005 bound_to 11000
  144.6892  139.9335  143.7472 LP  0  0  0  0  0  0  0  0  0  0  0  0  # atno 17320 bound_to 7965
  146.0535  139.3534  143.0625 LP  0  0  0  0  0  0  0  0  0  0  0  0  # atno 17321 bound_to 7965
  140.4329  144.2091  150.5888 LP  0  0  0  0  0  0  0  0  0  0  0  0  # atno 17342 bound_to 10162
  140.4761  143.2395  151.9021 LP  0  0  0  0  0  0  0  0  0  0  0  0  # atno 17343 bound_to 10162
  157.5557  131.0945  150.9632 LP  0  0  0  0  0  0  0  0  0  0  0  0  # atno 17370 bound_to 10713
  156.9881  130.5553  149.5301 LP  0  0  0  0  0  0  0  0  0  0  0  0  # atno 17371 bound_to 10713
  140.4095  134.1997  155.7163 LP  0  0  0  0  0  0  0  0  0  0  0  0  # atno 17394 bound_to 11000
  141.1875  133.8281  157.1031 LP  0  0  0  0  0  0  0  0  0  0  0  0  # atno 17395 bound_to 11000

$$$$
