AV-unprocessed.smi:21|AV-procd|sdf|127|dock6
  -GOLD-   2262015313D 1   1.00000     0.00000
 Structure written by MMmdl.
 62 65  0  0  0  0  0  0  0  0  2 V2000
  145.4249  129.5086  151.9023 C   0  0  0  0  0  0  0  0  0  0  0  0
  145.1033  130.8365  151.5199 O   0  0  0  0  0  0  0  0  0  0  0  0
  146.1187  131.7835  151.8258 C   0  0  1  0  0  0  0  0  0  0  0  0
  145.7362  133.1289  151.2224 C   0  0  0  0  0  0  0  0  0  0  0  0
  144.7441  133.7294  152.2284 C   0  0  2  0  0  0  0  0  0  0  0  0
  144.7006  135.2794  152.2026 C   0  0  0  0  0  0  0  0  0  0  0  0
  143.6676  135.8382  153.0747 N   0  0  0  0  0  0  0  0  0  0  0  0
  142.3871  135.1362  153.1588 C   0  0  0  0  0  0  0  0  0  0  0  0
  143.9806  136.7604  154.0340 C   0  0  0  0  0  0  0  0  0  0  0  0
  143.0161  137.1058  154.9304 N   0  0  0  0  0  0  0  0  0  0  0  0
  143.2598  137.9885  155.9017 C   0  0  0  0  0  0  0  0  0  0  0  0
  144.3885  138.6451  156.1642 N   0  0  0  0  0  0  0  0  0  0  0  0
  145.3648  138.3180  155.2721 C   0  0  0  0  0  0  0  0  0  0  0  0
  145.2515  137.4016  154.1848 C   0  0  0  0  0  0  0  0  0  0  0  0
  146.4652  137.3531  153.5029 N   0  0  0  0  0  0  0  0  0  0  0  0
  147.2426  138.1775  154.1485 C   0  0  0  0  0  0  0  0  0  0  0  0
  146.6636  138.7912  155.2332 N   0  0  0  0  0  0  0  0  0  0  0  0
  147.2871  139.7430  156.1346 C   0  0  0  0  0  0  0  0  0  0  0  0
  148.6667  140.2589  155.6446 C   0  0  1  0  0  0  0  0  0  0  0  0
  148.5728  140.9778  154.2740 C   0  0  0  0  0  0  0  0  0  0  0  0
  149.7226  140.7678  153.4797 O   0  0  0  0  0  0  0  0  0  0  0  0
  149.3089  141.1774  156.7177 C   0  0  2  0  0  0  0  0  0  0  0  0
  150.5930  141.8707  156.2901 C   0  0  0  0  0  0  0  0  0  0  0  0
  151.2138  142.2699  157.6241 C   0  0  0  0  0  0  0  0  0  0  0  0
  150.8076  141.2729  158.5534 O   0  0  0  0  0  0  0  0  0  0  0  0
  149.8054  140.4461  157.9715 C   0  0  0  0  0  0  0  0  0  0  0  0
  145.0769  133.1097  153.5443 N   0  3  2  0  0  0  0  0  0  0  0  0
  145.3505  134.0113  154.6877 C   0  0  0  0  0  0  0  0  0  0  0  0
  146.1380  132.1015  153.3234 C   0  0  0  0  0  0  0  0  0  0  0  0
  147.0887  131.4484  151.4538 H   0  0  0  0  0  0  0  0  0  0  0  0
  143.7544  133.3426  151.9847 H   0  0  0  0  0  0  0  0  0  0  0  0
  144.5959  128.8476  151.6509 H   0  0  0  0  0  0  0  0  0  0  0  0
  145.6043  129.4260  152.9742 H   0  0  0  0  0  0  0  0  0  0  0  0
  146.3089  129.1517  151.3724 H   0  0  0  0  0  0  0  0  0  0  0  0
  146.6263  133.7563  151.1577 H   0  0  0  0  0  0  0  0  0  0  0  0
  145.3206  133.0413  150.2178 H   0  0  0  0  0  0  0  0  0  0  0  0
  145.6597  135.7175  152.4691 H   0  0  0  0  0  0  0  0  0  0  0  0
  144.5147  135.6170  151.1828 H   0  0  0  0  0  0  0  0  0  0  0  0
  141.5584  135.8452  153.1665 H   0  0  0  0  0  0  0  0  0  0  0  0
  142.3356  134.5327  154.0657 H   0  0  0  0  0  0  0  0  0  0  0  0
  142.2403  134.4716  152.3074 H   0  0  0  0  0  0  0  0  0  0  0  0
  142.4324  138.1961  156.5641 H   0  0  0  0  0  0  0  0  0  0  0  0
  148.2675  138.3540  153.8559 H   0  0  0  0  0  0  0  0  0  0  0  0
  146.6044  140.5805  156.2827 H   0  0  0  0  0  0  0  0  0  0  0  0
  147.3788  139.2481  157.1012 H   0  0  0  0  0  0  0  0  0  0  0  0
  149.3285  139.3994  155.5254 H   0  0  0  0  0  0  0  0  0  0  0  0
  147.6863  140.6557  153.7269 H   0  0  0  0  0  0  0  0  0  0  0  0
  148.4878  142.0558  154.3984 H   0  0  0  0  0  0  0  0  0  0  0  0
  149.4683  140.2875  152.7065 H   0  0  0  0  0  0  0  0  0  0  0  0
  148.5891  141.9389  157.0226 H   0  0  0  0  0  0  0  0  0  0  0  0
  151.2480  141.1714  155.7679 H   0  0  0  0  0  0  0  0  0  0  0  0
  150.4300  142.7335  155.6443 H   0  0  0  0  0  0  0  0  0  0  0  0
  152.2998  142.3481  157.5712 H   0  0  0  0  0  0  0  0  0  0  0  0
  150.8201  143.2319  157.9545 H   0  0  0  0  0  0  0  0  0  0  0  0
  149.0060  140.2495  158.6861 H   0  0  0  0  0  0  0  0  0  0  0  0
  150.2631  139.4919  157.7064 H   0  0  0  0  0  0  0  0  0  0  0  0
  146.2085  134.6563  154.4935 H   0  0  0  0  0  0  0  0  0  0  0  0
  145.5679  133.4252  155.5809 H   0  0  0  0  0  0  0  0  0  0  0  0
  144.4836  134.6323  154.9135 H   0  0  0  0  0  0  0  0  0  0  0  0
  145.9996  131.2288  153.9605 H   0  0  0  0  0  0  0  0  0  0  0  0
  147.1058  132.5386  153.5747 H   0  0  0  0  0  0  0  0  0  0  0  0
  144.2514  132.5857  153.7980 H   0  0  0  0  0  0  0  0  0  0  0  0
  1  2  1  0  0  0  0
  1 32  1  0  0  0  0
  1 33  1  0  0  0  0
  1 34  1  0  0  0  0
  2  3  1  0  0  0  0
  3 30  1  0  0  0  0
  3 29  1  0  0  0  0
  3  4  1  0  0  0  0
  4  5  1  0  0  0  0
  4 35  1  0  0  0  0
  4 36  1  0  0  0  0
  5 31  1  0  0  0  0
  5  6  1  0  0  0  0
  5 27  1  0  0  0  0
  6  7  1  0  0  0  0
  6 37  1  0  0  0  0
  6 38  1  0  0  0  0
  7  8  1  0  0  0  0
  7  9  1  0  0  0  0
  8 39  1  0  0  0  0
  8 40  1  0  0  0  0
  8 41  1  0  0  0  0
  9 14  1  0  0  0  0
  9 10  2  0  0  0  0
 10 11  1  0  0  0  0
 11 12  2  0  0  0  0
 11 42  1  0  0  0  0
 12 13  1  0  0  0  0
 13 17  1  0  0  0  0
 13 14  2  0  0  0  0
 14 15  1  0  0  0  0
 15 16  2  0  0  0  0
 16 17  1  0  0  0  0
 16 43  1  0  0  0  0
 17 18  1  0  0  0  0
 18 19  1  0  0  0  0
 18 44  1  0  0  0  0
 18 45  1  0  0  0  0
 19 20  1  0  0  0  0
 19 22  1  0  0  0  0
 19 46  1  0  0  0  0
 20 21  1  0  0  0  0
 20 47  1  0  0  0  0
 20 48  1  0  0  0  0
 21 49  1  0  0  0  0
 22 26  1  0  0  0  0
 22 23  1  0  0  0  0
 22 50  1  0  0  0  0
 23 24  1  0  0  0  0
 23 51  1  0  0  0  0
 23 52  1  0  0  0  0
 24 25  1  0  0  0  0
 24 53  1  0  0  0  0
 24 54  1  0  0  0  0
 25 26  1  0  0  0  0
 26 55  1  0  0  0  0
 26 56  1  0  0  0  0
 27 28  1  0  0  0  0
 27 29  1  0  0  0  0
 27 62  1  0  0  0  0
 28 57  1  0  0  0  0
 28 58  1  0  0  0  0
 28 59  1  0  0  0  0
 29 60  1  0  0  0  0
 29 61  1  0  0  0  0
M  CHG  1  27   1
M  END
> <s_m_source_file>
AV-unprocessed.smi

> <i_m_source_file_index>
21

> <i_lp_mmshare_version>
43012

> <i_f3d_flags>
0

> <s_epik_input>
W0NIM11PW0NASF0xW0NIMl1bQ0BIXShOKFtDSDNdKVtDSDJdMSlbQ0gyXU4oW0NIM10pYyhuW2NIXW4yKWMoYzIzKW5bY0hdbjNbQ0gyXVtDQEhdKFtDSDJdW09IXSlbQ0BASF00W0NIMl1bQ0gyXU9bQ0gyXTQ=

> <s_epik_cmdline>
J2VwaWtfcHl0aG9uJywgJy1waCcsICc3LjAnLCAnLXRuJywgJzgnLCAnLW1hJywgJzIwMCcsICctbWV0YWxfYmluZGluZycsICctaW1hZScsICc8aW5maWxlLm1hZT4nLCAnLW9tYWUnLCAnPG91dGZpbGUubWFlPic=

> <r_lp_tautomer_probability>
1

> <r_epik_Ionization_Penalty>
0.0157465

> <r_epik_Ionization_Penalty_Charging>
0.015354

> <r_epik_Ionization_Penalty_Neutral>
0.000392529

> <r_epik_State_Penalty>
0.0120612

> <r_epik_Charging_Adjusted_Penalty>
0.0274152

> <i_epik_Tot_Q>
1

> <i_epik_Tot_abs_Q>
1

> <r_epik_Metal_State_Penalty>
0.0121253

> <b_epik_Metal_Only>
0

> <s_lp_Force_Field>
OPLS_2005

> <r_lp_Energy>
61.4457

> <b_lp_Chiralities_Consistent>
1

> <s_lp_Variant>
AV-unprocessed.smi:21-7

> <Gold.Version>
5.8.1

> <Gold.Id.Protein>
6NUR|6NUR_protein|mol2

> <Gold.PLP.Fitness>
42.9348

> <Gold.PLP.PLP>
-32.9411

> <Gold.PLP.part.hbond>
-3.5801

> <Gold.PLP.part.metal>
0.0000

> <Gold.PLP.part.buried>
-8.3320

> <Gold.PLP.part.nonpolar>
-22.7786

> <Gold.PLP.part.repulsive>
0.4018

> <Gold.PLP.ligand.clash>
0.0000

> <Gold.PLP.ligand.torsion>
0.9531

> <Gold.PLP.Chemscore.Hbond>
3.7280

> <Gold.PLP.Chemscore.CHOScore>
0.0000

> <Gold.PLP.Chemscore.Metal>
0.0000

> <Gold.Chemscore.Hbonds>
donor molecule, donor type, donor heavy atom, donor atom, acceptor molecule, acceptor atom, score
      L1  H    21    49       P1  7957  0.98
      L1  H    27    62       P1 10957  2.00
      P1  H  7989  7998       L1    21  0.35
      P1  H  8011  8017       L1    21  0.35

> <Gold.PLP.Chemscore.Internal.Correction>
0.7160

> <Gold.Rescore>
     Score         DG    S(hbond)    S(metal)    S(lipo)     H(rot)  DE(clash)    DE(int)     intcor
     11.59     -13.58       2.08        0.00      77.02       3.08       0.09       1.89       ----

> <Gold.Chemscore.Fitness>
11.5939

> <Gold.Chemscore.DG>
-13.5773

> <Gold.Chemscore.ZeroCoef>
-5.4800

> <Gold.Chemscore.Hbond>
2.0838

> <Gold.Chemscore.Metal>
0.0000

> <Gold.Chemscore.Lipo>
77.0221

> <Gold.Chemscore.Internal_Hbond>
0.0000

> <Gold.Chemscore.DEClash>
0.0901

> <Gold.Chemscore.DEInternal>
1.8933

> <Gold.Chemscore.Rot>
3.0758

> <Gold.Chemscore.Internal.Correction>
   9.000000E+99

> <Gold.Chemscore.Hbonds>
donor molecule, donor type, donor heavy atom, donor atom, acceptor molecule, acceptor atom, score
      L1  H    21    49       P1  7957  0.90
      L1  H    27    62       P1 10957  0.52
      P1  H  7989  7998       L1    21  0.22

> <Gold.Chemscore.Hbond.Weighted>
-6.9599

> <Gold.Chemscore.Metal.Weighted>
-0.0000

> <Gold.Chemscore.Lipo.Weighted>
-9.0116

> <Gold.Chemscore.Internal_Hbond.Weighted>
0.0000

> <Gold.Chemscore.DEClash.Weighted>
0.0901

> <Gold.Chemscore.DEInternal.Weighted>
1.8933

> <Gold.Chemscore.Rot.Weighted>
7.8741

> <Gold.Chemscore.Internal.Correction.Weighted>
   9.000000E+99

> <Gold.Protein.RotatedTorsions>
[ 6907 6896 6895 6894 ] final  -23.45 input  -60.11 | X-H torsion
[ 7974 7965 7964 7962 ] final  -47.46 input  175.53 | X-H torsion
[ 8008 7997 7996 7995 ] final   53.48 input   59.86 | X-H torsion
[ 10167 10162 10161 10158 ] final  -18.56 input  -65.29 | X-H torsion
[ 10718 10713 10712 10709 ] final  -42.56 input   66.30 | X-H torsion
[ 10763 10752 10751 10750 ] final   68.44 input  -60.55 | X-H torsion
[ 11005 11000 10999 10996 ] final  123.87 input  -57.11 | X-H torsion

> <Gold.Protein.ActiveResidues>
 VAL166  LYS551  ARG553  GLY616  TRP617  ASP618  TYR619  PRO620  LYS621  CYS622 
 ASP623  PHE694  ASN695  SER759  ASP760  ASP761  ALA762  ILE779  LEU786  VAL792 
 PHE793  MET794  SER795  GLU796  ALA797  LYS798  CYS799  TRP800  GLU811  SER814 

> <Gold.Protein.RotatedAtoms>
  151.2038  135.0453  159.8882 H   0  0  0  0  0  0  0  0  0  0  0  0  # atno 6907 bound_to 6896
  152.5430  134.0821  159.8250 H   0  0  0  0  0  0  0  0  0  0  0  0  # atno 6908 bound_to 6896
  151.0965  133.5228  159.2644 H   0  0  0  0  0  0  0  0  0  0  0  0  # atno 6909 bound_to 6896
  145.9614  140.7476  142.9456 H   0  0  0  0  0  0  0  0  0  0  0  0  # atno 7974 bound_to 7965
  155.4689  140.3464  155.4323 H   0  0  0  0  0  0  0  0  0  0  0  0  # atno 8008 bound_to 7997
  156.1113  140.1461  156.9363 H   0  0  0  0  0  0  0  0  0  0  0  0  # atno 8009 bound_to 7997
  154.4758  140.0885  156.7238 H   0  0  0  0  0  0  0  0  0  0  0  0  # atno 8010 bound_to 7997
  140.7260  143.4904  150.9999 H   0  0  0  0  0  0  0  0  0  0  0  0  # atno 10167 bound_to 10162
  156.2583  130.4194  149.8571 H   0  0  0  0  0  0  0  0  0  0  0  0  # atno 10718 bound_to 10713
  153.0236  135.5247  154.7135 H   0  0  0  0  0  0  0  0  0  0  0  0  # atno 10763 bound_to 10752
  154.6211  135.2889  155.0327 H   0  0  0  0  0  0  0  0  0  0  0  0  # atno 10764 bound_to 10752
  154.1314  135.6592  153.4975 H   0  0  0  0  0  0  0  0  0  0  0  0  # atno 10765 bound_to 10752
  139.9332  134.9641  156.8324 H   0  0  0  0  0  0  0  0  0  0  0  0  # atno 11005 bound_to 11000
  144.6816  140.2597  143.7320 LP  0  0  0  0  0  0  0  0  0  0  0  0  # atno 17320 bound_to 7965
  145.8035  139.1974  143.2034 LP  0  0  0  0  0  0  0  0  0  0  0  0  # atno 17321 bound_to 7965
  139.8608  143.7317  152.3173 LP  0  0  0  0  0  0  0  0  0  0  0  0  # atno 17342 bound_to 10162
  139.7532  144.7528  151.0475 LP  0  0  0  0  0  0  0  0  0  0  0  0  # atno 17343 bound_to 10162
  156.6095  130.8581  151.3451 LP  0  0  0  0  0  0  0  0  0  0  0  0  # atno 17370 bound_to 10713
  157.7241  130.9598  150.1559 LP  0  0  0  0  0  0  0  0  0  0  0  0  # atno 17371 bound_to 10713
  140.6145  134.0051  155.7591 LP  0  0  0  0  0  0  0  0  0  0  0  0  # atno 17394 bound_to 11000
  141.0933  133.9883  157.3202 LP  0  0  0  0  0  0  0  0  0  0  0  0  # atno 17395 bound_to 11000

$$$$
