AV-unprocessed.smi:3105|AV-procd|sdf|11821|dock9
  -GOLD-   2272017193D 1   1.00000     0.00000
 Structure written by MMmdl.
 34 34  0  0  0  0  0  0  0  0  2 V2000
  150.0918  138.3408  154.3937 C   0  0  0  0  0  0  0  0  0  0  0  0
  148.7805  139.1071  154.1179 C   0  0  2  0  0  0  0  0  0  0  0  0
  148.2222  138.7009  152.8078 N   0  3  0  0  0  0  0  0  0  0  0  0
  146.7455  138.7329  152.7076 C   0  0  0  0  0  0  0  0  0  0  0  0
  146.2270  137.8663  151.5425 C   0  0  0  0  0  0  0  0  0  0  0  0
  145.3483  136.6825  151.9698 C   0  0  0  0  0  0  0  0  0  0  0  0
  144.1148  136.6402  151.4609 N   0  0  0  0  0  0  0  0  0  0  0  0
  145.7648  135.8196  152.7410 O   0  0  0  0  0  0  0  0  0  0  0  0
  148.9656  140.6483  154.1510 C   0  0  1  0  0  0  0  0  0  0  0  0
  147.6244  141.4059  154.0955 C   0  0  0  0  0  0  0  0  0  0  0  0
  149.7407  141.0885  155.3047 N   0  0  0  0  0  0  0  0  0  0  0  0
  149.3284  141.8773  156.3593 C   0  0  0  0  0  0  0  0  0  0  0  0
  150.3946  142.0273  157.1989 C   0  0  0  0  0  0  0  0  0  0  0  0
  151.4296  141.2830  156.5677 C   0  0  0  0  0  0  0  0  0  0  0  0
  151.0366  140.7233  155.4351 N   0  0  0  0  0  0  0  0  0  0  0  0
  150.4928  138.5654  155.3820 H   0  0  0  0  0  0  0  0  0  0  0  0
  150.8573  138.5953  153.6599 H   0  0  0  0  0  0  0  0  0  0  0  0
  149.9478  137.2615  154.3583 H   0  0  0  0  0  0  0  0  0  0  0  0
  148.0595  138.8397  154.8922 H   0  0  0  0  0  0  0  0  0  0  0  0
  148.5829  139.3360  152.1101 H   0  0  0  0  0  0  0  0  0  0  0  0
  146.2925  138.4022  153.6425 H   0  0  0  0  0  0  0  0  0  0  0  0
  146.4285  139.7655  152.5568 H   0  0  0  0  0  0  0  0  0  0  0  0
  145.6398  138.4945  150.8715 H   0  0  0  0  0  0  0  0  0  0  0  0
  147.0661  137.4898  150.9559 H   0  0  0  0  0  0  0  0  0  0  0  0
  143.4914  135.8824  151.7002 H   0  0  0  0  0  0  0  0  0  0  0  0
  143.8085  137.3670  150.8298 H   0  0  0  0  0  0  0  0  0  0  0  0
  149.5387  140.9342  153.2674 H   0  0  0  0  0  0  0  0  0  0  0  0
  147.0783  141.1897  153.1774 H   0  0  0  0  0  0  0  0  0  0  0  0
  147.7839  142.4842  154.1292 H   0  0  0  0  0  0  0  0  0  0  0  0
  146.9791  141.1414  154.9340 H   0  0  0  0  0  0  0  0  0  0  0  0
  148.3219  142.2641  156.4240 H   0  0  0  0  0  0  0  0  0  0  0  0
  150.4298  142.5839  158.1237 H   0  0  0  0  0  0  0  0  0  0  0  0
  152.4479  141.1345  156.8962 H   0  0  0  0  0  0  0  0  0  0  0  0
  148.5480  137.7694  152.5913 H   0  0  0  0  0  0  0  0  0  0  0  0
  1  2  1  0  0  0  0
  1 16  1  0  0  0  0
  1 17  1  0  0  0  0
  1 18  1  0  0  0  0
  2  3  1  0  0  0  0
  2  9  1  0  0  0  0
  2 19  1  0  0  0  0
  3  4  1  0  0  0  0
  3 20  1  0  0  0  0
  3 34  1  0  0  0  0
  4  5  1  0  0  0  0
  4 21  1  0  0  0  0
  4 22  1  0  0  0  0
  5  6  1  0  0  0  0
  5 23  1  0  0  0  0
  5 24  1  0  0  0  0
  6  7  1  0  0  0  0
  6  8  2  0  0  0  0
  7 25  1  0  0  0  0
  7 26  1  0  0  0  0
  9 10  1  0  0  0  0
  9 11  1  0  0  0  0
  9 27  1  0  0  0  0
 10 28  1  0  0  0  0
 10 29  1  0  0  0  0
 10 30  1  0  0  0  0
 11 15  1  0  0  0  0
 11 12  1  0  0  0  0
 12 13  2  0  0  0  0
 12 31  1  0  0  0  0
 13 14  1  0  0  0  0
 13 32  1  0  0  0  0
 14 15  2  0  0  0  0
 14 33  1  0  0  0  0
M  CHG  1   3   1
M  END
> <s_m_source_file>
AV-unprocessed.smi

> <i_m_source_file_index>
3105

> <i_lp_mmshare_version>
43012

> <i_f3d_flags>
0

> <s_epik_input>
W05IMl1DKD1PKVtDSDJdW0NIMl1bTkhdW0NAQEhdKFtDSDNdKVtDQEhdKFtDSDNdKW4xW2NIXVtjSF1bY0hdbjE=

> <s_epik_cmdline>
J2VwaWtfcHl0aG9uJywgJy1waCcsICc3LjAnLCAnLXRuJywgJzgnLCAnLW1hJywgJzIwMCcsICctbWV0YWxfYmluZGluZycsICctaW1hZScsICc8aW5maWxlLm1hZT4nLCAnLW9tYWUnLCAnPG91dGZpbGUubWFlPic=

> <r_lp_tautomer_probability>
1

> <r_epik_Ionization_Penalty>
0.00475669

> <r_epik_Ionization_Penalty_Charging>
0.00474654

> <r_epik_Ionization_Penalty_Neutral>
1.01546e-05

> <r_epik_State_Penalty>
-0

> <r_epik_Charging_Adjusted_Penalty>
0.00474654

> <i_epik_Tot_Q>
1

> <i_epik_Tot_abs_Q>
1

> <r_epik_Metal_State_Penalty>
-0

> <b_epik_Metal_Only>
0

> <s_lp_Force_Field>
OPLS_2005

> <r_lp_Energy>
6.92169

> <b_lp_Chiralities_Consistent>
1

> <s_lp_Variant>
AV-unprocessed.smi:3105-3

> <Gold.Version>
5.8.1

> <Gold.Id.Protein>
6NUR|6NUR_protein|mol2

> <Gold.PLP.Fitness>
41.5927

> <Gold.PLP.PLP>
-28.2555

> <Gold.PLP.part.hbond>
-3.9316

> <Gold.PLP.part.metal>
0.0000

> <Gold.PLP.part.buried>
1.5579

> <Gold.PLP.part.nonpolar>
-25.8830

> <Gold.PLP.part.repulsive>
0.2815

> <Gold.PLP.ligand.clash>
0.0000

> <Gold.PLP.ligand.torsion>
1.0582

> <Gold.PLP.Chemscore.Hbond>
4.8320

> <Gold.PLP.Chemscore.CHOScore>
0.2755

> <Gold.PLP.Chemscore.Metal>
0.0000

> <Gold.Chemscore.Hbonds>
donor molecule, donor type, donor heavy atom, donor atom, acceptor molecule, acceptor atom, score
      L1  H     3    20       P1  7957  1.00
      L1  H     3    34       P1  7948  2.00
      L1  H     7    26       P1 10171  1.00
      P1  H  7989  7998       L1    15  0.83
      L1  C    12    31       P1  8028  0.27

> <Gold.PLP.Chemscore.Internal.Correction>
0.1310

> <Gold.Rescore>
     Score         DG    S(hbond)    S(metal)    S(lipo)     H(rot)  DE(clash)    DE(int)     intcor
     13.69     -16.73       3.41        0.00      61.13       2.85       0.53       2.51       ----

> <Gold.Chemscore.Fitness>
13.6922

> <Gold.Chemscore.DG>
-16.7269

> <Gold.Chemscore.ZeroCoef>
-5.4800

> <Gold.Chemscore.Hbond>
3.4082

> <Gold.Chemscore.Metal>
0.0000

> <Gold.Chemscore.Lipo>
61.1343

> <Gold.Chemscore.Internal_Hbond>
0.0000

> <Gold.Chemscore.DEClash>
0.5272

> <Gold.Chemscore.DEInternal>
2.5075

> <Gold.Chemscore.Rot>
2.8473

> <Gold.Chemscore.Internal.Correction>
   9.000000E+99

> <Gold.Chemscore.Hbonds>
donor molecule, donor type, donor heavy atom, donor atom, acceptor molecule, acceptor atom, score
      L1  H     3    20       P1  7957  0.95
      L1  H     3    34       P1  7948  1.00
      L1  H     7    26       P1 10171  0.97
      P1  H  7989  7998       L1    15  0.19

> <Gold.Chemscore.Hbond.Weighted>
-11.3834

> <Gold.Chemscore.Metal.Weighted>
-0.0000

> <Gold.Chemscore.Lipo.Weighted>
-7.1527

> <Gold.Chemscore.Internal_Hbond.Weighted>
0.0000

> <Gold.Chemscore.DEClash.Weighted>
0.5272

> <Gold.Chemscore.DEInternal.Weighted>
2.5075

> <Gold.Chemscore.Rot.Weighted>
7.2892

> <Gold.Chemscore.Internal.Correction.Weighted>
   9.000000E+99

> <Gold.Protein.RotatedTorsions>
[ 6907 6896 6895 6894 ] final  171.02 input  -60.11 | X-H torsion
[ 7974 7965 7964 7962 ] final    9.92 input  175.53 | X-H torsion
[ 8008 7997 7996 7995 ] final   13.83 input   59.86 | X-H torsion
[ 10167 10162 10161 10158 ] final  159.52 input  -65.29 | X-H torsion
[ 10718 10713 10712 10709 ] final -133.31 input   66.30 | X-H torsion
[ 10763 10752 10751 10750 ] final   14.02 input  -60.55 | X-H torsion
[ 11005 11000 10999 10996 ] final  178.18 input  -57.11 | X-H torsion

> <Gold.Protein.ActiveResidues>
 VAL166  LYS551  ARG553  GLY616  TRP617  ASP618  TYR619  PRO620  LYS621  CYS622 
 ASP623  PHE694  ASN695  SER759  ASP760  ASP761  ALA762  ILE779  LEU786  VAL792 
 PHE793  MET794  SER795  GLU796  ALA797  LYS798  CYS799  TRP800  GLU811  SER814 

> <Gold.Protein.RotatedAtoms>
  151.8068  133.3376  159.3543 H   0  0  0  0  0  0  0  0  0  0  0  0  # atno 6907 bound_to 6896
  150.7339  134.5701  159.5895 H   0  0  0  0  0  0  0  0  0  0  0  0  # atno 6908 bound_to 6896
  152.3103  134.7506  160.0389 H   0  0  0  0  0  0  0  0  0  0  0  0  # atno 6909 bound_to 6896
  146.2396  139.9711  142.8447 H   0  0  0  0  0  0  0  0  0  0  0  0  # atno 7974 bound_to 7965
  154.8400  140.2913  155.5666 H   0  0  0  0  0  0  0  0  0  0  0  0  # atno 8008 bound_to 7997
  156.3011  140.2516  156.3272 H   0  0  0  0  0  0  0  0  0  0  0  0  # atno 8009 bound_to 7997
  154.9136  140.0388  157.1949 H   0  0  0  0  0  0  0  0  0  0  0  0  # atno 8010 bound_to 7997
  139.4833  144.4722  151.8561 H   0  0  0  0  0  0  0  0  0  0  0  0  # atno 10167 bound_to 10162
  156.2435  130.7110  151.0981 H   0  0  0  0  0  0  0  0  0  0  0  0  # atno 10718 bound_to 10713
  153.1663  135.6804  153.8671 H   0  0  0  0  0  0  0  0  0  0  0  0  # atno 10763 bound_to 10752
  153.8050  135.3150  155.3395 H   0  0  0  0  0  0  0  0  0  0  0  0  # atno 10764 bound_to 10752
  154.7967  135.4802  154.0269 H   0  0  0  0  0  0  0  0  0  0  0  0  # atno 10765 bound_to 10752
  140.3923  134.6851  157.4514 H   0  0  0  0  0  0  0  0  0  0  0  0  # atno 11005 bound_to 11000
  145.1680  140.9706  143.4338 LP  0  0  0  0  0  0  0  0  0  0  0  0  # atno 17320 bound_to 7965
  145.0055  139.3559  143.6146 LP  0  0  0  0  0  0  0  0  0  0  0  0  # atno 17321 bound_to 7965
  140.4191  144.2267  150.5887 LP  0  0  0  0  0  0  0  0  0  0  0  0  # atno 17342 bound_to 10162
  140.4891  143.2353  151.8845 LP  0  0  0  0  0  0  0  0  0  0  0  0  # atno 17343 bound_to 10162
  157.7185  131.0695  150.6230 LP  0  0  0  0  0  0  0  0  0  0  0  0  # atno 17370 bound_to 10713
  156.6305  130.4430  149.5788 LP  0  0  0  0  0  0  0  0  0  0  0  0  # atno 17371 bound_to 10713
  140.0397  134.6285  155.8996 LP  0  0  0  0  0  0  0  0  0  0  0  0  # atno 17394 bound_to 11000
  141.1886  133.6563  156.5333 LP  0  0  0  0  0  0  0  0  0  0  0  0  # atno 17395 bound_to 11000

$$$$
