AV-unprocessed.smi:1912|AV-procd|sdf|7749|dock1
  -GOLD-   22720 9483D 1   1.00000     0.00000
 Structure written by MMmdl.
 43 45  0  0  0  0  0  0  0  0  1 V2000
  146.6125  144.6467  161.3187 C   0  0  0  0  0  0  0  0  0  0  0  0
  147.6527  144.0370  160.5689 O   0  0  0  0  0  0  0  0  0  0  0  0
  147.3027  143.2668  159.4806 C   0  0  0  0  0  0  0  0  0  0  0  0
  145.9700  142.9790  159.1037 C   0  0  0  0  0  0  0  0  0  0  0  0
  145.7052  142.1732  157.9813 C   0  0  0  0  0  0  0  0  0  0  0  0
  146.7624  141.6358  157.2066 C   0  0  0  0  0  0  0  0  0  0  0  0
  146.5580  140.8196  156.1127 O   0  0  0  0  0  0  0  0  0  0  0  0
  145.2325  140.6567  155.6317 C   0  0  0  0  0  0  0  0  0  0  0  0
  148.0983  141.9300  157.5753 C   0  0  0  0  0  0  0  0  0  0  0  0
  149.2687  141.3373  156.7908 C   0  0  1  0  0  0  0  0  0  0  0  0
  149.0109  141.2630  155.4027 O   0  0  0  0  0  0  0  0  0  0  0  0
  150.5732  142.1379  156.9907 C   0  0  0  0  0  0  0  0  0  0  0  0
  151.5110  141.4663  157.8808 N   0  0  0  0  0  0  0  0  0  0  0  0
  152.0615  140.2359  157.7370 C   0  0  0  0  0  0  0  0  0  0  0  0
  151.7650  139.3717  156.5529 C   0  0  0  0  0  0  0  0  0  0  0  0
  152.8759  139.8442  158.7170 N   0  0  0  0  0  0  0  0  0  0  0  0
  152.8534  140.9238  159.5787 C   0  0  0  0  0  0  0  0  0  0  0  0
  153.5073  141.1251  160.8154 C   0  0  0  0  0  0  0  0  0  0  0  0
  153.3258  142.3262  161.5317 C   0  0  0  0  0  0  0  0  0  0  0  0
  152.4909  143.3418  161.0227 C   0  0  0  0  0  0  0  0  0  0  0  0
  151.8320  143.1626  159.7916 C   0  0  0  0  0  0  0  0  0  0  0  0
  152.0140  141.9606  159.0813 C   0  0  0  0  0  0  0  0  0  0  0  0
  148.3522  142.7369  158.7069 C   0  0  0  0  0  0  0  0  0  0  0  0
  147.0479  145.2057  162.1469 H   0  0  0  0  0  0  0  0  0  0  0  0
  145.9377  143.9018  161.7426 H   0  0  0  0  0  0  0  0  0  0  0  0
  146.0406  145.3497  160.7116 H   0  0  0  0  0  0  0  0  0  0  0  0
  145.1296  143.3617  159.6626 H   0  0  0  0  0  0  0  0  0  0  0  0
  144.6724  141.9784  157.7361 H   0  0  0  0  0  0  0  0  0  0  0  0
  145.2287  139.9065  154.8410 H   0  0  0  0  0  0  0  0  0  0  0  0
  144.8450  141.5845  155.2093 H   0  0  0  0  0  0  0  0  0  0  0  0
  144.5631  140.3071  156.4190 H   0  0  0  0  0  0  0  0  0  0  0  0
  149.4272  140.3068  157.1072 H   0  0  0  0  0  0  0  0  0  0  0  0
  148.7093  142.1091  155.1089 H   0  0  0  0  0  0  0  0  0  0  0  0
  151.0671  142.3028  156.0325 H   0  0  0  0  0  0  0  0  0  0  0  0
  150.3557  143.1287  157.3916 H   0  0  0  0  0  0  0  0  0  0  0  0
  152.2831  138.4160  156.6386 H   0  0  0  0  0  0  0  0  0  0  0  0
  152.0966  139.8598  155.6363 H   0  0  0  0  0  0  0  0  0  0  0  0
  150.6954  139.1751  156.4830 H   0  0  0  0  0  0  0  0  0  0  0  0
  154.1483  140.3530  161.2142 H   0  0  0  0  0  0  0  0  0  0  0  0
  153.8294  142.4688  162.4765 H   0  0  0  0  0  0  0  0  0  0  0  0
  152.3552  144.2578  161.5787 H   0  0  0  0  0  0  0  0  0  0  0  0
  151.1870  143.9366  159.4030 H   0  0  0  0  0  0  0  0  0  0  0  0
  149.3704  142.9454  159.0012 H   0  0  0  0  0  0  0  0  0  0  0  0
  1  2  1  0  0  0  0
  1 24  1  0  0  0  0
  1 25  1  0  0  0  0
  1 26  1  0  0  0  0
  2  3  1  0  0  0  0
  3 23  1  0  0  0  0
  3  4  2  0  0  0  0
  4  5  1  0  0  0  0
  4 27  1  0  0  0  0
  5  6  2  0  0  0  0
  5 28  1  0  0  0  0
  6  7  1  0  0  0  0
  6  9  1  0  0  0  0
  7  8  1  0  0  0  0
  8 29  1  0  0  0  0
  8 30  1  0  0  0  0
  8 31  1  0  0  0  0
  9 10  1  0  0  0  0
  9 23  2  0  0  0  0
 10 11  1  0  0  0  0
 10 12  1  0  0  0  0
 10 32  1  0  0  0  0
 11 33  1  0  0  0  0
 12 13  1  0  0  0  0
 12 34  1  0  0  0  0
 12 35  1  0  0  0  0
 13 22  1  0  0  0  0
 13 14  1  0  0  0  0
 14 15  1  0  0  0  0
 14 16  2  0  0  0  0
 15 36  1  0  0  0  0
 15 37  1  0  0  0  0
 15 38  1  0  0  0  0
 16 17  1  0  0  0  0
 17 22  2  0  0  0  0
 17 18  1  0  0  0  0
 18 19  2  0  0  0  0
 18 39  1  0  0  0  0
 19 20  1  0  0  0  0
 19 40  1  0  0  0  0
 20 21  2  0  0  0  0
 20 41  1  0  0  0  0
 21 22  1  0  0  0  0
 21 42  1  0  0  0  0
 23 43  1  0  0  0  0
M  END
> <s_m_source_file>
AV-unprocessed.smi

> <i_m_source_file_index>
1912

> <i_lp_mmshare_version>
43012

> <i_f3d_flags>
0

> <s_epik_input>
W0NIM11PYzFbY0hdW2NIXWMoT1tDSDNdKWMoW2NIXTEpW0NASF0oW09IXSlbQ0gyXW4oYyhuMilbQ0gzXSljKGMyMylbY0hdW2NIXVtjSF1bY0hdMw==

> <s_epik_cmdline>
J2VwaWtfcHl0aG9uJywgJy1waCcsICc3LjAnLCAnLXRuJywgJzgnLCAnLW1hJywgJzIwMCcsICctbWV0YWxfYmluZGluZycsICctaW1hZScsICc8aW5maWxlLm1hZT4nLCAnLW9tYWUnLCAnPG91dGZpbGUubWFlPic=

> <r_lp_tautomer_probability>
1

> <r_epik_Ionization_Penalty>
0.129663

> <r_epik_Ionization_Penalty_Charging>
0

> <r_epik_Ionization_Penalty_Neutral>
0.129663

> <r_epik_State_Penalty>
0.119073

> <r_epik_Charging_Adjusted_Penalty>
0.119073

> <i_epik_Tot_Q>
0

> <i_epik_Tot_abs_Q>
0

> <r_epik_Metal_State_Penalty>
0.000131867

> <b_epik_Metal_Only>
0

> <s_lp_Force_Field>
OPLS_2005

> <r_lp_Energy>
18.0714

> <b_lp_Chiralities_Consistent>
1

> <s_lp_Variant>
AV-unprocessed.smi:1912-2

> <Gold.Version>
5.8.1

> <Gold.Id.Protein>
6NUR|6NUR_protein|mol2

> <Gold.PLP.Fitness>
44.6864

> <Gold.PLP.PLP>
-39.1257

> <Gold.PLP.part.hbond>
-3.0000

> <Gold.PLP.part.metal>
0.0000

> <Gold.PLP.part.buried>
-2.2271

> <Gold.PLP.part.nonpolar>
-34.0638

> <Gold.PLP.part.repulsive>
0.2067

> <Gold.PLP.ligand.clash>
0.0000

> <Gold.PLP.ligand.torsion>
1.3882

> <Gold.PLP.Chemscore.Hbond>
2.7330

> <Gold.PLP.Chemscore.CHOScore>
0.0000

> <Gold.PLP.Chemscore.Metal>
0.0000

> <Gold.Chemscore.Hbonds>
donor molecule, donor type, donor heavy atom, donor atom, acceptor molecule, acceptor atom, score
      P1  H  6933  6944       L1     2  0.40

> <Gold.PLP.Chemscore.Internal.Correction>
0.1381

> <Gold.Rescore>
     Score         DG    S(hbond)    S(metal)    S(lipo)     H(rot)  DE(clash)    DE(int)     intcor
     13.96     -15.19       1.03        0.00     101.21       2.17       0.09       1.15       ----

> <Gold.Chemscore.Fitness>
13.9586

> <Gold.Chemscore.DG>
-15.1949

> <Gold.Chemscore.ZeroCoef>
-5.4800

> <Gold.Chemscore.Hbond>
1.0258

> <Gold.Chemscore.Metal>
0.0000

> <Gold.Chemscore.Lipo>
101.2083

> <Gold.Chemscore.Internal_Hbond>
0.0000

> <Gold.Chemscore.DEClash>
0.0908

> <Gold.Chemscore.DEInternal>
1.1455

> <Gold.Chemscore.Rot>
2.1690

> <Gold.Chemscore.Internal.Correction>
   9.000000E+99

> <Gold.Chemscore.Hbonds>
donor molecule, donor type, donor heavy atom, donor atom, acceptor molecule, acceptor atom, score
      P1  H  6933  6944       L1     2  0.01

> <Gold.Chemscore.Hbond.Weighted>
-3.4261

> <Gold.Chemscore.Metal.Weighted>
-0.0000

> <Gold.Chemscore.Lipo.Weighted>
-11.8414

> <Gold.Chemscore.Internal_Hbond.Weighted>
0.0000

> <Gold.Chemscore.DEClash.Weighted>
0.0908

> <Gold.Chemscore.DEInternal.Weighted>
1.1455

> <Gold.Chemscore.Rot.Weighted>
5.5526

> <Gold.Chemscore.Internal.Correction.Weighted>
   9.000000E+99

> <Gold.Protein.RotatedTorsions>
[ 6907 6896 6895 6894 ] final   58.48 input  -60.11 | X-H torsion
[ 7974 7965 7964 7962 ] final  107.60 input  175.53 | X-H torsion
[ 8008 7997 7996 7995 ] final  -81.57 input   59.86 | X-H torsion
[ 10167 10162 10161 10158 ] final  148.83 input  -65.29 | X-H torsion
[ 10718 10713 10712 10709 ] final  -52.14 input   66.30 | X-H torsion
[ 10763 10752 10751 10750 ] final  134.46 input  -60.55 | X-H torsion
[ 11005 11000 10999 10996 ] final  156.06 input  -57.11 | X-H torsion

> <Gold.Protein.ActiveResidues>
 VAL166  LYS551  ARG553  GLY616  TRP617  ASP618  TYR619  PRO620  LYS621  CYS622 
 ASP623  PHE694  ASN695  SER759  ASP760  ASP761  ALA762  ILE779  LEU786  VAL792 
 PHE793  MET794  SER795  GLU796  ALA797  LYS798  CYS799  TRP800  GLU811  SER814 

> <Gold.Protein.RotatedAtoms>
  152.3828  134.6564  160.0136 H   0  0  0  0  0  0  0  0  0  0  0  0  # atno 6907 bound_to 6896
  151.6823  133.3306  159.3230 H   0  0  0  0  0  0  0  0  0  0  0  0  # atno 6908 bound_to 6896
  150.7761  134.6707  159.6434 H   0  0  0  0  0  0  0  0  0  0  0  0  # atno 6909 bound_to 6896
  145.2916  139.2598  143.3862 H   0  0  0  0  0  0  0  0  0  0  0  0  # atno 7974 bound_to 7965
  154.5997  140.0646  156.9352 H   0  0  0  0  0  0  0  0  0  0  0  0  # atno 8008 bound_to 7997
  155.2153  140.3326  155.4305 H   0  0  0  0  0  0  0  0  0  0  0  0  # atno 8009 bound_to 7997
  156.2310  140.1841  156.7226 H   0  0  0  0  0  0  0  0  0  0  0  0  # atno 8010 bound_to 7997
  139.4869  144.5649  151.7164 H   0  0  0  0  0  0  0  0  0  0  0  0  # atno 10167 bound_to 10162
  156.1648  130.4149  149.9738 H   0  0  0  0  0  0  0  0  0  0  0  0  # atno 10718 bound_to 10713
  153.8239  135.3112  155.3413 H   0  0  0  0  0  0  0  0  0  0  0  0  # atno 10763 bound_to 10752
  154.8001  135.4731  154.0259 H   0  0  0  0  0  0  0  0  0  0  0  0  # atno 10764 bound_to 10752
  153.1676  135.6872  153.8743 H   0  0  0  0  0  0  0  0  0  0  0  0  # atno 10765 bound_to 10752
  140.1640  134.8590  157.2609 H   0  0  0  0  0  0  0  0  0  0  0  0  # atno 11005 bound_to 11000
  146.3183  140.3408  142.8648 LP  0  0  0  0  0  0  0  0  0  0  0  0  # atno 17320 bound_to 7965
  144.9168  140.7822  143.5773 LP  0  0  0  0  0  0  0  0  0  0  0  0  # atno 17321 bound_to 7965
  140.5225  144.0857  150.6027 LP  0  0  0  0  0  0  0  0  0  0  0  0  # atno 17342 bound_to 10162
  140.3819  143.2798  152.0160 LP  0  0  0  0  0  0  0  0  0  0  0  0  # atno 17343 bound_to 10162
  156.7556  130.9132  151.3639 LP  0  0  0  0  0  0  0  0  0  0  0  0  # atno 17370 bound_to 10713
  157.6759  130.9094  150.0150 LP  0  0  0  0  0  0  0  0  0  0  0  0  # atno 17371 bound_to 10713
  140.2456  134.3743  155.7462 LP  0  0  0  0  0  0  0  0  0  0  0  0  # atno 17394 bound_to 11000
  141.2212  133.7289  156.8857 LP  0  0  0  0  0  0  0  0  0  0  0  0  # atno 17395 bound_to 11000

$$$$
