AV-unprocessed.smi:3032|AV-procd|sdf|11561|dock4
  -GOLD-   2272016523D 1   1.00000     0.00000
 Structure written by MMmdl.
 37 38  0  0  0  0  0  0  0  0  1 V2000
  151.2661  145.4796  160.3135 C   0  0  0  0  0  0  0  0  0  0  0  0
  151.8069  144.0446  160.3849 C   0  0  2  0  0  0  0  0  0  0  0  0
  152.4267  143.7423  161.7618 C   0  0  0  0  0  0  0  0  0  0  0  0
  152.9468  142.2989  161.8422 C   0  0  0  0  0  0  0  0  0  0  0  0
  153.9364  141.9830  160.7026 C   0  0  0  0  0  0  0  0  0  0  0  0
  153.3966  142.3361  159.2945 C   0  0  1  0  0  0  0  0  0  0  0  0
  152.3748  141.3240  158.7426 C   0  0  0  0  0  0  0  0  0  0  0  0
  151.2570  141.6800  158.3700 O   0  0  0  0  0  0  0  0  0  0  0  0
  152.7825  140.0464  158.6988 N   0  0  0  0  0  0  0  0  0  0  0  0
  152.0111  138.9337  158.1530 C   0  0  0  0  0  0  0  0  0  0  0  0
  152.2041  138.7438  156.6334 C   0  0  0  0  0  0  0  0  0  0  0  0
  150.9974  139.0958  155.8208 C   0  0  0  0  0  0  0  0  0  0  0  0
  149.8417  138.4507  155.9882 N   0  0  0  0  0  0  0  0  0  0  0  0
  149.0560  139.0323  155.0563 N   0  0  0  0  0  0  0  0  0  0  0  0
  149.7681  139.9521  154.4076 C   0  0  0  0  0  0  0  0  0  0  0  0
  151.0187  140.0480  154.8374 N   0  0  0  0  0  0  0  0  0  0  0  0
  152.8417  143.7787  159.2725 C   0  0  0  0  0  0  0  0  0  0  0  0
  152.0625  146.2114  160.4517 H   0  0  0  0  0  0  0  0  0  0  0  0
  150.5149  145.6542  161.0842 H   0  0  0  0  0  0  0  0  0  0  0  0
  150.7975  145.6744  159.3485 H   0  0  0  0  0  0  0  0  0  0  0  0
  150.9594  143.3736  160.2383 H   0  0  0  0  0  0  0  0  0  0  0  0
  153.2469  144.4346  161.9572 H   0  0  0  0  0  0  0  0  0  0  0  0
  151.6900  143.9073  162.5487 H   0  0  0  0  0  0  0  0  0  0  0  0
  153.4343  142.1380  162.8042 H   0  0  0  0  0  0  0  0  0  0  0  0
  152.1037  141.6091  161.8179 H   0  0  0  0  0  0  0  0  0  0  0  0
  154.8545  142.5466  160.8731 H   0  0  0  0  0  0  0  0  0  0  0  0
  154.2239  140.9315  160.7461 H   0  0  0  0  0  0  0  0  0  0  0  0
  154.2476  142.3008  158.6121 H   0  0  0  0  0  0  0  0  0  0  0  0
  153.7125  139.8353  159.0307 H   0  0  0  0  0  0  0  0  0  0  0  0
  152.3396  138.0322  158.6704 H   0  0  0  0  0  0  0  0  0  0  0  0
  150.9533  139.0564  158.3903 H   0  0  0  0  0  0  0  0  0  0  0  0
  153.0499  139.3425  156.2939 H   0  0  0  0  0  0  0  0  0  0  0  0
  152.4702  137.7066  156.4252 H   0  0  0  0  0  0  0  0  0  0  0  0
  149.3684  140.5585  153.6083 H   0  0  0  0  0  0  0  0  0  0  0  0
  152.4010  143.9961  158.2986 H   0  0  0  0  0  0  0  0  0  0  0  0
  153.6726  144.4774  159.3798 H   0  0  0  0  0  0  0  0  0  0  0  0
  148.0902  138.7772  154.9071 H   0  0  0  0  0  0  0  0  0  0  0  0
  1  2  1  0  0  0  0
  1 18  1  0  0  0  0
  1 19  1  0  0  0  0
  1 20  1  0  0  0  0
  2 17  1  0  0  0  0
  2  3  1  0  0  0  0
  2 21  1  0  0  0  0
  3  4  1  0  0  0  0
  3 22  1  0  0  0  0
  3 23  1  0  0  0  0
  4  5  1  0  0  0  0
  4 24  1  0  0  0  0
  4 25  1  0  0  0  0
  5  6  1  0  0  0  0
  5 26  1  0  0  0  0
  5 27  1  0  0  0  0
  6  7  1  0  0  0  0
  6 17  1  0  0  0  0
  6 28  1  0  0  0  0
  7  8  2  0  0  0  0
  7  9  1  0  0  0  0
  9 10  1  0  0  0  0
  9 29  1  0  0  0  0
 10 11  1  0  0  0  0
 10 30  1  0  0  0  0
 10 31  1  0  0  0  0
 11 32  1  0  0  0  0
 11 33  1  0  0  0  0
 11 12  1  0  0  0  0
 12 16  1  0  0  0  0
 12 13  2  0  0  0  0
 13 14  1  0  0  0  0
 14 15  1  0  0  0  0
 14 37  1  0  0  0  0
 15 16  2  0  0  0  0
 15 34  1  0  0  0  0
 17 35  1  0  0  0  0
 17 36  1  0  0  0  0
M  END
> <s_m_source_file>
AV-unprocessed.smi

> <i_m_source_file_index>
3032

> <i_lp_mmshare_version>
43012

> <i_f3d_flags>
0

> <s_epik_input>
W0NIM11bQ0BASF0xW0NIMl1bQ0gyXVtDSDJdW0NASF0oW0NIMl0xKUMoPU8pW05IXVtDSDJdW0NIMl1jMm5uW2NIXVtuSF0y

> <s_epik_cmdline>
J2VwaWtfcHl0aG9uJywgJy1waCcsICc3LjAnLCAnLXRuJywgJzgnLCAnLW1hJywgJzIwMCcsICctbWV0YWxfYmluZGluZycsICctaW1hZScsICc8aW5maWxlLm1hZT4nLCAnLW9tYWUnLCAnPG91dGZpbGUubWFlPic=

> <r_epik_Ionization_Penalty>
0.000752022

> <r_epik_Ionization_Penalty_Charging>
0

> <r_epik_Ionization_Penalty_Neutral>
0.000752022

> <r_epik_State_Penalty>
0.639926

> <r_epik_Charging_Adjusted_Penalty>
0.639926

> <i_epik_Tot_Q>
0

> <i_epik_Tot_abs_Q>
0

> <r_epik_Metal_State_Penalty>
0.76532

> <b_epik_Metal_Only>
0

> <s_lp_Force_Field>
OPLS_2005

> <r_lp_Energy>
7.11884

> <b_lp_Chiralities_Consistent>
1

> <s_lp_Variant>
AV-unprocessed.smi:3032-5

> <Gold.Version>
5.8.1

> <Gold.Id.Protein>
6NUR|6NUR_protein|mol2

> <Gold.PLP.Fitness>
42.0820

> <Gold.PLP.PLP>
-37.1698

> <Gold.PLP.part.hbond>
-1.0000

> <Gold.PLP.part.metal>
0.0000

> <Gold.PLP.part.buried>
-5.0793

> <Gold.PLP.part.nonpolar>
-30.9922

> <Gold.PLP.part.repulsive>
0.2101

> <Gold.PLP.ligand.clash>
0.0000

> <Gold.PLP.ligand.torsion>
0.5613

> <Gold.PLP.Chemscore.Hbond>
1.0000

> <Gold.PLP.Chemscore.CHOScore>
0.9923

> <Gold.PLP.Chemscore.Metal>
0.0000

> <Gold.Chemscore.Hbonds>
donor molecule, donor type, donor heavy atom, donor atom, acceptor molecule, acceptor atom, score
      P1  H  7989  7998       L1    16  0.85
      L1  C    15    34       P1  7957  0.90

> <Gold.PLP.Chemscore.Internal.Correction>
0.0578

> <Gold.Rescore>
     Score         DG    S(hbond)    S(metal)    S(lipo)     H(rot)  DE(clash)    DE(int)     intcor
     13.08     -13.74       0.99        0.00      91.68       2.25       0.13       0.54       ----

> <Gold.Chemscore.Fitness>
13.0763

> <Gold.Chemscore.DG>
-13.7399

> <Gold.Chemscore.ZeroCoef>
-5.4800

> <Gold.Chemscore.Hbond>
0.9860

> <Gold.Chemscore.Metal>
0.0000

> <Gold.Chemscore.Lipo>
91.6833

> <Gold.Chemscore.Internal_Hbond>
0.0000

> <Gold.Chemscore.DEClash>
0.1281

> <Gold.Chemscore.DEInternal>
0.5354

> <Gold.Chemscore.Rot>
2.2501

> <Gold.Chemscore.Internal.Correction>
   9.000000E+99

> <Gold.Chemscore.Hbonds>
donor molecule, donor type, donor heavy atom, donor atom, acceptor molecule, acceptor atom, score
      P1  H  7989  7998       L1    16  0.15

> <Gold.Chemscore.Hbond.Weighted>
-3.2932

> <Gold.Chemscore.Metal.Weighted>
-0.0000

> <Gold.Chemscore.Lipo.Weighted>
-10.7269

> <Gold.Chemscore.Internal_Hbond.Weighted>
0.0000

> <Gold.Chemscore.DEClash.Weighted>
0.1281

> <Gold.Chemscore.DEInternal.Weighted>
0.5354

> <Gold.Chemscore.Rot.Weighted>
5.7603

> <Gold.Chemscore.Internal.Correction.Weighted>
   9.000000E+99

> <Gold.Protein.RotatedTorsions>
[ 6907 6896 6895 6894 ] final   28.49 input  -60.11 | X-H torsion
[ 7974 7965 7964 7962 ] final  -80.53 input  175.53 | X-H torsion
[ 8008 7997 7996 7995 ] final  137.37 input   59.86 | X-H torsion
[ 10167 10162 10161 10158 ] final  124.87 input  -65.29 | X-H torsion
[ 10718 10713 10712 10709 ] final   -6.95 input   66.30 | X-H torsion
[ 10763 10752 10751 10750 ] final   -2.92 input  -60.55 | X-H torsion
[ 11005 11000 10999 10996 ] final -159.72 input  -57.11 | X-H torsion

> <Gold.Protein.ActiveResidues>
 VAL166  LYS551  ARG553  GLY616  TRP617  ASP618  TYR619  PRO620  LYS621  CYS622 
 ASP623  PHE694  ASN695  SER759  ASP760  ASP761  ALA762  ILE779  LEU786  VAL792 
 PHE793  MET794  SER795  GLU796  ALA797  LYS798  CYS799  TRP800  GLU811  SER814 

> <Gold.Protein.RotatedAtoms>
  152.0176  134.9841  160.0569 H   0  0  0  0  0  0  0  0  0  0  0  0  # atno 6907 bound_to 6896
  152.1368  133.4435  159.4755 H   0  0  0  0  0  0  0  0  0  0  0  0  # atno 6908 bound_to 6896
  150.6861  134.2272  159.4463 H   0  0  0  0  0  0  0  0  0  0  0  0  # atno 6909 bound_to 6896
  145.5587  140.9485  143.1459 H   0  0  0  0  0  0  0  0  0  0  0  0  # atno 7974 bound_to 7965
  156.3002  140.2421  156.3899 H   0  0  0  0  0  0  0  0  0  0  0  0  # atno 8008 bound_to 7997
  154.8624  140.0419  157.1693 H   0  0  0  0  0  0  0  0  0  0  0  0  # atno 8009 bound_to 7997
  154.8883  140.2959  155.5389 H   0  0  0  0  0  0  0  0  0  0  0  0  # atno 8010 bound_to 7997
  139.5717  144.6942  151.3760 H   0  0  0  0  0  0  0  0  0  0  0  0  # atno 10167 bound_to 10162
  156.7244  130.5161  149.5860 H   0  0  0  0  0  0  0  0  0  0  0  0  # atno 10718 bound_to 10713
  153.3644  135.6992  153.6686 H   0  0  0  0  0  0  0  0  0  0  0  0  # atno 10763 bound_to 10752
  153.5362  135.3582  155.2698 H   0  0  0  0  0  0  0  0  0  0  0  0  # atno 10764 bound_to 10752
  154.8673  135.4192  154.2909 H   0  0  0  0  0  0  0  0  0  0  0  0  # atno 10765 bound_to 10752
  140.6394  134.4567  157.5233 H   0  0  0  0  0  0  0  0  0  0  0  0  # atno 11005 bound_to 11000
  144.7494  139.7235  143.7279 LP  0  0  0  0  0  0  0  0  0  0  0  0  # atno 17320 bound_to 7965
  146.1866  139.5085  142.9832 LP  0  0  0  0  0  0  0  0  0  0  0  0  # atno 17321 bound_to 7965
  140.7001  143.7652  150.7390 LP  0  0  0  0  0  0  0  0  0  0  0  0  # atno 17342 bound_to 10162
  140.1160  143.4655  152.2342 LP  0  0  0  0  0  0  0  0  0  0  0  0  # atno 17343 bound_to 10162
  156.1572  130.6350  151.0672 LP  0  0  0  0  0  0  0  0  0  0  0  0  # atno 17370 bound_to 10713
  157.6885  131.0817  150.7176 LP  0  0  0  0  0  0  0  0  0  0  0  0  # atno 17371 bound_to 10713
  139.9086  134.8395  156.1613 LP  0  0  0  0  0  0  0  0  0  0  0  0  # atno 17394 bound_to 11000
  141.0618  133.6838  156.1966 LP  0  0  0  0  0  0  0  0  0  0  0  0  # atno 17395 bound_to 11000

$$$$
