AV-unprocessed.smi:939|AV-procd|sdf|4218|dock6
  -GOLD-   22720 2123D 1   1.00000     0.00000
 Structure written by MMmdl.
 36 37  0  0  0  0  0  0  0  0  1 V2000
  151.8223  145.5913  159.4955 C   0  0  0  0  0  0  0  0  0  0  0  0
  151.9220  144.4935  160.5603 C   0  0  0  0  0  0  0  0  0  0  0  0
  151.8904  143.1179  159.9628 C   0  0  0  0  0  0  0  0  0  0  0  0
  150.9751  142.8354  158.9454 N   0  0  0  0  0  0  0  0  0  0  0  0
  151.0571  141.5761  158.5096 C   0  0  0  0  0  0  0  0  0  0  0  0
  150.2390  141.0373  157.3790 C   0  0  0  0  0  0  0  0  0  0  0  0
  150.5887  141.6610  156.0136 C   0  0  0  0  0  0  0  0  0  0  0  0
  149.9572  140.9507  154.9069 N   0  0  0  0  0  0  0  0  0  0  0  0
  148.6366  140.7470  154.7705 C   0  0  0  0  0  0  0  0  0  0  0  0
  147.8141  141.0377  155.6369 O   0  0  0  0  0  0  0  0  0  0  0  0
  148.2674  140.2347  153.5833 N   0  0  0  0  0  0  0  0  0  0  0  0
  146.9437  139.9103  153.1434 C   0  0  0  0  0  0  0  0  0  0  0  0
  146.5966  138.4506  152.9512 C   0  0  0  0  0  0  0  0  0  0  0  0
  146.7971  139.3368  151.7513 C   0  0  0  0  0  0  0  0  0  0  0  0
  152.2920  140.6401  159.3383 S   0  0  0  0  0  0  0  0  0  0  0  0
  152.6758  142.0418  160.3053 C   0  0  0  0  0  0  0  0  0  0  0  0
  153.7420  141.9821  161.3480 C   0  0  0  0  0  0  0  0  0  0  0  0
  151.8428  146.5801  159.9537 H   0  0  0  0  0  0  0  0  0  0  0  0
  150.8944  145.5052  158.9291 H   0  0  0  0  0  0  0  0  0  0  0  0
  152.6522  145.5334  158.7907 H   0  0  0  0  0  0  0  0  0  0  0  0
  152.8418  144.6304  161.1303 H   0  0  0  0  0  0  0  0  0  0  0  0
  151.1103  144.6141  161.2778 H   0  0  0  0  0  0  0  0  0  0  0  0
  150.3706  139.9559  157.3365 H   0  0  0  0  0  0  0  0  0  0  0  0
  149.1853  141.2086  157.6032 H   0  0  0  0  0  0  0  0  0  0  0  0
  150.2306  142.6903  155.9848 H   0  0  0  0  0  0  0  0  0  0  0  0
  151.6702  141.7066  155.8778 H   0  0  0  0  0  0  0  0  0  0  0  0
  150.5570  140.6766  154.1425 H   0  0  0  0  0  0  0  0  0  0  0  0
  149.0055  140.0734  152.9131 H   0  0  0  0  0  0  0  0  0  0  0  0
  146.1333  140.5683  153.4531 H   0  0  0  0  0  0  0  0  0  0  0  0
  147.3672  137.7131  153.1677 H   0  0  0  0  0  0  0  0  0  0  0  0
  145.5801  138.1439  153.1891 H   0  0  0  0  0  0  0  0  0  0  0  0
  145.9135  139.6195  151.1826 H   0  0  0  0  0  0  0  0  0  0  0  0
  147.7011  139.1875  151.1633 H   0  0  0  0  0  0  0  0  0  0  0  0
  153.3436  142.2607  162.3238 H   0  0  0  0  0  0  0  0  0  0  0  0
  154.5565  142.6655  161.1075 H   0  0  0  0  0  0  0  0  0  0  0  0
  154.1595  140.9784  161.4307 H   0  0  0  0  0  0  0  0  0  0  0  0
  1  2  1  0  0  0  0
  1 18  1  0  0  0  0
  1 19  1  0  0  0  0
  1 20  1  0  0  0  0
  2  3  1  0  0  0  0
  2 21  1  0  0  0  0
  2 22  1  0  0  0  0
  3 16  2  0  0  0  0
  3  4  1  0  0  0  0
  4  5  2  0  0  0  0
  5  6  1  0  0  0  0
  5 15  1  0  0  0  0
  6  7  1  0  0  0  0
  6 23  1  0  0  0  0
  6 24  1  0  0  0  0
  7  8  1  0  0  0  0
  7 25  1  0  0  0  0
  7 26  1  0  0  0  0
  8  9  1  0  0  0  0
  8 27  1  0  0  0  0
  9 10  2  0  0  0  0
  9 11  1  0  0  0  0
 11 12  1  0  0  0  0
 11 28  1  0  0  0  0
 12 14  1  0  0  0  0
 12 13  1  0  0  0  0
 12 29  1  0  0  0  0
 13 14  1  0  0  0  0
 13 30  1  0  0  0  0
 13 31  1  0  0  0  0
 14 32  1  0  0  0  0
 14 33  1  0  0  0  0
 15 16  1  0  0  0  0
 16 17  1  0  0  0  0
 17 34  1  0  0  0  0
 17 35  1  0  0  0  0
 17 36  1  0  0  0  0
M  END
> <s_m_source_file>
AV-unprocessed.smi

> <i_m_source_file_index>
939

> <i_lp_mmshare_version>
43012

> <i_f3d_flags>
0

> <s_epik_input>
W0NIM11bQ0gyXWMxbmMoc2MxW0NIM10pW0NIMl1bQ0gyXVtOSF1DKD1PKVtOSF1bQ0hdMltDSDJdW0NIMl0y

> <s_epik_cmdline>
J2VwaWtfcHl0aG9uJywgJy1waCcsICc3LjAnLCAnLXRuJywgJzgnLCAnLW1hJywgJzIwMCcsICctbWV0YWxfYmluZGluZycsICctaW1hZScsICc8aW5maWxlLm1hZT4nLCAnLW9tYWUnLCAnPG91dGZpbGUubWFlPic=

> <r_epik_Ionization_Penalty>
0.00437198

> <r_epik_Ionization_Penalty_Charging>
0

> <r_epik_Ionization_Penalty_Neutral>
0.00437198

> <r_epik_State_Penalty>
0.00310304

> <r_epik_Charging_Adjusted_Penalty>
0.00310304

> <i_epik_Tot_Q>
0

> <i_epik_Tot_abs_Q>
0

> <r_epik_Metal_State_Penalty>
-0

> <b_epik_Metal_Only>
0

> <s_lp_Force_Field>
OPLS_2005

> <r_lp_Energy>
13.9428

> <b_lp_Chiralities_Consistent>
1

> <s_lp_Variant>
AV-unprocessed.smi:939-1

> <Gold.Version>
5.8.1

> <Gold.Id.Protein>
6NUR|6NUR_protein|mol2

> <Gold.PLP.Fitness>
40.8732

> <Gold.PLP.PLP>
-38.5820

> <Gold.PLP.part.hbond>
-1.0000

> <Gold.PLP.part.metal>
0.0000

> <Gold.PLP.part.buried>
-3.1382

> <Gold.PLP.part.nonpolar>
-36.3015

> <Gold.PLP.part.repulsive>
1.5700

> <Gold.PLP.ligand.clash>
0.0000

> <Gold.PLP.ligand.torsion>
0.3730

> <Gold.PLP.Chemscore.Hbond>
0.9920

> <Gold.PLP.Chemscore.CHOScore>
0.0000

> <Gold.PLP.Chemscore.Metal>
0.0000

> <Gold.Chemscore.Hbonds>
donor molecule, donor type, donor heavy atom, donor atom, acceptor molecule, acceptor atom, score
      L1  H    11    28       P1  7957  0.99

> <Gold.PLP.Chemscore.Internal.Correction>
0.0612

> <Gold.Rescore>
     Score         DG    S(hbond)    S(metal)    S(lipo)     H(rot)  DE(clash)    DE(int)     intcor
     15.16     -16.74       0.98        0.00     105.37       1.69       0.18       1.40       ----

> <Gold.Chemscore.Fitness>
15.1630

> <Gold.Chemscore.DG>
-16.7422

> <Gold.Chemscore.ZeroCoef>
-5.4800

> <Gold.Chemscore.Hbond>
0.9789

> <Gold.Chemscore.Metal>
0.0000

> <Gold.Chemscore.Lipo>
105.3656

> <Gold.Chemscore.Internal_Hbond>
0.0000

> <Gold.Chemscore.DEClash>
0.1822

> <Gold.Chemscore.DEInternal>
1.3970

> <Gold.Chemscore.Rot>
1.6934

> <Gold.Chemscore.Internal.Correction>
   9.000000E+99

> <Gold.Chemscore.Hbonds>
donor molecule, donor type, donor heavy atom, donor atom, acceptor molecule, acceptor atom, score
      L1  H    11    28       P1  7957  0.94

> <Gold.Chemscore.Hbond.Weighted>
-3.2695

> <Gold.Chemscore.Metal.Weighted>
-0.0000

> <Gold.Chemscore.Lipo.Weighted>
-12.3278

> <Gold.Chemscore.Internal_Hbond.Weighted>
0.0000

> <Gold.Chemscore.DEClash.Weighted>
0.1822

> <Gold.Chemscore.DEInternal.Weighted>
1.3970

> <Gold.Chemscore.Rot.Weighted>
4.3351

> <Gold.Chemscore.Internal.Correction.Weighted>
   9.000000E+99

> <Gold.Protein.RotatedTorsions>
[ 6907 6896 6895 6894 ] final -116.66 input  -60.11 | X-H torsion
[ 7974 7965 7964 7962 ] final  110.74 input  175.53 | X-H torsion
[ 8008 7997 7996 7995 ] final -116.68 input   59.86 | X-H torsion
[ 10167 10162 10161 10158 ] final  154.81 input  -65.29 | X-H torsion
[ 10718 10713 10712 10709 ] final   66.46 input   66.30 | X-H torsion
[ 10763 10752 10751 10750 ] final   55.67 input  -60.55 | X-H torsion
[ 11005 11000 10999 10996 ] final   35.11 input  -57.11 | X-H torsion

> <Gold.Protein.ActiveResidues>
 VAL166  LYS551  ARG553  GLY616  TRP617  ASP618  TYR619  PRO620  LYS621  CYS622 
 ASP623  PHE694  ASN695  SER759  ASP760  ASP761  ALA762  ILE779  LEU786  VAL792 
 PHE793  MET794  SER795  GLU796  ALA797  LYS798  CYS799  TRP800  GLU811  SER814 

> <Gold.Protein.RotatedAtoms>
  150.8074  133.8485  159.3198 H   0  0  0  0  0  0  0  0  0  0  0  0  # atno 6907 bound_to 6896
  151.6281  135.1024  160.0125 H   0  0  0  0  0  0  0  0  0  0  0  0  # atno 6908 bound_to 6896
  152.4165  133.7006  159.6478 H   0  0  0  0  0  0  0  0  0  0  0  0  # atno 6909 bound_to 6896
  145.2511  139.2739  143.4067 H   0  0  0  0  0  0  0  0  0  0  0  0  # atno 7974 bound_to 7965
  155.0716  140.0393  157.2610 H   0  0  0  0  0  0  0  0  0  0  0  0  # atno 8008 bound_to 7997
  154.6978  140.2667  155.6725 H   0  0  0  0  0  0  0  0  0  0  0  0  # atno 8009 bound_to 7997
  156.2750  140.2746  156.1578 H   0  0  0  0  0  0  0  0  0  0  0  0  # atno 8010 bound_to 7997
  139.4822  144.5154  151.7960 H   0  0  0  0  0  0  0  0  0  0  0  0  # atno 10167 bound_to 10162
  157.6170  130.9269  150.0111 H   0  0  0  0  0  0  0  0  0  0  0  0  # atno 10718 bound_to 10713
  152.9820  135.5702  154.5105 H   0  0  0  0  0  0  0  0  0  0  0  0  # atno 10763 bound_to 10752
  154.4609  135.2781  155.1715 H   0  0  0  0  0  0  0  0  0  0  0  0  # atno 10764 bound_to 10752
  154.3303  135.6250  153.5602 H   0  0  0  0  0  0  0  0  0  0  0  0  # atno 10765 bound_to 10752
  140.2460  134.3359  155.7908 H   0  0  0  0  0  0  0  0  0  0  0  0  # atno 11005 bound_to 11000
  146.3302  140.2902  142.8615 LP  0  0  0  0  0  0  0  0  0  0  0  0  # atno 17320 bound_to 7965
  144.9502  140.8170  143.5576 LP  0  0  0  0  0  0  0  0  0  0  0  0  # atno 17321 bound_to 7965
  140.4662  144.1652  150.5912 LP  0  0  0  0  0  0  0  0  0  0  0  0  # atno 17342 bound_to 10162
  140.4432  143.2518  151.9446 LP  0  0  0  0  0  0  0  0  0  0  0  0  # atno 17343 bound_to 10162
  156.1297  130.3643  149.9752 LP  0  0  0  0  0  0  0  0  0  0  0  0  # atno 17370 bound_to 10713
  156.7816  130.9223  151.3646 LP  0  0  0  0  0  0  0  0  0  0  0  0  # atno 17371 bound_to 10713
  141.2206  133.7326  156.8961 LP  0  0  0  0  0  0  0  0  0  0  0  0  # atno 17394 bound_to 11000
  140.1605  134.9168  157.2709 LP  0  0  0  0  0  0  0  0  0  0  0  0  # atno 17395 bound_to 11000

$$$$
