AV-unprocessed.smi:1701|AV-procd|sdf|6829|dock6
  -GOLD-   22720 8 03D 1   1.00000     0.00000
 Structure written by MMmdl.
 54 56  0  0  0  0  0  0  0  0  2 V2000
  152.9934  141.5141  160.0705 C   0  0  0  0  0  0  0  0  0  0  0  0
  152.4946  140.3443  159.2107 C   0  0  0  0  0  0  0  0  0  0  0  0
  151.5791  140.7616  158.1485 N   0  0  0  0  0  0  0  0  0  0  0  0
  151.3215  142.1899  157.9495 C   0  0  0  0  0  0  0  0  0  0  0  0
  149.8519  142.5739  158.1819 C   0  0  0  0  0  0  0  0  0  0  0  0
  151.0682  139.8162  157.2248 C   0  0  0  0  0  0  0  0  0  0  0  0
  150.7694  140.1673  155.8840 C   0  0  0  0  0  0  0  0  0  0  0  0
  150.2667  139.1879  155.0061 C   0  0  0  0  0  0  0  0  0  0  0  0
  150.0675  137.8737  155.4856 C   0  0  0  0  0  0  0  0  0  0  0  0
  149.5954  136.7983  154.6868 N   0  0  0  0  0  0  0  0  0  0  0  0
  149.3309  135.5327  155.0659 C   0  0  0  0  0  0  0  0  0  0  0  0
  149.5706  135.0734  156.1801 O   0  0  0  0  0  0  0  0  0  0  0  0
  148.8071  134.7626  154.0958 N   0  0  0  0  0  0  0  0  0  0  0  0
  148.4101  133.3562  154.1760 C   0  0  2  0  0  0  0  0  0  0  0  0
  149.4080  132.4622  154.9331 C   0  0  0  0  0  0  0  0  0  0  0  0
  149.4658  131.1427  154.1384 C   0  0  0  0  0  0  0  0  0  0  0  0
  148.4613  131.2542  153.0564 N   0  3  1  0  0  0  0  0  0  0  0  0
  147.1755  130.5954  153.4158 C   0  0  0  0  0  0  0  0  0  0  0  0
  146.0639  130.9093  152.4063 C   0  0  0  0  0  0  0  0  0  0  0  0
  145.8533  132.4219  152.3061 C   0  0  0  0  0  0  0  0  0  0  0  0
  147.1654  133.0936  151.8867 C   0  0  0  0  0  0  0  0  0  0  0  0
  148.3605  132.7090  152.7876 C   0  0  1  0  0  0  0  0  0  0  0  0
  150.4054  137.6124  156.8270 C   0  0  0  0  0  0  0  0  0  0  0  0
  150.8829  138.5494  157.6718 N   0  0  0  0  0  0  0  0  0  0  0  0
  153.7136  141.1652  160.8105 H   0  0  0  0  0  0  0  0  0  0  0  0
  152.1752  141.9873  160.6119 H   0  0  0  0  0  0  0  0  0  0  0  0
  153.4836  142.2775  159.4664 H   0  0  0  0  0  0  0  0  0  0  0  0
  153.3349  139.7903  158.7930 H   0  0  0  0  0  0  0  0  0  0  0  0
  151.9784  139.6297  159.8522 H   0  0  0  0  0  0  0  0  0  0  0  0
  151.9719  142.7825  158.5934 H   0  0  0  0  0  0  0  0  0  0  0  0
  151.5986  142.4603  156.9303 H   0  0  0  0  0  0  0  0  0  0  0  0
  149.7043  143.6409  158.0146 H   0  0  0  0  0  0  0  0  0  0  0  0
  149.5375  142.3556  159.2025 H   0  0  0  0  0  0  0  0  0  0  0  0
  149.1841  142.0413  157.5061 H   0  0  0  0  0  0  0  0  0  0  0  0
  150.9089  141.1684  155.5069 H   0  0  0  0  0  0  0  0  0  0  0  0
  150.0599  139.4602  153.9827 H   0  0  0  0  0  0  0  0  0  0  0  0
  149.4687  137.0080  153.7077 H   0  0  0  0  0  0  0  0  0  0  0  0
  148.7189  135.1927  153.1861 H   0  0  0  0  0  0  0  0  0  0  0  0
  147.4267  133.2781  154.6426 H   0  0  0  0  0  0  0  0  0  0  0  0
  150.4006  132.9133  154.9746 H   0  0  0  0  0  0  0  0  0  0  0  0
  149.0808  132.2984  155.9606 H   0  0  0  0  0  0  0  0  0  0  0  0
  150.4501  131.0354  153.6813 H   0  0  0  0  0  0  0  0  0  0  0  0
  149.3072  130.2672  154.7698 H   0  0  0  0  0  0  0  0  0  0  0  0
  147.3327  129.5175  153.4692 H   0  0  0  0  0  0  0  0  0  0  0  0
  146.8598  130.9133  154.4109 H   0  0  0  0  0  0  0  0  0  0  0  0
  146.3212  130.5012  151.4280 H   0  0  0  0  0  0  0  0  0  0  0  0
  145.1365  130.4243  152.7123 H   0  0  0  0  0  0  0  0  0  0  0  0
  145.0700  132.6457  151.5815 H   0  0  0  0  0  0  0  0  0  0  0  0
  145.5140  132.8184  153.2637 H   0  0  0  0  0  0  0  0  0  0  0  0
  147.3920  132.7962  150.8618 H   0  0  0  0  0  0  0  0  0  0  0  0
  147.0428  134.1768  151.8634 H   0  0  0  0  0  0  0  0  0  0  0  0
  149.2731  132.9889  152.2568 H   0  0  0  0  0  0  0  0  0  0  0  0
  150.2865  136.6208  157.2395 H   0  0  0  0  0  0  0  0  0  0  0  0
  148.8102  130.7951  152.2269 H   0  0  0  0  0  0  0  0  0  0  0  0
  1  2  1  0  0  0  0
  1 25  1  0  0  0  0
  1 26  1  0  0  0  0
  1 27  1  0  0  0  0
  2  3  1  0  0  0  0
  2 28  1  0  0  0  0
  2 29  1  0  0  0  0
  3  4  1  0  0  0  0
  3  6  1  0  0  0  0
  4  5  1  0  0  0  0
  4 30  1  0  0  0  0
  4 31  1  0  0  0  0
  5 32  1  0  0  0  0
  5 33  1  0  0  0  0
  5 34  1  0  0  0  0
  6 24  1  0  0  0  0
  6  7  2  0  0  0  0
  7  8  1  0  0  0  0
  7 35  1  0  0  0  0
  8  9  2  0  0  0  0
  8 36  1  0  0  0  0
  9 10  1  0  0  0  0
  9 23  1  0  0  0  0
 10 11  1  0  0  0  0
 10 37  1  0  0  0  0
 11 12  2  0  0  0  0
 11 13  1  0  0  0  0
 13 14  1  0  0  0  0
 13 38  1  0  0  0  0
 14 22  1  0  0  0  0
 14 15  1  0  0  0  0
 14 39  1  0  0  0  0
 15 16  1  0  0  0  0
 15 40  1  0  0  0  0
 15 41  1  0  0  0  0
 16 17  1  0  0  0  0
 16 42  1  0  0  0  0
 16 43  1  0  0  0  0
 17 22  1  0  0  0  0
 17 18  1  0  0  0  0
 17 54  1  0  0  0  0
 18 19  1  0  0  0  0
 18 44  1  0  0  0  0
 18 45  1  0  0  0  0
 19 20  1  0  0  0  0
 19 46  1  0  0  0  0
 19 47  1  0  0  0  0
 20 21  1  0  0  0  0
 20 48  1  0  0  0  0
 20 49  1  0  0  0  0
 21 22  1  0  0  0  0
 21 50  1  0  0  0  0
 21 51  1  0  0  0  0
 22 52  1  0  0  0  0
 23 24  2  0  0  0  0
 23 53  1  0  0  0  0
M  CHG  1  17   1
M  END
> <s_m_source_file>
AV-unprocessed.smi

> <i_m_source_file_index>
1701

> <i_lp_mmshare_version>
43012

> <i_f3d_flags>
0

> <s_epik_input>
W0NIM11bQ0gyXU4oW0NIMl1bQ0gzXSljMVtjSF1bY0hdYyhbY0hdbjEpW05IXUMoPU8pW05IXVtDQEhdKFtDSDJdW0NIMl0yKVtDQEBIXShOMjMpW0NIMl1bQ0gyXVtDSDJdW0NIMl0z

> <s_epik_cmdline>
J2VwaWtfcHl0aG9uJywgJy1waCcsICc3LjAnLCAnLXRuJywgJzgnLCAnLW1hJywgJzIwMCcsICctbWV0YWxfYmluZGluZycsICctaW1hZScsICc8aW5maWxlLm1hZT4nLCAnLW9tYWUnLCAnPG91dGZpbGUubWFlPic=

> <r_lp_tautomer_probability>
1

> <r_epik_Ionization_Penalty>
0.56662

> <r_epik_Ionization_Penalty_Charging>
0.000974069

> <r_epik_Ionization_Penalty_Neutral>
0.565646

> <r_epik_State_Penalty>
2.0247

> <r_epik_Charging_Adjusted_Penalty>
2.02568

> <i_epik_Tot_Q>
1

> <i_epik_Tot_abs_Q>
1

> <r_epik_Metal_State_Penalty>
1.51504

> <b_epik_Metal_Only>
0

> <s_lp_Force_Field>
OPLS_2005

> <r_lp_Energy>
57.8718

> <b_lp_Chiralities_Consistent>
1

> <s_lp_Variant>
AV-unprocessed.smi:1701-9

> <Gold.Version>
5.8.1

> <Gold.Id.Protein>
6NUR|6NUR_protein|mol2

> <Gold.PLP.Fitness>
47.7039

> <Gold.PLP.PLP>
-40.3128

> <Gold.PLP.part.hbond>
-3.0000

> <Gold.PLP.part.metal>
0.0000

> <Gold.PLP.part.buried>
-4.7912

> <Gold.PLP.part.nonpolar>
-32.6841

> <Gold.PLP.part.repulsive>
0.0677

> <Gold.PLP.ligand.clash>
0.0057

> <Gold.PLP.ligand.torsion>
0.6664

> <Gold.PLP.Chemscore.Hbond>
2.8720

> <Gold.PLP.Chemscore.CHOScore>
0.0000

> <Gold.PLP.Chemscore.Metal>
0.0000

> <Gold.Chemscore.Hbonds>
donor molecule, donor type, donor heavy atom, donor atom, acceptor molecule, acceptor atom, score
      L1  H    10    37       P1  7948  0.89
      L1  H    13    38       P1  7948  1.00
      L1  H    17    54       P1 10747  0.96

> <Gold.PLP.Chemscore.Internal.Correction>
0.1135

> <Gold.Rescore>
     Score         DG    S(hbond)    S(metal)    S(lipo)     H(rot)  DE(clash)    DE(int)     intcor
     19.59     -21.64       2.55        0.00      93.47       1.28       0.05       2.01       ----

> <Gold.Chemscore.Fitness>
19.5867

> <Gold.Chemscore.DG>
-21.6431

> <Gold.Chemscore.ZeroCoef>
-5.4800

> <Gold.Chemscore.Hbond>
2.5491

> <Gold.Chemscore.Metal>
0.0000

> <Gold.Chemscore.Lipo>
93.4683

> <Gold.Chemscore.Internal_Hbond>
0.0000

> <Gold.Chemscore.DEClash>
0.0494

> <Gold.Chemscore.DEInternal>
2.0070

> <Gold.Chemscore.Rot>
1.2838

> <Gold.Chemscore.Internal.Correction>
   9.000000E+99

> <Gold.Chemscore.Hbonds>
donor molecule, donor type, donor heavy atom, donor atom, acceptor molecule, acceptor atom, score
      L1  H    10    37       P1  7948  0.73
      L1  H    13    38       P1  7948  0.70
      L1  H    17    54       P1 10747  0.55

> <Gold.Chemscore.Hbond.Weighted>
-8.5139

> <Gold.Chemscore.Metal.Weighted>
-0.0000

> <Gold.Chemscore.Lipo.Weighted>
-10.9358

> <Gold.Chemscore.Internal_Hbond.Weighted>
0.0000

> <Gold.Chemscore.DEClash.Weighted>
0.0494

> <Gold.Chemscore.DEInternal.Weighted>
2.0070

> <Gold.Chemscore.Rot.Weighted>
3.2865

> <Gold.Chemscore.Internal.Correction.Weighted>
   9.000000E+99

> <Gold.Protein.RotatedTorsions>
[ 6907 6896 6895 6894 ] final  158.80 input  -60.11 | X-H torsion
[ 7974 7965 7964 7962 ] final  134.59 input  175.53 | X-H torsion
[ 8008 7997 7996 7995 ] final  -80.40 input   59.86 | X-H torsion
[ 10167 10162 10161 10158 ] final   89.19 input  -65.29 | X-H torsion
[ 10718 10713 10712 10709 ] final -156.53 input   66.30 | X-H torsion
[ 10763 10752 10751 10750 ] final -146.49 input  -60.55 | X-H torsion
[ 11005 11000 10999 10996 ] final  -47.74 input  -57.11 | X-H torsion

> <Gold.Protein.ActiveResidues>
 VAL166  LYS551  ARG553  GLY616  TRP617  ASP618  TYR619  PRO620  LYS621  CYS622 
 ASP623  PHE694  ASN695  SER759  ASP760  ASP761  ALA762  ILE779  LEU786  VAL792 
 PHE793  MET794  SER795  GLU796  ALA797  LYS798  CYS799  TRP800  GLU811  SER814 

> <Gold.Protein.RotatedAtoms>
  151.9951  133.3805  159.4159 H   0  0  0  0  0  0  0  0  0  0  0  0  # atno 6907 bound_to 6896
  150.6917  134.3895  159.5079 H   0  0  0  0  0  0  0  0  0  0  0  0  # atno 6908 bound_to 6896
  152.1634  134.8893  160.0590 H   0  0  0  0  0  0  0  0  0  0  0  0  # atno 6909 bound_to 6896
  144.9748  139.4566  143.5415 H   0  0  0  0  0  0  0  0  0  0  0  0  # atno 7974 bound_to 7965
  154.5880  140.0663  156.9198 H   0  0  0  0  0  0  0  0  0  0  0  0  # atno 8008 bound_to 7997
  155.2346  140.3340  155.4281 H   0  0  0  0  0  0  0  0  0  0  0  0  # atno 8009 bound_to 7997
  156.2236  140.1809  156.7402 H   0  0  0  0  0  0  0  0  0  0  0  0  # atno 8010 bound_to 7997
  139.8597  144.6550  150.9072 H   0  0  0  0  0  0  0  0  0  0  0  0  # atno 10167 bound_to 10162
  156.5277  130.8507  151.2705 H   0  0  0  0  0  0  0  0  0  0  0  0  # atno 10718 bound_to 10713
  154.8333  135.3385  154.6670 H   0  0  0  0  0  0  0  0  0  0  0  0  # atno 10763 bound_to 10752
  153.7287  135.6953  153.4999 H   0  0  0  0  0  0  0  0  0  0  0  0  # atno 10764 bound_to 10752
  153.2328  135.4411  155.0566 H   0  0  0  0  0  0  0  0  0  0  0  0  # atno 10765 bound_to 10752
  141.0659  133.6694  156.3341 H   0  0  0  0  0  0  0  0  0  0  0  0  # atno 11005 bound_to 11000
  146.3392  139.8984  142.8798 LP  0  0  0  0  0  0  0  0  0  0  0  0  # atno 17320 bound_to 7965
  145.2506  141.0042  143.3883 LP  0  0  0  0  0  0  0  0  0  0  0  0  # atno 17321 bound_to 7965
  140.7776  143.3755  151.1572 LP  0  0  0  0  0  0  0  0  0  0  0  0  # atno 17342 bound_to 10162
  139.7385  143.8961  152.3042 LP  0  0  0  0  0  0  0  0  0  0  0  0  # atno 17343 bound_to 10162
  157.7427  130.9895  150.2534 LP  0  0  0  0  0  0  0  0  0  0  0  0  # atno 17370 bound_to 10713
  156.3089  130.3769  149.7680 LP  0  0  0  0  0  0  0  0  0  0  0  0  # atno 17371 bound_to 10713
  140.5774  134.5779  157.5472 LP  0  0  0  0  0  0  0  0  0  0  0  0  # atno 17394 bound_to 11000
  139.9476  134.7675  156.0525 LP  0  0  0  0  0  0  0  0  0  0  0  0  # atno 17395 bound_to 11000

$$$$
