AV-unprocessed.smi:170|AV-procd|sdf|1406|dock6
  -GOLD-   2262019163D 1   1.00000     0.00000
 Structure written by MMmdl.
 57 61  0  0  0  0  0  0  0  0  1 V2000
  153.4684  141.5218  160.4703 O   0  0  0  0  0  0  0  0  0  0  0  0
  152.2440  141.4372  159.7655 C   0  0  2  0  0  0  0  0  0  0  0  0
  152.4305  140.5370  158.5283 C   0  0  0  0  0  0  0  0  0  0  0  0
  151.8889  139.2030  158.7201 N   0  0  0  0  0  0  0  0  0  0  0  0
  152.5131  138.1380  159.3283 C   0  0  0  0  0  0  0  0  0  0  0  0
  151.8150  137.0361  159.3711 N   0  0  0  0  0  0  0  0  0  0  0  0
  150.6203  137.3655  158.7415 C   0  0  0  0  0  0  0  0  0  0  0  0
  149.4249  136.6547  158.4321 C   0  0  0  0  0  0  0  0  0  0  0  0
  149.1985  135.3515  158.7146 N   0  0  0  0  0  0  0  0  0  0  0  0
  149.0399  134.5754  157.4906 C   0  0  0  0  0  0  0  0  0  0  0  0
  148.9849  133.0769  157.8164 C   0  0  0  0  0  0  0  0  0  0  0  0
  147.9291  132.8422  158.7385 O   0  0  0  0  0  0  0  0  0  0  0  0
  148.1348  133.5278  159.9688 C   0  0  0  0  0  0  0  0  0  0  0  0
  148.1850  135.0562  159.7358 C   0  0  1  0  0  0  0  0  0  0  0  0
  148.4400  135.8259  161.0589 C   0  0  0  0  0  0  0  0  0  0  0  0
  147.2470  135.8577  162.0172 C   0  0  0  0  0  0  0  0  0  0  0  0
  147.0511  134.7000  163.0118 C   0  0  0  0  0  0  0  0  0  0  0  0
  146.0227  134.1026  162.0499 C   0  0  0  0  0  0  0  0  0  0  0  0
  145.8584  135.5050  161.4605 C   0  0  0  0  0  0  0  0  0  0  0  0
  148.4294  137.3280  157.8048 N   0  0  0  0  0  0  0  0  0  0  0  0
  148.5937  138.6139  157.4795 C   0  0  0  0  0  0  0  0  0  0  0  0
  149.6522  139.4002  157.6882 N   0  0  0  0  0  0  0  0  0  0  0  0
  150.6497  138.7278  158.3309 C   0  0  0  0  0  0  0  0  0  0  0  0
  151.7440  142.8459  159.3832 C   0  0  2  0  0  0  0  0  0  0  0  0
  152.6697  143.7093  158.5196 C   0  0  0  0  0  0  0  0  0  0  0  0
  152.1675  145.0966  158.8506 C   0  0  0  0  0  0  0  0  0  0  0  0
  151.8584  144.9695  160.3405 C   0  0  0  0  0  0  0  0  0  0  0  0
  151.4470  143.6195  160.5426 O   0  0  0  0  0  0  0  0  0  0  0  0
  154.1532  141.7256  159.8516 H   0  0  0  0  0  0  0  0  0  0  0  0
  151.5084  140.9749  160.4250 H   0  0  0  0  0  0  0  0  0  0  0  0
  151.9387  140.9797  157.6613 H   0  0  0  0  0  0  0  0  0  0  0  0
  153.4879  140.4496  158.2751 H   0  0  0  0  0  0  0  0  0  0  0  0
  153.5081  138.2050  159.7438 H   0  0  0  0  0  0  0  0  0  0  0  0
  148.1238  134.8792  156.9815 H   0  0  0  0  0  0  0  0  0  0  0  0
  149.8685  134.7736  156.8091 H   0  0  0  0  0  0  0  0  0  0  0  0
  148.8013  132.5001  156.9098 H   0  0  0  0  0  0  0  0  0  0  0  0
  149.9333  132.7311  158.2308 H   0  0  0  0  0  0  0  0  0  0  0  0
  147.3121  133.2639  160.6322 H   0  0  0  0  0  0  0  0  0  0  0  0
  149.0523  133.1737  160.4421 H   0  0  0  0  0  0  0  0  0  0  0  0
  147.2152  135.3526  159.3378 H   0  0  0  0  0  0  0  0  0  0  0  0
  149.3018  135.3890  161.5644 H   0  0  0  0  0  0  0  0  0  0  0  0
  148.7255  136.8549  160.8420 H   0  0  0  0  0  0  0  0  0  0  0  0
  147.1876  136.8120  162.5409 H   0  0  0  0  0  0  0  0  0  0  0  0
  147.9258  134.0708  163.1774 H   0  0  0  0  0  0  0  0  0  0  0  0
  146.6070  135.0237  163.9547 H   0  0  0  0  0  0  0  0  0  0  0  0
  146.4643  133.3953  161.3458 H   0  0  0  0  0  0  0  0  0  0  0  0
  145.1299  133.6981  162.5271 H   0  0  0  0  0  0  0  0  0  0  0  0
  145.0548  136.0698  161.9362 H   0  0  0  0  0  0  0  0  0  0  0  0
  145.7783  135.5321  160.3732 H   0  0  0  0  0  0  0  0  0  0  0  0
  147.7582  139.0784  156.9769 H   0  0  0  0  0  0  0  0  0  0  0  0
  150.7930  142.7433  158.8577 H   0  0  0  0  0  0  0  0  0  0  0  0
  153.7125  143.6180  158.8245 H   0  0  0  0  0  0  0  0  0  0  0  0
  152.6030  143.4731  157.4574 H   0  0  0  0  0  0  0  0  0  0  0  0
  152.8921  145.8812  158.6310 H   0  0  0  0  0  0  0  0  0  0  0  0
  151.2539  145.3072  158.2930 H   0  0  0  0  0  0  0  0  0  0  0  0
  152.7586  145.1466  160.9299 H   0  0  0  0  0  0  0  0  0  0  0  0
  151.0948  145.6745  160.6695 H   0  0  0  0  0  0  0  0  0  0  0  0
  1  2  1  0  0  0  0
  1 29  1  0  0  0  0
  2  3  1  0  0  0  0
  2 24  1  0  0  0  0
  2 30  1  0  0  0  0
  3  4  1  0  0  0  0
  3 31  1  0  0  0  0
  3 32  1  0  0  0  0
  4 23  1  0  0  0  0
  4  5  1  0  0  0  0
  5  6  2  0  0  0  0
  5 33  1  0  0  0  0
  6  7  1  0  0  0  0
  7 23  2  0  0  0  0
  7  8  1  0  0  0  0
  8  9  1  0  0  0  0
  8 20  2  0  0  0  0
  9 14  1  0  0  0  0
  9 10  1  0  0  0  0
 10 11  1  0  0  0  0
 10 34  1  0  0  0  0
 10 35  1  0  0  0  0
 11 12  1  0  0  0  0
 11 36  1  0  0  0  0
 11 37  1  0  0  0  0
 12 13  1  0  0  0  0
 13 14  1  0  0  0  0
 13 38  1  0  0  0  0
 13 39  1  0  0  0  0
 14 15  1  0  0  0  0
 14 40  1  0  0  0  0
 15 16  1  0  0  0  0
 15 41  1  0  0  0  0
 15 42  1  0  0  0  0
 16 19  1  0  0  0  0
 16 17  1  0  0  0  0
 16 43  1  0  0  0  0
 17 18  1  0  0  0  0
 17 44  1  0  0  0  0
 17 45  1  0  0  0  0
 18 19  1  0  0  0  0
 18 46  1  0  0  0  0
 18 47  1  0  0  0  0
 19 48  1  0  0  0  0
 19 49  1  0  0  0  0
 20 21  1  0  0  0  0
 21 22  2  0  0  0  0
 21 50  1  0  0  0  0
 22 23  1  0  0  0  0
 24 28  1  0  0  0  0
 24 25  1  0  0  0  0
 24 51  1  0  0  0  0
 25 26  1  0  0  0  0
 25 52  1  0  0  0  0
 25 53  1  0  0  0  0
 26 27  1  0  0  0  0
 26 54  1  0  0  0  0
 26 55  1  0  0  0  0
 27 28  1  0  0  0  0
 27 56  1  0  0  0  0
 27 57  1  0  0  0  0
M  END
> <s_m_source_file>
AV-unprocessed.smi

> <i_m_source_file_index>
170

> <i_lp_mmshare_version>
43012

> <i_f3d_flags>
0

> <s_epik_input>
TzFbQ0gyXVtDSDJdW0NIMl1bQ0BIXTFbQ0BIXShbT0hdKVtDSDJdbihbY0hdbjIpYyhjMjMpbltjSF1uYzNONFtDSDJdW0NIMl1PW0NIMl1bQ0BIXTRbQ0gyXVtDSF01W0NIMl1bQ0gyXVtDSDJdNQ==

> <s_epik_cmdline>
J2VwaWtfcHl0aG9uJywgJy1waCcsICc3LjAnLCAnLXRuJywgJzgnLCAnLW1hJywgJzIwMCcsICctbWV0YWxfYmluZGluZycsICctaW1hZScsICc8aW5maWxlLm1hZT4nLCAnLW9tYWUnLCAnPG91dGZpbGUubWFlPic=

> <r_lp_tautomer_probability>
1

> <r_epik_Ionization_Penalty>
4.98275e-05

> <r_epik_Ionization_Penalty_Charging>
0

> <r_epik_Ionization_Penalty_Neutral>
4.98275e-05

> <r_epik_State_Penalty>
-0

> <r_epik_Charging_Adjusted_Penalty>
0

> <i_epik_Tot_Q>
0

> <i_epik_Tot_abs_Q>
0

> <r_epik_Metal_State_Penalty>
-0

> <b_epik_Metal_Only>
0

> <s_lp_Force_Field>
OPLS_2005

> <r_lp_Energy>
54.7181

> <b_lp_Chiralities_Consistent>
1

> <s_lp_Variant>
AV-unprocessed.smi:170-1

> <Gold.Version>
5.8.1

> <Gold.Id.Protein>
6NUR|6NUR_protein|mol2

> <Gold.PLP.Fitness>
48.9500

> <Gold.PLP.PLP>
-47.0654

> <Gold.PLP.part.hbond>
-2.2938

> <Gold.PLP.part.metal>
0.0000

> <Gold.PLP.part.buried>
-7.9976

> <Gold.PLP.part.nonpolar>
-37.4200

> <Gold.PLP.part.repulsive>
0.0979

> <Gold.PLP.ligand.clash>
0.0000

> <Gold.PLP.ligand.torsion>
1.6190

> <Gold.PLP.Chemscore.Hbond>
1.5726

> <Gold.PLP.Chemscore.CHOScore>
0.0000

> <Gold.PLP.Chemscore.Metal>
0.0000

> <Gold.Chemscore.Hbonds>
donor molecule, donor type, donor heavy atom, donor atom, acceptor molecule, acceptor atom, score
      P1  H  6896  6908       L1     9  0.58
      P1  H  6896  6909       L1     6  0.79

> <Gold.PLP.Chemscore.Internal.Correction>
0.4049

> <Gold.Rescore>
     Score         DG    S(hbond)    S(metal)    S(lipo)     H(rot)  DE(clash)    DE(int)     intcor
     14.08     -15.98       0.88        0.00     121.86       2.61       0.26       1.64       ----

> <Gold.Chemscore.Fitness>
14.0822

> <Gold.Chemscore.DG>
-15.9799

> <Gold.Chemscore.ZeroCoef>
-5.4800

> <Gold.Chemscore.Hbond>
0.8787

> <Gold.Chemscore.Metal>
0.0000

> <Gold.Chemscore.Lipo>
121.8635

> <Gold.Chemscore.Internal_Hbond>
0.0000

> <Gold.Chemscore.DEClash>
0.2620

> <Gold.Chemscore.DEInternal>
1.6356

> <Gold.Chemscore.Rot>
2.6144

> <Gold.Chemscore.Internal.Correction>
   9.000000E+99

> <Gold.Chemscore.Hbonds>
donor molecule, donor type, donor heavy atom, donor atom, acceptor molecule, acceptor atom, score
      P1  H  6896  6908       L1     9  0.01
      P1  H  6896  6909       L1     6  0.67

> <Gold.Chemscore.Hbond.Weighted>
-2.9348

> <Gold.Chemscore.Metal.Weighted>
-0.0000

> <Gold.Chemscore.Lipo.Weighted>
-14.2580

> <Gold.Chemscore.Internal_Hbond.Weighted>
0.0000

> <Gold.Chemscore.DEClash.Weighted>
0.2620

> <Gold.Chemscore.DEInternal.Weighted>
1.6356

> <Gold.Chemscore.Rot.Weighted>
6.6929

> <Gold.Chemscore.Internal.Correction.Weighted>
   9.000000E+99

> <Gold.Protein.RotatedTorsions>
[ 6907 6896 6895 6894 ] final  144.00 input  -60.11 | X-H torsion
[ 7974 7965 7964 7962 ] final -149.26 input  175.53 | X-H torsion
[ 8008 7997 7996 7995 ] final  156.68 input   59.86 | X-H torsion
[ 10167 10162 10161 10158 ] final -160.69 input  -65.29 | X-H torsion
[ 10718 10713 10712 10709 ] final  -34.13 input   66.30 | X-H torsion
[ 10763 10752 10751 10750 ] final  -19.34 input  -60.55 | X-H torsion
[ 11005 11000 10999 10996 ] final   13.34 input  -57.11 | X-H torsion

> <Gold.Protein.ActiveResidues>
 VAL166  LYS551  ARG553  GLY616  TRP617  ASP618  TYR619  PRO620  LYS621  CYS622 
 ASP623  PHE694  ASN695  SER759  ASP760  ASP761  ALA762  ILE779  LEU786  VAL792 
 PHE793  MET794  SER795  GLU796  ALA797  LYS798  CYS799  TRP800  GLU811  SER814 

> <Gold.Protein.RotatedAtoms>
  152.1992  133.4828  159.5049 H   0  0  0  0  0  0  0  0  0  0  0  0  # atno 6907 bound_to 6896
  150.6966  134.1612  159.4186 H   0  0  0  0  0  0  0  0  0  0  0  0  # atno 6908 bound_to 6896
  151.9529  135.0160  160.0594 H   0  0  0  0  0  0  0  0  0  0  0  0  # atno 6909 bound_to 6896
  144.7978  140.5088  143.5728 H   0  0  0  0  0  0  0  0  0  0  0  0  # atno 7974 bound_to 7965
  156.2408  140.1906  156.6992 H   0  0  0  0  0  0  0  0  0  0  0  0  # atno 8008 bound_to 7997
  154.6194  140.0610  156.9622 H   0  0  0  0  0  0  0  0  0  0  0  0  # atno 8009 bound_to 7997
  155.1886  140.3282  155.4365 H   0  0  0  0  0  0  0  0  0  0  0  0  # atno 8010 bound_to 7997
  139.6520  144.0066  152.2168 H   0  0  0  0  0  0  0  0  0  0  0  0  # atno 10167 bound_to 10162
  156.3542  130.4313  149.7678 H   0  0  0  0  0  0  0  0  0  0  0  0  # atno 10718 bound_to 10713
  153.6033  135.6998  153.5376 H   0  0  0  0  0  0  0  0  0  0  0  0  # atno 10763 bound_to 10752
  153.3078  135.4110  155.1309 H   0  0  0  0  0  0  0  0  0  0  0  0  # atno 10764 bound_to 10752
  154.8578  135.3665  154.5569 H   0  0  0  0  0  0  0  0  0  0  0  0  # atno 10765 bound_to 10752
  140.4818  134.0927  155.7752 H   0  0  0  0  0  0  0  0  0  0  0  0  # atno 11005 bound_to 11000
  145.5629  139.1480  143.3331 LP  0  0  0  0  0  0  0  0  0  0  0  0  # atno 17320 bound_to 7965
  146.2251  140.5764  142.9000 LP  0  0  0  0  0  0  0  0  0  0  0  0  # atno 17321 bound_to 7965
  139.9783  144.6446  150.7925 LP  0  0  0  0  0  0  0  0  0  0  0  0  # atno 17342 bound_to 10162
  140.7542  143.3023  151.3050 LP  0  0  0  0  0  0  0  0  0  0  0  0  # atno 17343 bound_to 10162
  156.4867  130.8066  151.3078 LP  0  0  0  0  0  0  0  0  0  0  0  0  # atno 17370 bound_to 10713
  157.7465  130.9988  150.2867 LP  0  0  0  0  0  0  0  0  0  0  0  0  # atno 17371 bound_to 10713
  141.1527  133.8939  157.2056 LP  0  0  0  0  0  0  0  0  0  0  0  0  # atno 17394 bound_to 11000
  139.9822  135.0094  156.9776 LP  0  0  0  0  0  0  0  0  0  0  0  0  # atno 17395 bound_to 11000

$$$$
