AV-unprocessed.smi:338|AV-procd|sdf|2376|dock8
  -GOLD-   2262022293D 1   1.00000     0.00000
 Structure written by MMmdl.
 42 44  0  0  0  0  0  0  0  0  2 V2000
  147.3397  134.5252  161.8285 C   0  0  0  0  0  0  0  0  0  0  0  0
  148.0199  135.8122  161.3637 C   0  0  0  0  0  0  0  0  0  0  0  0
  147.9447  136.8104  162.0796 O   0  0  0  0  0  0  0  0  0  0  0  0
  148.7429  135.7862  160.0595 C   0  0  0  0  0  0  0  0  0  0  0  0
  148.6545  134.6781  159.1849 C   0  0  0  0  0  0  0  0  0  0  0  0
  149.3489  134.6819  157.9616 C   0  0  0  0  0  0  0  0  0  0  0  0
  150.1371  135.7889  157.6000 C   0  0  0  0  0  0  0  0  0  0  0  0
  150.2410  136.9057  158.4520 C   0  0  0  0  0  0  0  0  0  0  0  0
  151.0358  137.9462  158.0204 O   0  0  0  0  0  0  0  0  0  0  0  0
  151.3210  138.0484  156.6314 C   0  0  0  0  0  0  0  0  0  0  0  0
  151.7159  139.4973  156.3090 C   0  0  2  0  0  0  0  0  0  0  0  0
  152.7653  139.4753  155.3614 O   0  0  0  0  0  0  0  0  0  0  0  0
  152.1518  140.2815  157.5629 C   0  0  0  0  0  0  0  0  0  0  0  0
  151.5628  141.6267  157.6275 N   0  0  0  0  0  0  0  0  0  0  0  0
  150.7259  142.2488  156.7534 C   0  0  0  0  0  0  0  0  0  0  0  0
  150.4527  143.4856  157.2535 N   0  3  0  0  0  0  0  0  0  0  0  0
  151.1262  143.6581  158.4645 C   0  0  0  0  0  0  0  0  0  0  0  0
  151.1613  144.7388  159.3405 C   0  0  0  0  0  0  0  0  0  0  0  0
  151.9568  144.5916  160.4957 C   0  0  0  0  0  0  0  0  0  0  0  0
  152.6788  143.4063  160.7438 C   0  0  0  0  0  0  0  0  0  0  0  0
  152.6348  142.3165  159.8494 C   0  0  0  0  0  0  0  0  0  0  0  0
  151.8441  142.4685  158.7104 C   0  0  0  0  0  0  0  0  0  0  0  0
  149.5372  136.8952  159.6831 C   0  0  0  0  0  0  0  0  0  0  0  0
  148.0682  133.7200  161.9245 H   0  0  0  0  0  0  0  0  0  0  0  0
  146.5702  134.2220  161.1182 H   0  0  0  0  0  0  0  0  0  0  0  0
  146.8664  134.6734  162.7994 H   0  0  0  0  0  0  0  0  0  0  0  0
  148.0587  133.8120  159.4312 H   0  0  0  0  0  0  0  0  0  0  0  0
  149.2766  133.8327  157.2982 H   0  0  0  0  0  0  0  0  0  0  0  0
  150.6670  135.7811  156.6587 H   0  0  0  0  0  0  0  0  0  0  0  0
  152.1279  137.3687  156.3516 H   0  0  0  0  0  0  0  0  0  0  0  0
  150.4328  137.7761  156.0583 H   0  0  0  0  0  0  0  0  0  0  0  0
  150.8670  140.0006  155.8444 H   0  0  0  0  0  0  0  0  0  0  0  0
  152.3875  139.4799  154.4951 H   0  0  0  0  0  0  0  0  0  0  0  0
  151.8317  139.7528  158.4616 H   0  0  0  0  0  0  0  0  0  0  0  0
  153.2374  140.3570  157.6267 H   0  0  0  0  0  0  0  0  0  0  0  0
  150.3464  141.8349  155.8303 H   0  0  0  0  0  0  0  0  0  0  0  0
  150.6105  145.6486  159.1517 H   0  0  0  0  0  0  0  0  0  0  0  0
  152.0158  145.4049  161.2045 H   0  0  0  0  0  0  0  0  0  0  0  0
  153.2806  143.3310  161.6379 H   0  0  0  0  0  0  0  0  0  0  0  0
  153.1972  141.4160  160.0474 H   0  0  0  0  0  0  0  0  0  0  0  0
  149.6006  137.7381  160.3545 H   0  0  0  0  0  0  0  0  0  0  0  0
  149.8508  144.1605  156.7991 H   0  0  0  0  0  0  0  0  0  0  0  0
  1  2  1  0  0  0  0
  1 24  1  0  0  0  0
  1 25  1  0  0  0  0
  1 26  1  0  0  0  0
  2  3  2  0  0  0  0
  2  4  1  0  0  0  0
  4 23  1  0  0  0  0
  4  5  2  0  0  0  0
  5  6  1  0  0  0  0
  5 27  1  0  0  0  0
  6  7  2  0  0  0  0
  6 28  1  0  0  0  0
  7  8  1  0  0  0  0
  7 29  1  0  0  0  0
  8  9  1  0  0  0  0
  8 23  2  0  0  0  0
  9 10  1  0  0  0  0
 10 11  1  0  0  0  0
 10 30  1  0  0  0  0
 10 31  1  0  0  0  0
 11 12  1  0  0  0  0
 11 13  1  0  0  0  0
 11 32  1  0  0  0  0
 12 33  1  0  0  0  0
 13 14  1  0  0  0  0
 13 34  1  0  0  0  0
 13 35  1  0  0  0  0
 14 22  1  0  0  0  0
 14 15  1  0  0  0  0
 15 16  2  0  0  0  0
 15 36  1  0  0  0  0
 16 17  1  0  0  0  0
 16 42  1  0  0  0  0
 17 22  2  0  0  0  0
 17 18  1  0  0  0  0
 18 19  2  0  0  0  0
 18 37  1  0  0  0  0
 19 20  1  0  0  0  0
 19 38  1  0  0  0  0
 20 21  2  0  0  0  0
 20 39  1  0  0  0  0
 21 22  1  0  0  0  0
 21 40  1  0  0  0  0
 23 41  1  0  0  0  0
M  CHG  1  16   1
M  END
> <s_m_source_file>
AV-unprocessed.smi

> <i_m_source_file_index>
338

> <i_lp_mmshare_version>
43012

> <i_f3d_flags>
0

> <s_epik_input>
W0NIM11DKD1PKWMxW2NIXVtjSF1bY0hdYyhbY0hdMSlPW0NIMl1bQ0BIXShbT0hdKVtDSDJdbihbY0hdbjIpYyhjMjMpW2NIXVtjSF1bY0hdW2NIXTM=

> <s_epik_cmdline>
J2VwaWtfcHl0aG9uJywgJy1waCcsICc3LjAnLCAnLXRuJywgJzgnLCAnLW1hJywgJzIwMCcsICctbWV0YWxfYmluZGluZycsICctaW1hZScsICc8aW5maWxlLm1hZT4nLCAnLW9tYWUnLCAnPG91dGZpbGUubWFlPic=

> <r_lp_tautomer_probability>
0.99995

> <r_epik_Ionization_Penalty>
1.35015

> <r_epik_Ionization_Penalty_Charging>
1.35015

> <r_epik_Ionization_Penalty_Neutral>
2.3993e-06

> <r_epik_State_Penalty>
1.42814

> <r_epik_Charging_Adjusted_Penalty>
2.77829

> <i_epik_Tot_Q>
1

> <i_epik_Tot_abs_Q>
1

> <r_epik_Metal_State_Penalty>
5.46522

> <b_epik_Metal_Only>
0

> <s_lp_Force_Field>
OPLS_2005

> <r_lp_Energy>
26.3487

> <b_lp_Chiralities_Consistent>
1

> <s_lp_Variant>
AV-unprocessed.smi:338-3

> <Gold.Version>
5.8.1

> <Gold.Id.Protein>
6NUR|6NUR_protein|mol2

> <Gold.PLP.Fitness>
55.6854

> <Gold.PLP.PLP>
-45.7250

> <Gold.PLP.part.hbond>
-4.0000

> <Gold.PLP.part.metal>
0.0000

> <Gold.PLP.part.buried>
-5.8400

> <Gold.PLP.part.nonpolar>
-34.4016

> <Gold.PLP.part.repulsive>
0.0031

> <Gold.PLP.ligand.clash>
0.7751

> <Gold.PLP.ligand.torsion>
1.6278

> <Gold.PLP.Chemscore.Hbond>
4.6336

> <Gold.PLP.Chemscore.CHOScore>
0.0000

> <Gold.PLP.Chemscore.Metal>
0.0000

> <Gold.Chemscore.Hbonds>
donor molecule, donor type, donor heavy atom, donor atom, acceptor molecule, acceptor atom, score
      L1  H    16    42       P1  8028  2.00
      P1  H  6931  6943       L1     3  1.00
      P1  H  7997  8009       L1    12  1.00

> <Gold.PLP.Chemscore.Internal.Correction>
0.0901

> <Gold.Rescore>
     Score         DG    S(hbond)    S(metal)    S(lipo)     H(rot)  DE(clash)    DE(int)     intcor
     21.73     -23.42       3.41        0.00     110.44       2.48       0.00       1.69       ----

> <Gold.Chemscore.Fitness>
21.7323

> <Gold.Chemscore.DG>
-23.4250

> <Gold.Chemscore.ZeroCoef>
-5.4800

> <Gold.Chemscore.Hbond>
3.4081

> <Gold.Chemscore.Metal>
0.0000

> <Gold.Chemscore.Lipo>
110.4379

> <Gold.Chemscore.Internal_Hbond>
0.0000

> <Gold.Chemscore.DEClash>
0.0000

> <Gold.Chemscore.DEInternal>
1.6927

> <Gold.Chemscore.Rot>
2.4842

> <Gold.Chemscore.Internal.Correction>
   9.000000E+99

> <Gold.Chemscore.Hbonds>
donor molecule, donor type, donor heavy atom, donor atom, acceptor molecule, acceptor atom, score
      L1  H    16    42       P1  8028  0.89
      P1  H  6931  6943       L1     3  0.99
      P1  H  7997  8009       L1    12  0.65

> <Gold.Chemscore.Hbond.Weighted>
-11.3832

> <Gold.Chemscore.Metal.Weighted>
-0.0000

> <Gold.Chemscore.Lipo.Weighted>
-12.9212

> <Gold.Chemscore.Internal_Hbond.Weighted>
0.0000

> <Gold.Chemscore.DEClash.Weighted>
0.0000

> <Gold.Chemscore.DEInternal.Weighted>
1.6927

> <Gold.Chemscore.Rot.Weighted>
6.3594

> <Gold.Chemscore.Internal.Correction.Weighted>
   9.000000E+99

> <Gold.Protein.RotatedTorsions>
[ 6907 6896 6895 6894 ] final  134.39 input  -60.11 | X-H torsion
[ 7974 7965 7964 7962 ] final  135.05 input  175.53 | X-H torsion
[ 8008 7997 7996 7995 ] final -156.95 input   59.86 | X-H torsion
[ 10167 10162 10161 10158 ] final   57.34 input  -65.29 | X-H torsion
[ 10718 10713 10712 10709 ] final  -91.67 input   66.30 | X-H torsion
[ 10763 10752 10751 10750 ] final  166.39 input  -60.55 | X-H torsion
[ 11005 11000 10999 10996 ] final   50.63 input  -57.11 | X-H torsion

> <Gold.Protein.ActiveResidues>
 VAL166  LYS551  ARG553  GLY616  TRP617  ASP618  TYR619  PRO620  LYS621  CYS622 
 ASP623  PHE694  ASN695  SER759  ASP760  ASP761  ALA762  ILE779  LEU786  VAL792 
 PHE793  MET794  SER795  GLU796  ALA797  LYS798  CYS799  TRP800  GLU811  SER814 

> <Gold.Protein.RotatedAtoms>
  152.3118  133.5760  159.5685 H   0  0  0  0  0  0  0  0  0  0  0  0  # atno 6907 bound_to 6896
  150.7326  134.0142  159.3688 H   0  0  0  0  0  0  0  0  0  0  0  0  # atno 6908 bound_to 6896
  151.8034  135.0703  160.0454 H   0  0  0  0  0  0  0  0  0  0  0  0  # atno 6909 bound_to 6896
  144.9702  139.4614  143.5437 H   0  0  0  0  0  0  0  0  0  0  0  0  # atno 7974 bound_to 7965
  155.7250  140.0795  157.2314 H   0  0  0  0  0  0  0  0  0  0  0  0  # atno 8008 bound_to 7997
  154.4040  140.1606  156.2498 H   0  0  0  0  0  0  0  0  0  0  0  0  # atno 8009 bound_to 7997
  155.9162  140.3401  155.6140 H   0  0  0  0  0  0  0  0  0  0  0  0  # atno 8010 bound_to 7997
  140.1990  144.4007  150.6537 H   0  0  0  0  0  0  0  0  0  0  0  0  # atno 10167 bound_to 10162
  155.9995  130.4957  150.5509 H   0  0  0  0  0  0  0  0  0  0  0  0  # atno 10718 bound_to 10713
  154.3382  135.2754  155.2436 H   0  0  0  0  0  0  0  0  0  0  0  0  # atno 10763 bound_to 10752
  154.4718  135.5881  153.6331 H   0  0  0  0  0  0  0  0  0  0  0  0  # atno 10764 bound_to 10752
  152.9860  135.6090  154.3581 H   0  0  0  0  0  0  0  0  0  0  0  0  # atno 10765 bound_to 10752
  140.1001  134.5092  155.8770 H   0  0  0  0  0  0  0  0  0  0  0  0  # atno 11005 bound_to 11000
  146.3380  139.8909  142.8809 LP  0  0  0  0  0  0  0  0  0  0  0  0  # atno 17320 bound_to 7965
  145.2570  141.0064  143.3848 LP  0  0  0  0  0  0  0  0  0  0  0  0  # atno 17321 bound_to 7965
  140.6403  143.2202  151.6304 LP  0  0  0  0  0  0  0  0  0  0  0  0  # atno 17342 bound_to 10162
  139.5225  144.3162  152.0950 LP  0  0  0  0  0  0  0  0  0  0  0  0  # atno 17343 bound_to 10162
  157.3432  131.0720  151.1771 LP  0  0  0  0  0  0  0  0  0  0  0  0  # atno 17370 bound_to 10713
  157.2612  130.6660  149.5976 LP  0  0  0  0  0  0  0  0  0  0  0  0  # atno 17371 bound_to 10713
  141.2103  133.6693  156.6501 LP  0  0  0  0  0  0  0  0  0  0  0  0  # atno 17394 bound_to 11000
  140.3231  134.7991  157.4268 LP  0  0  0  0  0  0  0  0  0  0  0  0  # atno 17395 bound_to 11000

$$$$
