AV-unprocessed.smi:1410|AV-procd|sdf|5733|dock3
  -GOLD-   22720 5363D 1   1.00000     0.00000
 Structure written by MMmdl.
 41 42  0  0  0  0  0  0  0  0  3 V2000
  143.9671  137.6303  153.0224 N   0  0  0  0  0  0  0  0  0  0  0  0
  145.1479  137.0866  152.7191 C   0  0  0  0  0  0  0  0  0  0  0  0
  145.4108  135.9112  152.9667 O   0  0  0  0  0  0  0  0  0  0  0  0
  146.1688  137.9935  152.0237 C   0  0  0  0  0  0  0  0  0  0  0  0
  146.7416  139.0251  152.9264 N   0  3  2  0  0  0  0  0  0  0  0  0
  147.4138  140.1325  152.1949 C   0  0  0  0  0  0  0  0  0  0  0  0
  147.8638  141.2408  153.1607 C   0  0  0  0  0  0  0  0  0  0  0  0
  148.7910  140.6810  154.2510 C   0  0  1  0  0  0  0  0  0  0  0  0
  149.1384  141.7362  155.1987 N   0  0  0  0  0  0  0  0  0  0  0  0
  149.9947  141.6023  156.2221 C   0  0  0  0  0  0  0  0  0  0  0  0
  150.5769  140.5503  156.4842 O   0  0  0  0  0  0  0  0  0  0  0  0
  150.1067  142.7474  156.9178 N   0  0  0  0  0  0  0  0  0  0  0  0
  150.9381  143.0296  158.0363 C   0  0  0  0  0  0  0  0  0  0  0  0
  151.0558  144.3792  158.4374 C   0  0  0  0  0  0  0  0  0  0  0  0
  151.8850  144.7117  159.5281 C   0  0  0  0  0  0  0  0  0  0  0  0
  152.5661  143.7419  160.1749 N   0  3  0  0  0  0  0  0  0  0  0  0
  152.4963  142.4408  159.8209 C   0  0  0  0  0  0  0  0  0  0  0  0
  151.6834  142.0476  158.7381 C   0  0  0  0  0  0  0  0  0  0  0  0
  148.0950  139.5093  154.9673 C   0  0  0  0  0  0  0  0  0  0  0  0
  147.6287  138.4401  153.9645 C   0  0  0  0  0  0  0  0  0  0  0  0
  143.2609  137.0705  153.4791 H   0  0  0  0  0  0  0  0  0  0  0  0
  143.7780  138.5958  152.7946 H   0  0  0  0  0  0  0  0  0  0  0  0
  146.9650  137.3428  151.6598 H   0  0  0  0  0  0  0  0  0  0  0  0
  145.7258  138.4683  151.1464 H   0  0  0  0  0  0  0  0  0  0  0  0
  148.2732  139.7406  151.6482 H   0  0  0  0  0  0  0  0  0  0  0  0
  146.7387  140.5594  151.4529 H   0  0  0  0  0  0  0  0  0  0  0  0
  148.3728  142.0286  152.6042 H   0  0  0  0  0  0  0  0  0  0  0  0
  146.9856  141.7011  153.6168 H   0  0  0  0  0  0  0  0  0  0  0  0
  149.7003  140.3150  153.7695 H   0  0  0  0  0  0  0  0  0  0  0  0
  148.6986  142.6347  155.0604 H   0  0  0  0  0  0  0  0  0  0  0  0
  149.4940  143.4984  156.6351 H   0  0  0  0  0  0  0  0  0  0  0  0
  150.5132  145.1568  157.9190 H   0  0  0  0  0  0  0  0  0  0  0  0
  152.0243  145.7173  159.8976 H   0  0  0  0  0  0  0  0  0  0  0  0
  153.0947  141.7580  160.4062 H   0  0  0  0  0  0  0  0  0  0  0  0
  151.6598  141.0047  158.4620 H   0  0  0  0  0  0  0  0  0  0  0  0
  148.7701  139.0571  155.6951 H   0  0  0  0  0  0  0  0  0  0  0  0
  147.2354  139.8765  155.5302 H   0  0  0  0  0  0  0  0  0  0  0  0
  147.0973  137.6550  154.5037 H   0  0  0  0  0  0  0  0  0  0  0  0
  148.4899  137.9702  153.4865 H   0  0  0  0  0  0  0  0  0  0  0  0
  145.9575  139.4303  153.4183 H   0  0  0  0  0  0  0  0  0  0  0  0
  153.1623  144.0035  160.9607 H   0  0  0  0  0  0  0  0  0  0  0  0
  1  2  1  0  0  0  0
  1 21  1  0  0  0  0
  1 22  1  0  0  0  0
  2  3  2  0  0  0  0
  2  4  1  0  0  0  0
  4  5  1  0  0  0  0
  4 23  1  0  0  0  0
  4 24  1  0  0  0  0
  5 20  1  0  0  0  0
  5  6  1  0  0  0  0
  5 40  1  0  0  0  0
  6  7  1  0  0  0  0
  6 25  1  0  0  0  0
  6 26  1  0  0  0  0
  7  8  1  0  0  0  0
  7 27  1  0  0  0  0
  7 28  1  0  0  0  0
  8  9  1  0  0  0  0
  8 19  1  0  0  0  0
  8 29  1  0  0  0  0
  9 10  1  0  0  0  0
  9 30  1  0  0  0  0
 10 11  2  0  0  0  0
 10 12  1  0  0  0  0
 12 13  1  0  0  0  0
 12 31  1  0  0  0  0
 13 18  1  0  0  0  0
 13 14  2  0  0  0  0
 14 15  1  0  0  0  0
 14 32  1  0  0  0  0
 15 16  2  0  0  0  0
 15 33  1  0  0  0  0
 16 17  1  0  0  0  0
 16 41  1  0  0  0  0
 17 18  2  0  0  0  0
 17 34  1  0  0  0  0
 18 35  1  0  0  0  0
 19 20  1  0  0  0  0
 19 36  1  0  0  0  0
 19 37  1  0  0  0  0
 20 38  1  0  0  0  0
 20 39  1  0  0  0  0
M  CHG  1   5   1
M  CHG  1  16   1
M  END
> <s_m_source_file>
AV-unprocessed.smi

> <i_m_source_file_index>
1410

> <i_lp_mmshare_version>
43012

> <i_f3d_flags>
0

> <s_epik_input>
W05IMl1DKD1PKVtDSDJdTjFbQ0gyXVtDSDJdW0NIXShbQ0gyXVtDSDJdMSlbTkhdQyg9TylbTkhdYzJbY0hdW2NIXW5bY0hdW2NIXTI=

> <s_epik_cmdline>
J2VwaWtfcHl0aG9uJywgJy1waCcsICc3LjAnLCAnLXRuJywgJzgnLCAnLW1hJywgJzIwMCcsICctbWV0YWxfYmluZGluZycsICctaW1hZScsICc8aW5maWxlLm1hZT4nLCAnLW9tYWUnLCAnPG91dGZpbGUubWFlPic=

> <r_epik_Ionization_Penalty>
1.97414

> <r_epik_Ionization_Penalty_Charging>
1.97408

> <r_epik_Ionization_Penalty_Neutral>
5.94508e-05

> <r_epik_State_Penalty>
2.00676

> <r_epik_Charging_Adjusted_Penalty>
3.98084

> <i_epik_Tot_Q>
2

> <i_epik_Tot_abs_Q>
2

> <r_epik_Metal_State_Penalty>
2.12108

> <b_epik_Metal_Only>
0

> <s_lp_Force_Field>
OPLS_2005

> <r_lp_Energy>
24.418

> <b_lp_Chiralities_Consistent>
1

> <s_lp_Variant>
AV-unprocessed.smi:1410-5

> <Gold.Version>
5.8.1

> <Gold.Id.Protein>
6NUR|6NUR_protein|mol2

> <Gold.PLP.Fitness>
40.8355

> <Gold.PLP.PLP>
-32.3303

> <Gold.PLP.part.hbond>
-3.0830

> <Gold.PLP.part.metal>
0.0000

> <Gold.PLP.part.buried>
-0.9661

> <Gold.PLP.part.nonpolar>
-27.8776

> <Gold.PLP.part.repulsive>
0.2672

> <Gold.PLP.ligand.clash>
0.0000

> <Gold.PLP.ligand.torsion>
0.2451

> <Gold.PLP.Chemscore.Hbond>
2.9920

> <Gold.PLP.Chemscore.CHOScore>
0.0000

> <Gold.PLP.Chemscore.Metal>
0.0000

> <Gold.Chemscore.Hbonds>
donor molecule, donor type, donor heavy atom, donor atom, acceptor molecule, acceptor atom, score
      L1  H     1    22       P1 10175  1.00
      L1  H     9    30       P1  8028  0.56
      L1  H    12    31       P1  8028  1.00

> <Gold.PLP.Chemscore.Internal.Correction>
0.0195

> <Gold.Rescore>
     Score         DG    S(hbond)    S(metal)    S(lipo)     H(rot)  DE(clash)    DE(int)     intcor
     17.93     -20.84       2.90        0.00      91.93       1.99       1.36       1.55       ----

> <Gold.Chemscore.Fitness>
17.9273

> <Gold.Chemscore.DG>
-20.8376

> <Gold.Chemscore.ZeroCoef>
-5.4800

> <Gold.Chemscore.Hbond>
2.9027

> <Gold.Chemscore.Metal>
0.0000

> <Gold.Chemscore.Lipo>
91.9256

> <Gold.Chemscore.Internal_Hbond>
0.0000

> <Gold.Chemscore.DEClash>
1.3574

> <Gold.Chemscore.DEInternal>
1.5529

> <Gold.Chemscore.Rot>
1.9894

> <Gold.Chemscore.Internal.Correction>
   9.000000E+99

> <Gold.Chemscore.Hbonds>
donor molecule, donor type, donor heavy atom, donor atom, acceptor molecule, acceptor atom, score
      L1  H     1    22       P1 10175  1.00
      L1  H     9    30       P1  8028  0.55
      L1  H    12    31       P1  8028  0.99

> <Gold.Chemscore.Hbond.Weighted>
-9.6950

> <Gold.Chemscore.Metal.Weighted>
-0.0000

> <Gold.Chemscore.Lipo.Weighted>
-10.7553

> <Gold.Chemscore.Internal_Hbond.Weighted>
0.0000

> <Gold.Chemscore.DEClash.Weighted>
1.3574

> <Gold.Chemscore.DEInternal.Weighted>
1.5529

> <Gold.Chemscore.Rot.Weighted>
5.0927

> <Gold.Chemscore.Internal.Correction.Weighted>
   9.000000E+99

> <Gold.Protein.RotatedTorsions>
[ 6907 6896 6895 6894 ] final  -10.24 input  -60.11 | X-H torsion
[ 7974 7965 7964 7962 ] final   91.56 input  175.53 | X-H torsion
[ 8008 7997 7996 7995 ] final   49.31 input   59.86 | X-H torsion
[ 10167 10162 10161 10158 ] final  -24.07 input  -65.29 | X-H torsion
[ 10718 10713 10712 10709 ] final -127.32 input   66.30 | X-H torsion
[ 10763 10752 10751 10750 ] final -117.73 input  -60.55 | X-H torsion
[ 11005 11000 10999 10996 ] final  172.12 input  -57.11 | X-H torsion

> <Gold.Protein.ActiveResidues>
 VAL166  LYS551  ARG553  GLY616  TRP617  ASP618  TYR619  PRO620  LYS621  CYS622 
 ASP623  PHE694  ASN695  SER759  ASP760  ASP761  ALA762  ILE779  LEU786  VAL792 
 PHE793  MET794  SER795  GLU796  ALA797  LYS798  CYS799  TRP800  GLU811  SER814 

> <Gold.Protein.RotatedAtoms>
  151.4051  135.0977  159.9567 H   0  0  0  0  0  0  0  0  0  0  0  0  # atno 6907 bound_to 6896
  152.5038  133.8851  159.7376 H   0  0  0  0  0  0  0  0  0  0  0  0  # atno 6908 bound_to 6896
  150.9333  133.6684  159.2834 H   0  0  0  0  0  0  0  0  0  0  0  0  # atno 6909 bound_to 6896
  145.5040  139.2276  143.2761 H   0  0  0  0  0  0  0  0  0  0  0  0  # atno 7974 bound_to 7965
  155.4001  140.3437  155.4256 H   0  0  0  0  0  0  0  0  0  0  0  0  # atno 8008 bound_to 7997
  156.1508  140.1570  156.8805 H   0  0  0  0  0  0  0  0  0  0  0  0  # atno 8009 bound_to 7997
  154.5051  140.0804  156.7859 H   0  0  0  0  0  0  0  0  0  0  0  0  # atno 8010 bound_to 7997
  140.7288  143.4386  151.0692 H   0  0  0  0  0  0  0  0  0  0  0  0  # atno 10167 bound_to 10162
  156.1846  130.6755  151.0348 H   0  0  0  0  0  0  0  0  0  0  0  0  # atno 10718 bound_to 10713
  154.8564  135.4299  154.2027 H   0  0  0  0  0  0  0  0  0  0  0  0  # atno 10763 bound_to 10752
  153.3070  135.6973  153.7156 H   0  0  0  0  0  0  0  0  0  0  0  0  # atno 10764 bound_to 10752
  153.6264  135.3492  155.3002 H   0  0  0  0  0  0  0  0  0  0  0  0  # atno 10765 bound_to 10752
  140.3263  134.7395  157.4101 H   0  0  0  0  0  0  0  0  0  0  0  0  # atno 11005 bound_to 11000
  146.2208  140.5842  142.9018 LP  0  0  0  0  0  0  0  0  0  0  0  0  # atno 17320 bound_to 7965
  144.7764  140.5749  143.6635 LP  0  0  0  0  0  0  0  0  0  0  0  0  # atno 17321 bound_to 7965
  139.8050  143.8030  152.3166 LP  0  0  0  0  0  0  0  0  0  0  0  0  # atno 17342 bound_to 10162
  139.8060  144.7355  150.9761 LP  0  0  0  0  0  0  0  0  0  0  0  0  # atno 17343 bound_to 10162
  157.6890  131.0816  150.7161 LP  0  0  0  0  0  0  0  0  0  0  0  0  # atno 17370 bound_to 10713
  156.7218  130.4683  149.5521 LP  0  0  0  0  0  0  0  0  0  0  0  0  # atno 17371 bound_to 10713
  140.0899  134.5615  155.8455 LP  0  0  0  0  0  0  0  0  0  0  0  0  # atno 17394 bound_to 11000
  141.2074  133.6664  156.6306 LP  0  0  0  0  0  0  0  0  0  0  0  0  # atno 17395 bound_to 11000

$$$$
