AV-unprocessed.smi:618|AV-procd|sdf|3079|dock7
  -GOLD-   22720 0 03D 1   1.00000     0.00000
 Structure written by MMmdl.
 41 43  0  0  0  0  0  0  0  0  2 V2000
  146.8094  137.3045  155.7818 O   0  0  0  0  0  0  0  0  0  0  0  0
  147.4474  137.0260  154.7675 C   0  0  0  0  0  0  0  0  0  0  0  0
  147.0242  136.1469  153.8486 N   0  0  0  0  0  0  0  0  0  0  0  0
  145.7773  135.3894  153.9183 C   0  0  0  0  0  0  0  0  0  0  0  0
  145.5950  134.4074  152.7425 C   0  0  1  0  0  0  0  0  0  0  0  0
  145.4528  135.0991  151.3691 C   0  0  0  0  0  0  0  0  0  0  0  0
  145.3750  134.1185  150.2617 N   0  3  2  0  0  0  0  0  0  0  0  0
  144.0568  133.4910  150.0246 C   0  0  0  0  0  0  0  0  0  0  0  0
  144.3426  132.0979  149.4417 C   0  0  0  0  0  0  0  0  0  0  0  0
  145.8684  132.0040  149.3303 C   0  0  0  0  0  0  0  0  0  0  0  0
  146.3847  133.0423  150.3277 C   0  0  2  0  0  0  0  0  0  0  0  0
  146.5067  132.4688  151.7576 C   0  0  0  0  0  0  0  0  0  0  0  0
  146.7027  133.5158  152.6971 O   0  0  0  0  0  0  0  0  0  0  0  0
  148.6344  137.5525  154.4210 N   0  0  0  0  0  0  0  0  0  0  0  0
  149.4306  138.5009  155.1197 C   0  0  0  0  0  0  0  0  0  0  0  0
  149.2427  138.8665  156.4752 C   0  0  0  0  0  0  0  0  0  0  0  0
  150.1145  139.8101  157.0518 C   0  0  0  0  0  0  0  0  0  0  0  0
  151.1444  140.3492  156.2570 C   0  0  0  0  0  0  0  0  0  0  0  0
  151.3425  140.0023  154.9682 N   0  0  0  0  0  0  0  0  0  0  0  0
  150.5030  139.0970  154.4221 C   0  0  0  0  0  0  0  0  0  0  0  0
  147.6072  135.9893  153.0396 H   0  0  0  0  0  0  0  0  0  0  0  0
  145.7053  134.8591  154.8693 H   0  0  0  0  0  0  0  0  0  0  0  0
  144.9599  136.1107  153.9126 H   0  0  0  0  0  0  0  0  0  0  0  0
  144.6949  133.8263  152.9500 H   0  0  0  0  0  0  0  0  0  0  0  0
  144.5831  135.7569  151.3482 H   0  0  0  0  0  0  0  0  0  0  0  0
  146.3241  135.7261  151.1776 H   0  0  0  0  0  0  0  0  0  0  0  0
  143.4933  133.3972  150.9537 H   0  0  0  0  0  0  0  0  0  0  0  0
  143.4701  134.1064  149.3421 H   0  0  0  0  0  0  0  0  0  0  0  0
  143.9663  131.3296  150.1186 H   0  0  0  0  0  0  0  0  0  0  0  0
  143.8588  131.9486  148.4759 H   0  0  0  0  0  0  0  0  0  0  0  0
  146.2472  130.9990  149.5201 H   0  0  0  0  0  0  0  0  0  0  0  0
  146.1752  132.2857  148.3221 H   0  0  0  0  0  0  0  0  0  0  0  0
  147.3533  133.4366  150.0176 H   0  0  0  0  0  0  0  0  0  0  0  0
  145.6232  131.8910  152.0345 H   0  0  0  0  0  0  0  0  0  0  0  0
  147.3541  131.7851  151.8129 H   0  0  0  0  0  0  0  0  0  0  0  0
  148.9966  137.2699  153.5221 H   0  0  0  0  0  0  0  0  0  0  0  0
  148.4641  138.4395  157.0871 H   0  0  0  0  0  0  0  0  0  0  0  0
  149.9983  140.1114  158.0824 H   0  0  0  0  0  0  0  0  0  0  0  0
  151.8306  141.0742  156.6692 H   0  0  0  0  0  0  0  0  0  0  0  0
  150.6940  138.8416  153.3898 H   0  0  0  0  0  0  0  0  0  0  0  0
  145.5744  134.6271  149.4120 H   0  0  0  0  0  0  0  0  0  0  0  0
  1  2  2  0  0  0  0
  2  3  1  0  0  0  0
  2 14  1  0  0  0  0
  3  4  1  0  0  0  0
  3 21  1  0  0  0  0
  4  5  1  0  0  0  0
  4 22  1  0  0  0  0
  4 23  1  0  0  0  0
  5 13  1  0  0  0  0
  5  6  1  0  0  0  0
  5 24  1  0  0  0  0
  6  7  1  0  0  0  0
  6 25  1  0  0  0  0
  6 26  1  0  0  0  0
  7 11  1  0  0  0  0
  7  8  1  0  0  0  0
  7 41  1  0  0  0  0
  8  9  1  0  0  0  0
  8 27  1  0  0  0  0
  8 28  1  0  0  0  0
  9 10  1  0  0  0  0
  9 29  1  0  0  0  0
  9 30  1  0  0  0  0
 10 11  1  0  0  0  0
 10 31  1  0  0  0  0
 10 32  1  0  0  0  0
 11 12  1  0  0  0  0
 11 33  1  0  0  0  0
 12 13  1  0  0  0  0
 12 34  1  0  0  0  0
 12 35  1  0  0  0  0
 14 15  1  0  0  0  0
 14 36  1  0  0  0  0
 15 20  1  0  0  0  0
 15 16  2  0  0  0  0
 16 17  1  0  0  0  0
 16 37  1  0  0  0  0
 17 18  2  0  0  0  0
 17 38  1  0  0  0  0
 18 19  1  0  0  0  0
 18 39  1  0  0  0  0
 19 20  2  0  0  0  0
 20 40  1  0  0  0  0
M  CHG  1   7   1
M  END
> <s_m_source_file>
AV-unprocessed.smi

> <i_m_source_file_index>
618

> <i_lp_mmshare_version>
43012

> <i_f3d_flags>
0

> <s_epik_input>
W2NIXTFuW2NIXVtjSF1bY0hdYzFbTkhdQyg9TylbTkhdW0NIMl1bQ0BIXShbQ0gyXTIpT1tDSDJdW0NAQEhdKE4yMylbQ0gyXVtDSDJdW0NIMl0z

> <s_epik_cmdline>
J2VwaWtfcHl0aG9uJywgJy1waCcsICc3LjAnLCAnLXRuJywgJzgnLCAnLW1hJywgJzIwMCcsICctbWV0YWxfYmluZGluZycsICctaW1hZScsICc8aW5maWxlLm1hZT4nLCAnLW9tYWUnLCAnPG91dGZpbGUubWFlPic=

> <r_epik_Ionization_Penalty>
0.111044

> <r_epik_Ionization_Penalty_Charging>
0.10673

> <r_epik_Ionization_Penalty_Neutral>
0.00431361

> <r_epik_State_Penalty>
0.0978747

> <r_epik_Charging_Adjusted_Penalty>
0.204605

> <i_epik_Tot_Q>
1

> <i_epik_Tot_abs_Q>
1

> <r_epik_Metal_State_Penalty>
0.0947591

> <b_epik_Metal_Only>
0

> <s_lp_Force_Field>
OPLS_2005

> <r_lp_Energy>
40.8554

> <b_lp_Chiralities_Consistent>
1

> <s_lp_Variant>
AV-unprocessed.smi:618-6

> <Gold.Version>
5.8.1

> <Gold.Id.Protein>
6NUR|6NUR_protein|mol2

> <Gold.PLP.Fitness>
44.6291

> <Gold.PLP.PLP>
-30.0336

> <Gold.PLP.part.hbond>
-4.0000

> <Gold.PLP.part.metal>
0.0000

> <Gold.PLP.part.buried>
-1.6342

> <Gold.PLP.part.nonpolar>
-24.4382

> <Gold.PLP.part.repulsive>
0.2805

> <Gold.PLP.ligand.clash>
0.0000

> <Gold.PLP.ligand.torsion>
0.0520

> <Gold.PLP.Chemscore.Hbond>
3.9000

> <Gold.PLP.Chemscore.CHOScore>
0.9990

> <Gold.PLP.Chemscore.Metal>
0.0000

> <Gold.Chemscore.Hbonds>
donor molecule, donor type, donor heavy atom, donor atom, acceptor molecule, acceptor atom, score
      L1  H     3    21       P1  7948  1.00
      L1  H     7    41       P1  7921  1.00
      L1  H    14    36       P1  7948  1.00
      P1  H  7989  7998       L1    19  0.80
      L1  C    20    40       P1  7957  0.47

> <Gold.PLP.Chemscore.Internal.Correction>
0.0027

> <Gold.Rescore>
     Score         DG    S(hbond)    S(metal)    S(lipo)     H(rot)  DE(clash)    DE(int)     intcor
     21.58     -23.35       3.32        0.00      85.66       1.27       0.59       1.19       ----

> <Gold.Chemscore.Fitness>
21.5787

> <Gold.Chemscore.DG>
-23.3524

> <Gold.Chemscore.ZeroCoef>
-5.4800

> <Gold.Chemscore.Hbond>
3.3203

> <Gold.Chemscore.Metal>
0.0000

> <Gold.Chemscore.Lipo>
85.6611

> <Gold.Chemscore.Internal_Hbond>
0.0000

> <Gold.Chemscore.DEClash>
0.5870

> <Gold.Chemscore.DEInternal>
1.1867

> <Gold.Chemscore.Rot>
1.2656

> <Gold.Chemscore.Internal.Correction>
   9.000000E+99

> <Gold.Chemscore.Hbonds>
donor molecule, donor type, donor heavy atom, donor atom, acceptor molecule, acceptor atom, score
      L1  H     3    21       P1  7948  1.00
      L1  H     7    41       P1  7921  0.94
      L1  H    14    36       P1  7948  0.97
      P1  H  7989  7998       L1    19  0.12

> <Gold.Chemscore.Hbond.Weighted>
-11.0899

> <Gold.Chemscore.Metal.Weighted>
-0.0000

> <Gold.Chemscore.Lipo.Weighted>
-10.0224

> <Gold.Chemscore.Internal_Hbond.Weighted>
0.0000

> <Gold.Chemscore.DEClash.Weighted>
0.5870

> <Gold.Chemscore.DEInternal.Weighted>
1.1867

> <Gold.Chemscore.Rot.Weighted>
3.2399

> <Gold.Chemscore.Internal.Correction.Weighted>
   9.000000E+99

> <Gold.Protein.RotatedTorsions>
[ 6907 6896 6895 6894 ] final  -31.08 input  -60.11 | X-H torsion
[ 7974 7965 7964 7962 ] final  145.84 input  175.53 | X-H torsion
[ 8008 7997 7996 7995 ] final   66.64 input   59.86 | X-H torsion
[ 10167 10162 10161 10158 ] final  164.23 input  -65.29 | X-H torsion
[ 10718 10713 10712 10709 ] final   13.03 input   66.30 | X-H torsion
[ 10763 10752 10751 10750 ] final   39.35 input  -60.55 | X-H torsion
[ 11005 11000 10999 10996 ] final  -97.36 input  -57.11 | X-H torsion

> <Gold.Protein.ActiveResidues>
 VAL166  LYS551  ARG553  GLY616  TRP617  ASP618  TYR619  PRO620  LYS621  CYS622 
 ASP623  PHE694  ASN695  SER759  ASP760  ASP761  ALA762  ILE779  LEU786  VAL792 
 PHE793  MET794  SER795  GLU796  ALA797  LYS798  CYS799  TRP800  GLU811  SER814 

> <Gold.Protein.RotatedAtoms>
  151.0969  134.9949  159.8429 H   0  0  0  0  0  0  0  0  0  0  0  0  # atno 6907 bound_to 6896
  152.5434  134.1998  159.8717 H   0  0  0  0  0  0  0  0  0  0  0  0  # atno 6908 bound_to 6896
  151.2038  133.4551  159.2630 H   0  0  0  0  0  0  0  0  0  0  0  0  # atno 6909 bound_to 6896
  144.8720  139.5831  143.5882 H   0  0  0  0  0  0  0  0  0  0  0  0  # atno 7974 bound_to 7965
  155.6806  140.3496  155.4854 H   0  0  0  0  0  0  0  0  0  0  0  0  # atno 8008 bound_to 7997
  155.9610  140.1137  157.0918 H   0  0  0  0  0  0  0  0  0  0  0  0  # atno 8009 bound_to 7997
  154.4143  140.1175  156.5165 H   0  0  0  0  0  0  0  0  0  0  0  0  # atno 8010 bound_to 7997
  139.4885  144.4256  151.9133 H   0  0  0  0  0  0  0  0  0  0  0  0  # atno 10167 bound_to 10162
  157.0187  130.6146  149.5718 H   0  0  0  0  0  0  0  0  0  0  0  0  # atno 10718 bound_to 10713
  152.9970  135.6223  154.2451 H   0  0  0  0  0  0  0  0  0  0  0  0  # atno 10763 bound_to 10752
  154.2191  135.2796  155.2933 H   0  0  0  0  0  0  0  0  0  0  0  0  # atno 10764 bound_to 10752
  154.5543  135.5724  153.7009 H   0  0  0  0  0  0  0  0  0  0  0  0  # atno 10765 bound_to 10752
  141.1381  133.8165  157.0696 H   0  0  0  0  0  0  0  0  0  0  0  0  # atno 11005 bound_to 11000
  146.2937  139.7213  142.9142 LP  0  0  0  0  0  0  0  0  0  0  0  0  # atno 17320 bound_to 7965
  145.4113  141.0397  143.3015 LP  0  0  0  0  0  0  0  0  0  0  0  0  # atno 17321 bound_to 7965
  140.3702  144.2865  150.5921 LP  0  0  0  0  0  0  0  0  0  0  0  0  # atno 17342 bound_to 10162
  140.5325  143.2240  151.8215 LP  0  0  0  0  0  0  0  0  0  0  0  0  # atno 17343 bound_to 10162
  156.0110  130.5201  150.7987 LP  0  0  0  0  0  0  0  0  0  0  0  0  # atno 17370 bound_to 10713
  157.5266  131.0934  151.0010 LP  0  0  0  0  0  0  0  0  0  0  0  0  # atno 17371 bound_to 10713
  140.0520  134.9800  157.1153 LP  0  0  0  0  0  0  0  0  0  0  0  0  # atno 17394 bound_to 11000
  140.3976  134.2117  155.7164 LP  0  0  0  0  0  0  0  0  0  0  0  0  # atno 17395 bound_to 11000

$$$$
