AV-unprocessed.smi:692|AV-procd|sdf|3368|dock1
  -GOLD-   22720 0343D 1   1.00000     0.00000
 Structure written by MMmdl.
 37 38  0  0  0  0  0  0  0  0  1 V2000
  143.8665  143.7794  162.8782 C   0  0  0  0  0  0  0  0  0  0  0  0
  142.9261  143.9904  161.6863 C   0  0  0  0  0  0  0  0  0  0  0  0
  143.6418  144.5260  160.4837 C   0  0  0  0  0  0  0  0  0  0  0  0
  143.3049  145.6391  159.7524 C   0  0  0  0  0  0  0  0  0  0  0  0
  144.4123  145.9166  158.4350 S   0  0  0  0  0  0  0  0  0  0  0  0
  145.3022  144.4864  158.9333 C   0  0  0  0  0  0  0  0  0  0  0  0
  146.4633  144.0468  158.2451 N   0  0  0  0  0  0  0  0  0  0  0  0
  147.2184  142.9630  158.4971 C   0  0  0  0  0  0  0  0  0  0  0  0
  147.0098  142.1413  159.3902 O   0  0  0  0  0  0  0  0  0  0  0  0
  148.2448  142.8770  157.6386 N   0  0  0  0  0  0  0  0  0  0  0  0
  149.2462  141.8147  157.6293 C   0  0  2  0  0  0  0  0  0  0  0  0
  150.5946  142.3668  158.0949 C   0  0  0  0  0  0  0  0  0  0  0  0
  151.6468  141.2518  158.1271 C   0  0  0  0  0  0  0  0  0  0  0  0
  151.6730  140.3912  156.8547 C   0  0  0  0  0  0  0  0  0  0  0  0
  152.6804  139.7195  156.6300 O   0  0  0  0  0  0  0  0  0  0  0  0
  150.5882  140.3711  156.0429 N   0  0  0  0  0  0  0  0  0  0  0  0
  150.5790  139.5308  154.8441 C   0  0  0  0  0  0  0  0  0  0  0  0
  149.3914  141.2088  156.2196 C   0  0  0  0  0  0  0  0  0  0  0  0
  144.7844  143.8765  160.0056 N   0  0  0  0  0  0  0  0  0  0  0  0
  143.3207  143.3945  163.7399 H   0  0  0  0  0  0  0  0  0  0  0  0
  144.3419  144.7147  163.1751 H   0  0  0  0  0  0  0  0  0  0  0  0
  144.6540  143.0644  162.6372 H   0  0  0  0  0  0  0  0  0  0  0  0
  142.4407  143.0452  161.4408 H   0  0  0  0  0  0  0  0  0  0  0  0
  142.1252  144.6706  161.9781 H   0  0  0  0  0  0  0  0  0  0  0  0
  142.4755  146.3123  159.9109 H   0  0  0  0  0  0  0  0  0  0  0  0
  146.7515  144.6245  157.4693 H   0  0  0  0  0  0  0  0  0  0  0  0
  148.3396  143.5964  156.9368 H   0  0  0  0  0  0  0  0  0  0  0  0
  148.9428  141.0308  158.3265 H   0  0  0  0  0  0  0  0  0  0  0  0
  150.9245  143.1670  157.4302 H   0  0  0  0  0  0  0  0  0  0  0  0
  150.4994  142.8069  159.0884 H   0  0  0  0  0  0  0  0  0  0  0  0
  152.6355  141.6796  158.2961 H   0  0  0  0  0  0  0  0  0  0  0  0
  151.4473  140.5879  158.9689 H   0  0  0  0  0  0  0  0  0  0  0  0
  150.6197  138.4756  155.1175 H   0  0  0  0  0  0  0  0  0  0  0  0
  151.4375  139.7529  154.2082 H   0  0  0  0  0  0  0  0  0  0  0  0
  149.6822  139.6823  154.2418 H   0  0  0  0  0  0  0  0  0  0  0  0
  148.4976  140.6285  155.9854 H   0  0  0  0  0  0  0  0  0  0  0  0
  149.4450  142.0090  155.4797 H   0  0  0  0  0  0  0  0  0  0  0  0
  1  2  1  0  0  0  0
  1 20  1  0  0  0  0
  1 21  1  0  0  0  0
  1 22  1  0  0  0  0
  2  3  1  0  0  0  0
  2 23  1  0  0  0  0
  2 24  1  0  0  0  0
  3 19  1  0  0  0  0
  3  4  2  0  0  0  0
  4  5  1  0  0  0  0
  4 25  1  0  0  0  0
  5  6  1  0  0  0  0
  6  7  1  0  0  0  0
  6 19  2  0  0  0  0
  7  8  1  0  0  0  0
  7 26  1  0  0  0  0
  8  9  2  0  0  0  0
  8 10  1  0  0  0  0
 10 11  1  0  0  0  0
 10 27  1  0  0  0  0
 11 18  1  0  0  0  0
 11 12  1  0  0  0  0
 11 28  1  0  0  0  0
 12 13  1  0  0  0  0
 12 29  1  0  0  0  0
 12 30  1  0  0  0  0
 13 14  1  0  0  0  0
 13 31  1  0  0  0  0
 13 32  1  0  0  0  0
 14 15  2  0  0  0  0
 14 16  1  0  0  0  0
 16 17  1  0  0  0  0
 16 18  1  0  0  0  0
 17 33  1  0  0  0  0
 17 34  1  0  0  0  0
 17 35  1  0  0  0  0
 18 36  1  0  0  0  0
 18 37  1  0  0  0  0
M  END
> <s_m_source_file>
AV-unprocessed.smi

> <i_m_source_file_index>
692

> <i_lp_mmshare_version>
43012

> <i_f3d_flags>
0

> <s_epik_input>
W0NIM11bQ0gyXWMxW2NIXXNjKG4xKVtOSF1DKD1PKVtOSF1bQ0BASF0yW0NIMl1bQ0gyXUMoPU8pTihbQ0gzXSlbQ0gyXTI=

> <s_epik_cmdline>
J2VwaWtfcHl0aG9uJywgJy1waCcsICc3LjAnLCAnLXRuJywgJzgnLCAnLW1hJywgJzIwMCcsICctbWV0YWxfYmluZGluZycsICctaW1hZScsICc8aW5maWxlLm1hZT4nLCAnLW9tYWUnLCAnPG91dGZpbGUubWFlPic=

> <r_lp_tautomer_probability>
1

> <r_epik_Ionization_Penalty>
0.000165573

> <r_epik_Ionization_Penalty_Charging>
0

> <r_epik_Ionization_Penalty_Neutral>
0.000165573

> <r_epik_State_Penalty>
-0

> <r_epik_Charging_Adjusted_Penalty>
0

> <i_epik_Tot_Q>
0

> <i_epik_Tot_abs_Q>
0

> <r_epik_Metal_State_Penalty>
0.031163

> <b_epik_Metal_Only>
0

> <s_lp_Force_Field>
OPLS_2005

> <r_lp_Energy>
8.08929

> <b_lp_Chiralities_Consistent>
1

> <s_lp_Variant>
AV-unprocessed.smi:692-1

> <Gold.Version>
5.8.1

> <Gold.Id.Protein>
6NUR|6NUR_protein|mol2

> <Gold.PLP.Fitness>
37.1850

> <Gold.PLP.PLP>
-28.5224

> <Gold.PLP.part.hbond>
-5.2909

> <Gold.PLP.part.metal>
0.0000

> <Gold.PLP.part.buried>
-0.8676

> <Gold.PLP.part.nonpolar>
-22.5700

> <Gold.PLP.part.repulsive>
0.1485

> <Gold.PLP.ligand.clash>
0.0000

> <Gold.PLP.ligand.torsion>
0.1372

> <Gold.PLP.Chemscore.Hbond>
2.9780

> <Gold.PLP.Chemscore.CHOScore>
0.0000

> <Gold.PLP.Chemscore.Metal>
0.0000

> <Gold.Chemscore.Hbonds>
donor molecule, donor type, donor heavy atom, donor atom, acceptor molecule, acceptor atom, score
      L1  H     7    26       P1  8029  0.40
      L1  H    10    27       P1  8028  0.65
      P1  H  6934  6946       L1     9  0.75
      P1  H  7997  8009       L1    15  1.00

> <Gold.PLP.Chemscore.Internal.Correction>
0.0030

> <Gold.Rescore>
     Score         DG    S(hbond)    S(metal)    S(lipo)     H(rot)  DE(clash)    DE(int)     intcor
     18.22     -20.17       3.07        0.00      65.05       1.24       0.57       1.38       ----

> <Gold.Chemscore.Fitness>
18.2225

> <Gold.Chemscore.DG>
-20.1687

> <Gold.Chemscore.ZeroCoef>
-5.4800

> <Gold.Chemscore.Hbond>
3.0683

> <Gold.Chemscore.Metal>
0.0000

> <Gold.Chemscore.Lipo>
65.0547

> <Gold.Chemscore.Internal_Hbond>
0.0000

> <Gold.Chemscore.DEClash>
0.5678

> <Gold.Chemscore.DEInternal>
1.3785

> <Gold.Chemscore.Rot>
1.2386

> <Gold.Chemscore.Internal.Correction>
   9.000000E+99

> <Gold.Chemscore.Hbonds>
donor molecule, donor type, donor heavy atom, donor atom, acceptor molecule, acceptor atom, score
      L1  H     7    26       P1  8029  0.02
      L1  H    10    27       P1  8028  0.06
      P1  H  6934  6946       L1     9  0.76
      P1  H  7997  8009       L1    15  0.98

> <Gold.Chemscore.Hbond.Weighted>
-10.2481

> <Gold.Chemscore.Metal.Weighted>
-0.0000

> <Gold.Chemscore.Lipo.Weighted>
-7.6114

> <Gold.Chemscore.Internal_Hbond.Weighted>
0.0000

> <Gold.Chemscore.DEClash.Weighted>
0.5678

> <Gold.Chemscore.DEInternal.Weighted>
1.3785

> <Gold.Chemscore.Rot.Weighted>
3.1708

> <Gold.Chemscore.Internal.Correction.Weighted>
   9.000000E+99

> <Gold.Protein.RotatedTorsions>
[ 6907 6896 6895 6894 ] final  102.26 input  -60.11 | X-H torsion
[ 7974 7965 7964 7962 ] final  144.37 input  175.53 | X-H torsion
[ 8008 7997 7996 7995 ] final  172.93 input   59.86 | X-H torsion
[ 10167 10162 10161 10158 ] final  150.56 input  -65.29 | X-H torsion
[ 10718 10713 10712 10709 ] final  -71.50 input   66.30 | X-H torsion
[ 10763 10752 10751 10750 ] final  -64.83 input  -60.55 | X-H torsion
[ 11005 11000 10999 10996 ] final   -4.49 input  -57.11 | X-H torsion

> <Gold.Protein.ActiveResidues>
 VAL166  LYS551  ARG553  GLY616  TRP617  ASP618  TYR619  PRO620  LYS621  CYS622 
 ASP623  PHE694  ASN695  SER759  ASP760  ASP761  ALA762  ILE779  LEU786  VAL792 
 PHE793  MET794  SER795  GLU796  ALA797  LYS798  CYS799  TRP800  GLU811  SER814 

> <Gold.Protein.RotatedAtoms>
  152.5328  134.0003  159.7891 H   0  0  0  0  0  0  0  0  0  0  0  0  # atno 6907 bound_to 6896
  151.0223  133.5858  159.2677 H   0  0  0  0  0  0  0  0  0  0  0  0  # atno 6908 bound_to 6896
  151.2893  135.0744  159.9251 H   0  0  0  0  0  0  0  0  0  0  0  0  # atno 6909 bound_to 6896
  144.8841  139.5655  143.5829 H   0  0  0  0  0  0  0  0  0  0  0  0  # atno 7974 bound_to 7965
  156.1126  140.1473  156.9318 H   0  0  0  0  0  0  0  0  0  0  0  0  # atno 8008 bound_to 7997
  154.4777  140.0889  156.7346 H   0  0  0  0  0  0  0  0  0  0  0  0  # atno 8009 bound_to 7997
  155.4570  140.3437  155.4310 H   0  0  0  0  0  0  0  0  0  0  0  0  # atno 8010 bound_to 7997
  139.4849  144.5512  151.7398 H   0  0  0  0  0  0  0  0  0  0  0  0  # atno 10167 bound_to 10162
  156.0360  130.4353  150.2453 H   0  0  0  0  0  0  0  0  0  0  0  0  # atno 10718 bound_to 10713
  154.3360  135.6166  153.5574 H   0  0  0  0  0  0  0  0  0  0  0  0  # atno 10763 bound_to 10752
  152.9807  135.5758  154.4907 H   0  0  0  0  0  0  0  0  0  0  0  0  # atno 10764 bound_to 10752
  154.4602  135.2855  155.1695 H   0  0  0  0  0  0  0  0  0  0  0  0  # atno 10765 bound_to 10752
  140.6809  133.9154  155.8554 H   0  0  0  0  0  0  0  0  0  0  0  0  # atno 11005 bound_to 11000
  146.3013  139.7436  142.9089 LP  0  0  0  0  0  0  0  0  0  0  0  0  # atno 17320 bound_to 7965
  145.3901  141.0371  143.3129 LP  0  0  0  0  0  0  0  0  0  0  0  0  # atno 17321 bound_to 7965
  140.5066  144.1089  150.5984 LP  0  0  0  0  0  0  0  0  0  0  0  0  # atno 17342 bound_to 10162
  140.4000  143.2709  151.9959 LP  0  0  0  0  0  0  0  0  0  0  0  0  # atno 17343 bound_to 10162
  157.0552  131.0074  151.3240 LP  0  0  0  0  0  0  0  0  0  0  0  0  # atno 17370 bound_to 10713
  157.5111  130.7939  149.7706 LP  0  0  0  0  0  0  0  0  0  0  0  0  # atno 17371 bound_to 10713
  141.0318  134.0745  157.4005 LP  0  0  0  0  0  0  0  0  0  0  0  0  # atno 17394 bound_to 11000
  139.8952  135.0140  156.6990 LP  0  0  0  0  0  0  0  0  0  0  0  0  # atno 17395 bound_to 11000

$$$$
