AV-unprocessed.smi:3005|AV-procd|sdf|11443|dock8
  -GOLD-   2272016373D 1   1.00000     0.00000
 Structure written by MMmdl.
 33 34  0  0  0  0  0  0  0  0  1 V2000
  147.4370  139.0850  153.3693 C   0  0  0  0  0  0  0  0  0  0  0  0
  148.3816  139.9990  154.0883 C   0  0  0  0  0  0  0  0  0  0  0  0
  149.5827  139.4911  154.5911 N   0  0  0  0  0  0  0  0  0  0  0  0
  150.3220  140.4210  155.2009 C   0  0  0  0  0  0  0  0  0  0  0  0
  151.8951  140.1638  155.9542 S   0  0  0  0  0  0  0  0  0  0  0  0
  151.5068  140.6408  157.6636 C   0  0  0  0  0  0  0  0  0  0  0  0
  152.7595  140.6803  158.5435 C   0  0  0  0  0  0  0  0  0  0  0  0
  153.4979  139.6974  158.6070 O   0  0  0  0  0  0  0  0  0  0  0  0
  153.0576  141.8705  159.2136 N   0  0  0  0  0  0  0  0  0  0  0  0
  153.5254  141.8752  160.5917 C   0  0  0  0  0  0  0  0  0  0  0  0
  152.8380  143.2394  160.7072 C   0  0  0  0  0  0  0  0  0  0  0  0
  152.0288  142.8706  159.4598 C   0  0  0  0  0  0  0  0  0  0  0  0
  149.5705  142.0087  155.1998 S   0  0  0  0  0  0  0  0  0  0  0  0
  148.2131  141.3438  154.3258 C   0  0  0  0  0  0  0  0  0  0  0  0
  147.0600  142.2127  153.9305 C   0  0  0  0  0  0  0  0  0  0  0  0
  146.0248  142.3005  155.0542 C   0  0  0  0  0  0  0  0  0  0  0  0
  144.8038  141.8252  154.7966 N   0  0  0  0  0  0  0  0  0  0  0  0
  146.3209  142.7947  156.1403 O   0  0  0  0  0  0  0  0  0  0  0  0
  147.2958  139.4020  152.3359 H   0  0  0  0  0  0  0  0  0  0  0  0
  146.4585  139.0752  153.8494 H   0  0  0  0  0  0  0  0  0  0  0  0
  147.8034  138.0581  153.3501 H   0  0  0  0  0  0  0  0  0  0  0  0
  151.0527  141.6321  157.6644 H   0  0  0  0  0  0  0  0  0  0  0  0
  150.7639  139.9481  158.0574 H   0  0  0  0  0  0  0  0  0  0  0  0
  153.0620  141.1050  161.2119 H   0  0  0  0  0  0  0  0  0  0  0  0
  154.6108  141.9046  160.6940 H   0  0  0  0  0  0  0  0  0  0  0  0
  152.2390  143.3640  161.6098 H   0  0  0  0  0  0  0  0  0  0  0  0
  153.5159  144.0803  160.5501 H   0  0  0  0  0  0  0  0  0  0  0  0
  151.9799  143.6521  158.7010 H   0  0  0  0  0  0  0  0  0  0  0  0
  151.0496  142.4473  159.6938 H   0  0  0  0  0  0  0  0  0  0  0  0
  147.4168  143.2085  153.6637 H   0  0  0  0  0  0  0  0  0  0  0  0
  146.5744  141.8114  153.0403 H   0  0  0  0  0  0  0  0  0  0  0  0
  144.0871  141.8608  155.5067 H   0  0  0  0  0  0  0  0  0  0  0  0
  144.6023  141.4304  153.8893 H   0  0  0  0  0  0  0  0  0  0  0  0
  1  2  1  0  0  0  0
  1 19  1  0  0  0  0
  1 20  1  0  0  0  0
  1 21  1  0  0  0  0
  2 14  2  0  0  0  0
  2  3  1  0  0  0  0
  3  4  2  0  0  0  0
  4  5  1  0  0  0  0
  4 13  1  0  0  0  0
  5  6  1  0  0  0  0
  6  7  1  0  0  0  0
  6 22  1  0  0  0  0
  6 23  1  0  0  0  0
  7  8  2  0  0  0  0
  7  9  1  0  0  0  0
  9 12  1  0  0  0  0
  9 10  1  0  0  0  0
 10 11  1  0  0  0  0
 10 24  1  0  0  0  0
 10 25  1  0  0  0  0
 11 12  1  0  0  0  0
 11 26  1  0  0  0  0
 11 27  1  0  0  0  0
 12 28  1  0  0  0  0
 12 29  1  0  0  0  0
 13 14  1  0  0  0  0
 14 15  1  0  0  0  0
 15 16  1  0  0  0  0
 15 30  1  0  0  0  0
 15 31  1  0  0  0  0
 16 17  1  0  0  0  0
 16 18  2  0  0  0  0
 17 32  1  0  0  0  0
 17 33  1  0  0  0  0
M  END
> <s_m_source_file>
AV-unprocessed.smi

> <i_m_source_file_index>
3005

> <i_lp_mmshare_version>
43012

> <i_f3d_flags>
0

> <s_epik_input>
W05IMl1DKD1PKVtDSDJdYzFzYyhuYzFbQ0gzXSlTW0NIMl1DKD1PKU4yW0NIMl1bQ0gyXVtDSDJdMg==

> <s_epik_cmdline>
J2VwaWtfcHl0aG9uJywgJy1waCcsICc3LjAnLCAnLXRuJywgJzgnLCAnLW1hJywgJzIwMCcsICctbWV0YWxfYmluZGluZycsICctaW1hZScsICc8aW5maWxlLm1hZT4nLCAnLW9tYWUnLCAnPG91dGZpbGUubWFlPic=

> <r_lp_tautomer_probability>
1

> <r_epik_Ionization_Penalty>
8.1701e-07

> <r_epik_Ionization_Penalty_Charging>
0

> <r_epik_Ionization_Penalty_Neutral>
8.1701e-07

> <r_epik_State_Penalty>
-0

> <r_epik_Charging_Adjusted_Penalty>
0

> <i_epik_Tot_Q>
0

> <i_epik_Tot_abs_Q>
0

> <r_epik_Metal_State_Penalty>
-0

> <b_epik_Metal_Only>
0

> <s_lp_Force_Field>
OPLS_2005

> <r_lp_Energy>
11.7673

> <b_lp_Chiralities_Consistent>
1

> <s_lp_Variant>
AV-unprocessed.smi:3005-1

> <Gold.Version>
5.8.1

> <Gold.Id.Protein>
6NUR|6NUR_protein|mol2

> <Gold.PLP.Fitness>
43.0435

> <Gold.PLP.PLP>
-37.8351

> <Gold.PLP.part.hbond>
-2.0000

> <Gold.PLP.part.metal>
0.0000

> <Gold.PLP.part.buried>
-0.0781

> <Gold.PLP.part.nonpolar>
-34.8766

> <Gold.PLP.part.repulsive>
0.2775

> <Gold.PLP.ligand.clash>
0.0000

> <Gold.PLP.ligand.torsion>
0.8424

> <Gold.PLP.Chemscore.Hbond>
2.0000

> <Gold.PLP.Chemscore.CHOScore>
0.0000

> <Gold.PLP.Chemscore.Metal>
0.0000

> <Gold.Chemscore.Hbonds>
donor molecule, donor type, donor heavy atom, donor atom, acceptor molecule, acceptor atom, score
      L1  H    17    33       P1 10175  1.00
      P1  H  7997  8008       L1     8  1.00

> <Gold.PLP.Chemscore.Internal.Correction>
0.8932

> <Gold.Rescore>
     Score         DG    S(hbond)    S(metal)    S(lipo)     H(rot)  DE(clash)    DE(int)     intcor
     13.90     -15.25       1.75        0.00      86.26       2.41       0.48       0.87       ----

> <Gold.Chemscore.Fitness>
13.8980

> <Gold.Chemscore.DG>
-15.2494

> <Gold.Chemscore.ZeroCoef>
-5.4800

> <Gold.Chemscore.Hbond>
1.7542

> <Gold.Chemscore.Metal>
0.0000

> <Gold.Chemscore.Lipo>
86.2610

> <Gold.Chemscore.Internal_Hbond>
0.0000

> <Gold.Chemscore.DEClash>
0.4842

> <Gold.Chemscore.DEInternal>
0.8673

> <Gold.Chemscore.Rot>
2.4149

> <Gold.Chemscore.Internal.Correction>
   9.000000E+99

> <Gold.Chemscore.Hbonds>
donor molecule, donor type, donor heavy atom, donor atom, acceptor molecule, acceptor atom, score
      L1  H    17    33       P1 10175  0.25
      P1  H  7997  8008       L1     8  0.25

> <Gold.Chemscore.Hbond.Weighted>
-5.8591

> <Gold.Chemscore.Metal.Weighted>
-0.0000

> <Gold.Chemscore.Lipo.Weighted>
-10.0925

> <Gold.Chemscore.Internal_Hbond.Weighted>
0.0000

> <Gold.Chemscore.DEClash.Weighted>
0.4842

> <Gold.Chemscore.DEInternal.Weighted>
0.8673

> <Gold.Chemscore.Rot.Weighted>
6.1822

> <Gold.Chemscore.Internal.Correction.Weighted>
   9.000000E+99

> <Gold.Protein.RotatedTorsions>
[ 6907 6896 6895 6894 ] final -113.17 input  -60.11 | X-H torsion
[ 7974 7965 7964 7962 ] final  177.15 input  175.53 | X-H torsion
[ 8008 7997 7996 7995 ] final  -88.70 input   59.86 | X-H torsion
[ 10167 10162 10161 10158 ] final -154.38 input  -65.29 | X-H torsion
[ 10718 10713 10712 10709 ] final  -64.64 input   66.30 | X-H torsion
[ 10763 10752 10751 10750 ] final -103.01 input  -60.55 | X-H torsion
[ 11005 11000 10999 10996 ] final  -79.29 input  -57.11 | X-H torsion

> <Gold.Protein.ActiveResidues>
 VAL166  LYS551  ARG553  GLY616  TRP617  ASP618  TYR619  PRO620  LYS621  CYS622 
 ASP623  PHE694  ASN695  SER759  ASP760  ASP761  ALA762  ILE779  LEU786  VAL792 
 PHE793  MET794  SER795  GLU796  ALA797  LYS798  CYS799  TRP800  GLU811  SER814 

> <Gold.Protein.RotatedAtoms>
  150.7810  133.8984  159.3333 H   0  0  0  0  0  0  0  0  0  0  0  0  # atno 6907 bound_to 6896
  151.6846  135.0954  160.0232 H   0  0  0  0  0  0  0  0  0  0  0  0  # atno 6908 bound_to 6896
  152.3861  133.6574  159.6235 H   0  0  0  0  0  0  0  0  0  0  0  0  # atno 6909 bound_to 6896
  144.7173  140.0203  143.6440 H   0  0  0  0  0  0  0  0  0  0  0  0  # atno 7974 bound_to 7965
  154.6778  140.0550  157.0234 H   0  0  0  0  0  0  0  0  0  0  0  0  # atno 8008 bound_to 7997
  155.0995  140.3227  155.4532 H   0  0  0  0  0  0  0  0  0  0  0  0  # atno 8009 bound_to 7997
  156.2683  140.2034  156.6121 H   0  0  0  0  0  0  0  0  0  0  0  0  # atno 8010 bound_to 7997
  139.7018  143.9251  152.2432 H   0  0  0  0  0  0  0  0  0  0  0  0  # atno 10167 bound_to 10162
  156.0717  130.4236  150.1448 H   0  0  0  0  0  0  0  0  0  0  0  0  # atno 10718 bound_to 10713
  154.7776  135.4839  153.9777 H   0  0  0  0  0  0  0  0  0  0  0  0  # atno 10763 bound_to 10752
  153.1450  135.6780  153.8976 H   0  0  0  0  0  0  0  0  0  0  0  0  # atno 10764 bound_to 10752
  153.8639  135.3152  155.3417 H   0  0  0  0  0  0  0  0  0  0  0  0  # atno 10765 bound_to 10752
  141.1667  133.7099  156.8100 H   0  0  0  0  0  0  0  0  0  0  0  0  # atno 11005 bound_to 11000
  146.0186  139.3231  143.0827 LP  0  0  0  0  0  0  0  0  0  0  0  0  # atno 17320 bound_to 7965
  145.8596  140.9483  143.0707 LP  0  0  0  0  0  0  0  0  0  0  0  0  # atno 17321 bound_to 7965
  139.9096  144.6864  150.8577 LP  0  0  0  0  0  0  0  0  0  0  0  0  # atno 17342 bound_to 10162
  140.7711  143.3453  151.2123 LP  0  0  0  0  0  0  0  0  0  0  0  0  # atno 17343 bound_to 10162
  156.9498  130.9771  151.3500 LP  0  0  0  0  0  0  0  0  0  0  0  0  # atno 17370 bound_to 10713
  157.5791  130.8364  149.8498 LP  0  0  0  0  0  0  0  0  0  0  0  0  # atno 17371 bound_to 10713
  140.2195  134.8768  157.3361 LP  0  0  0  0  0  0  0  0  0  0  0  0  # atno 17394 bound_to 11000
  140.2003  134.4263  155.7666 LP  0  0  0  0  0  0  0  0  0  0  0  0  # atno 17395 bound_to 11000

$$$$
