AV-unprocessed.smi:3006|AV-procd|sdf|11444|dock2
  -GOLD-   2272016373D 1   1.00000     0.00000
 Structure written by MMmdl.
 45 46  0  0  0  0  0  0  0  0  2 V2000
  151.0836  141.5458  156.3242 C   0  0  0  0  0  0  0  0  0  0  0  0
  150.6082  140.4425  155.4421 C   0  0  0  0  0  0  0  0  0  0  0  0
  149.3725  140.3776  154.9397 N   0  0  0  0  0  0  0  0  0  0  0  0
  149.1766  139.2498  154.1363 C   0  0  0  0  0  0  0  0  0  0  0  0
  147.8492  139.0201  153.4800 C   0  0  0  0  0  0  0  0  0  0  0  0
  147.1201  137.7980  154.0615 C   0  0  0  0  0  0  0  0  0  0  0  0
  146.0586  137.3350  153.1751 N   0  0  0  0  0  0  0  0  0  0  0  0
  144.9986  136.6011  153.5539 C   0  0  0  0  0  0  0  0  0  0  0  0
  144.8205  136.2623  154.7244 O   0  0  0  0  0  0  0  0  0  0  0  0
  144.1317  136.2972  152.5555 N   0  0  0  0  0  0  0  0  0  0  0  0
  144.3739  136.4323  151.1154 C   0  0  0  0  0  0  0  0  0  0  0  0
  144.6148  135.0347  150.5157 C   0  0  0  0  0  0  0  0  0  0  0  0
  143.4996  134.0828  150.8105 N   0  3  0  0  0  0  0  0  0  0  0  0
  143.7441  132.7029  150.2781 C   0  0  0  0  0  0  0  0  0  0  0  0
  145.0199  132.0642  150.8649 C   0  0  0  0  0  0  0  0  0  0  0  0
  143.8423  132.6712  148.7382 C   0  0  0  0  0  0  0  0  0  0  0  0
  143.1075  134.0998  152.2530 C   0  0  0  0  0  0  0  0  0  0  0  0
  142.9106  135.5283  152.7908 C   0  0  0  0  0  0  0  0  0  0  0  0
  150.2902  138.4527  154.0416 C   0  0  0  0  0  0  0  0  0  0  0  0
  151.6275  139.0933  154.9564 S   0  0  0  0  0  0  0  0  0  0  0  0
  150.2736  142.2442  156.5373 H   0  0  0  0  0  0  0  0  0  0  0  0
  151.8936  142.0884  155.8372 H   0  0  0  0  0  0  0  0  0  0  0  0
  151.4501  141.1379  157.2662 H   0  0  0  0  0  0  0  0  0  0  0  0
  147.2251  139.9075  153.5930 H   0  0  0  0  0  0  0  0  0  0  0  0
  147.9854  138.8868  152.4059 H   0  0  0  0  0  0  0  0  0  0  0  0
  147.8236  136.9768  154.2019 H   0  0  0  0  0  0  0  0  0  0  0  0
  146.7142  138.0288  155.0481 H   0  0  0  0  0  0  0  0  0  0  0  0
  146.1343  137.5941  152.2022 H   0  0  0  0  0  0  0  0  0  0  0  0
  143.5012  136.8910  150.6480 H   0  0  0  0  0  0  0  0  0  0  0  0
  145.2085  137.0883  150.8679 H   0  0  0  0  0  0  0  0  0  0  0  0
  144.7381  135.1573  149.4408 H   0  0  0  0  0  0  0  0  0  0  0  0
  145.5500  134.6258  150.9019 H   0  0  0  0  0  0  0  0  0  0  0  0
  142.8974  132.0786  150.5680 H   0  0  0  0  0  0  0  0  0  0  0  0
  145.2376  131.1098  150.3842 H   0  0  0  0  0  0  0  0  0  0  0  0
  144.9238  131.8491  151.9288 H   0  0  0  0  0  0  0  0  0  0  0  0
  145.8886  132.7081  150.7232 H   0  0  0  0  0  0  0  0  0  0  0  0
  144.1296  131.6807  148.3843 H   0  0  0  0  0  0  0  0  0  0  0  0
  144.5865  133.3789  148.3714 H   0  0  0  0  0  0  0  0  0  0  0  0
  142.8901  132.8965  148.2584 H   0  0  0  0  0  0  0  0  0  0  0  0
  142.1722  133.5624  152.4027 H   0  0  0  0  0  0  0  0  0  0  0  0
  143.8714  133.5869  152.8401 H   0  0  0  0  0  0  0  0  0  0  0  0
  142.6302  135.4953  153.8447 H   0  0  0  0  0  0  0  0  0  0  0  0
  142.0744  136.0097  152.2810 H   0  0  0  0  0  0  0  0  0  0  0  0
  150.4052  137.5319  153.4890 H   0  0  0  0  0  0  0  0  0  0  0  0
  142.6985  134.4398  150.3095 H   0  0  0  0  0  0  0  0  0  0  0  0
  1  2  1  0  0  0  0
  1 21  1  0  0  0  0
  1 22  1  0  0  0  0
  1 23  1  0  0  0  0
  2 20  1  0  0  0  0
  2  3  2  0  0  0  0
  3  4  1  0  0  0  0
  4  5  1  0  0  0  0
  4 19  2  0  0  0  0
  5  6  1  0  0  0  0
  5 24  1  0  0  0  0
  5 25  1  0  0  0  0
  6  7  1  0  0  0  0
  6 26  1  0  0  0  0
  6 27  1  0  0  0  0
  7  8  1  0  0  0  0
  7 28  1  0  0  0  0
  8  9  2  0  0  0  0
  8 10  1  0  0  0  0
 10 18  1  0  0  0  0
 10 11  1  0  0  0  0
 11 12  1  0  0  0  0
 11 29  1  0  0  0  0
 11 30  1  0  0  0  0
 12 13  1  0  0  0  0
 12 31  1  0  0  0  0
 12 32  1  0  0  0  0
 13 14  1  0  0  0  0
 13 17  1  0  0  0  0
 13 45  1  0  0  0  0
 14 15  1  0  0  0  0
 14 16  1  0  0  0  0
 14 33  1  0  0  0  0
 15 34  1  0  0  0  0
 15 35  1  0  0  0  0
 15 36  1  0  0  0  0
 16 37  1  0  0  0  0
 16 38  1  0  0  0  0
 16 39  1  0  0  0  0
 17 18  1  0  0  0  0
 17 40  1  0  0  0  0
 17 41  1  0  0  0  0
 18 42  1  0  0  0  0
 18 43  1  0  0  0  0
 19 20  1  0  0  0  0
 19 44  1  0  0  0  0
M  CHG  1  13   1
M  END
> <s_m_source_file>
AV-unprocessed.smi

> <i_m_source_file_index>
3006

> <i_lp_mmshare_version>
43012

> <i_f3d_flags>
0

> <s_epik_input>
W0NIM11jMW5jKFtjSF1zMSlbQ0gyXVtDSDJdW05IXUMoPU8pTjJbQ0gyXVtDSDJdTihbQ0hdKFtDSDNdKVtDSDNdKVtDSDJdW0NIMl0y

> <s_epik_cmdline>
J2VwaWtfcHl0aG9uJywgJy1waCcsICc3LjAnLCAnLXRuJywgJzgnLCAnLW1hJywgJzIwMCcsICctbWV0YWxfYmluZGluZycsICctaW1hZScsICc8aW5maWxlLm1hZT4nLCAnLW9tYWUnLCAnPG91dGZpbGUubWFlPic=

> <r_epik_Ionization_Penalty>
0.155723

> <r_epik_Ionization_Penalty_Charging>
0.153999

> <r_epik_Ionization_Penalty_Neutral>
0.00172372

> <r_epik_State_Penalty>
0.139716

> <r_epik_Charging_Adjusted_Penalty>
0.293715

> <i_epik_Tot_Q>
1

> <i_epik_Tot_abs_Q>
1

> <r_epik_Metal_State_Penalty>
0.138566

> <b_epik_Metal_Only>
0

> <s_lp_Force_Field>
OPLS_2005

> <r_lp_Energy>
45.5874

> <b_lp_Chiralities_Consistent>
1

> <s_lp_Variant>
AV-unprocessed.smi:3006-1

> <Gold.Version>
5.8.1

> <Gold.Id.Protein>
6NUR|6NUR_protein|mol2

> <Gold.PLP.Fitness>
44.2654

> <Gold.PLP.PLP>
-35.6399

> <Gold.PLP.part.hbond>
-1.0000

> <Gold.PLP.part.metal>
0.0000

> <Gold.PLP.part.buried>
0.8381

> <Gold.PLP.part.nonpolar>
-34.7229

> <Gold.PLP.part.repulsive>
0.0935

> <Gold.PLP.ligand.clash>
0.0000

> <Gold.PLP.ligand.torsion>
0.4011

> <Gold.PLP.Chemscore.Hbond>
2.0000

> <Gold.PLP.Chemscore.CHOScore>
1.1044

> <Gold.PLP.Chemscore.Metal>
0.0000

> <Gold.Chemscore.Hbonds>
donor molecule, donor type, donor heavy atom, donor atom, acceptor molecule, acceptor atom, score
      L1  H    13    45       P1 10186  2.00
      L1  C    19    44       P1  7948  0.79
      L1  C    19    44       P1  7949  0.33

> <Gold.PLP.Chemscore.Internal.Correction>
0.1145

> <Gold.Rescore>
     Score         DG    S(hbond)    S(metal)    S(lipo)     H(rot)  DE(clash)    DE(int)     intcor
     15.52     -17.03       0.99        0.00     101.65       1.42       1.23       0.28       ----

> <Gold.Chemscore.Fitness>
15.5181

> <Gold.Chemscore.DG>
-17.0285

> <Gold.Chemscore.ZeroCoef>
-5.4800

> <Gold.Chemscore.Hbond>
0.9874

> <Gold.Chemscore.Metal>
0.0000

> <Gold.Chemscore.Lipo>
101.6538

> <Gold.Chemscore.Internal_Hbond>
0.0000

> <Gold.Chemscore.DEClash>
1.2279

> <Gold.Chemscore.DEInternal>
0.2825

> <Gold.Chemscore.Rot>
1.4230

> <Gold.Chemscore.Internal.Correction>
   9.000000E+99

> <Gold.Chemscore.Hbonds>
donor molecule, donor type, donor heavy atom, donor atom, acceptor molecule, acceptor atom, score
      L1  H    13    45       P1 10186  0.65

> <Gold.Chemscore.Hbond.Weighted>
-3.2980

> <Gold.Chemscore.Metal.Weighted>
-0.0000

> <Gold.Chemscore.Lipo.Weighted>
-11.8935

> <Gold.Chemscore.Internal_Hbond.Weighted>
0.0000

> <Gold.Chemscore.DEClash.Weighted>
1.2279

> <Gold.Chemscore.DEInternal.Weighted>
0.2825

> <Gold.Chemscore.Rot.Weighted>
3.6430

> <Gold.Chemscore.Internal.Correction.Weighted>
   9.000000E+99

> <Gold.Protein.RotatedTorsions>
[ 6907 6896 6895 6894 ] final -163.28 input  -60.11 | X-H torsion
[ 7974 7965 7964 7962 ] final  135.33 input  175.53 | X-H torsion
[ 8008 7997 7996 7995 ] final   28.98 input   59.86 | X-H torsion
[ 10167 10162 10161 10158 ] final -177.39 input  -65.29 | X-H torsion
[ 10718 10713 10712 10709 ] final   21.76 input   66.30 | X-H torsion
[ 10763 10752 10751 10750 ] final -151.54 input  -60.55 | X-H torsion
[ 11005 11000 10999 10996 ] final -115.07 input  -57.11 | X-H torsion

> <Gold.Protein.ActiveResidues>
 VAL166  LYS551  ARG553  GLY616  TRP617  ASP618  TYR619  PRO620  LYS621  CYS622 
 ASP623  PHE694  ASN695  SER759  ASP760  ASP761  ALA762  ILE779  LEU786  VAL792 
 PHE793  MET794  SER795  GLU796  ALA797  LYS798  CYS799  TRP800  GLU811  SER814 

> <Gold.Protein.RotatedAtoms>
  151.3936  133.3781  159.2723 H   0  0  0  0  0  0  0  0  0  0  0  0  # atno 6907 bound_to 6896
  150.9486  134.8890  159.7668 H   0  0  0  0  0  0  0  0  0  0  0  0  # atno 6908 bound_to 6896
  152.5102  134.3890  159.9429 H   0  0  0  0  0  0  0  0  0  0  0  0  # atno 6909 bound_to 6896
  144.9674  139.4643  143.5449 H   0  0  0  0  0  0  0  0  0  0  0  0  # atno 7974 bound_to 7965
  155.0673  140.3196  155.4641 H   0  0  0  0  0  0  0  0  0  0  0  0  # atno 8008 bound_to 7997
  156.2799  140.2118  156.5745 H   0  0  0  0  0  0  0  0  0  0  0  0  # atno 8009 bound_to 7997
  154.7083  140.0500  157.0513 H   0  0  0  0  0  0  0  0  0  0  0  0  # atno 8010 bound_to 7997
  139.5482  144.2178  152.1028 H   0  0  0  0  0  0  0  0  0  0  0  0  # atno 10167 bound_to 10162
  157.1429  130.6640  149.5987 H   0  0  0  0  0  0  0  0  0  0  0  0  # atno 10718 bound_to 10713
  154.8051  135.3257  154.7451 H   0  0  0  0  0  0  0  0  0  0  0  0  # atno 10763 bound_to 10752
  153.8111  135.6895  153.4845 H   0  0  0  0  0  0  0  0  0  0  0  0  # atno 10764 bound_to 10752
  153.1792  135.4593  154.9949 H   0  0  0  0  0  0  0  0  0  0  0  0  # atno 10765 bound_to 10752
  141.0511  133.9685  157.2834 H   0  0  0  0  0  0  0  0  0  0  0  0  # atno 11005 bound_to 11000
  146.3372  139.8864  142.8816 LP  0  0  0  0  0  0  0  0  0  0  0  0  # atno 17320 bound_to 7965
  145.2609  141.0076  143.3827 LP  0  0  0  0  0  0  0  0  0  0  0  0  # atno 17321 bound_to 7965
  140.1669  144.4973  150.6601 LP  0  0  0  0  0  0  0  0  0  0  0  0  # atno 17342 bound_to 10162
  140.6737  143.2296  151.5560 LP  0  0  0  0  0  0  0  0  0  0  0  0  # atno 17343 bound_to 10162
  155.9785  130.4771  150.6660 LP  0  0  0  0  0  0  0  0  0  0  0  0  # atno 17370 bound_to 10713
  157.4291  131.0847  151.1056 LP  0  0  0  0  0  0  0  0  0  0  0  0  # atno 17371 bound_to 10713
  139.9351  135.0197  156.8531 LP  0  0  0  0  0  0  0  0  0  0  0  0  # atno 17394 bound_to 11000
  140.6052  134.0134  155.7554 LP  0  0  0  0  0  0  0  0  0  0  0  0  # atno 17395 bound_to 11000

$$$$
