AV-unprocessed.smi:3155|AV-procd|sdf|12028|dock1
  -GOLD-   2272017443D 1   1.00000     0.00000
 Structure written by MMmdl.
 37 38  0  0  0  0  0  0  0  0  1 V2000
  148.3741  141.5851  153.9784 C   0  0  0  0  0  0  0  0  0  0  0  0
  148.1807  141.2159  155.4562 C   0  0  1  0  0  0  0  0  0  0  0  0
  148.4567  139.7103  155.6800 C   0  0  0  0  0  0  0  0  0  0  0  0
  149.7818  139.2901  155.2584 N   0  0  0  0  0  0  0  0  0  0  0  0
  150.1220  138.3834  154.2759 C   0  0  0  0  0  0  0  0  0  0  0  0
  151.4853  138.3244  154.2309 C   0  0  0  0  0  0  0  0  0  0  0  0
  151.8967  139.2546  155.2255 C   0  0  0  0  0  0  0  0  0  0  0  0
  150.8753  139.8376  155.8315 N   0  0  0  0  0  0  0  0  0  0  0  0
  149.1037  142.0487  156.2234 N   0  0  0  0  0  0  0  0  0  0  0  0
  149.3062  141.5610  157.5938 C   0  0  0  0  0  0  0  0  0  0  0  0
  149.3991  142.7173  158.5952 C   0  0  0  0  0  0  0  0  0  0  0  0
  148.4378  142.9368  159.3325 O   0  0  0  0  0  0  0  0  0  0  0  0
  150.5272  143.4576  158.6424 N   0  0  0  0  0  0  0  0  0  0  0  0
  150.7867  144.5716  159.5534 C   0  0  0  0  0  0  0  0  0  0  0  0
  152.2704  144.9015  159.3936 C   0  0  0  0  0  0  0  0  0  0  0  0
  152.6087  144.4223  157.9891 C   0  0  0  0  0  0  0  0  0  0  0  0
  151.6752  143.2321  157.7661 C   0  0  0  0  0  0  0  0  0  0  0  0
  147.6922  141.0198  153.3423 H   0  0  0  0  0  0  0  0  0  0  0  0
  149.3903  141.3741  153.6425 H   0  0  0  0  0  0  0  0  0  0  0  0
  148.1775  142.6437  153.8049 H   0  0  0  0  0  0  0  0  0  0  0  0
  147.1472  141.4538  155.7133 H   0  0  0  0  0  0  0  0  0  0  0  0
  148.3743  139.4762  156.7420 H   0  0  0  0  0  0  0  0  0  0  0  0
  147.7027  139.1035  155.1749 H   0  0  0  0  0  0  0  0  0  0  0  0
  149.3736  137.8573  153.7019 H   0  0  0  0  0  0  0  0  0  0  0  0
  152.0962  137.7126  153.5839 H   0  0  0  0  0  0  0  0  0  0  0  0
  152.8999  139.5239  155.5218 H   0  0  0  0  0  0  0  0  0  0  0  0
  148.7447  142.9929  156.2373 H   0  0  0  0  0  0  0  0  0  0  0  0
  148.4679  140.9229  157.8773 H   0  0  0  0  0  0  0  0  0  0  0  0
  150.2003  140.9447  157.6631 H   0  0  0  0  0  0  0  0  0  0  0  0
  150.1740  145.4244  159.2577 H   0  0  0  0  0  0  0  0  0  0  0  0
  150.5536  144.3232  160.5893 H   0  0  0  0  0  0  0  0  0  0  0  0
  152.4869  145.9593  159.5457 H   0  0  0  0  0  0  0  0  0  0  0  0
  152.8508  144.3336  160.1222 H   0  0  0  0  0  0  0  0  0  0  0  0
  152.3764  145.2094  157.2706 H   0  0  0  0  0  0  0  0  0  0  0  0
  153.6612  144.1627  157.8722 H   0  0  0  0  0  0  0  0  0  0  0  0
  152.1650  142.3013  158.0554 H   0  0  0  0  0  0  0  0  0  0  0  0
  151.3819  143.1500  156.7183 H   0  0  0  0  0  0  0  0  0  0  0  0
  1  2  1  0  0  0  0
  1 18  1  0  0  0  0
  1 19  1  0  0  0  0
  1 20  1  0  0  0  0
  2  3  1  0  0  0  0
  2  9  1  0  0  0  0
  2 21  1  0  0  0  0
  3  4  1  0  0  0  0
  3 22  1  0  0  0  0
  3 23  1  0  0  0  0
  4  8  1  0  0  0  0
  4  5  1  0  0  0  0
  5  6  2  0  0  0  0
  5 24  1  0  0  0  0
  6  7  1  0  0  0  0
  6 25  1  0  0  0  0
  7  8  2  0  0  0  0
  7 26  1  0  0  0  0
  9 10  1  0  0  0  0
  9 27  1  0  0  0  0
 10 11  1  0  0  0  0
 10 28  1  0  0  0  0
 10 29  1  0  0  0  0
 11 12  2  0  0  0  0
 11 13  1  0  0  0  0
 13 17  1  0  0  0  0
 13 14  1  0  0  0  0
 14 15  1  0  0  0  0
 14 30  1  0  0  0  0
 14 31  1  0  0  0  0
 15 16  1  0  0  0  0
 15 32  1  0  0  0  0
 15 33  1  0  0  0  0
 16 17  1  0  0  0  0
 16 34  1  0  0  0  0
 16 35  1  0  0  0  0
 17 36  1  0  0  0  0
 17 37  1  0  0  0  0
M  END
> <s_m_source_file>
AV-unprocessed.smi

> <i_m_source_file_index>
3155

> <i_lp_mmshare_version>
43012

> <i_f3d_flags>
0

> <s_epik_input>
bjFbY0hdW2NIXVtjSF1uMVtDSDJdW0NAQEhdKFtDSDNdKVtOSF1bQ0gyXUMoPU8pTjJbQ0gyXVtDSDJdW0NIMl1bQ0gyXTI=

> <s_epik_cmdline>
J2VwaWtfcHl0aG9uJywgJy1waCcsICc3LjAnLCAnLXRuJywgJzgnLCAnLW1hJywgJzIwMCcsICctbWV0YWxfYmluZGluZycsICctaW1hZScsICc8aW5maWxlLm1hZT4nLCAnLW9tYWUnLCAnPG91dGZpbGUubWFlPic=

> <r_lp_tautomer_probability>
1

> <r_epik_Ionization_Penalty>
1.00455

> <r_epik_Ionization_Penalty_Charging>
0

> <r_epik_Ionization_Penalty_Neutral>
1.00455

> <r_epik_State_Penalty>
1.05336

> <r_epik_Charging_Adjusted_Penalty>
1.05336

> <i_epik_Tot_Q>
0

> <i_epik_Tot_abs_Q>
0

> <r_epik_Metal_State_Penalty>
1.05331

> <b_epik_Metal_Only>
0

> <s_lp_Force_Field>
OPLS_2005

> <r_lp_Energy>
30.9369

> <b_lp_Chiralities_Consistent>
1

> <s_lp_Variant>
AV-unprocessed.smi:3155-4

> <Gold.Version>
5.8.1

> <Gold.Id.Protein>
6NUR|6NUR_protein|mol2

> <Gold.PLP.Fitness>
42.2962

> <Gold.PLP.PLP>
-37.1051

> <Gold.PLP.part.hbond>
-2.0000

> <Gold.PLP.part.metal>
0.0000

> <Gold.PLP.part.buried>
-5.3707

> <Gold.PLP.part.nonpolar>
-30.6425

> <Gold.PLP.part.repulsive>
0.1299

> <Gold.PLP.ligand.clash>
0.0000

> <Gold.PLP.ligand.torsion>
0.5896

> <Gold.PLP.Chemscore.Hbond>
1.1757

> <Gold.PLP.Chemscore.CHOScore>
0.9197

> <Gold.PLP.Chemscore.Metal>
0.0000

> <Gold.Chemscore.Hbonds>
donor molecule, donor type, donor heavy atom, donor atom, acceptor molecule, acceptor atom, score
      L1  H     9    27       P1  8028  0.98
      P1  H  6933  6944       L1    12  0.30
      L1  C     5    24       P1  7948  1.00

> <Gold.PLP.Chemscore.Internal.Correction>
0.0842

> <Gold.Rescore>
     Score         DG    S(hbond)    S(metal)    S(lipo)     H(rot)  DE(clash)    DE(int)     intcor
     14.18     -16.00       1.24        0.00      93.12       1.77       0.07       1.75       ----

> <Gold.Chemscore.Fitness>
14.1756

> <Gold.Chemscore.DG>
-15.9973

> <Gold.Chemscore.ZeroCoef>
-5.4800

> <Gold.Chemscore.Hbond>
1.2429

> <Gold.Chemscore.Metal>
0.0000

> <Gold.Chemscore.Lipo>
93.1220

> <Gold.Chemscore.Internal_Hbond>
0.0000

> <Gold.Chemscore.DEClash>
0.0699

> <Gold.Chemscore.DEInternal>
1.7518

> <Gold.Chemscore.Rot>
1.7693

> <Gold.Chemscore.Internal.Correction>
   9.000000E+99

> <Gold.Chemscore.Hbonds>
donor molecule, donor type, donor heavy atom, donor atom, acceptor molecule, acceptor atom, score
      L1  H     9    27       P1  8028  0.92
      P1  H  6933  6944       L1    12  0.30

> <Gold.Chemscore.Hbond.Weighted>
-4.1514

> <Gold.Chemscore.Metal.Weighted>
-0.0000

> <Gold.Chemscore.Lipo.Weighted>
-10.8953

> <Gold.Chemscore.Internal_Hbond.Weighted>
0.0000

> <Gold.Chemscore.DEClash.Weighted>
0.0699

> <Gold.Chemscore.DEInternal.Weighted>
1.7518

> <Gold.Chemscore.Rot.Weighted>
4.5294

> <Gold.Chemscore.Internal.Correction.Weighted>
   9.000000E+99

> <Gold.Protein.RotatedTorsions>
[ 6907 6896 6895 6894 ] final  -67.43 input  -60.11 | X-H torsion
[ 7974 7965 7964 7962 ] final  -66.98 input  175.53 | X-H torsion
[ 8008 7997 7996 7995 ] final  -19.08 input   59.86 | X-H torsion
[ 10167 10162 10161 10158 ] final  134.75 input  -65.29 | X-H torsion
[ 10718 10713 10712 10709 ] final   95.24 input   66.30 | X-H torsion
[ 10763 10752 10751 10750 ] final   71.19 input  -60.55 | X-H torsion
[ 11005 11000 10999 10996 ] final -175.75 input  -57.11 | X-H torsion

> <Gold.Protein.ActiveResidues>
 VAL166  LYS551  ARG553  GLY616  TRP617  ASP618  TYR619  PRO620  LYS621  CYS622 
 ASP623  PHE694  ASN695  SER759  ASP760  ASP761  ALA762  ILE779  LEU786  VAL792 
 PHE793  MET794  SER795  GLU796  ALA797  LYS798  CYS799  TRP800  GLU811  SER814 

> <Gold.Protein.RotatedAtoms>
  150.7410  134.5881  159.5973 H   0  0  0  0  0  0  0  0  0  0  0  0  # atno 6907 bound_to 6896
  152.3277  134.7297  160.0307 H   0  0  0  0  0  0  0  0  0  0  0  0  # atno 6908 bound_to 6896
  151.7792  133.3312  159.3503 H   0  0  0  0  0  0  0  0  0  0  0  0  # atno 6909 bound_to 6896
  145.7349  140.8980  143.0560 H   0  0  0  0  0  0  0  0  0  0  0  0  # atno 7974 bound_to 7965
  154.4861  140.2098  155.9651 H   0  0  0  0  0  0  0  0  0  0  0  0  # atno 8008 bound_to 7997
  156.1238  140.3209  155.8217 H   0  0  0  0  0  0  0  0  0  0  0  0  # atno 8009 bound_to 7997
  155.4419  140.0511  157.3000 H   0  0  0  0  0  0  0  0  0  0  0  0  # atno 8010 bound_to 7997
  139.5244  144.6552  151.5185 H   0  0  0  0  0  0  0  0  0  0  0  0  # atno 10167 bound_to 10162
  157.6940  131.0539  150.4309 H   0  0  0  0  0  0  0  0  0  0  0  0  # atno 10718 bound_to 10713
  153.0385  135.5146  154.7556 H   0  0  0  0  0  0  0  0  0  0  0  0  # atno 10763 bound_to 10752
  154.6513  135.2925  154.9986 H   0  0  0  0  0  0  0  0  0  0  0  0  # atno 10764 bound_to 10752
  154.0869  135.6656  153.4899 H   0  0  0  0  0  0  0  0  0  0  0  0  # atno 10765 bound_to 10752
  140.4598  134.6265  157.4838 H   0  0  0  0  0  0  0  0  0  0  0  0  # atno 11005 bound_to 11000
  144.6884  139.9382  143.7474 LP  0  0  0  0  0  0  0  0  0  0  0  0  # atno 17320 bound_to 7965
  146.0502  139.3504  143.0644 LP  0  0  0  0  0  0  0  0  0  0  0  0  # atno 17321 bound_to 7965
  140.6374  143.8957  150.6660 LP  0  0  0  0  0  0  0  0  0  0  0  0  # atno 17342 bound_to 10162
  140.2281  143.3757  152.1588 LP  0  0  0  0  0  0  0  0  0  0  0  0  # atno 17343 bound_to 10162
  156.4675  130.4045  149.6538 LP  0  0  0  0  0  0  0  0  0  0  0  0  # atno 17370 bound_to 10713
  156.3630  130.7491  151.2466 LP  0  0  0  0  0  0  0  0  0  0  0  0  # atno 17371 bound_to 10713
  139.9952  134.6922  155.9621 LP  0  0  0  0  0  0  0  0  0  0  0  0  # atno 17394 bound_to 11000
  141.1626  133.6538  156.4371 LP  0  0  0  0  0  0  0  0  0  0  0  0  # atno 17395 bound_to 11000

$$$$
