AV-unprocessed.smi:3348|AV-procd|sdf|12923|dock4
  -GOLD-   2272019343D 1   1.00000     0.00000
 Structure written by MMmdl.
 46 47  0  0  0  0  0  0  0  0  1 V2000
  151.6478  139.2815  156.7916 C   0  0  0  0  0  0  0  0  0  0  0  0
  151.7569  139.0277  158.3017 C   0  0  2  0  0  0  0  0  0  0  0  0
  153.0225  139.7250  158.8656 C   0  0  0  0  0  0  0  0  0  0  0  0
  152.9323  141.1727  158.9629 N   0  0  0  0  0  0  0  0  0  0  0  0
  153.1330  141.9650  160.0745 C   0  0  0  0  0  0  0  0  0  0  0  0
  152.9679  143.2633  159.6863 C   0  0  0  0  0  0  0  0  0  0  0  0
  152.6872  143.1659  158.2950 C   0  0  0  0  0  0  0  0  0  0  0  0
  152.6792  141.9153  157.8625 N   0  0  0  0  0  0  0  0  0  0  0  0
  151.7492  137.5777  158.5332 N   0  0  0  0  0  0  0  0  0  0  0  0
  150.6761  136.8298  157.8805 C   0  0  0  0  0  0  0  0  0  0  0  0
  149.4167  136.7843  158.7618 C   0  0  0  0  0  0  0  0  0  0  0  0
  149.0442  135.4537  159.1040 O   0  0  0  0  0  0  0  0  0  0  0  0
  148.0115  135.3392  160.0778 C   0  0  2  0  0  0  0  0  0  0  0  0
  148.4109  136.2163  161.2787 C   0  0  0  0  0  0  0  0  0  0  0  0
  147.3989  136.0879  162.4251 C   0  0  0  0  0  0  0  0  0  0  0  0
  147.2408  134.6207  162.8514 C   0  0  0  0  0  0  0  0  0  0  0  0
  146.8542  133.7324  161.6580 C   0  0  0  0  0  0  0  0  0  0  0  0
  147.8605  133.8595  160.4954 C   0  0  1  0  0  0  0  0  0  0  0  0
  147.4405  132.9713  159.3132 C   0  0  0  0  0  0  0  0  0  0  0  0
  151.5931  140.3488  156.5751 H   0  0  0  0  0  0  0  0  0  0  0  0
  150.7500  138.8203  156.3786 H   0  0  0  0  0  0  0  0  0  0  0  0
  152.5080  138.8774  156.2562 H   0  0  0  0  0  0  0  0  0  0  0  0
  150.8677  139.4687  158.7537 H   0  0  0  0  0  0  0  0  0  0  0  0
  153.2708  139.3201  159.8476 H   0  0  0  0  0  0  0  0  0  0  0  0
  153.8778  139.5092  158.2241 H   0  0  0  0  0  0  0  0  0  0  0  0
  153.3687  141.5432  161.0403 H   0  0  0  0  0  0  0  0  0  0  0  0
  153.0429  144.1478  160.3012 H   0  0  0  0  0  0  0  0  0  0  0  0
  152.4952  143.9613  157.5901 H   0  0  0  0  0  0  0  0  0  0  0  0
  152.6447  137.1861  158.2596 H   0  0  0  0  0  0  0  0  0  0  0  0
  150.4341  137.2467  156.9070 H   0  0  0  0  0  0  0  0  0  0  0  0
  151.0104  135.8075  157.7005 H   0  0  0  0  0  0  0  0  0  0  0  0
  149.5734  137.3618  159.6739 H   0  0  0  0  0  0  0  0  0  0  0  0
  148.5817  137.2560  158.2428 H   0  0  0  0  0  0  0  0  0  0  0  0
  147.0518  135.6866  159.6899 H   0  0  0  0  0  0  0  0  0  0  0  0
  149.4000  135.9236  161.6338 H   0  0  0  0  0  0  0  0  0  0  0  0
  148.4940  137.2587  160.9719 H   0  0  0  0  0  0  0  0  0  0  0  0
  147.7202  136.6910  163.2744 H   0  0  0  0  0  0  0  0  0  0  0  0
  146.4342  136.4863  162.1084 H   0  0  0  0  0  0  0  0  0  0  0  0
  148.1757  134.2633  163.2846 H   0  0  0  0  0  0  0  0  0  0  0  0
  146.4864  134.5407  163.6346 H   0  0  0  0  0  0  0  0  0  0  0  0
  146.7900  132.6936  161.9841 H   0  0  0  0  0  0  0  0  0  0  0  0
  145.8568  134.0074  161.3122 H   0  0  0  0  0  0  0  0  0  0  0  0
  148.8296  133.5047  160.8495 H   0  0  0  0  0  0  0  0  0  0  0  0
  146.4838  133.2897  158.8979 H   0  0  0  0  0  0  0  0  0  0  0  0
  147.3404  131.9298  159.6201 H   0  0  0  0  0  0  0  0  0  0  0  0
  148.1782  133.0040  158.5111 H   0  0  0  0  0  0  0  0  0  0  0  0
  1  2  1  0  0  0  0
  1 20  1  0  0  0  0
  1 21  1  0  0  0  0
  1 22  1  0  0  0  0
  2  3  1  0  0  0  0
  2  9  1  0  0  0  0
  2 23  1  0  0  0  0
  3  4  1  0  0  0  0
  3 24  1  0  0  0  0
  3 25  1  0  0  0  0
  4  8  1  0  0  0  0
  4  5  1  0  0  0  0
  5  6  2  0  0  0  0
  5 26  1  0  0  0  0
  6  7  1  0  0  0  0
  6 27  1  0  0  0  0
  7  8  2  0  0  0  0
  7 28  1  0  0  0  0
  9 10  1  0  0  0  0
  9 29  1  0  0  0  0
 10 11  1  0  0  0  0
 10 30  1  0  0  0  0
 10 31  1  0  0  0  0
 11 12  1  0  0  0  0
 11 32  1  0  0  0  0
 11 33  1  0  0  0  0
 12 13  1  0  0  0  0
 13 18  1  0  0  0  0
 13 14  1  0  0  0  0
 13 34  1  0  0  0  0
 14 15  1  0  0  0  0
 14 35  1  0  0  0  0
 14 36  1  0  0  0  0
 15 16  1  0  0  0  0
 15 37  1  0  0  0  0
 15 38  1  0  0  0  0
 16 17  1  0  0  0  0
 16 39  1  0  0  0  0
 16 40  1  0  0  0  0
 17 18  1  0  0  0  0
 17 41  1  0  0  0  0
 17 42  1  0  0  0  0
 18 19  1  0  0  0  0
 18 43  1  0  0  0  0
 19 44  1  0  0  0  0
 19 45  1  0  0  0  0
 19 46  1  0  0  0  0
M  END
> <s_m_source_file>
AV-unprocessed.smi

> <i_m_source_file_index>
3348

> <i_lp_mmshare_version>
43012

> <i_f3d_flags>
0

> <s_epik_input>
bjFbY0hdW2NIXVtjSF1uMVtDSDJdW0NAQEhdKFtDSDNdKVtOSF1bQ0gyXVtDSDJdT1tDQEBIXTJbQ0gyXVtDSDJdW0NIMl1bQ0gyXVtDQEhdMltDSDNd

> <s_epik_cmdline>
J2VwaWtfcHl0aG9uJywgJy1waCcsICc3LjAnLCAnLXRuJywgJzgnLCAnLW1hJywgJzIwMCcsICctbWV0YWxfYmluZGluZycsICctaW1hZScsICc8aW5maWxlLm1hZT4nLCAnLW9tYWUnLCAnPG91dGZpbGUubWFlPic=

> <r_lp_tautomer_probability>
1

> <r_epik_Ionization_Penalty>
2.46945

> <r_epik_Ionization_Penalty_Charging>
0

> <r_epik_Ionization_Penalty_Neutral>
2.46945

> <r_epik_State_Penalty>
2.6322

> <r_epik_Charging_Adjusted_Penalty>
2.6322

> <i_epik_Tot_Q>
0

> <i_epik_Tot_abs_Q>
0

> <r_epik_Metal_State_Penalty>
2.63217

> <b_epik_Metal_Only>
0

> <s_lp_Force_Field>
OPLS_2005

> <r_lp_Energy>
18.2161

> <b_lp_Chiralities_Consistent>
1

> <s_lp_Variant>
AV-unprocessed.smi:3348-9

> <Gold.Version>
5.8.1

> <Gold.Id.Protein>
6NUR|6NUR_protein|mol2

> <Gold.PLP.Fitness>
43.2404

> <Gold.PLP.PLP>
-41.5402

> <Gold.PLP.part.hbond>
-1.0000

> <Gold.PLP.part.metal>
0.0000

> <Gold.PLP.part.buried>
-3.4741

> <Gold.PLP.part.nonpolar>
-35.8347

> <Gold.PLP.part.repulsive>
0.0000

> <Gold.PLP.ligand.clash>
0.0000

> <Gold.PLP.ligand.torsion>
0.7457

> <Gold.PLP.Chemscore.Hbond>
1.0000

> <Gold.PLP.Chemscore.CHOScore>
0.0000

> <Gold.PLP.Chemscore.Metal>
0.0000

> <Gold.Chemscore.Hbonds>
donor molecule, donor type, donor heavy atom, donor atom, acceptor molecule, acceptor atom, score
      P1  H  6896  6908       L1    12  1.00

> <Gold.PLP.Chemscore.Internal.Correction>
0.1916

> <Gold.Rescore>
     Score         DG    S(hbond)    S(metal)    S(lipo)     H(rot)  DE(clash)    DE(int)     intcor
     16.14     -17.17       0.93        0.00     111.14       1.72       0.19       0.84       ----

> <Gold.Chemscore.Fitness>
16.1437

> <Gold.Chemscore.DG>
-17.1678

> <Gold.Chemscore.ZeroCoef>
-5.4800

> <Gold.Chemscore.Hbond>
0.9271

> <Gold.Chemscore.Metal>
0.0000

> <Gold.Chemscore.Lipo>
111.1434

> <Gold.Chemscore.Internal_Hbond>
0.0000

> <Gold.Chemscore.DEClash>
0.1889

> <Gold.Chemscore.DEInternal>
0.8352

> <Gold.Chemscore.Rot>
1.7237

> <Gold.Chemscore.Internal.Correction>
   9.000000E+99

> <Gold.Chemscore.Hbonds>
donor molecule, donor type, donor heavy atom, donor atom, acceptor molecule, acceptor atom, score
      P1  H  6896  6908       L1    12  0.45

> <Gold.Chemscore.Hbond.Weighted>
-3.0966

> <Gold.Chemscore.Metal.Weighted>
-0.0000

> <Gold.Chemscore.Lipo.Weighted>
-13.0038

> <Gold.Chemscore.Internal_Hbond.Weighted>
0.0000

> <Gold.Chemscore.DEClash.Weighted>
0.1889

> <Gold.Chemscore.DEInternal.Weighted>
0.8352

> <Gold.Chemscore.Rot.Weighted>
4.4126

> <Gold.Chemscore.Internal.Correction.Weighted>
   9.000000E+99

> <Gold.Protein.RotatedTorsions>
[ 6907 6896 6895 6894 ] final  170.53 input  -60.11 | X-H torsion
[ 7974 7965 7964 7962 ] final  -52.76 input  175.53 | X-H torsion
[ 8008 7997 7996 7995 ] final  -56.82 input   59.86 | X-H torsion
[ 10167 10162 10161 10158 ] final -106.68 input  -65.29 | X-H torsion
[ 10718 10713 10712 10709 ] final    1.74 input   66.30 | X-H torsion
[ 10763 10752 10751 10750 ] final   43.70 input  -60.55 | X-H torsion
[ 11005 11000 10999 10996 ] final  -46.70 input  -57.11 | X-H torsion

> <Gold.Protein.ActiveResidues>
 VAL166  LYS551  ARG553  GLY616  TRP617  ASP618  TYR619  PRO620  LYS621  CYS622 
 ASP623  PHE694  ASN695  SER759  ASP760  ASP761  ALA762  ILE779  LEU786  VAL792 
 PHE793  MET794  SER795  GLU796  ALA797  LYS798  CYS799  TRP800  GLU811  SER814 

> <Gold.Protein.RotatedAtoms>
  151.8146  133.3386  159.3565 H   0  0  0  0  0  0  0  0  0  0  0  0  # atno 6907 bound_to 6896
  150.7315  134.5632  159.5862 H   0  0  0  0  0  0  0  0  0  0  0  0  # atno 6908 bound_to 6896
  152.3050  134.7567  160.0400 H   0  0  0  0  0  0  0  0  0  0  0  0  # atno 6909 bound_to 6896
  145.9044  140.7967  142.9727 H   0  0  0  0  0  0  0  0  0  0  0  0  # atno 7974 bound_to 7965
  154.4244  140.1121  156.5699 H   0  0  0  0  0  0  0  0  0  0  0  0  # atno 8008 bound_to 7997
  155.6223  140.3495  155.4637 H   0  0  0  0  0  0  0  0  0  0  0  0  # atno 8009 bound_to 7997
  156.0014  140.1200  157.0533 H   0  0  0  0  0  0  0  0  0  0  0  0  # atno 8010 bound_to 7997
  140.1852  143.3935  152.1250 H   0  0  0  0  0  0  0  0  0  0  0  0  # atno 10167 bound_to 10162
  156.8527  130.5559  149.5668 H   0  0  0  0  0  0  0  0  0  0  0  0  # atno 10718 bound_to 10713
  152.9855  135.6093  154.3154 H   0  0  0  0  0  0  0  0  0  0  0  0  # atno 10763 bound_to 10752
  154.2867  135.2776  155.2675 H   0  0  0  0  0  0  0  0  0  0  0  0  # atno 10764 bound_to 10752
  154.4989  135.5872  153.6572 H   0  0  0  0  0  0  0  0  0  0  0  0  # atno 10765 bound_to 10752
  141.0595  133.6714  156.3192 H   0  0  0  0  0  0  0  0  0  0  0  0  # atno 11005 bound_to 11000
  144.6738  140.1727  143.7413 LP  0  0  0  0  0  0  0  0  0  0  0  0  # atno 17320 bound_to 7965
  145.8750  139.2292  143.1638 LP  0  0  0  0  0  0  0  0  0  0  0  0  # atno 17321 bound_to 7965
  139.5279  144.7125  151.5161 LP  0  0  0  0  0  0  0  0  0  0  0  0  # atno 17342 bound_to 10162
  140.6493  143.8729  150.6769 LP  0  0  0  0  0  0  0  0  0  0  0  0  # atno 17343 bound_to 10162
  156.0819  130.5827  150.9579 LP  0  0  0  0  0  0  0  0  0  0  0  0  # atno 17370 bound_to 10713
  157.6294  131.0922  150.8470 LP  0  0  0  0  0  0  0  0  0  0  0  0  # atno 17371 bound_to 10713
  140.5897  134.5663  157.5497 LP  0  0  0  0  0  0  0  0  0  0  0  0  # atno 17394 bound_to 11000
  139.9420  134.7770  156.0655 LP  0  0  0  0  0  0  0  0  0  0  0  0  # atno 17395 bound_to 11000

$$$$
