AV-unprocessed.smi:1684|AV-procd|sdf|6756|dock10
  -GOLD-   22720 7513D 1   1.00000     0.00000
 Structure written by MMmdl.
 43 44  0  0  0  0  0  0  0  0  2 V2000
  150.6507  145.1395  159.3635 C   0  0  0  0  0  0  0  0  0  0  0  0
  151.4617  143.9379  159.8217 C   0  0  0  0  0  0  0  0  0  0  0  0
  152.1911  144.0174  161.0272 C   0  0  0  0  0  0  0  0  0  0  0  0
  152.9428  142.9073  161.4487 C   0  0  0  0  0  0  0  0  0  0  0  0
  152.9338  141.7571  160.6415 C   0  0  0  0  0  0  0  0  0  0  0  0
  152.2397  141.6724  159.4881 N   0  0  0  0  0  0  0  0  0  0  0  0
  151.5061  142.7342  159.0685 C   0  0  0  0  0  0  0  0  0  0  0  0
  150.7508  142.7153  157.8616 N   0  0  0  0  0  0  0  0  0  0  0  0
  150.3465  141.6505  157.1470 C   0  0  0  0  0  0  0  0  0  0  0  0
  150.5313  140.4729  157.4554 O   0  0  0  0  0  0  0  0  0  0  0  0
  149.7191  142.0278  156.0224 N   0  0  0  0  0  0  0  0  0  0  0  0
  149.1541  141.1324  155.0110 C   0  0  1  0  0  0  0  0  0  0  0  0
  148.1772  141.9254  154.1322 C   0  0  0  0  0  0  0  0  0  0  0  0
  150.2620  140.4698  154.1588 C   0  0  0  0  0  0  0  0  0  0  0  0
  150.9986  139.4050  154.8862 N   0  3  0  0  0  0  0  0  0  0  0  0
  150.6336  138.0323  154.4601 C   0  0  0  0  0  0  0  0  0  0  0  0
  151.3710  136.9973  155.3257 C   0  0  0  0  0  0  0  0  0  0  0  0
  152.7745  137.2112  155.2303 O   0  0  0  0  0  0  0  0  0  0  0  0
  153.1520  138.4987  155.7034 C   0  0  0  0  0  0  0  0  0  0  0  0
  152.4686  139.5833  154.8529 C   0  0  0  0  0  0  0  0  0  0  0  0
  150.7573  145.9766  160.0540 H   0  0  0  0  0  0  0  0  0  0  0  0
  149.5918  144.8858  159.3047 H   0  0  0  0  0  0  0  0  0  0  0  0
  150.9834  145.4733  158.3800 H   0  0  0  0  0  0  0  0  0  0  0  0
  152.1775  144.9178  161.6239 H   0  0  0  0  0  0  0  0  0  0  0  0
  153.5111  142.9367  162.3666 H   0  0  0  0  0  0  0  0  0  0  0  0
  153.4986  140.8822  160.9274 H   0  0  0  0  0  0  0  0  0  0  0  0
  150.5105  143.6225  157.4903 H   0  0  0  0  0  0  0  0  0  0  0  0
  149.6114  143.0178  155.8545 H   0  0  0  0  0  0  0  0  0  0  0  0
  148.5712  140.3559  155.5082 H   0  0  0  0  0  0  0  0  0  0  0  0
  147.7110  141.2818  153.3855 H   0  0  0  0  0  0  0  0  0  0  0  0
  148.6823  142.7352  153.6045 H   0  0  0  0  0  0  0  0  0  0  0  0
  147.3782  142.3651  154.7301 H   0  0  0  0  0  0  0  0  0  0  0  0
  149.8483  140.0619  153.2352 H   0  0  0  0  0  0  0  0  0  0  0  0
  150.9655  141.2475  153.8569 H   0  0  0  0  0  0  0  0  0  0  0  0
  149.5585  137.8788  154.5490 H   0  0  0  0  0  0  0  0  0  0  0  0
  150.8904  137.8915  153.4090 H   0  0  0  0  0  0  0  0  0  0  0  0
  151.0503  137.0605  156.3668 H   0  0  0  0  0  0  0  0  0  0  0  0
  151.1427  135.9884  154.9823 H   0  0  0  0  0  0  0  0  0  0  0  0
  152.8850  138.6046  156.7562 H   0  0  0  0  0  0  0  0  0  0  0  0
  154.2357  138.5966  155.6382 H   0  0  0  0  0  0  0  0  0  0  0  0
  152.8217  139.5332  153.8216 H   0  0  0  0  0  0  0  0  0  0  0  0
  152.7330  140.5689  155.2378 H   0  0  0  0  0  0  0  0  0  0  0  0
  150.7287  139.4886  155.8563 H   0  0  0  0  0  0  0  0  0  0  0  0
  1  2  1  0  0  0  0
  1 21  1  0  0  0  0
  1 22  1  0  0  0  0
  1 23  1  0  0  0  0
  2  7  1  0  0  0  0
  2  3  2  0  0  0  0
  3  4  1  0  0  0  0
  3 24  1  0  0  0  0
  4  5  2  0  0  0  0
  4 25  1  0  0  0  0
  5  6  1  0  0  0  0
  5 26  1  0  0  0  0
  6  7  2  0  0  0  0
  7  8  1  0  0  0  0
  8  9  1  0  0  0  0
  8 27  1  0  0  0  0
  9 10  2  0  0  0  0
  9 11  1  0  0  0  0
 11 12  1  0  0  0  0
 11 28  1  0  0  0  0
 12 13  1  0  0  0  0
 12 14  1  0  0  0  0
 12 29  1  0  0  0  0
 13 30  1  0  0  0  0
 13 31  1  0  0  0  0
 13 32  1  0  0  0  0
 14 15  1  0  0  0  0
 14 33  1  0  0  0  0
 14 34  1  0  0  0  0
 15 20  1  0  0  0  0
 15 16  1  0  0  0  0
 15 43  1  0  0  0  0
 16 17  1  0  0  0  0
 16 35  1  0  0  0  0
 16 36  1  0  0  0  0
 17 18  1  0  0  0  0
 17 37  1  0  0  0  0
 17 38  1  0  0  0  0
 18 19  1  0  0  0  0
 19 20  1  0  0  0  0
 19 39  1  0  0  0  0
 19 40  1  0  0  0  0
 20 41  1  0  0  0  0
 20 42  1  0  0  0  0
M  CHG  1  15   1
M  END
> <s_m_source_file>
AV-unprocessed.smi

> <i_m_source_file_index>
1684

> <i_lp_mmshare_version>
43012

> <i_f3d_flags>
0

> <s_epik_input>
W0NIM11jMVtjSF1bY0hdW2NIXW5jMVtOSF1DKD1PKVtOSF1bQ0BIXShbQ0gzXSlbQ0gyXU4yW0NIMl1bQ0gyXU9bQ0gyXVtDSDJdMg==

> <s_epik_cmdline>
J2VwaWtfcHl0aG9uJywgJy1waCcsICc3LjAnLCAnLXRuJywgJzgnLCAnLW1hJywgJzIwMCcsICctbWV0YWxfYmluZGluZycsICctaW1hZScsICc8aW5maWxlLm1hZT4nLCAnLW9tYWUnLCAnPG91dGZpbGUubWFlPic=

> <r_epik_Ionization_Penalty>
0.602571

> <r_epik_Ionization_Penalty_Charging>
0.602531

> <r_epik_Ionization_Penalty_Neutral>
4.09763e-05

> <r_epik_State_Penalty>
0.617039

> <r_epik_Charging_Adjusted_Penalty>
1.21957

> <i_epik_Tot_Q>
1

> <i_epik_Tot_abs_Q>
1

> <r_epik_Metal_State_Penalty>
0.617043

> <b_epik_Metal_Only>
0

> <s_lp_Force_Field>
OPLS_2005

> <r_lp_Energy>
24.8229

> <b_lp_Chiralities_Consistent>
1

> <s_lp_Variant>
AV-unprocessed.smi:1684-4

> <Gold.Version>
5.8.1

> <Gold.Id.Protein>
6NUR|6NUR_protein|mol2

> <Gold.PLP.Fitness>
43.1691

> <Gold.PLP.PLP>
-39.2710

> <Gold.PLP.part.hbond>
-2.0000

> <Gold.PLP.part.metal>
0.0000

> <Gold.PLP.part.buried>
-3.7504

> <Gold.PLP.part.nonpolar>
-33.2057

> <Gold.PLP.part.repulsive>
0.2378

> <Gold.PLP.ligand.clash>
0.0000

> <Gold.PLP.ligand.torsion>
1.0609

> <Gold.PLP.Chemscore.Hbond>
1.9920

> <Gold.PLP.Chemscore.CHOScore>
0.0000

> <Gold.PLP.Chemscore.Metal>
0.0000

> <Gold.Chemscore.Hbonds>
donor molecule, donor type, donor heavy atom, donor atom, acceptor molecule, acceptor atom, score
      L1  H    11    28       P1  8028  1.00
      P1  H 10752 10763       L1    18  0.26

> <Gold.PLP.Chemscore.Internal.Correction>
0.0439

> <Gold.Rescore>
     Score         DG    S(hbond)    S(metal)    S(lipo)     H(rot)  DE(clash)    DE(int)     intcor
     17.35     -19.87       1.97        0.00      99.61       1.51       0.04       2.49       ----

> <Gold.Chemscore.Fitness>
17.3466

> <Gold.Chemscore.DG>
-19.8684

> <Gold.Chemscore.ZeroCoef>
-5.4800

> <Gold.Chemscore.Hbond>
1.9731

> <Gold.Chemscore.Metal>
0.0000

> <Gold.Chemscore.Lipo>
99.6068

> <Gold.Chemscore.Internal_Hbond>
0.0000

> <Gold.Chemscore.DEClash>
0.0351

> <Gold.Chemscore.DEInternal>
2.4868

> <Gold.Chemscore.Rot>
1.5061

> <Gold.Chemscore.Internal.Correction>
   9.000000E+99

> <Gold.Chemscore.Hbonds>
donor molecule, donor type, donor heavy atom, donor atom, acceptor molecule, acceptor atom, score
      L1  H    11    28       P1  8028  1.00
      P1  H 10752 10763       L1    18  0.02

> <Gold.Chemscore.Hbond.Weighted>
-6.5902

> <Gold.Chemscore.Metal.Weighted>
-0.0000

> <Gold.Chemscore.Lipo.Weighted>
-11.6540

> <Gold.Chemscore.Internal_Hbond.Weighted>
0.0000

> <Gold.Chemscore.DEClash.Weighted>
0.0351

> <Gold.Chemscore.DEInternal.Weighted>
2.4868

> <Gold.Chemscore.Rot.Weighted>
3.8557

> <Gold.Chemscore.Internal.Correction.Weighted>
   9.000000E+99

> <Gold.Protein.RotatedTorsions>
[ 6907 6896 6895 6894 ] final   13.53 input  -60.11 | X-H torsion
[ 7974 7965 7964 7962 ] final   49.89 input  175.53 | X-H torsion
[ 8008 7997 7996 7995 ] final  123.64 input   59.86 | X-H torsion
[ 10167 10162 10161 10158 ] final   61.64 input  -65.29 | X-H torsion
[ 10718 10713 10712 10709 ] final  -32.78 input   66.30 | X-H torsion
[ 10763 10752 10751 10750 ] final   73.29 input  -60.55 | X-H torsion
[ 11005 11000 10999 10996 ] final  -45.75 input  -57.11 | X-H torsion

> <Gold.Protein.ActiveResidues>
 VAL166  LYS551  ARG553  GLY616  TRP617  ASP618  TYR619  PRO620  LYS621  CYS622 
 ASP623  PHE694  ASN695  SER759  ASP760  ASP761  ALA762  ILE779  LEU786  VAL792 
 PHE793  MET794  SER795  GLU796  ALA797  LYS798  CYS799  TRP800  GLU811  SER814 

> <Gold.Protein.RotatedAtoms>
  151.7878  135.0744  160.0382 H   0  0  0  0  0  0  0  0  0  0  0  0  # atno 6907 bound_to 6896
  152.3178  133.5816  159.5732 H   0  0  0  0  0  0  0  0  0  0  0  0  # atno 6908 bound_to 6896
  150.7353  133.9973  159.3668 H   0  0  0  0  0  0  0  0  0  0  0  0  # atno 6909 bound_to 6896
  146.0065  139.4496  142.9983 H   0  0  0  0  0  0  0  0  0  0  0  0  # atno 7974 bound_to 7965
  156.2773  140.2758  156.1660 H   0  0  0  0  0  0  0  0  0  0  0  0  # atno 8008 bound_to 7997
  155.0704  140.0387  157.2624 H   0  0  0  0  0  0  0  0  0  0  0  0  # atno 8009 bound_to 7997
  154.7044  140.2656  155.6694 H   0  0  0  0  0  0  0  0  0  0  0  0  # atno 8010 bound_to 7997
  140.1526  144.4448  150.6751 H   0  0  0  0  0  0  0  0  0  0  0  0  # atno 10167 bound_to 10162
  156.3707  130.4339  149.7547 H   0  0  0  0  0  0  0  0  0  0  0  0  # atno 10718 bound_to 10713
  153.0512  135.5068  154.7871 H   0  0  0  0  0  0  0  0  0  0  0  0  # atno 10763 bound_to 10752
  154.6732  135.2956  154.9716 H   0  0  0  0  0  0  0  0  0  0  0  0  # atno 10764 bound_to 10752
  154.0527  135.6702  153.4855 H   0  0  0  0  0  0  0  0  0  0  0  0  # atno 10765 bound_to 10752
  141.0535  133.6734  156.3057 H   0  0  0  0  0  0  0  0  0  0  0  0  # atno 11005 bound_to 11000
  145.7408  141.0009  143.1302 LP  0  0  0  0  0  0  0  0  0  0  0  0  # atno 17320 bound_to 7965
  144.6937  139.9097  143.7463 LP  0  0  0  0  0  0  0  0  0  0  0  0  # atno 17321 bound_to 7965
  140.6693  143.2279  151.5665 LP  0  0  0  0  0  0  0  0  0  0  0  0  # atno 17342 bound_to 10162
  139.5419  144.2626  152.1366 LP  0  0  0  0  0  0  0  0  0  0  0  0  # atno 17343 bound_to 10162
  156.4675  130.7981  151.3000 LP  0  0  0  0  0  0  0  0  0  0  0  0  # atno 17370 bound_to 10713
  157.7483  131.0046  150.3082 LP  0  0  0  0  0  0  0  0  0  0  0  0  # atno 17371 bound_to 10713
  140.6009  134.5556  157.5517 LP  0  0  0  0  0  0  0  0  0  0  0  0  # atno 17394 bound_to 11000
  139.9370  134.7856  156.0776 LP  0  0  0  0  0  0  0  0  0  0  0  0  # atno 17395 bound_to 11000

$$$$
