AV-unprocessed.smi:335|AV-procd|sdf|2370|dock6
  -GOLD-   2262022283D 1   1.00000     0.00000
 Structure written by MMmdl.
 42 44  0  0  0  0  0  0  0  0  1 V2000
  146.2356  142.4663  153.6896 C   0  0  0  0  0  0  0  0  0  0  0  0
  147.2874  141.9704  154.4986 O   0  0  0  0  0  0  0  0  0  0  0  0
  148.1537  141.0999  153.7887 C   0  0  0  0  0  0  0  0  0  0  0  0
  149.4493  140.8967  154.5915 C   0  0  0  0  0  0  0  0  0  0  0  0
  149.7656  139.4748  154.7679 N   0  0  0  0  0  0  0  0  0  0  0  0
  148.6527  138.6528  154.8284 N   0  0  0  0  0  0  0  0  0  0  0  0
  148.7948  137.3729  154.9554 C   0  0  0  0  0  0  0  0  0  0  0  0
  147.6241  136.4550  155.0210 C   0  0  0  0  0  0  0  0  0  0  0  0
  146.9136  136.3793  156.0249 O   0  0  0  0  0  0  0  0  0  0  0  0
  147.4066  135.7235  153.9128 N   0  0  0  0  0  0  0  0  0  0  0  0
  146.3374  134.7486  153.7269 C   0  0  0  0  0  0  0  0  0  0  0  0
  146.8723  133.3630  153.4081 C   0  0  0  0  0  0  0  0  0  0  0  0
  148.3510  133.0582  153.4566 C   0  0  0  0  0  0  0  0  0  0  0  0
  147.6274  133.0881  152.1295 C   0  0  0  0  0  0  0  0  0  0  0  0
  145.3552  135.1947  152.6596 C   0  0  0  0  0  0  0  0  0  0  0  0
  144.7760  134.2092  151.6728 C   0  0  0  0  0  0  0  0  0  0  0  0
  145.7526  135.2647  151.2040 C   0  0  0  0  0  0  0  0  0  0  0  0
  150.1172  136.7764  155.0414 C   0  0  0  0  0  0  0  0  0  0  0  0
  151.1933  137.5917  154.9900 C   0  0  0  0  0  0  0  0  0  0  0  0
  151.0602  139.0422  154.8460 C   0  0  0  0  0  0  0  0  0  0  0  0
  152.0249  139.8048  154.7947 O   0  0  0  0  0  0  0  0  0  0  0  0
  145.6023  143.1304  154.2777 H   0  0  0  0  0  0  0  0  0  0  0  0
  145.6120  141.6544  153.3132 H   0  0  0  0  0  0  0  0  0  0  0  0
  146.6231  143.0331  152.8421 H   0  0  0  0  0  0  0  0  0  0  0  0
  147.6635  140.1437  153.5997 H   0  0  0  0  0  0  0  0  0  0  0  0
  148.3918  141.5369  152.8179 H   0  0  0  0  0  0  0  0  0  0  0  0
  150.2764  141.3999  154.0882 H   0  0  0  0  0  0  0  0  0  0  0  0
  149.3584  141.3904  155.5609 H   0  0  0  0  0  0  0  0  0  0  0  0
  148.0417  135.8504  153.1378 H   0  0  0  0  0  0  0  0  0  0  0  0
  145.7736  134.6755  154.6591 H   0  0  0  0  0  0  0  0  0  0  0  0
  146.2197  132.5612  153.7491 H   0  0  0  0  0  0  0  0  0  0  0  0
  149.0363  133.8765  153.6678 H   0  0  0  0  0  0  0  0  0  0  0  0
  148.6503  132.0872  153.8451 H   0  0  0  0  0  0  0  0  0  0  0  0
  147.4411  132.1378  151.6338 H   0  0  0  0  0  0  0  0  0  0  0  0
  147.8304  133.9276  151.4676 H   0  0  0  0  0  0  0  0  0  0  0  0
  144.6755  135.9753  152.9972 H   0  0  0  0  0  0  0  0  0  0  0  0
  145.1305  133.1811  151.7157 H   0  0  0  0  0  0  0  0  0  0  0  0
  143.7307  134.3310  151.3966 H   0  0  0  0  0  0  0  0  0  0  0  0
  145.3586  136.0909  150.6158 H   0  0  0  0  0  0  0  0  0  0  0  0
  146.7514  134.9317  150.9293 H   0  0  0  0  0  0  0  0  0  0  0  0
  150.2454  135.7090  155.1474 H   0  0  0  0  0  0  0  0  0  0  0  0
  152.1823  137.1622  155.0553 H   0  0  0  0  0  0  0  0  0  0  0  0
  1  2  1  0  0  0  0
  1 22  1  0  0  0  0
  1 23  1  0  0  0  0
  1 24  1  0  0  0  0
  2  3  1  0  0  0  0
  3  4  1  0  0  0  0
  3 25  1  0  0  0  0
  3 26  1  0  0  0  0
  4  5  1  0  0  0  0
  4 27  1  0  0  0  0
  4 28  1  0  0  0  0
  5 20  1  0  0  0  0
  5  6  1  0  0  0  0
  6  7  2  0  0  0  0
  7  8  1  0  0  0  0
  7 18  1  0  0  0  0
  8  9  2  0  0  0  0
  8 10  1  0  0  0  0
 10 11  1  0  0  0  0
 10 29  1  0  0  0  0
 11 12  1  0  0  0  0
 11 15  1  0  0  0  0
 11 30  1  0  0  0  0
 12 14  1  0  0  0  0
 12 13  1  0  0  0  0
 12 31  1  0  0  0  0
 13 14  1  0  0  0  0
 13 32  1  0  0  0  0
 13 33  1  0  0  0  0
 14 34  1  0  0  0  0
 14 35  1  0  0  0  0
 15 17  1  0  0  0  0
 15 16  1  0  0  0  0
 15 36  1  0  0  0  0
 16 17  1  0  0  0  0
 16 37  1  0  0  0  0
 16 38  1  0  0  0  0
 17 39  1  0  0  0  0
 17 40  1  0  0  0  0
 18 19  2  0  0  0  0
 18 41  1  0  0  0  0
 19 20  1  0  0  0  0
 19 42  1  0  0  0  0
 20 21  2  0  0  0  0
M  END
> <s_m_source_file>
AV-unprocessed.smi

> <i_m_source_file_index>
335

> <i_lp_mmshare_version>
43012

> <i_f3d_flags>
0

> <s_epik_input>
W0NIM11PW0NIMl1bQ0gyXW4xbmMoW2NIXVtjSF1jMT1PKUMoPU8pW05IXVtDSF0oW0NIXTJbQ0gyXVtDSDJdMilbQ0hdM1tDSDJdW0NIMl0z

> <s_epik_cmdline>
J2VwaWtfcHl0aG9uJywgJy1waCcsICc3LjAnLCAnLXRuJywgJzgnLCAnLW1hJywgJzIwMCcsICctbWV0YWxfYmluZGluZycsICctaW1hZScsICc8aW5maWxlLm1hZT4nLCAnLW9tYWUnLCAnPG91dGZpbGUubWFlPic=

> <r_lp_tautomer_probability>
1

> <r_epik_Ionization_Penalty>
5.73468e-07

> <r_epik_Ionization_Penalty_Charging>
6.67133e-09

> <r_epik_Ionization_Penalty_Neutral>
5.66797e-07

> <r_epik_State_Penalty>
-0

> <r_epik_Charging_Adjusted_Penalty>
6.67133e-09

> <i_epik_Tot_Q>
0

> <i_epik_Tot_abs_Q>
0

> <r_epik_Metal_State_Penalty>
-0

> <b_epik_Metal_Only>
0

> <s_lp_Force_Field>
OPLS_2005

> <r_lp_Energy>
44.174

> <b_lp_Chiralities_Consistent>
1

> <s_lp_Variant>
AV-unprocessed.smi:335-1

> <Gold.Version>
5.8.1

> <Gold.Id.Protein>
6NUR|6NUR_protein|mol2

> <Gold.PLP.Fitness>
36.6089

> <Gold.PLP.PLP>
-35.7353

> <Gold.PLP.part.hbond>
-2.0000

> <Gold.PLP.part.metal>
0.0000

> <Gold.PLP.part.buried>
-4.7039

> <Gold.PLP.part.nonpolar>
-30.2051

> <Gold.PLP.part.repulsive>
0.3377

> <Gold.PLP.ligand.clash>
0.0000

> <Gold.PLP.ligand.torsion>
3.5214

> <Gold.PLP.Chemscore.Hbond>
1.8800

> <Gold.PLP.Chemscore.CHOScore>
0.0000

> <Gold.PLP.Chemscore.Metal>
0.0000

> <Gold.Chemscore.Hbonds>
donor molecule, donor type, donor heavy atom, donor atom, acceptor molecule, acceptor atom, score
      L1  H    10    29       P1  7948  1.00
      P1  H  7989  7998       L1    21  0.86

> <Gold.PLP.Chemscore.Internal.Correction>
2.2765

> <Gold.Rescore>
     Score         DG    S(hbond)    S(metal)    S(lipo)     H(rot)  DE(clash)    DE(int)     intcor
     11.28     -14.66       1.80        0.00      67.37       1.85       0.04       3.34       ----

> <Gold.Chemscore.Fitness>
11.2842

> <Gold.Chemscore.DG>
-14.6601

> <Gold.Chemscore.ZeroCoef>
-5.4800

> <Gold.Chemscore.Hbond>
1.8033

> <Gold.Chemscore.Metal>
0.0000

> <Gold.Chemscore.Lipo>
67.3708

> <Gold.Chemscore.Internal_Hbond>
0.0000

> <Gold.Chemscore.DEClash>
0.0405

> <Gold.Chemscore.DEInternal>
3.3354

> <Gold.Chemscore.Rot>
1.8458

> <Gold.Chemscore.Internal.Correction>
   9.000000E+99

> <Gold.Chemscore.Hbonds>
donor molecule, donor type, donor heavy atom, donor atom, acceptor molecule, acceptor atom, score
      L1  H    10    29       P1  7948  0.99
      P1  H  7989  7998       L1    21  0.43

> <Gold.Chemscore.Hbond.Weighted>
-6.0230

> <Gold.Chemscore.Metal.Weighted>
-0.0000

> <Gold.Chemscore.Lipo.Weighted>
-7.8824

> <Gold.Chemscore.Internal_Hbond.Weighted>
0.0000

> <Gold.Chemscore.DEClash.Weighted>
0.0405

> <Gold.Chemscore.DEInternal.Weighted>
3.3354

> <Gold.Chemscore.Rot.Weighted>
4.7252

> <Gold.Chemscore.Internal.Correction.Weighted>
   9.000000E+99

> <Gold.Protein.RotatedTorsions>
[ 6907 6896 6895 6894 ] final  -69.85 input  -60.11 | X-H torsion
[ 7974 7965 7964 7962 ] final -142.85 input  175.53 | X-H torsion
[ 8008 7997 7996 7995 ] final  -25.30 input   59.86 | X-H torsion
[ 10167 10162 10161 10158 ] final  118.42 input  -65.29 | X-H torsion
[ 10718 10713 10712 10709 ] final -122.05 input   66.30 | X-H torsion
[ 10763 10752 10751 10750 ] final  116.44 input  -60.55 | X-H torsion
[ 11005 11000 10999 10996 ] final -168.39 input  -57.11 | X-H torsion

> <Gold.Protein.ActiveResidues>
 VAL166  LYS551  ARG553  GLY616  TRP617  ASP618  TYR619  PRO620  LYS621  CYS622 
 ASP623  PHE694  ASN695  SER759  ASP760  ASP761  ALA762  ILE779  LEU786  VAL792 
 PHE793  MET794  SER795  GLU796  ALA797  LYS798  CYS799  TRP800  GLU811  SER814 

> <Gold.Protein.RotatedAtoms>
  150.7285  134.5537  159.5807 H   0  0  0  0  0  0  0  0  0  0  0  0  # atno 6907 bound_to 6896
  152.3018  134.7599  160.0365 H   0  0  0  0  0  0  0  0  0  0  0  0  # atno 6908 bound_to 6896
  151.8177  133.3355  159.3611 H   0  0  0  0  0  0  0  0  0  0  0  0  # atno 6909 bound_to 6896
  144.8413  140.5908  143.5450 H   0  0  0  0  0  0  0  0  0  0  0  0  # atno 7974 bound_to 7965
  154.4483  140.1930  156.0598 H   0  0  0  0  0  0  0  0  0  0  0  0  # atno 8008 bound_to 7997
  156.0591  140.3299  155.7414 H   0  0  0  0  0  0  0  0  0  0  0  0  # atno 8009 bound_to 7997
  155.5439  140.0589  157.2855 H   0  0  0  0  0  0  0  0  0  0  0  0  # atno 8010 bound_to 7997
  139.6113  144.7082  151.2839 H   0  0  0  0  0  0  0  0  0  0  0  0  # atno 10167 bound_to 10162
  156.1387  130.6450  150.9737 H   0  0  0  0  0  0  0  0  0  0  0  0  # atno 10718 bound_to 10713
  153.5373  135.3566  155.2702 H   0  0  0  0  0  0  0  0  0  0  0  0  # atno 10763 bound_to 10752
  154.8721  135.4082  154.3084 H   0  0  0  0  0  0  0  0  0  0  0  0  # atno 10764 bound_to 10752
  153.3784  135.7067  153.6652 H   0  0  0  0  0  0  0  0  0  0  0  0  # atno 10765 bound_to 10752
  140.5426  134.5508  157.5103 H   0  0  0  0  0  0  0  0  0  0  0  0  # atno 11005 bound_to 11000
  145.4688  139.1505  143.3825 LP  0  0  0  0  0  0  0  0  0  0  0  0  # atno 17320 bound_to 7965
  146.2705  140.4821  142.8816 LP  0  0  0  0  0  0  0  0  0  0  0  0  # atno 17321 bound_to 7965
  140.7321  143.6834  150.7982 LP  0  0  0  0  0  0  0  0  0  0  0  0  # atno 17342 bound_to 10162
  140.0429  143.5328  152.2709 LP  0  0  0  0  0  0  0  0  0  0  0  0  # atno 17343 bound_to 10162
  157.6556  131.0890  150.7955 LP  0  0  0  0  0  0  0  0  0  0  0  0  # atno 17370 bound_to 10713
  156.8032  130.4928  149.5366 LP  0  0  0  0  0  0  0  0  0  0  0  0  # atno 17371 bound_to 10713
  139.9496  134.7640  156.0479 LP  0  0  0  0  0  0  0  0  0  0  0  0  # atno 17394 bound_to 11000
  141.1218  133.6610  156.3235 LP  0  0  0  0  0  0  0  0  0  0  0  0  # atno 17395 bound_to 11000

$$$$
