AV-unprocessed.smi:746|AV-procd|sdf|3576|dock4
  -GOLD-   22720 0563D 1   1.00000     0.00000
 Structure written by MMmdl.
 48 50  0  0  0  0  0  0  0  0  1 V2000
  152.3452  130.8599  164.2266 C   0  0  0  0  0  0  0  0  0  0  0  0
  153.2518  131.3483  163.2534 O   0  0  0  0  0  0  0  0  0  0  0  0
  154.3096  132.0995  163.8251 C   0  0  0  0  0  0  0  0  0  0  0  0
  155.3899  132.3277  162.7644 C   0  0  0  0  0  0  0  0  0  0  0  0
  154.8339  133.0965  161.7018 O   0  0  0  0  0  0  0  0  0  0  0  0
  154.7266  134.4627  161.8634 C   0  0  0  0  0  0  0  0  0  0  0  0
  154.8907  135.0038  163.1540 C   0  0  0  0  0  0  0  0  0  0  0  0
  154.7806  136.3968  163.3284 C   0  0  0  0  0  0  0  0  0  0  0  0
  154.4998  137.2063  162.2021 C   0  0  0  0  0  0  0  0  0  0  0  0
  154.3841  138.6217  162.2414 N   0  0  0  0  0  0  0  0  0  0  0  0
  154.1212  139.4760  161.2321 C   0  0  0  0  0  0  0  0  0  0  0  0
  153.8098  139.1085  160.1000 O   0  0  0  0  0  0  0  0  0  0  0  0
  154.1235  140.7764  161.6210 N   0  0  0  0  0  0  0  0  0  0  0  0
  154.9411  141.2797  162.7483 C   0  0  0  0  0  0  0  0  0  0  0  0
  154.0999  142.1728  163.6850 C   0  0  0  0  0  0  0  0  0  0  0  0
  153.4330  143.3275  162.9144 C   0  0  0  0  0  0  0  0  0  0  0  0
  152.6805  142.7592  161.7052 C   0  0  1  0  0  0  0  0  0  0  0  0
  152.0749  143.7636  160.7231 C   0  0  0  0  0  0  0  0  0  0  0  0
  151.9685  142.9914  159.3944 C   0  0  0  0  0  0  0  0  0  0  0  0
  152.7018  141.6551  159.6093 C   0  0  0  0  0  0  0  0  0  0  0  0
  153.6030  141.9103  160.8291 C   0  0  2  0  0  0  0  0  0  0  0  0
  154.3707  136.5688  160.9513 C   0  0  0  0  0  0  0  0  0  0  0  0
  154.4736  135.2345  160.7774 N   0  0  0  0  0  0  0  0  0  0  0  0
  151.5542  130.2911  163.7379 H   0  0  0  0  0  0  0  0  0  0  0  0
  151.8799  131.6784  164.7776 H   0  0  0  0  0  0  0  0  0  0  0  0
  152.8455  130.1993  164.9359 H   0  0  0  0  0  0  0  0  0  0  0  0
  153.9363  133.0580  164.1893 H   0  0  0  0  0  0  0  0  0  0  0  0
  154.7313  131.5635  164.6768 H   0  0  0  0  0  0  0  0  0  0  0  0
  156.2361  132.8526  163.2109 H   0  0  0  0  0  0  0  0  0  0  0  0
  155.7465  131.3663  162.3908 H   0  0  0  0  0  0  0  0  0  0  0  0
  155.1023  134.3618  163.9962 H   0  0  0  0  0  0  0  0  0  0  0  0
  154.9278  136.8131  164.3127 H   0  0  0  0  0  0  0  0  0  0  0  0
  154.6400  139.0513  163.1184 H   0  0  0  0  0  0  0  0  0  0  0  0
  155.4102  140.4902  163.3360 H   0  0  0  0  0  0  0  0  0  0  0  0
  155.7712  141.8596  162.3419 H   0  0  0  0  0  0  0  0  0  0  0  0
  153.3328  141.5661  164.1683 H   0  0  0  0  0  0  0  0  0  0  0  0
  154.7259  142.5722  164.4834 H   0  0  0  0  0  0  0  0  0  0  0  0
  152.7534  143.8788  163.5648 H   0  0  0  0  0  0  0  0  0  0  0  0
  154.1949  144.0334  162.5811 H   0  0  0  0  0  0  0  0  0  0  0  0
  151.8727  142.1234  162.0744 H   0  0  0  0  0  0  0  0  0  0  0  0
  151.1099  144.1396  161.0648 H   0  0  0  0  0  0  0  0  0  0  0  0
  152.7390  144.6199  160.5987 H   0  0  0  0  0  0  0  0  0  0  0  0
  150.9293  142.8210  159.1112 H   0  0  0  0  0  0  0  0  0  0  0  0
  152.4356  143.5634  158.5919 H   0  0  0  0  0  0  0  0  0  0  0  0
  151.9680  140.8778  159.8282 H   0  0  0  0  0  0  0  0  0  0  0  0
  153.2641  141.3500  158.7263 H   0  0  0  0  0  0  0  0  0  0  0  0
  154.4514  142.5133  160.4982 H   0  0  0  0  0  0  0  0  0  0  0  0
  154.1720  137.1461  160.0602 H   0  0  0  0  0  0  0  0  0  0  0  0
  1  2  1  0  0  0  0
  1 24  1  0  0  0  0
  1 25  1  0  0  0  0
  1 26  1  0  0  0  0
  2  3  1  0  0  0  0
  3  4  1  0  0  0  0
  3 27  1  0  0  0  0
  3 28  1  0  0  0  0
  4  5  1  0  0  0  0
  4 29  1  0  0  0  0
  4 30  1  0  0  0  0
  5  6  1  0  0  0  0
  6 23  1  0  0  0  0
  6  7  2  0  0  0  0
  7  8  1  0  0  0  0
  7 31  1  0  0  0  0
  8  9  2  0  0  0  0
  8 32  1  0  0  0  0
  9 10  1  0  0  0  0
  9 22  1  0  0  0  0
 10 11  1  0  0  0  0
 10 33  1  0  0  0  0
 11 12  2  0  0  0  0
 11 13  1  0  0  0  0
 13 21  1  0  0  0  0
 13 14  1  0  0  0  0
 14 15  1  0  0  0  0
 14 34  1  0  0  0  0
 14 35  1  0  0  0  0
 15 16  1  0  0  0  0
 15 36  1  0  0  0  0
 15 37  1  0  0  0  0
 16 17  1  0  0  0  0
 16 38  1  0  0  0  0
 16 39  1  0  0  0  0
 17 21  1  0  0  0  0
 17 18  1  0  0  0  0
 17 40  1  0  0  0  0
 18 19  1  0  0  0  0
 18 41  1  0  0  0  0
 18 42  1  0  0  0  0
 19 20  1  0  0  0  0
 19 43  1  0  0  0  0
 19 44  1  0  0  0  0
 20 21  1  0  0  0  0
 20 45  1  0  0  0  0
 20 46  1  0  0  0  0
 21 47  1  0  0  0  0
 22 23  2  0  0  0  0
 22 48  1  0  0  0  0
M  END
> <s_m_source_file>
AV-unprocessed.smi

> <i_m_source_file_index>
746

> <i_lp_mmshare_version>
43012

> <i_f3d_flags>
0

> <s_epik_input>
W0NIM11PW0NIMl1bQ0gyXU9jMVtjSF1bY0hdYyhbY0hdbjEpW05IXUMoPU8pTihbQ0gyXVtDSDJdW0NIMl0yKVtDQEhdKFtDQEBIXTIzKVtDSDJdW0NIMl1bQ0gyXTM=

> <s_epik_cmdline>
J2VwaWtfcHl0aG9uJywgJy1waCcsICc3LjAnLCAnLXRuJywgJzgnLCAnLW1hJywgJzIwMCcsICctbWV0YWxfYmluZGluZycsICctaW1hZScsICc8aW5maWxlLm1hZT4nLCAnLW9tYWUnLCAnPG91dGZpbGUubWFlPic=

> <r_lp_tautomer_probability>
1

> <r_epik_Ionization_Penalty>
8.29966e-05

> <r_epik_Ionization_Penalty_Charging>
0

> <r_epik_Ionization_Penalty_Neutral>
8.29966e-05

> <r_epik_State_Penalty>
-0

> <r_epik_Charging_Adjusted_Penalty>
0

> <i_epik_Tot_Q>
0

> <i_epik_Tot_abs_Q>
0

> <r_epik_Metal_State_Penalty>
-0

> <b_epik_Metal_Only>
0

> <s_lp_Force_Field>
OPLS_2005

> <r_lp_Energy>
59.0162

> <b_lp_Chiralities_Consistent>
1

> <s_lp_Variant>
AV-unprocessed.smi:746-1

> <Gold.Version>
5.8.1

> <Gold.Id.Protein>
6NUR|6NUR_protein|mol2

> <Gold.PLP.Fitness>
44.8088

> <Gold.PLP.PLP>
-43.9390

> <Gold.PLP.part.hbond>
-0.6579

> <Gold.PLP.part.metal>
0.0000

> <Gold.PLP.part.buried>
-1.4291

> <Gold.PLP.part.nonpolar>
-41.7457

> <Gold.PLP.part.repulsive>
0.0140

> <Gold.PLP.ligand.clash>
0.4860

> <Gold.PLP.ligand.torsion>
0.4700

> <Gold.PLP.Chemscore.Hbond>
0.6500

> <Gold.PLP.Chemscore.CHOScore>
0.0000

> <Gold.PLP.Chemscore.Metal>
0.0000

> <Gold.Chemscore.Hbonds>
donor molecule, donor type, donor heavy atom, donor atom, acceptor molecule, acceptor atom, score
      P1  H  6896  6908       L1    23  0.55

> <Gold.PLP.Chemscore.Internal.Correction>
0.3458

> <Gold.Rescore>
     Score         DG    S(hbond)    S(metal)    S(lipo)     H(rot)  DE(clash)    DE(int)     intcor
     12.07     -17.27       0.00        0.00     134.00       1.52       1.36       3.85       ----

> <Gold.Chemscore.Fitness>
12.0726

> <Gold.Chemscore.DG>
-17.2746

> <Gold.Chemscore.ZeroCoef>
-5.4800

> <Gold.Chemscore.Hbond>
0.0001

> <Gold.Chemscore.Metal>
0.0000

> <Gold.Chemscore.Lipo>
134.0028

> <Gold.Chemscore.Internal_Hbond>
0.0000

> <Gold.Chemscore.DEClash>
1.3551

> <Gold.Chemscore.DEInternal>
3.8470

> <Gold.Chemscore.Rot>
1.5172

> <Gold.Chemscore.Internal.Correction>
   9.000000E+99

> <Gold.Chemscore.Hbonds>
donor molecule, donor type, donor heavy atom, donor atom, acceptor molecule, acceptor atom, score
      P1  H  6896  6908       L1    23  0.16

> <Gold.Chemscore.Hbond.Weighted>
-0.0004

> <Gold.Chemscore.Metal.Weighted>
-0.0000

> <Gold.Chemscore.Lipo.Weighted>
-15.6783

> <Gold.Chemscore.Internal_Hbond.Weighted>
0.0000

> <Gold.Chemscore.DEClash.Weighted>
1.3551

> <Gold.Chemscore.DEInternal.Weighted>
3.8470

> <Gold.Chemscore.Rot.Weighted>
3.8841

> <Gold.Chemscore.Internal.Correction.Weighted>
   9.000000E+99

> <Gold.Protein.RotatedTorsions>
[ 6907 6896 6895 6894 ] final  -50.84 input  -60.11 | X-H torsion
[ 7974 7965 7964 7962 ] final -151.88 input  175.53 | X-H torsion
[ 8008 7997 7996 7995 ] final   81.33 input   59.86 | X-H torsion
[ 10167 10162 10161 10158 ] final   46.72 input  -65.29 | X-H torsion
[ 10718 10713 10712 10709 ] final   -3.31 input   66.30 | X-H torsion
[ 10763 10752 10751 10750 ] final  -19.48 input  -60.55 | X-H torsion
[ 11005 11000 10999 10996 ] final  -52.88 input  -57.11 | X-H torsion

> <Gold.Protein.ActiveResidues>
 VAL166  LYS551  ARG553  GLY616  TRP617  ASP618  TYR619  PRO620  LYS621  CYS622 
 ASP623  PHE694  ASN695  SER759  ASP760  ASP761  ALA762  ILE779  LEU786  VAL792 
 PHE793  MET794  SER795  GLU796  ALA797  LYS798  CYS799  TRP800  GLU811  SER814 

> <Gold.Protein.RotatedAtoms>
  150.8668  134.8034  159.7124 H   0  0  0  0  0  0  0  0  0  0  0  0  # atno 6907 bound_to 6896
  152.4687  134.5010  159.9734 H   0  0  0  0  0  0  0  0  0  0  0  0  # atno 6908 bound_to 6896
  151.5105  133.3447  159.2919 H   0  0  0  0  0  0  0  0  0  0  0  0  # atno 6909 bound_to 6896
  144.7825  140.4738  143.5829 H   0  0  0  0  0  0  0  0  0  0  0  0  # atno 7974 bound_to 7965
  155.8956  140.3436  155.5988 H   0  0  0  0  0  0  0  0  0  0  0  0  # atno 8008 bound_to 7997
  155.7560  140.0826  157.2197 H   0  0  0  0  0  0  0  0  0  0  0  0  # atno 8009 bound_to 7997
  154.4038  140.1544  156.2765 H   0  0  0  0  0  0  0  0  0  0  0  0  # atno 8010 bound_to 7997
  140.3110  144.2820  150.6200 H   0  0  0  0  0  0  0  0  0  0  0  0  # atno 10167 bound_to 10162
  156.7779  130.5321  149.5756 H   0  0  0  0  0  0  0  0  0  0  0  0  # atno 10718 bound_to 10713
  153.6054  135.6998  153.5368 H   0  0  0  0  0  0  0  0  0  0  0  0  # atno 10763 bound_to 10752
  153.3061  135.4114  155.1295 H   0  0  0  0  0  0  0  0  0  0  0  0  # atno 10764 bound_to 10752
  154.8574  135.3661  154.5591 H   0  0  0  0  0  0  0  0  0  0  0  0  # atno 10765 bound_to 10752
  141.0947  133.6626  156.4089 H   0  0  0  0  0  0  0  0  0  0  0  0  # atno 11005 bound_to 11000
  145.6011  139.1504  143.3129 LP  0  0  0  0  0  0  0  0  0  0  0  0  # atno 17320 bound_to 7965
  146.2041  140.6132  142.9089 LP  0  0  0  0  0  0  0  0  0  0  0  0  # atno 17321 bound_to 7965
  140.5568  143.2198  151.7834 LP  0  0  0  0  0  0  0  0  0  0  0  0  # atno 17342 bound_to 10162
  139.4894  144.4403  151.9772 LP  0  0  0  0  0  0  0  0  0  0  0  0  # atno 17343 bound_to 10162
  156.1236  130.6128  151.0231 LP  0  0  0  0  0  0  0  0  0  0  0  0  # atno 17370 bound_to 10713
  157.6660  131.0871  150.7727 LP  0  0  0  0  0  0  0  0  0  0  0  0  # atno 17371 bound_to 10713
  140.5168  134.6342  157.5304 LP  0  0  0  0  0  0  0  0  0  0  0  0  # atno 17394 bound_to 11000
  139.9781  134.7182  155.9911 LP  0  0  0  0  0  0  0  0  0  0  0  0  # atno 17395 bound_to 11000

$$$$
