AV-unprocessed.smi:1795|AV-procd|sdf|7248|dock8
  -GOLD-   22720 8503D 1   1.00000     0.00000
 Structure written by MMmdl.
 48 49  0  0  0  0  0  0  0  0  2 V2000
  146.5809  138.4906  152.2330 C   0  0  0  0  0  0  0  0  0  0  0  0
  146.6087  138.6355  153.7653 C   0  0  1  0  0  0  0  0  0  0  0  0
  147.2414  137.4277  154.4866 C   0  0  0  0  0  0  0  0  0  0  0  0
  148.7256  137.4113  154.3593 N   0  3  2  0  0  0  0  0  0  0  0  0
  149.4146  136.2527  155.0198 C   0  0  2  0  0  0  0  0  0  0  0  0
  148.5261  134.9882  154.9537 C   0  0  0  0  0  0  0  0  0  0  0  0
  149.8328  136.5316  156.4922 C   0  0  0  0  0  0  0  0  0  0  0  0
  148.6947  136.7201  157.3880 N   0  0  0  0  0  0  0  0  0  0  0  0
  148.7696  136.7448  158.7274 C   0  0  0  0  0  0  0  0  0  0  0  0
  149.8234  136.5808  159.3438 O   0  0  0  0  0  0  0  0  0  0  0  0
  147.4480  136.9663  159.4761 C   0  0  0  0  0  0  0  0  0  0  0  0
  147.1838  135.9388  160.4973 N   0  0  0  0  0  0  0  0  0  0  0  0
  147.3797  134.5945  160.1224 C   0  0  0  0  0  0  0  0  0  0  0  0
  147.1722  133.5813  160.9785 C   0  0  0  0  0  0  0  0  0  0  0  0
  146.7350  133.8974  162.3176 C   0  0  0  0  0  0  0  0  0  0  0  0
  146.5479  135.1801  162.6876 C   0  0  0  0  0  0  0  0  0  0  0  0
  146.7772  136.2909  161.7563 C   0  0  0  0  0  0  0  0  0  0  0  0
  146.6148  137.4661  162.0873 O   0  0  0  0  0  0  0  0  0  0  0  0
  149.2701  138.7252  154.7968 C   0  0  0  0  0  0  0  0  0  0  0  0
  148.6369  139.8819  154.0052 C   0  0  2  0  0  0  0  0  0  0  0  0
  149.1385  141.2492  154.4832 C   0  0  0  0  0  0  0  0  0  0  0  0
  147.2260  139.8505  154.1804 O   0  0  0  0  0  0  0  0  0  0  0  0
  145.9753  137.6337  151.9371 H   0  0  0  0  0  0  0  0  0  0  0  0
  147.5748  138.3439  151.8115 H   0  0  0  0  0  0  0  0  0  0  0  0
  146.1457  139.3752  151.7673 H   0  0  0  0  0  0  0  0  0  0  0  0
  145.5695  138.7040  154.0892 H   0  0  0  0  0  0  0  0  0  0  0  0
  146.9777  137.4509  155.5454 H   0  0  0  0  0  0  0  0  0  0  0  0
  146.7976  136.5280  154.0622 H   0  0  0  0  0  0  0  0  0  0  0  0
  150.3286  136.0584  154.4560 H   0  0  0  0  0  0  0  0  0  0  0  0
  149.0081  134.1285  155.4189 H   0  0  0  0  0  0  0  0  0  0  0  0
  148.3030  134.6803  153.9342 H   0  0  0  0  0  0  0  0  0  0  0  0
  147.5772  135.1485  155.4666 H   0  0  0  0  0  0  0  0  0  0  0  0
  150.4254  135.7139  156.9039 H   0  0  0  0  0  0  0  0  0  0  0  0
  150.4537  137.4265  156.5427 H   0  0  0  0  0  0  0  0  0  0  0  0
  147.7903  136.8564  156.9596 H   0  0  0  0  0  0  0  0  0  0  0  0
  147.4477  137.9573  159.9347 H   0  0  0  0  0  0  0  0  0  0  0  0
  146.6425  136.9923  158.7409 H   0  0  0  0  0  0  0  0  0  0  0  0
  147.7139  134.4435  159.1063 H   0  0  0  0  0  0  0  0  0  0  0  0
  147.3315  132.5570  160.6747 H   0  0  0  0  0  0  0  0  0  0  0  0
  146.5581  133.1020  163.0265 H   0  0  0  0  0  0  0  0  0  0  0  0
  146.2214  135.3974  163.6942 H   0  0  0  0  0  0  0  0  0  0  0  0
  149.0856  138.8565  155.8646 H   0  0  0  0  0  0  0  0  0  0  0  0
  150.3480  138.7705  154.6569 H   0  0  0  0  0  0  0  0  0  0  0  0
  148.8849  139.7840  152.9482 H   0  0  0  0  0  0  0  0  0  0  0  0
  150.2194  141.3343  154.3671 H   0  0  0  0  0  0  0  0  0  0  0  0
  148.9008  141.4130  155.5348 H   0  0  0  0  0  0  0  0  0  0  0  0
  148.6797  142.0545  153.9092 H   0  0  0  0  0  0  0  0  0  0  0  0
  148.9170  137.3281  153.3711 H   0  0  0  0  0  0  0  0  0  0  0  0
  1  2  1  0  0  0  0
  1 23  1  0  0  0  0
  1 24  1  0  0  0  0
  1 25  1  0  0  0  0
  2 22  1  0  0  0  0
  2  3  1  0  0  0  0
  2 26  1  0  0  0  0
  3  4  1  0  0  0  0
  3 27  1  0  0  0  0
  3 28  1  0  0  0  0
  4  5  1  0  0  0  0
  4 19  1  0  0  0  0
  4 48  1  0  0  0  0
  5  6  1  0  0  0  0
  5  7  1  0  0  0  0
  5 29  1  0  0  0  0
  6 30  1  0  0  0  0
  6 31  1  0  0  0  0
  6 32  1  0  0  0  0
  7  8  1  0  0  0  0
  7 33  1  0  0  0  0
  7 34  1  0  0  0  0
  8  9  1  0  0  0  0
  8 35  1  0  0  0  0
  9 10  2  0  0  0  0
  9 11  1  0  0  0  0
 11 12  1  0  0  0  0
 11 36  1  0  0  0  0
 11 37  1  0  0  0  0
 12 17  1  0  0  0  0
 12 13  1  0  0  0  0
 13 14  2  0  0  0  0
 13 38  1  0  0  0  0
 14 15  1  0  0  0  0
 14 39  1  0  0  0  0
 15 16  2  0  0  0  0
 15 40  1  0  0  0  0
 16 17  1  0  0  0  0
 16 41  1  0  0  0  0
 17 18  2  0  0  0  0
 19 20  1  0  0  0  0
 19 42  1  0  0  0  0
 19 43  1  0  0  0  0
 20 21  1  0  0  0  0
 20 22  1  0  0  0  0
 20 44  1  0  0  0  0
 21 45  1  0  0  0  0
 21 46  1  0  0  0  0
 21 47  1  0  0  0  0
M  CHG  1   4   1
M  END
> <s_m_source_file>
AV-unprocessed.smi

> <i_m_source_file_index>
1795

> <i_lp_mmshare_version>
43012

> <i_f3d_flags>
0

> <s_epik_input>
W0NIM11bQ0BASF0xW0NIMl1OKFtDSDJdW0NASF0oTzEpW0NIM10pW0NASF0oW0NIM10pW0NIMl1bTkhdQyg9TylbQ0gyXW4yW2NIXVtjSF1bY0hdW2NIXWMyPU8=

> <s_epik_cmdline>
J2VwaWtfcHl0aG9uJywgJy1waCcsICc3LjAnLCAnLXRuJywgJzgnLCAnLW1hJywgJzIwMCcsICctbWV0YWxfYmluZGluZycsICctaW1hZScsICc8aW5maWxlLm1hZT4nLCAnLW9tYWUnLCAnPG91dGZpbGUubWFlPic=

> <r_lp_tautomer_probability>
1

> <r_epik_Ionization_Penalty>
0.656654

> <r_epik_Ionization_Penalty_Charging>
0.656654

> <r_epik_Ionization_Penalty_Neutral>
8.90321e-08

> <r_epik_State_Penalty>
0.675641

> <r_epik_Charging_Adjusted_Penalty>
1.33229

> <i_epik_Tot_Q>
1

> <i_epik_Tot_abs_Q>
1

> <r_epik_Metal_State_Penalty>
0.675691

> <b_epik_Metal_Only>
0

> <s_lp_Force_Field>
OPLS_2005

> <r_lp_Energy>
31.4881

> <b_lp_Chiralities_Consistent>
1

> <s_lp_Variant>
AV-unprocessed.smi:1795-12

> <Gold.Version>
5.8.1

> <Gold.Id.Protein>
6NUR|6NUR_protein|mol2

> <Gold.PLP.Fitness>
49.1467

> <Gold.PLP.PLP>
-37.9383

> <Gold.PLP.part.hbond>
-4.0000

> <Gold.PLP.part.metal>
0.0000

> <Gold.PLP.part.buried>
-1.7765

> <Gold.PLP.part.nonpolar>
-32.1898

> <Gold.PLP.part.repulsive>
0.1536

> <Gold.PLP.ligand.clash>
0.0000

> <Gold.PLP.ligand.torsion>
0.8654

> <Gold.PLP.Chemscore.Hbond>
4.2960

> <Gold.PLP.Chemscore.CHOScore>
0.0000

> <Gold.PLP.Chemscore.Metal>
0.0000

> <Gold.Chemscore.Hbonds>
donor molecule, donor type, donor heavy atom, donor atom, acceptor molecule, acceptor atom, score
      L1  H     4    48       P1  7948  1.95
      P1  H  6896  6909       L1    10  1.00
      P1  H  6934  6947       L1    18  0.77

> <Gold.PLP.Chemscore.Internal.Correction>
0.0512

> <Gold.Rescore>
     Score         DG    S(hbond)    S(metal)    S(lipo)     H(rot)  DE(clash)    DE(int)     intcor
     18.54     -19.87       3.23        0.00      72.17       1.89       0.20       1.13       ----

> <Gold.Chemscore.Fitness>
18.5442

> <Gold.Chemscore.DG>
-19.8729

> <Gold.Chemscore.ZeroCoef>
-5.4800

> <Gold.Chemscore.Hbond>
3.2273

> <Gold.Chemscore.Metal>
0.0000

> <Gold.Chemscore.Lipo>
72.1741

> <Gold.Chemscore.Internal_Hbond>
0.0000

> <Gold.Chemscore.DEClash>
0.2006

> <Gold.Chemscore.DEInternal>
1.1281

> <Gold.Chemscore.Rot>
1.8870

> <Gold.Chemscore.Internal.Correction>
   9.000000E+99

> <Gold.Chemscore.Hbonds>
donor molecule, donor type, donor heavy atom, donor atom, acceptor molecule, acceptor atom, score
      L1  H     4    48       P1  7948  0.92
      P1  H  6896  6909       L1    10  0.95
      P1  H  6934  6947       L1    18  0.72

> <Gold.Chemscore.Hbond.Weighted>
-10.7793

> <Gold.Chemscore.Metal.Weighted>
-0.0000

> <Gold.Chemscore.Lipo.Weighted>
-8.4444

> <Gold.Chemscore.Internal_Hbond.Weighted>
0.0000

> <Gold.Chemscore.DEClash.Weighted>
0.2006

> <Gold.Chemscore.DEInternal.Weighted>
1.1281

> <Gold.Chemscore.Rot.Weighted>
4.8308

> <Gold.Chemscore.Internal.Correction.Weighted>
   9.000000E+99

> <Gold.Protein.RotatedTorsions>
[ 6907 6896 6895 6894 ] final   81.97 input  -60.11 | X-H torsion
[ 7974 7965 7964 7962 ] final -144.60 input  175.53 | X-H torsion
[ 8008 7997 7996 7995 ] final  139.95 input   59.86 | X-H torsion
[ 10167 10162 10161 10158 ] final  138.90 input  -65.29 | X-H torsion
[ 10718 10713 10712 10709 ] final  -46.45 input   66.30 | X-H torsion
[ 10763 10752 10751 10750 ] final  -94.59 input  -60.55 | X-H torsion
[ 11005 11000 10999 10996 ] final   57.01 input  -57.11 | X-H torsion

> <Gold.Protein.ActiveResidues>
 VAL166  LYS551  ARG553  GLY616  TRP617  ASP618  TYR619  PRO620  LYS621  CYS622 
 ASP623  PHE694  ASN695  SER759  ASP760  ASP761  ALA762  ILE779  LEU786  VAL792 
 PHE793  MET794  SER795  GLU796  ALA797  LYS798  CYS799  TRP800  GLU811  SER814 

> <Gold.Protein.RotatedAtoms>
  152.5285  134.3122  159.9117 H   0  0  0  0  0  0  0  0  0  0  0  0  # atno 6907 bound_to 6896
  151.3072  133.4090  159.2652 H   0  0  0  0  0  0  0  0  0  0  0  0  # atno 6908 bound_to 6896
  151.0069  134.9383  159.8042 H   0  0  0  0  0  0  0  0  0  0  0  0  # atno 6909 bound_to 6896
  144.8286  140.5689  143.5530 H   0  0  0  0  0  0  0  0  0  0  0  0  # atno 7974 bound_to 7965
  156.2984  140.2354  156.4322 H   0  0  0  0  0  0  0  0  0  0  0  0  # atno 8008 bound_to 7997
  154.8260  140.0435  157.1464 H   0  0  0  0  0  0  0  0  0  0  0  0  # atno 8009 bound_to 7997
  154.9261  140.3010  155.5195 H   0  0  0  0  0  0  0  0  0  0  0  0  # atno 8010 bound_to 7997
  139.5096  144.6326  151.5778 H   0  0  0  0  0  0  0  0  0  0  0  0  # atno 10167 bound_to 10162
  156.2182  130.4164  149.9027 H   0  0  0  0  0  0  0  0  0  0  0  0  # atno 10718 bound_to 10713
  154.7069  135.5152  153.8609 H   0  0  0  0  0  0  0  0  0  0  0  0  # atno 10763 bound_to 10752
  153.0749  135.6613  154.0177 H   0  0  0  0  0  0  0  0  0  0  0  0  # atno 10764 bound_to 10752
  154.0026  135.3009  155.3380 H   0  0  0  0  0  0  0  0  0  0  0  0  # atno 10765 bound_to 10752
  140.0485  134.5771  155.9293 H   0  0  0  0  0  0  0  0  0  0  0  0  # atno 11005 bound_to 11000
  145.4945  139.1486  143.3691 LP  0  0  0  0  0  0  0  0  0  0  0  0  # atno 17320 bound_to 7965
  146.2590  140.5084  142.8861 LP  0  0  0  0  0  0  0  0  0  0  0  0  # atno 17321 bound_to 7965
  140.6064  143.9516  150.6422 LP  0  0  0  0  0  0  0  0  0  0  0  0  # atno 17342 bound_to 10162
  140.2745  143.3433  152.1208 LP  0  0  0  0  0  0  0  0  0  0  0  0  # atno 17343 bound_to 10162
  156.6682  130.8809  151.3558 LP  0  0  0  0  0  0  0  0  0  0  0  0  # atno 17370 bound_to 10713
  157.7074  130.9401  150.0975 LP  0  0  0  0  0  0  0  0  0  0  0  0  # atno 17371 bound_to 10713
  141.1919  133.6573  156.5476 LP  0  0  0  0  0  0  0  0  0  0  0  0  # atno 17394 bound_to 11000
  140.3955  134.7402  157.4748 LP  0  0  0  0  0  0  0  0  0  0  0  0  # atno 17395 bound_to 11000

$$$$
