AV-unprocessed.smi:870|AV-procd|sdf|4008|dock8
  -GOLD-   22720 1493D 1   1.00000     0.00000
 Structure written by MMmdl.
 46 48  0  0  0  0  0  0  0  0  1 V2000
  148.1441  141.9534  154.4631 C   0  0  0  0  0  0  0  0  0  0  0  0
  149.3506  141.3445  154.0415 O   0  0  0  0  0  0  0  0  0  0  0  0
  149.7873  140.3353  154.9363 C   0  0  0  0  0  0  0  0  0  0  0  0
  150.4283  141.0173  156.1071 C   0  0  0  0  0  0  0  0  0  0  0  0
  150.7160  142.3194  156.0903 N   0  0  0  0  0  0  0  0  0  0  0  0
  151.3007  142.5175  157.3258 C   0  0  0  0  0  0  0  0  0  0  0  0
  151.8273  143.6895  157.9144 C   0  0  0  0  0  0  0  0  0  0  0  0
  152.3895  143.6485  159.2073 C   0  0  0  0  0  0  0  0  0  0  0  0
  152.4339  142.4375  159.9279 C   0  0  0  0  0  0  0  0  0  0  0  0
  151.9145  141.2583  159.3600 C   0  0  0  0  0  0  0  0  0  0  0  0
  151.3521  141.3051  158.0701 C   0  0  0  0  0  0  0  0  0  0  0  0
  150.7643  140.3530  157.2430 N   0  0  0  0  0  0  0  0  0  0  0  0
  150.5753  138.9422  157.5576 C   0  0  0  0  0  0  0  0  0  0  0  0
  149.4764  138.7067  158.6174 C   0  0  1  0  0  0  0  0  0  0  0  0
  148.2004  139.1114  158.1631 O   0  0  0  0  0  0  0  0  0  0  0  0
  149.3954  137.2516  159.1056 C   0  0  0  0  0  0  0  0  0  0  0  0
  148.7034  137.2064  160.3471 O   0  0  0  0  0  0  0  0  0  0  0  0
  148.1621  136.0079  160.7617 C   0  0  0  0  0  0  0  0  0  0  0  0
  148.1657  134.8277  159.9756 C   0  0  0  0  0  0  0  0  0  0  0  0
  147.5925  133.6396  160.4674 C   0  0  0  0  0  0  0  0  0  0  0  0
  147.0100  133.6140  161.7471 C   0  0  0  0  0  0  0  0  0  0  0  0
  147.0014  134.7787  162.5358 C   0  0  0  0  0  0  0  0  0  0  0  0
  147.5741  135.9718  162.0476 C   0  0  0  0  0  0  0  0  0  0  0  0
  147.5623  137.2185  162.9125 C   0  0  0  0  0  0  0  0  0  0  0  0
  147.8583  142.7302  153.7541 H   0  0  0  0  0  0  0  0  0  0  0  0
  148.2591  142.4182  155.4430 H   0  0  0  0  0  0  0  0  0  0  0  0
  147.3327  141.2263  154.5137 H   0  0  0  0  0  0  0  0  0  0  0  0
  148.9558  139.7190  155.2811 H   0  0  0  0  0  0  0  0  0  0  0  0
  150.5102  139.6797  154.4476 H   0  0  0  0  0  0  0  0  0  0  0  0
  151.7990  144.6216  157.3698 H   0  0  0  0  0  0  0  0  0  0  0  0
  152.7891  144.5502  159.6478 H   0  0  0  0  0  0  0  0  0  0  0  0
  152.8669  142.4146  160.9173 H   0  0  0  0  0  0  0  0  0  0  0  0
  151.9477  140.3297  159.9094 H   0  0  0  0  0  0  0  0  0  0  0  0
  150.3493  138.3966  156.6429 H   0  0  0  0  0  0  0  0  0  0  0  0
  151.5251  138.5438  157.9154 H   0  0  0  0  0  0  0  0  0  0  0  0
  149.6912  139.3331  159.4834 H   0  0  0  0  0  0  0  0  0  0  0  0
  147.8641  139.7639  158.7586 H   0  0  0  0  0  0  0  0  0  0  0  0
  148.8486  136.6634  158.3669 H   0  0  0  0  0  0  0  0  0  0  0  0
  150.3959  136.8252  159.1983 H   0  0  0  0  0  0  0  0  0  0  0  0
  148.6026  134.8064  158.9891 H   0  0  0  0  0  0  0  0  0  0  0  0
  147.6004  132.7460  159.8609 H   0  0  0  0  0  0  0  0  0  0  0  0
  146.5705  132.7020  162.1234 H   0  0  0  0  0  0  0  0  0  0  0  0
  146.5535  134.7516  163.5183 H   0  0  0  0  0  0  0  0  0  0  0  0
  146.9823  137.0680  163.8231 H   0  0  0  0  0  0  0  0  0  0  0  0
  147.1260  138.0571  162.3690 H   0  0  0  0  0  0  0  0  0  0  0  0
  148.5799  137.4857  163.1973 H   0  0  0  0  0  0  0  0  0  0  0  0
  1  2  1  0  0  0  0
  1 25  1  0  0  0  0
  1 26  1  0  0  0  0
  1 27  1  0  0  0  0
  2  3  1  0  0  0  0
  3  4  1  0  0  0  0
  3 28  1  0  0  0  0
  3 29  1  0  0  0  0
  4 12  1  0  0  0  0
  4  5  2  0  0  0  0
  5  6  1  0  0  0  0
  6 11  2  0  0  0  0
  6  7  1  0  0  0  0
  7  8  2  0  0  0  0
  7 30  1  0  0  0  0
  8  9  1  0  0  0  0
  8 31  1  0  0  0  0
  9 10  2  0  0  0  0
  9 32  1  0  0  0  0
 10 11  1  0  0  0  0
 10 33  1  0  0  0  0
 11 12  1  0  0  0  0
 12 13  1  0  0  0  0
 13 14  1  0  0  0  0
 13 34  1  0  0  0  0
 13 35  1  0  0  0  0
 14 15  1  0  0  0  0
 14 16  1  0  0  0  0
 14 36  1  0  0  0  0
 15 37  1  0  0  0  0
 16 17  1  0  0  0  0
 16 38  1  0  0  0  0
 16 39  1  0  0  0  0
 17 18  1  0  0  0  0
 18 23  1  0  0  0  0
 18 19  2  0  0  0  0
 19 20  1  0  0  0  0
 19 40  1  0  0  0  0
 20 21  2  0  0  0  0
 20 41  1  0  0  0  0
 21 22  1  0  0  0  0
 21 42  1  0  0  0  0
 22 23  2  0  0  0  0
 22 43  1  0  0  0  0
 23 24  1  0  0  0  0
 24 44  1  0  0  0  0
 24 45  1  0  0  0  0
 24 46  1  0  0  0  0
M  END
> <s_m_source_file>
AV-unprocessed.smi

> <i_m_source_file_index>
870

> <i_lp_mmshare_version>
43012

> <i_f3d_flags>
0

> <s_epik_input>
W2NIXTFbY0hdW2NIXVtjSF1jKGMxMiluKGMobjIpW0NIMl1PW0NIM10pW0NIMl1bQ0BIXShbT0hdKVtDSDJdT2MzW2NIXVtjSF1bY0hdW2NIXWMzW0NIM10=

> <s_epik_cmdline>
J2VwaWtfcHl0aG9uJywgJy1waCcsICc3LjAnLCAnLXRuJywgJzgnLCAnLW1hJywgJzIwMCcsICctbWV0YWxfYmluZGluZycsICctaW1hZScsICc8aW5maWxlLm1hZT4nLCAnLW9tYWUnLCAnPG91dGZpbGUubWFlPic=

> <r_lp_tautomer_probability>
1

> <r_epik_Ionization_Penalty>
0.0447032

> <r_epik_Ionization_Penalty_Charging>
0

> <r_epik_Ionization_Penalty_Neutral>
0.0447032

> <r_epik_State_Penalty>
0.0379025

> <r_epik_Charging_Adjusted_Penalty>
0.0379025

> <i_epik_Tot_Q>
0

> <i_epik_Tot_abs_Q>
0

> <r_epik_Metal_State_Penalty>
3.91398e-05

> <b_epik_Metal_Only>
0

> <s_lp_Force_Field>
OPLS_2005

> <r_lp_Energy>
16.5078

> <b_lp_Chiralities_Consistent>
1

> <s_lp_Variant>
AV-unprocessed.smi:870-2

> <Gold.Version>
5.8.1

> <Gold.Id.Protein>
6NUR|6NUR_protein|mol2

> <Gold.PLP.Fitness>
55.3502

> <Gold.PLP.PLP>
-52.2110

> <Gold.PLP.part.hbond>
-4.3229

> <Gold.PLP.part.metal>
0.0000

> <Gold.PLP.part.buried>
-1.4692

> <Gold.PLP.part.nonpolar>
-45.9320

> <Gold.PLP.part.repulsive>
0.8620

> <Gold.PLP.ligand.clash>
0.0000

> <Gold.PLP.ligand.torsion>
0.5773

> <Gold.PLP.Chemscore.Hbond>
1.3789

> <Gold.PLP.Chemscore.CHOScore>
0.0000

> <Gold.PLP.Chemscore.Metal>
0.0000

> <Gold.Chemscore.Hbonds>
donor molecule, donor type, donor heavy atom, donor atom, acceptor molecule, acceptor atom, score
      P1  H  6931  6943       L1    17  0.62
      P1  H  6934  6947       L1    17  0.01
      P1  H  8011  8017       L1     2  0.68

> <Gold.PLP.Chemscore.Internal.Correction>
0.1570

> <Gold.Rescore>
     Score         DG    S(hbond)    S(metal)    S(lipo)     H(rot)  DE(clash)    DE(int)     intcor
     16.78     -18.08       0.77        0.00     137.40       2.36       0.58       0.73       ----

> <Gold.Chemscore.Fitness>
16.7803

> <Gold.Chemscore.DG>
-18.0814

> <Gold.Chemscore.ZeroCoef>
-5.4800

> <Gold.Chemscore.Hbond>
0.7677

> <Gold.Chemscore.Metal>
0.0000

> <Gold.Chemscore.Lipo>
137.3953

> <Gold.Chemscore.Internal_Hbond>
0.0000

> <Gold.Chemscore.DEClash>
0.5757

> <Gold.Chemscore.DEInternal>
0.7255

> <Gold.Chemscore.Rot>
2.3585

> <Gold.Chemscore.Internal.Correction>
   9.000000E+99

> <Gold.Chemscore.Hbonds>
donor molecule, donor type, donor heavy atom, donor atom, acceptor molecule, acceptor atom, score
      P1  H  6931  6943       L1    17  0.42
      P1  H  6934  6947       L1    17  0.02
      P1  H  8011  8017       L1     2  0.23

> <Gold.Chemscore.Hbond.Weighted>
-2.5640

> <Gold.Chemscore.Metal.Weighted>
-0.0000

> <Gold.Chemscore.Lipo.Weighted>
-16.0752

> <Gold.Chemscore.Internal_Hbond.Weighted>
0.0000

> <Gold.Chemscore.DEClash.Weighted>
0.5757

> <Gold.Chemscore.DEInternal.Weighted>
0.7255

> <Gold.Chemscore.Rot.Weighted>
6.0378

> <Gold.Chemscore.Internal.Correction.Weighted>
   9.000000E+99

> <Gold.Protein.RotatedTorsions>
[ 6907 6896 6895 6894 ] final   79.61 input  -60.11 | X-H torsion
[ 7974 7965 7964 7962 ] final  130.94 input  175.53 | X-H torsion
[ 8008 7997 7996 7995 ] final   38.98 input   59.86 | X-H torsion
[ 10167 10162 10161 10158 ] final   59.46 input  -65.29 | X-H torsion
[ 10718 10713 10712 10709 ] final  102.83 input   66.30 | X-H torsion
[ 10763 10752 10751 10750 ] final -151.97 input  -60.55 | X-H torsion
[ 11005 11000 10999 10996 ] final -160.08 input  -57.11 | X-H torsion

> <Gold.Protein.ActiveResidues>
 VAL166  LYS551  ARG553  GLY616  TRP617  ASP618  TYR619  PRO620  LYS621  CYS622 
 ASP623  PHE694  ASN695  SER759  ASP760  ASP761  ALA762  ILE779  LEU786  VAL792 
 PHE793  MET794  SER795  GLU796  ALA797  LYS798  CYS799  TRP800  GLU811  SER814 

> <Gold.Protein.RotatedAtoms>
  152.5205  134.3484  159.9241 H   0  0  0  0  0  0  0  0  0  0  0  0  # atno 6907 bound_to 6896
  151.3434  133.3947  159.2681 H   0  0  0  0  0  0  0  0  0  0  0  0  # atno 6908 bound_to 6896
  150.9785  134.9163  159.7888 H   0  0  0  0  0  0  0  0  0  0  0  0  # atno 6909 bound_to 6896
  145.0126  139.4206  143.5237 H   0  0  0  0  0  0  0  0  0  0  0  0  # atno 7974 bound_to 7965
  155.2290  140.3337  155.4306 H   0  0  0  0  0  0  0  0  0  0  0  0  # atno 8008 bound_to 7997
  156.2302  140.1847  156.7307 H   0  0  0  0  0  0  0  0  0  0  0  0  # atno 8009 bound_to 7997
  154.5966  140.0629  156.9297 H   0  0  0  0  0  0  0  0  0  0  0  0  # atno 8010 bound_to 7997
  140.1762  144.4228  150.6637 H   0  0  0  0  0  0  0  0  0  0  0  0  # atno 10167 bound_to 10162
  157.6791  131.0763  150.5463 H   0  0  0  0  0  0  0  0  0  0  0  0  # atno 10718 bound_to 10713
  154.8024  135.3247  154.7517 H   0  0  0  0  0  0  0  0  0  0  0  0  # atno 10763 bound_to 10752
  153.8182  135.6890  153.4835 H   0  0  0  0  0  0  0  0  0  0  0  0  # atno 10764 bound_to 10752
  153.1748  135.4609  154.9894 H   0  0  0  0  0  0  0  0  0  0  0  0  # atno 10765 bound_to 10752
  140.6355  134.4606  157.5231 H   0  0  0  0  0  0  0  0  0  0  0  0  # atno 11005 bound_to 11000
  146.3472  139.9578  142.8721 LP  0  0  0  0  0  0  0  0  0  0  0  0  # atno 17320 bound_to 7965
  145.2003  140.9851  143.4160 LP  0  0  0  0  0  0  0  0  0  0  0  0  # atno 17321 bound_to 7965
  140.6550  143.2235  151.5990 LP  0  0  0  0  0  0  0  0  0  0  0  0  # atno 17342 bound_to 10162
  139.5316  144.2900  152.1160 LP  0  0  0  0  0  0  0  0  0  0  0  0  # atno 17343 bound_to 10162
  156.5769  130.4294  149.5994 LP  0  0  0  0  0  0  0  0  0  0  0  0  # atno 17370 bound_to 10713
  156.2694  130.7008  151.1801 LP  0  0  0  0  0  0  0  0  0  0  0  0  # atno 17371 bound_to 10713
  139.9100  134.8366  156.1564 LP  0  0  0  0  0  0  0  0  0  0  0  0  # atno 17394 bound_to 11000
  141.0645  133.6826  156.2017 LP  0  0  0  0  0  0  0  0  0  0  0  0  # atno 17395 bound_to 11000

$$$$
