AV-unprocessed.smi:723|AV-procd|sdf|3506|dock5
  -GOLD-   22720 0503D 1   1.00000     0.00000
 Structure written by MMmdl.
 42 44  0  0  0  0  0  0  0  0  1 V2000
  152.1338  142.4987  159.3240 C   0  0  0  0  0  0  0  0  0  0  0  0
  151.2912  142.6804  158.1994 O   0  0  0  0  0  0  0  0  0  0  0  0
  151.1575  141.4992  157.4273 C   0  0  0  0  0  0  0  0  0  0  0  0
  150.3428  141.8143  156.1663 C   0  0  0  0  0  0  0  0  0  0  0  0
  150.0782  140.6207  155.3866 N   0  0  0  0  0  0  0  0  0  0  0  0
  148.8550  140.0903  155.0264 C   0  0  0  0  0  0  0  0  0  0  0  0
  149.1387  138.9653  154.3048 C   0  0  0  0  0  0  0  0  0  0  0  0
  148.2541  138.0389  153.6971 N   0  0  0  0  0  0  0  0  0  0  0  0
  146.9757  137.7931  154.0279 C   0  0  0  0  0  0  0  0  0  0  0  0
  146.3584  138.3554  154.9328 O   0  0  0  0  0  0  0  0  0  0  0  0
  146.4471  136.8462  153.2419 N   0  0  0  0  0  0  0  0  0  0  0  0
  145.1110  136.3457  153.3233 C   0  0  2  0  0  0  0  0  0  0  0  0
  144.8756  134.8483  153.2277 C   0  0  2  0  0  0  0  0  0  0  0  0
  145.9602  133.8291  152.9120 C   0  0  0  0  0  0  0  0  0  0  0  0
  145.6538  133.0805  151.5997 C   0  0  0  0  0  0  0  0  0  0  0  0
  145.2222  133.9979  150.4265 C   0  0  0  0  0  0  0  0  0  0  0  0
  145.2023  135.4996  150.7721 C   0  0  0  0  0  0  0  0  0  0  0  0
  144.4716  135.7446  152.0837 C   0  0  2  0  0  0  0  0  0  0  0  0
  150.5545  138.8748  154.2690 C   0  0  0  0  0  0  0  0  0  0  0  0
  151.1156  139.8798  154.9238 N   0  0  0  0  0  0  0  0  0  0  0  0
  152.1982  143.4287  159.8885 H   0  0  0  0  0  0  0  0  0  0  0  0
  153.1432  142.2188  159.0194 H   0  0  0  0  0  0  0  0  0  0  0  0
  151.7423  141.7280  159.9896 H   0  0  0  0  0  0  0  0  0  0  0  0
  152.1433  141.1186  157.1544 H   0  0  0  0  0  0  0  0  0  0  0  0
  150.6557  140.7269  158.0128 H   0  0  0  0  0  0  0  0  0  0  0  0
  149.3895  142.2699  156.4376 H   0  0  0  0  0  0  0  0  0  0  0  0
  150.8716  142.5339  155.5394 H   0  0  0  0  0  0  0  0  0  0  0  0
  147.9221  140.5525  155.3138 H   0  0  0  0  0  0  0  0  0  0  0  0
  148.6353  137.5069  152.9286 H   0  0  0  0  0  0  0  0  0  0  0  0
  147.0344  136.4442  152.5261 H   0  0  0  0  0  0  0  0  0  0  0  0
  144.4300  136.8853  153.9800 H   0  0  0  0  0  0  0  0  0  0  0  0
  144.0499  134.4446  153.8107 H   0  0  0  0  0  0  0  0  0  0  0  0
  146.9252  134.3268  152.8217 H   0  0  0  0  0  0  0  0  0  0  0  0
  146.0529  133.1300  153.7435 H   0  0  0  0  0  0  0  0  0  0  0  0
  146.5242  132.4918  151.3082 H   0  0  0  0  0  0  0  0  0  0  0  0
  144.8589  132.3576  151.7863 H   0  0  0  0  0  0  0  0  0  0  0  0
  145.8712  133.8306  149.5664 H   0  0  0  0  0  0  0  0  0  0  0  0
  144.2231  133.7018  150.1041 H   0  0  0  0  0  0  0  0  0  0  0  0
  146.2265  135.8659  150.8393 H   0  0  0  0  0  0  0  0  0  0  0  0
  144.7222  136.0725  149.9782 H   0  0  0  0  0  0  0  0  0  0  0  0
  143.3986  135.8864  151.9679 H   0  0  0  0  0  0  0  0  0  0  0  0
  151.1807  138.1304  153.7994 H   0  0  0  0  0  0  0  0  0  0  0  0
  1  2  1  0  0  0  0
  1 21  1  0  0  0  0
  1 22  1  0  0  0  0
  1 23  1  0  0  0  0
  2  3  1  0  0  0  0
  3  4  1  0  0  0  0
  3 24  1  0  0  0  0
  3 25  1  0  0  0  0
  4  5  1  0  0  0  0
  4 26  1  0  0  0  0
  4 27  1  0  0  0  0
  5 20  1  0  0  0  0
  5  6  1  0  0  0  0
  6  7  2  0  0  0  0
  6 28  1  0  0  0  0
  7  8  1  0  0  0  0
  7 19  1  0  0  0  0
  8  9  1  0  0  0  0
  8 29  1  0  0  0  0
  9 10  2  0  0  0  0
  9 11  1  0  0  0  0
 11 12  1  0  0  0  0
 11 30  1  0  0  0  0
 12 18  1  0  0  0  0
 12 13  1  0  0  0  0
 12 31  1  0  0  0  0
 13 18  1  0  0  0  0
 13 14  1  0  0  0  0
 13 32  1  0  0  0  0
 14 15  1  0  0  0  0
 14 33  1  0  0  0  0
 14 34  1  0  0  0  0
 15 16  1  0  0  0  0
 15 35  1  0  0  0  0
 15 36  1  0  0  0  0
 16 17  1  0  0  0  0
 16 37  1  0  0  0  0
 16 38  1  0  0  0  0
 17 18  1  0  0  0  0
 17 39  1  0  0  0  0
 17 40  1  0  0  0  0
 18 41  1  0  0  0  0
 19 20  2  0  0  0  0
 19 42  1  0  0  0  0
M  END
> <s_m_source_file>
AV-unprocessed.smi

> <i_m_source_file_index>
723

> <i_lp_mmshare_version>
43012

> <i_f3d_flags>
0

> <s_epik_input>
W0NIM11PW0NIMl1bQ0gyXW4xW2NIXWMoW2NIXW4xKVtOSF1DKD1PKVtOSF1bQ0BIXTJbQ0BASF0oW0NAQEhdMjMpW0NIMl1bQ0gyXVtDSDJdW0NIMl0z

> <s_epik_cmdline>
J2VwaWtfcHl0aG9uJywgJy1waCcsICc3LjAnLCAnLXRuJywgJzgnLCAnLW1hJywgJzIwMCcsICctbWV0YWxfYmluZGluZycsICctaW1hZScsICc8aW5maWxlLm1hZT4nLCAnLW9tYWUnLCAnPG91dGZpbGUubWFlPic=

> <r_lp_tautomer_probability>
1

> <r_epik_Ionization_Penalty>
0.00031755

> <r_epik_Ionization_Penalty_Charging>
0

> <r_epik_Ionization_Penalty_Neutral>
0.00031755

> <r_epik_State_Penalty>
-0

> <r_epik_Charging_Adjusted_Penalty>
0

> <i_epik_Tot_Q>
0

> <i_epik_Tot_abs_Q>
0

> <r_epik_Metal_State_Penalty>
-0

> <b_epik_Metal_Only>
0

> <s_lp_Force_Field>
OPLS_2005

> <r_lp_Energy>
44.2387

> <b_lp_Chiralities_Consistent>
1

> <s_lp_Variant>
AV-unprocessed.smi:723-2

> <Gold.Version>
5.8.1

> <Gold.Id.Protein>
6NUR|6NUR_protein|mol2

> <Gold.PLP.Fitness>
40.2174

> <Gold.PLP.PLP>
-32.2974

> <Gold.PLP.part.hbond>
-3.0000

> <Gold.PLP.part.metal>
0.0000

> <Gold.PLP.part.buried>
-4.2911

> <Gold.PLP.part.nonpolar>
-24.7470

> <Gold.PLP.part.repulsive>
0.1806

> <Gold.PLP.ligand.clash>
0.0000

> <Gold.PLP.ligand.torsion>
0.4155

> <Gold.PLP.Chemscore.Hbond>
2.8960

> <Gold.PLP.Chemscore.CHOScore>
0.0000

> <Gold.PLP.Chemscore.Metal>
0.0000

> <Gold.Chemscore.Hbonds>
donor molecule, donor type, donor heavy atom, donor atom, acceptor molecule, acceptor atom, score
      L1  H     8    29       P1  7948  1.00
      L1  H    11    30       P1  7948  0.90
      P1  H  7989  7998       L1    20  0.95

> <Gold.PLP.Chemscore.Internal.Correction>
0.0629

> <Gold.Rescore>
     Score         DG    S(hbond)    S(metal)    S(lipo)     H(rot)  DE(clash)    DE(int)     intcor
     16.08     -16.78       1.90        0.00      76.41       1.56       0.17       0.52       ----

> <Gold.Chemscore.Fitness>
16.0815

> <Gold.Chemscore.DG>
-16.7780

> <Gold.Chemscore.ZeroCoef>
-5.4800

> <Gold.Chemscore.Hbond>
1.9037

> <Gold.Chemscore.Metal>
0.0000

> <Gold.Chemscore.Lipo>
76.4119

> <Gold.Chemscore.Internal_Hbond>
0.0000

> <Gold.Chemscore.DEClash>
0.1728

> <Gold.Chemscore.DEInternal>
0.5236

> <Gold.Chemscore.Rot>
1.5627

> <Gold.Chemscore.Internal.Correction>
   9.000000E+99

> <Gold.Chemscore.Hbonds>
donor molecule, donor type, donor heavy atom, donor atom, acceptor molecule, acceptor atom, score
      L1  H     8    29       P1  7948  1.00
      L1  H    11    30       P1  7948  0.83
      P1  H  7989  7998       L1    20  0.06

> <Gold.Chemscore.Hbond.Weighted>
-6.3582

> <Gold.Chemscore.Metal.Weighted>
-0.0000

> <Gold.Chemscore.Lipo.Weighted>
-8.9402

> <Gold.Chemscore.Internal_Hbond.Weighted>
0.0000

> <Gold.Chemscore.DEClash.Weighted>
0.1728

> <Gold.Chemscore.DEInternal.Weighted>
0.5236

> <Gold.Chemscore.Rot.Weighted>
4.0005

> <Gold.Chemscore.Internal.Correction.Weighted>
   9.000000E+99

> <Gold.Protein.RotatedTorsions>
[ 6907 6896 6895 6894 ] final  -69.41 input  -60.11 | X-H torsion
[ 7974 7965 7964 7962 ] final   79.81 input  175.53 | X-H torsion
[ 8008 7997 7996 7995 ] final  163.77 input   59.86 | X-H torsion
[ 10167 10162 10161 10158 ] final    0.77 input  -65.29 | X-H torsion
[ 10718 10713 10712 10709 ] final  -46.84 input   66.30 | X-H torsion
[ 10763 10752 10751 10750 ] final -110.35 input  -60.55 | X-H torsion
[ 11005 11000 10999 10996 ] final -174.88 input  -57.11 | X-H torsion

> <Gold.Protein.ActiveResidues>
 VAL166  LYS551  ARG553  GLY616  TRP617  ASP618  TYR619  PRO620  LYS621  CYS622 
 ASP623  PHE694  ASN695  SER759  ASP760  ASP761  ALA762  ILE779  LEU786  VAL792 
 PHE793  MET794  SER795  GLU796  ALA797  LYS798  CYS799  TRP800  GLU811  SER814 

> <Gold.Protein.RotatedAtoms>
  150.7307  134.5600  159.5837 H   0  0  0  0  0  0  0  0  0  0  0  0  # atno 6907 bound_to 6896
  152.3066  134.7545  160.0355 H   0  0  0  0  0  0  0  0  0  0  0  0  # atno 6908 bound_to 6896
  151.8107  133.3346  159.3591 H   0  0  0  0  0  0  0  0  0  0  0  0  # atno 6909 bound_to 6896
  145.6593  139.2467  143.1932 H   0  0  0  0  0  0  0  0  0  0  0  0  # atno 7974 bound_to 7965
  156.1932  140.1715  156.8051 H   0  0  0  0  0  0  0  0  0  0  0  0  # atno 8008 bound_to 7997
  154.5497  140.0720  156.8678 H   0  0  0  0  0  0  0  0  0  0  0  0  # atno 8009 bound_to 7997
  155.3053  140.3364  155.4248 H   0  0  0  0  0  0  0  0  0  0  0  0  # atno 8010 bound_to 7997
  140.6713  143.7039  150.7930 H   0  0  0  0  0  0  0  0  0  0  0  0  # atno 10167 bound_to 10162
  156.2144  130.4162  149.9073 H   0  0  0  0  0  0  0  0  0  0  0  0  # atno 10718 bound_to 10713
  154.8243  135.4567  154.0871 H   0  0  0  0  0  0  0  0  0  0  0  0  # atno 10763 bound_to 10752
  153.2199  135.6892  153.8019 H   0  0  0  0  0  0  0  0  0  0  0  0  # atno 10764 bound_to 10752
  153.7440  135.3308  155.3286 H   0  0  0  0  0  0  0  0  0  0  0  0  # atno 10765 bound_to 10752
  140.4696  134.6178  157.4876 H   0  0  0  0  0  0  0  0  0  0  0  0  # atno 11005 bound_to 11000
  146.1138  140.7395  142.9490 LP  0  0  0  0  0  0  0  0  0  0  0  0  # atno 17320 bound_to 7965
  144.7095  140.3982  143.7092 LP  0  0  0  0  0  0  0  0  0  0  0  0  # atno 17321 bound_to 7965
  140.0725  143.5047  152.2572 LP  0  0  0  0  0  0  0  0  0  0  0  0  # atno 17342 bound_to 10162
  139.5984  144.7574  151.3231 LP  0  0  0  0  0  0  0  0  0  0  0  0  # atno 17343 bound_to 10162
  156.6741  130.8832  151.3566 LP  0  0  0  0  0  0  0  0  0  0  0  0  # atno 17370 bound_to 10713
  157.7055  130.9380  150.0918 LP  0  0  0  0  0  0  0  0  0  0  0  0  # atno 17371 bound_to 10713
  139.9893  134.7010  155.9717 LP  0  0  0  0  0  0  0  0  0  0  0  0  # atno 17394 bound_to 11000
  141.1583  133.6541  156.4234 LP  0  0  0  0  0  0  0  0  0  0  0  0  # atno 17395 bound_to 11000

$$$$
