AV-unprocessed.smi:1|AV-procd|sdf|19|dock6
  -GOLD-   2262015123D 1   1.00000     0.00000
 Structure written by MMmdl.
 56 61  0  0  0  0  0  0  0  0  2 V2000
  149.1334  133.4453  153.5031 O   0  0  0  0  0  0  0  0  0  0  0  0
  148.0942  132.8272  153.7439 C   0  0  0  0  0  0  0  0  0  0  0  0
  147.6195  132.4337  154.9529 N   0  5  0  0  0  0  0  0  0  0  0  0
  147.9872  133.0925  156.0623 C   0  0  0  0  0  0  0  0  0  0  0  0
  148.2018  132.4176  157.2209 N   0  0  0  0  0  0  0  0  0  0  0  0
  148.5727  133.0726  158.3277 C   0  0  0  0  0  0  0  0  0  0  0  0
  148.7886  134.3808  158.4980 N   0  0  0  0  0  0  0  0  0  0  0  0
  148.5846  135.0665  157.3359 C   0  0  0  0  0  0  0  0  0  0  0  0
  148.1916  134.4994  156.0898 C   0  0  0  0  0  0  0  0  0  0  0  0
  148.0829  135.4826  155.1167 N   0  0  0  0  0  0  0  0  0  0  0  0
  148.4067  136.5779  155.8022 C   0  0  0  0  0  0  0  0  0  0  0  0
  148.7158  136.4229  157.1061 N   0  0  0  0  0  0  0  0  0  0  0  0
  149.1176  137.4506  158.1111 C   0  0  2  0  0  0  0  0  0  0  0  0
  149.3493  138.6552  157.4517 O   0  0  0  0  0  0  0  0  0  0  0  0
  150.2630  139.4046  158.2368 C   0  0  2  0  0  0  0  0  0  0  0  0
  150.8505  140.5795  157.4438 C   0  0  0  0  0  0  0  0  0  0  0  0
  151.4145  141.5088  158.3554 O   0  0  0  0  0  0  0  0  0  0  0  0
  152.5546  141.2155  159.0098 C   0  0  0  0  0  0  0  0  0  0  0  0
  153.3668  140.3723  158.6245 O   0  0  0  0  0  0  0  0  0  0  0  0
  152.7243  142.0126  160.2589 C   0  0  0  0  0  0  0  0  0  0  0  0
  152.0696  143.2606  160.3792 C   0  0  0  0  0  0  0  0  0  0  0  0
  152.2193  144.0398  161.5431 C   0  0  0  0  0  0  0  0  0  0  0  0
  153.0231  143.5791  162.6020 C   0  0  0  0  0  0  0  0  0  0  0  0
  153.6769  142.3379  162.4960 C   0  0  0  0  0  0  0  0  0  0  0  0
  153.5301  141.5580  161.3321 C   0  0  0  0  0  0  0  0  0  0  0  0
  151.2751  138.3474  158.6875 C   0  0  2  0  0  0  0  0  0  0  0  0
  152.2490  138.1372  157.6784 O   0  0  0  0  0  0  0  0  0  0  0  0
  152.3842  136.5021  157.3728 S   0  0  0  0  0  0  0  0  0  0  0  0
  152.0946  136.2760  155.9489 O   0  0  0  0  0  0  0  0  0  0  0  0
  153.6148  136.0166  158.0160 O   0  0  0  0  0  0  0  0  0  0  0  0
  151.0825  135.9643  158.2693 O   0  0  0  0  0  0  0  0  0  0  0  0
  150.4203  137.0788  158.8474 C   0  0  2  0  0  0  0  0  0  0  0  0
  147.1651  132.4991  152.6061 C   0  0  0  0  0  0  0  0  0  0  0  0
  147.1417  133.3260  151.4596 C   0  0  0  0  0  0  0  0  0  0  0  0
  146.2952  133.0232  150.3751 C   0  0  0  0  0  0  0  0  0  0  0  0
  145.4702  131.8838  150.4213 C   0  0  0  0  0  0  0  0  0  0  0  0
  145.4956  131.0449  151.5511 C   0  0  0  0  0  0  0  0  0  0  0  0
  146.3414  131.3472  152.6362 C   0  0  0  0  0  0  0  0  0  0  0  0
  148.7183  132.4584  159.2038 H   0  0  0  0  0  0  0  0  0  0  0  0
  148.4261  137.5468  155.3252 H   0  0  0  0  0  0  0  0  0  0  0  0
  148.2608  137.5442  158.7802 H   0  0  0  0  0  0  0  0  0  0  0  0
  149.7230  139.7841  159.1067 H   0  0  0  0  0  0  0  0  0  0  0  0
  151.6007  140.2178  156.7390 H   0  0  0  0  0  0  0  0  0  0  0  0
  150.0706  141.0732  156.8632 H   0  0  0  0  0  0  0  0  0  0  0  0
  151.4495  143.6365  159.5780 H   0  0  0  0  0  0  0  0  0  0  0  0
  151.7172  144.9928  161.6222 H   0  0  0  0  0  0  0  0  0  0  0  0
  153.1386  144.1771  163.4939 H   0  0  0  0  0  0  0  0  0  0  0  0
  154.2936  141.9827  163.3084 H   0  0  0  0  0  0  0  0  0  0  0  0
  154.0465  140.6106  161.2835 H   0  0  0  0  0  0  0  0  0  0  0  0
  151.7796  138.6273  159.6127 H   0  0  0  0  0  0  0  0  0  0  0  0
  150.1867  136.8778  159.8933 H   0  0  0  0  0  0  0  0  0  0  0  0
  147.7697  134.2038  151.4080 H   0  0  0  0  0  0  0  0  0  0  0  0
  146.2806  133.6655  149.5071 H   0  0  0  0  0  0  0  0  0  0  0  0
  144.8218  131.6513  149.5898 H   0  0  0  0  0  0  0  0  0  0  0  0
  144.8676  130.1671  151.5859 H   0  0  0  0  0  0  0  0  0  0  0  0
  146.3532  130.6852  153.4901 H   0  0  0  0  0  0  0  0  0  0  0  0
  1  2  2  0  0  0  0
  2  3  1  0  0  0  0
  2 33  1  0  0  0  0
  3  4  1  0  0  0  0
  4  9  1  0  0  0  0
  4  5  2  0  0  0  0
  5  6  1  0  0  0  0
  6  7  2  0  0  0  0
  6 39  1  0  0  0  0
  7  8  1  0  0  0  0
  8 12  1  0  0  0  0
  8  9  2  0  0  0  0
  9 10  1  0  0  0  0
 10 11  2  0  0  0  0
 11 12  1  0  0  0  0
 11 40  1  0  0  0  0
 12 13  1  0  0  0  0
 13 32  1  0  0  0  0
 13 14  1  0  0  0  0
 13 41  1  0  0  0  0
 14 15  1  0  0  0  0
 15 16  1  0  0  0  0
 15 26  1  0  0  0  0
 15 42  1  0  0  0  0
 16 17  1  0  0  0  0
 16 43  1  0  0  0  0
 16 44  1  0  0  0  0
 17 18  1  0  0  0  0
 18 19  2  0  0  0  0
 18 20  1  0  0  0  0
 20 25  1  0  0  0  0
 20 21  2  0  0  0  0
 21 22  1  0  0  0  0
 21 45  1  0  0  0  0
 22 23  2  0  0  0  0
 22 46  1  0  0  0  0
 23 24  1  0  0  0  0
 23 47  1  0  0  0  0
 24 25  2  0  0  0  0
 24 48  1  0  0  0  0
 25 49  1  0  0  0  0
 26 32  1  0  0  0  0
 26 27  1  0  0  0  0
 26 50  1  0  0  0  0
 27 28  1  0  0  0  0
 28 29  2  0  0  0  0
 28 30  2  0  0  0  0
 28 31  1  0  0  0  0
 31 32  1  0  0  0  0
 32 51  1  0  0  0  0
 33 38  1  0  0  0  0
 33 34  2  0  0  0  0
 34 35  1  0  0  0  0
 34 52  1  0  0  0  0
 35 36  2  0  0  0  0
 35 53  1  0  0  0  0
 36 37  1  0  0  0  0
 36 54  1  0  0  0  0
 37 38  2  0  0  0  0
 37 55  1  0  0  0  0
 38 56  1  0  0  0  0
M  CHG  1   3  -1
M  END
> <s_m_source_file>
AV-unprocessed.smi

> <i_m_source_file_index>
1

> <i_lp_mmshare_version>
43012

> <i_f3d_flags>
0

> <s_epik_input>
W2NIXTFbY0hdW2NIXVtjSF1bY0hdYzFDKD1PKVtOSF1jKG5bY0hdbjIpYyhjMjMpbltjSF1uM1tDQEBIXShbQ0BIXShbQ0BIXTQ1KU9TKE81KSg9Tyk9TylPW0NASF00W0NIMl1PQyg9TyljNltjSF1bY0hdW2NIXVtjSF1bY0hdNg==

> <s_epik_cmdline>
J2VwaWtfcHl0aG9uJywgJy1waCcsICc3LjAnLCAnLXRuJywgJzgnLCAnLW1hJywgJzIwMCcsICctbWV0YWxfYmluZGluZycsICctaW1hZScsICc8aW5maWxlLm1hZT4nLCAnLW9tYWUnLCAnPG91dGZpbGUubWFlPic=

> <r_lp_tautomer_probability>
1

> <r_epik_Ionization_Penalty>
4.39121

> <r_epik_Ionization_Penalty_Charging>
3.39398

> <r_epik_Ionization_Penalty_Neutral>
0.997232

> <r_epik_State_Penalty>
3.39839

> <r_epik_Charging_Adjusted_Penalty>
6.79237

> <i_epik_Tot_Q>
-1

> <i_epik_Tot_abs_Q>
1

> <r_epik_Metal_State_Penalty>
0.497663

> <b_epik_Metal_Only>
1

> <s_epik_Chemistry_Notes>
This compound has an ester and may undergo hydrolysis at high or low pH. This compound contains an acetal/aminal-like group ( X-CH(R)-Y where X, Y are N, S, or O) that may be acid/base labile, releasing an aldehyde.

> <s_lp_Force_Field>
OPLS_2005

> <r_lp_Energy>
44.2661

> <b_lp_Chiralities_Consistent>
1

> <s_lp_Variant>
AV-unprocessed.smi:1-19

> <Gold.Version>
5.8.1

> <Gold.Id.Protein>
6NUR|6NUR_protein|mol2

> <Gold.PLP.Fitness>
60.4076

> <Gold.PLP.PLP>
-54.9214

> <Gold.PLP.part.hbond>
-3.7818

> <Gold.PLP.part.metal>
0.0000

> <Gold.PLP.part.buried>
-7.1198

> <Gold.PLP.part.nonpolar>
-43.1123

> <Gold.PLP.part.repulsive>
0.3162

> <Gold.PLP.ligand.clash>
0.0000

> <Gold.PLP.ligand.torsion>
1.7010

> <Gold.PLP.Chemscore.Hbond>
2.7800

> <Gold.PLP.Chemscore.CHOScore>
0.0000

> <Gold.PLP.Chemscore.Metal>
0.0000

> <Gold.Chemscore.Hbonds>
donor molecule, donor type, donor heavy atom, donor atom, acceptor molecule, acceptor atom, score
      P1  H  6896  6908       L1     7  0.79
      P1  H  7997  8009       L1    19  0.86
      P1  H 10752 10763       L1    29  1.00

> <Gold.PLP.Chemscore.Internal.Correction>
0.5483

> <Gold.Rescore>
     Score         DG    S(hbond)    S(metal)    S(lipo)     H(rot)  DE(clash)    DE(int)     intcor
     11.62     -23.51       2.42        0.00     131.41       2.11       2.11       9.78       ----

> <Gold.Chemscore.Fitness>
11.6213

> <Gold.Chemscore.DG>
-23.5111

> <Gold.Chemscore.ZeroCoef>
-5.4800

> <Gold.Chemscore.Hbond>
2.4152

> <Gold.Chemscore.Metal>
0.0000

> <Gold.Chemscore.Lipo>
131.4114

> <Gold.Chemscore.Internal_Hbond>
0.0000

> <Gold.Chemscore.DEClash>
2.1111

> <Gold.Chemscore.DEInternal>
9.7787

> <Gold.Chemscore.Rot>
2.1136

> <Gold.Chemscore.Internal.Correction>
   9.000000E+99

> <Gold.Chemscore.Hbonds>
donor molecule, donor type, donor heavy atom, donor atom, acceptor molecule, acceptor atom, score
      P1  H  6896  6908       L1     7  0.13
      P1  H  7997  8009       L1    19  0.80
      P1  H 10752 10763       L1    29  0.98

> <Gold.Chemscore.Hbond.Weighted>
-8.0667

> <Gold.Chemscore.Metal.Weighted>
-0.0000

> <Gold.Chemscore.Lipo.Weighted>
-15.3751

> <Gold.Chemscore.Internal_Hbond.Weighted>
0.0000

> <Gold.Chemscore.DEClash.Weighted>
2.1111

> <Gold.Chemscore.DEInternal.Weighted>
9.7787

> <Gold.Chemscore.Rot.Weighted>
5.4107

> <Gold.Chemscore.Internal.Correction.Weighted>
   9.000000E+99

> <Gold.Protein.RotatedTorsions>
[ 6907 6896 6895 6894 ] final  146.27 input  -60.11 | X-H torsion
[ 7974 7965 7964 7962 ] final    4.50 input  175.53 | X-H torsion
[ 8008 7997 7996 7995 ] final  149.12 input   59.86 | X-H torsion
[ 10167 10162 10161 10158 ] final  -94.35 input  -65.29 | X-H torsion
[ 10718 10713 10712 10709 ] final -151.73 input   66.30 | X-H torsion
[ 10763 10752 10751 10750 ] final   83.83 input  -60.55 | X-H torsion
[ 11005 11000 10999 10996 ] final -103.75 input  -57.11 | X-H torsion

> <Gold.Protein.ActiveResidues>
 VAL166  LYS551  ARG553  GLY616  TRP617  ASP618  TYR619  PRO620  LYS621  CYS622 
 ASP623  PHE694  ASN695  SER759  ASP760  ASP761  ALA762  ILE779  LEU786  VAL792 
 PHE793  MET794  SER795  GLU796  ALA797  LYS798  CYS799  TRP800  GLU811  SER814 

> <Gold.Protein.RotatedAtoms>
  152.1700  133.4637  159.4904 H   0  0  0  0  0  0  0  0  0  0  0  0  # atno 6907 bound_to 6896
  150.6918  134.1964  159.4314 H   0  0  0  0  0  0  0  0  0  0  0  0  # atno 6908 bound_to 6896
  151.9871  134.9998  160.0610 H   0  0  0  0  0  0  0  0  0  0  0  0  # atno 6909 bound_to 6896
  146.2444  140.0525  142.8374 H   0  0  0  0  0  0  0  0  0  0  0  0  # atno 7974 bound_to 7965
  156.2766  140.2110  156.5808 H   0  0  0  0  0  0  0  0  0  0  0  0  # atno 8008 bound_to 7997
  154.7060  140.0516  157.0528 H   0  0  0  0  0  0  0  0  0  0  0  0  # atno 8009 bound_to 7997
  155.0669  140.3172  155.4645 H   0  0  0  0  0  0  0  0  0  0  0  0  # atno 8010 bound_to 7997
  140.3153  143.3080  152.0104 H   0  0  0  0  0  0  0  0  0  0  0  0  # atno 10167 bound_to 10162
  156.4631  130.8222  151.2453 H   0  0  0  0  0  0  0  0  0  0  0  0  # atno 10718 bound_to 10713
  153.1327  135.4676  154.9374 H   0  0  0  0  0  0  0  0  0  0  0  0  # atno 10763 bound_to 10752
  154.7678  135.3150  154.8253 H   0  0  0  0  0  0  0  0  0  0  0  0  # atno 10764 bound_to 10752
  153.8792  135.6896  153.4822 H   0  0  0  0  0  0  0  0  0  0  0  0  # atno 10765 bound_to 10752
  141.1132  133.8666  157.1525 H   0  0  0  0  0  0  0  0  0  0  0  0  # atno 11005 bound_to 11000
  145.0972  140.9322  143.4734 LP  0  0  0  0  0  0  0  0  0  0  0  0  # atno 17320 bound_to 7965
  145.0710  139.3032  143.5832 LP  0  0  0  0  0  0  0  0  0  0  0  0  # atno 17321 bound_to 7965
  139.4885  144.6353  151.6988 LP  0  0  0  0  0  0  0  0  0  0  0  0  # atno 17342 bound_to 10162
  140.5531  144.0392  150.6136 LP  0  0  0  0  0  0  0  0  0  0  0  0  # atno 17343 bound_to 10162
  157.7496  131.0101  150.3292 LP  0  0  0  0  0  0  0  0  0  0  0  0  # atno 17370 bound_to 10713
  156.3696  130.3861  149.7186 LP  0  0  0  0  0  0  0  0  0  0  0  0  # atno 17371 bound_to 10713
  140.0038  135.0017  157.0247 LP  0  0  0  0  0  0  0  0  0  0  0  0  # atno 17394 bound_to 11000
  140.4719  134.1378  155.7204 LP  0  0  0  0  0  0  0  0  0  0  0  0  # atno 17395 bound_to 11000

$$$$
