AV-unprocessed.smi:1586|AV-procd|sdf|6386|dock4
  -GOLD-   22720 7 23D 1   1.00000     0.00000
 Structure written by MMmdl.
 45 46  0  0  0  0  0  0  0  0  2 V2000
  151.9007  145.4668  159.6976 C   0  0  0  0  0  0  0  0  0  0  0  0
  152.3761  144.0492  160.0465 C   0  0  0  0  0  0  0  0  0  0  0  0
  152.0394  143.0259  159.0587 N   0  0  0  0  0  0  0  0  0  0  0  0
  150.6655  143.1464  158.5723 C   0  0  0  0  0  0  0  0  0  0  0  0
  150.3274  142.0543  157.5394 C   0  0  0  0  0  0  0  0  0  0  0  0
  150.4920  140.6962  158.0805 N   0  0  0  0  0  0  0  0  0  0  0  0
  150.1724  139.6403  157.0909 C   0  0  1  0  0  0  0  0  0  0  0  0
  151.1599  139.6251  155.8958 C   0  0  0  0  0  0  0  0  0  0  0  0
  150.1133  138.2161  157.7087 C   0  0  0  0  0  0  0  0  0  0  0  0
  149.1610  138.1271  158.8113 N   0  0  0  0  0  0  0  0  0  0  0  0
  148.8465  137.0080  159.4775 C   0  0  0  0  0  0  0  0  0  0  0  0
  149.3875  135.9416  159.1759 O   0  0  0  0  0  0  0  0  0  0  0  0
  147.9238  137.1935  160.4500 N   0  5  0  0  0  0  0  0  0  0  0  0
  147.1720  136.1654  160.8727 C   0  0  0  0  0  0  0  0  0  0  0  0
  146.1937  136.2161  161.9030 C   0  0  0  0  0  0  0  0  0  0  0  0
  145.7301  134.9326  161.9575 C   0  0  0  0  0  0  0  0  0  0  0  0
  144.6961  134.2657  162.7988 C   0  0  0  0  0  0  0  0  0  0  0  0
  146.3775  134.1580  161.0457 O   0  0  0  0  0  0  0  0  0  0  0  0
  147.3036  134.9532  160.3601 N   0  0  0  0  0  0  0  0  0  0  0  0
  151.8689  140.5946  158.5876 C   0  0  0  0  0  0  0  0  0  0  0  0
  152.1948  141.6879  159.6210 C   0  0  0  0  0  0  0  0  0  0  0  0
  152.2784  146.1864  160.4243 H   0  0  0  0  0  0  0  0  0  0  0  0
  150.8138  145.5444  159.7009 H   0  0  0  0  0  0  0  0  0  0  0  0
  152.2594  145.7715  158.7142 H   0  0  0  0  0  0  0  0  0  0  0  0
  153.4606  144.0870  160.1559 H   0  0  0  0  0  0  0  0  0  0  0  0
  151.9857  143.7647  161.0246 H   0  0  0  0  0  0  0  0  0  0  0  0
  149.9649  143.0890  159.4070 H   0  0  0  0  0  0  0  0  0  0  0  0
  150.5159  144.1195  158.1058 H   0  0  0  0  0  0  0  0  0  0  0  0
  149.2976  142.2244  157.2333 H   0  0  0  0  0  0  0  0  0  0  0  0
  150.9481  142.1815  156.6511 H   0  0  0  0  0  0  0  0  0  0  0  0
  149.1822  139.8506  156.6835 H   0  0  0  0  0  0  0  0  0  0  0  0
  150.9634  138.8098  155.2006 H   0  0  0  0  0  0  0  0  0  0  0  0
  152.1897  139.5191  156.2380 H   0  0  0  0  0  0  0  0  0  0  0  0
  151.0949  140.5305  155.2944 H   0  0  0  0  0  0  0  0  0  0  0  0
  149.8574  137.4884  156.9365 H   0  0  0  0  0  0  0  0  0  0  0  0
  151.0735  137.9176  158.1263 H   0  0  0  0  0  0  0  0  0  0  0  0
  148.6982  138.9803  159.0878 H   0  0  0  0  0  0  0  0  0  0  0  0
  145.8807  137.0589  162.5008 H   0  0  0  0  0  0  0  0  0  0  0  0
  143.7257  134.7446  162.6673 H   0  0  0  0  0  0  0  0  0  0  0  0
  144.9621  134.3247  163.8542 H   0  0  0  0  0  0  0  0  0  0  0  0
  144.5918  133.2131  162.5349 H   0  0  0  0  0  0  0  0  0  0  0  0
  152.0259  139.6376  159.0813 H   0  0  0  0  0  0  0  0  0  0  0  0
  152.5782  140.6450  157.7600 H   0  0  0  0  0  0  0  0  0  0  0  0
  153.2185  141.5525  159.9716 H   0  0  0  0  0  0  0  0  0  0  0  0
  151.5493  141.5704  160.4931 H   0  0  0  0  0  0  0  0  0  0  0  0
  1  2  1  0  0  0  0
  1 22  1  0  0  0  0
  1 23  1  0  0  0  0
  1 24  1  0  0  0  0
  2  3  1  0  0  0  0
  2 25  1  0  0  0  0
  2 26  1  0  0  0  0
  3 21  1  0  0  0  0
  3  4  1  0  0  0  0
  4  5  1  0  0  0  0
  4 27  1  0  0  0  0
  4 28  1  0  0  0  0
  5  6  1  0  0  0  0
  5 29  1  0  0  0  0
  5 30  1  0  0  0  0
  6  7  1  0  0  0  0
  6 20  1  0  0  0  0
  7  8  1  0  0  0  0
  7  9  1  0  0  0  0
  7 31  1  0  0  0  0
  8 32  1  0  0  0  0
  8 33  1  0  0  0  0
  8 34  1  0  0  0  0
  9 10  1  0  0  0  0
  9 35  1  0  0  0  0
  9 36  1  0  0  0  0
 10 11  1  0  0  0  0
 10 37  1  0  0  0  0
 11 12  2  0  0  0  0
 11 13  1  0  0  0  0
 13 14  1  0  0  0  0
 14 19  2  0  0  0  0
 14 15  1  0  0  0  0
 15 16  2  0  0  0  0
 15 38  1  0  0  0  0
 16 17  1  0  0  0  0
 16 18  1  0  0  0  0
 17 39  1  0  0  0  0
 17 40  1  0  0  0  0
 17 41  1  0  0  0  0
 18 19  1  0  0  0  0
 20 21  1  0  0  0  0
 20 42  1  0  0  0  0
 20 43  1  0  0  0  0
 21 44  1  0  0  0  0
 21 45  1  0  0  0  0
M  CHG  1  13  -1
M  END
> <s_m_source_file>
AV-unprocessed.smi

> <i_m_source_file_index>
1586

> <i_lp_mmshare_version>
43012

> <i_f3d_flags>
0

> <s_epik_input>
W0NIM11bQ0gyXU4xW0NIMl1bQ0gyXU4oW0NIMl1bQ0gyXTEpW0NASF0oW0NIM10pW0NIMl1bTkhdQyg9TylbTkhdYzJbY0hdYyhbQ0gzXSlvbjI=

> <s_epik_cmdline>
J2VwaWtfcHl0aG9uJywgJy1waCcsICc3LjAnLCAnLXRuJywgJzgnLCAnLW1hJywgJzIwMCcsICctbWV0YWxfYmluZGluZycsICctaW1hZScsICc8aW5maWxlLm1hZT4nLCAnLW9tYWUnLCAnPG91dGZpbGUubWFlPic=

> <r_epik_Ionization_Penalty>
9.09031

> <r_epik_Ionization_Penalty_Charging>
6.65437

> <r_epik_Ionization_Penalty_Neutral>
2.43594

> <r_epik_State_Penalty>
8.41762

> <r_epik_Charging_Adjusted_Penalty>
15.072

> <i_epik_Tot_Q>
-1

> <i_epik_Tot_abs_Q>
1

> <r_epik_Metal_State_Penalty>
4.3436

> <b_epik_Metal_Only>
1

> <s_lp_Force_Field>
OPLS_2005

> <r_lp_Energy>
36.2307

> <b_lp_Chiralities_Consistent>
1

> <s_lp_Variant>
AV-unprocessed.smi:1586-14

> <Gold.Version>
5.8.1

> <Gold.Id.Protein>
6NUR|6NUR_protein|mol2

> <Gold.PLP.Fitness>
47.2675

> <Gold.PLP.PLP>
-35.5997

> <Gold.PLP.part.hbond>
-3.0000

> <Gold.PLP.part.metal>
0.0000

> <Gold.PLP.part.buried>
-6.5882

> <Gold.PLP.part.nonpolar>
-27.2838

> <Gold.PLP.part.repulsive>
0.2220

> <Gold.PLP.ligand.clash>
0.0000

> <Gold.PLP.ligand.torsion>
0.3072

> <Gold.PLP.Chemscore.Hbond>
4.0586

> <Gold.PLP.Chemscore.CHOScore>
0.0000

> <Gold.PLP.Chemscore.Metal>
0.0000

> <Gold.Chemscore.Hbonds>
donor molecule, donor type, donor heavy atom, donor atom, acceptor molecule, acceptor atom, score
      P1  H  6896  6907       L1    12  1.00
      P1  H  6931  6943       L1    13  1.20
      P1  H  6934  6947       L1    13  1.60

> <Gold.PLP.Chemscore.Internal.Correction>
0.1065

> <Gold.Rescore>
     Score         DG    S(hbond)    S(metal)    S(lipo)     H(rot)  DE(clash)    DE(int)     intcor
     16.45     -18.47       1.96        0.00      91.71       1.68       0.15       1.87       ----

> <Gold.Chemscore.Fitness>
16.4479

> <Gold.Chemscore.DG>
-18.4685

> <Gold.Chemscore.ZeroCoef>
-5.4800

> <Gold.Chemscore.Hbond>
1.9631

> <Gold.Chemscore.Metal>
0.0000

> <Gold.Chemscore.Lipo>
91.7067

> <Gold.Chemscore.Internal_Hbond>
0.0000

> <Gold.Chemscore.DEClash>
0.1490

> <Gold.Chemscore.DEInternal>
1.8716

> <Gold.Chemscore.Rot>
1.6788

> <Gold.Chemscore.Internal.Correction>
   9.000000E+99

> <Gold.Chemscore.Hbonds>
donor molecule, donor type, donor heavy atom, donor atom, acceptor molecule, acceptor atom, score
      P1  H  6896  6907       L1    12  1.00
      P1  H  6931  6943       L1    13  0.17
      P1  H  6934  6947       L1    13  0.67

> <Gold.Chemscore.Hbond.Weighted>
-6.5567

> <Gold.Chemscore.Metal.Weighted>
-0.0000

> <Gold.Chemscore.Lipo.Weighted>
-10.7297

> <Gold.Chemscore.Internal_Hbond.Weighted>
0.0000

> <Gold.Chemscore.DEClash.Weighted>
0.1490

> <Gold.Chemscore.DEInternal.Weighted>
1.8716

> <Gold.Chemscore.Rot.Weighted>
4.2978

> <Gold.Chemscore.Internal.Correction.Weighted>
   9.000000E+99

> <Gold.Protein.RotatedTorsions>
[ 6907 6896 6895 6894 ] final  -57.20 input  -60.11 | X-H torsion
[ 7974 7965 7964 7962 ] final -172.19 input  175.53 | X-H torsion
[ 8008 7997 7996 7995 ] final   53.08 input   59.86 | X-H torsion
[ 10167 10162 10161 10158 ] final -119.13 input  -65.29 | X-H torsion
[ 10718 10713 10712 10709 ] final  -13.71 input   66.30 | X-H torsion
[ 10763 10752 10751 10750 ] final  -46.43 input  -60.55 | X-H torsion
[ 11005 11000 10999 10996 ] final -121.31 input  -57.11 | X-H torsion

> <Gold.Protein.ActiveResidues>
 VAL166  LYS551  ARG553  GLY616  TRP617  ASP618  TYR619  PRO620  LYS621  CYS622 
 ASP623  PHE694  ASN695  SER759  ASP760  ASP761  ALA762  ILE779  LEU786  VAL792 
 PHE793  MET794  SER795  GLU796  ALA797  LYS798  CYS799  TRP800  GLU811  SER814 

> <Gold.Protein.RotatedAtoms>
  150.8105  134.7257  159.6683 H   0  0  0  0  0  0  0  0  0  0  0  0  # atno 6907 bound_to 6896
  152.4225  134.5926  159.9988 H   0  0  0  0  0  0  0  0  0  0  0  0  # atno 6908 bound_to 6896
  151.6137  133.3308  159.3109 H   0  0  0  0  0  0  0  0  0  0  0  0  # atno 6909 bound_to 6896
  144.7149  140.1809  143.6358 H   0  0  0  0  0  0  0  0  0  0  0  0  # atno 7974 bound_to 7965
  155.4624  140.3462  155.4314 H   0  0  0  0  0  0  0  0  0  0  0  0  # atno 8008 bound_to 7997
  156.1152  140.1472  156.9312 H   0  0  0  0  0  0  0  0  0  0  0  0  # atno 8009 bound_to 7997
  154.4784  140.0877  156.7297 H   0  0  0  0  0  0  0  0  0  0  0  0  # atno 8010 bound_to 7997
  140.0500  143.5069  152.2087 H   0  0  0  0  0  0  0  0  0  0  0  0  # atno 10167 bound_to 10162
  156.6264  130.4889  149.6145 H   0  0  0  0  0  0  0  0  0  0  0  0  # atno 10718 bound_to 10713
  154.0448  135.6639  153.4794 H   0  0  0  0  0  0  0  0  0  0  0  0  # atno 10763 bound_to 10752
  153.0487  135.5098  154.7807 H   0  0  0  0  0  0  0  0  0  0  0  0  # atno 10764 bound_to 10752
  154.6795  135.3042  154.9599 H   0  0  0  0  0  0  0  0  0  0  0  0  # atno 10765 bound_to 10752
  141.0079  134.0307  157.3452 H   0  0  0  0  0  0  0  0  0  0  0  0  # atno 11005 bound_to 11000
  145.8857  139.2348  143.1579 LP  0  0  0  0  0  0  0  0  0  0  0  0  # atno 17320 bound_to 7965
  145.9952  140.8568  143.0046 LP  0  0  0  0  0  0  0  0  0  0  0  0  # atno 17321 bound_to 7965
  139.5959  144.7567  151.3287 LP  0  0  0  0  0  0  0  0  0  0  0  0  # atno 17342 bound_to 10162
  140.7221  143.7106  150.7772 LP  0  0  0  0  0  0  0  0  0  0  0  0  # atno 17343 bound_to 10162
  156.2270  130.6771  151.1426 LP  0  0  0  0  0  0  0  0  0  0  0  0  # atno 17370 bound_to 10713
  157.7213  131.0680  150.6124 LP  0  0  0  0  0  0  0  0  0  0  0  0  # atno 17371 bound_to 10713
  139.9074  135.0182  156.7544 LP  0  0  0  0  0  0  0  0  0  0  0  0  # atno 17394 bound_to 11000
  140.6781  133.9499  155.7895 LP  0  0  0  0  0  0  0  0  0  0  0  0  # atno 17395 bound_to 11000

$$$$
