AV-unprocessed.smi:2740|AV-procd|sdf|10556|dock5
  -GOLD-   2272015 03D 1   1.00000     0.00000
 Structure written by MMmdl.
 30 31  0  0  0  0  0  0  0  0  2 V2000
  151.8985  144.5572  160.1124 C   0  0  0  0  0  0  0  0  0  0  0  0
  151.7966  143.4449  159.1244 C   0  0  0  0  0  0  0  0  0  0  0  0
  150.8874  143.3116  158.1073 C   0  0  0  0  0  0  0  0  0  0  0  0
  151.0577  142.1518  157.3499 N   0  0  0  0  0  0  0  0  0  0  0  0
  152.0837  141.3972  157.7575 C   0  0  0  0  0  0  0  0  0  0  0  0
  152.4219  140.2393  157.1669 N   0  5  0  0  0  0  0  0  0  0  0  0
  151.7737  139.8369  156.0498 C   0  0  0  0  0  0  0  0  0  0  0  0
  150.9190  140.4758  155.4313 O   0  0  0  0  0  0  0  0  0  0  0  0
  152.1380  138.6198  155.6213 N   0  0  0  0  0  0  0  0  0  0  0  0
  151.6057  137.9355  154.4478 C   0  0  0  0  0  0  0  0  0  0  0  0
  150.8675  136.6421  154.8308 C   0  0  2  0  0  0  0  0  0  0  0  0
  149.6279  136.8726  155.6942 C   0  0  0  0  0  0  0  0  0  0  0  0
  149.4972  135.5858  156.4967 C   0  0  0  0  0  0  0  0  0  0  0  0
  150.8166  134.8511  156.2453 C   0  0  0  0  0  0  0  0  0  0  0  0
  151.6717  135.8267  155.6690 O   0  0  0  0  0  0  0  0  0  0  0  0
  152.9012  142.0967  159.1569 S   0  0  0  0  0  0  0  0  0  0  0  0
  152.1265  145.4977  159.6106 H   0  0  0  0  0  0  0  0  0  0  0  0
  152.6850  144.3664  160.8428 H   0  0  0  0  0  0  0  0  0  0  0  0
  150.9602  144.6815  160.6529 H   0  0  0  0  0  0  0  0  0  0  0  0
  150.0883  143.9910  157.8506 H   0  0  0  0  0  0  0  0  0  0  0  0
  152.8439  138.1322  156.1533 H   0  0  0  0  0  0  0  0  0  0  0  0
  150.9301  138.6148  153.9277 H   0  0  0  0  0  0  0  0  0  0  0  0
  152.4167  137.7150  153.7517 H   0  0  0  0  0  0  0  0  0  0  0  0
  150.5907  136.0745  153.9401 H   0  0  0  0  0  0  0  0  0  0  0  0
  149.7898  137.7103  156.3739 H   0  0  0  0  0  0  0  0  0  0  0  0
  148.7423  137.0920  155.0971 H   0  0  0  0  0  0  0  0  0  0  0  0
  149.3602  135.8077  157.5556 H   0  0  0  0  0  0  0  0  0  0  0  0
  148.6489  134.9853  156.1666 H   0  0  0  0  0  0  0  0  0  0  0  0
  151.2465  134.4351  157.1568 H   0  0  0  0  0  0  0  0  0  0  0  0
  150.6729  134.0367  155.5337 H   0  0  0  0  0  0  0  0  0  0  0  0
  1  2  1  0  0  0  0
  1 17  1  0  0  0  0
  1 18  1  0  0  0  0
  1 19  1  0  0  0  0
  2 16  1  0  0  0  0
  2  3  2  0  0  0  0
  3  4  1  0  0  0  0
  3 20  1  0  0  0  0
  4  5  2  0  0  0  0
  5  6  1  0  0  0  0
  5 16  1  0  0  0  0
  6  7  1  0  0  0  0
  7  8  2  0  0  0  0
  7  9  1  0  0  0  0
  9 10  1  0  0  0  0
  9 21  1  0  0  0  0
 10 11  1  0  0  0  0
 10 22  1  0  0  0  0
 10 23  1  0  0  0  0
 11 15  1  0  0  0  0
 11 12  1  0  0  0  0
 11 24  1  0  0  0  0
 12 13  1  0  0  0  0
 12 25  1  0  0  0  0
 12 26  1  0  0  0  0
 13 14  1  0  0  0  0
 13 27  1  0  0  0  0
 13 28  1  0  0  0  0
 14 15  1  0  0  0  0
 14 29  1  0  0  0  0
 14 30  1  0  0  0  0
M  CHG  1   6  -1
M  END
> <s_m_source_file>
AV-unprocessed.smi

> <i_m_source_file_index>
2740

> <i_lp_mmshare_version>
43012

> <i_f3d_flags>
0

> <s_epik_input>
W0NIM11jMVtjSF1uYyhzMSlbTkhdQyg9TylbTkhdW0NIMl1bQ0BASF0yW0NIMl1bQ0gyXVtDSDJdTzI=

> <s_epik_cmdline>
J2VwaWtfcHl0aG9uJywgJy1waCcsICc3LjAnLCAnLXRuJywgJzgnLCAnLW1hJywgJzIwMCcsICctbWV0YWxfYmluZGluZycsICctaW1hZScsICc8aW5maWxlLm1hZT4nLCAnLW9tYWUnLCAnPG91dGZpbGUubWFlPic=

> <r_lp_tautomer_probability>
0.999

> <r_epik_Ionization_Penalty>
8.54039

> <r_epik_Ionization_Penalty_Charging>
6.77868

> <r_epik_Ionization_Penalty_Neutral>
1.76171

> <r_epik_State_Penalty>
6.77885

> <r_epik_Charging_Adjusted_Penalty>
13.5575

> <i_epik_Tot_Q>
-1

> <i_epik_Tot_abs_Q>
1

> <r_epik_Metal_State_Penalty>
2.69888

> <b_epik_Metal_Only>
1

> <s_lp_Force_Field>
OPLS_2005

> <r_lp_Energy>
13.1736

> <b_lp_Chiralities_Consistent>
1

> <s_lp_Variant>
AV-unprocessed.smi:2740-3

> <Gold.Version>
5.8.1

> <Gold.Id.Protein>
6NUR|6NUR_protein|mol2

> <Gold.PLP.Fitness>
42.5924

> <Gold.PLP.PLP>
-27.8643

> <Gold.PLP.part.hbond>
-3.0000

> <Gold.PLP.part.metal>
0.0000

> <Gold.PLP.part.buried>
-4.6234

> <Gold.PLP.part.nonpolar>
-20.7070

> <Gold.PLP.part.repulsive>
0.3484

> <Gold.PLP.ligand.clash>
0.0000

> <Gold.PLP.ligand.torsion>
0.0387

> <Gold.PLP.Chemscore.Hbond>
3.9280

> <Gold.PLP.Chemscore.CHOScore>
1.0000

> <Gold.PLP.Chemscore.Metal>
0.0000

> <Gold.Chemscore.Hbonds>
donor molecule, donor type, donor heavy atom, donor atom, acceptor molecule, acceptor atom, score
      P1  H  7989  7998       L1     8  0.81
      P1  H  7997  8008       L1     6  2.00
      P1  H 10752 10765       L1    15  0.95
      L1  C     3    20       P1  8028  0.88

> <Gold.PLP.Chemscore.Internal.Correction>
0.0215

> <Gold.Rescore>
     Score         DG    S(hbond)    S(metal)    S(lipo)     H(rot)  DE(clash)    DE(int)     intcor
     15.04     -17.08       1.96        0.00      70.47       1.25       0.30       1.75       ----

> <Gold.Chemscore.Fitness>
15.0367

> <Gold.Chemscore.DG>
-17.0813

> <Gold.Chemscore.ZeroCoef>
-5.4800

> <Gold.Chemscore.Hbond>
1.9640

> <Gold.Chemscore.Metal>
0.0000

> <Gold.Chemscore.Lipo>
70.4719

> <Gold.Chemscore.Internal_Hbond>
0.0000

> <Gold.Chemscore.DEClash>
0.2965

> <Gold.Chemscore.DEInternal>
1.7480

> <Gold.Chemscore.Rot>
1.2514

> <Gold.Chemscore.Internal.Correction>
   9.000000E+99

> <Gold.Chemscore.Hbonds>
donor molecule, donor type, donor heavy atom, donor atom, acceptor molecule, acceptor atom, score
      P1  H  7989  7998       L1     8  0.53
      P1  H  7997  8008       L1     6  0.39
      P1  H 10752 10765       L1    15  0.21

> <Gold.Chemscore.Hbond.Weighted>
-6.5596

> <Gold.Chemscore.Metal.Weighted>
-0.0000

> <Gold.Chemscore.Lipo.Weighted>
-8.2452

> <Gold.Chemscore.Internal_Hbond.Weighted>
0.0000

> <Gold.Chemscore.DEClash.Weighted>
0.2965

> <Gold.Chemscore.DEInternal.Weighted>
1.7480

> <Gold.Chemscore.Rot.Weighted>
3.2036

> <Gold.Chemscore.Internal.Correction.Weighted>
   9.000000E+99

> <Gold.Protein.RotatedTorsions>
[ 6907 6896 6895 6894 ] final  -87.32 input  -60.11 | X-H torsion
[ 7974 7965 7964 7962 ] final -106.21 input  175.53 | X-H torsion
[ 8008 7997 7996 7995 ] final  -64.14 input   59.86 | X-H torsion
[ 10167 10162 10161 10158 ] final  171.26 input  -65.29 | X-H torsion
[ 10718 10713 10712 10709 ] final   72.20 input   66.30 | X-H torsion
[ 10763 10752 10751 10750 ] final -179.65 input  -60.55 | X-H torsion
[ 11005 11000 10999 10996 ] final -135.72 input  -57.11 | X-H torsion

> <Gold.Protein.ActiveResidues>
 VAL166  LYS551  ARG553  GLY616  TRP617  ASP618  TYR619  PRO620  LYS621  CYS622 
 ASP623  PHE694  ASN695  SER759  ASP760  ASP761  ALA762  ILE779  LEU786  VAL792 
 PHE793  MET794  SER795  GLU796  ALA797  LYS798  CYS799  TRP800  GLU811  SER814 

> <Gold.Protein.RotatedAtoms>
  150.6866  134.2914  159.4668 H   0  0  0  0  0  0  0  0  0  0  0  0  # atno 6907 bound_to 6896
  152.0819  134.9463  160.0582 H   0  0  0  0  0  0  0  0  0  0  0  0  # atno 6908 bound_to 6896
  152.0812  133.4119  159.4539 H   0  0  0  0  0  0  0  0  0  0  0  0  # atno 6909 bound_to 6896
  145.2207  140.9133  143.3261 H   0  0  0  0  0  0  0  0  0  0  0  0  # atno 7974 bound_to 7965
  154.4594  140.0960  156.6851 H   0  0  0  0  0  0  0  0  0  0  0  0  # atno 8008 bound_to 7997
  155.5038  140.3474  155.4357 H   0  0  0  0  0  0  0  0  0  0  0  0  # atno 8009 bound_to 7997
  156.0842  140.1381  156.9663 H   0  0  0  0  0  0  0  0  0  0  0  0  # atno 8010 bound_to 7997
  139.5041  144.3506  151.9927 H   0  0  0  0  0  0  0  0  0  0  0  0  # atno 10167 bound_to 10162
  157.6489  130.9567  150.0896 H   0  0  0  0  0  0  0  0  0  0  0  0  # atno 10718 bound_to 10713
  154.5324  135.2800  155.1168 H   0  0  0  0  0  0  0  0  0  0  0  0  # atno 10763 bound_to 10752
  154.2683  135.6308  153.5304 H   0  0  0  0  0  0  0  0  0  0  0  0  # atno 10764 bound_to 10752
  152.9960  135.5622  154.5841 H   0  0  0  0  0  0  0  0  0  0  0  0  # atno 10765 bound_to 10752
  140.8872  134.1857  157.4552 H   0  0  0  0  0  0  0  0  0  0  0  0  # atno 11005 bound_to 11000
  144.9768  139.3824  143.6282 LP  0  0  0  0  0  0  0  0  0  0  0  0  # atno 17320 bound_to 7965
  146.3376  139.8890  142.8812 LP  0  0  0  0  0  0  0  0  0  0  0  0  # atno 17321 bound_to 7965
  140.2943  144.3719  150.6079 LP  0  0  0  0  0  0  0  0  0  0  0  0  # atno 17342 bound_to 10162
  140.5923  143.2167  151.7230 LP  0  0  0  0  0  0  0  0  0  0  0  0  # atno 17343 bound_to 10162
  156.1849  130.3652  149.8986 LP  0  0  0  0  0  0  0  0  0  0  0  0  # atno 17370 bound_to 10713
  156.6929  130.8903  151.3590 LP  0  0  0  0  0  0  0  0  0  0  0  0  # atno 17371 bound_to 10713
  139.8725  134.9843  156.5233 LP  0  0  0  0  0  0  0  0  0  0  0  0  # atno 17394 bound_to 11000
  140.8390  133.8220  155.9057 LP  0  0  0  0  0  0  0  0  0  0  0  0  # atno 17395 bound_to 11000

$$$$
