AV-unprocessed.smi:252|AV-procd|sdf|1936|dock1
  -GOLD-   2262021 53D 1   1.00000     0.00000
 Structure written by MMmdl.
 56 59  0  0  0  0  0  0  0  0  1 V2000
  154.8967  140.4818  163.2876 C   0  0  0  0  0  0  0  0  0  0  0  0
  155.4697  139.7636  162.0557 C   0  0  0  0  0  0  0  0  0  0  0  0
  154.8779  140.2569  160.7314 C   0  0  0  0  0  0  0  0  0  0  0  0
  155.2275  139.7619  159.6594 O   0  0  0  0  0  0  0  0  0  0  0  0
  153.9732  141.2433  160.8250 N   0  0  0  0  0  0  0  0  0  0  0  0
  153.2875  141.8690  159.6990 C   0  0  2  0  0  0  0  0  0  0  0  0
  152.2031  142.8446  160.1974 C   0  0  0  0  0  0  0  0  0  0  0  0
  151.4113  143.4174  159.0126 C   0  0  0  0  0  0  0  0  0  0  0  0
  150.8331  142.2918  158.1405 C   0  0  0  0  0  0  0  0  0  0  0  0
  151.8876  141.3687  157.7178 N   0  0  0  0  0  0  0  0  0  0  0  0
  151.6090  140.5171  156.6981 C   0  0  0  0  0  0  0  0  0  0  0  0
  152.5168  139.5711  156.3356 N   0  0  0  0  0  0  0  0  0  0  0  0
  152.2580  138.7405  155.3214 C   0  0  0  0  0  0  0  0  0  0  0  0
  151.1729  138.6812  154.5476 N   0  0  0  0  0  0  0  0  0  0  0  0
  150.2526  139.6188  154.9132 C   0  0  0  0  0  0  0  0  0  0  0  0
  150.3890  140.5675  155.9660 C   0  0  0  0  0  0  0  0  0  0  0  0
  149.2451  141.3535  156.0439 N   0  0  0  0  0  0  0  0  0  0  0  0
  148.4825  140.9034  155.0856 C   0  0  0  0  0  0  0  0  0  0  0  0
  149.0065  139.8577  154.3599 N   0  0  0  0  0  0  0  0  0  0  0  0
  148.3774  139.1694  153.2426 C   0  0  0  0  0  0  0  0  0  0  0  0
  146.8347  139.0613  153.3685 C   0  0  1  0  0  0  0  0  0  0  0  0
  146.2823  140.3439  153.1239 O   0  0  0  0  0  0  0  0  0  0  0  0
  146.2085  138.0873  152.3733 C   0  0  0  0  0  0  0  0  0  0  0  0
  144.9696  137.5954  153.1058 C   0  0  0  0  0  0  0  0  0  0  0  0
  145.4369  137.4622  154.4359 O   0  0  0  0  0  0  0  0  0  0  0  0
  146.2879  138.5648  154.7375 C   0  0  1  0  0  0  0  0  0  0  0  0
  147.3238  138.0866  155.7671 C   0  0  0  0  0  0  0  0  0  0  0  0
  152.6667  140.7790  158.8064 C   0  0  0  0  0  0  0  0  0  0  0  0
  155.3131  140.0643  164.2045 H   0  0  0  0  0  0  0  0  0  0  0  0
  153.8122  140.3778  163.3407 H   0  0  0  0  0  0  0  0  0  0  0  0
  155.1336  141.5464  163.2748 H   0  0  0  0  0  0  0  0  0  0  0  0
  156.5519  139.8941  162.0237 H   0  0  0  0  0  0  0  0  0  0  0  0
  155.2853  138.6922  162.1474 H   0  0  0  0  0  0  0  0  0  0  0  0
  153.7446  141.5888  161.7458 H   0  0  0  0  0  0  0  0  0  0  0  0
  154.0127  142.4221  159.0986 H   0  0  0  0  0  0  0  0  0  0  0  0
  151.5209  142.3282  160.8742 H   0  0  0  0  0  0  0  0  0  0  0  0
  152.6543  143.6570  160.7682 H   0  0  0  0  0  0  0  0  0  0  0  0
  150.6084  144.0606  159.3734 H   0  0  0  0  0  0  0  0  0  0  0  0
  152.0655  144.0468  158.4079 H   0  0  0  0  0  0  0  0  0  0  0  0
  150.0743  141.7415  158.6988 H   0  0  0  0  0  0  0  0  0  0  0  0
  150.3422  142.7261  157.2686 H   0  0  0  0  0  0  0  0  0  0  0  0
  153.0325  138.0221  155.0964 H   0  0  0  0  0  0  0  0  0  0  0  0
  147.5082  141.3238  154.8830 H   0  0  0  0  0  0  0  0  0  0  0  0
  148.6490  139.7071  152.3338 H   0  0  0  0  0  0  0  0  0  0  0  0
  148.8230  138.1774  153.1595 H   0  0  0  0  0  0  0  0  0  0  0  0
  145.3507  140.2503  152.9958 H   0  0  0  0  0  0  0  0  0  0  0  0
  145.9862  138.5293  151.4010 H   0  0  0  0  0  0  0  0  0  0  0  0
  146.8749  137.2400  152.2078 H   0  0  0  0  0  0  0  0  0  0  0  0
  144.1673  138.3339  153.0665 H   0  0  0  0  0  0  0  0  0  0  0  0
  144.5930  136.6504  152.7140 H   0  0  0  0  0  0  0  0  0  0  0  0
  145.6729  139.3370  155.2038 H   0  0  0  0  0  0  0  0  0  0  0  0
  148.0023  138.8906  156.0524 H   0  0  0  0  0  0  0  0  0  0  0  0
  147.9175  137.2566  155.3833 H   0  0  0  0  0  0  0  0  0  0  0  0
  146.8304  137.7401  156.6753 H   0  0  0  0  0  0  0  0  0  0  0  0
  153.4569  140.1329  158.4248 H   0  0  0  0  0  0  0  0  0  0  0  0
  152.0048  140.1437  159.3972 H   0  0  0  0  0  0  0  0  0  0  0  0
  1  2  1  0  0  0  0
  1 29  1  0  0  0  0
  1 30  1  0  0  0  0
  1 31  1  0  0  0  0
  2  3  1  0  0  0  0
  2 32  1  0  0  0  0
  2 33  1  0  0  0  0
  3  4  2  0  0  0  0
  3  5  1  0  0  0  0
  5  6  1  0  0  0  0
  5 34  1  0  0  0  0
  6 28  1  0  0  0  0
  6  7  1  0  0  0  0
  6 35  1  0  0  0  0
  7  8  1  0  0  0  0
  7 36  1  0  0  0  0
  7 37  1  0  0  0  0
  8  9  1  0  0  0  0
  8 38  1  0  0  0  0
  8 39  1  0  0  0  0
  9 10  1  0  0  0  0
  9 40  1  0  0  0  0
  9 41  1  0  0  0  0
 10 11  1  0  0  0  0
 10 28  1  0  0  0  0
 11 16  1  0  0  0  0
 11 12  2  0  0  0  0
 12 13  1  0  0  0  0
 13 14  2  0  0  0  0
 13 42  1  0  0  0  0
 14 15  1  0  0  0  0
 15 19  1  0  0  0  0
 15 16  2  0  0  0  0
 16 17  1  0  0  0  0
 17 18  2  0  0  0  0
 18 19  1  0  0  0  0
 18 43  1  0  0  0  0
 19 20  1  0  0  0  0
 20 21  1  0  0  0  0
 20 44  1  0  0  0  0
 20 45  1  0  0  0  0
 21 26  1  0  0  0  0
 21 22  1  0  0  0  0
 21 23  1  0  0  0  0
 22 46  1  0  0  0  0
 23 24  1  0  0  0  0
 23 47  1  0  0  0  0
 23 48  1  0  0  0  0
 24 25  1  0  0  0  0
 24 49  1  0  0  0  0
 24 50  1  0  0  0  0
 25 26  1  0  0  0  0
 26 27  1  0  0  0  0
 26 51  1  0  0  0  0
 27 52  1  0  0  0  0
 27 53  1  0  0  0  0
 27 54  1  0  0  0  0
 28 55  1  0  0  0  0
 28 56  1  0  0  0  0
M  END
> <s_m_source_file>
AV-unprocessed.smi

> <i_m_source_file_index>
252

> <i_lp_mmshare_version>
43012

> <i_f3d_flags>
0

> <s_epik_input>
W0NIM11bQ0gyXUMoPU8pW05IXVtDQEBIXTFbQ0gyXVtDSDJdW0NIMl1OKFtDSDJdMSljKG5bY0hdbjIpYyhjMjMpbltjSF1uM1tDSDJdW0NAQF00KFtPSF0pW0NIMl1bQ0gyXU9bQ0BIXTRbQ0gzXQ==

> <s_epik_cmdline>
J2VwaWtfcHl0aG9uJywgJy1waCcsICc3LjAnLCAnLXRuJywgJzgnLCAnLW1hJywgJzIwMCcsICctbWV0YWxfYmluZGluZycsICctaW1hZScsICc8aW5maWxlLm1hZT4nLCAnLW9tYWUnLCAnPG91dGZpbGUubWFlPic=

> <r_lp_tautomer_probability>
1

> <r_epik_Ionization_Penalty>
0.00182575

> <r_epik_Ionization_Penalty_Charging>
0

> <r_epik_Ionization_Penalty_Neutral>
0.00182575

> <r_epik_State_Penalty>
0.00104524

> <r_epik_Charging_Adjusted_Penalty>
0.00104524

> <i_epik_Tot_Q>
0

> <i_epik_Tot_abs_Q>
0

> <r_epik_Metal_State_Penalty>
-0

> <b_epik_Metal_Only>
0

> <s_lp_Force_Field>
OPLS_2005

> <r_lp_Energy>
34.3477

> <b_lp_Chiralities_Consistent>
1

> <s_lp_Variant>
AV-unprocessed.smi:252-1

> <Gold.Version>
5.8.1

> <Gold.Id.Protein>
6NUR|6NUR_protein|mol2

> <Gold.PLP.Fitness>
49.6667

> <Gold.PLP.PLP>
-42.4664

> <Gold.PLP.part.hbond>
-3.6987

> <Gold.PLP.part.metal>
0.0000

> <Gold.PLP.part.buried>
0.9192

> <Gold.PLP.part.nonpolar>
-39.2368

> <Gold.PLP.part.repulsive>
0.3404

> <Gold.PLP.ligand.clash>
0.4347

> <Gold.PLP.ligand.torsion>
0.9186

> <Gold.PLP.Chemscore.Hbond>
2.9673

> <Gold.PLP.Chemscore.CHOScore>
0.0000

> <Gold.PLP.Chemscore.Metal>
0.0000

> <Gold.Chemscore.Hbonds>
donor molecule, donor type, donor heavy atom, donor atom, acceptor molecule, acceptor atom, score
      L1  H    22    46       P1 10175  1.00
      P1  H  7997  8008       L1    12  0.91
      P1  H  7997  8010       L1     4  0.26

> <Gold.PLP.Chemscore.Internal.Correction>
0.5706

> <Gold.Rescore>
     Score         DG    S(hbond)    S(metal)    S(lipo)     H(rot)  DE(clash)    DE(int)     intcor
     10.65     -18.30       2.68        0.00      92.21       2.70       1.81       5.85       ----

> <Gold.Chemscore.Fitness>
10.6472

> <Gold.Chemscore.DG>
-18.3010

> <Gold.Chemscore.ZeroCoef>
-5.4800

> <Gold.Chemscore.Hbond>
2.6811

> <Gold.Chemscore.Metal>
0.0000

> <Gold.Chemscore.Lipo>
92.2113

> <Gold.Chemscore.Internal_Hbond>
0.0000

> <Gold.Chemscore.DEClash>
1.8068

> <Gold.Chemscore.DEInternal>
5.8471

> <Gold.Chemscore.Rot>
2.7041

> <Gold.Chemscore.Internal.Correction>
   9.000000E+99

> <Gold.Chemscore.Hbonds>
donor molecule, donor type, donor heavy atom, donor atom, acceptor molecule, acceptor atom, score
      L1  H    22    46       P1 10175  0.98
      P1  H  7997  8008       L1    12  0.36
      P1  H  7997  8010       L1     4  0.26

> <Gold.Chemscore.Hbond.Weighted>
-8.9548

> <Gold.Chemscore.Metal.Weighted>
-0.0000

> <Gold.Chemscore.Lipo.Weighted>
-10.7887

> <Gold.Chemscore.Internal_Hbond.Weighted>
0.0000

> <Gold.Chemscore.DEClash.Weighted>
1.8068

> <Gold.Chemscore.DEInternal.Weighted>
5.8471

> <Gold.Chemscore.Rot.Weighted>
6.9225

> <Gold.Chemscore.Internal.Correction.Weighted>
   9.000000E+99

> <Gold.Protein.RotatedTorsions>
[ 6907 6896 6895 6894 ] final  -95.14 input  -60.11 | X-H torsion
[ 7974 7965 7964 7962 ] final   45.59 input  175.53 | X-H torsion
[ 8008 7997 7996 7995 ] final  -20.89 input   59.86 | X-H torsion
[ 10167 10162 10161 10158 ] final  -19.58 input  -65.29 | X-H torsion
[ 10718 10713 10712 10709 ] final   68.04 input   66.30 | X-H torsion
[ 10763 10752 10751 10750 ] final  -41.77 input  -60.55 | X-H torsion
[ 11005 11000 10999 10996 ] final    6.55 input  -57.11 | X-H torsion

> <Gold.Protein.ActiveResidues>
 VAL166  LYS551  ARG553  GLY616  TRP617  ASP618  TYR619  PRO620  LYS621  CYS622 
 ASP623  PHE694  ASN695  SER759  ASP760  ASP761  ALA762  ILE779  LEU786  VAL792 
 PHE793  MET794  SER795  GLU796  ALA797  LYS798  CYS799  TRP800  GLU811  SER814 

> <Gold.Protein.RotatedAtoms>
  150.6957  134.1704  159.4209 H   0  0  0  0  0  0  0  0  0  0  0  0  # atno 6907 bound_to 6896
  151.9682  135.0088  160.0560 H   0  0  0  0  0  0  0  0  0  0  0  0  # atno 6908 bound_to 6896
  152.1866  133.4709  159.5022 H   0  0  0  0  0  0  0  0  0  0  0  0  # atno 6909 bound_to 6896
  146.0466  139.4947  142.9745 H   0  0  0  0  0  0  0  0  0  0  0  0  # atno 7974 bound_to 7965
  154.4740  140.2049  155.9923 H   0  0  0  0  0  0  0  0  0  0  0  0  # atno 8008 bound_to 7997
  156.1059  140.3236  155.7975 H   0  0  0  0  0  0  0  0  0  0  0  0  # atno 8009 bound_to 7997
  155.4718  140.0532  157.2969 H   0  0  0  0  0  0  0  0  0  0  0  0  # atno 8010 bound_to 7997
  140.7269  143.4804  151.0125 H   0  0  0  0  0  0  0  0  0  0  0  0  # atno 10167 bound_to 10162
  157.6266  130.9353  150.0324 H   0  0  0  0  0  0  0  0  0  0  0  0  # atno 10718 bound_to 10713
  153.9680  135.6732  153.4746 H   0  0  0  0  0  0  0  0  0  0  0  0  # atno 10763 bound_to 10752
  153.0806  135.4925  154.8492 H   0  0  0  0  0  0  0  0  0  0  0  0  # atno 10764 bound_to 10752
  154.7235  135.3122  154.8969 H   0  0  0  0  0  0  0  0  0  0  0  0  # atno 10765 bound_to 10752
  140.5582  134.0218  155.7962 H   0  0  0  0  0  0  0  0  0  0  0  0  # atno 11005 bound_to 11000
  145.6795  141.0195  143.1614 LP  0  0  0  0  0  0  0  0  0  0  0  0  # atno 17320 bound_to 7965
  144.7101  139.8405  143.7417 LP  0  0  0  0  0  0  0  0  0  0  0  0  # atno 17321 bound_to 7965
  139.8503  143.7448  152.3178 LP  0  0  0  0  0  0  0  0  0  0  0  0  # atno 17342 bound_to 10162
  139.7627  144.7501  151.0340 LP  0  0  0  0  0  0  0  0  0  0  0  0  # atno 17343 bound_to 10162
  156.1442  130.3642  149.9536 LP  0  0  0  0  0  0  0  0  0  0  0  0  # atno 17370 bound_to 10713
  156.7570  130.9136  151.3640 LP  0  0  0  0  0  0  0  0  0  0  0  0  # atno 17371 bound_to 10713
  141.1131  133.9585  157.2874 LP  0  0  0  0  0  0  0  0  0  0  0  0  # atno 17394 bound_to 11000
  139.9421  135.0189  156.8740 LP  0  0  0  0  0  0  0  0  0  0  0  0  # atno 17395 bound_to 11000

$$$$
