AV-unprocessed.smi:1376|AV-procd|sdf|5591|dock3
  -GOLD-   22720 5193D 1   1.00000     0.00000
 Structure written by MMmdl.
 42 43  0  0  0  0  0  0  0  0  1 V2000
  149.8187  135.8867  158.5702 O   0  0  0  0  0  0  0  0  0  0  0  0
  148.7388  136.4294  158.3342 C   0  0  0  0  0  0  0  0  0  0  0  0
  147.4201  135.7533  158.7341 C   0  0  0  0  0  0  0  0  0  0  0  0
  147.2482  135.6469  160.1923 N   0  0  0  0  0  0  0  0  0  0  0  0
  147.0597  134.3564  160.7260 C   0  0  0  0  0  0  0  0  0  0  0  0
  146.8925  134.1499  162.0419 C   0  0  0  0  0  0  0  0  0  0  0  0
  146.9086  135.2953  162.9202 C   0  0  0  0  0  0  0  0  0  0  0  0
  147.0927  136.5337  162.4208 C   0  0  0  0  0  0  0  0  0  0  0  0
  147.2787  136.7640  160.9835 C   0  0  0  0  0  0  0  0  0  0  0  0
  147.4501  137.8915  160.5188 O   0  0  0  0  0  0  0  0  0  0  0  0
  148.6289  137.6105  157.7075 N   0  0  0  0  0  0  0  0  0  0  0  0
  149.7445  138.4338  157.2506 C   0  0  1  0  0  0  0  0  0  0  0  0
  149.7234  138.5673  155.7151 C   0  0  0  0  0  0  0  0  0  0  0  0
  150.8392  139.5003  155.2190 C   0  0  0  0  0  0  0  0  0  0  0  0
  150.7576  140.8759  155.8989 C   0  0  0  0  0  0  0  0  0  0  0  0
  150.7998  140.7470  157.4310 C   0  0  1  0  0  0  0  0  0  0  0  0
  150.6530  142.0536  157.9722 O   0  0  0  0  0  0  0  0  0  0  0  0
  151.5473  143.0191  157.4350 C   0  0  0  0  0  0  0  0  0  0  0  0
  152.0892  143.8962  158.5696 C   0  0  0  0  0  0  0  0  0  0  0  0
  152.9248  144.8025  158.0636 F   0  0  0  0  0  0  0  0  0  0  0  0
  151.0884  144.5307  159.1793 F   0  0  0  0  0  0  0  0  0  0  0  0
  152.7514  143.1504  159.4534 F   0  0  0  0  0  0  0  0  0  0  0  0
  149.6722  139.8167  157.9245 C   0  0  0  0  0  0  0  0  0  0  0  0
  146.5788  136.2969  158.2993 H   0  0  0  0  0  0  0  0  0  0  0  0
  147.3917  134.7666  158.2703 H   0  0  0  0  0  0  0  0  0  0  0  0
  147.0674  133.5531  160.0036 H   0  0  0  0  0  0  0  0  0  0  0  0
  146.7536  133.1530  162.4337 H   0  0  0  0  0  0  0  0  0  0  0  0
  146.7743  135.1590  163.9832 H   0  0  0  0  0  0  0  0  0  0  0  0
  147.1030  137.3787  163.0935 H   0  0  0  0  0  0  0  0  0  0  0  0
  147.7010  137.9747  157.5469 H   0  0  0  0  0  0  0  0  0  0  0  0
  150.6844  137.9655  157.5499 H   0  0  0  0  0  0  0  0  0  0  0  0
  149.8325  137.5869  155.2498 H   0  0  0  0  0  0  0  0  0  0  0  0
  148.7572  138.9573  155.3914 H   0  0  0  0  0  0  0  0  0  0  0  0
  151.8107  139.0487  155.4232 H   0  0  0  0  0  0  0  0  0  0  0  0
  150.7730  139.6158  154.1367 H   0  0  0  0  0  0  0  0  0  0  0  0
  151.5788  141.5066  155.5568 H   0  0  0  0  0  0  0  0  0  0  0  0
  149.8368  141.3772  155.5970 H   0  0  0  0  0  0  0  0  0  0  0  0
  151.7704  140.3345  157.7129 H   0  0  0  0  0  0  0  0  0  0  0  0
  152.3770  142.5356  156.9195 H   0  0  0  0  0  0  0  0  0  0  0  0
  151.0282  143.6419  156.7049 H   0  0  0  0  0  0  0  0  0  0  0  0
  148.7061  140.2784  157.7153 H   0  0  0  0  0  0  0  0  0  0  0  0
  149.7266  139.6915  159.0058 H   0  0  0  0  0  0  0  0  0  0  0  0
  1  2  2  0  0  0  0
  2  3  1  0  0  0  0
  2 11  1  0  0  0  0
  3  4  1  0  0  0  0
  3 24  1  0  0  0  0
  3 25  1  0  0  0  0
  4  9  1  0  0  0  0
  4  5  1  0  0  0  0
  5  6  2  0  0  0  0
  5 26  1  0  0  0  0
  6  7  1  0  0  0  0
  6 27  1  0  0  0  0
  7  8  2  0  0  0  0
  7 28  1  0  0  0  0
  8  9  1  0  0  0  0
  8 29  1  0  0  0  0
  9 10  2  0  0  0  0
 11 12  1  0  0  0  0
 11 30  1  0  0  0  0
 12 23  1  0  0  0  0
 12 13  1  0  0  0  0
 12 31  1  0  0  0  0
 13 14  1  0  0  0  0
 13 32  1  0  0  0  0
 13 33  1  0  0  0  0
 14 15  1  0  0  0  0
 14 34  1  0  0  0  0
 14 35  1  0  0  0  0
 15 16  1  0  0  0  0
 15 36  1  0  0  0  0
 15 37  1  0  0  0  0
 16 17  1  0  0  0  0
 16 23  1  0  0  0  0
 16 38  1  0  0  0  0
 17 18  1  0  0  0  0
 18 19  1  0  0  0  0
 18 39  1  0  0  0  0
 18 40  1  0  0  0  0
 19 20  1  0  0  0  0
 19 21  1  0  0  0  0
 19 22  1  0  0  0  0
 23 41  1  0  0  0  0
 23 42  1  0  0  0  0
M  END
> <s_m_source_file>
AV-unprocessed.smi

> <i_m_source_file_index>
1376

> <i_lp_mmshare_version>
43012

> <i_f3d_flags>
0

> <s_epik_input>
Tz1jMVtjSF1bY0hdW2NIXVtjSF1uMVtDSDJdQyg9TylbTkhdW0NAQEhdMltDSDJdW0NIMl1bQ0gyXVtDQEhdKFtDSDJdMilPW0NIMl1DKEYpKEYpRg==

> <s_epik_cmdline>
J2VwaWtfcHl0aG9uJywgJy1waCcsICc3LjAnLCAnLXRuJywgJzgnLCAnLW1hJywgJzIwMCcsICctbWV0YWxfYmluZGluZycsICctaW1hZScsICc8aW5maWxlLm1hZT4nLCAnLW9tYWUnLCAnPG91dGZpbGUubWFlPic=

> <r_lp_tautomer_probability>
1

> <r_epik_Ionization_Penalty>
4.08567e-07

> <r_epik_Ionization_Penalty_Charging>
3.90028e-07

> <r_epik_Ionization_Penalty_Neutral>
1.85393e-08

> <r_epik_State_Penalty>
-0

> <r_epik_Charging_Adjusted_Penalty>
3.90028e-07

> <i_epik_Tot_Q>
0

> <i_epik_Tot_abs_Q>
0

> <r_epik_Metal_State_Penalty>
-0

> <b_epik_Metal_Only>
0

> <s_lp_Force_Field>
OPLS_2005

> <r_lp_Energy>
18.2113

> <b_lp_Chiralities_Consistent>
1

> <s_lp_Variant>
AV-unprocessed.smi:1376-2

> <Gold.Version>
5.8.1

> <Gold.Id.Protein>
6NUR|6NUR_protein|mol2

> <Gold.PLP.Fitness>
55.1666

> <Gold.PLP.PLP>
-48.4859

> <Gold.PLP.part.hbond>
-3.0000

> <Gold.PLP.part.metal>
0.0000

> <Gold.PLP.part.buried>
-5.4707

> <Gold.PLP.part.nonpolar>
-40.5928

> <Gold.PLP.part.repulsive>
0.0941

> <Gold.PLP.ligand.clash>
0.0000

> <Gold.PLP.ligand.torsion>
0.3804

> <Gold.PLP.Chemscore.Hbond>
2.4640

> <Gold.PLP.Chemscore.CHOScore>
0.0000

> <Gold.PLP.Chemscore.Metal>
0.0000

> <Gold.Chemscore.Hbonds>
donor molecule, donor type, donor heavy atom, donor atom, acceptor molecule, acceptor atom, score
      P1  H  6896  6909       L1     1  1.00
      P1  H  6931  6943       L1    10  0.19
      P1  H  6934  6947       L1    10  0.23

> <Gold.PLP.Chemscore.Internal.Correction>
0.0495

> <Gold.Rescore>
     Score         DG    S(hbond)    S(metal)    S(lipo)     H(rot)  DE(clash)    DE(int)     intcor
     17.39     -18.13       2.58        0.00      82.03       2.18       0.11       0.62       ----

> <Gold.Chemscore.Fitness>
17.3944

> <Gold.Chemscore.DG>
-18.1277

> <Gold.Chemscore.ZeroCoef>
-5.4800

> <Gold.Chemscore.Hbond>
2.5838

> <Gold.Chemscore.Metal>
0.0000

> <Gold.Chemscore.Lipo>
82.0327

> <Gold.Chemscore.Internal_Hbond>
0.0000

> <Gold.Chemscore.DEClash>
0.1104

> <Gold.Chemscore.DEInternal>
0.6229

> <Gold.Chemscore.Rot>
2.1797

> <Gold.Chemscore.Internal.Correction>
   9.000000E+99

> <Gold.Chemscore.Hbonds>
donor molecule, donor type, donor heavy atom, donor atom, acceptor molecule, acceptor atom, score
      P1  H  6896  6909       L1     1  0.96
      P1  H  6931  6943       L1    10  0.01
      P1  H  6934  6947       L1    10  0.23

> <Gold.Chemscore.Hbond.Weighted>
-8.6300

> <Gold.Chemscore.Metal.Weighted>
-0.0000

> <Gold.Chemscore.Lipo.Weighted>
-9.5978

> <Gold.Chemscore.Internal_Hbond.Weighted>
0.0000

> <Gold.Chemscore.DEClash.Weighted>
0.1104

> <Gold.Chemscore.DEInternal.Weighted>
0.6229

> <Gold.Chemscore.Rot.Weighted>
5.5802

> <Gold.Chemscore.Internal.Correction.Weighted>
   9.000000E+99

> <Gold.Protein.RotatedTorsions>
[ 6907 6896 6895 6894 ] final   47.66 input  -60.11 | X-H torsion
[ 7974 7965 7964 7962 ] final  -24.13 input  175.53 | X-H torsion
[ 8008 7997 7996 7995 ] final   -3.19 input   59.86 | X-H torsion
[ 10167 10162 10161 10158 ] final  -22.96 input  -65.29 | X-H torsion
[ 10718 10713 10712 10709 ] final  145.12 input   66.30 | X-H torsion
[ 10763 10752 10751 10750 ] final    7.45 input  -60.55 | X-H torsion
[ 11005 11000 10999 10996 ] final   64.70 input  -57.11 | X-H torsion

> <Gold.Protein.ActiveResidues>
 VAL166  LYS551  ARG553  GLY616  TRP617  ASP618  TYR619  PRO620  LYS621  CYS622 
 ASP623  PHE694  ASN695  SER759  ASP760  ASP761  ALA762  ILE779  LEU786  VAL792 
 PHE793  MET794  SER795  GLU796  ALA797  LYS798  CYS799  TRP800  GLU811  SER814 

> <Gold.Protein.RotatedAtoms>
  152.2706  134.7936  160.0414 H   0  0  0  0  0  0  0  0  0  0  0  0  # atno 6907 bound_to 6896
  151.8550  133.3441  159.3693 H   0  0  0  0  0  0  0  0  0  0  0  0  # atno 6908 bound_to 6896
  150.7150  134.5189  159.5688 H   0  0  0  0  0  0  0  0  0  0  0  0  # atno 6909 bound_to 6896
  146.1574  140.4710  142.8586 H   0  0  0  0  0  0  0  0  0  0  0  0  # atno 7974 bound_to 7965
  154.6276  140.2515  155.7473 H   0  0  0  0  0  0  0  0  0  0  0  0  # atno 8008 bound_to 7997
  156.2462  140.2913  156.0533 H   0  0  0  0  0  0  0  0  0  0  0  0  # atno 8009 bound_to 7997
  155.1796  140.0388  157.2870 H   0  0  0  0  0  0  0  0  0  0  0  0  # atno 8010 bound_to 7997
  140.7287  143.4487  151.0549 H   0  0  0  0  0  0  0  0  0  0  0  0  # atno 10167 bound_to 10162
  157.3491  131.0948  151.1016 H   0  0  0  0  0  0  0  0  0  0  0  0  # atno 10718 bound_to 10713
  153.2361  135.6898  153.7835 H   0  0  0  0  0  0  0  0  0  0  0  0  # atno 10763 bound_to 10752
  153.6981  135.3302  155.3219 H   0  0  0  0  0  0  0  0  0  0  0  0  # atno 10764 bound_to 10752
  154.8335  135.4561  154.1266 H   0  0  0  0  0  0  0  0  0  0  0  0  # atno 10765 bound_to 10752
  139.9942  134.6544  156.0039 H   0  0  0  0  0  0  0  0  0  0  0  0  # atno 11005 bound_to 11000
  144.7981  140.6161  143.6496 LP  0  0  0  0  0  0  0  0  0  0  0  0  # atno 17320 bound_to 7965
  145.4675  139.1506  143.3832 LP  0  0  0  0  0  0  0  0  0  0  0  0  # atno 17321 bound_to 7965
  139.8161  143.7884  152.3174 LP  0  0  0  0  0  0  0  0  0  0  0  0  # atno 17342 bound_to 10162
  139.7950  144.7396  150.9902 LP  0  0  0  0  0  0  0  0  0  0  0  0  # atno 17343 bound_to 10162
  157.2198  130.6476  149.5807 LP  0  0  0  0  0  0  0  0  0  0  0  0  # atno 17370 bound_to 10713
  155.9719  130.4633  150.6176 LP  0  0  0  0  0  0  0  0  0  0  0  0  # atno 17371 bound_to 10713
  141.1591  133.6540  156.4257 LP  0  0  0  0  0  0  0  0  0  0  0  0  # atno 17394 bound_to 11000
  140.4850  134.6629  157.5187 LP  0  0  0  0  0  0  0  0  0  0  0  0  # atno 17395 bound_to 11000

$$$$
