AV-unprocessed.smi:2379|AV-procd|sdf|9452|dock4
  -GOLD-   2272013 83D 1   1.00000     0.00000
 Structure written by MMmdl.
 53 55  0  0  0  0  0  0  0  0  2 V2000
  153.7185  141.5580  161.5384 C   0  0  0  0  0  0  0  0  0  0  0  0
  152.9683  141.9649  160.2874 C   0  0  0  0  0  0  0  0  0  0  0  0
  153.0550  143.2784  159.7875 C   0  0  0  0  0  0  0  0  0  0  0  0
  152.3328  143.5942  158.6200 C   0  0  0  0  0  0  0  0  0  0  0  0
  152.3845  144.9852  158.0238 C   0  0  0  0  0  0  0  0  0  0  0  0
  151.5613  142.6996  157.9662 N   0  0  0  0  0  0  0  0  0  0  0  0
  151.4681  141.4324  158.4400 C   0  0  0  0  0  0  0  0  0  0  0  0
  150.6865  140.4184  157.8250 N   0  0  0  0  0  0  0  0  0  0  0  0
  149.7198  140.5626  156.9012 C   0  0  0  0  0  0  0  0  0  0  0  0
  149.3296  141.6347  156.4378 O   0  0  0  0  0  0  0  0  0  0  0  0
  149.2112  139.3757  156.5382 N   0  0  0  0  0  0  0  0  0  0  0  0
  148.1248  139.1874  155.5806 C   0  0  2  0  0  0  0  0  0  0  0  0
  147.8484  137.6876  155.3893 C   0  0  0  0  0  0  0  0  0  0  0  0
  146.7604  137.4516  154.3274 C   0  0  0  0  0  0  0  0  0  0  0  0
  147.1227  138.0860  153.0330 N   0  3  1  0  0  0  0  0  0  0  0  0
  146.1623  137.7626  151.9453 C   0  0  0  0  0  0  0  0  0  0  0  0
  145.6599  136.3073  152.0222 C   0  0  1  0  0  0  0  0  0  0  0  0
  144.3342  136.1672  152.7445 C   0  0  0  0  0  0  0  0  0  0  0  0
  143.8643  134.7889  152.2906 C   0  0  0  0  0  0  0  0  0  0  0  0
  144.3858  134.6178  150.9769 O   0  0  0  0  0  0  0  0  0  0  0  0
  145.3182  135.6524  150.6820 C   0  0  0  0  0  0  0  0  0  0  0  0
  147.3552  139.5458  153.1922 C   0  0  0  0  0  0  0  0  0  0  0  0
  148.4649  139.8220  154.2194 C   0  0  0  0  0  0  0  0  0  0  0  0
  152.1655  141.0310  159.6016 C   0  0  0  0  0  0  0  0  0  0  0  0
  154.3795  142.3546  161.8811 H   0  0  0  0  0  0  0  0  0  0  0  0
  154.3246  140.6724  161.3459 H   0  0  0  0  0  0  0  0  0  0  0  0
  153.0170  141.3272  162.3402 H   0  0  0  0  0  0  0  0  0  0  0  0
  153.6587  144.0235  160.2848 H   0  0  0  0  0  0  0  0  0  0  0  0
  153.1463  145.5953  158.5099 H   0  0  0  0  0  0  0  0  0  0  0  0
  151.4214  145.4826  158.1409 H   0  0  0  0  0  0  0  0  0  0  0  0
  152.6188  144.9353  156.9601 H   0  0  0  0  0  0  0  0  0  0  0  0
  150.8829  139.4764  158.1289 H   0  0  0  0  0  0  0  0  0  0  0  0
  149.5909  138.5450  156.9682 H   0  0  0  0  0  0  0  0  0  0  0  0
  147.2209  139.6550  155.9763 H   0  0  0  0  0  0  0  0  0  0  0  0
  148.7640  137.1761  155.0880 H   0  0  0  0  0  0  0  0  0  0  0  0
  147.5413  137.2401  156.3355 H   0  0  0  0  0  0  0  0  0  0  0  0
  146.6309  136.3775  154.1880 H   0  0  0  0  0  0  0  0  0  0  0  0
  145.8033  137.8462  154.6728 H   0  0  0  0  0  0  0  0  0  0  0  0
  145.2889  138.4102  152.0349 H   0  0  0  0  0  0  0  0  0  0  0  0
  146.5926  137.9856  150.9676 H   0  0  0  0  0  0  0  0  0  0  0  0
  146.3962  135.6923  152.5426 H   0  0  0  0  0  0  0  0  0  0  0  0
  144.4249  136.2462  153.8284 H   0  0  0  0  0  0  0  0  0  0  0  0
  143.6317  136.9303  152.4049 H   0  0  0  0  0  0  0  0  0  0  0  0
  144.2815  134.0128  152.9332 H   0  0  0  0  0  0  0  0  0  0  0  0
  142.7784  134.6932  152.3046 H   0  0  0  0  0  0  0  0  0  0  0  0
  144.8360  136.3660  150.0127 H   0  0  0  0  0  0  0  0  0  0  0  0
  146.1968  135.2512  150.1764 H   0  0  0  0  0  0  0  0  0  0  0  0
  147.6337  139.9932  152.2399 H   0  0  0  0  0  0  0  0  0  0  0  0
  146.4291  140.0308  153.5055 H   0  0  0  0  0  0  0  0  0  0  0  0
  148.6009  140.8989  154.3260 H   0  0  0  0  0  0  0  0  0  0  0  0
  149.4116  139.4260  153.8488 H   0  0  0  0  0  0  0  0  0  0  0  0
  152.0845  140.0178  159.9685 H   0  0  0  0  0  0  0  0  0  0  0  0
  148.0044  137.6748  152.7615 H   0  0  0  0  0  0  0  0  0  0  0  0
  1  2  1  0  0  0  0
  1 25  1  0  0  0  0
  1 26  1  0  0  0  0
  1 27  1  0  0  0  0
  2 24  1  0  0  0  0
  2  3  2  0  0  0  0
  3  4  1  0  0  0  0
  3 28  1  0  0  0  0
  4  5  1  0  0  0  0
  4  6  2  0  0  0  0
  5 29  1  0  0  0  0
  5 30  1  0  0  0  0
  5 31  1  0  0  0  0
  6  7  1  0  0  0  0
  7  8  1  0  0  0  0
  7 24  2  0  0  0  0
  8  9  1  0  0  0  0
  8 32  1  0  0  0  0
  9 10  2  0  0  0  0
  9 11  1  0  0  0  0
 11 12  1  0  0  0  0
 11 33  1  0  0  0  0
 12 23  1  0  0  0  0
 12 13  1  0  0  0  0
 12 34  1  0  0  0  0
 13 14  1  0  0  0  0
 13 35  1  0  0  0  0
 13 36  1  0  0  0  0
 14 15  1  0  0  0  0
 14 37  1  0  0  0  0
 14 38  1  0  0  0  0
 15 16  1  0  0  0  0
 15 22  1  0  0  0  0
 15 53  1  0  0  0  0
 16 17  1  0  0  0  0
 16 39  1  0  0  0  0
 16 40  1  0  0  0  0
 17 21  1  0  0  0  0
 17 18  1  0  0  0  0
 17 41  1  0  0  0  0
 18 19  1  0  0  0  0
 18 42  1  0  0  0  0
 18 43  1  0  0  0  0
 19 20  1  0  0  0  0
 19 44  1  0  0  0  0
 19 45  1  0  0  0  0
 20 21  1  0  0  0  0
 21 46  1  0  0  0  0
 21 47  1  0  0  0  0
 22 23  1  0  0  0  0
 22 48  1  0  0  0  0
 22 49  1  0  0  0  0
 23 50  1  0  0  0  0
 23 51  1  0  0  0  0
 24 52  1  0  0  0  0
M  CHG  1  15   1
M  END
> <s_m_source_file>
AV-unprocessed.smi

> <i_m_source_file_index>
2379

> <i_lp_mmshare_version>
43012

> <i_f3d_flags>
0

> <s_epik_input>
W0NIM11jMVtjSF1jKFtDSDNdKW5jKFtjSF0xKVtOSF1DKD1PKVtOSF1bQ0hdMltDSDJdW0NIMl1OKFtDSDJdW0NIMl0yKVtDSDJdW0NAQEhdM1tDSDJdW0NIMl1PW0NIMl0z

> <s_epik_cmdline>
J2VwaWtfcHl0aG9uJywgJy1waCcsICc3LjAnLCAnLXRuJywgJzgnLCAnLW1hJywgJzIwMCcsICctbWV0YWxfYmluZGluZycsICctaW1hZScsICc8aW5maWxlLm1hZT4nLCAnLW9tYWUnLCAnPG91dGZpbGUubWFlPic=

> <r_epik_Ionization_Penalty>
0.00766556

> <r_epik_Ionization_Penalty_Charging>
0.00747775

> <r_epik_Ionization_Penalty_Neutral>
0.00018781

> <r_epik_State_Penalty>
0.00558817

> <r_epik_Charging_Adjusted_Penalty>
0.0130659

> <i_epik_Tot_Q>
1

> <i_epik_Tot_abs_Q>
1

> <r_epik_Metal_State_Penalty>
-0

> <b_epik_Metal_Only>
0

> <s_lp_Force_Field>
OPLS_2005

> <r_lp_Energy>
35.6798

> <b_lp_Chiralities_Consistent>
1

> <s_lp_Variant>
AV-unprocessed.smi:2379-2

> <Gold.Version>
5.8.1

> <Gold.Id.Protein>
6NUR|6NUR_protein|mol2

> <Gold.PLP.Fitness>
46.4094

> <Gold.PLP.PLP>
-41.6803

> <Gold.PLP.part.hbond>
-1.0000

> <Gold.PLP.part.metal>
0.0000

> <Gold.PLP.part.buried>
-4.9348

> <Gold.PLP.part.nonpolar>
-37.2173

> <Gold.PLP.part.repulsive>
0.4727

> <Gold.PLP.ligand.clash>
0.0000

> <Gold.PLP.ligand.torsion>
0.6614

> <Gold.PLP.Chemscore.Hbond>
2.0000

> <Gold.PLP.Chemscore.CHOScore>
0.0000

> <Gold.PLP.Chemscore.Metal>
0.0000

> <Gold.Chemscore.Hbonds>
donor molecule, donor type, donor heavy atom, donor atom, acceptor molecule, acceptor atom, score
      L1  H    15    53       P1  7948  1.95

> <Gold.PLP.Chemscore.Internal.Correction>
0.0520

> <Gold.Rescore>
     Score         DG    S(hbond)    S(metal)    S(lipo)     H(rot)  DE(clash)    DE(int)     intcor
     16.14     -18.06       0.97        0.00     109.97       1.37       0.03       1.89       ----

> <Gold.Chemscore.Fitness>
16.1366

> <Gold.Chemscore.DG>
-18.0641

> <Gold.Chemscore.ZeroCoef>
-5.4800

> <Gold.Chemscore.Hbond>
0.9675

> <Gold.Chemscore.Metal>
0.0000

> <Gold.Chemscore.Lipo>
109.9691

> <Gold.Chemscore.Internal_Hbond>
0.0000

> <Gold.Chemscore.DEClash>
0.0338

> <Gold.Chemscore.DEInternal>
1.8937

> <Gold.Chemscore.Rot>
1.3725

> <Gold.Chemscore.Internal.Correction>
   9.000000E+99

> <Gold.Chemscore.Hbonds>
donor molecule, donor type, donor heavy atom, donor atom, acceptor molecule, acceptor atom, score
      L1  H    15    53       P1  7948  0.93

> <Gold.Chemscore.Hbond.Weighted>
-3.2313

> <Gold.Chemscore.Metal.Weighted>
-0.0000

> <Gold.Chemscore.Lipo.Weighted>
-12.8664

> <Gold.Chemscore.Internal_Hbond.Weighted>
0.0000

> <Gold.Chemscore.DEClash.Weighted>
0.0338

> <Gold.Chemscore.DEInternal.Weighted>
1.8937

> <Gold.Chemscore.Rot.Weighted>
3.5136

> <Gold.Chemscore.Internal.Correction.Weighted>
   9.000000E+99

> <Gold.Protein.RotatedTorsions>
[ 6907 6896 6895 6894 ] final  116.54 input  -60.11 | X-H torsion
[ 7974 7965 7964 7962 ] final  -83.08 input  175.53 | X-H torsion
[ 8008 7997 7996 7995 ] final  -10.06 input   59.86 | X-H torsion
[ 10167 10162 10161 10158 ] final   17.26 input  -65.29 | X-H torsion
[ 10718 10713 10712 10709 ] final  154.10 input   66.30 | X-H torsion
[ 10763 10752 10751 10750 ] final  -97.94 input  -60.55 | X-H torsion
[ 11005 11000 10999 10996 ] final  -99.21 input  -57.11 | X-H torsion

> <Gold.Protein.ActiveResidues>
 VAL166  LYS551  ARG553  GLY616  TRP617  ASP618  TYR619  PRO620  LYS621  CYS622 
 ASP623  PHE694  ASN695  SER759  ASP760  ASP761  ALA762  ILE779  LEU786  VAL792 
 PHE793  MET794  SER795  GLU796  ALA797  LYS798  CYS799  TRP800  GLU811  SER814 

> <Gold.Protein.RotatedAtoms>
  152.4671  133.7947  159.6920 H   0  0  0  0  0  0  0  0  0  0  0  0  # atno 6907 bound_to 6896
  150.8641  133.7590  159.2989 H   0  0  0  0  0  0  0  0  0  0  0  0  # atno 6908 bound_to 6896
  151.5146  135.1069  159.9915 H   0  0  0  0  0  0  0  0  0  0  0  0  # atno 6909 bound_to 6896
  145.5247  140.9528  143.1636 H   0  0  0  0  0  0  0  0  0  0  0  0  # atno 7974 bound_to 7965
  154.5589  140.2339  155.8366 H   0  0  0  0  0  0  0  0  0  0  0  0  # atno 8008 bound_to 7997
  156.2012  140.3052  155.9491 H   0  0  0  0  0  0  0  0  0  0  0  0  # atno 8009 bound_to 7997
  155.2927  140.0427  157.3014 H   0  0  0  0  0  0  0  0  0  0  0  0  # atno 8010 bound_to 7997
  140.5739  143.9110  150.6734 H   0  0  0  0  0  0  0  0  0  0  0  0  # atno 10167 bound_to 10162
  157.2361  131.0749  151.1822 H   0  0  0  0  0  0  0  0  0  0  0  0  # atno 10718 bound_to 10713
  154.7372  135.5027  153.9061 H   0  0  0  0  0  0  0  0  0  0  0  0  # atno 10763 bound_to 10752
  153.1007  135.6684  153.9687 H   0  0  0  0  0  0  0  0  0  0  0  0  # atno 10764 bound_to 10752
  153.9474  135.3061  155.3419 H   0  0  0  0  0  0  0  0  0  0  0  0  # atno 10765 bound_to 10752
  141.1317  133.8304  157.0942 H   0  0  0  0  0  0  0  0  0  0  0  0  # atno 11005 bound_to 11000
  144.7657  139.6850  143.7216 LP  0  0  0  0  0  0  0  0  0  0  0  0  # atno 17320 bound_to 7965
  146.2083  139.5422  142.9698 LP  0  0  0  0  0  0  0  0  0  0  0  0  # atno 17321 bound_to 7965
  140.2592  143.3536  152.1338 LP  0  0  0  0  0  0  0  0  0  0  0  0  # atno 17342 bound_to 10162
  139.5132  144.6929  151.5711 LP  0  0  0  0  0  0  0  0  0  0  0  0  # atno 17343 bound_to 10162
  157.3427  130.7042  149.6392 LP  0  0  0  0  0  0  0  0  0  0  0  0  # atno 17370 bound_to 10713
  155.9672  130.4275  150.4747 LP  0  0  0  0  0  0  0  0  0  0  0  0  # atno 17371 bound_to 10713
  140.0373  134.9871  157.0896 LP  0  0  0  0  0  0  0  0  0  0  0  0  # atno 17394 bound_to 11000
  140.4190  134.1901  155.7164 LP  0  0  0  0  0  0  0  0  0  0  0  0  # atno 17395 bound_to 11000

$$$$
