AV-unprocessed.smi:1250|AV-procd|sdf|5255|dock7
  -GOLD-   22720 4363D 1   1.00000     0.00000
 Structure written by MMmdl.
 41 42  0  0  0  0  0  0  0  0  1 V2000
  152.7606  144.6486  158.4207 C   0  0  0  0  0  0  0  0  0  0  0  0
  152.1428  143.5852  159.3499 C   0  0  0  0  0  0  0  0  0  0  0  0
  153.0289  142.3260  159.3465 C   0  0  0  0  0  0  0  0  0  0  0  0
  150.6680  143.2687  158.9844 C   0  0  1  0  0  0  0  0  0  0  0  0
  149.6824  144.3682  159.4233 C   0  0  0  0  0  0  0  0  0  0  0  0
  150.5343  143.0687  157.5417 N   0  0  0  0  0  0  0  0  0  0  0  0
  150.9334  141.9809  156.8634 C   0  0  0  0  0  0  0  0  0  0  0  0
  151.4728  141.0090  157.3922 O   0  0  0  0  0  0  0  0  0  0  0  0
  150.6824  141.9868  155.3550 C   0  0  0  0  0  0  0  0  0  0  0  0
  149.8052  140.8309  154.9681 C   0  0  0  0  0  0  0  0  0  0  0  0
  148.5599  140.8977  154.3910 C   0  0  0  0  0  0  0  0  0  0  0  0
  147.8844  139.3178  154.1073 S   0  0  0  0  0  0  0  0  0  0  0  0
  149.3430  138.6062  154.8047 C   0  0  0  0  0  0  0  0  0  0  0  0
  149.6053  137.2139  154.9741 N   0  0  0  0  0  0  0  0  0  0  0  0
  148.5276  136.2400  155.1191 C   0  0  0  0  0  0  0  0  0  0  0  0
  149.1920  134.8617  155.0356 C   0  0  0  0  0  0  0  0  0  0  0  0
  150.6849  135.1205  155.2278 C   0  0  0  0  0  0  0  0  0  0  0  0
  150.8119  136.6240  155.0457 C   0  0  0  0  0  0  0  0  0  0  0  0
  151.9113  137.1729  154.9872 O   0  0  0  0  0  0  0  0  0  0  0  0
  150.2360  139.5200  155.2007 N   0  0  0  0  0  0  0  0  0  0  0  0
  152.7280  144.3287  157.3788 H   0  0  0  0  0  0  0  0  0  0  0  0
  153.8039  144.8355  158.6766 H   0  0  0  0  0  0  0  0  0  0  0  0
  152.2417  145.6045  158.4922 H   0  0  0  0  0  0  0  0  0  0  0  0
  152.1612  143.9927  160.3617 H   0  0  0  0  0  0  0  0  0  0  0  0
  153.0001  141.8243  158.3789 H   0  0  0  0  0  0  0  0  0  0  0  0
  152.7197  141.6093  160.1065 H   0  0  0  0  0  0  0  0  0  0  0  0
  154.0689  142.5771  159.5571 H   0  0  0  0  0  0  0  0  0  0  0  0
  150.3923  142.3429  159.4932 H   0  0  0  0  0  0  0  0  0  0  0  0
  149.6530  144.4772  160.5069 H   0  0  0  0  0  0  0  0  0  0  0  0
  148.6658  144.1356  159.1042 H   0  0  0  0  0  0  0  0  0  0  0  0
  149.9495  145.3348  158.9950 H   0  0  0  0  0  0  0  0  0  0  0  0
  150.0993  143.8157  157.0196 H   0  0  0  0  0  0  0  0  0  0  0  0
  150.2320  142.9383  155.0683 H   0  0  0  0  0  0  0  0  0  0  0  0
  151.6378  141.9303  154.8321 H   0  0  0  0  0  0  0  0  0  0  0  0
  148.0035  141.7804  154.1122 H   0  0  0  0  0  0  0  0  0  0  0  0
  148.0464  136.3792  156.0885 H   0  0  0  0  0  0  0  0  0  0  0  0
  147.7702  136.3599  154.3432 H   0  0  0  0  0  0  0  0  0  0  0  0
  148.7943  134.1735  155.7821 H   0  0  0  0  0  0  0  0  0  0  0  0
  149.0168  134.4194  154.0539 H   0  0  0  0  0  0  0  0  0  0  0  0
  151.0097  134.8494  156.2327 H   0  0  0  0  0  0  0  0  0  0  0  0
  151.2937  134.5774  154.5040 H   0  0  0  0  0  0  0  0  0  0  0  0
  1  2  1  0  0  0  0
  1 21  1  0  0  0  0
  1 22  1  0  0  0  0
  1 23  1  0  0  0  0
  2  3  1  0  0  0  0
  2  4  1  0  0  0  0
  2 24  1  0  0  0  0
  3 25  1  0  0  0  0
  3 26  1  0  0  0  0
  3 27  1  0  0  0  0
  4  5  1  0  0  0  0
  4  6  1  0  0  0  0
  4 28  1  0  0  0  0
  5 29  1  0  0  0  0
  5 30  1  0  0  0  0
  5 31  1  0  0  0  0
  6  7  1  0  0  0  0
  6 32  1  0  0  0  0
  7  8  2  0  0  0  0
  7  9  1  0  0  0  0
  9 10  1  0  0  0  0
  9 33  1  0  0  0  0
  9 34  1  0  0  0  0
 10 20  1  0  0  0  0
 10 11  2  0  0  0  0
 11 12  1  0  0  0  0
 11 35  1  0  0  0  0
 12 13  1  0  0  0  0
 13 14  1  0  0  0  0
 13 20  2  0  0  0  0
 14 18  1  0  0  0  0
 14 15  1  0  0  0  0
 15 16  1  0  0  0  0
 15 36  1  0  0  0  0
 15 37  1  0  0  0  0
 16 17  1  0  0  0  0
 16 38  1  0  0  0  0
 16 39  1  0  0  0  0
 17 18  1  0  0  0  0
 17 40  1  0  0  0  0
 17 41  1  0  0  0  0
 18 19  2  0  0  0  0
M  END
> <s_m_source_file>
AV-unprocessed.smi

> <i_m_source_file_index>
1250

> <i_lp_mmshare_version>
43012

> <i_f3d_flags>
0

> <s_epik_input>
W0NIM11bQ0hdKFtDSDNdKVtDQEhdKFtDSDNdKVtOSF1DKD1PKVtDSDJdYzFbY0hdc2MobjEpTjJbQ0gyXVtDSDJdW0NIMl1DMj1P

> <s_epik_cmdline>
J2VwaWtfcHl0aG9uJywgJy1waCcsICc3LjAnLCAnLXRuJywgJzgnLCAnLW1hJywgJzIwMCcsICctbWV0YWxfYmluZGluZycsICctaW1hZScsICc8aW5maWxlLm1hZT4nLCAnLW9tYWUnLCAnPG91dGZpbGUubWFlPic=

> <r_lp_tautomer_probability>
1

> <r_epik_Ionization_Penalty>
3.03552e-05

> <r_epik_Ionization_Penalty_Charging>
0

> <r_epik_Ionization_Penalty_Neutral>
3.03552e-05

> <r_epik_State_Penalty>
-0

> <r_epik_Charging_Adjusted_Penalty>
0

> <i_epik_Tot_Q>
0

> <i_epik_Tot_abs_Q>
0

> <r_epik_Metal_State_Penalty>
-0

> <b_epik_Metal_Only>
0

> <s_lp_Force_Field>
OPLS_2005

> <r_lp_Energy>
19.4329

> <b_lp_Chiralities_Consistent>
1

> <s_lp_Variant>
AV-unprocessed.smi:1250-2

> <Gold.Version>
5.8.1

> <Gold.Id.Protein>
6NUR|6NUR_protein|mol2

> <Gold.PLP.Fitness>
38.1507

> <Gold.PLP.PLP>
-33.7043

> <Gold.PLP.part.hbond>
-2.0000

> <Gold.PLP.part.metal>
0.0000

> <Gold.PLP.part.buried>
-2.8319

> <Gold.PLP.part.nonpolar>
-28.4748

> <Gold.PLP.part.repulsive>
0.1640

> <Gold.PLP.ligand.clash>
0.0000

> <Gold.PLP.ligand.torsion>
0.7821

> <Gold.PLP.Chemscore.Hbond>
1.9920

> <Gold.PLP.Chemscore.CHOScore>
0.0000

> <Gold.PLP.Chemscore.Metal>
0.0000

> <Gold.Chemscore.Hbonds>
donor molecule, donor type, donor heavy atom, donor atom, acceptor molecule, acceptor atom, score
      L1  H     6    32       P1  8028  1.00
      P1  H 10752 10764       L1    19  0.86

> <Gold.PLP.Chemscore.Internal.Correction>
0.0346

> <Gold.Rescore>
     Score         DG    S(hbond)    S(metal)    S(lipo)     H(rot)  DE(clash)    DE(int)     intcor
     11.29     -18.41       1.96        0.00      89.07       1.58       2.40       4.72       ----

> <Gold.Chemscore.Fitness>
11.2876

> <Gold.Chemscore.DG>
-18.4097

> <Gold.Chemscore.ZeroCoef>
-5.4800

> <Gold.Chemscore.Hbond>
1.9600

> <Gold.Chemscore.Metal>
0.0000

> <Gold.Chemscore.Lipo>
89.0745

> <Gold.Chemscore.Internal_Hbond>
0.0000

> <Gold.Chemscore.DEClash>
2.3973

> <Gold.Chemscore.DEInternal>
4.7248

> <Gold.Chemscore.Rot>
1.5775

> <Gold.Chemscore.Internal.Correction>
   9.000000E+99

> <Gold.Chemscore.Hbonds>
donor molecule, donor type, donor heavy atom, donor atom, acceptor molecule, acceptor atom, score
      L1  H     6    32       P1  8028  0.92
      P1  H 10752 10764       L1    19  0.16

> <Gold.Chemscore.Hbond.Weighted>
-6.5465

> <Gold.Chemscore.Metal.Weighted>
-0.0000

> <Gold.Chemscore.Lipo.Weighted>
-10.4217

> <Gold.Chemscore.Internal_Hbond.Weighted>
0.0000

> <Gold.Chemscore.DEClash.Weighted>
2.3973

> <Gold.Chemscore.DEInternal.Weighted>
4.7248

> <Gold.Chemscore.Rot.Weighted>
4.0385

> <Gold.Chemscore.Internal.Correction.Weighted>
   9.000000E+99

> <Gold.Protein.RotatedTorsions>
[ 6907 6896 6895 6894 ] final  -52.91 input  -60.11 | X-H torsion
[ 7974 7965 7964 7962 ] final  -83.14 input  175.53 | X-H torsion
[ 8008 7997 7996 7995 ] final    2.86 input   59.86 | X-H torsion
[ 10167 10162 10161 10158 ] final  -74.32 input  -65.29 | X-H torsion
[ 10718 10713 10712 10709 ] final -133.33 input   66.30 | X-H torsion
[ 10763 10752 10751 10750 ] final  -58.91 input  -60.55 | X-H torsion
[ 11005 11000 10999 10996 ] final  -25.77 input  -57.11 | X-H torsion

> <Gold.Protein.ActiveResidues>
 VAL166  LYS551  ARG553  GLY616  TRP617  ASP618  TYR619  PRO620  LYS621  CYS622 
 ASP623  PHE694  ASN695  SER759  ASP760  ASP761  ALA762  ILE779  LEU786  VAL792 
 PHE793  MET794  SER795  GLU796  ALA797  LYS798  CYS799  TRP800  GLU811  SER814 

> <Gold.Protein.RotatedAtoms>
  150.8474  134.7788  159.6981 H   0  0  0  0  0  0  0  0  0  0  0  0  # atno 6907 bound_to 6896
  152.4548  134.5313  159.9821 H   0  0  0  0  0  0  0  0  0  0  0  0  # atno 6908 bound_to 6896
  151.5440  133.3390  159.2976 H   0  0  0  0  0  0  0  0  0  0  0  0  # atno 6909 bound_to 6896
  145.5240  140.9528  143.1640 H   0  0  0  0  0  0  0  0  0  0  0  0  # atno 7974 bound_to 7965
  154.6966  140.2664  155.6760 H   0  0  0  0  0  0  0  0  0  0  0  0  # atno 8008 bound_to 7997
  156.2751  140.2780  156.1486 H   0  0  0  0  0  0  0  0  0  0  0  0  # atno 8009 bound_to 7997
  155.0822  140.0372  157.2632 H   0  0  0  0  0  0  0  0  0  0  0  0  # atno 8010 bound_to 7997
  140.5037  143.2356  151.7710 H   0  0  0  0  0  0  0  0  0  0  0  0  # atno 10167 bound_to 10162
  156.2439  130.7112  151.0984 H   0  0  0  0  0  0  0  0  0  0  0  0  # atno 10718 bound_to 10713
  154.2454  135.6336  153.5222 H   0  0  0  0  0  0  0  0  0  0  0  0  # atno 10763 bound_to 10752
  152.9922  135.5552  154.5865 H   0  0  0  0  0  0  0  0  0  0  0  0  # atno 10764 bound_to 10752
  154.5380  135.2893  155.1096 H   0  0  0  0  0  0  0  0  0  0  0  0  # atno 10765 bound_to 10752
  140.8968  133.7551  156.0491 H   0  0  0  0  0  0  0  0  0  0  0  0  # atno 11005 bound_to 11000
  144.7661  139.6842  143.7214 LP  0  0  0  0  0  0  0  0  0  0  0  0  # atno 17320 bound_to 7965
  146.2088  139.5430  142.9695 LP  0  0  0  0  0  0  0  0  0  0  0  0  # atno 17321 bound_to 7965
  139.4878  144.4487  151.9680 LP  0  0  0  0  0  0  0  0  0  0  0  0  # atno 17342 bound_to 10162
  140.3577  144.3012  150.5938 LP  0  0  0  0  0  0  0  0  0  0  0  0  # atno 17343 bound_to 10162
  157.7187  131.0695  150.6226 LP  0  0  0  0  0  0  0  0  0  0  0  0  # atno 17370 bound_to 10713
  156.6301  130.4429  149.5790 LP  0  0  0  0  0  0  0  0  0  0  0  0  # atno 17371 bound_to 10713
  140.8279  134.3212  157.5359 LP  0  0  0  0  0  0  0  0  0  0  0  0  # atno 17394 bound_to 11000
  139.8736  134.9347  156.3613 LP  0  0  0  0  0  0  0  0  0  0  0  0  # atno 17395 bound_to 11000

$$$$
