AV-unprocessed.smi:2386|AV-procd|sdf|9468|dock4
  -GOLD-   2272013 93D 1   1.00000     0.00000
 Structure written by MMmdl.
 42 43  0  0  0  0  0  0  0  0  1 V2000
  153.7499  141.0386  159.7935 C   0  0  0  0  0  0  0  0  0  0  0  0
  152.8945  142.2081  159.3537 C   0  0  0  0  0  0  0  0  0  0  0  0
  152.9560  143.4437  160.0268 C   0  0  0  0  0  0  0  0  0  0  0  0
  152.1377  144.4905  159.5663 C   0  0  0  0  0  0  0  0  0  0  0  0
  151.2984  144.2607  158.4590 C   0  0  0  0  0  0  0  0  0  0  0  0
  151.2986  142.9914  157.8382 C   0  0  0  0  0  0  0  0  0  0  0  0
  150.4206  142.8629  156.7290 N   0  0  0  0  0  0  0  0  0  0  0  0
  150.1100  141.7508  156.0396 C   0  0  0  0  0  0  0  0  0  0  0  0
  150.5410  140.6217  156.2762 O   0  0  0  0  0  0  0  0  0  0  0  0
  149.2605  142.0214  155.0379 N   0  0  0  0  0  0  0  0  0  0  0  0
  148.7475  141.0392  154.0893 C   0  0  0  0  0  0  0  0  0  0  0  0
  147.2212  141.1427  153.9406 C   0  0  0  0  0  0  0  0  0  0  0  0
  146.7773  142.5356  153.4630 C   0  0  0  0  0  0  0  0  0  0  0  0
  145.5269  143.0210  154.0450 N   0  0  0  0  0  0  0  0  0  0  0  0
  145.5801  143.1062  155.5033 C   0  0  0  0  0  0  0  0  0  0  0  0
  144.2691  143.6524  156.0961 C   0  0  0  0  0  0  0  0  0  0  0  0
  143.9741  144.9214  155.5222 O   0  0  0  0  0  0  0  0  0  0  0  0
  143.8651  144.8689  154.1040 C   0  0  0  0  0  0  0  0  0  0  0  0
  145.1772  144.3315  153.5074 C   0  0  0  0  0  0  0  0  0  0  0  0
  152.0912  141.9880  158.2907 N   0  0  0  0  0  0  0  0  0  0  0  0
  154.1693  141.2085  160.7853 H   0  0  0  0  0  0  0  0  0  0  0  0
  154.5731  140.8906  159.0943 H   0  0  0  0  0  0  0  0  0  0  0  0
  153.1594  140.1224  159.8283 H   0  0  0  0  0  0  0  0  0  0  0  0
  153.6118  143.5882  160.8727 H   0  0  0  0  0  0  0  0  0  0  0  0
  152.1532  145.4543  160.0532 H   0  0  0  0  0  0  0  0  0  0  0  0
  150.6639  145.0547  158.0929 H   0  0  0  0  0  0  0  0  0  0  0  0
  149.9887  143.7197  156.4167 H   0  0  0  0  0  0  0  0  0  0  0  0
  148.9542  142.9754  154.9154 H   0  0  0  0  0  0  0  0  0  0  0  0
  149.2357  141.1620  153.1208 H   0  0  0  0  0  0  0  0  0  0  0  0
  149.0194  140.0470  154.4498 H   0  0  0  0  0  0  0  0  0  0  0  0
  146.8740  140.3882  153.2335 H   0  0  0  0  0  0  0  0  0  0  0  0
  146.7541  140.9110  154.8977 H   0  0  0  0  0  0  0  0  0  0  0  0
  147.5756  143.2558  153.6489 H   0  0  0  0  0  0  0  0  0  0  0  0
  146.6615  142.4910  152.3793 H   0  0  0  0  0  0  0  0  0  0  0  0
  145.7710  142.1239  155.9339 H   0  0  0  0  0  0  0  0  0  0  0  0
  146.4081  143.7484  155.8069 H   0  0  0  0  0  0  0  0  0  0  0  0
  143.4449  142.9617  155.9111 H   0  0  0  0  0  0  0  0  0  0  0  0
  144.3588  143.7621  157.1769 H   0  0  0  0  0  0  0  0  0  0  0  0
  143.0232  144.2362  153.8193 H   0  0  0  0  0  0  0  0  0  0  0  0
  143.6573  145.8695  153.7249 H   0  0  0  0  0  0  0  0  0  0  0  0
  145.9810  145.0407  153.7105 H   0  0  0  0  0  0  0  0  0  0  0  0
  145.0807  144.2726  152.4227 H   0  0  0  0  0  0  0  0  0  0  0  0
  1  2  1  0  0  0  0
  1 21  1  0  0  0  0
  1 22  1  0  0  0  0
  1 23  1  0  0  0  0
  2 20  1  0  0  0  0
  2  3  2  0  0  0  0
  3  4  1  0  0  0  0
  3 24  1  0  0  0  0
  4  5  2  0  0  0  0
  4 25  1  0  0  0  0
  5  6  1  0  0  0  0
  5 26  1  0  0  0  0
  6  7  1  0  0  0  0
  6 20  2  0  0  0  0
  7  8  1  0  0  0  0
  7 27  1  0  0  0  0
  8  9  2  0  0  0  0
  8 10  1  0  0  0  0
 10 11  1  0  0  0  0
 10 28  1  0  0  0  0
 11 12  1  0  0  0  0
 11 29  1  0  0  0  0
 11 30  1  0  0  0  0
 12 13  1  0  0  0  0
 12 31  1  0  0  0  0
 12 32  1  0  0  0  0
 13 14  1  0  0  0  0
 13 33  1  0  0  0  0
 13 34  1  0  0  0  0
 14 19  1  0  0  0  0
 14 15  1  0  0  0  0
 15 16  1  0  0  0  0
 15 35  1  0  0  0  0
 15 36  1  0  0  0  0
 16 17  1  0  0  0  0
 16 37  1  0  0  0  0
 16 38  1  0  0  0  0
 17 18  1  0  0  0  0
 18 19  1  0  0  0  0
 18 39  1  0  0  0  0
 18 40  1  0  0  0  0
 19 41  1  0  0  0  0
 19 42  1  0  0  0  0
M  END
> <s_m_source_file>
AV-unprocessed.smi

> <i_m_source_file_index>
2386

> <i_lp_mmshare_version>
43012

> <i_f3d_flags>
0

> <s_epik_input>
W0NIM11jMVtjSF1bY0hdW2NIXWMobjEpW05IXUMoPU8pW05IXVtDSDJdW0NIMl1bQ0gyXU4yW0NIMl1bQ0gyXU9bQ0gyXVtDSDJdMg==

> <s_epik_cmdline>
J2VwaWtfcHl0aG9uJywgJy1waCcsICc3LjAnLCAnLXRuJywgJzgnLCAnLW1hJywgJzIwMCcsICctbWV0YWxfYmluZGluZycsICctaW1hZScsICc8aW5maWxlLm1hZT4nLCAnLW9tYWUnLCAnPG91dGZpbGUubWFlPic=

> <r_epik_Ionization_Penalty>
0.594745

> <r_epik_Ionization_Penalty_Charging>
0

> <r_epik_Ionization_Penalty_Neutral>
0.594745

> <r_epik_State_Penalty>
0.608529

> <r_epik_Charging_Adjusted_Penalty>
0.608529

> <i_epik_Tot_Q>
0

> <i_epik_Tot_abs_Q>
0

> <r_epik_Metal_State_Penalty>
0.608525

> <b_epik_Metal_Only>
0

> <s_lp_Force_Field>
OPLS_2005

> <r_lp_Energy>
23.5162

> <b_lp_Chiralities_Consistent>
1

> <s_lp_Variant>
AV-unprocessed.smi:2386-2

> <Gold.Version>
5.8.1

> <Gold.Id.Protein>
6NUR|6NUR_protein|mol2

> <Gold.PLP.Fitness>
49.1750

> <Gold.PLP.PLP>
-44.0193

> <Gold.PLP.part.hbond>
-2.0000

> <Gold.PLP.part.metal>
0.0000

> <Gold.PLP.part.buried>
-7.6964

> <Gold.PLP.part.nonpolar>
-34.9825

> <Gold.PLP.part.repulsive>
0.5839

> <Gold.PLP.ligand.clash>
0.0000

> <Gold.PLP.ligand.torsion>
0.3245

> <Gold.PLP.Chemscore.Hbond>
1.9280

> <Gold.PLP.Chemscore.CHOScore>
0.0000

> <Gold.PLP.Chemscore.Metal>
0.0000

> <Gold.Chemscore.Hbonds>
donor molecule, donor type, donor heavy atom, donor atom, acceptor molecule, acceptor atom, score
      L1  H     7    27       P1  8028  1.00
      L1  H    10    28       P1  8028  0.96

> <Gold.PLP.Chemscore.Internal.Correction>
0.0206

> <Gold.Rescore>
     Score         DG    S(hbond)    S(metal)    S(lipo)     H(rot)  DE(clash)    DE(int)     intcor
     17.34     -18.96       1.96        0.00      96.24       1.69       0.02       1.60       ----

> <Gold.Chemscore.Fitness>
17.3421

> <Gold.Chemscore.DG>
-18.9556

> <Gold.Chemscore.ZeroCoef>
-5.4800

> <Gold.Chemscore.Hbond>
1.9579

> <Gold.Chemscore.Metal>
0.0000

> <Gold.Chemscore.Lipo>
96.2438

> <Gold.Chemscore.Internal_Hbond>
0.0000

> <Gold.Chemscore.DEClash>
0.0158

> <Gold.Chemscore.DEInternal>
1.5977

> <Gold.Chemscore.Rot>
1.6892

> <Gold.Chemscore.Internal.Correction>
   9.000000E+99

> <Gold.Chemscore.Hbonds>
donor molecule, donor type, donor heavy atom, donor atom, acceptor molecule, acceptor atom, score
      L1  H     7    27       P1  8028  0.99
      L1  H    10    28       P1  8028  0.92

> <Gold.Chemscore.Hbond.Weighted>
-6.5394

> <Gold.Chemscore.Metal.Weighted>
-0.0000

> <Gold.Chemscore.Lipo.Weighted>
-11.2605

> <Gold.Chemscore.Internal_Hbond.Weighted>
0.0000

> <Gold.Chemscore.DEClash.Weighted>
0.0158

> <Gold.Chemscore.DEInternal.Weighted>
1.5977

> <Gold.Chemscore.Rot.Weighted>
4.3243

> <Gold.Chemscore.Internal.Correction.Weighted>
   9.000000E+99

> <Gold.Protein.RotatedTorsions>
[ 6907 6896 6895 6894 ] final  -30.36 input  -60.11 | X-H torsion
[ 7974 7965 7964 7962 ] final -162.09 input  175.53 | X-H torsion
[ 8008 7997 7996 7995 ] final   80.20 input   59.86 | X-H torsion
[ 10167 10162 10161 10158 ] final   86.30 input  -65.29 | X-H torsion
[ 10718 10713 10712 10709 ] final  105.30 input   66.30 | X-H torsion
[ 10763 10752 10751 10750 ] final   31.16 input  -60.55 | X-H torsion
[ 11005 11000 10999 10996 ] final  -61.37 input  -57.11 | X-H torsion

> <Gold.Protein.ActiveResidues>
 VAL166  LYS551  ARG553  GLY616  TRP617  ASP618  TYR619  PRO620  LYS621  CYS622 
 ASP623  PHE694  ASN695  SER759  ASP760  ASP761  ALA762  ILE779  LEU786  VAL792 
 PHE793  MET794  SER795  GLU796  ALA797  LYS798  CYS799  TRP800  GLU811  SER814 

> <Gold.Protein.RotatedAtoms>
  151.1067  135.0003  159.8474 H   0  0  0  0  0  0  0  0  0  0  0  0  # atno 6907 bound_to 6896
  152.5440  134.1885  159.8674 H   0  0  0  0  0  0  0  0  0  0  0  0  # atno 6908 bound_to 6896
  151.1932  133.4610  159.2628 H   0  0  0  0  0  0  0  0  0  0  0  0  # atno 6909 bound_to 6896
  144.7369  140.3303  143.6154 H   0  0  0  0  0  0  0  0  0  0  0  0  # atno 7974 bound_to 7965
  155.8801  140.3444  155.5882 H   0  0  0  0  0  0  0  0  0  0  0  0  # atno 8008 bound_to 7997
  155.7729  140.0848  157.2118 H   0  0  0  0  0  0  0  0  0  0  0  0  # atno 8009 bound_to 7997
  154.4024  140.1515  156.2950 H   0  0  0  0  0  0  0  0  0  0  0  0  # atno 8010 bound_to 7997
  139.8889  144.6397  150.8760 H   0  0  0  0  0  0  0  0  0  0  0  0  # atno 10167 bound_to 10162
  157.6710  131.0824  150.5837 H   0  0  0  0  0  0  0  0  0  0  0  0  # atno 10718 bound_to 10713
  153.0331  135.6446  154.1156 H   0  0  0  0  0  0  0  0  0  0  0  0  # atno 10763 bound_to 10752
  154.0875  135.2869  155.3280 H   0  0  0  0  0  0  0  0  0  0  0  0  # atno 10764 bound_to 10752
  154.6487  135.5433  153.7940 H   0  0  0  0  0  0  0  0  0  0  0  0  # atno 10765 bound_to 10752
  141.1322  133.6629  156.5365 H   0  0  0  0  0  0  0  0  0  0  0  0  # atno 11005 bound_to 11000
  145.7479  139.1784  143.2338 LP  0  0  0  0  0  0  0  0  0  0  0  0  # atno 17320 bound_to 7965
  146.1084  140.7459  142.9515 LP  0  0  0  0  0  0  0  0  0  0  0  0  # atno 17321 bound_to 7965
  140.7730  143.3525  151.1985 LP  0  0  0  0  0  0  0  0  0  0  0  0  # atno 17342 bound_to 10162
  139.7127  143.9350  152.2954 LP  0  0  0  0  0  0  0  0  0  0  0  0  # atno 17343 bound_to 10162
  156.6137  130.4387  149.5849 LP  0  0  0  0  0  0  0  0  0  0  0  0  # atno 17370 bound_to 10713
  156.2410  130.6851  151.1555 LP  0  0  0  0  0  0  0  0  0  0  0  0  # atno 17371 bound_to 10713
  140.4174  134.7218  157.4870 LP  0  0  0  0  0  0  0  0  0  0  0  0  # atno 17394 bound_to 11000
  140.0384  134.6303  155.9013 LP  0  0  0  0  0  0  0  0  0  0  0  0  # atno 17395 bound_to 11000

$$$$
