AV-unprocessed.smi:184|AV-procd|sdf|1464|dock9
  -GOLD-   2262019273D 1   1.00000     0.00000
 Structure written by MMmdl.
 54 58  0  0  0  0  0  0  0  0  1 V2000
  154.4702  141.0859  161.0701 O   0  0  0  0  0  0  0  0  0  0  0  0
  153.4846  141.4840  160.4539 C   0  0  0  0  0  0  0  0  0  0  0  0
  153.1956  140.9277  159.0478 C   0  0  0  0  0  0  0  0  0  0  0  0
  151.9404  141.4159  158.4524 N   0  0  0  0  0  0  0  0  0  0  0  0
  151.5720  140.9253  157.2403 C   0  0  0  0  0  0  0  0  0  0  0  0
  152.4106  140.0867  156.5755 N   0  0  0  0  0  0  0  0  0  0  0  0
  152.0750  139.6048  155.3757 C   0  0  0  0  0  0  0  0  0  0  0  0
  150.9638  139.8226  154.6705 N   0  0  0  0  0  0  0  0  0  0  0  0
  150.1080  140.6474  155.3386 C   0  0  0  0  0  0  0  0  0  0  0  0
  150.3311  141.2391  156.6147 C   0  0  0  0  0  0  0  0  0  0  0  0
  149.2304  142.0087  156.9745 N   0  0  0  0  0  0  0  0  0  0  0  0
  148.4140  141.8938  155.9635 C   0  0  0  0  0  0  0  0  0  0  0  0
  148.8567  141.0855  154.9414 N   0  0  0  0  0  0  0  0  0  0  0  0
  148.1493  140.7781  153.7077 C   0  0  0  0  0  0  0  0  0  0  0  0
  147.7158  139.2962  153.5793 C   0  0  0  0  0  0  0  0  0  0  0  0
  148.8710  138.5322  153.2807 O   0  0  0  0  0  0  0  0  0  0  0  0
  147.0886  138.7419  154.8775 C   0  0  0  0  0  0  0  0  0  0  0  0
  146.4691  137.3478  154.6736 C   0  0  0  0  0  0  0  0  0  0  0  0
  145.5254  137.3815  153.6102 O   0  0  0  0  0  0  0  0  0  0  0  0
  146.1180  137.7140  152.3608 C   0  0  0  0  0  0  0  0  0  0  0  0
  146.7104  139.1329  152.4216 C   0  0  0  0  0  0  0  0  0  0  0  0
  151.4996  142.7699  158.7932 C   0  0  2  0  0  0  0  0  0  0  0  0
  152.4155  143.8412  158.1527 C   0  0  0  0  0  0  0  0  0  0  0  0
  152.0313  145.2584  158.6011 C   0  0  0  0  0  0  0  0  0  0  0  0
  152.0511  145.3740  160.1321 C   0  0  0  0  0  0  0  0  0  0  0  0
  151.1111  144.3399  160.7721 C   0  0  0  0  0  0  0  0  0  0  0  0
  151.4381  142.8991  160.3328 C   0  0  2  0  0  0  0  0  0  0  0  0
  152.6596  142.4100  160.9720 N   0  0  0  0  0  0  0  0  0  0  0  0
  154.0395  141.1949  158.4103 H   0  0  0  0  0  0  0  0  0  0  0  0
  153.1669  139.8389  159.1067 H   0  0  0  0  0  0  0  0  0  0  0  0
  152.8008  138.9514  154.9146 H   0  0  0  0  0  0  0  0  0  0  0  0
  147.4549  142.3904  155.9399 H   0  0  0  0  0  0  0  0  0  0  0  0
  147.2737  141.4264  153.6572 H   0  0  0  0  0  0  0  0  0  0  0  0
  148.7840  141.0627  152.8671 H   0  0  0  0  0  0  0  0  0  0  0  0
  149.4539  139.0594  152.7562 H   0  0  0  0  0  0  0  0  0  0  0  0
  147.8272  138.6968  155.6786 H   0  0  0  0  0  0  0  0  0  0  0  0
  146.3071  139.4223  155.2179 H   0  0  0  0  0  0  0  0  0  0  0  0
  147.2383  136.6020  154.4685 H   0  0  0  0  0  0  0  0  0  0  0  0
  145.9592  137.0310  155.5835 H   0  0  0  0  0  0  0  0  0  0  0  0
  146.8802  136.9790  152.0985 H   0  0  0  0  0  0  0  0  0  0  0  0
  145.3527  137.6634  151.5863 H   0  0  0  0  0  0  0  0  0  0  0  0
  145.8909  139.8408  152.5535 H   0  0  0  0  0  0  0  0  0  0  0  0
  147.1787  139.3841  151.4687 H   0  0  0  0  0  0  0  0  0  0  0  0
  150.4920  142.9497  158.4215 H   0  0  0  0  0  0  0  0  0  0  0  0
  153.4581  143.6610  158.4160 H   0  0  0  0  0  0  0  0  0  0  0  0
  152.3612  143.7743  157.0656 H   0  0  0  0  0  0  0  0  0  0  0  0
  152.7176  145.9842  158.1641 H   0  0  0  0  0  0  0  0  0  0  0  0
  151.0376  145.5061  158.2260 H   0  0  0  0  0  0  0  0  0  0  0  0
  153.0676  145.2301  160.5001 H   0  0  0  0  0  0  0  0  0  0  0  0
  151.7535  146.3793  160.4312 H   0  0  0  0  0  0  0  0  0  0  0  0
  151.1486  144.4216  161.8590 H   0  0  0  0  0  0  0  0  0  0  0  0
  150.0841  144.5724  160.4873 H   0  0  0  0  0  0  0  0  0  0  0  0
  150.6383  142.2515  160.6954 H   0  0  0  0  0  0  0  0  0  0  0  0
  152.8754  142.7761  161.8879 H   0  0  0  0  0  0  0  0  0  0  0  0
  1  2  2  0  0  0  0
  2 28  1  0  0  0  0
  2  3  1  0  0  0  0
  3  4  1  0  0  0  0
  3 29  1  0  0  0  0
  3 30  1  0  0  0  0
  4  5  1  0  0  0  0
  4 22  1  0  0  0  0
  5 10  1  0  0  0  0
  5  6  2  0  0  0  0
  6  7  1  0  0  0  0
  7  8  2  0  0  0  0
  7 31  1  0  0  0  0
  8  9  1  0  0  0  0
  9 13  1  0  0  0  0
  9 10  2  0  0  0  0
 10 11  1  0  0  0  0
 11 12  2  0  0  0  0
 12 13  1  0  0  0  0
 12 32  1  0  0  0  0
 13 14  1  0  0  0  0
 14 15  1  0  0  0  0
 14 33  1  0  0  0  0
 14 34  1  0  0  0  0
 15 21  1  0  0  0  0
 15 16  1  0  0  0  0
 15 17  1  0  0  0  0
 16 35  1  0  0  0  0
 17 18  1  0  0  0  0
 17 36  1  0  0  0  0
 17 37  1  0  0  0  0
 18 19  1  0  0  0  0
 18 38  1  0  0  0  0
 18 39  1  0  0  0  0
 19 20  1  0  0  0  0
 20 21  1  0  0  0  0
 20 40  1  0  0  0  0
 20 41  1  0  0  0  0
 21 42  1  0  0  0  0
 21 43  1  0  0  0  0
 22 27  1  0  0  0  0
 22 23  1  0  0  0  0
 22 44  1  0  0  0  0
 23 24  1  0  0  0  0
 23 45  1  0  0  0  0
 23 46  1  0  0  0  0
 24 25  1  0  0  0  0
 24 47  1  0  0  0  0
 24 48  1  0  0  0  0
 25 26  1  0  0  0  0
 25 49  1  0  0  0  0
 25 50  1  0  0  0  0
 26 27  1  0  0  0  0
 26 51  1  0  0  0  0
 26 52  1  0  0  0  0
 27 28  1  0  0  0  0
 27 53  1  0  0  0  0
 28 54  1  0  0  0  0
M  END
> <s_m_source_file>
AV-unprocessed.smi

> <i_m_source_file_index>
184

> <i_lp_mmshare_version>
43012

> <i_f3d_flags>
0

> <s_epik_input>
W0NIMl0xW0NIMl1bQ0gyXVtDSDJdW0NASF0oW0NASF0xMilbTkhdQyg9TylbQ0gyXU4yYyhuW2NIXW4zKWMoYzM0KW5bY0hdbjRbQ0gyXUM1KFtPSF0pW0NIMl1bQ0gyXU9bQ0gyXVtDSDJdNQ==

> <s_epik_cmdline>
J2VwaWtfcHl0aG9uJywgJy1waCcsICc3LjAnLCAnLXRuJywgJzgnLCAnLW1hJywgJzIwMCcsICctbWV0YWxfYmluZGluZycsICctaW1hZScsICc8aW5maWxlLm1hZT4nLCAnLW9tYWUnLCAnPG91dGZpbGUubWFlPic=

> <r_lp_tautomer_probability>
1

> <r_epik_Ionization_Penalty>
0.000822761

> <r_epik_Ionization_Penalty_Charging>
0

> <r_epik_Ionization_Penalty_Neutral>
0.000822761

> <r_epik_State_Penalty>
0.000403048

> <r_epik_Charging_Adjusted_Penalty>
0.000403048

> <i_epik_Tot_Q>
0

> <i_epik_Tot_abs_Q>
0

> <r_epik_Metal_State_Penalty>
-0

> <b_epik_Metal_Only>
0

> <s_lp_Force_Field>
OPLS_2005

> <r_lp_Energy>
36.9453

> <b_lp_Chiralities_Consistent>
1

> <s_lp_Variant>
AV-unprocessed.smi:184-4

> <Gold.Version>
5.8.1

> <Gold.Id.Protein>
6NUR|6NUR_protein|mol2

> <Gold.PLP.Fitness>
58.0677

> <Gold.PLP.PLP>
-49.8479

> <Gold.PLP.part.hbond>
-4.3824

> <Gold.PLP.part.metal>
0.0000

> <Gold.PLP.part.buried>
1.1035

> <Gold.PLP.part.nonpolar>
-45.6770

> <Gold.PLP.part.repulsive>
1.2570

> <Gold.PLP.ligand.clash>
0.0000

> <Gold.PLP.ligand.torsion>
0.4380

> <Gold.PLP.Chemscore.Hbond>
2.8480

> <Gold.PLP.Chemscore.CHOScore>
0.1216

> <Gold.PLP.Chemscore.Metal>
0.0000

> <Gold.Chemscore.Hbonds>
donor molecule, donor type, donor heavy atom, donor atom, acceptor molecule, acceptor atom, score
      L1  H    16    35       P1  7957  0.88
      P1  H  7989  7998       L1     8  0.90
      P1  H  7997  8010       L1     6  1.00
      L1  C    12    32       P1  8028  0.07

> <Gold.PLP.Chemscore.Internal.Correction>
0.1871

> <Gold.Rescore>
     Score         DG    S(hbond)    S(metal)    S(lipo)     H(rot)  DE(clash)    DE(int)     intcor
     17.16     -19.73       1.67        0.00     114.00       1.83       1.22       1.35       ----

> <Gold.Chemscore.Fitness>
17.1609

> <Gold.Chemscore.DG>
-19.7309

> <Gold.Chemscore.ZeroCoef>
-5.4800

> <Gold.Chemscore.Hbond>
1.6724

> <Gold.Chemscore.Metal>
0.0000

> <Gold.Chemscore.Lipo>
114.0040

> <Gold.Chemscore.Internal_Hbond>
0.0000

> <Gold.Chemscore.DEClash>
1.2236

> <Gold.Chemscore.DEInternal>
1.3464

> <Gold.Chemscore.Rot>
1.8255

> <Gold.Chemscore.Internal.Correction>
   9.000000E+99

> <Gold.Chemscore.Hbonds>
donor molecule, donor type, donor heavy atom, donor atom, acceptor molecule, acceptor atom, score
      L1  H    16    35       P1  7957  0.85
      P1  H  7989  7998       L1     8  0.07
      P1  H  7997  8010       L1     6  0.25

> <Gold.Chemscore.Hbond.Weighted>
-5.5857

> <Gold.Chemscore.Metal.Weighted>
-0.0000

> <Gold.Chemscore.Lipo.Weighted>
-13.3385

> <Gold.Chemscore.Internal_Hbond.Weighted>
0.0000

> <Gold.Chemscore.DEClash.Weighted>
1.2236

> <Gold.Chemscore.DEInternal.Weighted>
1.3464

> <Gold.Chemscore.Rot.Weighted>
4.6732

> <Gold.Chemscore.Internal.Correction.Weighted>
   9.000000E+99

> <Gold.Protein.RotatedTorsions>
[ 6907 6896 6895 6894 ] final -161.62 input  -60.11 | X-H torsion
[ 7974 7965 7964 7962 ] final   22.32 input  175.53 | X-H torsion
[ 8008 7997 7996 7995 ] final   74.86 input   59.86 | X-H torsion
[ 10167 10162 10161 10158 ] final  138.77 input  -65.29 | X-H torsion
[ 10718 10713 10712 10709 ] final  -90.03 input   66.30 | X-H torsion
[ 10763 10752 10751 10750 ] final -177.46 input  -60.55 | X-H torsion
[ 11005 11000 10999 10996 ] final   88.95 input  -57.11 | X-H torsion

> <Gold.Protein.ActiveResidues>
 VAL166  LYS551  ARG553  GLY616  TRP617  ASP618  TYR619  PRO620  LYS621  CYS622 
 ASP623  PHE694  ASN695  SER759  ASP760  ASP761  ALA762  ILE779  LEU786  VAL792 
 PHE793  MET794  SER795  GLU796  ALA797  LYS798  CYS799  TRP800  GLU811  SER814 

> <Gold.Protein.RotatedAtoms>
  151.3675  133.3867  159.2695 H   0  0  0  0  0  0  0  0  0  0  0  0  # atno 6907 bound_to 6896
  150.9677  134.9056  159.7779 H   0  0  0  0  0  0  0  0  0  0  0  0  # atno 6908 bound_to 6896
  152.5173  134.3636  159.9345 H   0  0  0  0  0  0  0  0  0  0  0  0  # atno 6909 bound_to 6896
  146.2034  139.7901  142.8744 H   0  0  0  0  0  0  0  0  0  0  0  0  # atno 7974 bound_to 7965
  155.8045  140.3475  155.5422 H   0  0  0  0  0  0  0  0  0  0  0  0  # atno 8008 bound_to 7997
  155.8504  140.0955  157.1699 H   0  0  0  0  0  0  0  0  0  0  0  0  # atno 8009 bound_to 7997
  154.4007  140.1377  156.3824 H   0  0  0  0  0  0  0  0  0  0  0  0  # atno 8010 bound_to 7997
  139.5100  144.6334  151.5759 H   0  0  0  0  0  0  0  0  0  0  0  0  # atno 10167 bound_to 10162
  155.9986  130.4894  150.5261 H   0  0  0  0  0  0  0  0  0  0  0  0  # atno 10718 bound_to 10713
  154.5598  135.2819  155.0930 H   0  0  0  0  0  0  0  0  0  0  0  0  # atno 10763 bound_to 10752
  154.2343  135.6368  153.5189 H   0  0  0  0  0  0  0  0  0  0  0  0  # atno 10764 bound_to 10752
  153.0026  135.5545  154.6189 H   0  0  0  0  0  0  0  0  0  0  0  0  # atno 10765 bound_to 10752
  139.8885  134.8520  156.3073 H   0  0  0  0  0  0  0  0  0  0  0  0  # atno 11005 bound_to 11000
  145.3406  141.0287  143.3394 LP  0  0  0  0  0  0  0  0  0  0  0  0  # atno 17320 bound_to 7965
  144.8735  139.5005  143.6757 LP  0  0  0  0  0  0  0  0  0  0  0  0  # atno 17321 bound_to 7965
  140.6075  143.9498  150.6429 LP  0  0  0  0  0  0  0  0  0  0  0  0  # atno 17342 bound_to 10162
  140.2729  143.3443  152.1221 LP  0  0  0  0  0  0  0  0  0  0  0  0  # atno 17343 bound_to 10162
  157.3216  131.0683  151.1927 LP  0  0  0  0  0  0  0  0  0  0  0  0  # atno 17370 bound_to 10713
  157.2838  130.6763  149.6079 LP  0  0  0  0  0  0  0  0  0  0  0  0  # atno 17371 bound_to 10713
  140.9874  133.7230  156.0762 LP  0  0  0  0  0  0  0  0  0  0  0  0  # atno 17394 bound_to 11000
  140.7671  134.3875  157.5515 LP  0  0  0  0  0  0  0  0  0  0  0  0  # atno 17395 bound_to 11000

$$$$
