AV-unprocessed.smi:2262|AV-procd|sdf|9139|dock7
  -GOLD-   2272012343D 1   1.00000     0.00000
 Structure written by MMmdl.
 43 44  0  0  0  0  0  0  0  0  2 V2000
  144.8575  133.8677  150.1359 C   0  0  0  0  0  0  0  0  0  0  0  0
  144.6598  134.7002  151.3421 N   0  3  2  0  0  0  0  0  0  0  0  0
  144.9706  136.1307  151.0989 C   0  0  0  0  0  0  0  0  0  0  0  0
  144.6268  136.9902  152.3293 C   0  0  0  0  0  0  0  0  0  0  0  0
  145.3209  136.4812  153.6054 C   0  0  2  0  0  0  0  0  0  0  0  0
  146.7535  136.7765  153.5661 N   0  0  0  0  0  0  0  0  0  0  0  0
  147.4238  137.4682  154.5000 C   0  0  0  0  0  0  0  0  0  0  0  0
  146.8979  137.9051  155.5241 O   0  0  0  0  0  0  0  0  0  0  0  0
  148.7196  137.6110  154.1686 N   0  0  0  0  0  0  0  0  0  0  0  0
  149.7342  138.3012  154.8848 C   0  0  0  0  0  0  0  0  0  0  0  0
  151.0354  137.7681  154.7511 C   0  0  0  0  0  0  0  0  0  0  0  0
  152.1073  138.3854  155.4235 C   0  0  0  0  0  0  0  0  0  0  0  0
  151.8513  139.5212  156.2120 C   0  0  0  0  0  0  0  0  0  0  0  0
  150.5291  139.9972  156.2946 C   0  0  0  0  0  0  0  0  0  0  0  0
  150.2733  141.1142  157.0630 O   0  0  0  0  0  0  0  0  0  0  0  0
  151.3550  141.9904  157.3683 C   0  0  0  0  0  0  0  0  0  0  0  0
  151.4712  142.1208  158.8902 C   0  0  0  0  0  0  0  0  0  0  0  0
  151.6954  140.9296  159.4442 F   0  0  0  0  0  0  0  0  0  0  0  0
  152.4714  142.9436  159.2037 F   0  0  0  0  0  0  0  0  0  0  0  0
  149.5002  139.3979  155.6465 N   0  0  0  0  0  0  0  0  0  0  0  0
  145.0469  134.9743  153.7880 C   0  0  0  0  0  0  0  0  0  0  0  0
  145.3842  134.1670  152.5221 C   0  0  0  0  0  0  0  0  0  0  0  0
  145.9044  133.8632  149.8298 H   0  0  0  0  0  0  0  0  0  0  0  0
  144.2592  134.2446  149.3059 H   0  0  0  0  0  0  0  0  0  0  0  0
  144.5511  132.8381  150.3244 H   0  0  0  0  0  0  0  0  0  0  0  0
  146.0260  136.2378  150.8436 H   0  0  0  0  0  0  0  0  0  0  0  0
  144.4007  136.4862  150.2396 H   0  0  0  0  0  0  0  0  0  0  0  0
  144.8881  138.0330  152.1449 H   0  0  0  0  0  0  0  0  0  0  0  0
  143.5469  136.9730  152.4818 H   0  0  0  0  0  0  0  0  0  0  0  0
  144.8938  137.0191  154.4541 H   0  0  0  0  0  0  0  0  0  0  0  0
  147.2645  136.4564  152.7566 H   0  0  0  0  0  0  0  0  0  0  0  0
  149.0128  137.1894  153.3000 H   0  0  0  0  0  0  0  0  0  0  0  0
  151.2158  136.8954  154.1403 H   0  0  0  0  0  0  0  0  0  0  0  0
  153.1100  137.9941  155.3346 H   0  0  0  0  0  0  0  0  0  0  0  0
  152.6517  140.0186  156.7396 H   0  0  0  0  0  0  0  0  0  0  0  0
  152.2920  141.6154  156.9527 H   0  0  0  0  0  0  0  0  0  0  0  0
  151.1647  142.9739  156.9349 H   0  0  0  0  0  0  0  0  0  0  0  0
  150.5624  142.5319  159.3301 H   0  0  0  0  0  0  0  0  0  0  0  0
  145.6009  134.5813  154.6413 H   0  0  0  0  0  0  0  0  0  0  0  0
  143.9919  134.8323  154.0265 H   0  0  0  0  0  0  0  0  0  0  0  0
  145.1107  133.1225  152.6765 H   0  0  0  0  0  0  0  0  0  0  0  0
  146.4590  134.1875  152.3342 H   0  0  0  0  0  0  0  0  0  0  0  0
  143.6754  134.6527  151.5637 H   0  0  0  0  0  0  0  0  0  0  0  0
  1  2  1  0  0  0  0
  1 23  1  0  0  0  0
  1 24  1  0  0  0  0
  1 25  1  0  0  0  0
  2 22  1  0  0  0  0
  2  3  1  0  0  0  0
  2 43  1  0  0  0  0
  3  4  1  0  0  0  0
  3 26  1  0  0  0  0
  3 27  1  0  0  0  0
  4  5  1  0  0  0  0
  4 28  1  0  0  0  0
  4 29  1  0  0  0  0
  5  6  1  0  0  0  0
  5 21  1  0  0  0  0
  5 30  1  0  0  0  0
  6  7  1  0  0  0  0
  6 31  1  0  0  0  0
  7  8  2  0  0  0  0
  7  9  1  0  0  0  0
  9 10  1  0  0  0  0
  9 32  1  0  0  0  0
 10 20  1  0  0  0  0
 10 11  2  0  0  0  0
 11 12  1  0  0  0  0
 11 33  1  0  0  0  0
 12 13  2  0  0  0  0
 12 34  1  0  0  0  0
 13 14  1  0  0  0  0
 13 35  1  0  0  0  0
 14 15  1  0  0  0  0
 14 20  2  0  0  0  0
 15 16  1  0  0  0  0
 16 17  1  0  0  0  0
 16 36  1  0  0  0  0
 16 37  1  0  0  0  0
 17 18  1  0  0  0  0
 17 19  1  0  0  0  0
 17 38  1  0  0  0  0
 21 22  1  0  0  0  0
 21 39  1  0  0  0  0
 21 40  1  0  0  0  0
 22 41  1  0  0  0  0
 22 42  1  0  0  0  0
M  CHG  1   2   1
M  END
> <s_m_source_file>
AV-unprocessed.smi

> <i_m_source_file_index>
2262

> <i_lp_mmshare_version>
43012

> <i_f3d_flags>
0

> <s_epik_input>
W0NIM11OMVtDSDJdW0NIMl1bQ0hdKFtDSDJdW0NIMl0xKVtOSF1DKD1PKVtOSF1jMltjSF1bY0hdW2NIXWMobjIpT1tDSDJdW0NIXShGKUY=

> <s_epik_cmdline>
J2VwaWtfcHl0aG9uJywgJy1waCcsICc3LjAnLCAnLXRuJywgJzgnLCAnLW1hJywgJzIwMCcsICctbWV0YWxfYmluZGluZycsICctaW1hZScsICc8aW5maWxlLm1hZT4nLCAnLW9tYWUnLCAnPG91dGZpbGUubWFlPic=

> <r_lp_tautomer_probability>
1

> <r_epik_Ionization_Penalty>
0.00369782

> <r_epik_Ionization_Penalty_Charging>
0.00366825

> <r_epik_Ionization_Penalty_Neutral>
2.95729e-05

> <r_epik_State_Penalty>
0.00261101

> <r_epik_Charging_Adjusted_Penalty>
0.00627926

> <i_epik_Tot_Q>
1

> <i_epik_Tot_abs_Q>
1

> <r_epik_Metal_State_Penalty>
-0

> <b_epik_Metal_Only>
0

> <s_lp_Force_Field>
OPLS_2005

> <r_lp_Energy>
16.3431

> <b_lp_Chiralities_Consistent>
1

> <s_lp_Variant>
AV-unprocessed.smi:2262-2

> <Gold.Version>
5.8.1

> <Gold.Id.Protein>
6NUR|6NUR_protein|mol2

> <Gold.PLP.Fitness>
40.0258

> <Gold.PLP.PLP>
-35.8925

> <Gold.PLP.part.hbond>
-2.0000

> <Gold.PLP.part.metal>
0.0000

> <Gold.PLP.part.buried>
-3.8476

> <Gold.PLP.part.nonpolar>
-30.3808

> <Gold.PLP.part.repulsive>
0.1611

> <Gold.PLP.ligand.clash>
0.0000

> <Gold.PLP.ligand.torsion>
0.9053

> <Gold.PLP.Chemscore.Hbond>
1.9760

> <Gold.PLP.Chemscore.CHOScore>
0.0000

> <Gold.PLP.Chemscore.Metal>
0.0000

> <Gold.Chemscore.Hbonds>
donor molecule, donor type, donor heavy atom, donor atom, acceptor molecule, acceptor atom, score
      L1  H     6    31       P1  7948  0.99
      L1  H     9    32       P1  7948  1.00

> <Gold.PLP.Chemscore.Internal.Correction>
0.0158

> <Gold.Rescore>
     Score         DG    S(hbond)    S(metal)    S(lipo)     H(rot)  DE(clash)    DE(int)     intcor
     13.14     -15.14       1.90        0.00      64.17       1.64       0.02       1.98       ----

> <Gold.Chemscore.Fitness>
13.1436

> <Gold.Chemscore.DG>
-15.1437

> <Gold.Chemscore.ZeroCoef>
-5.4800

> <Gold.Chemscore.Hbond>
1.9049

> <Gold.Chemscore.Metal>
0.0000

> <Gold.Chemscore.Lipo>
64.1734

> <Gold.Chemscore.Internal_Hbond>
0.0000

> <Gold.Chemscore.DEClash>
0.0183

> <Gold.Chemscore.DEInternal>
1.9818

> <Gold.Chemscore.Rot>
1.6434

> <Gold.Chemscore.Internal.Correction>
   9.000000E+99

> <Gold.Chemscore.Hbonds>
donor molecule, donor type, donor heavy atom, donor atom, acceptor molecule, acceptor atom, score
      L1  H     6    31       P1  7948  0.93
      L1  H     9    32       P1  7948  1.00

> <Gold.Chemscore.Hbond.Weighted>
-6.3624

> <Gold.Chemscore.Metal.Weighted>
-0.0000

> <Gold.Chemscore.Lipo.Weighted>
-7.5083

> <Gold.Chemscore.Internal_Hbond.Weighted>
0.0000

> <Gold.Chemscore.DEClash.Weighted>
0.0183

> <Gold.Chemscore.DEInternal.Weighted>
1.9818

> <Gold.Chemscore.Rot.Weighted>
4.2070

> <Gold.Chemscore.Internal.Correction.Weighted>
   9.000000E+99

> <Gold.Protein.RotatedTorsions>
[ 6907 6896 6895 6894 ] final  115.89 input  -60.11 | X-H torsion
[ 7974 7965 7964 7962 ] final -170.19 input  175.53 | X-H torsion
[ 8008 7997 7996 7995 ] final   73.13 input   59.86 | X-H torsion
[ 10167 10162 10161 10158 ] final  -75.40 input  -65.29 | X-H torsion
[ 10718 10713 10712 10709 ] final   22.48 input   66.30 | X-H torsion
[ 10763 10752 10751 10750 ] final    7.59 input  -60.55 | X-H torsion
[ 11005 11000 10999 10996 ] final -146.21 input  -57.11 | X-H torsion

> <Gold.Protein.ActiveResidues>
 VAL166  LYS551  ARG553  GLY616  TRP617  ASP618  TYR619  PRO620  LYS621  CYS622 
 ASP623  PHE694  ASN695  SER759  ASP760  ASP761  ALA762  ILE779  LEU786  VAL792 
 PHE793  MET794  SER795  GLU796  ALA797  LYS798  CYS799  TRP800  GLU811  SER814 

> <Gold.Protein.RotatedAtoms>
  152.4713  133.8036  159.6965 H   0  0  0  0  0  0  0  0  0  0  0  0  # atno 6907 bound_to 6896
  150.8704  133.7504  159.2969 H   0  0  0  0  0  0  0  0  0  0  0  0  # atno 6908 bound_to 6896
  151.5041  135.1066  159.9889 H   0  0  0  0  0  0  0  0  0  0  0  0  # atno 6909 bound_to 6896
  144.7174  140.2109  143.6327 H   0  0  0  0  0  0  0  0  0  0  0  0  # atno 7974 bound_to 7965
  155.7791  140.3482  155.5288 H   0  0  0  0  0  0  0  0  0  0  0  0  # atno 8008 bound_to 7997
  155.8746  140.0992  157.1547 H   0  0  0  0  0  0  0  0  0  0  0  0  # atno 8009 bound_to 7997
  154.4020  140.1334  156.4108 H   0  0  0  0  0  0  0  0  0  0  0  0  # atno 8010 bound_to 7997
  140.4946  143.2373  151.7852 H   0  0  0  0  0  0  0  0  0  0  0  0  # atno 10167 bound_to 10162
  157.1528  130.6682  149.6017 H   0  0  0  0  0  0  0  0  0  0  0  0  # atno 10718 bound_to 10713
  153.2346  135.6896  153.7851 H   0  0  0  0  0  0  0  0  0  0  0  0  # atno 10763 bound_to 10752
  153.7003  135.3298  155.3224 H   0  0  0  0  0  0  0  0  0  0  0  0  # atno 10764 bound_to 10752
  154.8329  135.4566  154.1245 H   0  0  0  0  0  0  0  0  0  0  0  0  # atno 10765 bound_to 10752
  140.7843  134.3043  157.5035 H   0  0  0  0  0  0  0  0  0  0  0  0  # atno 11005 bound_to 11000
  145.8591  139.2214  143.1727 LP  0  0  0  0  0  0  0  0  0  0  0  0  # atno 17320 bound_to 7965
  146.0190  140.8366  142.9933 LP  0  0  0  0  0  0  0  0  0  0  0  0  # atno 17321 bound_to 7965
  139.4858  144.4604  151.9547 LP  0  0  0  0  0  0  0  0  0  0  0  0  # atno 17342 bound_to 10162
  140.3692  144.2877  150.5922 LP  0  0  0  0  0  0  0  0  0  0  0  0  # atno 17343 bound_to 10162
  155.9767  130.4738  150.6547 LP  0  0  0  0  0  0  0  0  0  0  0  0  # atno 17370 bound_to 10713
  157.4204  131.0836  151.1136 LP  0  0  0  0  0  0  0  0  0  0  0  0  # atno 17371 bound_to 10713
  139.8738  134.9337  156.3587 LP  0  0  0  0  0  0  0  0  0  0  0  0  # atno 17394 bound_to 11000
  140.9452  133.7488  156.0199 LP  0  0  0  0  0  0  0  0  0  0  0  0  # atno 17395 bound_to 11000

$$$$
