AV-unprocessed.smi:2061|AV-procd|sdf|8366|dock3
  -GOLD-   2272011 43D 1   1.00000     0.00000
 Structure written by MMmdl.
 46 47  0  0  0  0  0  0  0  0  2 V2000
  153.1380  143.3059  160.1144 C   0  0  0  0  0  0  0  0  0  0  0  0
  152.3177  142.8138  158.9718 C   0  0  0  0  0  0  0  0  0  0  0  0
  151.3624  143.4013  158.1916 C   0  0  0  0  0  0  0  0  0  0  0  0
  150.9955  142.3557  157.2948 C   0  0  0  0  0  0  0  0  0  0  0  0
  150.0177  142.4331  156.2697 N   0  0  0  0  0  0  0  0  0  0  0  0
  149.8294  141.5985  155.2339 C   0  0  0  0  0  0  0  0  0  0  0  0
  150.4731  140.5715  155.0175 O   0  0  0  0  0  0  0  0  0  0  0  0
  148.8343  142.0214  154.4409 N   0  0  0  0  0  0  0  0  0  0  0  0
  148.3923  141.3379  153.2289 C   0  0  0  0  0  0  0  0  0  0  0  0
  147.0826  140.5290  153.4298 C   0  0  2  0  0  0  0  0  0  0  0  0
  146.6135  139.9365  152.0785 C   0  0  0  0  0  0  0  0  0  0  0  0
  146.0473  141.3777  154.1051 N   0  3  1  0  0  0  0  0  0  0  0  0
  146.1200  141.4253  155.5913 C   0  0  0  0  0  0  0  0  0  0  0  0
  144.9808  142.2839  156.1741 C   0  0  1  0  0  0  0  0  0  0  0  0
  145.0759  142.4130  157.6984 C   0  0  0  0  0  0  0  0  0  0  0  0
  145.0410  143.5893  155.6148 O   0  0  0  0  0  0  0  0  0  0  0  0
  144.8708  143.5788  154.2039 C   0  0  1  0  0  0  0  0  0  0  0  0
  144.8559  145.0314  153.7150 C   0  0  0  0  0  0  0  0  0  0  0  0
  146.0144  142.7662  153.5704 C   0  0  0  0  0  0  0  0  0  0  0  0
  151.6636  141.2386  157.5148 N   0  0  0  0  0  0  0  0  0  0  0  0
  152.5168  141.5241  158.5872 O   0  0  0  0  0  0  0  0  0  0  0  0
  152.8778  144.3340  160.3668 H   0  0  0  0  0  0  0  0  0  0  0  0
  154.1999  143.2759  159.8693 H   0  0  0  0  0  0  0  0  0  0  0  0
  152.9764  142.6897  160.9991 H   0  0  0  0  0  0  0  0  0  0  0  0
  150.9964  144.4140  158.2674 H   0  0  0  0  0  0  0  0  0  0  0  0
  149.3920  143.2228  156.3315 H   0  0  0  0  0  0  0  0  0  0  0  0
  148.3515  142.8727  154.6898 H   0  0  0  0  0  0  0  0  0  0  0  0
  148.2986  142.0836  152.4405 H   0  0  0  0  0  0  0  0  0  0  0  0
  149.1923  140.6679  152.9127 H   0  0  0  0  0  0  0  0  0  0  0  0
  147.2853  139.6817  154.0870 H   0  0  0  0  0  0  0  0  0  0  0  0
  147.3989  139.3521  151.5995 H   0  0  0  0  0  0  0  0  0  0  0  0
  146.3193  140.7204  151.3798 H   0  0  0  0  0  0  0  0  0  0  0  0
  145.7733  139.2528  152.2012 H   0  0  0  0  0  0  0  0  0  0  0  0
  146.0253  140.4260  156.0151 H   0  0  0  0  0  0  0  0  0  0  0  0
  147.0900  141.8221  155.8964 H   0  0  0  0  0  0  0  0  0  0  0  0
  144.0187  141.8316  155.9265 H   0  0  0  0  0  0  0  0  0  0  0  0
  145.0311  141.4353  158.1790 H   0  0  0  0  0  0  0  0  0  0  0  0
  144.2540  143.0126  158.0902 H   0  0  0  0  0  0  0  0  0  0  0  0
  146.0090  142.8912  157.9978 H   0  0  0  0  0  0  0  0  0  0  0  0
  143.9113  143.1206  153.9574 H   0  0  0  0  0  0  0  0  0  0  0  0
  144.7173  145.0813  152.6346 H   0  0  0  0  0  0  0  0  0  0  0  0
  145.7903  145.5390  153.9562 H   0  0  0  0  0  0  0  0  0  0  0  0
  144.0433  145.5908  154.1794 H   0  0  0  0  0  0  0  0  0  0  0  0
  146.9706  143.2529  153.7703 H   0  0  0  0  0  0  0  0  0  0  0  0
  145.8842  142.7677  152.4899 H   0  0  0  0  0  0  0  0  0  0  0  0
  145.1549  140.9571  153.8890 H   0  0  0  0  0  0  0  0  0  0  0  0
  1  2  1  0  0  0  0
  1 22  1  0  0  0  0
  1 23  1  0  0  0  0
  1 24  1  0  0  0  0
  2 21  1  0  0  0  0
  2  3  2  0  0  0  0
  3  4  1  0  0  0  0
  3 25  1  0  0  0  0
  4  5  1  0  0  0  0
  4 20  2  0  0  0  0
  5  6  1  0  0  0  0
  5 26  1  0  0  0  0
  6  7  2  0  0  0  0
  6  8  1  0  0  0  0
  8  9  1  0  0  0  0
  8 27  1  0  0  0  0
  9 10  1  0  0  0  0
  9 28  1  0  0  0  0
  9 29  1  0  0  0  0
 10 11  1  0  0  0  0
 10 12  1  0  0  0  0
 10 30  1  0  0  0  0
 11 31  1  0  0  0  0
 11 32  1  0  0  0  0
 11 33  1  0  0  0  0
 12 19  1  0  0  0  0
 12 13  1  0  0  0  0
 12 46  1  0  0  0  0
 13 14  1  0  0  0  0
 13 34  1  0  0  0  0
 13 35  1  0  0  0  0
 14 15  1  0  0  0  0
 14 16  1  0  0  0  0
 14 36  1  0  0  0  0
 15 37  1  0  0  0  0
 15 38  1  0  0  0  0
 15 39  1  0  0  0  0
 16 17  1  0  0  0  0
 17 18  1  0  0  0  0
 17 19  1  0  0  0  0
 17 40  1  0  0  0  0
 18 41  1  0  0  0  0
 18 42  1  0  0  0  0
 18 43  1  0  0  0  0
 19 44  1  0  0  0  0
 19 45  1  0  0  0  0
 20 21  1  0  0  0  0
M  CHG  1  12   1
M  END
> <s_m_source_file>
AV-unprocessed.smi

> <i_m_source_file_index>
2061

> <i_lp_mmshare_version>
43012

> <i_f3d_flags>
0

> <s_epik_input>
W0NIM11jMVtjSF1jKG5vMSlbTkhdQyg9TylbTkhdW0NIMl1bQ0BIXShbQ0gzXSlOMltDSDJdW0NAQEhdKFtDSDNdKU9bQ0BASF0oW0NIM10pW0NIMl0y

> <s_epik_cmdline>
J2VwaWtfcHl0aG9uJywgJy1waCcsICc3LjAnLCAnLXRuJywgJzgnLCAnLW1hJywgJzIwMCcsICctbWV0YWxfYmluZGluZycsICctaW1hZScsICc8aW5maWxlLm1hZT4nLCAnLW9tYWUnLCAnPG91dGZpbGUubWFlPic=

> <r_epik_Ionization_Penalty>
0.707076

> <r_epik_Ionization_Penalty_Charging>
0.707039

> <r_epik_Ionization_Penalty_Neutral>
3.6548e-05

> <r_epik_State_Penalty>
0.730276

> <r_epik_Charging_Adjusted_Penalty>
1.43732

> <i_epik_Tot_Q>
1

> <i_epik_Tot_abs_Q>
1

> <r_epik_Metal_State_Penalty>
0.743132

> <b_epik_Metal_Only>
0

> <s_lp_Force_Field>
OPLS_2005

> <r_lp_Energy>
18.102

> <b_lp_Chiralities_Consistent>
1

> <s_lp_Variant>
AV-unprocessed.smi:2061-7

> <Gold.Version>
5.8.1

> <Gold.Id.Protein>
6NUR|6NUR_protein|mol2

> <Gold.PLP.Fitness>
43.4108

> <Gold.PLP.PLP>
-31.4250

> <Gold.PLP.part.hbond>
-4.0000

> <Gold.PLP.part.metal>
0.0000

> <Gold.PLP.part.buried>
1.4504

> <Gold.PLP.part.nonpolar>
-29.6759

> <Gold.PLP.part.repulsive>
1.5656

> <Gold.PLP.ligand.clash>
0.0000

> <Gold.PLP.ligand.torsion>
0.7102

> <Gold.PLP.Chemscore.Hbond>
4.4456

> <Gold.PLP.Chemscore.CHOScore>
0.0000

> <Gold.PLP.Chemscore.Metal>
0.0000

> <Gold.Chemscore.Hbonds>
donor molecule, donor type, donor heavy atom, donor atom, acceptor molecule, acceptor atom, score
      L1  H     5    26       P1  8028  0.94
      L1  H     8    27       P1  8028  0.56
      L1  H    12    46       P1 10175  1.71
      P1  H  7989  7998       L1     7  0.96

> <Gold.PLP.Chemscore.Internal.Correction>
0.0695

> <Gold.Rescore>
     Score         DG    S(hbond)    S(metal)    S(lipo)     H(rot)  DE(clash)    DE(int)     intcor
     13.82     -18.98       2.24        0.00      86.19       1.58       2.12       3.05       ----

> <Gold.Chemscore.Fitness>
13.8155

> <Gold.Chemscore.DG>
-18.9782

> <Gold.Chemscore.ZeroCoef>
-5.4800

> <Gold.Chemscore.Hbond>
2.2356

> <Gold.Chemscore.Metal>
0.0000

> <Gold.Chemscore.Lipo>
86.1937

> <Gold.Chemscore.Internal_Hbond>
0.0000

> <Gold.Chemscore.DEClash>
2.1173

> <Gold.Chemscore.DEInternal>
3.0454

> <Gold.Chemscore.Rot>
1.5834

> <Gold.Chemscore.Internal.Correction>
   9.000000E+99

> <Gold.Chemscore.Hbonds>
donor molecule, donor type, donor heavy atom, donor atom, acceptor molecule, acceptor atom, score
      L1  H     5    26       P1  8028  0.92
      L1  H     8    27       P1  8028  0.55
      L1  H    12    46       P1 10175  0.67
      P1  H  7989  7998       L1     7  0.60

> <Gold.Chemscore.Hbond.Weighted>
-7.4670

> <Gold.Chemscore.Metal.Weighted>
-0.0000

> <Gold.Chemscore.Lipo.Weighted>
-10.0847

> <Gold.Chemscore.Internal_Hbond.Weighted>
0.0000

> <Gold.Chemscore.DEClash.Weighted>
2.1173

> <Gold.Chemscore.DEInternal.Weighted>
3.0454

> <Gold.Chemscore.Rot.Weighted>
4.0535

> <Gold.Chemscore.Internal.Correction.Weighted>
   9.000000E+99

> <Gold.Protein.RotatedTorsions>
[ 6907 6896 6895 6894 ] final   28.50 input  -60.11 | X-H torsion
[ 7974 7965 7964 7962 ] final  144.05 input  175.53 | X-H torsion
[ 8008 7997 7996 7995 ] final  140.04 input   59.86 | X-H torsion
[ 10167 10162 10161 10158 ] final  167.22 input  -65.29 | X-H torsion
[ 10718 10713 10712 10709 ] final -109.96 input   66.30 | X-H torsion
[ 10763 10752 10751 10750 ] final   16.93 input  -60.55 | X-H torsion
[ 11005 11000 10999 10996 ] final  -80.14 input  -57.11 | X-H torsion

> <Gold.Protein.ActiveResidues>
 VAL166  LYS551  ARG553  GLY616  TRP617  ASP618  TYR619  PRO620  LYS621  CYS622 
 ASP623  PHE694  ASN695  SER759  ASP760  ASP761  ALA762  ILE779  LEU786  VAL792 
 PHE793  MET794  SER795  GLU796  ALA797  LYS798  CYS799  TRP800  GLU811  SER814 

> <Gold.Protein.RotatedAtoms>
  152.0179  134.9839  160.0569 H   0  0  0  0  0  0  0  0  0  0  0  0  # atno 6907 bound_to 6896
  152.1366  133.4434  159.4754 H   0  0  0  0  0  0  0  0  0  0  0  0  # atno 6908 bound_to 6896
  150.6861  134.2275  159.4464 H   0  0  0  0  0  0  0  0  0  0  0  0  # atno 6909 bound_to 6896
  144.8869  139.5616  143.5817 H   0  0  0  0  0  0  0  0  0  0  0  0  # atno 7974 bound_to 7965
  156.2983  140.2352  156.4336 H   0  0  0  0  0  0  0  0  0  0  0  0  # atno 8008 bound_to 7997
  154.8248  140.0436  157.1456 H   0  0  0  0  0  0  0  0  0  0  0  0  # atno 8009 bound_to 7997
  154.9274  140.3012  155.5189 H   0  0  0  0  0  0  0  0  0  0  0  0  # atno 8010 bound_to 7997
  139.4940  144.3945  151.9479 H   0  0  0  0  0  0  0  0  0  0  0  0  # atno 10167 bound_to 10162
  156.0565  130.5791  150.8171 H   0  0  0  0  0  0  0  0  0  0  0  0  # atno 10718 bound_to 10713
  153.1385  135.6755  153.9065 H   0  0  0  0  0  0  0  0  0  0  0  0  # atno 10763 bound_to 10752
  153.8529  135.3091  155.3435 H   0  0  0  0  0  0  0  0  0  0  0  0  # atno 10764 bound_to 10752
  154.7768  135.4910  153.9843 H   0  0  0  0  0  0  0  0  0  0  0  0  # atno 10765 bound_to 10752
  141.1668  133.7137  156.8228 H   0  0  0  0  0  0  0  0  0  0  0  0  # atno 11005 bound_to 11000
  146.3030  139.7486  142.9077 LP  0  0  0  0  0  0  0  0  0  0  0  0  # atno 17320 bound_to 7965
  145.3853  141.0364  143.3154 LP  0  0  0  0  0  0  0  0  0  0  0  0  # atno 17321 bound_to 7965
  140.3383  144.3234  150.5972 LP  0  0  0  0  0  0  0  0  0  0  0  0  # atno 17342 bound_to 10162
  140.5587  143.2195  151.7802 LP  0  0  0  0  0  0  0  0  0  0  0  0  # atno 17343 bound_to 10162
  157.5539  131.0944  150.9657 LP  0  0  0  0  0  0  0  0  0  0  0  0  # atno 17370 bound_to 10713
  156.9910  130.5563  149.5303 LP  0  0  0  0  0  0  0  0  0  0  0  0  # atno 17371 bound_to 10713
  140.2107  134.8829  157.3271 LP  0  0  0  0  0  0  0  0  0  0  0  0  # atno 17394 bound_to 11000
  140.2090  134.4162  155.7623 LP  0  0  0  0  0  0  0  0  0  0  0  0  # atno 17395 bound_to 11000

$$$$
