AV-unprocessed.smi:52|AV-procd|sdf|508|dock10
  -GOLD-   2262016383D 1   1.00000     0.00000
 Structure written by MMmdl.
 27 28  0  0  0  0  0  0  0  0  3 V2000
  153.1285  138.7939  155.4449 O   0  0  0  0  0  0  0  0  0  0  0  0
  151.9194  138.9755  155.1822 C   0  0  0  0  0  0  0  0  0  0  0  0
  151.4697  140.1026  154.8796 O   0  5  0  0  0  0  0  0  0  0  0  0
  150.9891  137.8191  155.2357 C   0  0  0  0  0  0  0  0  0  0  0  0
  149.6200  137.8673  155.3125 C   0  0  0  0  0  0  0  0  0  0  0  0
  149.1250  136.5911  155.3258 O   0  0  0  0  0  0  0  0  0  0  0  0
  150.2321  135.8030  155.2603 C   0  0  0  0  0  0  0  0  0  0  0  0
  150.0645  134.3203  155.2232 C   0  0  0  0  0  0  0  0  0  0  0  0
  149.0551  134.0935  154.1607 N   0  3  1  0  0  0  0  0  0  0  0  0
  149.1462  132.7890  153.4628 C   0  0  0  0  0  0  0  0  0  0  0  0
  147.7336  132.5021  152.9645 C   0  0  0  0  0  0  0  0  0  0  0  0
  146.8735  133.0447  154.1002 C   0  0  2  0  0  0  0  0  0  0  0  0
  145.5756  133.3868  153.6635 O   0  0  0  0  0  0  0  0  0  0  0  0
  147.6533  134.2637  154.6117 C   0  0  0  0  0  0  0  0  0  0  0  0
  151.3732  136.4847  155.2091 N   0  0  0  0  0  0  0  0  0  0  0  0
  146.8039  132.2970  154.8918 H   0  0  0  0  0  0  0  0  0  0  0  0
  148.9015  138.6725  155.3563 H   0  0  0  0  0  0  0  0  0  0  0  0
  151.0104  133.8224  155.0062 H   0  0  0  0  0  0  0  0  0  0  0  0
  149.6990  133.9764  156.1915 H   0  0  0  0  0  0  0  0  0  0  0  0
  149.8748  132.8123  152.6516 H   0  0  0  0  0  0  0  0  0  0  0  0
  149.4493  132.0107  154.1652 H   0  0  0  0  0  0  0  0  0  0  0  0
  147.5495  133.0592  152.0443 H   0  0  0  0  0  0  0  0  0  0  0  0
  147.5584  131.4448  152.7625 H   0  0  0  0  0  0  0  0  0  0  0  0
  144.9449  132.9266  154.1966 H   0  0  0  0  0  0  0  0  0  0  0  0
  147.5683  134.3517  155.6959 H   0  0  0  0  0  0  0  0  0  0  0  0
  147.2747  135.1896  154.1764 H   0  0  0  0  0  0  0  0  0  0  0  0
  149.2047  134.8043  153.4587 H   0  0  0  0  0  0  0  0  0  0  0  0
  1  2  2  0  0  0  0
  2  3  1  0  0  0  0
  2  4  1  0  0  0  0
  4 15  1  0  0  0  0
  4  5  2  0  0  0  0
  5  6  1  0  0  0  0
  5 17  1  0  0  0  0
  6  7  1  0  0  0  0
  7  8  1  0  0  0  0
  7 15  2  0  0  0  0
  8  9  1  0  0  0  0
  8 18  1  0  0  0  0
  8 19  1  0  0  0  0
  9 14  1  0  0  0  0
  9 10  1  0  0  0  0
  9 27  1  0  0  0  0
 10 11  1  0  0  0  0
 10 20  1  0  0  0  0
 10 21  1  0  0  0  0
 11 12  1  0  0  0  0
 11 22  1  0  0  0  0
 11 23  1  0  0  0  0
 12 16  1  0  0  0  0
 12 13  1  0  0  0  0
 12 14  1  0  0  0  0
 13 24  1  0  0  0  0
 14 25  1  0  0  0  0
 14 26  1  0  0  0  0
M  CHG  1   3  -1
M  CHG  1   9   1
M  END
> <s_m_source_file>
AV-unprocessed.smi

> <i_m_source_file_index>
52

> <i_lp_mmshare_version>
43012

> <i_f3d_flags>
0

> <s_epik_input>
Tz1DKFtPSF0pYzFbY0hdb2MobjEpW0NIMl1OMltDSDJdW0NIMl1bQ0BIXShbT0hdKVtDSDJdMg==

> <s_epik_cmdline>
J2VwaWtfcHl0aG9uJywgJy1waCcsICc3LjAnLCAnLXRuJywgJzgnLCAnLW1hJywgJzIwMCcsICctbWV0YWxfYmluZGluZycsICctaW1hZScsICc8aW5maWxlLm1hZT4nLCAnLW9tYWUnLCAnPG91dGZpbGUubWFlPic=

> <r_epik_Ionization_Penalty>
0.0376014

> <r_epik_Ionization_Penalty_Charging>
0.0376013

> <r_epik_Ionization_Penalty_Neutral>
1.78687e-08

> <r_epik_State_Penalty>
0.0314164

> <r_epik_Charging_Adjusted_Penalty>
0.0690177

> <i_epik_Tot_Q>
0

> <i_epik_Tot_abs_Q>
2

> <r_epik_Metal_State_Penalty>
0.0314164

> <b_epik_Metal_Only>
0

> <s_lp_Force_Field>
OPLS_2005

> <r_lp_Energy>
18.2584

> <b_lp_Chiralities_Consistent>
1

> <s_lp_Variant>
AV-unprocessed.smi:52-2

> <Gold.Version>
5.8.1

> <Gold.Id.Protein>
6NUR|6NUR_protein|mol2

> <Gold.PLP.Fitness>
40.3592

> <Gold.PLP.PLP>
-23.3682

> <Gold.PLP.part.hbond>
-4.0000

> <Gold.PLP.part.metal>
0.0000

> <Gold.PLP.part.buried>
-4.5377

> <Gold.PLP.part.nonpolar>
-14.9680

> <Gold.PLP.part.repulsive>
0.3174

> <Gold.PLP.ligand.clash>
0.0000

> <Gold.PLP.ligand.torsion>
0.5096

> <Gold.PLP.Chemscore.Hbond>
6.0000

> <Gold.PLP.Chemscore.CHOScore>
0.0000

> <Gold.PLP.Chemscore.Metal>
0.0000

> <Gold.Chemscore.Hbonds>
donor molecule, donor type, donor heavy atom, donor atom, acceptor molecule, acceptor atom, score
      L1  H     9    27       P1  7948  1.19
      P1  H  7989  7998       L1     3  1.00
      P1  H  7997  8009       L1     1  2.00
      P1  H 10752 10764       L1    15  0.96

> <Gold.PLP.Chemscore.Internal.Correction>
0.0102

> <Gold.Rescore>
     Score         DG    S(hbond)    S(metal)    S(lipo)     H(rot)  DE(clash)    DE(int)     intcor
     15.35     -16.37       3.60        0.00      33.95       1.99       0.03       1.00       ----

> <Gold.Chemscore.Fitness>
15.3467

> <Gold.Chemscore.DG>
-16.3714

> <Gold.Chemscore.ZeroCoef>
-5.4800

> <Gold.Chemscore.Hbond>
3.5984

> <Gold.Chemscore.Metal>
0.0000

> <Gold.Chemscore.Lipo>
33.9472

> <Gold.Chemscore.Internal_Hbond>
0.0000

> <Gold.Chemscore.DEClash>
0.0284

> <Gold.Chemscore.DEInternal>
0.9962

> <Gold.Chemscore.Rot>
1.9919

> <Gold.Chemscore.Internal.Correction>
   9.000000E+99

> <Gold.Chemscore.Hbonds>
donor molecule, donor type, donor heavy atom, donor atom, acceptor molecule, acceptor atom, score
      L1  H     9    27       P1  7948  0.07
      P1  H  7989  7998       L1     3  0.96
      P1  H  7997  8009       L1     1  0.96
      P1  H 10752 10764       L1    15  0.85

> <Gold.Chemscore.Hbond.Weighted>
-12.0187

> <Gold.Chemscore.Metal.Weighted>
-0.0000

> <Gold.Chemscore.Lipo.Weighted>
-3.9718

> <Gold.Chemscore.Internal_Hbond.Weighted>
0.0000

> <Gold.Chemscore.DEClash.Weighted>
0.0284

> <Gold.Chemscore.DEInternal.Weighted>
0.9962

> <Gold.Chemscore.Rot.Weighted>
5.0991

> <Gold.Chemscore.Internal.Correction.Weighted>
   9.000000E+99

> <Gold.Protein.RotatedTorsions>
[ 6907 6896 6895 6894 ] final   24.73 input  -60.11 | X-H torsion
[ 7974 7965 7964 7962 ] final   49.45 input  175.53 | X-H torsion
[ 8008 7997 7996 7995 ] final -140.05 input   59.86 | X-H torsion
[ 10167 10162 10161 10158 ] final  106.03 input  -65.29 | X-H torsion
[ 10718 10713 10712 10709 ] final  114.30 input   66.30 | X-H torsion
[ 10763 10752 10751 10750 ] final  -78.68 input  -60.55 | X-H torsion
[ 11005 11000 10999 10996 ] final  152.27 input  -57.11 | X-H torsion

> <Gold.Protein.ActiveResidues>
 VAL166  LYS551  ARG553  GLY616  TRP617  ASP618  TYR619  PRO620  LYS621  CYS622 
 ASP623  PHE694  ASN695  SER759  ASP760  ASP761  ALA762  ILE779  LEU786  VAL792 
 PHE793  MET794  SER795  GLU796  ALA797  LYS798  CYS799  TRP800  GLU811  SER814 

> <Gold.Protein.RotatedAtoms>
  151.9619  135.0119  160.0547 H   0  0  0  0  0  0  0  0  0  0  0  0  # atno 6907 bound_to 6896
  152.1861  133.4736  159.4991 H   0  0  0  0  0  0  0  0  0  0  0  0  # atno 6908 bound_to 6896
  150.6926  134.1689  159.4247 H   0  0  0  0  0  0  0  0  0  0  0  0  # atno 6909 bound_to 6896
  146.0108  139.4541  142.9957 H   0  0  0  0  0  0  0  0  0  0  0  0  # atno 7974 bound_to 7965
  155.4550  140.0541  157.2997 H   0  0  0  0  0  0  0  0  0  0  0  0  # atno 8008 bound_to 7997
  154.4761  140.2061  155.9830 H   0  0  0  0  0  0  0  0  0  0  0  0  # atno 8009 bound_to 7997
  156.1134  140.3200  155.8109 H   0  0  0  0  0  0  0  0  0  0  0  0  # atno 8010 bound_to 7997
  139.7043  144.7089  151.1133 H   0  0  0  0  0  0  0  0  0  0  0  0  # atno 10167 bound_to 10162
  157.6289  131.0996  150.7166 H   0  0  0  0  0  0  0  0  0  0  0  0  # atno 10718 bound_to 10713
  154.5289  135.5721  153.6743 H   0  0  0  0  0  0  0  0  0  0  0  0  # atno 10763 bound_to 10752
  152.9934  135.6200  154.2655 H   0  0  0  0  0  0  0  0  0  0  0  0  # atno 10764 bound_to 10752
  154.2580  135.2857  155.2769 H   0  0  0  0  0  0  0  0  0  0  0  0  # atno 10765 bound_to 10752
  140.1292  134.8813  157.2181 H   0  0  0  0  0  0  0  0  0  0  0  0  # atno 11005 bound_to 11000
  145.7345  141.0030  143.1334 LP  0  0  0  0  0  0  0  0  0  0  0  0  # atno 17320 bound_to 7965
  144.6952  139.9025  143.7459 LP  0  0  0  0  0  0  0  0  0  0  0  0  # atno 17321 bound_to 7965
  140.7717  143.5381  150.9345 LP  0  0  0  0  0  0  0  0  0  0  0  0  # atno 17342 bound_to 10162
  139.9063  143.6774  152.3123 LP  0  0  0  0  0  0  0  0  0  0  0  0  # atno 17343 bound_to 10162
  156.7509  130.4768  149.5457 LP  0  0  0  0  0  0  0  0  0  0  0  0  # atno 17370 bound_to 10713
  156.1479  130.6289  151.0556 LP  0  0  0  0  0  0  0  0  0  0  0  0  # atno 17371 bound_to 10713
  140.2864  134.3291  155.7328 LP  0  0  0  0  0  0  0  0  0  0  0  0  # atno 17394 bound_to 11000
  141.2167  133.7508  156.9438 LP  0  0  0  0  0  0  0  0  0  0  0  0  # atno 17395 bound_to 11000

$$$$
