AV-unprocessed.smi:1325|AV-procd|sdf|5473|dock1
  -GOLD-   22720 5 43D 1   1.00000     0.00000
 Structure written by MMmdl.
 35 36  0  0  0  0  0  0  0  0  1 V2000
  152.5144  143.7446  161.8270 C   0  0  0  0  0  0  0  0  0  0  0  0
  152.5684  142.7268  160.7196 C   0  0  0  0  0  0  0  0  0  0  0  0
  153.3745  141.7302  160.8854 N   0  0  0  0  0  0  0  0  0  0  0  0
  153.5043  140.7429  159.9292 N   0  0  0  0  0  0  0  0  0  0  0  0
  154.4653  139.6915  160.2859 C   0  0  0  0  0  0  0  0  0  0  0  0
  153.7719  138.3797  160.7157 C   0  0  1  0  0  0  0  0  0  0  0  0
  154.0885  137.3695  159.7775 O   0  0  0  0  0  0  0  0  0  0  0  0
  154.1911  137.9774  162.1216 C   0  0  0  0  0  0  0  0  0  0  0  0
  155.1501  138.7345  162.8308 C   0  0  0  0  0  0  0  0  0  0  0  0
  155.5272  138.3605  164.1352 C   0  0  0  0  0  0  0  0  0  0  0  0
  154.9472  137.2284  164.7390 C   0  0  0  0  0  0  0  0  0  0  0  0
  153.9885  136.4716  164.0383 C   0  0  0  0  0  0  0  0  0  0  0  0
  153.6105  136.8458  162.7340 C   0  0  0  0  0  0  0  0  0  0  0  0
  152.8218  140.7103  158.7490 C   0  0  0  0  0  0  0  0  0  0  0  0
  152.9723  139.8106  157.9208 O   0  0  0  0  0  0  0  0  0  0  0  0
  151.9071  141.8402  158.5687 C   0  0  0  0  0  0  0  0  0  0  0  0
  151.1710  141.8445  157.3459 C   0  0  0  0  0  0  0  0  0  0  0  0
  150.5903  141.8543  156.3445 N   0  0  0  0  0  0  0  0  0  0  0  0
  151.7704  142.8161  159.5009 C   0  0  0  0  0  0  0  0  0  0  0  0
  150.8361  144.0103  159.3622 C   0  0  0  0  0  0  0  0  0  0  0  0
  152.7679  144.7368  161.4544 H   0  0  0  0  0  0  0  0  0  0  0  0
  153.2126  143.5084  162.6316 H   0  0  0  0  0  0  0  0  0  0  0  0
  151.5155  143.7911  162.2609 H   0  0  0  0  0  0  0  0  0  0  0  0
  155.1644  139.5036  159.4682 H   0  0  0  0  0  0  0  0  0  0  0  0
  155.0853  140.0603  161.1055 H   0  0  0  0  0  0  0  0  0  0  0  0
  152.6887  138.5065  160.7063 H   0  0  0  0  0  0  0  0  0  0  0  0
  153.4349  136.6899  159.8391 H   0  0  0  0  0  0  0  0  0  0  0  0
  155.5978  139.6064  162.3766 H   0  0  0  0  0  0  0  0  0  0  0  0
  156.2611  138.9429  164.6727 H   0  0  0  0  0  0  0  0  0  0  0  0
  155.2365  136.9417  165.7393 H   0  0  0  0  0  0  0  0  0  0  0  0
  153.5418  135.6043  164.5016 H   0  0  0  0  0  0  0  0  0  0  0  0
  152.8718  136.2602  162.2064 H   0  0  0  0  0  0  0  0  0  0  0  0
  150.2582  143.9775  158.4392 H   0  0  0  0  0  0  0  0  0  0  0  0
  151.4039  144.9413  159.3608 H   0  0  0  0  0  0  0  0  0  0  0  0
  150.1269  144.0403  160.1897 H   0  0  0  0  0  0  0  0  0  0  0  0
  1  2  1  0  0  0  0
  1 21  1  0  0  0  0
  1 22  1  0  0  0  0
  1 23  1  0  0  0  0
  2 19  1  0  0  0  0
  2  3  2  0  0  0  0
  3  4  1  0  0  0  0
  4  5  1  0  0  0  0
  4 14  1  0  0  0  0
  5  6  1  0  0  0  0
  5 24  1  0  0  0  0
  5 25  1  0  0  0  0
  6  7  1  0  0  0  0
  6  8  1  0  0  0  0
  6 26  1  0  0  0  0
  7 27  1  0  0  0  0
  8 13  1  0  0  0  0
  8  9  2  0  0  0  0
  9 10  1  0  0  0  0
  9 28  1  0  0  0  0
 10 11  2  0  0  0  0
 10 29  1  0  0  0  0
 11 12  1  0  0  0  0
 11 30  1  0  0  0  0
 12 13  2  0  0  0  0
 12 31  1  0  0  0  0
 13 32  1  0  0  0  0
 14 15  2  0  0  0  0
 14 16  1  0  0  0  0
 16 17  1  0  0  0  0
 16 19  2  0  0  0  0
 17 18  3  0  0  0  0
 19 20  1  0  0  0  0
 20 33  1  0  0  0  0
 20 34  1  0  0  0  0
 20 35  1  0  0  0  0
M  END
> <s_m_source_file>
AV-unprocessed.smi

> <i_m_source_file_index>
1325

> <i_lp_mmshare_version>
43012

> <i_f3d_flags>
0

> <s_epik_input>
TiNDYyhjMVtDSDNdKWMoPU8pbihuYzFbQ0gzXSlbQ0gyXVtDQEhdKFtPSF0pYzJbY0hdW2NIXVtjSF1bY0hdW2NIXTI=

> <s_epik_cmdline>
J2VwaWtfcHl0aG9uJywgJy1waCcsICc3LjAnLCAnLXRuJywgJzgnLCAnLW1hJywgJzIwMCcsICctbWV0YWxfYmluZGluZycsICctaW1hZScsICc8aW5maWxlLm1hZT4nLCAnLW9tYWUnLCAnPG91dGZpbGUubWFlPic=

> <r_lp_tautomer_probability>
1

> <r_epik_Ionization_Penalty>
7.1854e-08

> <r_epik_Ionization_Penalty_Charging>
1.40848e-10

> <r_epik_Ionization_Penalty_Neutral>
7.17131e-08

> <r_epik_State_Penalty>
-0

> <r_epik_Charging_Adjusted_Penalty>
1.40848e-10

> <i_epik_Tot_Q>
0

> <i_epik_Tot_abs_Q>
0

> <r_epik_Metal_State_Penalty>
-0

> <b_epik_Metal_Only>
0

> <s_lp_Force_Field>
OPLS_2005

> <r_lp_Energy>
28.0712

> <b_lp_Chiralities_Consistent>
1

> <s_lp_Variant>
AV-unprocessed.smi:1325-2

> <Gold.Version>
5.8.1

> <Gold.Id.Protein>
6NUR|6NUR_protein|mol2

> <Gold.PLP.Fitness>
44.4118

> <Gold.PLP.PLP>
-43.3035

> <Gold.PLP.part.hbond>
-1.0000

> <Gold.PLP.part.metal>
0.0000

> <Gold.PLP.part.buried>
-5.9828

> <Gold.PLP.part.nonpolar>
-36.7005

> <Gold.PLP.part.repulsive>
0.0749

> <Gold.PLP.ligand.clash>
0.0000

> <Gold.PLP.ligand.torsion>
0.9485

> <Gold.PLP.Chemscore.Hbond>
1.0000

> <Gold.PLP.Chemscore.CHOScore>
0.0000

> <Gold.PLP.Chemscore.Metal>
0.0000

> <Gold.Chemscore.Hbonds>
donor molecule, donor type, donor heavy atom, donor atom, acceptor molecule, acceptor atom, score
      P1  H  7997  8009       L1    15  1.00

> <Gold.PLP.Chemscore.Internal.Correction>
0.0052

> <Gold.Rescore>
     Score         DG    S(hbond)    S(metal)    S(lipo)     H(rot)  DE(clash)    DE(int)     intcor
     16.22     -17.17       0.97        0.00     113.86       1.90       0.04       0.90       ----

> <Gold.Chemscore.Fitness>
16.2182

> <Gold.Chemscore.DG>
-17.1660

> <Gold.Chemscore.ZeroCoef>
-5.4800

> <Gold.Chemscore.Hbond>
0.9700

> <Gold.Chemscore.Metal>
0.0000

> <Gold.Chemscore.Lipo>
113.8639

> <Gold.Chemscore.Internal_Hbond>
0.0000

> <Gold.Chemscore.DEClash>
0.0440

> <Gold.Chemscore.DEInternal>
0.9038

> <Gold.Chemscore.Rot>
1.9047

> <Gold.Chemscore.Internal.Correction>
   9.000000E+99

> <Gold.Chemscore.Hbonds>
donor molecule, donor type, donor heavy atom, donor atom, acceptor molecule, acceptor atom, score
      P1  H  7997  8009       L1    15  0.78

> <Gold.Chemscore.Hbond.Weighted>
-3.2399

> <Gold.Chemscore.Metal.Weighted>
-0.0000

> <Gold.Chemscore.Lipo.Weighted>
-13.3221

> <Gold.Chemscore.Internal_Hbond.Weighted>
0.0000

> <Gold.Chemscore.DEClash.Weighted>
0.0440

> <Gold.Chemscore.DEInternal.Weighted>
0.9038

> <Gold.Chemscore.Rot.Weighted>
4.8760

> <Gold.Chemscore.Internal.Correction.Weighted>
   9.000000E+99

> <Gold.Protein.RotatedTorsions>
[ 6907 6896 6895 6894 ] final   88.09 input  -60.11 | X-H torsion
[ 7974 7965 7964 7962 ] final   66.98 input  175.53 | X-H torsion
[ 8008 7997 7996 7995 ] final  159.21 input   59.86 | X-H torsion
[ 10167 10162 10161 10158 ] final   36.14 input  -65.29 | X-H torsion
[ 10718 10713 10712 10709 ] final   61.50 input   66.30 | X-H torsion
[ 10763 10752 10751 10750 ] final -127.70 input  -60.55 | X-H torsion
[ 11005 11000 10999 10996 ] final   70.42 input  -57.11 | X-H torsion

> <Gold.Protein.ActiveResidues>
 VAL166  LYS551  ARG553  GLY616  TRP617  ASP618  TYR619  PRO620  LYS621  CYS622 
 ASP623  PHE694  ASN695  SER759  ASP760  ASP761  ALA762  ILE779  LEU786  VAL792 
 PHE793  MET794  SER795  GLU796  ALA797  LYS798  CYS799  TRP800  GLU811  SER814 

> <Gold.Protein.RotatedAtoms>
  152.5420  134.2175  159.8774 H   0  0  0  0  0  0  0  0  0  0  0  0  # atno 6907 bound_to 6896
  151.2154  133.4525  159.2607 H   0  0  0  0  0  0  0  0  0  0  0  0  # atno 6908 bound_to 6896
  151.0856  134.9898  159.8433 H   0  0  0  0  0  0  0  0  0  0  0  0  # atno 6909 bound_to 6896
  145.8202  139.3080  143.1048 H   0  0  0  0  0  0  0  0  0  0  0  0  # atno 7974 bound_to 7965
  156.2253  140.1837  156.7378 H   0  0  0  0  0  0  0  0  0  0  0  0  # atno 8008 bound_to 7997
  154.5931  140.0647  156.9294 H   0  0  0  0  0  0  0  0  0  0  0  0  # atno 8009 bound_to 7997
  155.2302  140.3314  155.4307 H   0  0  0  0  0  0  0  0  0  0  0  0  # atno 8010 bound_to 7997
  140.4156  144.1532  150.6143 H   0  0  0  0  0  0  0  0  0  0  0  0  # atno 10167 bound_to 10162
  157.5832  130.8998  149.9469 H   0  0  0  0  0  0  0  0  0  0  0  0  # atno 10718 bound_to 10713
  154.8753  135.3953  154.3636 H   0  0  0  0  0  0  0  0  0  0  0  0  # atno 10763 bound_to 10752
  153.4405  135.7026  153.6177 H   0  0  0  0  0  0  0  0  0  0  0  0  # atno 10764 bound_to 10752
  153.4760  135.3780  155.2386 H   0  0  0  0  0  0  0  0  0  0  0  0  # atno 10765 bound_to 10752
  139.9599  134.7079  156.0670 H   0  0  0  0  0  0  0  0  0  0  0  0  # atno 11005 bound_to 11000
  145.9683  140.8780  143.0175 LP  0  0  0  0  0  0  0  0  0  0  0  0  # atno 17320 bound_to 7965
  144.6748  140.1910  143.7396 LP  0  0  0  0  0  0  0  0  0  0  0  0  # atno 17321 bound_to 7965
  140.4590  143.2456  151.9245 LP  0  0  0  0  0  0  0  0  0  0  0  0  # atno 17342 bound_to 10162
  139.4782  144.5486  151.8420 LP  0  0  0  0  0  0  0  0  0  0  0  0  # atno 17343 bound_to 10162
  156.0879  130.3666  150.0451 LP  0  0  0  0  0  0  0  0  0  0  0  0  # atno 17370 bound_to 10713
  156.8587  130.9484  151.3620 LP  0  0  0  0  0  0  0  0  0  0  0  0  # atno 17371 bound_to 10713
  141.1275  133.6595  156.3375 LP  0  0  0  0  0  0  0  0  0  0  0  0  # atno 17394 bound_to 11000
  140.5524  134.6014  157.5411 LP  0  0  0  0  0  0  0  0  0  0  0  0  # atno 17395 bound_to 11000

$$$$
