AV-unprocessed.smi:2699|AV-procd|sdf|10425|dock6
  -GOLD-   2272014463D 1   1.00000     0.00000
 Structure written by MMmdl.
 43 45  0  0  0  0  0  0  0  0  1 V2000
  149.7403  134.8475  155.1048 C   0  0  0  0  0  0  0  0  0  0  0  0
  150.3629  133.5101  155.4855 C   0  0  0  0  0  0  0  0  0  0  0  0
  151.1936  133.4457  156.5519 C   0  0  0  0  0  0  0  0  0  0  0  0
  151.7866  132.1644  156.9725 C   0  0  0  0  0  0  0  0  0  0  0  0
  152.5725  132.0865  157.9146 O   0  0  0  0  0  0  0  0  0  0  0  0
  151.3759  130.9845  156.1991 C   0  0  0  0  0  0  0  0  0  0  0  0
  150.5463  131.1454  155.1506 C   0  0  0  0  0  0  0  0  0  0  0  0
  150.1217  130.0944  154.4328 O   0  0  0  0  0  0  0  0  0  0  0  0
  150.0288  132.3791  154.7070 N   0  0  0  0  0  0  0  0  0  0  0  0
  149.2045  132.4830  153.4887 C   0  0  0  0  0  0  0  0  0  0  0  0
  147.7144  132.7468  153.7795 C   0  0  0  0  0  0  0  0  0  0  0  0
  147.2650  132.6027  154.9155 O   0  0  0  0  0  0  0  0  0  0  0  0
  146.9182  133.1344  152.7714 N   0  0  0  0  0  0  0  0  0  0  0  0
  145.4906  133.4289  152.8530 C   0  0  0  0  0  0  0  0  0  0  0  0
  144.9569  134.0599  151.5528 C   0  0  0  0  0  0  0  0  0  0  0  0
  145.0114  132.9814  150.4657 C   0  0  0  0  0  0  0  0  0  0  0  0
  144.1536  133.0657  149.2283 C   0  0  0  0  0  0  0  0  0  0  0  0
  143.9373  131.9455  150.2286 C   0  0  0  0  0  0  0  0  0  0  0  0
  143.6144  134.8147  151.6718 C   0  0  0  0  0  0  0  0  0  0  0  0
  144.3833  136.1081  151.9339 C   0  0  0  0  0  0  0  0  0  0  0  0
  145.5713  135.4465  151.2374 C   0  0  0  0  0  0  0  0  0  0  0  0
  149.8060  135.5549  155.9322 H   0  0  0  0  0  0  0  0  0  0  0  0
  148.6834  134.7519  154.8577 H   0  0  0  0  0  0  0  0  0  0  0  0
  150.2652  135.2826  154.2542 H   0  0  0  0  0  0  0  0  0  0  0  0
  151.4301  134.3277  157.1294 H   0  0  0  0  0  0  0  0  0  0  0  0
  151.7376  130.0102  156.4948 H   0  0  0  0  0  0  0  0  0  0  0  0
  149.5857  133.2610  152.8284 H   0  0  0  0  0  0  0  0  0  0  0  0
  149.2954  131.5728  152.8956 H   0  0  0  0  0  0  0  0  0  0  0  0
  147.3413  133.2291  151.8595 H   0  0  0  0  0  0  0  0  0  0  0  0
  144.9653  132.4999  153.0785 H   0  0  0  0  0  0  0  0  0  0  0  0
  145.2987  134.0993  153.6920 H   0  0  0  0  0  0  0  0  0  0  0  0
  146.0160  132.5924  150.3109 H   0  0  0  0  0  0  0  0  0  0  0  0
  143.4004  133.8498  149.1835 H   0  0  0  0  0  0  0  0  0  0  0  0
  144.6201  132.8130  148.2786 H   0  0  0  0  0  0  0  0  0  0  0  0
  144.2629  130.9494  149.9364 H   0  0  0  0  0  0  0  0  0  0  0  0
  143.0318  131.9706  150.8287 H   0  0  0  0  0  0  0  0  0  0  0  0
  143.0599  134.8463  150.7321 H   0  0  0  0  0  0  0  0  0  0  0  0
  142.9732  134.4970  152.4945 H   0  0  0  0  0  0  0  0  0  0  0  0
  143.9858  136.9865  151.4246 H   0  0  0  0  0  0  0  0  0  0  0  0
  144.5571  136.2953  152.9945 H   0  0  0  0  0  0  0  0  0  0  0  0
  146.5329  135.6383  151.7147 H   0  0  0  0  0  0  0  0  0  0  0  0
  145.6087  135.7035  150.1799 H   0  0  0  0  0  0  0  0  0  0  0  0
  150.6116  129.3389  154.7188 H   0  0  0  0  0  0  0  0  0  0  0  0
  1  2  1  0  0  0  0
  1 22  1  0  0  0  0
  1 23  1  0  0  0  0
  1 24  1  0  0  0  0
  2  9  1  0  0  0  0
  2  3  2  0  0  0  0
  3  4  1  0  0  0  0
  3 25  1  0  0  0  0
  4  5  2  0  0  0  0
  4  6  1  0  0  0  0
  6  7  2  0  0  0  0
  6 26  1  0  0  0  0
  7  8  1  0  0  0  0
  7  9  1  0  0  0  0
  8 43  1  0  0  0  0
  9 10  1  0  0  0  0
 10 11  1  0  0  0  0
 10 27  1  0  0  0  0
 10 28  1  0  0  0  0
 11 12  2  0  0  0  0
 11 13  1  0  0  0  0
 13 14  1  0  0  0  0
 13 29  1  0  0  0  0
 14 15  1  0  0  0  0
 14 30  1  0  0  0  0
 14 31  1  0  0  0  0
 15 21  1  0  0  0  0
 15 16  1  0  0  0  0
 15 19  1  0  0  0  0
 16 18  1  0  0  0  0
 16 17  1  0  0  0  0
 16 32  1  0  0  0  0
 17 18  1  0  0  0  0
 17 33  1  0  0  0  0
 17 34  1  0  0  0  0
 18 35  1  0  0  0  0
 18 36  1  0  0  0  0
 19 20  1  0  0  0  0
 19 37  1  0  0  0  0
 19 38  1  0  0  0  0
 20 21  1  0  0  0  0
 20 39  1  0  0  0  0
 20 40  1  0  0  0  0
 21 41  1  0  0  0  0
 21 42  1  0  0  0  0
M  END
> <s_m_source_file>
AV-unprocessed.smi

> <i_m_source_file_index>
2699

> <i_lp_mmshare_version>
43012

> <i_f3d_flags>
0

> <s_epik_input>
W0NIM11jMVtjSF1jKFtPSF0pW2NIXWMoPU8pbjFbQ0gyXUMoPU8pW05IXVtDSDJdQzIoW0NIXTNbQ0gyXVtDSDJdMylbQ0gyXVtDSDJdW0NIMl0y

> <s_epik_cmdline>
J2VwaWtfcHl0aG9uJywgJy1waCcsICc3LjAnLCAnLXRuJywgJzgnLCAnLW1hJywgJzIwMCcsICctbWV0YWxfYmluZGluZycsICctaW1hZScsICc8aW5maWxlLm1hZT4nLCAnLW9tYWUnLCAnPG91dGZpbGUubWFlPic=

> <r_epik_Ionization_Penalty>
1.8336e-08

> <r_epik_Ionization_Penalty_Charging>
0

> <r_epik_Ionization_Penalty_Neutral>
1.8336e-08

> <r_epik_State_Penalty>
2.39433

> <r_epik_Charging_Adjusted_Penalty>
2.39433

> <i_epik_Tot_Q>
0

> <i_epik_Tot_abs_Q>
0

> <r_epik_Metal_State_Penalty>
2.39433

> <b_epik_Metal_Only>
0

> <s_lp_Force_Field>
OPLS_2005

> <r_lp_Energy>
30.2795

> <b_lp_Chiralities_Consistent>
1

> <s_lp_Variant>
AV-unprocessed.smi:2699-3

> <Gold.Version>
5.8.1

> <Gold.Id.Protein>
6NUR|6NUR_protein|mol2

> <Gold.PLP.Fitness>
40.5779

> <Gold.PLP.PLP>
-38.3299

> <Gold.PLP.part.hbond>
-1.0000

> <Gold.PLP.part.metal>
0.0000

> <Gold.PLP.part.buried>
-5.9346

> <Gold.PLP.part.nonpolar>
-31.1670

> <Gold.PLP.part.repulsive>
0.0145

> <Gold.PLP.ligand.clash>
0.0000

> <Gold.PLP.ligand.torsion>
1.2225

> <Gold.PLP.Chemscore.Hbond>
1.0000

> <Gold.PLP.Chemscore.CHOScore>
0.0000

> <Gold.PLP.Chemscore.Metal>
0.0000

> <Gold.Chemscore.Hbonds>
donor molecule, donor type, donor heavy atom, donor atom, acceptor molecule, acceptor atom, score
      P1  H  6896  6907       L1     5  0.98

> <Gold.PLP.Chemscore.Internal.Correction>
1.6929

> <Gold.Rescore>
     Score         DG    S(hbond)    S(metal)    S(lipo)     H(rot)  DE(clash)    DE(int)     intcor
     11.19     -12.47       0.95        0.00      85.16       2.40       0.07       1.21       ----

> <Gold.Chemscore.Fitness>
11.1872

> <Gold.Chemscore.DG>
-12.4712

> <Gold.Chemscore.ZeroCoef>
-5.4800

> <Gold.Chemscore.Hbond>
0.9531

> <Gold.Chemscore.Metal>
0.0000

> <Gold.Chemscore.Lipo>
85.1635

> <Gold.Chemscore.Internal_Hbond>
0.0000

> <Gold.Chemscore.DEClash>
0.0744

> <Gold.Chemscore.DEInternal>
1.2096

> <Gold.Chemscore.Rot>
2.4048

> <Gold.Chemscore.Internal.Correction>
   9.000000E+99

> <Gold.Chemscore.Hbonds>
donor molecule, donor type, donor heavy atom, donor atom, acceptor molecule, acceptor atom, score
      P1  H  6896  6907       L1     5  0.77

> <Gold.Chemscore.Hbond.Weighted>
-3.1834

> <Gold.Chemscore.Metal.Weighted>
-0.0000

> <Gold.Chemscore.Lipo.Weighted>
-9.9641

> <Gold.Chemscore.Internal_Hbond.Weighted>
0.0000

> <Gold.Chemscore.DEClash.Weighted>
0.0744

> <Gold.Chemscore.DEInternal.Weighted>
1.2096

> <Gold.Chemscore.Rot.Weighted>
6.1563

> <Gold.Chemscore.Internal.Correction.Weighted>
   9.000000E+99

> <Gold.Protein.RotatedTorsions>
[ 6907 6896 6895 6894 ] final  149.46 input  -60.11 | X-H torsion
[ 7974 7965 7964 7962 ] final   49.71 input  175.53 | X-H torsion
[ 8008 7997 7996 7995 ] final  125.99 input   59.86 | X-H torsion
[ 10167 10162 10161 10158 ] final   68.48 input  -65.29 | X-H torsion
[ 10718 10713 10712 10709 ] final  -26.16 input   66.30 | X-H torsion
[ 10763 10752 10751 10750 ] final  133.10 input  -60.55 | X-H torsion
[ 11005 11000 10999 10996 ] final  139.64 input  -57.11 | X-H torsion

> <Gold.Protein.ActiveResidues>
 VAL166  LYS551  ARG553  GLY616  TRP617  ASP618  TYR619  PRO620  LYS621  CYS622 
 ASP623  PHE694  ASN695  SER759  ASP760  ASP761  ALA762  ILE779  LEU786  VAL792 
 PHE793  MET794  SER795  GLU796  ALA797  LYS798  CYS799  TRP800  GLU811  SER814 

> <Gold.Protein.RotatedAtoms>
  152.1278  133.4390  159.4705 H   0  0  0  0  0  0  0  0  0  0  0  0  # atno 6907 bound_to 6896
  150.6876  134.2458  159.4500 H   0  0  0  0  0  0  0  0  0  0  0  0  # atno 6908 bound_to 6896
  152.0339  134.9751  160.0623 H   0  0  0  0  0  0  0  0  0  0  0  0  # atno 6909 bound_to 6896
  146.0083  139.4515  142.9972 H   0  0  0  0  0  0  0  0  0  0  0  0  # atno 7974 bound_to 7965
  156.2850  140.2703  156.2038 H   0  0  0  0  0  0  0  0  0  0  0  0  # atno 8008 bound_to 7997
  155.0334  140.0386  157.2500 H   0  0  0  0  0  0  0  0  0  0  0  0  # atno 8009 bound_to 7997
  154.7335  140.2711  155.6440 H   0  0  0  0  0  0  0  0  0  0  0  0  # atno 8010 bound_to 7997
  140.0782  144.5093  150.7180 H   0  0  0  0  0  0  0  0  0  0  0  0  # atno 10167 bound_to 10162
  156.4548  130.4491  149.6966 H   0  0  0  0  0  0  0  0  0  0  0  0  # atno 10718 bound_to 10713
  153.8016  135.3141  155.3391 H   0  0  0  0  0  0  0  0  0  0  0  0  # atno 10763 bound_to 10752
  154.8087  135.4681  154.0461 H   0  0  0  0  0  0  0  0  0  0  0  0  # atno 10764 bound_to 10752
  153.1811  135.6893  153.8564 H   0  0  0  0  0  0  0  0  0  0  0  0  # atno 10765 bound_to 10752
  140.0269  134.9370  157.0586 H   0  0  0  0  0  0  0  0  0  0  0  0  # atno 11005 bound_to 11000
  145.7382  141.0018  143.1315 LP  0  0  0  0  0  0  0  0  0  0  0  0  # atno 17320 bound_to 7965
  144.6943  139.9066  143.7461 LP  0  0  0  0  0  0  0  0  0  0  0  0  # atno 17321 bound_to 7965
  140.7091  143.2491  151.4636 LP  0  0  0  0  0  0  0  0  0  0  0  0  # atno 17342 bound_to 10162
  139.5795  144.1742  152.1949 LP  0  0  0  0  0  0  0  0  0  0  0  0  # atno 17343 bound_to 10162
  156.3778  130.7563  151.2553 LP  0  0  0  0  0  0  0  0  0  0  0  0  # atno 17370 bound_to 10713
  157.7501  131.0304  150.4137 LP  0  0  0  0  0  0  0  0  0  0  0  0  # atno 17371 bound_to 10713
  140.4291  134.1799  155.7167 LP  0  0  0  0  0  0  0  0  0  0  0  0  # atno 17394 bound_to 11000
  141.1808  133.8418  157.1264 LP  0  0  0  0  0  0  0  0  0  0  0  0  # atno 17395 bound_to 11000

$$$$
