AV-unprocessed.smi:2296|AV-procd|sdf|9221|dock2
  -GOLD-   2272012443D 1   1.00000     0.00000
 Structure written by MMmdl.
 24 24  0  0  0  0  0  0  0  0  2 V2000
  145.2452  136.3320  149.6077 N   0  3  0  0  0  0  0  0  0  0  0  0
  145.8752  136.2739  150.9410 C   0  0  1  0  0  0  0  0  0  0  0  0
  146.0711  137.6938  151.4993 C   0  0  0  0  0  0  0  0  0  0  0  0
  147.4054  138.1144  151.3066 O   0  0  0  0  0  0  0  0  0  0  0  0
  145.0377  135.4046  151.8992 C   0  0  0  0  0  0  0  0  0  0  0  0
  144.9415  133.9539  151.4596 C   0  0  0  0  0  0  0  0  0  0  0  0
  146.0916  133.1396  151.3981 C   0  0  0  0  0  0  0  0  0  0  0  0
  145.9445  131.7989  150.9880 C   0  0  0  0  0  0  0  0  0  0  0  0
  144.7561  131.2525  150.6534 N   0  0  0  0  0  0  0  0  0  0  0  0
  143.6593  132.0381  150.7121 C   0  0  0  0  0  0  0  0  0  0  0  0
  143.6975  133.3903  151.1084 C   0  0  0  0  0  0  0  0  0  0  0  0
  145.8931  135.9923  148.9115 H   0  0  0  0  0  0  0  0  0  0  0  0
  144.9903  137.2862  149.3961 H   0  0  0  0  0  0  0  0  0  0  0  0
  146.8560  135.8098  150.8247 H   0  0  0  0  0  0  0  0  0  0  0  0
  145.3907  138.4030  151.0263 H   0  0  0  0  0  0  0  0  0  0  0  0
  145.8637  137.7134  152.5698 H   0  0  0  0  0  0  0  0  0  0  0  0
  147.9656  137.6171  151.8840 H   0  0  0  0  0  0  0  0  0  0  0  0
  145.4792  135.4242  152.8967 H   0  0  0  0  0  0  0  0  0  0  0  0
  144.0345  135.8201  152.0051 H   0  0  0  0  0  0  0  0  0  0  0  0
  147.0662  133.5279  151.6557 H   0  0  0  0  0  0  0  0  0  0  0  0
  146.8042  131.1482  150.9300 H   0  0  0  0  0  0  0  0  0  0  0  0
  142.7232  131.5753  150.4370 H   0  0  0  0  0  0  0  0  0  0  0  0
  142.7909  133.9771  151.1401 H   0  0  0  0  0  0  0  0  0  0  0  0
  144.4174  135.7531  149.6074 H   0  0  0  0  0  0  0  0  0  0  0  0
  1  2  1  0  0  0  0
  1 12  1  0  0  0  0
  1 13  1  0  0  0  0
  1 24  1  0  0  0  0
  2  3  1  0  0  0  0
  2  5  1  0  0  0  0
  2 14  1  0  0  0  0
  3  4  1  0  0  0  0
  3 15  1  0  0  0  0
  3 16  1  0  0  0  0
  4 17  1  0  0  0  0
  5  6  1  0  0  0  0
  5 18  1  0  0  0  0
  5 19  1  0  0  0  0
  6 11  1  0  0  0  0
  6  7  2  0  0  0  0
  7  8  1  0  0  0  0
  7 20  1  0  0  0  0
  8  9  2  0  0  0  0
  8 21  1  0  0  0  0
  9 10  1  0  0  0  0
 10 11  2  0  0  0  0
 10 22  1  0  0  0  0
 11 23  1  0  0  0  0
M  CHG  1   1   1
M  END
> <s_m_source_file>
AV-unprocessed.smi

> <i_m_source_file_index>
2296

> <i_lp_mmshare_version>
43012

> <i_f3d_flags>
0

> <s_epik_input>
W09IXVtDSDJdW0NAQEhdKFtOSDJdKVtDSDJdYzFbY0hdW2NIXW5bY0hdW2NIXTE=

> <s_epik_cmdline>
J2VwaWtfcHl0aG9uJywgJy1waCcsICc3LjAnLCAnLXRuJywgJzgnLCAnLW1hJywgJzIwMCcsICctbWV0YWxfYmluZGluZycsICctaW1hZScsICc8aW5maWxlLm1hZT4nLCAnLW9tYWUnLCAnPG91dGZpbGUubWFlPic=

> <r_epik_Ionization_Penalty>
0.0199414

> <r_epik_Ionization_Penalty_Charging>
0.0188044

> <r_epik_Ionization_Penalty_Neutral>
0.00113699

> <r_epik_State_Penalty>
0.00788343

> <r_epik_Charging_Adjusted_Penalty>
0.0266878

> <i_epik_Tot_Q>
1

> <i_epik_Tot_abs_Q>
1

> <r_epik_Metal_State_Penalty>
-0

> <b_epik_Metal_Only>
0

> <s_lp_Force_Field>
OPLS_2005

> <r_lp_Energy>
8.03463

> <b_lp_Chiralities_Consistent>
1

> <s_lp_Variant>
AV-unprocessed.smi:2296-2

> <Gold.Version>
5.8.1

> <Gold.Id.Protein>
6NUR|6NUR_protein|mol2

> <Gold.PLP.Fitness>
39.7075

> <Gold.PLP.PLP>
-23.9084

> <Gold.PLP.part.hbond>
-5.0298

> <Gold.PLP.part.metal>
0.0000

> <Gold.PLP.part.buried>
-0.5772

> <Gold.PLP.part.nonpolar>
-19.2508

> <Gold.PLP.part.repulsive>
0.2701

> <Gold.PLP.ligand.clash>
0.0000

> <Gold.PLP.ligand.torsion>
0.6104

> <Gold.PLP.Chemscore.Hbond>
3.6680

> <Gold.PLP.Chemscore.CHOScore>
2.0000

> <Gold.PLP.Chemscore.Metal>
0.0000

> <Gold.Chemscore.Hbonds>
donor molecule, donor type, donor heavy atom, donor atom, acceptor molecule, acceptor atom, score
      L1  H     1    12       P1  7921  0.93
      L1  H     1    13       P1 10171  0.90
      L1  H     4    17       P1  7948  0.77
      P1  H  7954  7966       L1     4  1.00
      L1  C     8    21       P1 10747  1.00
      L1  C    10    22       P1 10952  1.00

> <Gold.PLP.Chemscore.Internal.Correction>
0.0160

> <Gold.Rescore>
     Score         DG    S(hbond)    S(metal)    S(lipo)     H(rot)  DE(clash)    DE(int)     intcor
     15.67     -16.58       2.94        0.00      57.72       2.14       0.54       0.38       ----

> <Gold.Chemscore.Fitness>
15.6653

> <Gold.Chemscore.DG>
-16.5784

> <Gold.Chemscore.ZeroCoef>
-5.4800

> <Gold.Chemscore.Hbond>
2.9415

> <Gold.Chemscore.Metal>
0.0000

> <Gold.Chemscore.Lipo>
57.7225

> <Gold.Chemscore.Internal_Hbond>
0.0000

> <Gold.Chemscore.DEClash>
0.5367

> <Gold.Chemscore.DEInternal>
0.3764

> <Gold.Chemscore.Rot>
2.1405

> <Gold.Chemscore.Internal.Correction>
   9.000000E+99

> <Gold.Chemscore.Hbonds>
donor molecule, donor type, donor heavy atom, donor atom, acceptor molecule, acceptor atom, score
      L1  H     1    12       P1  7921  0.89
      L1  H     1    13       P1 10171  0.88
      L1  H     4    17       P1  7948  0.76
      P1  H  7954  7966       L1     4  0.25

> <Gold.Chemscore.Hbond.Weighted>
-9.8245

> <Gold.Chemscore.Metal.Weighted>
-0.0000

> <Gold.Chemscore.Lipo.Weighted>
-6.7535

> <Gold.Chemscore.Internal_Hbond.Weighted>
0.0000

> <Gold.Chemscore.DEClash.Weighted>
0.5367

> <Gold.Chemscore.DEInternal.Weighted>
0.3764

> <Gold.Chemscore.Rot.Weighted>
5.4797

> <Gold.Chemscore.Internal.Correction.Weighted>
   9.000000E+99

> <Gold.Protein.RotatedTorsions>
[ 6907 6896 6895 6894 ] final  -79.87 input  -60.11 | X-H torsion
[ 7974 7965 7964 7962 ] final   26.39 input  175.53 | X-H torsion
[ 8008 7997 7996 7995 ] final  159.80 input   59.86 | X-H torsion
[ 10167 10162 10161 10158 ] final -140.06 input  -65.29 | X-H torsion
[ 10718 10713 10712 10709 ] final  -73.53 input   66.30 | X-H torsion
[ 10763 10752 10751 10750 ] final  -56.88 input  -60.55 | X-H torsion
[ 11005 11000 10999 10996 ] final   31.41 input  -57.11 | X-H torsion

> <Gold.Protein.ActiveResidues>
 VAL166  LYS551  ARG553  GLY616  TRP617  ASP618  TYR619  PRO620  LYS621  CYS622 
 ASP623  PHE694  ASN695  SER759  ASP760  ASP761  ALA762  ILE779  LEU786  VAL792 
 PHE793  MET794  SER795  GLU796  ALA797  LYS798  CYS799  TRP800  GLU811  SER814 

> <Gold.Protein.RotatedAtoms>
  150.6941  134.4056  159.5138 H   0  0  0  0  0  0  0  0  0  0  0  0  # atno 6907 bound_to 6896
  152.1823  134.8741  160.0534 H   0  0  0  0  0  0  0  0  0  0  0  0  # atno 6908 bound_to 6896
  151.9727  133.3696  159.4114 H   0  0  0  0  0  0  0  0  0  0  0  0  # atno 6909 bound_to 6896
  146.1840  139.7335  142.8880 H   0  0  0  0  0  0  0  0  0  0  0  0  # atno 7974 bound_to 7965
  156.2215  140.1821  156.7466 H   0  0  0  0  0  0  0  0  0  0  0  0  # atno 8008 bound_to 7997
  154.5872  140.0656  156.9217 H   0  0  0  0  0  0  0  0  0  0  0  0  # atno 8009 bound_to 7997
  155.2398  140.3321  155.4296 H   0  0  0  0  0  0  0  0  0  0  0  0  # atno 8010 bound_to 7997
  139.8318  143.7436  152.2666 H   0  0  0  0  0  0  0  0  0  0  0  0  # atno 10167 bound_to 10162
  156.0277  130.4396  150.2755 H   0  0  0  0  0  0  0  0  0  0  0  0  # atno 10718 bound_to 10713
  154.2137  135.6390  153.5123 H   0  0  0  0  0  0  0  0  0  0  0  0  # atno 10763 bound_to 10752
  152.9984  135.5480  154.6188 H   0  0  0  0  0  0  0  0  0  0  0  0  # atno 10764 bound_to 10752
  154.5631  135.2910  155.0874 H   0  0  0  0  0  0  0  0  0  0  0  0  # atno 10765 bound_to 10752
  140.2842  134.2938  155.7792 H   0  0  0  0  0  0  0  0  0  0  0  0  # atno 11005 bound_to 11000
  145.3993  141.0383  143.3079 LP  0  0  0  0  0  0  0  0  0  0  0  0  # atno 17320 bound_to 7965
  144.8364  139.5543  143.6920 LP  0  0  0  0  0  0  0  0  0  0  0  0  # atno 17321 bound_to 7965
  139.7646  144.7496  151.0313 LP  0  0  0  0  0  0  0  0  0  0  0  0  # atno 17342 bound_to 10162
  140.7806  143.4712  151.0144 LP  0  0  0  0  0  0  0  0  0  0  0  0  # atno 17343 bound_to 10162
  157.0859  131.0156  151.3140 LP  0  0  0  0  0  0  0  0  0  0  0  0  # atno 17370 bound_to 10713
  157.4892  130.7811  149.7490 LP  0  0  0  0  0  0  0  0  0  0  0  0  # atno 17371 bound_to 10713
  141.2157  133.7544  156.9526 LP  0  0  0  0  0  0  0  0  0  0  0  0  # atno 17394 bound_to 11000
  140.1255  134.9389  157.2264 LP  0  0  0  0  0  0  0  0  0  0  0  0  # atno 17395 bound_to 11000

$$$$
