AV-unprocessed.smi:283|AV-procd|sdf|2136|dock6
  -GOLD-   2262021453D 1   1.00000     0.00000
 Structure written by MMmdl.
 48 51  0  0  0  0  0  0  0  0  1 V2000
  150.0234  141.7356  156.8736 C   0  0  0  0  0  0  0  0  0  0  0  0
  151.0811  141.4114  157.9371 C   0  0  1  0  0  0  0  0  0  0  0  0
  152.2681  140.8518  157.2943 N   0  0  0  0  0  0  0  0  0  0  0  0
  152.2265  139.6634  156.6522 C   0  0  0  0  0  0  0  0  0  0  0  0
  152.8524  139.6293  155.4521 N   0  0  0  0  0  0  0  0  0  0  0  0
  152.8835  138.4976  154.7445 C   0  0  0  0  0  0  0  0  0  0  0  0
  152.3564  137.3112  155.0483 N   0  0  0  0  0  0  0  0  0  0  0  0
  151.7094  137.3362  156.2490 C   0  0  0  0  0  0  0  0  0  0  0  0
  151.5959  138.4678  157.1084 C   0  0  0  0  0  0  0  0  0  0  0  0
  150.8581  138.1166  158.2325 N   0  0  0  0  0  0  0  0  0  0  0  0
  150.5701  136.8576  158.0525 C   0  0  0  0  0  0  0  0  0  0  0  0
  151.0450  136.3045  156.8858 N   0  0  0  0  0  0  0  0  0  0  0  0
  150.8682  134.8865  156.4281 C   0  0  1  0  0  0  0  0  0  0  0  0
  150.1243  134.1718  157.3704 O   0  0  0  0  0  0  0  0  0  0  0  0
  148.8996  133.7143  156.7985 C   0  0  2  0  0  0  0  0  0  0  0  0
  148.4134  132.4262  157.4843 C   0  0  0  0  0  0  0  0  0  0  0  0
  149.4075  131.4284  157.3939 O   0  0  0  0  0  0  0  0  0  0  0  0
  149.2186  133.5922  155.3029 C   0  0  2  0  0  0  0  0  0  0  0  0
  149.8793  132.3722  155.0172 O   0  0  0  0  0  0  0  0  0  0  0  0
  150.1480  134.7727  155.0691 C   0  0  1  0  0  0  0  0  0  0  0  0
  149.4060  135.9269  154.7147 O   0  0  0  0  0  0  0  0  0  0  0  0
  151.3448  142.6390  158.8141 C   0  0  0  0  0  0  0  0  0  0  0  0
  150.5533  143.8012  158.6586 C   0  0  0  0  0  0  0  0  0  0  0  0
  150.7789  144.9368  159.4586 C   0  0  0  0  0  0  0  0  0  0  0  0
  151.7944  144.9205  160.4312 C   0  0  0  0  0  0  0  0  0  0  0  0
  152.5789  143.7657  160.6049 C   0  0  0  0  0  0  0  0  0  0  0  0
  152.3578  142.6259  159.8060 C   0  0  0  0  0  0  0  0  0  0  0  0
  153.3433  141.2307  160.0744 Cl  0  0  0  0  0  0  0  0  0  0  0  0
  151.8800  134.4804  156.4028 H   0  0  0  0  0  0  0  0  0  0  0  0
  148.1451  134.4944  156.9081 H   0  0  0  0  0  0  0  0  0  0  0  0
  148.3185  133.6398  154.6883 H   0  0  0  0  0  0  0  0  0  0  0  0
  150.8768  134.5829  154.2800 H   0  0  0  0  0  0  0  0  0  0  0  0
  149.0944  142.0735  157.3337 H   0  0  0  0  0  0  0  0  0  0  0  0
  149.7897  140.8575  156.2709 H   0  0  0  0  0  0  0  0  0  0  0  0
  150.3654  142.5219  156.1996 H   0  0  0  0  0  0  0  0  0  0  0  0
  150.6693  140.6152  158.5548 H   0  0  0  0  0  0  0  0  0  0  0  0
  153.1406  141.2608  157.5956 H   0  0  0  0  0  0  0  0  0  0  0  0
  153.4058  138.5492  153.8004 H   0  0  0  0  0  0  0  0  0  0  0  0
  149.9993  136.2920  158.7746 H   0  0  0  0  0  0  0  0  0  0  0  0
  148.2311  132.6098  158.5437 H   0  0  0  0  0  0  0  0  0  0  0  0
  147.4797  132.0695  157.0488 H   0  0  0  0  0  0  0  0  0  0  0  0
  150.2541  131.8487  157.3933 H   0  0  0  0  0  0  0  0  0  0  0  0
  150.1900  132.4008  154.1252 H   0  0  0  0  0  0  0  0  0  0  0  0
  149.3652  135.9787  153.7719 H   0  0  0  0  0  0  0  0  0  0  0  0
  149.7648  143.8304  157.9210 H   0  0  0  0  0  0  0  0  0  0  0  0
  150.1702  145.8192  159.3274 H   0  0  0  0  0  0  0  0  0  0  0  0
  151.9675  145.7901  161.0476 H   0  0  0  0  0  0  0  0  0  0  0  0
  153.3526  143.7536  161.3585 H   0  0  0  0  0  0  0  0  0  0  0  0
  1  2  1  0  0  0  0
  1 33  1  0  0  0  0
  1 34  1  0  0  0  0
  1 35  1  0  0  0  0
  2  3  1  0  0  0  0
  2 22  1  0  0  0  0
  2 36  1  0  0  0  0
  3  4  1  0  0  0  0
  3 37  1  0  0  0  0
  4  9  1  0  0  0  0
  4  5  2  0  0  0  0
  5  6  1  0  0  0  0
  6  7  2  0  0  0  0
  6 38  1  0  0  0  0
  7  8  1  0  0  0  0
  8 12  1  0  0  0  0
  8  9  2  0  0  0  0
  9 10  1  0  0  0  0
 10 11  2  0  0  0  0
 11 12  1  0  0  0  0
 11 39  1  0  0  0  0
 12 13  1  0  0  0  0
 13 29  1  0  0  0  0
 13 20  1  0  0  0  0
 13 14  1  0  0  0  0
 14 15  1  0  0  0  0
 15 30  1  0  0  0  0
 15 16  1  0  0  0  0
 15 18  1  0  0  0  0
 16 17  1  0  0  0  0
 16 40  1  0  0  0  0
 16 41  1  0  0  0  0
 17 42  1  0  0  0  0
 18 31  1  0  0  0  0
 18 19  1  0  0  0  0
 18 20  1  0  0  0  0
 19 43  1  0  0  0  0
 20 32  1  0  0  0  0
 20 21  1  0  0  0  0
 21 44  1  0  0  0  0
 22 27  1  0  0  0  0
 22 23  2  0  0  0  0
 23 24  1  0  0  0  0
 23 45  1  0  0  0  0
 24 25  2  0  0  0  0
 24 46  1  0  0  0  0
 25 26  1  0  0  0  0
 25 47  1  0  0  0  0
 26 27  2  0  0  0  0
 26 48  1  0  0  0  0
 27 28  1  0  0  0  0
M  END
> <s_m_source_file>
AV-unprocessed.smi

> <i_m_source_file_index>
283

> <i_lp_mmshare_version>
43012

> <i_f3d_flags>
0

> <s_epik_input>
Q2xjMVtjSF1bY0hdW2NIXVtjSF1jMVtDQEhdKFtDSDNdKVtOSF1jKG5bY0hdbjIpYyhjMjMpbltjSF1uM1tDQEBIXTRPW0NASF0oW0NIMl1bT0hdKVtDQEBIXShbT0hdKVtDQEhdNFtPSF0=

> <s_epik_cmdline>
J2VwaWtfcHl0aG9uJywgJy1waCcsICc3LjAnLCAnLXRuJywgJzgnLCAnLW1hJywgJzIwMCcsICctbWV0YWxfYmluZGluZycsICctaW1hZScsICc8aW5maWxlLm1hZT4nLCAnLW9tYWUnLCAnPG91dGZpbGUubWFlPic=

> <r_lp_tautomer_probability>
1

> <r_epik_Ionization_Penalty>
0.000266407

> <r_epik_Ionization_Penalty_Charging>
0

> <r_epik_Ionization_Penalty_Neutral>
0.000266407

> <r_epik_State_Penalty>
-0

> <r_epik_Charging_Adjusted_Penalty>
0

> <i_epik_Tot_Q>
0

> <i_epik_Tot_abs_Q>
0

> <r_epik_Metal_State_Penalty>
-0

> <b_epik_Metal_Only>
0

> <s_epik_Chemistry_Notes>
This compound contains an acetal/aminal-like group ( X-CH(R)-Y where X, Y are N, S, or O) that may be acid/base labile, releasing an aldehyde.

> <s_lp_Force_Field>
OPLS_2005

> <r_lp_Energy>
46.6605

> <b_lp_Chiralities_Consistent>
1

> <s_lp_Variant>
AV-unprocessed.smi:283-12

> <Gold.Version>
5.8.1

> <Gold.Id.Protein>
6NUR|6NUR_protein|mol2

> <Gold.PLP.Fitness>
54.3879

> <Gold.PLP.PLP>
-44.3877

> <Gold.PLP.part.hbond>
-4.0000

> <Gold.PLP.part.metal>
0.0000

> <Gold.PLP.part.buried>
-6.5366

> <Gold.PLP.part.nonpolar>
-34.5111

> <Gold.PLP.part.repulsive>
0.1844

> <Gold.PLP.ligand.clash>
0.0000

> <Gold.PLP.ligand.torsion>
0.5458

> <Gold.PLP.Chemscore.Hbond>
3.6697

> <Gold.PLP.Chemscore.CHOScore>
0.0000

> <Gold.PLP.Chemscore.Metal>
0.0000

> <Gold.Chemscore.Hbonds>
donor molecule, donor type, donor heavy atom, donor atom, acceptor molecule, acceptor atom, score
      L1  H    21    44       P1  7948  1.00
      P1  H  6896  6907       L1    14  0.86
      P1  H  7997  8010       L1     5  0.80
      P1  H 10752 10765       L1     7  0.70

> <Gold.PLP.Chemscore.Internal.Correction>
0.0826

> <Gold.Rescore>
     Score         DG    S(hbond)    S(metal)    S(lipo)     H(rot)  DE(clash)    DE(int)     intcor
     14.47     -16.15       2.85        0.00      99.58       4.10       0.02       1.66       ----

> <Gold.Chemscore.Fitness>
14.4747

> <Gold.Chemscore.DG>
-16.1513

> <Gold.Chemscore.ZeroCoef>
-5.4800

> <Gold.Chemscore.Hbond>
2.8467

> <Gold.Chemscore.Metal>
0.0000

> <Gold.Chemscore.Lipo>
99.5832

> <Gold.Chemscore.Internal_Hbond>
0.0000

> <Gold.Chemscore.DEClash>
0.0174

> <Gold.Chemscore.DEInternal>
1.6592

> <Gold.Chemscore.Rot>
4.0968

> <Gold.Chemscore.Internal.Correction>
   9.000000E+99

> <Gold.Chemscore.Hbonds>
donor molecule, donor type, donor heavy atom, donor atom, acceptor molecule, acceptor atom, score
      L1  H    21    44       P1  7948  0.69
      P1  H  6896  6907       L1    14  0.79
      P1  H  7997  8010       L1     5  0.11
      P1  H 10752 10765       L1     7  0.60

> <Gold.Chemscore.Hbond.Weighted>
-9.5080

> <Gold.Chemscore.Metal.Weighted>
-0.0000

> <Gold.Chemscore.Lipo.Weighted>
-11.6512

> <Gold.Chemscore.Internal_Hbond.Weighted>
0.0000

> <Gold.Chemscore.DEClash.Weighted>
0.0174

> <Gold.Chemscore.DEInternal.Weighted>
1.6592

> <Gold.Chemscore.Rot.Weighted>
10.4879

> <Gold.Chemscore.Internal.Correction.Weighted>
   9.000000E+99

> <Gold.Protein.RotatedTorsions>
[ 6907 6896 6895 6894 ] final -116.24 input  -60.11 | X-H torsion
[ 7974 7965 7964 7962 ] final  -24.58 input  175.53 | X-H torsion
[ 8008 7997 7996 7995 ] final   95.69 input   59.86 | X-H torsion
[ 10167 10162 10161 10158 ] final  -19.44 input  -65.29 | X-H torsion
[ 10718 10713 10712 10709 ] final -122.15 input   66.30 | X-H torsion
[ 10763 10752 10751 10750 ] final -179.67 input  -60.55 | X-H torsion
[ 11005 11000 10999 10996 ] final -144.09 input  -57.11 | X-H torsion

> <Gold.Protein.ActiveResidues>
 VAL166  LYS551  ARG553  GLY616  TRP617  ASP618  TYR619  PRO620  LYS621  CYS622 
 ASP623  PHE694  ASN695  SER759  ASP760  ASP761  ALA762  ILE779  LEU786  VAL792 
 PHE793  MET794  SER795  GLU796  ALA797  LYS798  CYS799  TRP800  GLU811  SER814 

> <Gold.Protein.RotatedAtoms>
  150.8040  133.8545  159.3214 H   0  0  0  0  0  0  0  0  0  0  0  0  # atno 6907 bound_to 6896
  151.6349  135.1017  160.0139 H   0  0  0  0  0  0  0  0  0  0  0  0  # atno 6908 bound_to 6896
  152.4130  133.6953  159.6449 H   0  0  0  0  0  0  0  0  0  0  0  0  # atno 6909 bound_to 6896
  146.1546  140.4771  142.8597 H   0  0  0  0  0  0  0  0  0  0  0  0  # atno 7974 bound_to 7965
  156.0716  140.3283  155.7583 H   0  0  0  0  0  0  0  0  0  0  0  0  # atno 8008 bound_to 7997
  155.5296  140.0592  157.2909 H   0  0  0  0  0  0  0  0  0  0  0  0  # atno 8009 bound_to 7997
  154.4533  140.1930  156.0470 H   0  0  0  0  0  0  0  0  0  0  0  0  # atno 8010 bound_to 7997
  140.7268  143.4819  151.0107 H   0  0  0  0  0  0  0  0  0  0  0  0  # atno 10167 bound_to 10162
  156.1395  130.6455  150.9749 H   0  0  0  0  0  0  0  0  0  0  0  0  # atno 10718 bound_to 10713
  154.5321  135.2800  155.1171 H   0  0  0  0  0  0  0  0  0  0  0  0  # atno 10763 bound_to 10752
  154.2687  135.6308  153.5305 H   0  0  0  0  0  0  0  0  0  0  0  0  # atno 10764 bound_to 10752
  152.9959  135.5623  154.5837 H   0  0  0  0  0  0  0  0  0  0  0  0  # atno 10765 bound_to 10752
  140.8059  134.2802  157.4960 H   0  0  0  0  0  0  0  0  0  0  0  0  # atno 11005 bound_to 11000
  144.7946  140.6099  143.6518 LP  0  0  0  0  0  0  0  0  0  0  0  0  # atno 17320 bound_to 7965
  145.4741  139.1501  143.3798 LP  0  0  0  0  0  0  0  0  0  0  0  0  # atno 17321 bound_to 7965
  139.8518  143.7429  152.3177 LP  0  0  0  0  0  0  0  0  0  0  0  0  # atno 17342 bound_to 10162
  139.7613  144.7505  151.0359 LP  0  0  0  0  0  0  0  0  0  0  0  0  # atno 17343 bound_to 10162
  157.6563  131.0889  150.7940 LP  0  0  0  0  0  0  0  0  0  0  0  0  # atno 17370 bound_to 10713
  156.8017  130.4923  149.5369 LP  0  0  0  0  0  0  0  0  0  0  0  0  # atno 17371 bound_to 10713
  139.8718  134.9456  156.3914 LP  0  0  0  0  0  0  0  0  0  0  0  0  # atno 17394 bound_to 11000
  140.9247  133.7620  155.9950 LP  0  0  0  0  0  0  0  0  0  0  0  0  # atno 17395 bound_to 11000

$$$$
