AV-unprocessed.smi:2270|AV-procd|sdf|9159|dock3
  -GOLD-   2272012363D 1   1.00000     0.00000
 Structure written by MMmdl.
 52 53  0  0  0  0  0  0  0  0  1 V2000
  145.3506  131.4922  150.2634 C   0  0  0  0  0  0  0  0  0  0  0  0
  144.8978  132.7089  151.0426 C   0  0  0  0  0  0  0  0  0  0  0  0
  143.5348  132.9201  151.3286 C   0  0  0  0  0  0  0  0  0  0  0  0
  143.1815  134.0665  152.0627 C   0  0  0  0  0  0  0  0  0  0  0  0
  144.1985  134.9471  152.4793 C   0  0  0  0  0  0  0  0  0  0  0  0
  145.5428  134.6623  152.1491 C   0  0  0  0  0  0  0  0  0  0  0  0
  146.4931  135.6057  152.6216 N   0  0  0  0  0  0  0  0  0  0  0  0
  146.3552  136.4920  153.6236 C   0  0  0  0  0  0  0  0  0  0  0  0
  145.3740  136.5837  154.3617 O   0  0  0  0  0  0  0  0  0  0  0  0
  147.4370  137.2781  153.7247 N   0  0  0  0  0  0  0  0  0  0  0  0
  147.6225  138.3601  154.6882 C   0  0  0  0  0  0  0  0  0  0  0  0
  148.9013  139.1953  154.4000 C   0  0  1  0  0  0  0  0  0  0  0  0
  148.6524  140.7334  154.3168 C   0  0  0  0  0  0  0  0  0  0  0  0
  148.6311  141.3839  155.7104 C   0  0  0  0  0  0  0  0  0  0  0  0
  147.4389  141.1880  153.4850 C   0  0  0  0  0  0  0  0  0  0  0  0
  150.0799  138.8138  155.2019 N   0  0  0  0  0  0  0  0  0  0  0  0
  150.3997  137.3806  155.2093 C   0  0  0  0  0  0  0  0  0  0  0  0
  151.5623  137.0737  156.1713 C   0  0  0  0  0  0  0  0  0  0  0  0
  152.7659  137.8208  155.8105 N   0  0  0  0  0  0  0  0  0  0  0  0
  153.8672  137.5293  156.7153 C   0  0  0  0  0  0  0  0  0  0  0  0
  152.4514  139.2479  155.7899 C   0  0  0  0  0  0  0  0  0  0  0  0
  151.2884  139.5539  154.8281 C   0  0  0  0  0  0  0  0  0  0  0  0
  145.8730  133.5538  151.4406 N   0  0  0  0  0  0  0  0  0  0  0  0
  144.5068  130.9920  149.7876 H   0  0  0  0  0  0  0  0  0  0  0  0
  145.8394  130.7807  150.9291 H   0  0  0  0  0  0  0  0  0  0  0  0
  146.0588  131.7775  149.4847 H   0  0  0  0  0  0  0  0  0  0  0  0
  142.7790  132.2235  150.9965 H   0  0  0  0  0  0  0  0  0  0  0  0
  142.1482  134.2672  152.3040 H   0  0  0  0  0  0  0  0  0  0  0  0
  143.9444  135.8312  153.0459 H   0  0  0  0  0  0  0  0  0  0  0  0
  147.3711  135.6227  152.1244 H   0  0  0  0  0  0  0  0  0  0  0  0
  148.1932  137.1239  153.0741 H   0  0  0  0  0  0  0  0  0  0  0  0
  146.7382  138.9963  154.7358 H   0  0  0  0  0  0  0  0  0  0  0  0
  147.6943  137.8859  155.6663 H   0  0  0  0  0  0  0  0  0  0  0  0
  149.1569  138.9393  153.3705 H   0  0  0  0  0  0  0  0  0  0  0  0
  149.5237  141.1590  153.8194 H   0  0  0  0  0  0  0  0  0  0  0  0
  147.7653  141.0610  156.2892 H   0  0  0  0  0  0  0  0  0  0  0  0
  148.5897  142.4708  155.6348 H   0  0  0  0  0  0  0  0  0  0  0  0
  149.5256  141.1289  156.2793 H   0  0  0  0  0  0  0  0  0  0  0  0
  146.5033  141.0580  154.0269 H   0  0  0  0  0  0  0  0  0  0  0  0
  147.3625  140.6580  152.5371 H   0  0  0  0  0  0  0  0  0  0  0  0
  147.5167  142.2502  153.2519 H   0  0  0  0  0  0  0  0  0  0  0  0
  149.5404  136.7871  155.5046 H   0  0  0  0  0  0  0  0  0  0  0  0
  150.6728  137.0493  154.2067 H   0  0  0  0  0  0  0  0  0  0  0  0
  151.2639  137.3142  157.1931 H   0  0  0  0  0  0  0  0  0  0  0  0
  151.7737  136.0041  156.1518 H   0  0  0  0  0  0  0  0  0  0  0  0
  154.7624  138.0790  156.4232 H   0  0  0  0  0  0  0  0  0  0  0  0
  154.1100  136.4664  156.6977 H   0  0  0  0  0  0  0  0  0  0  0  0
  153.6187  137.8047  157.7411 H   0  0  0  0  0  0  0  0  0  0  0  0
  152.1932  139.5889  156.7937 H   0  0  0  0  0  0  0  0  0  0  0  0
  153.3314  139.8146  155.4847 H   0  0  0  0  0  0  0  0  0  0  0  0
  151.5876  139.3093  153.8086 H   0  0  0  0  0  0  0  0  0  0  0  0
  151.0885  140.6256  154.8469 H   0  0  0  0  0  0  0  0  0  0  0  0
  1  2  1  0  0  0  0
  1 24  1  0  0  0  0
  1 25  1  0  0  0  0
  1 26  1  0  0  0  0
  2 23  1  0  0  0  0
  2  3  2  0  0  0  0
  3  4  1  0  0  0  0
  3 27  1  0  0  0  0
  4  5  2  0  0  0  0
  4 28  1  0  0  0  0
  5  6  1  0  0  0  0
  5 29  1  0  0  0  0
  6  7  1  0  0  0  0
  6 23  2  0  0  0  0
  7  8  1  0  0  0  0
  7 30  1  0  0  0  0
  8  9  2  0  0  0  0
  8 10  1  0  0  0  0
 10 11  1  0  0  0  0
 10 31  1  0  0  0  0
 11 12  1  0  0  0  0
 11 32  1  0  0  0  0
 11 33  1  0  0  0  0
 12 13  1  0  0  0  0
 12 16  1  0  0  0  0
 12 34  1  0  0  0  0
 13 14  1  0  0  0  0
 13 15  1  0  0  0  0
 13 35  1  0  0  0  0
 14 36  1  0  0  0  0
 14 37  1  0  0  0  0
 14 38  1  0  0  0  0
 15 39  1  0  0  0  0
 15 40  1  0  0  0  0
 15 41  1  0  0  0  0
 16 22  1  0  0  0  0
 16 17  1  0  0  0  0
 17 18  1  0  0  0  0
 17 42  1  0  0  0  0
 17 43  1  0  0  0  0
 18 19  1  0  0  0  0
 18 44  1  0  0  0  0
 18 45  1  0  0  0  0
 19 20  1  0  0  0  0
 19 21  1  0  0  0  0
 20 46  1  0  0  0  0
 20 47  1  0  0  0  0
 20 48  1  0  0  0  0
 21 22  1  0  0  0  0
 21 49  1  0  0  0  0
 21 50  1  0  0  0  0
 22 51  1  0  0  0  0
 22 52  1  0  0  0  0
M  END
> <s_m_source_file>
AV-unprocessed.smi

> <i_m_source_file_index>
2270

> <i_lp_mmshare_version>
43012

> <i_f3d_flags>
0

> <s_epik_input>
W0NIM11jMVtjSF1bY0hdW2NIXWMobjEpW05IXUMoPU8pW05IXVtDSDJdW0NASF0oW0NIXShbQ0gzXSlbQ0gzXSlOMltDSDJdW0NIMl1OKFtDSDNdKVtDSDJdW0NIMl0y

> <s_epik_cmdline>
J2VwaWtfcHl0aG9uJywgJy1waCcsICc3LjAnLCAnLXRuJywgJzgnLCAnLW1hJywgJzIwMCcsICctbWV0YWxfYmluZGluZycsICctaW1hZScsICc8aW5maWxlLm1hZT4nLCAnLW9tYWUnLCAnPG91dGZpbGUubWFlPic=

> <r_epik_Ionization_Penalty>
2.57754

> <r_epik_Ionization_Penalty_Charging>
0

> <r_epik_Ionization_Penalty_Neutral>
2.57754

> <r_epik_State_Penalty>
2.00874

> <r_epik_Charging_Adjusted_Penalty>
2.00874

> <i_epik_Tot_Q>
0

> <i_epik_Tot_abs_Q>
0

> <r_epik_Metal_State_Penalty>
2.00874

> <b_epik_Metal_Only>
0

> <s_lp_Force_Field>
OPLS_2005

> <r_lp_Energy>
49.2336

> <b_lp_Chiralities_Consistent>
1

> <s_lp_Variant>
AV-unprocessed.smi:2270-6

> <Gold.Version>
5.8.1

> <Gold.Id.Protein>
6NUR|6NUR_protein|mol2

> <Gold.PLP.Fitness>
37.7618

> <Gold.PLP.PLP>
-33.3246

> <Gold.PLP.part.hbond>
-2.5858

> <Gold.PLP.part.metal>
0.0000

> <Gold.PLP.part.buried>
-2.8359

> <Gold.PLP.part.nonpolar>
-28.5094

> <Gold.PLP.part.repulsive>
0.2712

> <Gold.PLP.ligand.clash>
0.0000

> <Gold.PLP.ligand.torsion>
0.9915

> <Gold.PLP.Chemscore.Hbond>
2.0000

> <Gold.PLP.Chemscore.CHOScore>
0.0000

> <Gold.PLP.Chemscore.Metal>
0.0000

> <Gold.Chemscore.Hbonds>
donor molecule, donor type, donor heavy atom, donor atom, acceptor molecule, acceptor atom, score
      L1  H     7    30       P1  7948  1.00
      L1  H    10    31       P1  7948  1.00

> <Gold.PLP.Chemscore.Internal.Correction>
0.4202

> <Gold.Rescore>
     Score         DG    S(hbond)    S(metal)    S(lipo)     H(rot)  DE(clash)    DE(int)     intcor
     16.25     -18.74       1.96        0.00      91.61       1.56       0.16       2.33       ----

> <Gold.Chemscore.Fitness>
16.2474

> <Gold.Chemscore.DG>
-18.7358

> <Gold.Chemscore.ZeroCoef>
-5.4800

> <Gold.Chemscore.Hbond>
1.9562

> <Gold.Chemscore.Metal>
0.0000

> <Gold.Chemscore.Lipo>
91.6139

> <Gold.Chemscore.Internal_Hbond>
0.0000

> <Gold.Chemscore.DEClash>
0.1581

> <Gold.Chemscore.DEInternal>
2.3302

> <Gold.Chemscore.Rot>
1.5612

> <Gold.Chemscore.Internal.Correction>
   9.000000E+99

> <Gold.Chemscore.Hbonds>
donor molecule, donor type, donor heavy atom, donor atom, acceptor molecule, acceptor atom, score
      L1  H     7    30       P1  7948  0.98
      L1  H    10    31       P1  7948  0.97

> <Gold.Chemscore.Hbond.Weighted>
-6.5336

> <Gold.Chemscore.Metal.Weighted>
-0.0000

> <Gold.Chemscore.Lipo.Weighted>
-10.7188

> <Gold.Chemscore.Internal_Hbond.Weighted>
0.0000

> <Gold.Chemscore.DEClash.Weighted>
0.1581

> <Gold.Chemscore.DEInternal.Weighted>
2.3302

> <Gold.Chemscore.Rot.Weighted>
3.9966

> <Gold.Chemscore.Internal.Correction.Weighted>
   9.000000E+99

> <Gold.Protein.RotatedTorsions>
[ 6907 6896 6895 6894 ] final -115.72 input  -60.11 | X-H torsion
[ 7974 7965 7964 7962 ] final  177.41 input  175.53 | X-H torsion
[ 8008 7997 7996 7995 ] final   34.43 input   59.86 | X-H torsion
[ 10167 10162 10161 10158 ] final -102.23 input  -65.29 | X-H torsion
[ 10718 10713 10712 10709 ] final  166.81 input   66.30 | X-H torsion
[ 10763 10752 10751 10750 ] final   77.97 input  -60.55 | X-H torsion
[ 11005 11000 10999 10996 ] final    8.27 input  -57.11 | X-H torsion

> <Gold.Protein.ActiveResidues>
 VAL166  LYS551  ARG553  GLY616  TRP617  ASP618  TYR619  PRO620  LYS621  CYS622 
 ASP623  PHE694  ASN695  SER759  ASP760  ASP761  ALA762  ILE779  LEU786  VAL792 
 PHE793  MET794  SER795  GLU796  ALA797  LYS798  CYS799  TRP800  GLU811  SER814 

> <Gold.Protein.RotatedAtoms>
  150.8000  133.8618  159.3233 H   0  0  0  0  0  0  0  0  0  0  0  0  # atno 6907 bound_to 6896
  151.6433  135.1008  160.0155 H   0  0  0  0  0  0  0  0  0  0  0  0  # atno 6908 bound_to 6896
  152.4086  133.6888  159.6413 H   0  0  0  0  0  0  0  0  0  0  0  0  # atno 6909 bound_to 6896
  144.7169  140.0244  143.6439 H   0  0  0  0  0  0  0  0  0  0  0  0  # atno 7974 bound_to 7965
  155.1547  140.3278  155.4424 H   0  0  0  0  0  0  0  0  0  0  0  0  # atno 8008 bound_to 7997
  156.2563  140.1971  156.6607 H   0  0  0  0  0  0  0  0  0  0  0  0  # atno 8009 bound_to 7997
  154.6448  140.0566  156.9874 H   0  0  0  0  0  0  0  0  0  0  0  0  # atno 8010 bound_to 7997
  140.2328  143.3594  152.0871 H   0  0  0  0  0  0  0  0  0  0  0  0  # atno 10167 bound_to 10162
  157.0606  131.0339  151.2648 H   0  0  0  0  0  0  0  0  0  0  0  0  # atno 10718 bound_to 10713
  153.0839  135.4894  154.8557 H   0  0  0  0  0  0  0  0  0  0  0  0  # atno 10763 bound_to 10752
  154.7185  135.3034  154.9087 H   0  0  0  0  0  0  0  0  0  0  0  0  # atno 10764 bound_to 10752
  153.9759  135.6795  153.4801 H   0  0  0  0  0  0  0  0  0  0  0  0  # atno 10765 bound_to 10752
  140.5389  134.0394  155.7897 H   0  0  0  0  0  0  0  0  0  0  0  0  # atno 11005 bound_to 11000
  146.0154  139.3205  143.0845 LP  0  0  0  0  0  0  0  0  0  0  0  0  # atno 17320 bound_to 7965
  145.8631  140.9463  143.0689 LP  0  0  0  0  0  0  0  0  0  0  0  0  # atno 17321 bound_to 7965
  139.5104  144.6883  151.5828 LP  0  0  0  0  0  0  0  0  0  0  0  0  # atno 17342 bound_to 10162
  140.6172  143.9327  150.6498 LP  0  0  0  0  0  0  0  0  0  0  0  0  # atno 17343 bound_to 10162
  157.4958  130.7849  149.7553 LP  0  0  0  0  0  0  0  0  0  0  0  0  # atno 17370 bound_to 10713
  155.9979  130.3897  150.2720 LP  0  0  0  0  0  0  0  0  0  0  0  0  # atno 17371 bound_to 10713
  141.1238  133.9416  157.2676 LP  0  0  0  0  0  0  0  0  0  0  0  0  # atno 17394 bound_to 11000
  139.9514  135.0174  156.9005 LP  0  0  0  0  0  0  0  0  0  0  0  0  # atno 17395 bound_to 11000

$$$$
