AV-unprocessed.smi:1150|AV-procd|sdf|4893|dock10
  -GOLD-   22720 3463D 1   1.00000     0.00000
 Structure written by MMmdl.
 50 51  0  0  0  0  0  0  0  0  1 V2000
  151.3937  140.7433  155.7491 C   0  0  0  0  0  0  0  0  0  0  0  0
  150.2768  141.7835  155.9178 C   0  0  0  0  0  0  0  0  0  0  0  0
  149.6540  141.7943  157.3292 C   0  0  2  0  0  0  0  0  0  0  0  0
  148.3523  142.4594  157.2977 N   0  0  0  0  0  0  0  0  0  0  0  0
  147.4472  142.4889  158.2884 C   0  0  0  0  0  0  0  0  0  0  0  0
  147.5209  141.7992  159.3047 O   0  0  0  0  0  0  0  0  0  0  0  0
  146.3109  143.4992  158.1257 C   0  0  0  0  0  0  0  0  0  0  0  0
  145.6370  143.7019  159.4623 C   0  0  0  0  0  0  0  0  0  0  0  0
  146.1662  144.3628  160.6097 C   0  0  0  0  0  0  0  0  0  0  0  0
  147.5020  145.0323  160.7604 C   0  0  0  0  0  0  0  0  0  0  0  0
  145.3383  144.3267  161.6405 N   0  0  0  0  0  0  0  0  0  0  0  0
  144.2624  143.6487  161.1938 N   0  0  0  0  0  0  0  0  0  0  0  0
  143.1480  143.4116  162.0902 C   0  0  0  0  0  0  0  0  0  0  0  0
  144.4076  143.2625  159.8762 C   0  0  0  0  0  0  0  0  0  0  0  0
  143.3541  142.4874  159.1531 C   0  0  0  0  0  0  0  0  0  0  0  0
  150.5736  142.4547  158.3938 C   0  0  0  0  0  0  0  0  0  0  0  0
  151.1524  143.8003  157.8970 C   0  0  0  0  0  0  0  0  0  0  0  0
  152.0294  144.4805  158.9594 C   0  0  0  0  0  0  0  0  0  0  0  0
  153.1629  143.5511  159.4154 C   0  0  0  0  0  0  0  0  0  0  0  0
  152.6012  142.2207  159.9361 C   0  0  0  0  0  0  0  0  0  0  0  0
  151.7235  141.5350  158.8772 C   0  0  0  0  0  0  0  0  0  0  0  0
  151.8295  140.8021  154.7517 H   0  0  0  0  0  0  0  0  0  0  0  0
  151.0205  139.7281  155.8857 H   0  0  0  0  0  0  0  0  0  0  0  0
  152.1946  140.9053  156.4712 H   0  0  0  0  0  0  0  0  0  0  0  0
  150.6874  142.7697  155.6980 H   0  0  0  0  0  0  0  0  0  0  0  0
  149.5088  141.5997  155.1663 H   0  0  0  0  0  0  0  0  0  0  0  0
  149.5239  140.7494  157.6166 H   0  0  0  0  0  0  0  0  0  0  0  0
  148.1811  143.0575  156.5027 H   0  0  0  0  0  0  0  0  0  0  0  0
  146.7206  144.4303  157.7335 H   0  0  0  0  0  0  0  0  0  0  0  0
  145.6065  143.1358  157.3769 H   0  0  0  0  0  0  0  0  0  0  0  0
  148.3130  144.3274  160.5776 H   0  0  0  0  0  0  0  0  0  0  0  0
  147.6399  145.4411  161.7620 H   0  0  0  0  0  0  0  0  0  0  0  0
  147.6082  145.8527  160.0510 H   0  0  0  0  0  0  0  0  0  0  0  0
  142.2787  143.9743  161.7491 H   0  0  0  0  0  0  0  0  0  0  0  0
  143.3963  143.7233  163.1056 H   0  0  0  0  0  0  0  0  0  0  0  0
  142.9045  142.3489  162.0995 H   0  0  0  0  0  0  0  0  0  0  0  0
  143.5855  142.4006  158.0916 H   0  0  0  0  0  0  0  0  0  0  0  0
  142.3818  142.9719  159.2441 H   0  0  0  0  0  0  0  0  0  0  0  0
  143.2705  141.4799  159.5604 H   0  0  0  0  0  0  0  0  0  0  0  0
  149.9504  142.6828  159.2599 H   0  0  0  0  0  0  0  0  0  0  0  0
  151.7526  143.6431  157.0015 H   0  0  0  0  0  0  0  0  0  0  0  0
  150.3430  144.4718  157.6091 H   0  0  0  0  0  0  0  0  0  0  0  0
  152.4460  145.4051  158.5591 H   0  0  0  0  0  0  0  0  0  0  0  0
  151.4165  144.7614  159.8168 H   0  0  0  0  0  0  0  0  0  0  0  0
  153.8405  143.3614  158.5817 H   0  0  0  0  0  0  0  0  0  0  0  0
  153.7539  144.0367  160.1921 H   0  0  0  0  0  0  0  0  0  0  0  0
  153.4197  141.5599  160.2231 H   0  0  0  0  0  0  0  0  0  0  0  0
  152.0151  142.3979  160.8388 H   0  0  0  0  0  0  0  0  0  0  0  0
  151.3232  140.6119  159.2950 H   0  0  0  0  0  0  0  0  0  0  0  0
  152.3554  141.2442  158.0378 H   0  0  0  0  0  0  0  0  0  0  0  0
  1  2  1  0  0  0  0
  1 22  1  0  0  0  0
  1 23  1  0  0  0  0
  1 24  1  0  0  0  0
  2  3  1  0  0  0  0
  2 25  1  0  0  0  0
  2 26  1  0  0  0  0
  3  4  1  0  0  0  0
  3 16  1  0  0  0  0
  3 27  1  0  0  0  0
  4  5  1  0  0  0  0
  4 28  1  0  0  0  0
  5  6  2  0  0  0  0
  5  7  1  0  0  0  0
  7  8  1  0  0  0  0
  7 29  1  0  0  0  0
  7 30  1  0  0  0  0
  8 14  2  0  0  0  0
  8  9  1  0  0  0  0
  9 10  1  0  0  0  0
  9 11  2  0  0  0  0
 10 31  1  0  0  0  0
 10 32  1  0  0  0  0
 10 33  1  0  0  0  0
 11 12  1  0  0  0  0
 12 13  1  0  0  0  0
 12 14  1  0  0  0  0
 13 34  1  0  0  0  0
 13 35  1  0  0  0  0
 13 36  1  0  0  0  0
 14 15  1  0  0  0  0
 15 37  1  0  0  0  0
 15 38  1  0  0  0  0
 15 39  1  0  0  0  0
 16 21  1  0  0  0  0
 16 17  1  0  0  0  0
 16 40  1  0  0  0  0
 17 18  1  0  0  0  0
 17 41  1  0  0  0  0
 17 42  1  0  0  0  0
 18 19  1  0  0  0  0
 18 43  1  0  0  0  0
 18 44  1  0  0  0  0
 19 20  1  0  0  0  0
 19 45  1  0  0  0  0
 19 46  1  0  0  0  0
 20 21  1  0  0  0  0
 20 47  1  0  0  0  0
 20 48  1  0  0  0  0
 21 49  1  0  0  0  0
 21 50  1  0  0  0  0
M  END
> <s_m_source_file>
AV-unprocessed.smi

> <i_m_source_file_index>
1150

> <i_lp_mmshare_version>
43012

> <i_f3d_flags>
0

> <s_epik_input>
W0NIMl0xW0NIMl1bQ0gyXVtDSDJdW0NIMl1bQ0hdMVtDQEhdKFtDSDJdW0NIM10pW05IXUMoPU8pW0NIMl1jMmMoW0NIM10pbm4oW0NIM10pYzJbQ0gzXQ==

> <s_epik_cmdline>
J2VwaWtfcHl0aG9uJywgJy1waCcsICc3LjAnLCAnLXRuJywgJzgnLCAnLW1hJywgJzIwMCcsICctbWV0YWxfYmluZGluZycsICctaW1hZScsICc8aW5maWxlLm1hZT4nLCAnLW9tYWUnLCAnPG91dGZpbGUubWFlPic=

> <r_lp_tautomer_probability>
1

> <r_epik_Ionization_Penalty>
0.00328092

> <r_epik_Ionization_Penalty_Charging>
0

> <r_epik_Ionization_Penalty_Neutral>
0.00328092

> <r_epik_State_Penalty>
0.00231765

> <r_epik_Charging_Adjusted_Penalty>
0.00231765

> <i_epik_Tot_Q>
0

> <i_epik_Tot_abs_Q>
0

> <r_epik_Metal_State_Penalty>
-0

> <b_epik_Metal_Only>
0

> <s_lp_Force_Field>
OPLS_2005

> <r_lp_Energy>
6.65813

> <b_lp_Chiralities_Consistent>
1

> <s_lp_Variant>
AV-unprocessed.smi:1150-1

> <Gold.Version>
5.8.1

> <Gold.Id.Protein>
6NUR|6NUR_protein|mol2

> <Gold.PLP.Fitness>
43.7656

> <Gold.PLP.PLP>
-41.2813

> <Gold.PLP.part.hbond>
-3.5792

> <Gold.PLP.part.metal>
0.0000

> <Gold.PLP.part.buried>
-0.1654

> <Gold.PLP.part.nonpolar>
-37.5072

> <Gold.PLP.part.repulsive>
0.5703

> <Gold.PLP.ligand.clash>
0.0000

> <Gold.PLP.ligand.torsion>
0.8018

> <Gold.PLP.Chemscore.Hbond>
1.3392

> <Gold.PLP.Chemscore.CHOScore>
0.0000

> <Gold.PLP.Chemscore.Metal>
0.0000

> <Gold.Chemscore.Hbonds>
donor molecule, donor type, donor heavy atom, donor atom, acceptor molecule, acceptor atom, score
      L1  H     4    28       P1  8028  0.82
      P1  H  6933  6944       L1     6  0.02
      P1  H  6934  6946       L1     6  0.38

> <Gold.PLP.Chemscore.Internal.Correction>
0.0703

> <Gold.Rescore>
     Score         DG    S(hbond)    S(metal)    S(lipo)     H(rot)  DE(clash)    DE(int)     intcor
     14.57     -17.44       1.03        0.00     103.99       1.42       1.43       1.44       ----

> <Gold.Chemscore.Fitness>
14.5689

> <Gold.Chemscore.DG>
-17.4413

> <Gold.Chemscore.ZeroCoef>
-5.4800

> <Gold.Chemscore.Hbond>
1.0250

> <Gold.Chemscore.Metal>
0.0000

> <Gold.Chemscore.Lipo>
103.9864

> <Gold.Chemscore.Internal_Hbond>
0.0000

> <Gold.Chemscore.DEClash>
1.4339

> <Gold.Chemscore.DEInternal>
1.4386

> <Gold.Chemscore.Rot>
1.4174

> <Gold.Chemscore.Internal.Correction>
   9.000000E+99

> <Gold.Chemscore.Hbonds>
donor molecule, donor type, donor heavy atom, donor atom, acceptor molecule, acceptor atom, score
      L1  H     4    28       P1  8028  0.36
      P1  H  6933  6944       L1     6  0.03
      P1  H  6934  6946       L1     6  0.38

> <Gold.Chemscore.Hbond.Weighted>
-3.4235

> <Gold.Chemscore.Metal.Weighted>
-0.0000

> <Gold.Chemscore.Lipo.Weighted>
-12.1664

> <Gold.Chemscore.Internal_Hbond.Weighted>
0.0000

> <Gold.Chemscore.DEClash.Weighted>
1.4339

> <Gold.Chemscore.DEInternal.Weighted>
1.4386

> <Gold.Chemscore.Rot.Weighted>
3.6286

> <Gold.Chemscore.Internal.Correction.Weighted>
   9.000000E+99

> <Gold.Protein.RotatedTorsions>
[ 6907 6896 6895 6894 ] final  -50.43 input  -60.11 | X-H torsion
[ 7974 7965 7964 7962 ] final  140.77 input  175.53 | X-H torsion
[ 8008 7997 7996 7995 ] final  -31.72 input   59.86 | X-H torsion
[ 10167 10162 10161 10158 ] final  -86.28 input  -65.29 | X-H torsion
[ 10718 10713 10712 10709 ] final -116.74 input   66.30 | X-H torsion
[ 10763 10752 10751 10750 ] final -162.41 input  -60.55 | X-H torsion
[ 11005 11000 10999 10996 ] final -175.60 input  -57.11 | X-H torsion

> <Gold.Protein.ActiveResidues>
 VAL166  LYS551  ARG553  GLY616  TRP617  ASP618  TYR619  PRO620  LYS621  CYS622 
 ASP623  PHE694  ASN695  SER759  ASP760  ASP761  ALA762  ILE779  LEU786  VAL792 
 PHE793  MET794  SER795  GLU796  ALA797  LYS798  CYS799  TRP800  GLU811  SER814 

> <Gold.Protein.RotatedAtoms>
  150.8708  134.8082  159.7153 H   0  0  0  0  0  0  0  0  0  0  0  0  # atno 6907 bound_to 6896
  152.4713  134.4949  159.9717 H   0  0  0  0  0  0  0  0  0  0  0  0  # atno 6908 bound_to 6896
  151.5038  133.3460  159.2909 H   0  0  0  0  0  0  0  0  0  0  0  0  # atno 6909 bound_to 6896
  144.9156  139.5234  143.5688 H   0  0  0  0  0  0  0  0  0  0  0  0  # atno 7974 bound_to 7965
  154.4204  140.1756  156.1613 H   0  0  0  0  0  0  0  0  0  0  0  0  # atno 8008 bound_to 7997
  155.9836  140.3375  155.6662 H   0  0  0  0  0  0  0  0  0  0  0  0  # atno 8009 bound_to 7997
  155.6467  140.0686  157.2591 H   0  0  0  0  0  0  0  0  0  0  0  0  # atno 8010 bound_to 7997
  140.3956  143.2685  151.9208 H   0  0  0  0  0  0  0  0  0  0  0  0  # atno 10167 bound_to 10162
  156.0984  130.6152  150.9074 H   0  0  0  0  0  0  0  0  0  0  0  0  # atno 10718 bound_to 10713
  154.7217  135.3027  154.9037 H   0  0  0  0  0  0  0  0  0  0  0  0  # atno 10763 bound_to 10752
  153.9907  135.6719  153.4758 H   0  0  0  0  0  0  0  0  0  0  0  0  # atno 10764 bound_to 10752
  153.0839  135.4994  154.8476 H   0  0  0  0  0  0  0  0  0  0  0  0  # atno 10765 bound_to 10752
  140.4615  134.6250  157.4844 H   0  0  0  0  0  0  0  0  0  0  0  0  # atno 11005 bound_to 11000
  146.3180  139.7997  142.8968 LP  0  0  0  0  0  0  0  0  0  0  0  0  # atno 17320 bound_to 7965
  145.3381  141.0281  143.3408 LP  0  0  0  0  0  0  0  0  0  0  0  0  # atno 17321 bound_to 7965
  139.4787  144.5684  151.8127 LP  0  0  0  0  0  0  0  0  0  0  0  0  # atno 17342 bound_to 10162
  140.4794  144.1472  150.5930 LP  0  0  0  0  0  0  0  0  0  0  0  0  # atno 17343 bound_to 10162
  157.6150  131.0934  150.8727 LP  0  0  0  0  0  0  0  0  0  0  0  0  # atno 17370 bound_to 10713
  156.8860  130.5196  149.5288 LP  0  0  0  0  0  0  0  0  0  0  0  0  # atno 17371 bound_to 10713
  139.9942  134.6937  155.9637 LP  0  0  0  0  0  0  0  0  0  0  0  0  # atno 17394 bound_to 11000
  141.1619  133.6538  156.4348 LP  0  0  0  0  0  0  0  0  0  0  0  0  # atno 17395 bound_to 11000

$$$$
