AV-unprocessed.smi:1819|AV-procd|sdf|7383|dock9
  -GOLD-   22720 9 53D 1   1.00000     0.00000
 Structure written by MMmdl.
 28 28  0  0  0  0  0  0  0  0  2 V2000
  146.7304  140.4022  155.9970 O   0  0  0  0  0  0  0  0  0  0  0  0
  147.3601  141.4460  155.8216 C   0  0  0  0  0  0  0  0  0  0  0  0
  148.7112  141.4223  155.0973 C   0  0  0  0  0  0  0  0  0  0  0  0
  149.8333  141.2137  156.0259 N   0  0  0  0  0  0  0  0  0  0  0  0
  149.9464  142.0825  157.1255 C   0  0  0  0  0  0  0  0  0  0  0  0
  150.9459  141.9687  158.0208 C   0  0  0  0  0  0  0  0  0  0  0  0
  151.9284  140.9092  157.8278 C   0  0  0  0  0  0  0  0  0  0  0  0
  152.8452  140.7875  158.6379 O   0  0  0  0  0  0  0  0  0  0  0  0
  151.7784  140.0944  156.7426 N   0  5  0  0  0  0  0  0  0  0  0  0
  150.7580  140.2233  155.8389 C   0  0  0  0  0  0  0  0  0  0  0  0
  150.6427  139.4785  154.8644 O   0  0  0  0  0  0  0  0  0  0  0  0
  146.9256  142.6493  156.2258 N   0  0  0  0  0  0  0  0  0  0  0  0
  145.7096  142.8987  156.9930 C   0  0  0  0  0  0  0  0  0  0  0  0
  145.3448  144.3922  156.9996 C   0  0  0  0  0  0  0  0  0  0  0  0
  143.6618  144.7002  157.6128 S   0  0  0  0  0  0  0  0  0  0  0  0
  143.3644  146.3533  156.9307 C   0  0  0  0  0  0  0  0  0  0  0  0
  144.0788  147.2539  157.6032 F   0  0  0  0  0  0  0  0  0  0  0  0
  143.7223  146.3951  155.6480 F   0  0  0  0  0  0  0  0  0  0  0  0
  142.0740  146.6693  157.0341 F   0  0  0  0  0  0  0  0  0  0  0  0
  148.6801  140.6327  154.3456 H   0  0  0  0  0  0  0  0  0  0  0  0
  148.8580  142.3480  154.5371 H   0  0  0  0  0  0  0  0  0  0  0  0
  149.1827  142.8434  157.1919 H   0  0  0  0  0  0  0  0  0  0  0  0
  151.0206  142.6461  158.8586 H   0  0  0  0  0  0  0  0  0  0  0  0
  147.5117  143.4480  156.0312 H   0  0  0  0  0  0  0  0  0  0  0  0
  144.9052  142.3351  156.5201 H   0  0  0  0  0  0  0  0  0  0  0  0
  145.7886  142.5181  158.0126 H   0  0  0  0  0  0  0  0  0  0  0  0
  146.0571  144.9518  157.6069 H   0  0  0  0  0  0  0  0  0  0  0  0
  145.4139  144.7886  155.9866 H   0  0  0  0  0  0  0  0  0  0  0  0
  1  2  2  0  0  0  0
  2  3  1  0  0  0  0
  2 12  1  0  0  0  0
  3  4  1  0  0  0  0
  3 20  1  0  0  0  0
  3 21  1  0  0  0  0
  4 10  1  0  0  0  0
  4  5  1  0  0  0  0
  5  6  2  0  0  0  0
  5 22  1  0  0  0  0
  6  7  1  0  0  0  0
  6 23  1  0  0  0  0
  7  8  2  0  0  0  0
  7  9  1  0  0  0  0
  9 10  1  0  0  0  0
 10 11  2  0  0  0  0
 12 13  1  0  0  0  0
 12 24  1  0  0  0  0
 13 14  1  0  0  0  0
 13 25  1  0  0  0  0
 13 26  1  0  0  0  0
 14 15  1  0  0  0  0
 14 27  1  0  0  0  0
 14 28  1  0  0  0  0
 15 16  1  0  0  0  0
 16 17  1  0  0  0  0
 16 18  1  0  0  0  0
 16 19  1  0  0  0  0
M  CHG  1   9  -1
M  END
> <s_m_source_file>
AV-unprocessed.smi

> <i_m_source_file_index>
1819

> <i_lp_mmshare_version>
43012

> <i_f3d_flags>
0

> <s_epik_input>
RkMoRikoRilTW0NIMl1bQ0gyXVtOSF1DKD1PKVtDSDJdbjFbY0hdW2NIXWMoPU8pW25IXWMxPU8=

> <s_epik_cmdline>
J2VwaWtfcHl0aG9uJywgJy1waCcsICc3LjAnLCAnLXRuJywgJzgnLCAnLW1hJywgJzIwMCcsICctbWV0YWxfYmluZGluZycsICctaW1hZScsICc8aW5maWxlLm1hZT4nLCAnLW9tYWUnLCAnPG91dGZpbGUubWFlPic=

> <r_lp_tautomer_probability>
0.999537

> <r_epik_Ionization_Penalty>
3.04617

> <r_epik_Ionization_Penalty_Charging>
2.49125e-08

> <r_epik_Ionization_Penalty_Neutral>
3.04617

> <r_epik_State_Penalty>
3.04516

> <r_epik_Charging_Adjusted_Penalty>
3.04516

> <i_epik_Tot_Q>
-1

> <i_epik_Tot_abs_Q>
1

> <r_epik_Metal_State_Penalty>
0.457105

> <b_epik_Metal_Only>
1

> <s_lp_Force_Field>
OPLS_2005

> <r_lp_Energy>
9.91428

> <b_lp_Chiralities_Consistent>
1

> <s_lp_Variant>
AV-unprocessed.smi:1819-2

> <Gold.Version>
5.8.1

> <Gold.Id.Protein>
6NUR|6NUR_protein|mol2

> <Gold.PLP.Fitness>
45.2120

> <Gold.PLP.PLP>
-32.0506

> <Gold.PLP.part.hbond>
-3.0000

> <Gold.PLP.part.metal>
0.0000

> <Gold.PLP.part.buried>
-2.7487

> <Gold.PLP.part.nonpolar>
-26.1755

> <Gold.PLP.part.repulsive>
0.2032

> <Gold.PLP.ligand.clash>
0.0000

> <Gold.PLP.ligand.torsion>
0.7499

> <Gold.PLP.Chemscore.Hbond>
3.8625

> <Gold.PLP.Chemscore.CHOScore>
1.0000

> <Gold.PLP.Chemscore.Metal>
0.0000

> <Gold.Chemscore.Hbonds>
donor molecule, donor type, donor heavy atom, donor atom, acceptor molecule, acceptor atom, score
      L1  H    12    24       P1  8028  0.40
      P1  H  7989  7998       L1    11  0.43
      L1  C     5    22       P1  8028  0.94

> <Gold.PLP.Chemscore.Internal.Correction>
0.0736

> <Gold.Rescore>
     Score         DG    S(hbond)    S(metal)    S(lipo)     H(rot)  DE(clash)    DE(int)     intcor
      5.82      -9.09       1.95        0.00      38.12       2.88       2.66       0.60       ----

> <Gold.Chemscore.Fitness>
5.8193

> <Gold.Chemscore.DG>
-9.0865

> <Gold.Chemscore.ZeroCoef>
-5.4800

> <Gold.Chemscore.Hbond>
1.9482

> <Gold.Chemscore.Metal>
0.0000

> <Gold.Chemscore.Lipo>
38.1179

> <Gold.Chemscore.Internal_Hbond>
0.0000

> <Gold.Chemscore.DEClash>
2.6650

> <Gold.Chemscore.DEInternal>
0.6023

> <Gold.Chemscore.Rot>
2.8751

> <Gold.Chemscore.Internal.Correction>
   9.000000E+99

> <Gold.Chemscore.Hbonds>
donor molecule, donor type, donor heavy atom, donor atom, acceptor molecule, acceptor atom, score
      L1  H    12    24       P1  8028  0.01
      P1  H  7989  7998       L1    11  0.04

> <Gold.Chemscore.Hbond.Weighted>
-6.5071

> <Gold.Chemscore.Metal.Weighted>
-0.0000

> <Gold.Chemscore.Lipo.Weighted>
-4.4598

> <Gold.Chemscore.Internal_Hbond.Weighted>
0.0000

> <Gold.Chemscore.DEClash.Weighted>
2.6650

> <Gold.Chemscore.DEInternal.Weighted>
0.6023

> <Gold.Chemscore.Rot.Weighted>
7.3603

> <Gold.Chemscore.Internal.Correction.Weighted>
   9.000000E+99

> <Gold.Protein.RotatedTorsions>
[ 6907 6896 6895 6894 ] final   36.25 input  -60.11 | X-H torsion
[ 7974 7965 7964 7962 ] final  131.04 input  175.53 | X-H torsion
[ 8008 7997 7996 7995 ] final   53.39 input   59.86 | X-H torsion
[ 10167 10162 10161 10158 ] final  -52.98 input  -65.29 | X-H torsion
[ 10718 10713 10712 10709 ] final -100.74 input   66.30 | X-H torsion
[ 10763 10752 10751 10750 ] final  156.85 input  -60.55 | X-H torsion
[ 11005 11000 10999 10996 ] final  -21.21 input  -57.11 | X-H torsion

> <Gold.Protein.ActiveResidues>
 VAL166  LYS551  ARG553  GLY616  TRP617  ASP618  TYR619  PRO620  LYS621  CYS622 
 ASP623  PHE694  ASN695  SER759  ASP760  ASP761  ALA762  ILE779  LEU786  VAL792 
 PHE793  MET794  SER795  GLU796  ALA797  LYS798  CYS799  TRP800  GLU811  SER814 

> <Gold.Protein.RotatedAtoms>
  152.1272  134.9161  160.0560 H   0  0  0  0  0  0  0  0  0  0  0  0  # atno 6907 bound_to 6896
  152.0279  133.3920  159.4293 H   0  0  0  0  0  0  0  0  0  0  0  0  # atno 6908 bound_to 6896
  150.6853  134.3474  159.4938 H   0  0  0  0  0  0  0  0  0  0  0  0  # atno 6909 bound_to 6896
  145.0115  139.4216  143.5242 H   0  0  0  0  0  0  0  0  0  0  0  0  # atno 7974 bound_to 7965
  155.4675  140.3464  155.4321 H   0  0  0  0  0  0  0  0  0  0  0  0  # atno 8008 bound_to 7997
  156.1122  140.1464  156.9352 H   0  0  0  0  0  0  0  0  0  0  0  0  # atno 8009 bound_to 7997
  154.4764  140.0884  156.7251 H   0  0  0  0  0  0  0  0  0  0  0  0  # atno 8010 bound_to 7997
  140.6509  143.2565  151.4726 H   0  0  0  0  0  0  0  0  0  0  0  0  # atno 10167 bound_to 10162
  156.0172  130.5341  150.6861 H   0  0  0  0  0  0  0  0  0  0  0  0  # atno 10718 bound_to 10713
  154.1909  135.2795  155.3022 H   0  0  0  0  0  0  0  0  0  0  0  0  # atno 10763 bound_to 10752
  154.5929  135.5554  153.7300 H   0  0  0  0  0  0  0  0  0  0  0  0  # atno 10764 bound_to 10752
  153.0112  135.6373  154.2048 H   0  0  0  0  0  0  0  0  0  0  0  0  # atno 10765 bound_to 10752
  140.8539  133.7836  155.9998 H   0  0  0  0  0  0  0  0  0  0  0  0  # atno 11005 bound_to 11000
  146.3470  139.9561  142.8723 LP  0  0  0  0  0  0  0  0  0  0  0  0  # atno 17320 bound_to 7965
  145.2017  140.9857  143.4152 LP  0  0  0  0  0  0  0  0  0  0  0  0  # atno 17321 bound_to 7965
  139.5724  144.1898  152.1855 LP  0  0  0  0  0  0  0  0  0  0  0  0  # atno 17342 bound_to 10162
  140.1198  144.5383  150.6870 LP  0  0  0  0  0  0  0  0  0  0  0  0  # atno 17343 bound_to 10162
  157.4553  131.0877  151.0803 LP  0  0  0  0  0  0  0  0  0  0  0  0  # atno 17370 bound_to 10713
  157.1307  130.6101  149.5528 LP  0  0  0  0  0  0  0  0  0  0  0  0  # atno 17371 bound_to 10713
  140.8759  134.2670  157.5168 LP  0  0  0  0  0  0  0  0  0  0  0  0  # atno 17394 bound_to 11000
  139.8705  134.9590  156.4319 LP  0  0  0  0  0  0  0  0  0  0  0  0  # atno 17395 bound_to 11000

$$$$
