AV-unprocessed.smi:3275|AV-procd|sdf|12533|dock7
  -GOLD-   2272018443D 1   1.00000     0.00000
 Structure written by MMmdl.
 34 35  0  0  0  0  0  0  0  0  1 V2000
  150.4321  138.1934  153.4856 O   0  0  0  0  0  0  0  0  0  0  0  0
  150.7906  137.5985  154.7142 C   0  0  0  0  0  0  0  0  0  0  0  0
  151.7692  138.5055  155.4675 C   0  0  0  0  0  0  0  0  0  0  0  0
  151.6903  139.8130  154.9187 O   0  0  0  0  0  0  0  0  0  0  0  0
  151.1341  140.7865  155.7932 C   0  0  1  0  0  0  0  0  0  0  0  0
  149.6275  140.5375  156.0186 C   0  0  0  0  0  0  0  0  0  0  0  0
  149.0803  141.4956  157.0896 C   0  0  0  0  0  0  0  0  0  0  0  0
  149.8989  141.4014  158.3878 C   0  0  0  0  0  0  0  0  0  0  0  0
  151.3190  141.6066  158.1156 N   0  0  0  0  0  0  0  0  0  0  0  0
  152.0853  141.8672  159.2663 C   0  0  0  0  0  0  0  0  0  0  0  0
  153.0859  140.9709  159.7116 C   0  0  0  0  0  0  0  0  0  0  0  0
  153.8095  141.2823  160.8795 C   0  0  0  0  0  0  0  0  0  0  0  0
  153.6016  142.3997  161.6059 N   0  0  0  0  0  0  0  0  0  0  0  0
  152.6500  143.2564  161.1805 C   0  0  0  0  0  0  0  0  0  0  0  0
  151.8680  143.0427  160.0270 C   0  0  0  0  0  0  0  0  0  0  0  0
  150.6962  144.2287  159.5653 Cl  0  0  0  0  0  0  0  0  0  0  0  0
  151.8923  140.6928  157.1297 C   0  0  0  0  0  0  0  0  0  0  0  0
  149.8912  137.5859  153.0044 H   0  0  0  0  0  0  0  0  0  0  0  0
  149.8904  137.4310  155.3062 H   0  0  0  0  0  0  0  0  0  0  0  0
  151.2422  136.6250  154.5207 H   0  0  0  0  0  0  0  0  0  0  0  0
  151.5134  138.5298  156.5281 H   0  0  0  0  0  0  0  0  0  0  0  0
  152.7814  138.1103  155.3803 H   0  0  0  0  0  0  0  0  0  0  0  0
  151.2868  141.7866  155.3830 H   0  0  0  0  0  0  0  0  0  0  0  0
  149.0663  140.6696  155.0942 H   0  0  0  0  0  0  0  0  0  0  0  0
  149.4694  139.5063  156.3366 H   0  0  0  0  0  0  0  0  0  0  0  0
  149.1129  142.5190  156.7135 H   0  0  0  0  0  0  0  0  0  0  0  0
  148.0324  141.2726  157.2920 H   0  0  0  0  0  0  0  0  0  0  0  0
  149.5324  142.1330  159.1082 H   0  0  0  0  0  0  0  0  0  0  0  0
  149.7651  140.4186  158.8421 H   0  0  0  0  0  0  0  0  0  0  0  0
  153.2986  140.0523  159.1855 H   0  0  0  0  0  0  0  0  0  0  0  0
  154.5749  140.6121  161.2418 H   0  0  0  0  0  0  0  0  0  0  0  0
  152.5106  144.1455  161.7779 H   0  0  0  0  0  0  0  0  0  0  0  0
  151.8386  139.6712  157.5075 H   0  0  0  0  0  0  0  0  0  0  0  0
  152.9465  140.9271  156.9758 H   0  0  0  0  0  0  0  0  0  0  0  0
  1  2  1  0  0  0  0
  1 18  1  0  0  0  0
  2  3  1  0  0  0  0
  2 19  1  0  0  0  0
  2 20  1  0  0  0  0
  3  4  1  0  0  0  0
  3 21  1  0  0  0  0
  3 22  1  0  0  0  0
  4  5  1  0  0  0  0
  5 17  1  0  0  0  0
  5  6  1  0  0  0  0
  5 23  1  0  0  0  0
  6  7  1  0  0  0  0
  6 24  1  0  0  0  0
  6 25  1  0  0  0  0
  7  8  1  0  0  0  0
  7 26  1  0  0  0  0
  7 27  1  0  0  0  0
  8  9  1  0  0  0  0
  8 28  1  0  0  0  0
  8 29  1  0  0  0  0
  9 10  1  0  0  0  0
  9 17  1  0  0  0  0
 10 15  1  0  0  0  0
 10 11  2  0  0  0  0
 11 12  1  0  0  0  0
 11 30  1  0  0  0  0
 12 13  2  0  0  0  0
 12 31  1  0  0  0  0
 13 14  1  0  0  0  0
 14 15  2  0  0  0  0
 14 32  1  0  0  0  0
 15 16  1  0  0  0  0
 17 33  1  0  0  0  0
 17 34  1  0  0  0  0
M  END
> <s_m_source_file>
AV-unprocessed.smi

> <i_m_source_file_index>
3275

> <i_lp_mmshare_version>
43012

> <i_f3d_flags>
0

> <s_epik_input>
W09IXVtDSDJdW0NIMl1PW0NAQEhdMVtDSDJdW0NIMl1bQ0gyXU4oW0NIMl0xKWMyW2NIXVtjSF1uW2NIXWMyQ2w=

> <s_epik_cmdline>
J2VwaWtfcHl0aG9uJywgJy1waCcsICc3LjAnLCAnLXRuJywgJzgnLCAnLW1hJywgJzIwMCcsICctbWV0YWxfYmluZGluZycsICctaW1hZScsICc8aW5maWxlLm1hZT4nLCAnLW9tYWUnLCAnPG91dGZpbGUubWFlPic=

> <r_lp_tautomer_probability>
1

> <r_epik_Ionization_Penalty>
1.24095

> <r_epik_Ionization_Penalty_Charging>
0

> <r_epik_Ionization_Penalty_Neutral>
1.24095

> <r_epik_State_Penalty>
1.30987

> <r_epik_Charging_Adjusted_Penalty>
1.30987

> <i_epik_Tot_Q>
0

> <i_epik_Tot_abs_Q>
0

> <r_epik_Metal_State_Penalty>
0.00479332

> <b_epik_Metal_Only>
0

> <s_lp_Force_Field>
OPLS_2005

> <r_lp_Energy>
20.7809

> <b_lp_Chiralities_Consistent>
1

> <s_lp_Variant>
AV-unprocessed.smi:3275-4

> <Gold.Version>
5.8.1

> <Gold.Id.Protein>
6NUR|6NUR_protein|mol2

> <Gold.PLP.Fitness>
38.8031

> <Gold.PLP.PLP>
-34.5820

> <Gold.PLP.part.hbond>
-3.3199

> <Gold.PLP.part.metal>
0.0000

> <Gold.PLP.part.buried>
-4.2830

> <Gold.PLP.part.nonpolar>
-26.5593

> <Gold.PLP.part.repulsive>
0.0882

> <Gold.PLP.ligand.clash>
0.0000

> <Gold.PLP.ligand.torsion>
1.0404

> <Gold.PLP.Chemscore.Hbond>
2.0000

> <Gold.PLP.Chemscore.CHOScore>
0.0000

> <Gold.PLP.Chemscore.Metal>
0.0000

> <Gold.Chemscore.Hbonds>
donor molecule, donor type, donor heavy atom, donor atom, acceptor molecule, acceptor atom, score
      L1  H     1    18       P1  7948  1.00
      P1  H  7989  7998       L1     4  0.75

> <Gold.PLP.Chemscore.Internal.Correction>
0.3020

> <Gold.Rescore>
     Score         DG    S(hbond)    S(metal)    S(lipo)     H(rot)  DE(clash)    DE(int)     intcor
     16.13     -17.63       1.70        0.00     100.23       2.06       0.05       1.44       ----

> <Gold.Chemscore.Fitness>
16.1336

> <Gold.Chemscore.DG>
-17.6290

> <Gold.Chemscore.ZeroCoef>
-5.4800

> <Gold.Chemscore.Hbond>
1.7030

> <Gold.Chemscore.Metal>
0.0000

> <Gold.Chemscore.Lipo>
100.2308

> <Gold.Chemscore.Internal_Hbond>
0.0000

> <Gold.Chemscore.DEClash>
0.0544

> <Gold.Chemscore.DEInternal>
1.4409

> <Gold.Chemscore.Rot>
2.0570

> <Gold.Chemscore.Internal.Correction>
   9.000000E+99

> <Gold.Chemscore.Hbonds>
donor molecule, donor type, donor heavy atom, donor atom, acceptor molecule, acceptor atom, score
      L1  H     1    18       P1  7948  0.34
      P1  H  7989  7998       L1     4  0.09

> <Gold.Chemscore.Hbond.Weighted>
-5.6880

> <Gold.Chemscore.Metal.Weighted>
-0.0000

> <Gold.Chemscore.Lipo.Weighted>
-11.7270

> <Gold.Chemscore.Internal_Hbond.Weighted>
0.0000

> <Gold.Chemscore.DEClash.Weighted>
0.0544

> <Gold.Chemscore.DEInternal.Weighted>
1.4409

> <Gold.Chemscore.Rot.Weighted>
5.2660

> <Gold.Chemscore.Internal.Correction.Weighted>
   9.000000E+99

> <Gold.Protein.RotatedTorsions>
[ 6907 6896 6895 6894 ] final  -21.44 input  -60.11 | X-H torsion
[ 7974 7965 7964 7962 ] final   14.23 input  175.53 | X-H torsion
[ 8008 7997 7996 7995 ] final -107.15 input   59.86 | X-H torsion
[ 10167 10162 10161 10158 ] final  -80.20 input  -65.29 | X-H torsion
[ 10718 10713 10712 10709 ] final   49.04 input   66.30 | X-H torsion
[ 10763 10752 10751 10750 ] final  -14.38 input  -60.55 | X-H torsion
[ 11005 11000 10999 10996 ] final -147.90 input  -57.11 | X-H torsion

> <Gold.Protein.ActiveResidues>
 VAL166  LYS551  ARG553  GLY616  TRP617  ASP618  TYR619  PRO620  LYS621  CYS622 
 ASP623  PHE694  ASN695  SER759  ASP760  ASP761  ALA762  ILE779  LEU786  VAL792 
 PHE793  MET794  SER795  GLU796  ALA797  LYS798  CYS799  TRP800  GLU811  SER814 

> <Gold.Protein.RotatedAtoms>
  151.2333  135.0562  159.8995 H   0  0  0  0  0  0  0  0  0  0  0  0  # atno 6907 bound_to 6896
  152.5402  134.0513  159.8121 H   0  0  0  0  0  0  0  0  0  0  0  0  # atno 6908 bound_to 6896
  151.0696  133.5428  159.2659 H   0  0  0  0  0  0  0  0  0  0  0  0  # atno 6909 bound_to 6896
  146.2310  139.9071  142.8530 H   0  0  0  0  0  0  0  0  0  0  0  0  # atno 7974 bound_to 7965
  154.9250  140.0406  157.2018 H   0  0  0  0  0  0  0  0  0  0  0  0  # atno 8008 bound_to 7997
  154.8216  140.2884  155.5761 H   0  0  0  0  0  0  0  0  0  0  0  0  # atno 8009 bound_to 7997
  156.2980  140.2517  156.3125 H   0  0  0  0  0  0  0  0  0  0  0  0  # atno 8010 bound_to 7997
  140.4525  143.2478  151.8468 H   0  0  0  0  0  0  0  0  0  0  0  0  # atno 10167 bound_to 10162
  157.4747  130.8277  149.8027 H   0  0  0  0  0  0  0  0  0  0  0  0  # atno 10718 bound_to 10713
  153.5273  135.7015  153.5701 H   0  0  0  0  0  0  0  0  0  0  0  0  # atno 10763 bound_to 10752
  153.3723  135.3941  155.1797 H   0  0  0  0  0  0  0  0  0  0  0  0  # atno 10764 bound_to 10752
  154.8688  135.3815  154.4767 H   0  0  0  0  0  0  0  0  0  0  0  0  # atno 10765 bound_to 10752
  140.7668  134.3235  157.5086 H   0  0  0  0  0  0  0  0  0  0  0  0  # atno 11005 bound_to 11000
  145.2266  140.9956  143.4015 LP  0  0  0  0  0  0  0  0  0  0  0  0  # atno 17320 bound_to 7965
  144.9566  139.4025  143.6376 LP  0  0  0  0  0  0  0  0  0  0  0  0  # atno 17321 bound_to 7965
  139.4798  144.5103  151.8941 LP  0  0  0  0  0  0  0  0  0  0  0  0  # atno 17342 bound_to 10162
  140.4190  144.2268  150.5887 LP  0  0  0  0  0  0  0  0  0  0  0  0  # atno 17343 bound_to 10162
  156.0091  130.3841  150.2327 LP  0  0  0  0  0  0  0  0  0  0  0  0  # atno 17370 bound_to 10713
  157.0511  131.0063  151.3253 LP  0  0  0  0  0  0  0  0  0  0  0  0  # atno 17371 bound_to 10713
  139.8762  134.9236  156.3329 LP  0  0  0  0  0  0  0  0  0  0  0  0  # atno 17394 bound_to 11000
  140.9611  133.7388  156.0403 LP  0  0  0  0  0  0  0  0  0  0  0  0  # atno 17395 bound_to 11000

$$$$
