AV-unprocessed.smi:3137|AV-procd|sdf|11953|dock10
  -GOLD-   2272017353D 1   1.00000     0.00000
 Structure written by MMmdl.
 40 40  0  0  0  0  0  0  0  0  2 V2000
  141.8456  137.7521  153.1459 C   0  0  0  0  0  0  0  0  0  0  0  0
  143.0548  136.9105  152.7269 C   0  0  0  0  0  0  0  0  0  0  0  0
  144.1862  137.7657  152.3966 N   0  0  0  0  0  0  0  0  0  0  0  0
  145.4530  137.3385  152.2937 C   0  0  0  0  0  0  0  0  0  0  0  0
  145.7848  136.1668  152.4744 O   0  0  0  0  0  0  0  0  0  0  0  0
  146.5000  138.3993  151.9392 C   0  0  0  0  0  0  0  0  0  0  0  0
  147.1243  139.0638  153.1778 C   0  0  0  0  0  0  0  0  0  0  0  0
  148.5954  138.9163  153.1704 N   0  3  0  0  0  0  0  0  0  0  0  0
  149.2752  139.1771  154.4612 C   0  0  1  0  0  0  0  0  0  0  0  0
  150.6395  138.4738  154.4553 C   0  0  0  0  0  0  0  0  0  0  0  0
  149.4541  140.6907  154.7247 C   0  0  0  0  0  0  0  0  0  0  0  0
  150.1916  140.9910  155.9385 N   0  0  0  0  0  0  0  0  0  0  0  0
  150.6514  142.2127  156.3835 C   0  0  0  0  0  0  0  0  0  0  0  0
  151.2967  142.0018  157.5690 C   0  0  0  0  0  0  0  0  0  0  0  0
  151.9674  143.0044  158.4631 C   0  0  0  0  0  0  0  0  0  0  0  0
  151.1899  140.5948  157.7589 C   0  0  0  0  0  0  0  0  0  0  0  0
  150.5334  139.9929  156.7806 N   0  0  0  0  0  0  0  0  0  0  0  0
  140.9976  137.1138  153.3942 H   0  0  0  0  0  0  0  0  0  0  0  0
  141.5330  138.4215  152.3440 H   0  0  0  0  0  0  0  0  0  0  0  0
  142.0717  138.3596  154.0229 H   0  0  0  0  0  0  0  0  0  0  0  0
  143.3328  136.2329  153.5355 H   0  0  0  0  0  0  0  0  0  0  0  0
  142.7981  136.2956  151.8633 H   0  0  0  0  0  0  0  0  0  0  0  0
  143.9918  138.7438  152.2376 H   0  0  0  0  0  0  0  0  0  0  0  0
  147.2845  137.9415  151.3346 H   0  0  0  0  0  0  0  0  0  0  0  0
  146.0208  139.1530  151.3138 H   0  0  0  0  0  0  0  0  0  0  0  0
  146.8606  140.1195  153.2011 H   0  0  0  0  0  0  0  0  0  0  0  0
  146.7230  138.6112  154.0858 H   0  0  0  0  0  0  0  0  0  0  0  0
  148.7883  137.9568  152.9213 H   0  0  0  0  0  0  0  0  0  0  0  0
  148.6936  138.7275  155.2675 H   0  0  0  0  0  0  0  0  0  0  0  0
  151.1548  138.6083  155.4068 H   0  0  0  0  0  0  0  0  0  0  0  0
  151.2866  138.8642  153.6691 H   0  0  0  0  0  0  0  0  0  0  0  0
  150.5281  137.4009  154.2942 H   0  0  0  0  0  0  0  0  0  0  0  0
  149.9955  141.1505  153.8966 H   0  0  0  0  0  0  0  0  0  0  0  0
  148.4839  141.1874  154.7701 H   0  0  0  0  0  0  0  0  0  0  0  0
  150.4789  143.1237  155.8296 H   0  0  0  0  0  0  0  0  0  0  0  0
  152.1383  142.6050  159.4631 H   0  0  0  0  0  0  0  0  0  0  0  0
  151.3681  143.9078  158.5773 H   0  0  0  0  0  0  0  0  0  0  0  0
  152.9371  143.3085  158.0687 H   0  0  0  0  0  0  0  0  0  0  0  0
  151.5692  139.9961  158.5741 H   0  0  0  0  0  0  0  0  0  0  0  0
  148.9937  139.5148  152.4610 H   0  0  0  0  0  0  0  0  0  0  0  0
  1  2  1  0  0  0  0
  1 18  1  0  0  0  0
  1 19  1  0  0  0  0
  1 20  1  0  0  0  0
  2  3  1  0  0  0  0
  2 21  1  0  0  0  0
  2 22  1  0  0  0  0
  3  4  1  0  0  0  0
  3 23  1  0  0  0  0
  4  5  2  0  0  0  0
  4  6  1  0  0  0  0
  6  7  1  0  0  0  0
  6 24  1  0  0  0  0
  6 25  1  0  0  0  0
  7  8  1  0  0  0  0
  7 26  1  0  0  0  0
  7 27  1  0  0  0  0
  8  9  1  0  0  0  0
  8 28  1  0  0  0  0
  8 40  1  0  0  0  0
  9 10  1  0  0  0  0
  9 11  1  0  0  0  0
  9 29  1  0  0  0  0
 10 30  1  0  0  0  0
 10 31  1  0  0  0  0
 10 32  1  0  0  0  0
 11 12  1  0  0  0  0
 11 33  1  0  0  0  0
 11 34  1  0  0  0  0
 12 17  1  0  0  0  0
 12 13  1  0  0  0  0
 13 14  2  0  0  0  0
 13 35  1  0  0  0  0
 14 15  1  0  0  0  0
 14 16  1  0  0  0  0
 15 36  1  0  0  0  0
 15 37  1  0  0  0  0
 15 38  1  0  0  0  0
 16 17  2  0  0  0  0
 16 39  1  0  0  0  0
M  CHG  1   8   1
M  END
> <s_m_source_file>
AV-unprocessed.smi

> <i_m_source_file_index>
3137

> <i_lp_mmshare_version>
43012

> <i_f3d_flags>
0

> <s_epik_input>
W0NIM11bQ0gyXVtOSF1DKD1PKVtDSDJdW0NIMl1bTkhdW0NASF0oW0NIM10pW0NIMl1uMVtjSF1jKFtDSDNdKVtjSF1uMQ==

> <s_epik_cmdline>
J2VwaWtfcHl0aG9uJywgJy1waCcsICc3LjAnLCAnLXRuJywgJzgnLCAnLW1hJywgJzIwMCcsICctbWV0YWxfYmluZGluZycsICctaW1hZScsICc8aW5maWxlLm1hZT4nLCAnLW9tYWUnLCAnPG91dGZpbGUubWFlPic=

> <r_lp_tautomer_probability>
1

> <r_epik_Ionization_Penalty>
0.00598586

> <r_epik_Ionization_Penalty_Charging>
0.00597743

> <r_epik_Ionization_Penalty_Neutral>
8.43172e-06

> <r_epik_State_Penalty>
0.00439883

> <r_epik_Charging_Adjusted_Penalty>
0.0103763

> <i_epik_Tot_Q>
1

> <i_epik_Tot_abs_Q>
1

> <r_epik_Metal_State_Penalty>
-0

> <b_epik_Metal_Only>
0

> <s_lp_Force_Field>
OPLS_2005

> <r_lp_Energy>
6.05872

> <b_lp_Chiralities_Consistent>
1

> <s_lp_Variant>
AV-unprocessed.smi:3137-2

> <Gold.Version>
5.8.1

> <Gold.Id.Protein>
6NUR|6NUR_protein|mol2

> <Gold.PLP.Fitness>
49.3288

> <Gold.PLP.PLP>
-36.6544

> <Gold.PLP.part.hbond>
-3.9168

> <Gold.PLP.part.metal>
0.0000

> <Gold.PLP.part.buried>
-4.3135

> <Gold.PLP.part.nonpolar>
-30.2448

> <Gold.PLP.part.repulsive>
0.2623

> <Gold.PLP.ligand.clash>
0.0000

> <Gold.PLP.ligand.torsion>
1.1792

> <Gold.PLP.Chemscore.Hbond>
3.9913

> <Gold.PLP.Chemscore.CHOScore>
1.0000

> <Gold.PLP.Chemscore.Metal>
0.0000

> <Gold.Chemscore.Hbonds>
donor molecule, donor type, donor heavy atom, donor atom, acceptor molecule, acceptor atom, score
      L1  H     3    23       P1 10175  1.00
      L1  H     8    28       P1  7948  2.00
      L1  H     8    40       P1  7957  0.99
      L1  C    13    35       P1  8028  1.00

> <Gold.PLP.Chemscore.Internal.Correction>
0.0592

> <Gold.Rescore>
     Score         DG    S(hbond)    S(metal)    S(lipo)     H(rot)  DE(clash)    DE(int)     intcor
     16.03     -18.48       2.93        0.00      77.67       2.30       0.01       2.45       ----

> <Gold.Chemscore.Fitness>
16.0257

> <Gold.Chemscore.DG>
-18.4833

> <Gold.Chemscore.ZeroCoef>
-5.4800

> <Gold.Chemscore.Hbond>
2.9325

> <Gold.Chemscore.Metal>
0.0000

> <Gold.Chemscore.Lipo>
77.6686

> <Gold.Chemscore.Internal_Hbond>
0.0000

> <Gold.Chemscore.DEClash>
0.0076

> <Gold.Chemscore.DEInternal>
2.4500

> <Gold.Chemscore.Rot>
2.2963

> <Gold.Chemscore.Internal.Correction>
   9.000000E+99

> <Gold.Chemscore.Hbonds>
donor molecule, donor type, donor heavy atom, donor atom, acceptor molecule, acceptor atom, score
      L1  H     3    23       P1 10175  1.00
      L1  H     8    28       P1  7948  0.95
      L1  H     8    40       P1  7957  0.92

> <Gold.Chemscore.Hbond.Weighted>
-9.7947

> <Gold.Chemscore.Metal.Weighted>
-0.0000

> <Gold.Chemscore.Lipo.Weighted>
-9.0872

> <Gold.Chemscore.Internal_Hbond.Weighted>
0.0000

> <Gold.Chemscore.DEClash.Weighted>
0.0076

> <Gold.Chemscore.DEInternal.Weighted>
2.4500

> <Gold.Chemscore.Rot.Weighted>
5.8786

> <Gold.Chemscore.Internal.Correction.Weighted>
   9.000000E+99

> <Gold.Protein.RotatedTorsions>
[ 6907 6896 6895 6894 ] final  -73.86 input  -60.11 | X-H torsion
[ 7974 7965 7964 7962 ] final   73.75 input  175.53 | X-H torsion
[ 8008 7997 7996 7995 ] final  108.19 input   59.86 | X-H torsion
[ 10167 10162 10161 10158 ] final  150.15 input  -65.29 | X-H torsion
[ 10718 10713 10712 10709 ] final   71.03 input   66.30 | X-H torsion
[ 10763 10752 10751 10750 ] final -100.19 input  -60.55 | X-H torsion
[ 11005 11000 10999 10996 ] final  -60.33 input  -57.11 | X-H torsion

> <Gold.Protein.ActiveResidues>
 VAL166  LYS551  ARG553  GLY616  TRP617  ASP618  TYR619  PRO620  LYS621  CYS622 
 ASP623  PHE694  ASN695  SER759  ASP760  ASP761  ALA762  ILE779  LEU786  VAL792 
 PHE793  MET794  SER795  GLU796  ALA797  LYS798  CYS799  TRP800  GLU811  SER814 

> <Gold.Protein.RotatedAtoms>
  150.7114  134.4954  159.5535 H   0  0  0  0  0  0  0  0  0  0  0  0  # atno 6907 bound_to 6896
  152.2563  134.8078  160.0447 H   0  0  0  0  0  0  0  0  0  0  0  0  # atno 6908 bound_to 6896
  151.8807  133.3459  159.3802 H   0  0  0  0  0  0  0  0  0  0  0  0  # atno 6909 bound_to 6896
  145.7370  139.2706  143.1508 H   0  0  0  0  0  0  0  0  0  0  0  0  # atno 7974 bound_to 7965
  156.1884  140.3081  155.9283 H   0  0  0  0  0  0  0  0  0  0  0  0  # atno 8008 bound_to 7997
  155.3230  140.0457  157.3057 H   0  0  0  0  0  0  0  0  0  0  0  0  # atno 8009 bound_to 7997
  154.5422  140.2265  155.8631 H   0  0  0  0  0  0  0  0  0  0  0  0  # atno 8010 bound_to 7997
  139.4853  144.5545  151.7341 H   0  0  0  0  0  0  0  0  0  0  0  0  # atno 10167 bound_to 10162
  157.6430  130.9507  150.0732 H   0  0  0  0  0  0  0  0  0  0  0  0  # atno 10718 bound_to 10713
  154.7559  135.4944  153.9374 H   0  0  0  0  0  0  0  0  0  0  0  0  # atno 10763 bound_to 10752
  153.1195  135.6728  153.9367 H   0  0  0  0  0  0  0  0  0  0  0  0  # atno 10764 bound_to 10752
  153.9103  135.3100  155.3427 H   0  0  0  0  0  0  0  0  0  0  0  0  # atno 10765 bound_to 10752
  141.1283  133.6621  156.5207 H   0  0  0  0  0  0  0  0  0  0  0  0  # atno 11005 bound_to 11000
  146.0484  140.8094  142.9794 LP  0  0  0  0  0  0  0  0  0  0  0  0  # atno 17320 bound_to 7965
  144.6879  140.3015  143.7262 LP  0  0  0  0  0  0  0  0  0  0  0  0  # atno 17321 bound_to 7965
  140.5105  144.1033  150.5994 LP  0  0  0  0  0  0  0  0  0  0  0  0  # atno 17342 bound_to 10162
  140.3957  143.2729  152.0008 LP  0  0  0  0  0  0  0  0  0  0  0  0  # atno 17343 bound_to 10162
  156.1730  130.3647  149.9139 LP  0  0  0  0  0  0  0  0  0  0  0  0  # atno 17370 bound_to 10713
  156.7110  130.8970  151.3609 LP  0  0  0  0  0  0  0  0  0  0  0  0  # atno 17371 bound_to 10713
  140.4294  134.7115  157.4933 LP  0  0  0  0  0  0  0  0  0  0  0  0  # atno 17394 bound_to 11000
  140.0304  134.6414  155.9114 LP  0  0  0  0  0  0  0  0  0  0  0  0  # atno 17395 bound_to 11000

$$$$
