AV-unprocessed.smi:2772|AV-procd|sdf|10672|dock1
  -GOLD-   2272015123D 1   1.00000     0.00000
 Structure written by MMmdl.
 56 58  0  0  0  0  0  0  0  0  4 V2000
  151.9223  144.4249  158.5853 C   0  0  0  0  0  0  0  0  0  0  0  0
  151.4686  143.0314  158.2047 C   0  0  0  0  0  0  0  0  0  0  0  0
  151.9616  141.8771  158.8480 C   0  0  0  0  0  0  0  0  0  0  0  0
  151.4970  140.6100  158.4390 C   0  0  0  0  0  0  0  0  0  0  0  0
  150.5439  140.5135  157.4009 C   0  0  0  0  0  0  0  0  0  0  0  0
  150.1165  139.2134  157.0147 N   0  0  0  0  0  0  0  0  0  0  0  0
  148.9822  138.8564  156.3877 C   0  0  0  0  0  0  0  0  0  0  0  0
  148.0799  139.6253  156.0573 O   0  0  0  0  0  0  0  0  0  0  0  0
  148.9371  137.5328  156.1769 N   0  0  0  0  0  0  0  0  0  0  0  0
  147.8386  136.8259  155.5242 C   0  0  2  0  0  0  0  0  0  0  0  0
  148.2835  135.4346  155.0475 C   0  0  0  0  0  0  0  0  0  0  0  0
  147.1493  134.7259  154.2907 C   0  0  0  0  0  0  0  0  0  0  0  0
  146.6785  135.5220  153.1203 N   0  3  1  0  0  0  0  0  0  0  0  0
  145.6989  134.7592  152.2771 C   0  0  2  0  0  0  0  0  0  0  0  0
  146.3689  133.5126  151.6508 C   0  0  0  0  0  0  0  0  0  0  0  0
  145.3920  132.7050  150.7792 C   0  0  0  0  0  0  0  0  0  0  0  0
  144.8118  133.5468  149.7067 N   0  3  1  0  0  0  0  0  0  0  0  0
  143.9538  132.7725  148.7837 C   0  0  0  0  0  0  0  0  0  0  0  0
  144.1185  134.7339  150.2601 C   0  0  0  0  0  0  0  0  0  0  0  0
  145.0682  135.5818  151.1245 C   0  0  0  0  0  0  0  0  0  0  0  0
  146.2318  136.8782  153.5561 C   0  0  0  0  0  0  0  0  0  0  0  0
  147.3393  137.6293  154.3166 C   0  0  0  0  0  0  0  0  0  0  0  0
  150.0962  141.7097  156.7852 C   0  0  0  0  0  0  0  0  0  0  0  0
  150.5672  142.9039  157.2064 N   0  3  0  0  0  0  0  0  0  0  0  0
  152.3694  144.4311  159.5799 H   0  0  0  0  0  0  0  0  0  0  0  0
  151.0800  145.1177  158.5887 H   0  0  0  0  0  0  0  0  0  0  0  0
  152.6641  144.7873  157.8733 H   0  0  0  0  0  0  0  0  0  0  0  0
  152.6875  141.9579  159.6439 H   0  0  0  0  0  0  0  0  0  0  0  0
  151.8696  139.7201  158.9258 H   0  0  0  0  0  0  0  0  0  0  0  0
  150.7284  138.4577  157.2869 H   0  0  0  0  0  0  0  0  0  0  0  0
  149.7207  136.9748  156.4834 H   0  0  0  0  0  0  0  0  0  0  0  0
  147.0131  136.7174  156.2309 H   0  0  0  0  0  0  0  0  0  0  0  0
  149.1569  135.5215  154.3991 H   0  0  0  0  0  0  0  0  0  0  0  0
  148.5898  134.8243  155.8982 H   0  0  0  0  0  0  0  0  0  0  0  0
  147.5119  133.7481  153.9794 H   0  0  0  0  0  0  0  0  0  0  0  0
  146.3116  134.5444  154.9662 H   0  0  0  0  0  0  0  0  0  0  0  0
  144.8829  134.4348  152.9256 H   0  0  0  0  0  0  0  0  0  0  0  0
  147.2230  133.8208  151.0458 H   0  0  0  0  0  0  0  0  0  0  0  0
  146.7645  132.8465  152.4158 H   0  0  0  0  0  0  0  0  0  0  0  0
  145.9170  131.8592  150.3332 H   0  0  0  0  0  0  0  0  0  0  0  0
  144.5916  132.2917  151.3956 H   0  0  0  0  0  0  0  0  0  0  0  0
  143.0880  132.3618  149.3047 H   0  0  0  0  0  0  0  0  0  0  0  0
  144.5110  131.9460  148.3414 H   0  0  0  0  0  0  0  0  0  0  0  0
  143.5958  133.4038  147.9697 H   0  0  0  0  0  0  0  0  0  0  0  0
  143.7311  135.3429  149.4422 H   0  0  0  0  0  0  0  0  0  0  0  0
  143.2584  134.4131  150.8504 H   0  0  0  0  0  0  0  0  0  0  0  0
  144.4904  136.4190  151.5170 H   0  0  0  0  0  0  0  0  0  0  0  0
  145.8516  136.0038  150.4931 H   0  0  0  0  0  0  0  0  0  0  0  0
  145.9691  137.4955  152.6981 H   0  0  0  0  0  0  0  0  0  0  0  0
  145.3395  136.7880  154.1776 H   0  0  0  0  0  0  0  0  0  0  0  0
  146.9649  138.6002  154.6439 H   0  0  0  0  0  0  0  0  0  0  0  0
  148.1690  137.8319  153.6372 H   0  0  0  0  0  0  0  0  0  0  0  0
  149.3931  141.7663  155.9683 H   0  0  0  0  0  0  0  0  0  0  0  0
  147.4856  135.6810  152.5338 H   0  0  0  0  0  0  0  0  0  0  0  0
  145.5848  133.8910  149.1547 H   0  0  0  0  0  0  0  0  0  0  0  0
  150.2276  143.7488  156.7461 H   0  0  0  0  0  0  0  0  0  0  0  0
  1  2  1  0  0  0  0
  1 25  1  0  0  0  0
  1 26  1  0  0  0  0
  1 27  1  0  0  0  0
  2 24  1  0  0  0  0
  2  3  2  0  0  0  0
  3  4  1  0  0  0  0
  3 28  1  0  0  0  0
  4  5  2  0  0  0  0
  4 29  1  0  0  0  0
  5  6  1  0  0  0  0
  5 23  1  0  0  0  0
  6  7  1  0  0  0  0
  6 30  1  0  0  0  0
  7  8  2  0  0  0  0
  7  9  1  0  0  0  0
  9 10  1  0  0  0  0
  9 31  1  0  0  0  0
 10 22  1  0  0  0  0
 10 11  1  0  0  0  0
 10 32  1  0  0  0  0
 11 12  1  0  0  0  0
 11 33  1  0  0  0  0
 11 34  1  0  0  0  0
 12 13  1  0  0  0  0
 12 35  1  0  0  0  0
 12 36  1  0  0  0  0
 13 14  1  0  0  0  0
 13 21  1  0  0  0  0
 13 54  1  0  0  0  0
 14 20  1  0  0  0  0
 14 15  1  0  0  0  0
 14 37  1  0  0  0  0
 15 16  1  0  0  0  0
 15 38  1  0  0  0  0
 15 39  1  0  0  0  0
 16 17  1  0  0  0  0
 16 40  1  0  0  0  0
 16 41  1  0  0  0  0
 17 18  1  0  0  0  0
 17 19  1  0  0  0  0
 17 55  1  0  0  0  0
 18 42  1  0  0  0  0
 18 43  1  0  0  0  0
 18 44  1  0  0  0  0
 19 20  1  0  0  0  0
 19 45  1  0  0  0  0
 19 46  1  0  0  0  0
 20 47  1  0  0  0  0
 20 48  1  0  0  0  0
 21 22  1  0  0  0  0
 21 49  1  0  0  0  0
 21 50  1  0  0  0  0
 22 51  1  0  0  0  0
 22 52  1  0  0  0  0
 23 24  2  0  0  0  0
 23 53  1  0  0  0  0
 24 56  1  0  0  0  0
M  CHG  1  13   1
M  CHG  1  17   1
M  CHG  1  24   1
M  END
> <s_m_source_file>
AV-unprocessed.smi

> <i_m_source_file_index>
2772

> <i_lp_mmshare_version>
43012

> <i_f3d_flags>
0

> <s_epik_input>
W0NIM11jMVtjSF1bY0hdYyhbY0hdbjEpW05IXUMoPU8pW05IXVtDSF0yW0NIMl1bQ0gyXU4oW0NIMl1bQ0gyXTIpW0NIXTNbQ0gyXVtDSDJdTihbQ0gzXSlbQ0gyXVtDSDJdMw==

> <s_epik_cmdline>
J2VwaWtfcHl0aG9uJywgJy1waCcsICc3LjAnLCAnLXRuJywgJzgnLCAnLW1hJywgJzIwMCcsICctbWV0YWxfYmluZGluZycsICctaW1hZScsICc8aW5maWxlLm1hZT4nLCAnLW9tYWUnLCAnPG91dGZpbGUubWFlPic=

> <r_epik_Ionization_Penalty>
2.34117

> <r_epik_Ionization_Penalty_Charging>
2.34115

> <r_epik_Ionization_Penalty_Neutral>
2.22786e-05

> <r_epik_State_Penalty>
2.43944

> <r_epik_Charging_Adjusted_Penalty>
4.78059

> <i_epik_Tot_Q>
3

> <i_epik_Tot_abs_Q>
3

> <r_epik_Metal_State_Penalty>
2.45906

> <b_epik_Metal_Only>
0

> <s_lp_Force_Field>
OPLS_2005

> <r_lp_Energy>
50.0284

> <b_lp_Chiralities_Consistent>
1

> <s_lp_Variant>
AV-unprocessed.smi:2772-9

> <Gold.Version>
5.8.1

> <Gold.Id.Protein>
6NUR|6NUR_protein|mol2

> <Gold.PLP.Fitness>
50.1020

> <Gold.PLP.PLP>
-36.0566

> <Gold.PLP.part.hbond>
-3.0000

> <Gold.PLP.part.metal>
0.0000

> <Gold.PLP.part.buried>
-4.1747

> <Gold.PLP.part.nonpolar>
-29.9449

> <Gold.PLP.part.repulsive>
0.1278

> <Gold.PLP.ligand.clash>
0.0000

> <Gold.PLP.ligand.torsion>
0.4587

> <Gold.PLP.Chemscore.Hbond>
4.9760

> <Gold.PLP.Chemscore.CHOScore>
0.0000

> <Gold.PLP.Chemscore.Metal>
0.0000

> <Gold.Chemscore.Hbonds>
donor molecule, donor type, donor heavy atom, donor atom, acceptor molecule, acceptor atom, score
      L1  H    13    54       P1  7948  2.00
      L1  H    17    55       P1  7921  0.96
      L1  H    24    56       P1  8028  2.00

> <Gold.PLP.Chemscore.Internal.Correction>
0.0346

> <Gold.Rescore>
     Score         DG    S(hbond)    S(metal)    S(lipo)     H(rot)  DE(clash)    DE(int)     intcor
     20.81     -24.04       2.86        0.00     103.56       1.22       0.38       2.84       ----

> <Gold.Chemscore.Fitness>
20.8060

> <Gold.Chemscore.DG>
-24.0355

> <Gold.Chemscore.ZeroCoef>
-5.4800

> <Gold.Chemscore.Hbond>
2.8646

> <Gold.Chemscore.Metal>
0.0000

> <Gold.Chemscore.Lipo>
103.5616

> <Gold.Chemscore.Internal_Hbond>
0.0000

> <Gold.Chemscore.DEClash>
0.3849

> <Gold.Chemscore.DEInternal>
2.8446

> <Gold.Chemscore.Rot>
1.2222

> <Gold.Chemscore.Internal.Correction>
   9.000000E+99

> <Gold.Chemscore.Hbonds>
donor molecule, donor type, donor heavy atom, donor atom, acceptor molecule, acceptor atom, score
      L1  H    13    54       P1  7948  1.00
      L1  H    17    55       P1  7921  0.51
      L1  H    24    56       P1  8028  0.95

> <Gold.Chemscore.Hbond.Weighted>
-9.5677

> <Gold.Chemscore.Metal.Weighted>
-0.0000

> <Gold.Chemscore.Lipo.Weighted>
-12.1167

> <Gold.Chemscore.Internal_Hbond.Weighted>
0.0000

> <Gold.Chemscore.DEClash.Weighted>
0.3849

> <Gold.Chemscore.DEInternal.Weighted>
2.8446

> <Gold.Chemscore.Rot.Weighted>
3.1289

> <Gold.Chemscore.Internal.Correction.Weighted>
   9.000000E+99

> <Gold.Protein.RotatedTorsions>
[ 6907 6896 6895 6894 ] final   83.08 input  -60.11 | X-H torsion
[ 7974 7965 7964 7962 ] final  121.65 input  175.53 | X-H torsion
[ 8008 7997 7996 7995 ] final -136.47 input   59.86 | X-H torsion
[ 10167 10162 10161 10158 ] final    1.29 input  -65.29 | X-H torsion
[ 10718 10713 10712 10709 ] final -166.22 input   66.30 | X-H torsion
[ 10763 10752 10751 10750 ] final  -66.09 input  -60.55 | X-H torsion
[ 11005 11000 10999 10996 ] final  123.37 input  -57.11 | X-H torsion

> <Gold.Protein.ActiveResidues>
 VAL166  LYS551  ARG553  GLY616  TRP617  ASP618  TYR619  PRO620  LYS621  CYS622 
 ASP623  PHE694  ASN695  SER759  ASP760  ASP761  ALA762  ILE779  LEU786  VAL792 
 PHE793  MET794  SER795  GLU796  ALA797  LYS798  CYS799  TRP800  GLU811  SER814 

> <Gold.Protein.RotatedAtoms>
  152.5317  134.2951  159.9057 H   0  0  0  0  0  0  0  0  0  0  0  0  # atno 6907 bound_to 6896
  151.2903  133.4162  159.2640 H   0  0  0  0  0  0  0  0  0  0  0  0  # atno 6908 bound_to 6896
  151.0207  134.9482  159.8115 H   0  0  0  0  0  0  0  0  0  0  0  0  # atno 6909 bound_to 6896
  145.1168  139.3415  143.4735 H   0  0  0  0  0  0  0  0  0  0  0  0  # atno 7974 bound_to 7965
  155.3957  140.0503  157.3039 H   0  0  0  0  0  0  0  0  0  0  0  0  # atno 8008 bound_to 7997
  154.5014  140.2158  155.9299 H   0  0  0  0  0  0  0  0  0  0  0  0  # atno 8009 bound_to 7997
  156.1472  140.3143  155.8595 H   0  0  0  0  0  0  0  0  0  0  0  0  # atno 8010 bound_to 7997
  140.6690  143.7102  150.7883 H   0  0  0  0  0  0  0  0  0  0  0  0  # atno 10167 bound_to 10162
  156.6648  130.9060  151.3035 H   0  0  0  0  0  0  0  0  0  0  0  0  # atno 10718 bound_to 10713
  154.3548  135.6129  153.5660 H   0  0  0  0  0  0  0  0  0  0  0  0  # atno 10763 bound_to 10752
  152.9796  135.5801  154.4702 H   0  0  0  0  0  0  0  0  0  0  0  0  # atno 10764 bound_to 10752
  154.4429  135.2850  155.1812 H   0  0  0  0  0  0  0  0  0  0  0  0  # atno 10765 bound_to 10752
  139.9310  134.9641  156.8250 H   0  0  0  0  0  0  0  0  0  0  0  0  # atno 11005 bound_to 11000
  146.3523  140.1111  142.8604 LP  0  0  0  0  0  0  0  0  0  0  0  0  # atno 17320 bound_to 7965
  145.0785  140.9204  143.4840 LP  0  0  0  0  0  0  0  0  0  0  0  0  # atno 17321 bound_to 7965
  140.0784  143.4993  152.2543 LP  0  0  0  0  0  0  0  0  0  0  0  0  # atno 17342 bound_to 10162
  139.5950  144.7563  151.3309 LP  0  0  0  0  0  0  0  0  0  0  0  0  # atno 17343 bound_to 10162
  157.7097  130.9426  150.1049 LP  0  0  0  0  0  0  0  0  0  0  0  0  # atno 17370 bound_to 10713
  156.1983  130.3658  149.8820 LP  0  0  0  0  0  0  0  0  0  0  0  0  # atno 17371 bound_to 10713
  140.6203  134.0000  155.7615 LP  0  0  0  0  0  0  0  0  0  0  0  0  # atno 17394 bound_to 11000
  141.0898  133.9935  157.3256 LP  0  0  0  0  0  0  0  0  0  0  0  0  # atno 17395 bound_to 11000

$$$$
