AV-unprocessed.smi:1027|AV-procd|sdf|4470|dock10
  -GOLD-   22720 2443D 1   1.00000     0.00000
 Structure written by MMmdl.
 35 36  0  0  0  0  0  0  0  0  1 V2000
  145.4005  135.7507  150.6170 C   0  0  0  0  0  0  0  0  0  0  0  0
  144.8713  135.5474  152.0505 C   0  0  0  0  0  0  0  0  0  0  0  0
  143.4047  135.0832  151.9924 C   0  0  0  0  0  0  0  0  0  0  0  0
  145.0557  136.8113  152.9320 C   0  0  1  0  0  0  0  0  0  0  0  0
  144.5261  136.6345  154.3681 C   0  0  0  0  0  0  0  0  0  0  0  0
  146.4690  137.1838  152.9934 N   0  0  0  0  0  0  0  0  0  0  0  0
  146.9964  138.1110  153.8066 C   0  0  0  0  0  0  0  0  0  0  0  0
  146.3368  138.7525  154.6247 O   0  0  0  0  0  0  0  0  0  0  0  0
  148.3200  138.2370  153.6054 N   0  0  0  0  0  0  0  0  0  0  0  0
  149.2300  139.1083  154.2601 C   0  0  0  0  0  0  0  0  0  0  0  0
  150.5625  138.9901  154.1809 N   0  0  0  0  0  0  0  0  0  0  0  0
  151.2141  139.9718  154.9137 N   0  0  0  0  0  0  0  0  0  0  0  0
  150.3595  140.8004  155.5255 C   0  0  0  0  0  0  0  0  0  0  0  0
  150.8236  141.9371  156.3738 C   0  0  0  0  0  0  0  0  0  0  0  0
  151.6206  141.6853  157.6330 C   0  0  0  0  0  0  0  0  0  0  0  0
  150.2132  142.2154  157.7301 C   0  0  0  0  0  0  0  0  0  0  0  0
  148.6582  140.4408  155.2488 S   0  0  0  0  0  0  0  0  0  0  0  0
  144.8975  136.5837  150.1250 H   0  0  0  0  0  0  0  0  0  0  0  0
  145.2377  134.8607  150.0084 H   0  0  0  0  0  0  0  0  0  0  0  0
  146.4716  135.9523  150.6015 H   0  0  0  0  0  0  0  0  0  0  0  0
  145.4508  134.7372  152.4957 H   0  0  0  0  0  0  0  0  0  0  0  0
  142.7538  135.8728  151.6156 H   0  0  0  0  0  0  0  0  0  0  0  0
  143.0344  134.7811  152.9714 H   0  0  0  0  0  0  0  0  0  0  0  0
  143.2922  134.2209  151.3345 H   0  0  0  0  0  0  0  0  0  0  0  0
  144.5001  137.6259  152.4634 H   0  0  0  0  0  0  0  0  0  0  0  0
  143.4484  136.4765  154.3852 H   0  0  0  0  0  0  0  0  0  0  0  0
  144.7222  137.5208  154.9725 H   0  0  0  0  0  0  0  0  0  0  0  0
  144.9982  135.7856  154.8635 H   0  0  0  0  0  0  0  0  0  0  0  0
  147.0889  136.7051  152.3567 H   0  0  0  0  0  0  0  0  0  0  0  0
  148.7250  137.6393  152.9002 H   0  0  0  0  0  0  0  0  0  0  0  0
  151.1008  142.7891  155.7558 H   0  0  0  0  0  0  0  0  0  0  0  0
  151.7881  140.6509  157.9274 H   0  0  0  0  0  0  0  0  0  0  0  0
  152.4343  142.3719  157.8571 H   0  0  0  0  0  0  0  0  0  0  0  0
  150.0877  143.2568  158.0198 H   0  0  0  0  0  0  0  0  0  0  0  0
  149.4516  141.5336  158.1031 H   0  0  0  0  0  0  0  0  0  0  0  0
  1  2  1  0  0  0  0
  1 18  1  0  0  0  0
  1 19  1  0  0  0  0
  1 20  1  0  0  0  0
  2  3  1  0  0  0  0
  2  4  1  0  0  0  0
  2 21  1  0  0  0  0
  3 22  1  0  0  0  0
  3 23  1  0  0  0  0
  3 24  1  0  0  0  0
  4  5  1  0  0  0  0
  4  6  1  0  0  0  0
  4 25  1  0  0  0  0
  5 26  1  0  0  0  0
  5 27  1  0  0  0  0
  5 28  1  0  0  0  0
  6  7  1  0  0  0  0
  6 29  1  0  0  0  0
  7  8  2  0  0  0  0
  7  9  1  0  0  0  0
  9 10  1  0  0  0  0
  9 30  1  0  0  0  0
 10 17  1  0  0  0  0
 10 11  2  0  0  0  0
 11 12  1  0  0  0  0
 12 13  2  0  0  0  0
 13 14  1  0  0  0  0
 13 17  1  0  0  0  0
 14 16  1  0  0  0  0
 14 15  1  0  0  0  0
 14 31  1  0  0  0  0
 15 16  1  0  0  0  0
 15 32  1  0  0  0  0
 15 33  1  0  0  0  0
 16 34  1  0  0  0  0
 16 35  1  0  0  0  0
M  END
> <s_m_source_file>
AV-unprocessed.smi

> <i_m_source_file_index>
1027

> <i_lp_mmshare_version>
43012

> <i_f3d_flags>
0

> <s_epik_input>
W0NIM11bQ0hdKFtDSDNdKVtDQEhdKFtDSDNdKVtOSF1DKD1PKVtOSF1jMW5uYyhzMSlbQ0hdMltDSDJdW0NIMl0y

> <s_epik_cmdline>
J2VwaWtfcHl0aG9uJywgJy1waCcsICc3LjAnLCAnLXRuJywgJzgnLCAnLW1hJywgJzIwMCcsICctbWV0YWxfYmluZGluZycsICctaW1hZScsICc8aW5maWxlLm1hZT4nLCAnLW9tYWUnLCAnPG91dGZpbGUubWFlPic=

> <r_lp_tautomer_probability>
1

> <r_epik_Ionization_Penalty>
0.000943246

> <r_epik_Ionization_Penalty_Charging>
0

> <r_epik_Ionization_Penalty_Neutral>
0.000943246

> <r_epik_State_Penalty>
-0

> <r_epik_Charging_Adjusted_Penalty>
0

> <i_epik_Tot_Q>
0

> <i_epik_Tot_abs_Q>
0

> <r_epik_Metal_State_Penalty>
0.281646

> <b_epik_Metal_Only>
0

> <s_lp_Force_Field>
OPLS_2005

> <r_lp_Energy>
3.72906

> <b_lp_Chiralities_Consistent>
1

> <s_lp_Variant>
AV-unprocessed.smi:1027-2

> <Gold.Version>
5.8.1

> <Gold.Id.Protein>
6NUR|6NUR_protein|mol2

> <Gold.PLP.Fitness>
32.6195

> <Gold.PLP.PLP>
-25.1104

> <Gold.PLP.part.hbond>
-3.5432

> <Gold.PLP.part.metal>
0.0000

> <Gold.PLP.part.buried>
-4.3704

> <Gold.PLP.part.nonpolar>
-17.9117

> <Gold.PLP.part.repulsive>
0.3746

> <Gold.PLP.ligand.clash>
0.0000

> <Gold.PLP.ligand.torsion>
0.3585

> <Gold.PLP.Chemscore.Hbond>
2.6920

> <Gold.PLP.Chemscore.CHOScore>
0.0000

> <Gold.PLP.Chemscore.Metal>
0.0000

> <Gold.Chemscore.Hbonds>
donor molecule, donor type, donor heavy atom, donor atom, acceptor molecule, acceptor atom, score
      L1  H     6    29       P1  7948  0.98
      L1  H     9    30       P1  7948  1.00
      P1  H  7989  7998       L1    12  0.65

> <Gold.PLP.Chemscore.Internal.Correction>
0.1502

> <Gold.Rescore>
     Score         DG    S(hbond)    S(metal)    S(lipo)     H(rot)  DE(clash)    DE(int)     intcor
     12.85     -15.35       1.97        0.00      58.60       1.39       0.06       2.43       ----

> <Gold.Chemscore.Fitness>
12.8548

> <Gold.Chemscore.DG>
-15.3516

> <Gold.Chemscore.ZeroCoef>
-5.4800

> <Gold.Chemscore.Hbond>
1.9675

> <Gold.Chemscore.Metal>
0.0000

> <Gold.Chemscore.Lipo>
58.5991

> <Gold.Chemscore.Internal_Hbond>
0.0000

> <Gold.Chemscore.DEClash>
0.0629

> <Gold.Chemscore.DEInternal>
2.4339

> <Gold.Chemscore.Rot>
1.3890

> <Gold.Chemscore.Internal.Correction>
   9.000000E+99

> <Gold.Chemscore.Hbonds>
donor molecule, donor type, donor heavy atom, donor atom, acceptor molecule, acceptor atom, score
      L1  H     6    29       P1  7948  0.91
      L1  H     9    30       P1  7948  1.00
      P1  H  7989  7998       L1    12  0.02

> <Gold.Chemscore.Hbond.Weighted>
-6.5714

> <Gold.Chemscore.Metal.Weighted>
-0.0000

> <Gold.Chemscore.Lipo.Weighted>
-6.8561

> <Gold.Chemscore.Internal_Hbond.Weighted>
0.0000

> <Gold.Chemscore.DEClash.Weighted>
0.0629

> <Gold.Chemscore.DEInternal.Weighted>
2.4339

> <Gold.Chemscore.Rot.Weighted>
3.5559

> <Gold.Chemscore.Internal.Correction.Weighted>
   9.000000E+99

> <Gold.Protein.RotatedTorsions>
[ 6907 6896 6895 6894 ] final   95.53 input  -60.11 | X-H torsion
[ 7974 7965 7964 7962 ] final   67.82 input  175.53 | X-H torsion
[ 8008 7997 7996 7995 ] final    6.30 input   59.86 | X-H torsion
[ 10167 10162 10161 10158 ] final  -34.62 input  -65.29 | X-H torsion
[ 10718 10713 10712 10709 ] final   36.33 input   66.30 | X-H torsion
[ 10763 10752 10751 10750 ] final  -30.03 input  -60.55 | X-H torsion
[ 11005 11000 10999 10996 ] final   -0.18 input  -57.11 | X-H torsion

> <Gold.Protein.ActiveResidues>
 VAL166  LYS551  ARG553  GLY616  TRP617  ASP618  TYR619  PRO620  LYS621  CYS622 
 ASP623  PHE694  ASN695  SER759  ASP760  ASP761  ALA762  ILE779  LEU786  VAL792 
 PHE793  MET794  SER795  GLU796  ALA797  LYS798  CYS799  TRP800  GLU811  SER814 

> <Gold.Protein.RotatedAtoms>
  152.5443  134.1026  159.8324 H   0  0  0  0  0  0  0  0  0  0  0  0  # atno 6907 bound_to 6896
  151.1102  133.5171  159.2613 H   0  0  0  0  0  0  0  0  0  0  0  0  # atno 6908 bound_to 6896
  151.1893  135.0405  159.8880 H   0  0  0  0  0  0  0  0  0  0  0  0  # atno 6909 bound_to 6896
  145.8101  139.3028  143.1104 H   0  0  0  0  0  0  0  0  0  0  0  0  # atno 7974 bound_to 7965
  154.7393  140.2746  155.6387 H   0  0  0  0  0  0  0  0  0  0  0  0  # atno 8008 bound_to 7997
  156.2869  140.2700  156.2042 H   0  0  0  0  0  0  0  0  0  0  0  0  # atno 8009 bound_to 7997
  155.0279  140.0371  157.2452 H   0  0  0  0  0  0  0  0  0  0  0  0  # atno 8010 bound_to 7997
  140.7182  143.3535  151.2107 H   0  0  0  0  0  0  0  0  0  0  0  0  # atno 10167 bound_to 10162
  157.3336  130.7511  149.6864 H   0  0  0  0  0  0  0  0  0  0  0  0  # atno 10718 bound_to 10713
  153.7742  135.6910  153.4900 H   0  0  0  0  0  0  0  0  0  0  0  0  # atno 10763 bound_to 10752
  153.1854  135.4491  155.0080 H   0  0  0  0  0  0  0  0  0  0  0  0  # atno 10764 bound_to 10752
  154.8106  135.3376  154.7250 H   0  0  0  0  0  0  0  0  0  0  0  0  # atno 10765 bound_to 10752
  140.6334  133.9555  155.8286 H   0  0  0  0  0  0  0  0  0  0  0  0  # atno 11005 bound_to 11000
  145.9786  140.8701  143.0126 LP  0  0  0  0  0  0  0  0  0  0  0  0  # atno 17320 bound_to 7965
  144.6758  140.2048  143.7383 LP  0  0  0  0  0  0  0  0  0  0  0  0  # atno 17321 bound_to 7965
  139.7071  143.9437  152.2931 LP  0  0  0  0  0  0  0  0  0  0  0  0  # atno 17342 bound_to 10162
  139.9150  144.6834  150.8522 LP  0  0  0  0  0  0  0  0  0  0  0  0  # atno 17343 bound_to 10162
  155.9699  130.4188  150.4344 LP  0  0  0  0  0  0  0  0  0  0  0  0  # atno 17370 bound_to 10713
  157.2380  131.0519  151.2453 LP  0  0  0  0  0  0  0  0  0  0  0  0  # atno 17371 bound_to 10713
  141.0659  134.0277  157.3594 LP  0  0  0  0  0  0  0  0  0  0  0  0  # atno 17394 bound_to 11000
  139.9107  135.0189  156.7680 LP  0  0  0  0  0  0  0  0  0  0  0  0  # atno 17395 bound_to 11000

$$$$
