AV-unprocessed.smi:1744|AV-procd|sdf|7026|dock7
  -GOLD-   22720 8243D 1   1.00000     0.00000
 Structure written by MMmdl.
 44 45  0  0  0  0  0  0  0  0  2 V2000
  151.2980  144.8235  158.8391 C   0  0  0  0  0  0  0  0  0  0  0  0
  152.2887  144.1427  159.7918 C   0  0  0  0  0  0  0  0  0  0  0  0
  152.3525  142.7112  159.5694 N   0  0  0  0  0  0  0  0  0  0  0  0
  151.5861  141.9447  158.7141 C   0  0  0  0  0  0  0  0  0  0  0  0
  152.0268  140.6645  158.8659 C   0  0  0  0  0  0  0  0  0  0  0  0
  151.5087  139.5429  158.1718 N   0  0  0  0  0  0  0  0  0  0  0  0
  151.7244  139.2115  156.8887 C   0  0  0  0  0  0  0  0  0  0  0  0
  152.4134  139.8541  156.0969 O   0  0  0  0  0  0  0  0  0  0  0  0
  151.0836  138.0792  156.5639 N   0  0  0  0  0  0  0  0  0  0  0  0
  151.1146  137.4374  155.2500 C   0  0  2  0  0  0  0  0  0  0  0  0
  150.8347  138.4411  154.1138 C   0  0  0  0  0  0  0  0  0  0  0  0
  149.3686  138.9079  154.1061 C   0  0  0  0  0  0  0  0  0  0  0  0
  148.4382  137.7503  154.0224 N   0  3  2  0  0  0  0  0  0  0  0  0
  147.0162  138.1551  153.8742 C   0  0  0  0  0  0  0  0  0  0  0  0
  146.7201  138.8271  152.5293 C   0  0  0  0  0  0  0  0  0  0  0  0
  146.5285  140.1480  152.5458 N   0  0  0  0  0  0  0  0  0  0  0  0
  146.6489  138.1676  151.4938 O   0  0  0  0  0  0  0  0  0  0  0  0
  148.6427  136.8024  155.1473 C   0  0  0  0  0  0  0  0  0  0  0  0
  150.0938  136.2879  155.1884 C   0  0  0  0  0  0  0  0  0  0  0  0
  153.0663  140.7239  159.8372 C   0  0  0  0  0  0  0  0  0  0  0  0
  153.2545  141.9666  160.2556 N   0  0  0  0  0  0  0  0  0  0  0  0
  151.2535  145.8960  159.0284 H   0  0  0  0  0  0  0  0  0  0  0  0
  150.2921  144.4210  158.9636 H   0  0  0  0  0  0  0  0  0  0  0  0
  151.5898  144.6824  157.7978 H   0  0  0  0  0  0  0  0  0  0  0  0
  153.2878  144.5623  159.6656 H   0  0  0  0  0  0  0  0  0  0  0  0
  151.9979  144.3226  160.8276 H   0  0  0  0  0  0  0  0  0  0  0  0
  150.8151  142.3686  158.0874 H   0  0  0  0  0  0  0  0  0  0  0  0
  150.9117  138.9309  158.7084 H   0  0  0  0  0  0  0  0  0  0  0  0
  150.5470  137.6187  157.2843 H   0  0  0  0  0  0  0  0  0  0  0  0
  152.1101  137.0126  155.1073 H   0  0  0  0  0  0  0  0  0  0  0  0
  151.5012  139.3014  154.1861 H   0  0  0  0  0  0  0  0  0  0  0  0
  151.0603  137.9682  153.1570 H   0  0  0  0  0  0  0  0  0  0  0  0
  149.1526  139.4882  155.0044 H   0  0  0  0  0  0  0  0  0  0  0  0
  149.2137  139.5761  153.2585 H   0  0  0  0  0  0  0  0  0  0  0  0
  146.3758  137.2736  153.9279 H   0  0  0  0  0  0  0  0  0  0  0  0
  146.7232  138.8055  154.7003 H   0  0  0  0  0  0  0  0  0  0  0  0
  146.3355  140.6452  151.6882 H   0  0  0  0  0  0  0  0  0  0  0  0
  146.5829  140.6510  153.4205 H   0  0  0  0  0  0  0  0  0  0  0  0
  148.3838  137.2905  156.0881 H   0  0  0  0  0  0  0  0  0  0  0  0
  147.9688  135.9517  155.0379 H   0  0  0  0  0  0  0  0  0  0  0  0
  150.2831  135.6907  154.2955 H   0  0  0  0  0  0  0  0  0  0  0  0
  150.2299  135.6145  156.0357 H   0  0  0  0  0  0  0  0  0  0  0  0
  153.6788  139.9359  160.2492 H   0  0  0  0  0  0  0  0  0  0  0  0
  148.6725  137.2449  153.1793 H   0  0  0  0  0  0  0  0  0  0  0  0
  1  2  1  0  0  0  0
  1 22  1  0  0  0  0
  1 23  1  0  0  0  0
  1 24  1  0  0  0  0
  2  3  1  0  0  0  0
  2 25  1  0  0  0  0
  2 26  1  0  0  0  0
  3 21  1  0  0  0  0
  3  4  1  0  0  0  0
  4  5  2  0  0  0  0
  4 27  1  0  0  0  0
  5  6  1  0  0  0  0
  5 20  1  0  0  0  0
  6  7  1  0  0  0  0
  6 28  1  0  0  0  0
  7  8  2  0  0  0  0
  7  9  1  0  0  0  0
  9 10  1  0  0  0  0
  9 29  1  0  0  0  0
 10 19  1  0  0  0  0
 10 11  1  0  0  0  0
 10 30  1  0  0  0  0
 11 12  1  0  0  0  0
 11 31  1  0  0  0  0
 11 32  1  0  0  0  0
 12 13  1  0  0  0  0
 12 33  1  0  0  0  0
 12 34  1  0  0  0  0
 13 14  1  0  0  0  0
 13 18  1  0  0  0  0
 13 44  1  0  0  0  0
 14 15  1  0  0  0  0
 14 35  1  0  0  0  0
 14 36  1  0  0  0  0
 15 16  1  0  0  0  0
 15 17  2  0  0  0  0
 16 37  1  0  0  0  0
 16 38  1  0  0  0  0
 18 19  1  0  0  0  0
 18 39  1  0  0  0  0
 18 40  1  0  0  0  0
 19 41  1  0  0  0  0
 19 42  1  0  0  0  0
 20 21  2  0  0  0  0
 20 43  1  0  0  0  0
M  CHG  1  13   1
M  END
> <s_m_source_file>
AV-unprocessed.smi

> <i_m_source_file_index>
1744

> <i_lp_mmshare_version>
43012

> <i_f3d_flags>
0

> <s_epik_input>
W0NIM11bQ0gyXW4xW2NIXWMoW2NIXW4xKVtOSF1DKD1PKVtOSF1bQ0hdMltDSDJdW0NIMl1OKFtDSDJdW0NIMl0yKVtDSDJdQyg9TylbTkgyXQ==

> <s_epik_cmdline>
J2VwaWtfcHl0aG9uJywgJy1waCcsICc3LjAnLCAnLXRuJywgJzgnLCAnLW1hJywgJzIwMCcsICctbWV0YWxfYmluZGluZycsICctaW1hZScsICc8aW5maWxlLm1hZT4nLCAnLW9tYWUnLCAnPG91dGZpbGUubWFlPic=

> <r_lp_tautomer_probability>
1

> <r_epik_Ionization_Penalty>
0.839033

> <r_epik_Ionization_Penalty_Charging>
0.838844

> <r_epik_Ionization_Penalty_Neutral>
0.000189439

> <r_epik_State_Penalty>
0.8734

> <r_epik_Charging_Adjusted_Penalty>
1.71224

> <i_epik_Tot_Q>
1

> <i_epik_Tot_abs_Q>
1

> <r_epik_Metal_State_Penalty>
0.89072

> <b_epik_Metal_Only>
0

> <s_lp_Force_Field>
OPLS_2005

> <r_lp_Energy>
17.546

> <b_lp_Chiralities_Consistent>
1

> <s_lp_Variant>
AV-unprocessed.smi:1744-3

> <Gold.Version>
5.8.1

> <Gold.Id.Protein>
6NUR|6NUR_protein|mol2

> <Gold.PLP.Fitness>
48.7828

> <Gold.PLP.PLP>
-38.8754

> <Gold.PLP.part.hbond>
-4.7797

> <Gold.PLP.part.metal>
0.0000

> <Gold.PLP.part.buried>
-5.4557

> <Gold.PLP.part.nonpolar>
-29.3117

> <Gold.PLP.part.repulsive>
1.2511

> <Gold.PLP.ligand.clash>
0.0000

> <Gold.PLP.ligand.torsion>
1.0621

> <Gold.PLP.Chemscore.Hbond>
4.0000

> <Gold.PLP.Chemscore.CHOScore>
0.0000

> <Gold.PLP.Chemscore.Metal>
0.0000

> <Gold.Chemscore.Hbonds>
donor molecule, donor type, donor heavy atom, donor atom, acceptor molecule, acceptor atom, score
      L1  H    13    44       P1  7948  2.00
      P1  H  7954  7966       L1    17  0.52
      P1  H  7997  8010       L1     8  1.00

> <Gold.PLP.Chemscore.Internal.Correction>
0.0317

> <Gold.Rescore>
     Score         DG    S(hbond)    S(metal)    S(lipo)     H(rot)  DE(clash)    DE(int)     intcor
     17.17     -19.70       2.98        0.00      84.93       2.22       0.77       1.76       ----

> <Gold.Chemscore.Fitness>
17.1693

> <Gold.Chemscore.DG>
-19.6965

> <Gold.Chemscore.ZeroCoef>
-5.4800

> <Gold.Chemscore.Hbond>
2.9839

> <Gold.Chemscore.Metal>
0.0000

> <Gold.Chemscore.Lipo>
84.9263

> <Gold.Chemscore.Internal_Hbond>
0.0000

> <Gold.Chemscore.DEClash>
0.7702

> <Gold.Chemscore.DEInternal>
1.7570

> <Gold.Chemscore.Rot>
2.2211

> <Gold.Chemscore.Internal.Correction>
   9.000000E+99

> <Gold.Chemscore.Hbonds>
donor molecule, donor type, donor heavy atom, donor atom, acceptor molecule, acceptor atom, score
      L1  H    13    44       P1  7948  1.00
      P1  H  7954  7966       L1    17  0.52
      P1  H  7997  8010       L1     8  0.98

> <Gold.Chemscore.Hbond.Weighted>
-9.9661

> <Gold.Chemscore.Metal.Weighted>
-0.0000

> <Gold.Chemscore.Lipo.Weighted>
-9.9364

> <Gold.Chemscore.Internal_Hbond.Weighted>
0.0000

> <Gold.Chemscore.DEClash.Weighted>
0.7702

> <Gold.Chemscore.DEInternal.Weighted>
1.7570

> <Gold.Chemscore.Rot.Weighted>
5.6860

> <Gold.Chemscore.Internal.Correction.Weighted>
   9.000000E+99

> <Gold.Protein.RotatedTorsions>
[ 6907 6896 6895 6894 ] final   89.66 input  -60.11 | X-H torsion
[ 7974 7965 7964 7962 ] final -112.66 input  175.53 | X-H torsion
[ 8008 7997 7996 7995 ] final   76.98 input   59.86 | X-H torsion
[ 10167 10162 10161 10158 ] final -122.94 input  -65.29 | X-H torsion
[ 10718 10713 10712 10709 ] final   12.09 input   66.30 | X-H torsion
[ 10763 10752 10751 10750 ] final   44.93 input  -60.55 | X-H torsion
[ 11005 11000 10999 10996 ] final   64.42 input  -57.11 | X-H torsion

> <Gold.Protein.ActiveResidues>
 VAL166  LYS551  ARG553  GLY616  TRP617  ASP618  TYR619  PRO620  LYS621  CYS622 
 ASP623  PHE694  ASN695  SER759  ASP760  ASP761  ALA762  ILE779  LEU786  VAL792 
 PHE793  MET794  SER795  GLU796  ALA797  LYS798  CYS799  TRP800  GLU811  SER814 

> <Gold.Protein.RotatedAtoms>
  152.5438  134.1933  159.8682 H   0  0  0  0  0  0  0  0  0  0  0  0  # atno 6907 bound_to 6896
  151.1926  133.4651  159.2602 H   0  0  0  0  0  0  0  0  0  0  0  0  # atno 6908 bound_to 6896
  151.1068  135.0016  159.8530 H   0  0  0  0  0  0  0  0  0  0  0  0  # atno 6909 bound_to 6896
  145.1413  140.8779  143.3700 H   0  0  0  0  0  0  0  0  0  0  0  0  # atno 7974 bound_to 7965
  155.8351  140.3464  155.5596 H   0  0  0  0  0  0  0  0  0  0  0  0  # atno 8008 bound_to 7997
  155.8201  140.0911  157.1874 H   0  0  0  0  0  0  0  0  0  0  0  0  # atno 8009 bound_to 7997
  154.4004  140.1431  156.3477 H   0  0  0  0  0  0  0  0  0  0  0  0  # atno 8010 bound_to 7997
  140.0089  143.5462  152.2271 H   0  0  0  0  0  0  0  0  0  0  0  0  # atno 10167 bound_to 10162
  157.0050  130.6095  149.5701 H   0  0  0  0  0  0  0  0  0  0  0  0  # atno 10718 bound_to 10713
  152.9832  135.6055  154.3354 H   0  0  0  0  0  0  0  0  0  0  0  0  # atno 10763 bound_to 10752
  154.3055  135.2772  155.2593 H   0  0  0  0  0  0  0  0  0  0  0  0  # atno 10764 bound_to 10752
  154.4826  135.5913  153.6456 H   0  0  0  0  0  0  0  0  0  0  0  0  # atno 10765 bound_to 10752
  139.9960  134.6517  156.0010 H   0  0  0  0  0  0  0  0  0  0  0  0  # atno 11005 bound_to 11000
  145.0529  139.3167  143.5919 LP  0  0  0  0  0  0  0  0  0  0  0  0  # atno 17320 bound_to 7965
  146.3505  139.9943  142.8682 LP  0  0  0  0  0  0  0  0  0  0  0  0  # atno 17321 bound_to 7965
  139.6219  144.7630  151.2722 LP  0  0  0  0  0  0  0  0  0  0  0  0  # atno 17342 bound_to 10162
  140.7389  143.6633  150.8145 LP  0  0  0  0  0  0  0  0  0  0  0  0  # atno 17343 bound_to 10162
  156.0157  130.5251  150.8126 LP  0  0  0  0  0  0  0  0  0  0  0  0  # atno 17370 bound_to 10713
  157.5362  131.0939  150.9889 LP  0  0  0  0  0  0  0  0  0  0  0  0  # atno 17371 bound_to 10713
  141.1604  133.6539  156.4301 LP  0  0  0  0  0  0  0  0  0  0  0  0  # atno 17394 bound_to 11000
  140.4818  134.6657  157.5174 LP  0  0  0  0  0  0  0  0  0  0  0  0  # atno 17395 bound_to 11000

$$$$
