AV-unprocessed.smi:1093|AV-procd|sdf|4739|dock1
  -GOLD-   22720 3273D 1   1.00000     0.00000
 Structure written by MMmdl.
 48 49  0  0  0  0  0  0  0  0  3 V2000
  145.1070  133.1187  151.0466 C   0  0  0  0  0  0  0  0  0  0  0  0
  146.4289  133.8059  151.4191 C   0  0  0  0  0  0  0  0  0  0  0  0
  146.2215  135.1186  152.0807 N   0  3  2  0  0  0  0  0  0  0  0  0
  145.2085  135.0471  153.1660 C   0  0  0  0  0  0  0  0  0  0  0  0
  145.1129  136.3783  153.9314 C   0  0  0  0  0  0  0  0  0  0  0  0
  144.8374  137.5536  152.9790 C   0  0  0  0  0  0  0  0  0  0  0  0
  145.8673  137.5879  151.8363 C   0  0  1  0  0  0  0  0  0  0  0  0
  147.1785  137.9741  152.3596 N   0  0  0  0  0  0  0  0  0  0  0  0
  147.4035  138.9604  153.2396 C   0  0  0  0  0  0  0  0  0  0  0  0
  146.5151  139.6879  153.6811 O   0  0  0  0  0  0  0  0  0  0  0  0
  148.7090  139.0487  153.5476 N   0  0  0  0  0  0  0  0  0  0  0  0
  149.3521  139.9339  154.4560 C   0  0  0  0  0  0  0  0  0  0  0  0
  150.4932  139.4595  155.1361 C   0  0  0  0  0  0  0  0  0  0  0  0
  151.1593  140.2920  156.0585 C   0  0  0  0  0  0  0  0  0  0  0  0
  150.6750  141.5999  156.3053 C   0  0  0  0  0  0  0  0  0  0  0  0
  151.2849  142.4915  157.2141 N   0  0  0  0  0  0  0  0  0  0  0  0
  151.8684  141.9812  158.4497 C   0  0  0  0  0  0  0  0  0  0  0  0
  151.3623  143.9112  156.8954 C   0  0  0  0  0  0  0  0  0  0  0  0
  149.5694  142.0076  155.6352 N   0  3  0  0  0  0  0  0  0  0  0  0
  148.9016  141.2446  154.7431 C   0  0  0  0  0  0  0  0  0  0  0  0
  145.9095  136.2162  151.1263 C   0  0  0  0  0  0  0  0  0  0  0  0
  145.2972  132.2089  150.4767 H   0  0  0  0  0  0  0  0  0  0  0  0
  144.4841  133.7684  150.4310 H   0  0  0  0  0  0  0  0  0  0  0  0
  144.5297  132.8318  151.9251 H   0  0  0  0  0  0  0  0  0  0  0  0
  147.0365  133.1582  152.0526 H   0  0  0  0  0  0  0  0  0  0  0  0
  146.9940  133.9550  150.4980 H   0  0  0  0  0  0  0  0  0  0  0  0
  144.2375  134.7869  152.7414 H   0  0  0  0  0  0  0  0  0  0  0  0
  145.4709  134.2525  153.8656 H   0  0  0  0  0  0  0  0  0  0  0  0
  144.3248  136.3183  154.6827 H   0  0  0  0  0  0  0  0  0  0  0  0
  146.0412  136.5532  154.4769 H   0  0  0  0  0  0  0  0  0  0  0  0
  143.8364  137.4474  152.5589 H   0  0  0  0  0  0  0  0  0  0  0  0
  144.8397  138.4959  153.5284 H   0  0  0  0  0  0  0  0  0  0  0  0
  145.5536  138.3479  151.1185 H   0  0  0  0  0  0  0  0  0  0  0  0
  147.9679  137.4243  152.0527 H   0  0  0  0  0  0  0  0  0  0  0  0
  149.3236  138.4197  153.0518 H   0  0  0  0  0  0  0  0  0  0  0  0
  150.8637  138.4612  154.9523 H   0  0  0  0  0  0  0  0  0  0  0  0
  152.0338  139.9099  156.5636 H   0  0  0  0  0  0  0  0  0  0  0  0
  152.6646  141.2684  158.2325 H   0  0  0  0  0  0  0  0  0  0  0  0
  151.1103  141.4822  159.0540 H   0  0  0  0  0  0  0  0  0  0  0  0
  152.2951  142.7855  159.0493 H   0  0  0  0  0  0  0  0  0  0  0  0
  150.3641  144.3346  156.7816 H   0  0  0  0  0  0  0  0  0  0  0  0
  151.9152  144.0651  155.9684 H   0  0  0  0  0  0  0  0  0  0  0  0
  151.8714  144.4678  157.6823 H   0  0  0  0  0  0  0  0  0  0  0  0
  148.0318  141.7162  154.3119 H   0  0  0  0  0  0  0  0  0  0  0  0
  146.6438  136.2446  150.3226 H   0  0  0  0  0  0  0  0  0  0  0  0
  144.9479  136.0159  150.6509 H   0  0  0  0  0  0  0  0  0  0  0  0
  147.0969  135.3549  152.5251 H   0  0  0  0  0  0  0  0  0  0  0  0
  149.2164  142.9471  155.8179 H   0  0  0  0  0  0  0  0  0  0  0  0
  1  2  1  0  0  0  0
  1 22  1  0  0  0  0
  1 23  1  0  0  0  0
  1 24  1  0  0  0  0
  2  3  1  0  0  0  0
  2 25  1  0  0  0  0
  2 26  1  0  0  0  0
  3 21  1  0  0  0  0
  3  4  1  0  0  0  0
  3 47  1  0  0  0  0
  4  5  1  0  0  0  0
  4 27  1  0  0  0  0
  4 28  1  0  0  0  0
  5  6  1  0  0  0  0
  5 29  1  0  0  0  0
  5 30  1  0  0  0  0
  6  7  1  0  0  0  0
  6 31  1  0  0  0  0
  6 32  1  0  0  0  0
  7  8  1  0  0  0  0
  7 21  1  0  0  0  0
  7 33  1  0  0  0  0
  8  9  1  0  0  0  0
  8 34  1  0  0  0  0
  9 10  2  0  0  0  0
  9 11  1  0  0  0  0
 11 12  1  0  0  0  0
 11 35  1  0  0  0  0
 12 20  1  0  0  0  0
 12 13  2  0  0  0  0
 13 14  1  0  0  0  0
 13 36  1  0  0  0  0
 14 15  2  0  0  0  0
 14 37  1  0  0  0  0
 15 16  1  0  0  0  0
 15 19  1  0  0  0  0
 16 17  1  0  0  0  0
 16 18  1  0  0  0  0
 17 38  1  0  0  0  0
 17 39  1  0  0  0  0
 17 40  1  0  0  0  0
 18 41  1  0  0  0  0
 18 42  1  0  0  0  0
 18 43  1  0  0  0  0
 19 20  2  0  0  0  0
 19 48  1  0  0  0  0
 20 44  1  0  0  0  0
 21 45  1  0  0  0  0
 21 46  1  0  0  0  0
M  CHG  1   3   1
M  CHG  1  19   1
M  END
> <s_m_source_file>
AV-unprocessed.smi

> <i_m_source_file_index>
1093

> <i_lp_mmshare_version>
43012

> <i_f3d_flags>
0

> <s_epik_input>
W0NIM11bQ0gyXU4xW0NIMl1bQ0gyXVtDSDJdW0NASF0oW0NIMl0xKVtOSF1DKD1PKVtOSF1jMltjSF1bY0hdYyhOKFtDSDNdKVtDSDNdKW5bY0hdMg==

> <s_epik_cmdline>
J2VwaWtfcHl0aG9uJywgJy1waCcsICc3LjAnLCAnLXRuJywgJzgnLCAnLW1hJywgJzIwMCcsICctbWV0YWxfYmluZGluZycsICctaW1hZScsICc8aW5maWxlLm1hZT4nLCAnLW9tYWUnLCAnPG91dGZpbGUubWFlPic=

> <r_lp_tautomer_probability>
0.999994

> <r_epik_Ionization_Penalty>
0.346711

> <r_epik_Ionization_Penalty_Charging>
0.346691

> <r_epik_Ionization_Penalty_Neutral>
1.93006e-05

> <r_epik_State_Penalty>
0.339838

> <r_epik_Charging_Adjusted_Penalty>
0.68653

> <i_epik_Tot_Q>
2

> <i_epik_Tot_abs_Q>
2

> <r_epik_Metal_State_Penalty>
0.600835

> <b_epik_Metal_Only>
0

> <s_lp_Force_Field>
OPLS_2005

> <r_lp_Energy>
35.5707

> <b_lp_Chiralities_Consistent>
1

> <s_lp_Variant>
AV-unprocessed.smi:1093-2

> <Gold.Version>
5.8.1

> <Gold.Id.Protein>
6NUR|6NUR_protein|mol2

> <Gold.PLP.Fitness>
49.2503

> <Gold.PLP.PLP>
-37.2535

> <Gold.PLP.part.hbond>
-4.1943

> <Gold.PLP.part.metal>
0.0000

> <Gold.PLP.part.buried>
0.4743

> <Gold.PLP.part.nonpolar>
-32.8160

> <Gold.PLP.part.repulsive>
0.5160

> <Gold.PLP.ligand.clash>
0.0000

> <Gold.PLP.ligand.torsion>
1.0759

> <Gold.PLP.Chemscore.Hbond>
4.6960

> <Gold.PLP.Chemscore.CHOScore>
0.0000

> <Gold.PLP.Chemscore.Metal>
0.0000

> <Gold.Chemscore.Hbonds>
donor molecule, donor type, donor heavy atom, donor atom, acceptor molecule, acceptor atom, score
      L1  H     3    47       P1  7948  1.01
      L1  H     8    34       P1  7948  1.00
      L1  H    19    48       P1  8028  2.00

> <Gold.PLP.Chemscore.Internal.Correction>
0.0607

> <Gold.Rescore>
     Score         DG    S(hbond)    S(metal)    S(lipo)     H(rot)  DE(clash)    DE(int)     intcor
     18.72     -21.98       2.88        0.00      84.86       1.19       0.85       2.41       ----

> <Gold.Chemscore.Fitness>
18.7161

> <Gold.Chemscore.DG>
-21.9797

> <Gold.Chemscore.ZeroCoef>
-5.4800

> <Gold.Chemscore.Hbond>
2.8831

> <Gold.Chemscore.Metal>
0.0000

> <Gold.Chemscore.Lipo>
84.8637

> <Gold.Chemscore.Internal_Hbond>
0.0000

> <Gold.Chemscore.DEClash>
0.8493

> <Gold.Chemscore.DEInternal>
2.4143

> <Gold.Chemscore.Rot>
1.1949

> <Gold.Chemscore.Internal.Correction>
   9.000000E+99

> <Gold.Chemscore.Hbonds>
donor molecule, donor type, donor heavy atom, donor atom, acceptor molecule, acceptor atom, score
      L1  H     3    47       P1  7948  0.49
      L1  H     8    34       P1  7948  0.93
      L1  H    11    35       P1  7948  0.02
      L1  H    19    48       P1  8028  1.00

> <Gold.Chemscore.Hbond.Weighted>
-9.6296

> <Gold.Chemscore.Metal.Weighted>
-0.0000

> <Gold.Chemscore.Lipo.Weighted>
-9.9290

> <Gold.Chemscore.Internal_Hbond.Weighted>
0.0000

> <Gold.Chemscore.DEClash.Weighted>
0.8493

> <Gold.Chemscore.DEInternal.Weighted>
2.4143

> <Gold.Chemscore.Rot.Weighted>
3.0590

> <Gold.Chemscore.Internal.Correction.Weighted>
   9.000000E+99

> <Gold.Protein.RotatedTorsions>
[ 6907 6896 6895 6894 ] final  -46.50 input  -60.11 | X-H torsion
[ 7974 7965 7964 7962 ] final  -57.93 input  175.53 | X-H torsion
[ 8008 7997 7996 7995 ] final  -61.45 input   59.86 | X-H torsion
[ 10167 10162 10161 10158 ] final -104.39 input  -65.29 | X-H torsion
[ 10718 10713 10712 10709 ] final -136.42 input   66.30 | X-H torsion
[ 10763 10752 10751 10750 ] final    2.00 input  -60.55 | X-H torsion
[ 11005 11000 10999 10996 ] final  -61.93 input  -57.11 | X-H torsion

> <Gold.Protein.ActiveResidues>
 VAL166  LYS551  ARG553  GLY616  TRP617  ASP618  TYR619  PRO620  LYS621  CYS622 
 ASP623  PHE694  ASN695  SER759  ASP760  ASP761  ALA762  ILE779  LEU786  VAL792 
 PHE793  MET794  SER795  GLU796  ALA797  LYS798  CYS799  TRP800  GLU811  SER814 

> <Gold.Protein.RotatedAtoms>
  150.9106  134.8522  159.7422 H   0  0  0  0  0  0  0  0  0  0  0  0  # atno 6907 bound_to 6896
  152.4942  134.4365  159.9539 H   0  0  0  0  0  0  0  0  0  0  0  0  # atno 6908 bound_to 6896
  151.4408  133.3604  159.2816 H   0  0  0  0  0  0  0  0  0  0  0  0  # atno 6909 bound_to 6896
  145.8453  140.8389  143.0013 H   0  0  0  0  0  0  0  0  0  0  0  0  # atno 7974 bound_to 7965
  154.4449  140.1017  156.6433 H   0  0  0  0  0  0  0  0  0  0  0  0  # atno 8008 bound_to 7997
  155.5477  140.3485  155.4443 H   0  0  0  0  0  0  0  0  0  0  0  0  # atno 8009 bound_to 7997
  156.0551  140.1313  156.9995 H   0  0  0  0  0  0  0  0  0  0  0  0  # atno 8010 bound_to 7997
  140.2098  143.3755  152.1060 H   0  0  0  0  0  0  0  0  0  0  0  0  # atno 10167 bound_to 10162
  156.2768  130.7298  151.1282 H   0  0  0  0  0  0  0  0  0  0  0  0  # atno 10718 bound_to 10713
  153.3009  135.6956  153.7204 H   0  0  0  0  0  0  0  0  0  0  0  0  # atno 10763 bound_to 10752
  153.6118  135.3443  155.2982 H   0  0  0  0  0  0  0  0  0  0  0  0  # atno 10764 bound_to 10752
  154.8550  135.4365  154.2120 H   0  0  0  0  0  0  0  0  0  0  0  0  # atno 10765 bound_to 10752
  141.1342  133.6635  156.5450 H   0  0  0  0  0  0  0  0  0  0  0  0  # atno 11005 bound_to 11000
  144.6731  140.0873  143.7466 LP  0  0  0  0  0  0  0  0  0  0  0  0  # atno 17320 bound_to 7965
  145.9419  139.2674  143.1264 LP  0  0  0  0  0  0  0  0  0  0  0  0  # atno 17321 bound_to 7965
  139.5184  144.7006  151.5505 LP  0  0  0  0  0  0  0  0  0  0  0  0  # atno 17342 bound_to 10162
  140.6332  143.9036  150.6623 LP  0  0  0  0  0  0  0  0  0  0  0  0  # atno 17343 bound_to 10162
  157.7302  131.0618  150.5738 LP  0  0  0  0  0  0  0  0  0  0  0  0  # atno 17370 bound_to 10713
  156.5840  130.4312  149.5965 LP  0  0  0  0  0  0  0  0  0  0  0  0  # atno 17371 bound_to 10713
  140.4109  134.7273  157.4835 LP  0  0  0  0  0  0  0  0  0  0  0  0  # atno 17394 bound_to 11000
  140.0428  134.6243  155.8959 LP  0  0  0  0  0  0  0  0  0  0  0  0  # atno 17395 bound_to 11000

$$$$
