AV-unprocessed.smi:54|AV-procd|sdf|549|dock2
  -GOLD-   2262016443D 1   1.00000     0.00000
 Structure written by MMmdl.
 43 45  0  0  0  0  0  0  0  0  2 V2000
  151.2673  143.5560  159.9867 C   0  0  0  0  0  0  0  0  0  0  0  0
  152.0976  143.2168  158.7374 C   0  0  0  0  0  0  0  0  0  0  0  0
  152.3329  144.4629  157.8681 C   0  0  0  0  0  0  0  0  0  0  0  0
  151.4243  142.1041  157.9214 C   0  0  0  0  0  0  0  0  0  0  0  0
  151.0397  142.3489  156.7758 O   0  0  0  0  0  0  0  0  0  0  0  0
  151.3223  140.9105  158.5467 N   0  0  0  0  0  0  0  0  0  0  0  0
  150.7714  139.7145  158.0736 C   0  0  0  0  0  0  0  0  0  0  0  0
  150.3999  139.7777  156.8180 N   0  0  0  0  0  0  0  0  0  0  0  0
  149.8871  138.5817  156.3521 C   0  0  0  0  0  0  0  0  0  0  0  0
  149.7375  137.4118  157.0456 C   0  0  0  0  0  0  0  0  0  0  0  0
  149.1505  136.4276  156.2613 N   0  0  0  0  0  0  0  0  0  0  0  0
  148.9702  137.0650  155.1064 C   0  0  0  0  0  0  0  0  0  0  0  0
  149.4132  138.3395  155.0649 N   0  0  0  0  0  0  0  0  0  0  0  0
  149.3064  139.3125  153.9254 C   0  0  2  0  0  0  0  0  0  0  0  0
  149.6635  140.5849  154.3874 O   0  0  0  0  0  0  0  0  0  0  0  0
  148.5056  141.3790  154.6276 C   0  0  2  0  0  0  0  0  0  0  0  0
  148.0259  141.1910  156.0847 C   0  0  0  0  0  0  0  0  0  0  0  0
  148.5362  142.2116  156.9178 O   0  0  0  0  0  0  0  0  0  0  0  0
  147.5488  140.8987  153.5283 C   0  0  2  0  0  0  0  0  0  0  0  0
  146.1883  141.1206  153.8432 O   0  0  0  0  0  0  0  0  0  0  0  0
  147.8584  139.4109  153.4019 C   0  0  1  0  0  0  0  0  0  0  0  0
  147.7672  139.0180  152.0469 O   0  0  0  0  0  0  0  0  0  0  0  0
  150.1848  137.4063  158.4582 C   0  0  0  0  0  0  0  0  0  0  0  0
  150.0705  136.3753  159.1183 O   0  0  0  0  0  0  0  0  0  0  0  0
  150.7013  138.5861  158.9146 N   0  5  0  0  0  0  0  0  0  0  0  0
  150.0292  138.9453  153.1957 H   0  0  0  0  0  0  0  0  0  0  0  0
  148.7749  142.4249  154.4748 H   0  0  0  0  0  0  0  0  0  0  0  0
  147.7950  141.4208  152.6022 H   0  0  0  0  0  0  0  0  0  0  0  0
  147.1862  138.8176  154.0237 H   0  0  0  0  0  0  0  0  0  0  0  0
  151.0862  142.6689  160.5950 H   0  0  0  0  0  0  0  0  0  0  0  0
  150.2989  143.9820  159.7221 H   0  0  0  0  0  0  0  0  0  0  0  0
  151.7861  144.2814  160.6139 H   0  0  0  0  0  0  0  0  0  0  0  0
  153.0712  142.8560  159.0735 H   0  0  0  0  0  0  0  0  0  0  0  0
  152.9121  144.2206  156.9759 H   0  0  0  0  0  0  0  0  0  0  0  0
  152.8859  145.2234  158.4200 H   0  0  0  0  0  0  0  0  0  0  0  0
  151.3924  144.9097  157.5435 H   0  0  0  0  0  0  0  0  0  0  0  0
  151.7661  140.8666  159.4521 H   0  0  0  0  0  0  0  0  0  0  0  0
  148.4961  136.5838  154.2640 H   0  0  0  0  0  0  0  0  0  0  0  0
  146.9380  141.1634  156.1532 H   0  0  0  0  0  0  0  0  0  0  0  0
  148.3977  140.2450  156.4776 H   0  0  0  0  0  0  0  0  0  0  0  0
  148.4689  143.0346  156.4582 H   0  0  0  0  0  0  0  0  0  0  0  0
  145.6580  140.7540  153.1521 H   0  0  0  0  0  0  0  0  0  0  0  0
  148.0092  138.1071  151.9827 H   0  0  0  0  0  0  0  0  0  0  0  0
  1  2  1  0  0  0  0
  1 30  1  0  0  0  0
  1 31  1  0  0  0  0
  1 32  1  0  0  0  0
  2  3  1  0  0  0  0
  2  4  1  0  0  0  0
  2 33  1  0  0  0  0
  3 34  1  0  0  0  0
  3 35  1  0  0  0  0
  3 36  1  0  0  0  0
  4  5  2  0  0  0  0
  4  6  1  0  0  0  0
  6 37  1  0  0  0  0
  6  7  1  0  0  0  0
  7 25  1  0  0  0  0
  7  8  2  0  0  0  0
  8  9  1  0  0  0  0
  9 13  1  0  0  0  0
  9 10  2  0  0  0  0
 10 11  1  0  0  0  0
 10 23  1  0  0  0  0
 11 12  2  0  0  0  0
 12 13  1  0  0  0  0
 12 38  1  0  0  0  0
 13 14  1  0  0  0  0
 14 26  1  0  0  0  0
 14 21  1  0  0  0  0
 14 15  1  0  0  0  0
 15 16  1  0  0  0  0
 16 27  1  0  0  0  0
 16 17  1  0  0  0  0
 16 19  1  0  0  0  0
 17 18  1  0  0  0  0
 17 39  1  0  0  0  0
 17 40  1  0  0  0  0
 18 41  1  0  0  0  0
 19 28  1  0  0  0  0
 19 20  1  0  0  0  0
 19 21  1  0  0  0  0
 20 42  1  0  0  0  0
 21 29  1  0  0  0  0
 21 22  1  0  0  0  0
 22 43  1  0  0  0  0
 23 24  2  0  0  0  0
 23 25  1  0  0  0  0
M  CHG  1  25  -1
M  END
> <s_m_source_file>
AV-unprocessed.smi

> <i_m_source_file_index>
54

> <i_lp_mmshare_version>
43012

> <i_f3d_flags>
0

> <s_epik_input>
W0NIM11bQ0hdKFtDSDNdKUMoPU8pW05IXWMobjEpW25IXWMoPU8pYyhjMTIpbltjSF1uMltDQEBIXTNPW0NASF0oW0NIMl1bT0hdKVtDQEBIXShbT0hdKVtDQEhdM1tPSF0=

> <s_epik_cmdline>
J2VwaWtfcHl0aG9uJywgJy1waCcsICc3LjAnLCAnLXRuJywgJzgnLCAnLW1hJywgJzIwMCcsICctbWV0YWxfYmluZGluZycsICctaW1hZScsICc8aW5maWxlLm1hZT4nLCAnLW9tYWUnLCAnPG91dGZpbGUubWFlPic=

> <r_lp_tautomer_probability>
0.85571

> <r_epik_Ionization_Penalty>
1.75936

> <r_epik_Ionization_Penalty_Charging>
4.55893e-11

> <r_epik_Ionization_Penalty_Neutral>
1.75936

> <r_epik_State_Penalty>
1.72072

> <r_epik_Charging_Adjusted_Penalty>
1.72072

> <i_epik_Tot_Q>
-1

> <i_epik_Tot_abs_Q>
1

> <r_epik_Metal_State_Penalty>
0.400338

> <b_epik_Metal_Only>
1

> <s_epik_Chemistry_Notes>
This compound contains an acetal/aminal-like group ( X-CH(R)-Y where X, Y are N, S, or O) that may be acid/base labile, releasing an aldehyde.

> <s_lp_Force_Field>
OPLS_2005

> <r_lp_Energy>
58.7514

> <b_lp_Chiralities_Consistent>
1

> <s_lp_Variant>
AV-unprocessed.smi:54-21

> <Gold.Version>
5.8.1

> <Gold.Id.Protein>
6NUR|6NUR_protein|mol2

> <Gold.PLP.Fitness>
48.7886

> <Gold.PLP.PLP>
-34.0582

> <Gold.PLP.part.hbond>
-5.3925

> <Gold.PLP.part.metal>
0.0000

> <Gold.PLP.part.buried>
-3.1980

> <Gold.PLP.part.nonpolar>
-25.1813

> <Gold.PLP.part.repulsive>
0.3832

> <Gold.PLP.ligand.clash>
0.0000

> <Gold.PLP.ligand.torsion>
0.6203

> <Gold.PLP.Chemscore.Hbond>
4.2951

> <Gold.PLP.Chemscore.CHOScore>
0.9975

> <Gold.PLP.Chemscore.Metal>
0.0000

> <Gold.Chemscore.Hbonds>
donor molecule, donor type, donor heavy atom, donor atom, acceptor molecule, acceptor atom, score
      L1  H    18    41       P1  8028  1.00
      L1  H    20    42       P1 10175  0.73
      L1  H    22    43       P1  7948  0.89
      P1  H  6896  6909       L1    24  1.00
      P1  H  7989  7998       L1    15  0.49
      L1  C    12    38       P1  7948  1.00

> <Gold.PLP.Chemscore.Internal.Correction>
0.0933

> <Gold.Rescore>
     Score         DG    S(hbond)    S(metal)    S(lipo)     H(rot)  DE(clash)    DE(int)     intcor
      9.68     -15.21       3.77        0.00      63.43       4.02       0.57       4.96       ----

> <Gold.Chemscore.Fitness>
9.6834

> <Gold.Chemscore.DG>
-15.2099

> <Gold.Chemscore.ZeroCoef>
-5.4800

> <Gold.Chemscore.Hbond>
3.7719

> <Gold.Chemscore.Metal>
0.0000

> <Gold.Chemscore.Lipo>
63.4258

> <Gold.Chemscore.Internal_Hbond>
0.0000

> <Gold.Chemscore.DEClash>
0.5669

> <Gold.Chemscore.DEInternal>
4.9596

> <Gold.Chemscore.Rot>
4.0192

> <Gold.Chemscore.Internal.Correction>
   9.000000E+99

> <Gold.Chemscore.Hbonds>
donor molecule, donor type, donor heavy atom, donor atom, acceptor molecule, acceptor atom, score
      L1  H    18    41       P1  8028  0.78
      L1  H    20    42       P1 10175  0.50
      L1  H    22    43       P1  7948  0.87
      P1  H  6896  6909       L1    24  1.00
      P1  H  7989  7998       L1    15  0.20

> <Gold.Chemscore.Hbond.Weighted>
-12.5983

> <Gold.Chemscore.Metal.Weighted>
-0.0000

> <Gold.Chemscore.Lipo.Weighted>
-7.4208

> <Gold.Chemscore.Internal_Hbond.Weighted>
0.0000

> <Gold.Chemscore.DEClash.Weighted>
0.5669

> <Gold.Chemscore.DEInternal.Weighted>
4.9596

> <Gold.Chemscore.Rot.Weighted>
10.2893

> <Gold.Chemscore.Internal.Correction.Weighted>
   9.000000E+99

> <Gold.Protein.RotatedTorsions>
[ 6907 6896 6895 6894 ] final   78.50 input  -60.11 | X-H torsion
[ 7974 7965 7964 7962 ] final -158.11 input  175.53 | X-H torsion
[ 8008 7997 7996 7995 ] final   67.31 input   59.86 | X-H torsion
[ 10167 10162 10161 10158 ] final   18.65 input  -65.29 | X-H torsion
[ 10718 10713 10712 10709 ] final  166.74 input   66.30 | X-H torsion
[ 10763 10752 10751 10750 ] final   91.46 input  -60.55 | X-H torsion
[ 11005 11000 10999 10996 ] final  156.18 input  -57.11 | X-H torsion

> <Gold.Protein.ActiveResidues>
 VAL166  LYS551  ARG553  GLY616  TRP617  ASP618  TYR619  PRO620  LYS621  CYS622 
 ASP623  PHE694  ASN695  SER759  ASP760  ASP761  ALA762  ILE779  LEU786  VAL792 
 PHE793  MET794  SER795  GLU796  ALA797  LYS798  CYS799  TRP800  GLU811  SER814 

> <Gold.Protein.RotatedAtoms>
  152.5162  134.3654  159.9299 H   0  0  0  0  0  0  0  0  0  0  0  0  # atno 6907 bound_to 6896
  151.3607  133.3884  159.2697 H   0  0  0  0  0  0  0  0  0  0  0  0  # atno 6908 bound_to 6896
  150.9654  134.9055  159.7814 H   0  0  0  0  0  0  0  0  0  0  0  0  # atno 6909 bound_to 6896
  144.7519  140.3874  143.6041 H   0  0  0  0  0  0  0  0  0  0  0  0  # atno 7974 bound_to 7965
  155.6910  140.3496  155.4893 H   0  0  0  0  0  0  0  0  0  0  0  0  # atno 8008 bound_to 7997
  155.9524  140.1122  157.0987 H   0  0  0  0  0  0  0  0  0  0  0  0  # atno 8009 bound_to 7997
  154.4125  140.1191  156.5057 H   0  0  0  0  0  0  0  0  0  0  0  0  # atno 8010 bound_to 7997
  140.5637  143.9289  150.6661 H   0  0  0  0  0  0  0  0  0  0  0  0  # atno 10167 bound_to 10162
  157.0616  131.0341  151.2645 H   0  0  0  0  0  0  0  0  0  0  0  0  # atno 10718 bound_to 10713
  153.2085  135.4397  155.0351 H   0  0  0  0  0  0  0  0  0  0  0  0  # atno 10763 bound_to 10752
  154.8187  135.3327  154.7105 H   0  0  0  0  0  0  0  0  0  0  0  0  # atno 10764 bound_to 10752
  153.7544  135.6996  153.4994 H   0  0  0  0  0  0  0  0  0  0  0  0  # atno 10765 bound_to 10752
  140.1651  134.8582  157.2622 H   0  0  0  0  0  0  0  0  0  0  0  0  # atno 11005 bound_to 11000
  145.6913  139.1640  143.2645 LP  0  0  0  0  0  0  0  0  0  0  0  0  # atno 17320 bound_to 7965
  146.1481  140.6964  142.9335 LP  0  0  0  0  0  0  0  0  0  0  0  0  # atno 17321 bound_to 7965
  140.2747  143.3431  152.1206 LP  0  0  0  0  0  0  0  0  0  0  0  0  # atno 17342 bound_to 10162
  139.5082  144.6846  151.5919 LP  0  0  0  0  0  0  0  0  0  0  0  0  # atno 17343 bound_to 10162
  157.4950  130.7845  149.7546 LP  0  0  0  0  0  0  0  0  0  0  0  0  # atno 17370 bound_to 10713
  155.9977  130.3898  150.2731 LP  0  0  0  0  0  0  0  0  0  0  0  0  # atno 17371 bound_to 10713
  140.2444  134.3757  155.7467 LP  0  0  0  0  0  0  0  0  0  0  0  0  # atno 17394 bound_to 11000
  141.2213  133.7282  156.8838 LP  0  0  0  0  0  0  0  0  0  0  0  0  # atno 17395 bound_to 11000

$$$$
