AV-unprocessed.smi:502|AV-procd|sdf|2744|dock5
  -GOLD-   2262023203D 1   1.00000     0.00000
 Structure written by MMmdl.
 48 50  0  0  0  0  0  0  0  0  1 V2000
  149.4965  135.5044  157.1764 C   0  0  0  0  0  0  0  0  0  0  0  0
  150.7379  136.2112  156.6449 C   0  0  0  0  0  0  0  0  0  0  0  0
  151.3941  135.7074  155.7340 O   0  0  0  0  0  0  0  0  0  0  0  0
  151.0549  137.3745  157.2316 N   0  0  0  0  0  0  0  0  0  0  0  0
  152.2056  138.2015  156.8819 C   0  0  0  0  0  0  0  0  0  0  0  0
  152.1823  138.6648  155.4126 C   0  0  0  0  0  0  0  0  0  0  0  0
  150.8605  139.2308  154.9769 C   0  0  0  0  0  0  0  0  0  0  0  0
  150.0596  138.5594  154.1479 N   0  0  0  0  0  0  0  0  0  0  0  0
  148.9870  139.4153  153.9972 C   0  0  0  0  0  0  0  0  0  0  0  0
  147.8048  139.2811  153.2344 C   0  0  0  0  0  0  0  0  0  0  0  0
  146.8381  140.3079  153.2291 C   0  0  0  0  0  0  0  0  0  0  0  0
  147.0384  141.4804  153.9859 C   0  0  0  0  0  0  0  0  0  0  0  0
  148.2082  141.6328  154.7546 C   0  0  0  0  0  0  0  0  0  0  0  0
  149.1703  140.6047  154.7566 C   0  0  0  0  0  0  0  0  0  0  0  0
  150.4037  140.4442  155.3817 N   0  0  0  0  0  0  0  0  0  0  0  0
  151.0444  141.4125  156.2608 C   0  0  0  0  0  0  0  0  0  0  0  0
  150.1940  141.7101  157.5036 C   0  0  0  0  0  0  0  0  0  0  0  0
  150.9592  142.4931  158.4097 O   0  0  0  0  0  0  0  0  0  0  0  0
  151.8810  141.8600  159.2154 C   0  0  0  0  0  0  0  0  0  0  0  0
  152.2596  140.5022  159.0610 C   0  0  0  0  0  0  0  0  0  0  0  0
  153.2066  139.9216  159.9261 C   0  0  0  0  0  0  0  0  0  0  0  0
  153.7855  140.6868  160.9542 C   0  0  0  0  0  0  0  0  0  0  0  0
  153.4174  142.0348  161.1163 C   0  0  0  0  0  0  0  0  0  0  0  0
  152.4695  142.6216  160.2518 C   0  0  0  0  0  0  0  0  0  0  0  0
  152.0876  144.0790  160.4337 C   0  0  0  0  0  0  0  0  0  0  0  0
  148.6085  136.1130  157.0032 H   0  0  0  0  0  0  0  0  0  0  0  0
  149.5907  135.3248  158.2477 H   0  0  0  0  0  0  0  0  0  0  0  0
  149.3549  134.5435  156.6803 H   0  0  0  0  0  0  0  0  0  0  0  0
  150.4608  137.7101  157.9762 H   0  0  0  0  0  0  0  0  0  0  0  0
  152.2705  139.0634  157.5477 H   0  0  0  0  0  0  0  0  0  0  0  0
  153.1034  137.6101  157.0628 H   0  0  0  0  0  0  0  0  0  0  0  0
  152.9808  139.3844  155.2386 H   0  0  0  0  0  0  0  0  0  0  0  0
  152.4143  137.8163  154.7679 H   0  0  0  0  0  0  0  0  0  0  0  0
  147.6430  138.3876  152.6498 H   0  0  0  0  0  0  0  0  0  0  0  0
  145.9392  140.1962  152.6407 H   0  0  0  0  0  0  0  0  0  0  0  0
  146.2944  142.2634  153.9750 H   0  0  0  0  0  0  0  0  0  0  0  0
  148.3671  142.5327  155.3300 H   0  0  0  0  0  0  0  0  0  0  0  0
  152.0140  141.0157  156.5632 H   0  0  0  0  0  0  0  0  0  0  0  0
  151.2541  142.3278  155.7105 H   0  0  0  0  0  0  0  0  0  0  0  0
  149.2902  142.2447  157.2086 H   0  0  0  0  0  0  0  0  0  0  0  0
  149.8941  140.7739  157.9769 H   0  0  0  0  0  0  0  0  0  0  0  0
  151.8346  139.8822  158.2867 H   0  0  0  0  0  0  0  0  0  0  0  0
  153.4880  138.8865  159.8005 H   0  0  0  0  0  0  0  0  0  0  0  0
  154.5114  140.2401  161.6177 H   0  0  0  0  0  0  0  0  0  0  0  0
  153.8672  142.6171  161.9073 H   0  0  0  0  0  0  0  0  0  0  0  0
  152.6398  144.5381  161.2543 H   0  0  0  0  0  0  0  0  0  0  0  0
  151.0225  144.1675  160.6494 H   0  0  0  0  0  0  0  0  0  0  0  0
  152.3013  144.6432  159.5252 H   0  0  0  0  0  0  0  0  0  0  0  0
  1  2  1  0  0  0  0
  1 26  1  0  0  0  0
  1 27  1  0  0  0  0
  1 28  1  0  0  0  0
  2  3  2  0  0  0  0
  2  4  1  0  0  0  0
  4  5  1  0  0  0  0
  4 29  1  0  0  0  0
  5  6  1  0  0  0  0
  5 30  1  0  0  0  0
  5 31  1  0  0  0  0
  6  7  1  0  0  0  0
  6 32  1  0  0  0  0
  6 33  1  0  0  0  0
  7 15  1  0  0  0  0
  7  8  2  0  0  0  0
  8  9  1  0  0  0  0
  9 14  2  0  0  0  0
  9 10  1  0  0  0  0
 10 11  2  0  0  0  0
 10 34  1  0  0  0  0
 11 12  1  0  0  0  0
 11 35  1  0  0  0  0
 12 13  2  0  0  0  0
 12 36  1  0  0  0  0
 13 14  1  0  0  0  0
 13 37  1  0  0  0  0
 14 15  1  0  0  0  0
 15 16  1  0  0  0  0
 16 17  1  0  0  0  0
 16 38  1  0  0  0  0
 16 39  1  0  0  0  0
 17 18  1  0  0  0  0
 17 40  1  0  0  0  0
 17 41  1  0  0  0  0
 18 19  1  0  0  0  0
 19 24  1  0  0  0  0
 19 20  2  0  0  0  0
 20 21  1  0  0  0  0
 20 42  1  0  0  0  0
 21 22  2  0  0  0  0
 21 43  1  0  0  0  0
 22 23  1  0  0  0  0
 22 44  1  0  0  0  0
 23 24  2  0  0  0  0
 23 45  1  0  0  0  0
 24 25  1  0  0  0  0
 25 46  1  0  0  0  0
 25 47  1  0  0  0  0
 25 48  1  0  0  0  0
M  END
> <s_m_source_file>
AV-unprocessed.smi

> <i_m_source_file_index>
502

> <i_lp_mmshare_version>
43012

> <i_f3d_flags>
0

> <s_epik_input>
W0NIM11DKD1PKVtOSF1bQ0gyXVtDSDJdYyhuMSluKGMoYzEyKVtjSF1bY0hdW2NIXVtjSF0yKVtDSDJdW0NIMl1PYzNbY0hdW2NIXVtjSF1bY0hdYzNbQ0gzXQ==

> <s_epik_cmdline>
J2VwaWtfcHl0aG9uJywgJy1waCcsICc3LjAnLCAnLXRuJywgJzgnLCAnLW1hJywgJzIwMCcsICctbWV0YWxfYmluZGluZycsICctaW1hZScsICc8aW5maWxlLm1hZT4nLCAnLW9tYWUnLCAnPG91dGZpbGUubWFlPic=

> <r_lp_tautomer_probability>
1

> <r_epik_Ionization_Penalty>
0.0991824

> <r_epik_Ionization_Penalty_Charging>
0

> <r_epik_Ionization_Penalty_Neutral>
0.0991824

> <r_epik_State_Penalty>
0.0892428

> <r_epik_Charging_Adjusted_Penalty>
0.0892428

> <i_epik_Tot_Q>
0

> <i_epik_Tot_abs_Q>
0

> <r_epik_Metal_State_Penalty>
0.076345

> <b_epik_Metal_Only>
0

> <s_lp_Force_Field>
OPLS_2005

> <r_lp_Energy>
12.9543

> <b_lp_Chiralities_Consistent>
1

> <s_lp_Variant>
AV-unprocessed.smi:502-1

> <Gold.Version>
5.8.1

> <Gold.Id.Protein>
6NUR|6NUR_protein|mol2

> <Gold.PLP.Fitness>
52.1383

> <Gold.PLP.PLP>
-49.7239

> <Gold.PLP.part.hbond>
-1.0000

> <Gold.PLP.part.metal>
0.0000

> <Gold.PLP.part.buried>
-0.6913

> <Gold.PLP.part.nonpolar>
-48.1809

> <Gold.PLP.part.repulsive>
0.3901

> <Gold.PLP.ligand.clash>
0.0000

> <Gold.PLP.ligand.torsion>
0.3796

> <Gold.PLP.Chemscore.Hbond>
1.0000

> <Gold.PLP.Chemscore.CHOScore>
0.0000

> <Gold.PLP.Chemscore.Metal>
0.0000

> <Gold.Chemscore.Hbonds>
donor molecule, donor type, donor heavy atom, donor atom, acceptor molecule, acceptor atom, score
      P1  H 10752 10764       L1     3  1.00

> <Gold.PLP.Chemscore.Internal.Correction>
0.1736

> <Gold.Rescore>
     Score         DG    S(hbond)    S(metal)    S(lipo)     H(rot)  DE(clash)    DE(int)     intcor
     19.07     -19.80       0.99        0.00     140.17       2.11       0.08       0.65       ----

> <Gold.Chemscore.Fitness>
19.0687

> <Gold.Chemscore.DG>
-19.8025

> <Gold.Chemscore.ZeroCoef>
-5.4800

> <Gold.Chemscore.Hbond>
0.9937

> <Gold.Chemscore.Metal>
0.0000

> <Gold.Chemscore.Lipo>
140.1667

> <Gold.Chemscore.Internal_Hbond>
0.0000

> <Gold.Chemscore.DEClash>
0.0789

> <Gold.Chemscore.DEInternal>
0.6548

> <Gold.Chemscore.Rot>
2.1078

> <Gold.Chemscore.Internal.Correction>
   9.000000E+99

> <Gold.Chemscore.Hbonds>
donor molecule, donor type, donor heavy atom, donor atom, acceptor molecule, acceptor atom, score
      P1  H 10752 10764       L1     3  1.00

> <Gold.Chemscore.Hbond.Weighted>
-3.3190

> <Gold.Chemscore.Metal.Weighted>
-0.0000

> <Gold.Chemscore.Lipo.Weighted>
-16.3995

> <Gold.Chemscore.Internal_Hbond.Weighted>
0.0000

> <Gold.Chemscore.DEClash.Weighted>
0.0789

> <Gold.Chemscore.DEInternal.Weighted>
0.6548

> <Gold.Chemscore.Rot.Weighted>
5.3961

> <Gold.Chemscore.Internal.Correction.Weighted>
   9.000000E+99

> <Gold.Protein.RotatedTorsions>
[ 6907 6896 6895 6894 ] final  140.24 input  -60.11 | X-H torsion
[ 7974 7965 7964 7962 ] final  -49.42 input  175.53 | X-H torsion
[ 8008 7997 7996 7995 ] final   76.39 input   59.86 | X-H torsion
[ 10167 10162 10161 10158 ] final  131.56 input  -65.29 | X-H torsion
[ 10718 10713 10712 10709 ] final  124.63 input   66.30 | X-H torsion
[ 10763 10752 10751 10750 ] final  -46.31 input  -60.55 | X-H torsion
[ 11005 11000 10999 10996 ] final -134.46 input  -57.11 | X-H torsion

> <Gold.Protein.ActiveResidues>
 VAL166  LYS551  ARG553  GLY616  TRP617  ASP618  TYR619  PRO620  LYS621  CYS622 
 ASP623  PHE694  ASN695  SER759  ASP760  ASP761  ALA762  ILE779  LEU786  VAL792 
 PHE793  MET794  SER795  GLU796  ALA797  LYS798  CYS799  TRP800  GLU811  SER814 

> <Gold.Protein.RotatedAtoms>
  152.2454  133.5170  159.5294 H   0  0  0  0  0  0  0  0  0  0  0  0  # atno 6907 bound_to 6896
  150.7077  134.1032  159.3982 H   0  0  0  0  0  0  0  0  0  0  0  0  # atno 6908 bound_to 6896
  151.8952  135.0400  160.0552 H   0  0  0  0  0  0  0  0  0  0  0  0  # atno 6909 bound_to 6896
  145.9407  140.7664  142.9553 H   0  0  0  0  0  0  0  0  0  0  0  0  # atno 7974 bound_to 7965
  155.8267  140.3468  155.5547 H   0  0  0  0  0  0  0  0  0  0  0  0  # atno 8008 bound_to 7997
  155.8286  140.0923  157.1826 H   0  0  0  0  0  0  0  0  0  0  0  0  # atno 8009 bound_to 7997
  154.4004  140.1416  156.3573 H   0  0  0  0  0  0  0  0  0  0  0  0  # atno 8010 bound_to 7997
  139.5378  144.6700  151.4726 H   0  0  0  0  0  0  0  0  0  0  0  0  # atno 10167 bound_to 10162
  157.5570  131.1091  150.8605 H   0  0  0  0  0  0  0  0  0  0  0  0  # atno 10718 bound_to 10713
  154.0428  135.6641  153.4792 H   0  0  0  0  0  0  0  0  0  0  0  0  # atno 10763 bound_to 10752
  153.0494  135.5094  154.7825 H   0  0  0  0  0  0  0  0  0  0  0  0  # atno 10764 bound_to 10752
  154.6807  135.3044  154.9583 H   0  0  0  0  0  0  0  0  0  0  0  0  # atno 10765 bound_to 10752
  140.8988  134.1717  157.4475 H   0  0  0  0  0  0  0  0  0  0  0  0  # atno 11005 bound_to 11000
  144.6779  140.2276  143.7359 LP  0  0  0  0  0  0  0  0  0  0  0  0  # atno 17320 bound_to 7965
  145.8303  139.2083  143.1886 LP  0  0  0  0  0  0  0  0  0  0  0  0  # atno 17321 bound_to 7965
  140.6594  143.8531  150.6870 LP  0  0  0  0  0  0  0  0  0  0  0  0  # atno 17342 bound_to 10162
  140.1921  143.4028  152.1855 LP  0  0  0  0  0  0  0  0  0  0  0  0  # atno 17343 bound_to 10162
  156.9114  130.5282  149.5280 LP  0  0  0  0  0  0  0  0  0  0  0  0  # atno 17370 bound_to 10713
  156.0627  130.5677  150.9226 LP  0  0  0  0  0  0  0  0  0  0  0  0  # atno 17371 bound_to 10713
  139.8739  134.9889  156.5434 LP  0  0  0  0  0  0  0  0  0  0  0  0  # atno 17394 bound_to 11000
  140.8256  133.8319  155.8936 LP  0  0  0  0  0  0  0  0  0  0  0  0  # atno 17395 bound_to 11000

$$$$
