AV-unprocessed.smi:2244|AV-procd|sdf|9073|dock4
  -GOLD-   2272012273D 1   1.00000     0.00000
 Structure written by MMmdl.
 49 51  0  0  0  0  0  0  0  0  1 V2000
  150.6535  143.5343  158.3501 C   0  0  0  0  0  0  0  0  0  0  0  0
  151.8218  144.2121  159.1009 C   0  0  0  0  0  0  0  0  0  0  0  0
  152.8100  144.7425  158.0413 C   0  0  0  0  0  0  0  0  0  0  0  0
  151.2330  145.3899  159.9052 C   0  0  0  0  0  0  0  0  0  0  0  0
  152.5495  143.2447  160.0515 C   0  0  0  0  0  0  0  0  0  0  0  0
  152.5341  143.3824  161.4576 C   0  0  0  0  0  0  0  0  0  0  0  0
  153.2360  142.4305  162.2162 C   0  0  0  0  0  0  0  0  0  0  0  0
  153.9151  141.3957  161.5415 C   0  0  0  0  0  0  0  0  0  0  0  0
  154.5985  140.4759  162.3901 N   0  0  0  0  0  0  0  0  0  0  0  0
  154.8914  139.1664  162.2385 C   0  0  0  0  0  0  0  0  0  0  0  0
  154.5563  138.5562  161.2246 O   0  0  0  0  0  0  0  0  0  0  0  0
  155.5600  138.5846  163.2478 N   0  0  0  0  0  0  0  0  0  0  0  0
  155.9790  137.1881  163.2985 C   0  0  1  0  0  0  0  0  0  0  0  0
  157.0608  136.9799  164.3711 C   0  0  0  0  0  0  0  0  0  0  0  0
  157.3756  135.4852  164.5397 C   0  0  0  0  0  0  0  0  0  0  0  0
  156.1854  134.7679  164.8488 O   0  0  0  0  0  0  0  0  0  0  0  0
  155.2066  134.8334  163.8159 C   0  0  1  0  0  0  0  0  0  0  0  0
  154.0427  133.9471  164.2131 C   0  0  0  0  0  0  0  0  0  0  0  0
  154.1865  132.9319  165.3225 C   0  0  0  0  0  0  0  0  0  0  0  0
  154.0517  132.4709  163.8915 C   0  0  0  0  0  0  0  0  0  0  0  0
  154.7698  136.2965  163.6163 C   0  0  0  0  0  0  0  0  0  0  0  0
  153.8853  141.3274  160.1860 N   0  0  0  0  0  0  0  0  0  0  0  0
  153.2193  142.2274  159.4576 N   0  0  0  0  0  0  0  0  0  0  0  0
  150.1500  144.2377  157.6860 H   0  0  0  0  0  0  0  0  0  0  0  0
  149.8996  143.1521  159.0394 H   0  0  0  0  0  0  0  0  0  0  0  0
  150.9982  142.7045  157.7319 H   0  0  0  0  0  0  0  0  0  0  0  0
  153.2427  143.9269  157.4607 H   0  0  0  0  0  0  0  0  0  0  0  0
  153.6335  145.2944  158.4955 H   0  0  0  0  0  0  0  0  0  0  0  0
  152.3181  145.4189  157.3416 H   0  0  0  0  0  0  0  0  0  0  0  0
  150.6931  146.0826  159.2587 H   0  0  0  0  0  0  0  0  0  0  0  0
  152.0096  145.9642  160.4116 H   0  0  0  0  0  0  0  0  0  0  0  0
  150.5355  145.0388  160.6664 H   0  0  0  0  0  0  0  0  0  0  0  0
  152.0095  144.1790  161.9617 H   0  0  0  0  0  0  0  0  0  0  0  0
  153.2497  142.4974  163.2945 H   0  0  0  0  0  0  0  0  0  0  0  0
  154.9157  140.8735  163.2621 H   0  0  0  0  0  0  0  0  0  0  0  0
  155.7980  139.1588  164.0445 H   0  0  0  0  0  0  0  0  0  0  0  0
  156.3768  136.8927  162.3257 H   0  0  0  0  0  0  0  0  0  0  0  0
  157.9686  137.5240  164.1090 H   0  0  0  0  0  0  0  0  0  0  0  0
  156.7193  137.3835  165.3254 H   0  0  0  0  0  0  0  0  0  0  0  0
  157.8334  135.0798  163.6363 H   0  0  0  0  0  0  0  0  0  0  0  0
  158.0918  135.3433  165.3491 H   0  0  0  0  0  0  0  0  0  0  0  0
  155.6363  134.4477  162.8894 H   0  0  0  0  0  0  0  0  0  0  0  0
  153.0748  134.4399  164.1448 H   0  0  0  0  0  0  0  0  0  0  0  0
  155.1621  132.8296  165.7933 H   0  0  0  0  0  0  0  0  0  0  0  0
  153.3332  132.7860  165.9816 H   0  0  0  0  0  0  0  0  0  0  0  0
  153.1088  132.0161  163.5955 H   0  0  0  0  0  0  0  0  0  0  0  0
  154.9378  132.0621  163.4102 H   0  0  0  0  0  0  0  0  0  0  0  0
  154.2750  136.6534  164.5212 H   0  0  0  0  0  0  0  0  0  0  0  0
  154.0347  136.3615  162.8128 H   0  0  0  0  0  0  0  0  0  0  0  0
  1  2  1  0  0  0  0
  1 24  1  0  0  0  0
  1 25  1  0  0  0  0
  1 26  1  0  0  0  0
  2  3  1  0  0  0  0
  2  4  1  0  0  0  0
  2  5  1  0  0  0  0
  3 27  1  0  0  0  0
  3 28  1  0  0  0  0
  3 29  1  0  0  0  0
  4 30  1  0  0  0  0
  4 31  1  0  0  0  0
  4 32  1  0  0  0  0
  5 23  1  0  0  0  0
  5  6  2  0  0  0  0
  6  7  1  0  0  0  0
  6 33  1  0  0  0  0
  7  8  2  0  0  0  0
  7 34  1  0  0  0  0
  8  9  1  0  0  0  0
  8 22  1  0  0  0  0
  9 10  1  0  0  0  0
  9 35  1  0  0  0  0
 10 11  2  0  0  0  0
 10 12  1  0  0  0  0
 12 13  1  0  0  0  0
 12 36  1  0  0  0  0
 13 21  1  0  0  0  0
 13 14  1  0  0  0  0
 13 37  1  0  0  0  0
 14 15  1  0  0  0  0
 14 38  1  0  0  0  0
 14 39  1  0  0  0  0
 15 16  1  0  0  0  0
 15 40  1  0  0  0  0
 15 41  1  0  0  0  0
 16 17  1  0  0  0  0
 17 18  1  0  0  0  0
 17 21  1  0  0  0  0
 17 42  1  0  0  0  0
 18 20  1  0  0  0  0
 18 19  1  0  0  0  0
 18 43  1  0  0  0  0
 19 20  1  0  0  0  0
 19 44  1  0  0  0  0
 19 45  1  0  0  0  0
 20 46  1  0  0  0  0
 20 47  1  0  0  0  0
 21 48  1  0  0  0  0
 21 49  1  0  0  0  0
 22 23  2  0  0  0  0
M  END
> <s_m_source_file>
AV-unprocessed.smi

> <i_m_source_file_index>
2244

> <i_lp_mmshare_version>
43012

> <i_f3d_flags>
0

> <s_epik_input>
W0NIM11DKFtDSDNdKShbQ0gzXSljMVtjSF1bY0hdYyhubjEpW05IXUMoPU8pW05IXVtDQEBIXTJbQ0gyXVtDSDJdT1tDQEhdKFtDSDJdMilbQ0hdM1tDSDJdW0NIMl0z

> <s_epik_cmdline>
J2VwaWtfcHl0aG9uJywgJy1waCcsICc3LjAnLCAnLXRuJywgJzgnLCAnLW1hJywgJzIwMCcsICctbWV0YWxfYmluZGluZycsICctaW1hZScsICc8aW5maWxlLm1hZT4nLCAnLW9tYWUnLCAnPG91dGZpbGUubWFlPic=

> <r_lp_tautomer_probability>
1

> <r_epik_Ionization_Penalty>
0.011369

> <r_epik_Ionization_Penalty_Charging>
0

> <r_epik_Ionization_Penalty_Neutral>
0.011369

> <r_epik_State_Penalty>
0.00456331

> <r_epik_Charging_Adjusted_Penalty>
0.00456331

> <i_epik_Tot_Q>
0

> <i_epik_Tot_abs_Q>
0

> <r_epik_Metal_State_Penalty>
-0

> <b_epik_Metal_Only>
0

> <s_lp_Force_Field>
OPLS_2005

> <r_lp_Energy>
27.405

> <b_lp_Chiralities_Consistent>
1

> <s_lp_Variant>
AV-unprocessed.smi:2244-2

> <Gold.Version>
5.8.1

> <Gold.Id.Protein>
6NUR|6NUR_protein|mol2

> <Gold.PLP.Fitness>
46.6504

> <Gold.PLP.PLP>
-48.5033

> <Gold.PLP.part.hbond>
0.0000

> <Gold.PLP.part.metal>
0.0000

> <Gold.PLP.part.buried>
-7.4315

> <Gold.PLP.part.nonpolar>
-40.6524

> <Gold.PLP.part.repulsive>
0.0849

> <Gold.PLP.ligand.clash>
0.0000

> <Gold.PLP.ligand.torsion>
1.4644

> <Gold.PLP.Chemscore.Hbond>
0.0000

> <Gold.PLP.Chemscore.CHOScore>
0.0000

> <Gold.PLP.Chemscore.Metal>
0.0000

> <Gold.PLP.Chemscore.Internal.Correction>
1.0759

> <Gold.Rescore>
     Score         DG    S(hbond)    S(metal)    S(lipo)     H(rot)  DE(clash)    DE(int)     intcor
     15.90     -17.95       0.00        0.00     134.99       1.30       0.12       1.93       ----

> <Gold.Chemscore.Fitness>
15.8971

> <Gold.Chemscore.DG>
-17.9452

> <Gold.Chemscore.ZeroCoef>
-5.4800

> <Gold.Chemscore.Hbond>
0.0000

> <Gold.Chemscore.Metal>
0.0000

> <Gold.Chemscore.Lipo>
134.9880

> <Gold.Chemscore.Internal_Hbond>
0.0000

> <Gold.Chemscore.DEClash>
0.1206

> <Gold.Chemscore.DEInternal>
1.9275

> <Gold.Chemscore.Rot>
1.3002

> <Gold.Chemscore.Internal.Correction>
   9.000000E+99

> <Gold.Chemscore.Hbond.Weighted>
-0.0000

> <Gold.Chemscore.Metal.Weighted>
-0.0000

> <Gold.Chemscore.Lipo.Weighted>
-15.7936

> <Gold.Chemscore.Internal_Hbond.Weighted>
0.0000

> <Gold.Chemscore.DEClash.Weighted>
0.1206

> <Gold.Chemscore.DEInternal.Weighted>
1.9275

> <Gold.Chemscore.Rot.Weighted>
3.3284

> <Gold.Chemscore.Internal.Correction.Weighted>
   9.000000E+99

> <Gold.Protein.RotatedTorsions>
[ 6907 6896 6895 6894 ] final   58.79 input  -60.11 | X-H torsion
[ 7974 7965 7964 7962 ] final -117.54 input  175.53 | X-H torsion
[ 8008 7997 7996 7995 ] final -101.95 input   59.86 | X-H torsion
[ 10167 10162 10161 10158 ] final  144.65 input  -65.29 | X-H torsion
[ 10718 10713 10712 10709 ] final  106.92 input   66.30 | X-H torsion
[ 10763 10752 10751 10750 ] final  100.41 input  -60.55 | X-H torsion
[ 11005 11000 10999 10996 ] final  -60.63 input  -57.11 | X-H torsion

> <Gold.Protein.ActiveResidues>
 VAL166  LYS551  ARG553  GLY616  TRP617  ASP618  TYR619  PRO620  LYS621  CYS622 
 ASP623  PHE694  ASN695  SER759  ASP760  ASP761  ALA762  ILE779  LEU786  VAL792 
 PHE793  MET794  SER795  GLU796  ALA797  LYS798  CYS799  TRP800  GLU811  SER814 

> <Gold.Protein.RotatedAtoms>
  152.3856  134.6523  160.0126 H   0  0  0  0  0  0  0  0  0  0  0  0  # atno 6907 bound_to 6896
  151.6772  133.3307  159.3219 H   0  0  0  0  0  0  0  0  0  0  0  0  # atno 6908 bound_to 6896
  150.7783  134.6748  159.6456 H   0  0  0  0  0  0  0  0  0  0  0  0  # atno 6909 bound_to 6896
  145.0840  140.8445  143.4022 H   0  0  0  0  0  0  0  0  0  0  0  0  # atno 7974 bound_to 7965
  154.8498  140.0431  157.1597 H   0  0  0  0  0  0  0  0  0  0  0  0  # atno 8008 bound_to 7997
  154.8955  140.2992  155.5326 H   0  0  0  0  0  0  0  0  0  0  0  0  # atno 8009 bound_to 7997
  156.2995  140.2385  156.3976 H   0  0  0  0  0  0  0  0  0  0  0  0  # atno 8010 bound_to 7997
  139.4942  144.5957  151.6587 H   0  0  0  0  0  0  0  0  0  0  0  0  # atno 10167 bound_to 10162
  157.6649  131.0861  150.6080 H   0  0  0  0  0  0  0  0  0  0  0  0  # atno 10718 bound_to 10713
  153.3136  135.4080  155.1357 H   0  0  0  0  0  0  0  0  0  0  0  0  # atno 10763 bound_to 10752
  154.8582  135.3570  154.5691 H   0  0  0  0  0  0  0  0  0  0  0  0  # atno 10764 bound_to 10752
  153.6121  135.7067  153.5401 H   0  0  0  0  0  0  0  0  0  0  0  0  # atno 10765 bound_to 10752
  141.1294  133.6623  156.5252 H   0  0  0  0  0  0  0  0  0  0  0  0  # atno 11005 bound_to 11000
  145.1144  139.2735  143.5621 LP  0  0  0  0  0  0  0  0  0  0  0  0  # atno 17320 bound_to 7965
  146.3531  140.0749  142.8621 LP  0  0  0  0  0  0  0  0  0  0  0  0  # atno 17321 bound_to 7965
  140.5595  144.0293  150.6163 LP  0  0  0  0  0  0  0  0  0  0  0  0  # atno 17342 bound_to 10162
  140.3374  143.3040  152.0624 LP  0  0  0  0  0  0  0  0  0  0  0  0  # atno 17343 bound_to 10162
  156.6381  130.4450  149.5762 LP  0  0  0  0  0  0  0  0  0  0  0  0  # atno 17370 bound_to 10713
  156.2230  130.6749  151.1388 LP  0  0  0  0  0  0  0  0  0  0  0  0  # atno 17371 bound_to 10713
  140.4260  134.7144  157.4916 LP  0  0  0  0  0  0  0  0  0  0  0  0  # atno 17394 bound_to 11000
  140.0327  134.6383  155.9085 LP  0  0  0  0  0  0  0  0  0  0  0  0  # atno 17395 bound_to 11000

$$$$
