AV-unprocessed.smi:1302|AV-procd|sdf|5427|dock6
  -GOLD-   22720 4583D 1   1.00000     0.00000
 Structure written by MMmdl.
 43 44  0  0  0  0  0  0  0  0  1 V2000
  146.9209  140.8704  153.3310 C   0  0  0  0  0  0  0  0  0  0  0  0
  147.6074  139.5690  153.7667 C   0  0  0  0  0  0  0  0  0  0  0  0
  146.5847  138.4981  154.1780 C   0  0  0  0  0  0  0  0  0  0  0  0
  148.5238  139.8496  154.8682 N   0  0  0  0  0  0  0  0  0  0  0  0
  149.8645  139.7995  154.7986 C   0  0  0  0  0  0  0  0  0  0  0  0
  150.4821  139.4774  153.7834 O   0  0  0  0  0  0  0  0  0  0  0  0
  150.5918  140.0987  156.0777 C   0  0  0  0  0  0  0  0  0  0  0  0
  149.9255  140.7169  157.1566 C   0  0  0  0  0  0  0  0  0  0  0  0
  150.6319  140.9636  158.3494 C   0  0  0  0  0  0  0  0  0  0  0  0
  151.9903  140.5795  158.4399 C   0  0  0  0  0  0  0  0  0  0  0  0
  152.7173  140.8219  159.6251 N   0  0  0  0  0  0  0  0  0  0  0  0
  153.0775  142.2160  159.8679 C   0  0  0  0  0  0  0  0  0  0  0  0
  153.5668  142.4175  161.3157 C   0  0  1  0  0  0  0  0  0  0  0  0
  152.4289  142.4139  162.3523 C   0  0  0  0  0  0  0  0  0  0  0  0
  154.5878  141.4680  161.6304 O   0  0  0  0  0  0  0  0  0  0  0  0
  154.2133  140.1036  161.4448 C   0  0  2  0  0  0  0  0  0  0  0  0
  155.4126  139.2270  161.8199 C   0  0  0  0  0  0  0  0  0  0  0  0
  153.7761  139.8835  159.9860 C   0  0  0  0  0  0  0  0  0  0  0  0
  152.6244  139.9686  157.4088 N   0  0  0  0  0  0  0  0  0  0  0  0
  151.9434  139.7344  156.2674 C   0  0  0  0  0  0  0  0  0  0  0  0
  146.2500  140.6960  152.4893 H   0  0  0  0  0  0  0  0  0  0  0  0
  147.6533  141.6155  153.0183 H   0  0  0  0  0  0  0  0  0  0  0  0
  146.3318  141.3005  154.1419 H   0  0  0  0  0  0  0  0  0  0  0  0
  148.1793  139.1951  152.9154 H   0  0  0  0  0  0  0  0  0  0  0  0
  145.8970  138.2796  153.3606 H   0  0  0  0  0  0  0  0  0  0  0  0
  145.9916  138.8226  155.0337 H   0  0  0  0  0  0  0  0  0  0  0  0
  147.0767  137.5634  154.4492 H   0  0  0  0  0  0  0  0  0  0  0  0
  148.1057  140.0989  155.7528 H   0  0  0  0  0  0  0  0  0  0  0  0
  148.8865  141.0028  157.0787 H   0  0  0  0  0  0  0  0  0  0  0  0
  150.1229  141.4282  159.1806 H   0  0  0  0  0  0  0  0  0  0  0  0
  153.8737  142.4859  159.1729 H   0  0  0  0  0  0  0  0  0  0  0  0
  152.2487  142.8941  159.6689 H   0  0  0  0  0  0  0  0  0  0  0  0
  154.0390  143.3988  161.3714 H   0  0  0  0  0  0  0  0  0  0  0  0
  151.7354  143.2344  162.1664 H   0  0  0  0  0  0  0  0  0  0  0  0
  152.8216  142.5373  163.3616 H   0  0  0  0  0  0  0  0  0  0  0  0
  151.8494  141.4914  162.3278 H   0  0  0  0  0  0  0  0  0  0  0  0
  153.3906  139.8533  162.1149 H   0  0  0  0  0  0  0  0  0  0  0  0
  155.1764  138.1688  161.7057 H   0  0  0  0  0  0  0  0  0  0  0  0
  155.7062  139.3915  162.8568 H   0  0  0  0  0  0  0  0  0  0  0  0
  156.2754  139.4475  161.1904 H   0  0  0  0  0  0  0  0  0  0  0  0
  153.4281  138.8567  159.8650 H   0  0  0  0  0  0  0  0  0  0  0  0
  154.6233  140.0230  159.3128 H   0  0  0  0  0  0  0  0  0  0  0  0
  152.5034  139.2380  155.4883 H   0  0  0  0  0  0  0  0  0  0  0  0
  1  2  1  0  0  0  0
  1 21  1  0  0  0  0
  1 22  1  0  0  0  0
  1 23  1  0  0  0  0
  2  3  1  0  0  0  0
  2  4  1  0  0  0  0
  2 24  1  0  0  0  0
  3 25  1  0  0  0  0
  3 26  1  0  0  0  0
  3 27  1  0  0  0  0
  4  5  1  0  0  0  0
  4 28  1  0  0  0  0
  5  6  2  0  0  0  0
  5  7  1  0  0  0  0
  7 20  1  0  0  0  0
  7  8  2  0  0  0  0
  8  9  1  0  0  0  0
  8 29  1  0  0  0  0
  9 10  2  0  0  0  0
  9 30  1  0  0  0  0
 10 11  1  0  0  0  0
 10 19  1  0  0  0  0
 11 18  1  0  0  0  0
 11 12  1  0  0  0  0
 12 13  1  0  0  0  0
 12 31  1  0  0  0  0
 12 32  1  0  0  0  0
 13 14  1  0  0  0  0
 13 15  1  0  0  0  0
 13 33  1  0  0  0  0
 14 34  1  0  0  0  0
 14 35  1  0  0  0  0
 14 36  1  0  0  0  0
 15 16  1  0  0  0  0
 16 17  1  0  0  0  0
 16 18  1  0  0  0  0
 16 37  1  0  0  0  0
 17 38  1  0  0  0  0
 17 39  1  0  0  0  0
 17 40  1  0  0  0  0
 18 41  1  0  0  0  0
 18 42  1  0  0  0  0
 19 20  2  0  0  0  0
 20 43  1  0  0  0  0
M  END
> <s_m_source_file>
AV-unprocessed.smi

> <i_m_source_file_index>
1302

> <i_lp_mmshare_version>
43012

> <i_f3d_flags>
0

> <s_epik_input>
W0NIM11bQ0hdKFtDSDNdKVtOSF1DKD1PKWMxW2NIXVtjSF1jKG5bY0hdMSlOMltDSDJdW0NAQEhdKFtDSDNdKU9bQ0BASF0oW0NIM10pW0NIMl0y

> <s_epik_cmdline>
J2VwaWtfcHl0aG9uJywgJy1waCcsICc3LjAnLCAnLXRuJywgJzgnLCAnLW1hJywgJzIwMCcsICctbWV0YWxfYmluZGluZycsICctaW1hZScsICc8aW5maWxlLm1hZT4nLCAnLW9tYWUnLCAnPG91dGZpbGUubWFlPic=

> <r_lp_tautomer_probability>
1

> <r_epik_Ionization_Penalty>
2.23089e-05

> <r_epik_Ionization_Penalty_Charging>
0

> <r_epik_Ionization_Penalty_Neutral>
2.23089e-05

> <r_epik_State_Penalty>
-0

> <r_epik_Charging_Adjusted_Penalty>
0

> <i_epik_Tot_Q>
0

> <i_epik_Tot_abs_Q>
0

> <r_epik_Metal_State_Penalty>
-0

> <b_epik_Metal_Only>
0

> <s_lp_Force_Field>
OPLS_2005

> <r_lp_Energy>
20.4022

> <b_lp_Chiralities_Consistent>
1

> <s_lp_Variant>
AV-unprocessed.smi:1302-3

> <Gold.Version>
5.8.1

> <Gold.Id.Protein>
6NUR|6NUR_protein|mol2

> <Gold.PLP.Fitness>
37.5474

> <Gold.PLP.PLP>
-32.5780

> <Gold.PLP.part.hbond>
-3.0000

> <Gold.PLP.part.metal>
0.0000

> <Gold.PLP.part.buried>
-3.5083

> <Gold.PLP.part.nonpolar>
-26.9327

> <Gold.PLP.part.repulsive>
2.0003

> <Gold.PLP.ligand.clash>
0.0000

> <Gold.PLP.ligand.torsion>
0.6828

> <Gold.PLP.Chemscore.Hbond>
2.0000

> <Gold.PLP.Chemscore.CHOScore>
0.0000

> <Gold.PLP.Chemscore.Metal>
0.0000

> <Gold.Chemscore.Hbonds>
donor molecule, donor type, donor heavy atom, donor atom, acceptor molecule, acceptor atom, score
      P1  H  7989  7998       L1     6  1.00
      P1  H  7997  8010       L1    19  1.00

> <Gold.PLP.Chemscore.Internal.Correction>
0.3350

> <Gold.Rescore>
     Score         DG    S(hbond)    S(metal)    S(lipo)     H(rot)  DE(clash)    DE(int)     intcor
     14.70     -17.20       1.38        0.00      86.08       1.15       1.71       0.79       ----

> <Gold.Chemscore.Fitness>
14.6998

> <Gold.Chemscore.DG>
-17.1978

> <Gold.Chemscore.ZeroCoef>
-5.4800

> <Gold.Chemscore.Hbond>
1.3751

> <Gold.Chemscore.Metal>
0.0000

> <Gold.Chemscore.Lipo>
86.0783

> <Gold.Chemscore.Internal_Hbond>
0.0000

> <Gold.Chemscore.DEClash>
1.7085

> <Gold.Chemscore.DEInternal>
0.7896

> <Gold.Chemscore.Rot>
1.1508

> <Gold.Chemscore.Internal.Correction>
   9.000000E+99

> <Gold.Chemscore.Hbonds>
donor molecule, donor type, donor heavy atom, donor atom, acceptor molecule, acceptor atom, score
      P1  H  7989  7998       L1     6  0.47
      P1  H  7997  8010       L1    19  0.30

> <Gold.Chemscore.Hbond.Weighted>
-4.5928

> <Gold.Chemscore.Metal.Weighted>
-0.0000

> <Gold.Chemscore.Lipo.Weighted>
-10.0712

> <Gold.Chemscore.Internal_Hbond.Weighted>
0.0000

> <Gold.Chemscore.DEClash.Weighted>
1.7085

> <Gold.Chemscore.DEInternal.Weighted>
0.7896

> <Gold.Chemscore.Rot.Weighted>
2.9461

> <Gold.Chemscore.Internal.Correction.Weighted>
   9.000000E+99

> <Gold.Protein.RotatedTorsions>
[ 6907 6896 6895 6894 ] final -110.78 input  -60.11 | X-H torsion
[ 7974 7965 7964 7962 ] final   33.22 input  175.53 | X-H torsion
[ 8008 7997 7996 7995 ] final   52.88 input   59.86 | X-H torsion
[ 10167 10162 10161 10158 ] final   77.86 input  -65.29 | X-H torsion
[ 10718 10713 10712 10709 ] final  -69.96 input   66.30 | X-H torsion
[ 10763 10752 10751 10750 ] final  -83.59 input  -60.55 | X-H torsion
[ 11005 11000 10999 10996 ] final  -17.86 input  -57.11 | X-H torsion

> <Gold.Protein.ActiveResidues>
 VAL166  LYS551  ARG553  GLY616  TRP617  ASP618  TYR619  PRO620  LYS621  CYS622 
 ASP623  PHE694  ASN695  SER759  ASP760  ASP761  ALA762  ILE779  LEU786  VAL792 
 PHE793  MET794  SER795  GLU796  ALA797  LYS798  CYS799  TRP800  GLU811  SER814 

> <Gold.Protein.RotatedAtoms>
  150.7647  133.9332  159.3433 H   0  0  0  0  0  0  0  0  0  0  0  0  # atno 6907 bound_to 6896
  151.7232  135.0888  160.0297 H   0  0  0  0  0  0  0  0  0  0  0  0  # atno 6908 bound_to 6896
  152.3636  133.6291  159.6069 H   0  0  0  0  0  0  0  0  0  0  0  0  # atno 6909 bound_to 6896
  146.1435  139.6425  142.9147 H   0  0  0  0  0  0  0  0  0  0  0  0  # atno 7974 bound_to 7965
  155.4592  140.3461  155.4310 H   0  0  0  0  0  0  0  0  0  0  0  0  # atno 8008 bound_to 7997
  156.1172  140.1477  156.9286 H   0  0  0  0  0  0  0  0  0  0  0  0  # atno 8009 bound_to 7997
  154.4797  140.0873  156.7327 H   0  0  0  0  0  0  0  0  0  0  0  0  # atno 8010 bound_to 7997
  139.9771  144.5853  150.7934 H   0  0  0  0  0  0  0  0  0  0  0  0  # atno 10167 bound_to 10162
  156.0430  130.4322  150.2225 H   0  0  0  0  0  0  0  0  0  0  0  0  # atno 10718 bound_to 10713
  154.5896  135.5550  153.7265 H   0  0  0  0  0  0  0  0  0  0  0  0  # atno 10763 bound_to 10752
  153.0111  135.6340  154.1868 H   0  0  0  0  0  0  0  0  0  0  0  0  # atno 10764 bound_to 10752
  154.1809  135.2887  155.3032 H   0  0  0  0  0  0  0  0  0  0  0  0  # atno 10765 bound_to 10752
  140.8211  133.8068  155.9660 H   0  0  0  0  0  0  0  0  0  0  0  0  # atno 11005 bound_to 11000
  145.4991  141.0438  143.2550 LP  0  0  0  0  0  0  0  0  0  0  0  0  # atno 17320 bound_to 7965
  144.7819  139.6507  143.7150 LP  0  0  0  0  0  0  0  0  0  0  0  0  # atno 17321 bound_to 7965
  140.7502  143.2951  151.3225 LP  0  0  0  0  0  0  0  0  0  0  0  0  # atno 17342 bound_to 10162
  139.6438  144.0490  152.2575 LP  0  0  0  0  0  0  0  0  0  0  0  0  # atno 17343 bound_to 10162
  157.0317  131.0009  151.3310 LP  0  0  0  0  0  0  0  0  0  0  0  0  # atno 17370 bound_to 10713
  157.5272  130.8035  149.7876 LP  0  0  0  0  0  0  0  0  0  0  0  0  # atno 17371 bound_to 10713
  140.9098  134.2274  157.4992 LP  0  0  0  0  0  0  0  0  0  0  0  0  # atno 17394 bound_to 11000
  139.8708  134.9745  156.4848 LP  0  0  0  0  0  0  0  0  0  0  0  0  # atno 17395 bound_to 11000

$$$$
