AV-unprocessed.smi:730|AV-procd|sdf|3522|dock10
  -GOLD-   22720 0513D 1   1.00000     0.00000
 Structure written by MMmdl.
 40 41  0  0  0  0  0  0  0  0  1 V2000
  146.5675  132.8162  150.1533 C   0  0  0  0  0  0  0  0  0  0  0  0
  145.2097  132.7371  150.8792 C   0  0  0  0  0  0  0  0  0  0  0  0
  144.1239  132.3956  149.8417 C   0  0  0  0  0  0  0  0  0  0  0  0
  145.2840  131.6098  151.9261 C   0  0  0  0  0  0  0  0  0  0  0  0
  144.8847  134.0426  151.5499 C   0  0  0  0  0  0  0  0  0  0  0  0
  145.5119  135.2582  151.6003 C   0  0  0  0  0  0  0  0  0  0  0  0
  144.6448  136.0391  152.4092 C   0  0  0  0  0  0  0  0  0  0  0  0
  144.9476  137.3926  152.7053 N   0  0  0  0  0  0  0  0  0  0  0  0
  146.0008  137.8636  153.3942 C   0  0  0  0  0  0  0  0  0  0  0  0
  146.8916  137.1727  153.8896 O   0  0  0  0  0  0  0  0  0  0  0  0
  145.9667  139.2010  153.4827 N   0  0  0  0  0  0  0  0  0  0  0  0
  146.9679  140.0234  154.1586 C   0  0  2  0  0  0  0  0  0  0  0  0
  146.4046  140.5901  155.4757 C   0  0  0  0  0  0  0  0  0  0  0  0
  145.9841  142.0233  155.1563 C   0  0  0  0  0  0  0  0  0  0  0  0
  147.0314  142.4907  154.1512 C   0  0  0  0  0  0  0  0  0  0  0  0
  147.3285  141.2527  153.2933 C   0  0  1  0  0  0  0  0  0  0  0  0
  148.6891  141.2398  152.9129 O   0  0  0  0  0  0  0  0  0  0  0  0
  143.5818  135.3662  152.8193 N   0  0  0  0  0  0  0  0  0  0  0  0
  143.7294  134.0872  152.2717 O   0  0  0  0  0  0  0  0  0  0  0  0
  146.8114  131.8741  149.6610 H   0  0  0  0  0  0  0  0  0  0  0  0
  147.3779  133.0404  150.8481 H   0  0  0  0  0  0  0  0  0  0  0  0
  146.5651  133.5927  149.3875 H   0  0  0  0  0  0  0  0  0  0  0  0
  144.0481  133.1712  149.0789 H   0  0  0  0  0  0  0  0  0  0  0  0
  143.1424  132.2979  150.3074 H   0  0  0  0  0  0  0  0  0  0  0  0
  144.3387  131.4546  149.3341 H   0  0  0  0  0  0  0  0  0  0  0  0
  145.5284  130.6524  151.4647 H   0  0  0  0  0  0  0  0  0  0  0  0
  144.3348  131.4860  152.4488 H   0  0  0  0  0  0  0  0  0  0  0  0
  146.0469  131.8169  152.6774 H   0  0  0  0  0  0  0  0  0  0  0  0
  146.4421  135.5427  151.1314 H   0  0  0  0  0  0  0  0  0  0  0  0
  144.2918  138.0750  152.3551 H   0  0  0  0  0  0  0  0  0  0  0  0
  145.1971  139.6885  153.0479 H   0  0  0  0  0  0  0  0  0  0  0  0
  147.8522  139.4174  154.3672 H   0  0  0  0  0  0  0  0  0  0  0  0
  145.5871  140.0012  155.8938 H   0  0  0  0  0  0  0  0  0  0  0  0
  147.1986  140.6105  156.2234 H   0  0  0  0  0  0  0  0  0  0  0  0
  144.9968  142.0249  154.6926 H   0  0  0  0  0  0  0  0  0  0  0  0
  145.9399  142.6557  156.0435 H   0  0  0  0  0  0  0  0  0  0  0  0
  146.6952  143.3414  153.5577 H   0  0  0  0  0  0  0  0  0  0  0  0
  147.9251  142.8022  154.6951 H   0  0  0  0  0  0  0  0  0  0  0  0
  146.7163  141.2853  152.3902 H   0  0  0  0  0  0  0  0  0  0  0  0
  148.8106  140.5716  152.2556 H   0  0  0  0  0  0  0  0  0  0  0  0
  1  2  1  0  0  0  0
  1 20  1  0  0  0  0
  1 21  1  0  0  0  0
  1 22  1  0  0  0  0
  2  3  1  0  0  0  0
  2  4  1  0  0  0  0
  2  5  1  0  0  0  0
  3 23  1  0  0  0  0
  3 24  1  0  0  0  0
  3 25  1  0  0  0  0
  4 26  1  0  0  0  0
  4 27  1  0  0  0  0
  4 28  1  0  0  0  0
  5 19  1  0  0  0  0
  5  6  2  0  0  0  0
  6  7  1  0  0  0  0
  6 29  1  0  0  0  0
  7  8  1  0  0  0  0
  7 18  2  0  0  0  0
  8  9  1  0  0  0  0
  8 30  1  0  0  0  0
  9 10  2  0  0  0  0
  9 11  1  0  0  0  0
 11 12  1  0  0  0  0
 11 31  1  0  0  0  0
 12 16  1  0  0  0  0
 12 13  1  0  0  0  0
 12 32  1  0  0  0  0
 13 14  1  0  0  0  0
 13 33  1  0  0  0  0
 13 34  1  0  0  0  0
 14 15  1  0  0  0  0
 14 35  1  0  0  0  0
 14 36  1  0  0  0  0
 15 16  1  0  0  0  0
 15 37  1  0  0  0  0
 15 38  1  0  0  0  0
 16 17  1  0  0  0  0
 16 39  1  0  0  0  0
 17 40  1  0  0  0  0
 18 19  1  0  0  0  0
M  END
> <s_m_source_file>
AV-unprocessed.smi

> <i_m_source_file_index>
730

> <i_lp_mmshare_version>
43012

> <i_f3d_flags>
0

> <s_epik_input>
W0NIM11DKFtDSDNdKShbQ0gzXSljMVtjSF1jKG5vMSlbTkhdQyg9TylbTkhdW0NAQEhdMltDSDJdW0NIMl1bQ0gyXVtDQEhdMltPSF0=

> <s_epik_cmdline>
J2VwaWtfcHl0aG9uJywgJy1waCcsICc3LjAnLCAnLXRuJywgJzgnLCAnLW1hJywgJzIwMCcsICctbWV0YWxfYmluZGluZycsICctaW1hZScsICc8aW5maWxlLm1hZT4nLCAnLW9tYWUnLCAnPG91dGZpbGUubWFlPic=

> <r_lp_tautomer_probability>
1

> <r_epik_Ionization_Penalty>
2.23071e-05

> <r_epik_Ionization_Penalty_Charging>
0

> <r_epik_Ionization_Penalty_Neutral>
2.23071e-05

> <r_epik_State_Penalty>
-0

> <r_epik_Charging_Adjusted_Penalty>
0

> <i_epik_Tot_Q>
0

> <i_epik_Tot_abs_Q>
0

> <r_epik_Metal_State_Penalty>
-0

> <b_epik_Metal_Only>
0

> <s_lp_Force_Field>
OPLS_2005

> <r_lp_Energy>
16.5614

> <b_lp_Chiralities_Consistent>
1

> <s_lp_Variant>
AV-unprocessed.smi:730-1

> <Gold.Version>
5.8.1

> <Gold.Id.Protein>
6NUR|6NUR_protein|mol2

> <Gold.PLP.Fitness>
42.1590

> <Gold.PLP.PLP>
-33.7928

> <Gold.PLP.part.hbond>
-4.3024

> <Gold.PLP.part.metal>
0.0000

> <Gold.PLP.part.buried>
-5.6618

> <Gold.PLP.part.nonpolar>
-24.9113

> <Gold.PLP.part.repulsive>
0.4967

> <Gold.PLP.ligand.clash>
0.0000

> <Gold.PLP.ligand.torsion>
0.7889

> <Gold.PLP.Chemscore.Hbond>
3.3126

> <Gold.PLP.Chemscore.CHOScore>
0.0000

> <Gold.PLP.Chemscore.Metal>
0.0000

> <Gold.Chemscore.Hbonds>
donor molecule, donor type, donor heavy atom, donor atom, acceptor molecule, acceptor atom, score
      L1  H    11    31       P1 10175  1.00
      L1  H    17    40       P1  7957  0.75
      P1  H  8011  8017       L1    17  0.95

> <Gold.PLP.Chemscore.Internal.Correction>
0.0061

> <Gold.Rescore>
     Score         DG    S(hbond)    S(metal)    S(lipo)     H(rot)  DE(clash)    DE(int)     intcor
     17.18     -18.04       2.55        0.00      72.04       1.71       0.06       0.80       ----

> <Gold.Chemscore.Fitness>
17.1753

> <Gold.Chemscore.DG>
-18.0376

> <Gold.Chemscore.ZeroCoef>
-5.4800

> <Gold.Chemscore.Hbond>
2.5488

> <Gold.Chemscore.Metal>
0.0000

> <Gold.Chemscore.Lipo>
72.0415

> <Gold.Chemscore.Internal_Hbond>
0.0000

> <Gold.Chemscore.DEClash>
0.0609

> <Gold.Chemscore.DEInternal>
0.8014

> <Gold.Chemscore.Rot>
1.7125

> <Gold.Chemscore.Internal.Correction>
   9.000000E+99

> <Gold.Chemscore.Hbonds>
donor molecule, donor type, donor heavy atom, donor atom, acceptor molecule, acceptor atom, score
      L1  H     8    30       P1 10175  0.04
      L1  H    11    31       P1 10175  1.00
      L1  H    17    40       P1  7957  0.72
      P1  H  8011  8017       L1    17  0.21

> <Gold.Chemscore.Hbond.Weighted>
-8.5129

> <Gold.Chemscore.Metal.Weighted>
-0.0000

> <Gold.Chemscore.Lipo.Weighted>
-8.4289

> <Gold.Chemscore.Internal_Hbond.Weighted>
0.0000

> <Gold.Chemscore.DEClash.Weighted>
0.0609

> <Gold.Chemscore.DEInternal.Weighted>
0.8014

> <Gold.Chemscore.Rot.Weighted>
4.3841

> <Gold.Chemscore.Internal.Correction.Weighted>
   9.000000E+99

> <Gold.Protein.RotatedTorsions>
[ 6907 6896 6895 6894 ] final  -51.39 input  -60.11 | X-H torsion
[ 7974 7965 7964 7962 ] final  151.46 input  175.53 | X-H torsion
[ 8008 7997 7996 7995 ] final   18.86 input   59.86 | X-H torsion
[ 10167 10162 10161 10158 ] final   45.78 input  -65.29 | X-H torsion
[ 10718 10713 10712 10709 ] final  106.85 input   66.30 | X-H torsion
[ 10763 10752 10751 10750 ] final  103.61 input  -60.55 | X-H torsion
[ 11005 11000 10999 10996 ] final  119.32 input  -57.11 | X-H torsion

> <Gold.Protein.ActiveResidues>
 VAL166  LYS551  ARG553  GLY616  TRP617  ASP618  TYR619  PRO620  LYS621  CYS622 
 ASP623  PHE694  ASN695  SER759  ASP760  ASP761  ALA762  ILE779  LEU786  VAL792 
 PHE793  MET794  SER795  GLU796  ALA797  LYS798  CYS799  TRP800  GLU811  SER814 

> <Gold.Protein.RotatedAtoms>
  150.8616  134.7969  159.7086 H   0  0  0  0  0  0  0  0  0  0  0  0  # atno 6907 bound_to 6896
  152.4651  134.5091  159.9758 H   0  0  0  0  0  0  0  0  0  0  0  0  # atno 6908 bound_to 6896
  151.5194  133.3431  159.2934 H   0  0  0  0  0  0  0  0  0  0  0  0  # atno 6909 bound_to 6896
  144.8290  139.6541  143.6067 H   0  0  0  0  0  0  0  0  0  0  0  0  # atno 7974 bound_to 7965
  154.9123  140.3016  155.5260 H   0  0  0  0  0  0  0  0  0  0  0  0  # atno 8008 bound_to 7997
  156.3014  140.2387  156.4099 H   0  0  0  0  0  0  0  0  0  0  0  0  # atno 8009 bound_to 7997
  154.8413  140.0413  157.1532 H   0  0  0  0  0  0  0  0  0  0  0  0  # atno 8010 bound_to 7997
  140.3207  144.2709  150.6183 H   0  0  0  0  0  0  0  0  0  0  0  0  # atno 10167 bound_to 10162
  157.6652  131.0860  150.6068 H   0  0  0  0  0  0  0  0  0  0  0  0  # atno 10718 bound_to 10713
  153.3549  135.3971  155.1674 H   0  0  0  0  0  0  0  0  0  0  0  0  # atno 10763 bound_to 10752
  154.8669  135.3665  154.5174 H   0  0  0  0  0  0  0  0  0  0  0  0  # atno 10764 bound_to 10752
  153.5628  135.7080  153.5599 H   0  0  0  0  0  0  0  0  0  0  0  0  # atno 10765 bound_to 10752
  139.9142  134.9627  156.7637 H   0  0  0  0  0  0  0  0  0  0  0  0  # atno 11005 bound_to 11000
  146.2594  139.6377  142.9372 LP  0  0  0  0  0  0  0  0  0  0  0  0  # atno 17320 bound_to 7965
  145.4936  141.0438  143.2579 LP  0  0  0  0  0  0  0  0  0  0  0  0  # atno 17321 bound_to 7965
  140.5486  143.2210  151.7965 LP  0  0  0  0  0  0  0  0  0  0  0  0  # atno 17342 bound_to 10162
  139.4875  144.4506  151.9658 LP  0  0  0  0  0  0  0  0  0  0  0  0  # atno 17343 bound_to 10162
  156.6369  130.4447  149.5766 LP  0  0  0  0  0  0  0  0  0  0  0  0  # atno 17370 bound_to 10713
  156.2239  130.6753  151.1396 LP  0  0  0  0  0  0  0  0  0  0  0  0  # atno 17371 bound_to 10713
  140.6676  133.9588  155.7839 LP  0  0  0  0  0  0  0  0  0  0  0  0  # atno 17394 bound_to 11000
  141.0600  134.0361  157.3672 LP  0  0  0  0  0  0  0  0  0  0  0  0  # atno 17395 bound_to 11000

$$$$
