AV-unprocessed.smi:2784|AV-procd|sdf|10734|dock8
  -GOLD-   2272015173D 1   1.00000     0.00000
 Structure written by MMmdl.
 31 32  0  0  0  0  0  0  0  0  1 V2000
  151.0229  138.0611  154.4339 C   0  0  0  0  0  0  0  0  0  0  0  0
  150.9057  139.4753  154.4385 O   0  0  0  0  0  0  0  0  0  0  0  0
  149.6378  139.9393  154.8817 C   0  0  2  0  0  0  0  0  0  0  0  0
  148.5371  139.3249  154.0127 C   0  0  0  0  0  0  0  0  0  0  0  0
  147.4025  140.3414  154.0644 C   0  0  0  0  0  0  0  0  0  0  0  0
  148.1180  141.6916  154.0341 C   0  0  0  0  0  0  0  0  0  0  0  0
  149.4709  141.4699  154.7398 C   0  0  1  0  0  0  0  0  0  0  0  0
  149.4899  142.1114  156.0523 N   0  0  0  0  0  0  0  0  0  0  0  0
  150.3936  141.8865  157.0172 C   0  0  0  0  0  0  0  0  0  0  0  0
  151.3250  141.0906  156.8609 O   0  0  0  0  0  0  0  0  0  0  0  0
  150.0851  142.6323  158.1448 N   0  0  0  0  0  0  0  0  0  0  0  0
  151.0272  142.9495  158.9793 C   0  0  0  0  0  0  0  0  0  0  0  0
  152.3911  142.6723  159.0183 N   0  0  0  0  0  0  0  0  0  0  0  0
  152.9116  143.2514  160.1415 C   0  0  0  0  0  0  0  0  0  0  0  0
  151.9229  143.8658  160.7840 C   0  0  0  0  0  0  0  0  0  0  0  0
  150.7580  143.6982  160.0971 O   0  0  0  0  0  0  0  0  0  0  0  0
  152.0075  137.7789  154.0615 H   0  0  0  0  0  0  0  0  0  0  0  0
  150.2757  137.6056  153.7831 H   0  0  0  0  0  0  0  0  0  0  0  0
  150.9138  137.6443  155.4354 H   0  0  0  0  0  0  0  0  0  0  0  0
  149.4617  139.6244  155.9128 H   0  0  0  0  0  0  0  0  0  0  0  0
  148.8856  139.2272  152.9834 H   0  0  0  0  0  0  0  0  0  0  0  0
  148.2352  138.3351  154.3562 H   0  0  0  0  0  0  0  0  0  0  0  0
  146.6933  140.2231  153.2447 H   0  0  0  0  0  0  0  0  0  0  0  0
  146.8539  140.2345  155.0011 H   0  0  0  0  0  0  0  0  0  0  0  0
  148.2990  141.9777  152.9971 H   0  0  0  0  0  0  0  0  0  0  0  0
  147.5161  142.4833  154.4826 H   0  0  0  0  0  0  0  0  0  0  0  0
  150.2691  141.8739  154.1142 H   0  0  0  0  0  0  0  0  0  0  0  0
  148.7485  142.7684  156.2469 H   0  0  0  0  0  0  0  0  0  0  0  0
  152.9399  142.1420  158.3564 H   0  0  0  0  0  0  0  0  0  0  0  0
  153.9638  143.1590  160.3673 H   0  0  0  0  0  0  0  0  0  0  0  0
  151.8869  144.4384  161.6990 H   0  0  0  0  0  0  0  0  0  0  0  0
  1  2  1  0  0  0  0
  1 17  1  0  0  0  0
  1 18  1  0  0  0  0
  1 19  1  0  0  0  0
  2  3  1  0  0  0  0
  3  7  1  0  0  0  0
  3  4  1  0  0  0  0
  3 20  1  0  0  0  0
  4  5  1  0  0  0  0
  4 21  1  0  0  0  0
  4 22  1  0  0  0  0
  5  6  1  0  0  0  0
  5 23  1  0  0  0  0
  5 24  1  0  0  0  0
  6  7  1  0  0  0  0
  6 25  1  0  0  0  0
  6 26  1  0  0  0  0
  7  8  1  0  0  0  0
  7 27  1  0  0  0  0
  8 28  1  0  0  0  0
  8  9  1  0  0  0  0
  9 11  1  0  0  0  0
  9 10  2  0  0  0  0
 11 12  2  0  0  0  0
 12 16  1  0  0  0  0
 12 13  1  0  0  0  0
 13 29  1  0  0  0  0
 13 14  1  0  0  0  0
 14 30  1  0  0  0  0
 14 15  2  0  0  0  0
 15 31  1  0  0  0  0
 15 16  1  0  0  0  0
M  END
> <s_m_source_file>
AV-unprocessed.smi

> <i_m_source_file_index>
2784

> <i_lp_mmshare_version>
43012

> <i_f3d_flags>
0

> <s_epik_input>
W0NIM11PW0NAQEhdMVtDSDJdW0NIMl1bQ0gyXVtDQEhdMVtOSF1DKD1PKVtOSF1jMm5bY0hdW2NIXW8y

> <s_epik_cmdline>
J2VwaWtfcHl0aG9uJywgJy1waCcsICc3LjAnLCAnLXRuJywgJzgnLCAnLW1hJywgJzIwMCcsICctbWV0YWxfYmluZGluZycsICctaW1hZScsICc8aW5maWxlLm1hZT4nLCAnLW9tYWUnLCAnPG91dGZpbGUubWFlPic=

> <r_lp_tautomer_probability>
0.107061

> <r_epik_Ionization_Penalty>
1.29244

> <r_epik_Ionization_Penalty_Charging>
1.29208

> <r_epik_Ionization_Penalty_Neutral>
0.000359742

> <r_epik_State_Penalty>
2.59896

> <r_epik_Charging_Adjusted_Penalty>
3.89105

> <i_epik_Tot_Q>
0

> <i_epik_Tot_abs_Q>
0

> <r_epik_Metal_State_Penalty>
3.62496

> <b_epik_Metal_Only>
0

> <s_lp_Force_Field>
OPLS_2005

> <r_lp_Energy>
42.7812

> <b_lp_Chiralities_Consistent>
1

> <s_lp_Variant>
AV-unprocessed.smi:2784-9

> <Gold.Version>
5.8.1

> <Gold.Id.Protein>
6NUR|6NUR_protein|mol2

> <Gold.PLP.Fitness>
34.8092

> <Gold.PLP.PLP>
-31.0702

> <Gold.PLP.part.hbond>
-2.5258

> <Gold.PLP.part.metal>
0.0000

> <Gold.PLP.part.buried>
-3.7630

> <Gold.PLP.part.nonpolar>
-24.4981

> <Gold.PLP.part.repulsive>
0.5359

> <Gold.PLP.ligand.clash>
0.0000

> <Gold.PLP.ligand.torsion>
0.3058

> <Gold.PLP.Chemscore.Hbond>
1.4480

> <Gold.PLP.Chemscore.CHOScore>
0.0000

> <Gold.PLP.Chemscore.Metal>
0.0000

> <Gold.Chemscore.Hbonds>
donor molecule, donor type, donor heavy atom, donor atom, acceptor molecule, acceptor atom, score
      L1  H     8    28       P1  8028  0.42
      P1  H  7989  7998       L1     2  1.00

> <Gold.PLP.Chemscore.Internal.Correction>
0.0066

> <Gold.Rescore>
     Score         DG    S(hbond)    S(metal)    S(lipo)     H(rot)  DE(clash)    DE(int)     intcor
     11.33     -14.49       1.35        0.00      67.33       1.32       0.04       3.12       ----

> <Gold.Chemscore.Fitness>
11.3320

> <Gold.Chemscore.DG>
-14.4942

> <Gold.Chemscore.ZeroCoef>
-5.4800

> <Gold.Chemscore.Hbond>
1.3549

> <Gold.Chemscore.Metal>
0.0000

> <Gold.Chemscore.Lipo>
67.3253

> <Gold.Chemscore.Internal_Hbond>
0.0000

> <Gold.Chemscore.DEClash>
0.0410

> <Gold.Chemscore.DEInternal>
3.1212

> <Gold.Chemscore.Rot>
1.3235

> <Gold.Chemscore.Internal.Correction>
   9.000000E+99

> <Gold.Chemscore.Hbonds>
donor molecule, donor type, donor heavy atom, donor atom, acceptor molecule, acceptor atom, score
      L1  H     8    28       P1  8028  0.40
      P1  H  7989  7998       L1     2  0.55

> <Gold.Chemscore.Hbond.Weighted>
-4.5253

> <Gold.Chemscore.Metal.Weighted>
-0.0000

> <Gold.Chemscore.Lipo.Weighted>
-7.8771

> <Gold.Chemscore.Internal_Hbond.Weighted>
0.0000

> <Gold.Chemscore.DEClash.Weighted>
0.0410

> <Gold.Chemscore.DEInternal.Weighted>
3.1212

> <Gold.Chemscore.Rot.Weighted>
3.3882

> <Gold.Chemscore.Internal.Correction.Weighted>
   9.000000E+99

> <Gold.Protein.RotatedTorsions>
[ 6907 6896 6895 6894 ] final  179.66 input  -60.11 | X-H torsion
[ 7974 7965 7964 7962 ] final -166.65 input  175.53 | X-H torsion
[ 8008 7997 7996 7995 ] final   -6.50 input   59.86 | X-H torsion
[ 10167 10162 10161 10158 ] final    7.85 input  -65.29 | X-H torsion
[ 10718 10713 10712 10709 ] final  -81.33 input   66.30 | X-H torsion
[ 10763 10752 10751 10750 ] final  178.20 input  -60.55 | X-H torsion
[ 11005 11000 10999 10996 ] final   60.67 input  -57.11 | X-H torsion

> <Gold.Protein.ActiveResidues>
 VAL166  LYS551  ARG553  GLY616  TRP617  ASP618  TYR619  PRO620  LYS621  CYS622 
 ASP623  PHE694  ASN695  SER759  ASP760  ASP761  ALA762  ILE779  LEU786  VAL792 
 PHE793  MET794  SER795  GLU796  ALA797  LYS798  CYS799  TRP800  GLU811  SER814 

> <Gold.Protein.RotatedAtoms>
  151.6681  133.3315  159.3189 H   0  0  0  0  0  0  0  0  0  0  0  0  # atno 6907 bound_to 6896
  150.7881  134.6886  159.6493 H   0  0  0  0  0  0  0  0  0  0  0  0  # atno 6908 bound_to 6896
  152.3955  134.6376  160.0143 H   0  0  0  0  0  0  0  0  0  0  0  0  # atno 6909 bound_to 6896
  144.7240  140.2635  143.6261 H   0  0  0  0  0  0  0  0  0  0  0  0  # atno 7974 bound_to 7965
  154.5932  140.2431  155.7893 H   0  0  0  0  0  0  0  0  0  0  0  0  # atno 8008 bound_to 7997
  156.2261  140.2982  156.0024 H   0  0  0  0  0  0  0  0  0  0  0  0  # atno 8009 bound_to 7997
  155.2339  140.0404  157.2956 H   0  0  0  0  0  0  0  0  0  0  0  0  # atno 8010 bound_to 7997
  140.6348  143.7911  150.7345 H   0  0  0  0  0  0  0  0  0  0  0  0  # atno 10167 bound_to 10162
  156.0052  130.4601  150.3937 H   0  0  0  0  0  0  0  0  0  0  0  0  # atno 10718 bound_to 10713
  154.5046  135.2785  155.1393 H   0  0  0  0  0  0  0  0  0  0  0  0  # atno 10763 bound_to 10752
  154.3012  135.6247  153.5429 H   0  0  0  0  0  0  0  0  0  0  0  0  # atno 10764 bound_to 10752
  152.9908  135.5697  154.5497 H   0  0  0  0  0  0  0  0  0  0  0  0  # atno 10765 bound_to 10752
  140.0215  134.6145  155.9632 H   0  0  0  0  0  0  0  0  0  0  0  0  # atno 11005 bound_to 11000
  145.8113  139.2004  143.1991 LP  0  0  0  0  0  0  0  0  0  0  0  0  # atno 17320 bound_to 7965
  146.0593  140.7987  142.9742 LP  0  0  0  0  0  0  0  0  0  0  0  0  # atno 17321 bound_to 7965
  140.1530  143.4341  152.2119 LP  0  0  0  0  0  0  0  0  0  0  0  0  # atno 17342 bound_to 10162
  139.5559  144.7372  151.4295 LP  0  0  0  0  0  0  0  0  0  0  0  0  # atno 17343 bound_to 10162
  157.2010  131.0438  151.2650 LP  0  0  0  0  0  0  0  0  0  0  0  0  # atno 17370 bound_to 10713
  157.3976  130.7316  149.6743 LP  0  0  0  0  0  0  0  0  0  0  0  0  # atno 17371 bound_to 10713
  141.1777  133.6542  156.4893 LP  0  0  0  0  0  0  0  0  0  0  0  0  # atno 17394 bound_to 11000
  140.4379  134.7043  157.4976 LP  0  0  0  0  0  0  0  0  0  0  0  0  # atno 17395 bound_to 11000

$$$$
