AV-unprocessed.smi:148|AV-procd|sdf|1222|dock10
  -GOLD-   2262018413D 1   1.00000     0.00000
 Structure written by MMmdl.
 63 67  0  0  0  0  0  0  0  0  1 V2000
  148.5180  134.3817  153.6468 O   0  0  0  0  0  0  0  0  0  0  0  0
  149.7729  134.3093  154.2911 C   0  0  0  0  0  0  0  0  0  0  0  0
  149.6153  133.9162  155.7805 C   0  0  2  0  0  0  0  0  0  0  0  0
  150.7472  134.4972  156.6719 C   0  0  0  0  0  0  0  0  0  0  0  0
  150.6312  135.9302  156.8716 N   0  0  0  0  0  0  0  0  0  0  0  0
  150.2833  136.5753  158.0378 C   0  0  0  0  0  0  0  0  0  0  0  0
  150.2739  137.8788  157.9714 N   0  0  0  0  0  0  0  0  0  0  0  0
  150.6314  138.1478  156.6571 C   0  0  0  0  0  0  0  0  0  0  0  0
  150.8436  139.3402  155.9183 C   0  0  0  0  0  0  0  0  0  0  0  0
  150.7144  140.5588  156.4847 N   0  0  0  0  0  0  0  0  0  0  0  0
  151.7690  140.7676  157.4790 C   0  0  0  0  0  0  0  0  0  0  0  0
  151.8531  142.2372  157.9019 C   0  0  0  0  0  0  0  0  0  0  0  0
  150.4905  142.7088  158.4116 C   0  0  0  0  0  0  0  0  0  0  0  0
  149.4188  142.4628  157.3417 C   0  0  0  0  0  0  0  0  0  0  0  0
  149.3545  140.9790  156.8843 C   0  0  1  0  0  0  0  0  0  0  0  0
  148.2698  140.7974  155.7636 C   0  0  1  0  0  0  0  0  0  0  0  0
  147.0044  141.6801  155.8598 C   0  0  0  0  0  0  0  0  0  0  0  0
  146.4165  141.7817  154.4449 C   0  0  0  0  0  0  0  0  0  0  0  0
  147.4471  141.1458  153.5080 C   0  0  0  0  0  0  0  0  0  0  0  0
  148.7409  141.0777  154.3203 C   0  0  1  0  0  0  0  0  0  0  0  0
  149.3964  142.3303  154.2231 O   0  0  0  0  0  0  0  0  0  0  0  0
  151.1966  139.2299  154.6102 N   0  0  0  0  0  0  0  0  0  0  0  0
  151.3462  138.0193  154.0632 C   0  0  0  0  0  0  0  0  0  0  0  0
  151.2013  136.8206  154.6341 N   0  0  0  0  0  0  0  0  0  0  0  0
  150.8428  136.9355  155.9455 C   0  0  0  0  0  0  0  0  0  0  0  0
  149.4189  132.3848  155.9642 C   0  0  1  0  0  0  0  0  0  0  0  0
  148.2093  131.7894  155.2364 C   0  0  0  0  0  0  0  0  0  0  0  0
  148.7775  130.5822  154.4944 C   0  0  0  0  0  0  0  0  0  0  0  0
  150.1289  130.9429  154.2658 O   0  0  0  0  0  0  0  0  0  0  0  0
  150.5970  131.5324  155.4681 C   0  0  0  0  0  0  0  0  0  0  0  0
  148.5493  135.0716  153.0016 H   0  0  0  0  0  0  0  0  0  0  0  0
  150.4103  133.6004  153.7625 H   0  0  0  0  0  0  0  0  0  0  0  0
  150.2367  135.2901  154.1878 H   0  0  0  0  0  0  0  0  0  0  0  0
  148.6896  134.3827  156.1215 H   0  0  0  0  0  0  0  0  0  0  0  0
  150.7483  134.0297  157.6563 H   0  0  0  0  0  0  0  0  0  0  0  0
  151.7275  134.2991  156.2402 H   0  0  0  0  0  0  0  0  0  0  0  0
  150.0501  136.0454  158.9500 H   0  0  0  0  0  0  0  0  0  0  0  0
  151.5729  140.1461  158.3542 H   0  0  0  0  0  0  0  0  0  0  0  0
  152.7325  140.4525  157.0746 H   0  0  0  0  0  0  0  0  0  0  0  0
  152.6104  142.3632  158.6760 H   0  0  0  0  0  0  0  0  0  0  0  0
  152.1647  142.8488  157.0543 H   0  0  0  0  0  0  0  0  0  0  0  0
  150.2300  142.1737  159.3256 H   0  0  0  0  0  0  0  0  0  0  0  0
  150.5309  143.7678  158.6678 H   0  0  0  0  0  0  0  0  0  0  0  0
  148.4650  142.7930  157.7499 H   0  0  0  0  0  0  0  0  0  0  0  0
  149.6206  143.1004  156.4795 H   0  0  0  0  0  0  0  0  0  0  0  0
  149.0642  140.3763  157.7461 H   0  0  0  0  0  0  0  0  0  0  0  0
  147.9447  139.7555  155.7853 H   0  0  0  0  0  0  0  0  0  0  0  0
  146.2564  141.2799  156.5409 H   0  0  0  0  0  0  0  0  0  0  0  0
  147.2699  142.6768  156.2146 H   0  0  0  0  0  0  0  0  0  0  0  0
  145.4583  141.2661  154.3719 H   0  0  0  0  0  0  0  0  0  0  0  0
  146.2462  142.8265  154.1831 H   0  0  0  0  0  0  0  0  0  0  0  0
  147.1265  140.1330  153.2601 H   0  0  0  0  0  0  0  0  0  0  0  0
  147.5571  141.6888  152.5683 H   0  0  0  0  0  0  0  0  0  0  0  0
  149.4005  140.2972  153.9397 H   0  0  0  0  0  0  0  0  0  0  0  0
  148.9883  142.9305  154.8282 H   0  0  0  0  0  0  0  0  0  0  0  0
  151.6303  138.0098  153.0214 H   0  0  0  0  0  0  0  0  0  0  0  0
  149.3146  132.1829  157.0309 H   0  0  0  0  0  0  0  0  0  0  0  0
  147.4126  131.5028  155.9235 H   0  0  0  0  0  0  0  0  0  0  0  0
  147.7783  132.4896  154.5226 H   0  0  0  0  0  0  0  0  0  0  0  0
  148.7385  129.6873  155.1175 H   0  0  0  0  0  0  0  0  0  0  0  0
  148.2519  130.3753  153.5619 H   0  0  0  0  0  0  0  0  0  0  0  0
  151.5156  132.0984  155.3116 H   0  0  0  0  0  0  0  0  0  0  0  0
  150.8202  130.7392  156.1836 H   0  0  0  0  0  0  0  0  0  0  0  0
  1  2  1  0  0  0  0
  1 31  1  0  0  0  0
  2  3  1  0  0  0  0
  2 32  1  0  0  0  0
  2 33  1  0  0  0  0
  3  4  1  0  0  0  0
  3 26  1  0  0  0  0
  3 34  1  0  0  0  0
  4  5  1  0  0  0  0
  4 35  1  0  0  0  0
  4 36  1  0  0  0  0
  5 25  1  0  0  0  0
  5  6  1  0  0  0  0
  6  7  2  0  0  0  0
  6 37  1  0  0  0  0
  7  8  1  0  0  0  0
  8 25  2  0  0  0  0
  8  9  1  0  0  0  0
  9 10  1  0  0  0  0
  9 22  2  0  0  0  0
 10 15  1  0  0  0  0
 10 11  1  0  0  0  0
 11 12  1  0  0  0  0
 11 38  1  0  0  0  0
 11 39  1  0  0  0  0
 12 13  1  0  0  0  0
 12 40  1  0  0  0  0
 12 41  1  0  0  0  0
 13 14  1  0  0  0  0
 13 42  1  0  0  0  0
 13 43  1  0  0  0  0
 14 15  1  0  0  0  0
 14 44  1  0  0  0  0
 14 45  1  0  0  0  0
 15 16  1  0  0  0  0
 15 46  1  0  0  0  0
 16 20  1  0  0  0  0
 16 17  1  0  0  0  0
 16 47  1  0  0  0  0
 17 18  1  0  0  0  0
 17 48  1  0  0  0  0
 17 49  1  0  0  0  0
 18 19  1  0  0  0  0
 18 50  1  0  0  0  0
 18 51  1  0  0  0  0
 19 20  1  0  0  0  0
 19 52  1  0  0  0  0
 19 53  1  0  0  0  0
 20 21  1  0  0  0  0
 20 54  1  0  0  0  0
 21 55  1  0  0  0  0
 22 23  1  0  0  0  0
 23 24  2  0  0  0  0
 23 56  1  0  0  0  0
 24 25  1  0  0  0  0
 26 30  1  0  0  0  0
 26 27  1  0  0  0  0
 26 57  1  0  0  0  0
 27 28  1  0  0  0  0
 27 58  1  0  0  0  0
 27 59  1  0  0  0  0
 28 29  1  0  0  0  0
 28 60  1  0  0  0  0
 28 61  1  0  0  0  0
 29 30  1  0  0  0  0
 30 62  1  0  0  0  0
 30 63  1  0  0  0  0
M  END
> <s_m_source_file>
AV-unprocessed.smi

> <i_m_source_file_index>
148

> <i_lp_mmshare_version>
43012

> <i_f3d_flags>
0

> <s_epik_input>
W0NIMl0xT1tDSDJdW0NIMl1bQ0BIXTFbQ0BIXShbQ0gyXVtPSF0pW0NIMl1uKFtjSF1uMiljKGMyMyluW2NIXW5jM040W0NIMl1bQ0gyXVtDSDJdW0NIMl1bQ0BIXTRbQ0BASF01W0NIMl1bQ0gyXVtDSDJdW0NASF01W09IXQ==

> <s_epik_cmdline>
J2VwaWtfcHl0aG9uJywgJy1waCcsICc3LjAnLCAnLXRuJywgJzgnLCAnLW1hJywgJzIwMCcsICctbWV0YWxfYmluZGluZycsICctaW1hZScsICc8aW5maWxlLm1hZT4nLCAnLW9tYWUnLCAnPG91dGZpbGUubWFlPic=

> <r_lp_tautomer_probability>
1

> <r_epik_Ionization_Penalty>
0.00556303

> <r_epik_Ionization_Penalty_Charging>
0

> <r_epik_Ionization_Penalty_Neutral>
0.00556303

> <r_epik_State_Penalty>
0.00401767

> <r_epik_Charging_Adjusted_Penalty>
0.00401767

> <i_epik_Tot_Q>
0

> <i_epik_Tot_abs_Q>
0

> <r_epik_Metal_State_Penalty>
-0

> <b_epik_Metal_Only>
0

> <s_lp_Force_Field>
OPLS_2005

> <r_lp_Energy>
71.6968

> <b_lp_Chiralities_Consistent>
1

> <s_lp_Variant>
AV-unprocessed.smi:148-21

> <Gold.Version>
5.8.1

> <Gold.Id.Protein>
6NUR|6NUR_protein|mol2

> <Gold.PLP.Fitness>
47.3089

> <Gold.PLP.PLP>
-34.4037

> <Gold.PLP.part.hbond>
-5.4601

> <Gold.PLP.part.metal>
0.0000

> <Gold.PLP.part.buried>
0.3484

> <Gold.PLP.part.nonpolar>
-29.0982

> <Gold.PLP.part.repulsive>
0.3421

> <Gold.PLP.ligand.clash>
0.0000

> <Gold.PLP.ligand.torsion>
1.2036

> <Gold.PLP.Chemscore.Hbond>
4.0363

> <Gold.PLP.Chemscore.CHOScore>
0.8604

> <Gold.PLP.Chemscore.Metal>
0.0000

> <Gold.Chemscore.Hbonds>
donor molecule, donor type, donor heavy atom, donor atom, acceptor molecule, acceptor atom, score
      L1  H     1    31       P1  7948  1.00
      L1  H    21    55       P1  8028  0.99
      P1  H  7989  7998       L1    22  1.00
      P1  H  8011  8017       L1    21  0.19
      P1  H 10752 10764       L1    24  0.81
      L1  C    23    56       P1  7949  0.77

> <Gold.PLP.Chemscore.Internal.Correction>
0.6225

> <Gold.Rescore>
     Score         DG    S(hbond)    S(metal)    S(lipo)     H(rot)  DE(clash)    DE(int)     intcor
     14.57     -18.95       3.36        0.00      91.97       3.32       1.86       2.52       ----

> <Gold.Chemscore.Fitness>
14.5680

> <Gold.Chemscore.DG>
-18.9482

> <Gold.Chemscore.ZeroCoef>
-5.4800

> <Gold.Chemscore.Hbond>
3.3554

> <Gold.Chemscore.Metal>
0.0000

> <Gold.Chemscore.Lipo>
91.9741

> <Gold.Chemscore.Internal_Hbond>
0.0000

> <Gold.Chemscore.DEClash>
1.8632

> <Gold.Chemscore.DEInternal>
2.5170

> <Gold.Chemscore.Rot>
3.3203

> <Gold.Chemscore.Internal.Correction>
   9.000000E+99

> <Gold.Chemscore.Hbonds>
donor molecule, donor type, donor heavy atom, donor atom, acceptor molecule, acceptor atom, score
      L1  H     1    31       P1  7948  0.70
      L1  H    21    55       P1  8028  0.93
      P1  H  7989  7998       L1    22  0.89
      P1  H  8011  8017       L1    21  0.07
      P1  H 10752 10764       L1    24  0.51

> <Gold.Chemscore.Hbond.Weighted>
-11.2072

> <Gold.Chemscore.Metal.Weighted>
-0.0000

> <Gold.Chemscore.Lipo.Weighted>
-10.7610

> <Gold.Chemscore.Internal_Hbond.Weighted>
0.0000

> <Gold.Chemscore.DEClash.Weighted>
1.8632

> <Gold.Chemscore.DEInternal.Weighted>
2.5170

> <Gold.Chemscore.Rot.Weighted>
8.5000

> <Gold.Chemscore.Internal.Correction.Weighted>
   9.000000E+99

> <Gold.Protein.RotatedTorsions>
[ 6907 6896 6895 6894 ] final   18.03 input  -60.11 | X-H torsion
[ 7974 7965 7964 7962 ] final  167.53 input  175.53 | X-H torsion
[ 8008 7997 7996 7995 ] final   46.81 input   59.86 | X-H torsion
[ 10167 10162 10161 10158 ] final -101.07 input  -65.29 | X-H torsion
[ 10718 10713 10712 10709 ] final  179.89 input   66.30 | X-H torsion
[ 10763 10752 10751 10750 ] final  -67.16 input  -60.55 | X-H torsion
[ 11005 11000 10999 10996 ] final  162.33 input  -57.11 | X-H torsion

> <Gold.Protein.ActiveResidues>
 VAL166  LYS551  ARG553  GLY616  TRP617  ASP618  TYR619  PRO620  LYS621  CYS622 
 ASP623  PHE694  ASN695  SER759  ASP760  ASP761  ALA762  ILE779  LEU786  VAL792 
 PHE793  MET794  SER795  GLU796  ALA797  LYS798  CYS799  TRP800  GLU811  SER814 

> <Gold.Protein.RotatedAtoms>
  151.8589  135.0531  160.0466 H   0  0  0  0  0  0  0  0  0  0  0  0  # atno 6907 bound_to 6896
  152.2678  133.5350  159.5429 H   0  0  0  0  0  0  0  0  0  0  0  0  # atno 6908 bound_to 6896
  150.7140  134.0656  159.3889 H   0  0  0  0  0  0  0  0  0  0  0  0  # atno 6909 bound_to 6896
  144.7421  139.8774  143.6393 H   0  0  0  0  0  0  0  0  0  0  0  0  # atno 7974 bound_to 7965
  155.3586  140.3417  155.4240 H   0  0  0  0  0  0  0  0  0  0  0  0  # atno 8008 bound_to 7997
  156.1725  140.1636  156.8456 H   0  0  0  0  0  0  0  0  0  0  0  0  # atno 8009 bound_to 7997
  154.5248  140.0758  156.8221 H   0  0  0  0  0  0  0  0  0  0  0  0  # atno 8010 bound_to 7997
  140.2452  143.3511  152.0765 H   0  0  0  0  0  0  0  0  0  0  0  0  # atno 10167 bound_to 10162
  156.8690  130.9777  151.3075 H   0  0  0  0  0  0  0  0  0  0  0  0  # atno 10718 bound_to 10713
  154.3705  135.6096  153.5737 H   0  0  0  0  0  0  0  0  0  0  0  0  # atno 10763 bound_to 10752
  152.9790  135.5837  154.4528 H   0  0  0  0  0  0  0  0  0  0  0  0  # atno 10764 bound_to 10752
  154.4281  135.2847  155.1909 H   0  0  0  0  0  0  0  0  0  0  0  0  # atno 10765 bound_to 10752
  140.2247  134.8170  157.3256 H   0  0  0  0  0  0  0  0  0  0  0  0  # atno 11005 bound_to 11000
  146.1236  139.4258  143.0213 LP  0  0  0  0  0  0  0  0  0  0  0  0  # atno 17320 bound_to 7965
  145.7268  141.0056  143.1373 LP  0  0  0  0  0  0  0  0  0  0  0  0  # atno 17321 bound_to 7965
  139.5064  144.6813  151.6001 LP  0  0  0  0  0  0  0  0  0  0  0  0  # atno 17342 bound_to 10162
  140.6083  143.9484  150.6434 LP  0  0  0  0  0  0  0  0  0  0  0  0  # atno 17343 bound_to 10162
  157.6207  130.8652  149.9103 LP  0  0  0  0  0  0  0  0  0  0  0  0  # atno 17370 bound_to 10713
  156.0736  130.3682  150.0723 LP  0  0  0  0  0  0  0  0  0  0  0  0  # atno 17371 bound_to 10713
  140.1813  134.4486  155.7770 LP  0  0  0  0  0  0  0  0  0  0  0  0  # atno 17394 bound_to 11000
  141.2221  133.6985  156.7873 LP  0  0  0  0  0  0  0  0  0  0  0  0  # atno 17395 bound_to 11000

$$$$
