AV-unprocessed.smi:788|AV-procd|sdf|3735|dock3
  -GOLD-   22720 1173D 1   1.00000     0.00000
 Structure written by MMmdl.
 34 35  0  0  0  0  0  0  0  0  2 V2000
  153.5459  140.8441  161.0202 C   0  0  0  0  0  0  0  0  0  0  0  0
  153.1025  142.2505  160.5773 C   0  0  2  0  0  0  0  0  0  0  0  0
  152.5837  143.0568  161.7843 C   0  0  0  0  0  0  0  0  0  0  0  0
  152.1392  144.4700  161.3815 C   0  0  0  0  0  0  0  0  0  0  0  0
  151.0820  144.4218  160.2677 C   0  0  0  0  0  0  0  0  0  0  0  0
  151.5680  143.6335  159.0355 C   0  0  1  0  0  0  0  0  0  0  0  0
  152.6113  144.4254  158.2194 C   0  0  0  0  0  0  0  0  0  0  0  0
  152.0357  142.2119  159.4524 C   0  0  1  0  0  0  0  0  0  0  0  0
  152.5360  141.4590  158.3028 N   0  0  0  0  0  0  0  0  0  0  0  0
  151.9120  140.4487  157.6661 C   0  0  0  0  0  0  0  0  0  0  0  0
  150.7938  140.1042  158.0461 O   0  0  0  0  0  0  0  0  0  0  0  0
  152.5605  139.8608  156.6264 N   0  5  0  0  0  0  0  0  0  0  0  0
  151.9858  138.9188  155.8556 C   0  0  0  0  0  0  0  0  0  0  0  0
  152.3460  137.6262  155.9074 N   0  0  0  0  0  0  0  0  0  0  0  0
  151.6210  136.8225  155.0382 N   0  0  0  0  0  0  0  0  0  0  0  0
  150.7362  137.5351  154.3410 C   0  0  0  0  0  0  0  0  0  0  0  0
  150.7065  139.2515  154.6849 S   0  0  0  0  0  0  0  0  0  0  0  0
  152.6999  140.2585  161.3812 H   0  0  0  0  0  0  0  0  0  0  0  0
  154.2788  140.9005  161.8253 H   0  0  0  0  0  0  0  0  0  0  0  0
  154.0092  140.2905  160.2033 H   0  0  0  0  0  0  0  0  0  0  0  0
  153.9889  142.7582  160.1950 H   0  0  0  0  0  0  0  0  0  0  0  0
  151.7449  142.5316  162.2431 H   0  0  0  0  0  0  0  0  0  0  0  0
  153.3584  143.1249  162.5489 H   0  0  0  0  0  0  0  0  0  0  0  0
  151.7357  144.9908  162.2502 H   0  0  0  0  0  0  0  0  0  0  0  0
  153.0028  145.0485  161.0525 H   0  0  0  0  0  0  0  0  0  0  0  0
  150.1792  143.9508  160.6584 H   0  0  0  0  0  0  0  0  0  0  0  0
  150.7934  145.4338  159.9811 H   0  0  0  0  0  0  0  0  0  0  0  0
  150.7032  143.5139  158.3813 H   0  0  0  0  0  0  0  0  0  0  0  0
  153.5404  144.5693  158.7698 H   0  0  0  0  0  0  0  0  0  0  0  0
  152.2305  145.4121  157.9554 H   0  0  0  0  0  0  0  0  0  0  0  0
  152.8571  143.9193  157.2856 H   0  0  0  0  0  0  0  0  0  0  0  0
  151.1707  141.6790  159.8524 H   0  0  0  0  0  0  0  0  0  0  0  0
  153.4466  141.7244  157.9578 H   0  0  0  0  0  0  0  0  0  0  0  0
  150.0980  137.0473  153.6195 H   0  0  0  0  0  0  0  0  0  0  0  0
  1  2  1  0  0  0  0
  1 18  1  0  0  0  0
  1 19  1  0  0  0  0
  1 20  1  0  0  0  0
  2  8  1  0  0  0  0
  2  3  1  0  0  0  0
  2 21  1  0  0  0  0
  3  4  1  0  0  0  0
  3 22  1  0  0  0  0
  3 23  1  0  0  0  0
  4  5  1  0  0  0  0
  4 24  1  0  0  0  0
  4 25  1  0  0  0  0
  5  6  1  0  0  0  0
  5 26  1  0  0  0  0
  5 27  1  0  0  0  0
  6  7  1  0  0  0  0
  6  8  1  0  0  0  0
  6 28  1  0  0  0  0
  7 29  1  0  0  0  0
  7 30  1  0  0  0  0
  7 31  1  0  0  0  0
  8  9  1  0  0  0  0
  8 32  1  0  0  0  0
  9 10  1  0  0  0  0
  9 33  1  0  0  0  0
 10 11  2  0  0  0  0
 10 12  1  0  0  0  0
 12 13  1  0  0  0  0
 13 17  1  0  0  0  0
 13 14  2  0  0  0  0
 14 15  1  0  0  0  0
 15 16  2  0  0  0  0
 16 17  1  0  0  0  0
 16 34  1  0  0  0  0
M  CHG  1  12  -1
M  END
> <s_m_source_file>
AV-unprocessed.smi

> <i_m_source_file_index>
788

> <i_lp_mmshare_version>
43012

> <i_f3d_flags>
0

> <s_epik_input>
W0NIM11bQ0BASF0xW0NIMl1bQ0gyXVtDSDJdW0NAQEhdKFtDSDNdKVtDQEhdMVtOSF1DKD1PKVtOSF1jMm5uW2NIXXMy

> <s_epik_cmdline>
J2VwaWtfcHl0aG9uJywgJy1waCcsICc3LjAnLCAnLXRuJywgJzgnLCAnLW1hJywgJzIwMCcsICctbWV0YWxfYmluZGluZycsICctaW1hZScsICc8aW5maWxlLm1hZT4nLCAnLW9tYWUnLCAnPG91dGZpbGUubWFlPic=

> <r_lp_tautomer_probability>
1

> <r_epik_Ionization_Penalty>
4.58638

> <r_epik_Ionization_Penalty_Charging>
4.53816

> <r_epik_Ionization_Penalty_Neutral>
0.048215

> <r_epik_State_Penalty>
4.53788

> <r_epik_Charging_Adjusted_Penalty>
9.07605

> <i_epik_Tot_Q>
-1

> <i_epik_Tot_abs_Q>
1

> <r_epik_Metal_State_Penalty>
0.838628

> <b_epik_Metal_Only>
1

> <s_lp_Force_Field>
OPLS_2005

> <r_lp_Energy>
12.907

> <b_lp_Chiralities_Consistent>
1

> <s_lp_Variant>
AV-unprocessed.smi:788-5

> <Gold.Version>
5.8.1

> <Gold.Id.Protein>
6NUR|6NUR_protein|mol2

> <Gold.PLP.Fitness>
50.7062

> <Gold.PLP.PLP>
-40.2354

> <Gold.PLP.part.hbond>
-2.4424

> <Gold.PLP.part.metal>
0.0000

> <Gold.PLP.part.buried>
-1.3331

> <Gold.PLP.part.nonpolar>
-36.1812

> <Gold.PLP.part.repulsive>
0.1915

> <Gold.PLP.ligand.clash>
0.0000

> <Gold.PLP.ligand.torsion>
0.8046

> <Gold.PLP.Chemscore.Hbond>
3.0000

> <Gold.PLP.Chemscore.CHOScore>
1.0188

> <Gold.PLP.Chemscore.Metal>
0.0000

> <Gold.Chemscore.Hbonds>
donor molecule, donor type, donor heavy atom, donor atom, acceptor molecule, acceptor atom, score
      P1  H  7997  8008       L1    12  2.00
      P1  H 10752 10764       L1    15  0.70
      L1  C    16    34       P1  7948  0.99
      L1  C    16    34       P1  7949  0.05

> <Gold.PLP.Chemscore.Internal.Correction>
0.0234

> <Gold.Rescore>
     Score         DG    S(hbond)    S(metal)    S(lipo)     H(rot)  DE(clash)    DE(int)     intcor
     19.91     -20.70       1.68        0.00     104.00       1.00       0.03       0.76       ----

> <Gold.Chemscore.Fitness>
19.9109

> <Gold.Chemscore.DG>
-20.7022

> <Gold.Chemscore.ZeroCoef>
-5.4800

> <Gold.Chemscore.Hbond>
1.6810

> <Gold.Chemscore.Metal>
0.0000

> <Gold.Chemscore.Lipo>
103.9960

> <Gold.Chemscore.Internal_Hbond>
0.0000

> <Gold.Chemscore.DEClash>
0.0279

> <Gold.Chemscore.DEInternal>
0.7634

> <Gold.Chemscore.Rot>
1.0000

> <Gold.Chemscore.Internal.Correction>
   9.000000E+99

> <Gold.Chemscore.Hbonds>
donor molecule, donor type, donor heavy atom, donor atom, acceptor molecule, acceptor atom, score
      P1  H  7997  8008       L1    12  0.85
      P1  H 10752 10764       L1    15  0.07

> <Gold.Chemscore.Hbond.Weighted>
-5.6146

> <Gold.Chemscore.Metal.Weighted>
-0.0000

> <Gold.Chemscore.Lipo.Weighted>
-12.1675

> <Gold.Chemscore.Internal_Hbond.Weighted>
0.0000

> <Gold.Chemscore.DEClash.Weighted>
0.0279

> <Gold.Chemscore.DEInternal.Weighted>
0.7634

> <Gold.Chemscore.Rot.Weighted>
2.5600

> <Gold.Chemscore.Internal.Correction.Weighted>
   9.000000E+99

> <Gold.Protein.RotatedTorsions>
[ 6907 6896 6895 6894 ] final  -32.05 input  -60.11 | X-H torsion
[ 7974 7965 7964 7962 ] final  -92.46 input  175.53 | X-H torsion
[ 8008 7997 7996 7995 ] final  -35.68 input   59.86 | X-H torsion
[ 10167 10162 10161 10158 ] final -103.59 input  -65.29 | X-H torsion
[ 10718 10713 10712 10709 ] final   77.18 input   66.30 | X-H torsion
[ 10763 10752 10751 10750 ] final  -43.98 input  -60.55 | X-H torsion
[ 11005 11000 10999 10996 ] final  179.45 input  -57.11 | X-H torsion

> <Gold.Protein.ActiveResidues>
 VAL166  LYS551  ARG553  GLY616  TRP617  ASP618  TYR619  PRO620  LYS621  CYS622 
 ASP623  PHE694  ASN695  SER759  ASP760  ASP761  ALA762  ILE779  LEU786  VAL792 
 PHE793  MET794  SER795  GLU796  ALA797  LYS798  CYS799  TRP800  GLU811  SER814 

> <Gold.Protein.RotatedAtoms>
  151.0839  134.9875  159.8369 H   0  0  0  0  0  0  0  0  0  0  0  0  # atno 6907 bound_to 6896
  152.5422  134.2148  159.8774 H   0  0  0  0  0  0  0  0  0  0  0  0  # atno 6908 bound_to 6896
  151.2180  133.4474  159.2633 H   0  0  0  0  0  0  0  0  0  0  0  0  # atno 6909 bound_to 6896
  145.3995  140.9536  143.2295 H   0  0  0  0  0  0  0  0  0  0  0  0  # atno 7974 bound_to 7965
  154.4090  140.1651  156.2250 H   0  0  0  0  0  0  0  0  0  0  0  0  # atno 8008 bound_to 7997
  155.9331  140.3413  155.6242 H   0  0  0  0  0  0  0  0  0  0  0  0  # atno 8009 bound_to 7997
  155.7082  140.0753  157.2373 H   0  0  0  0  0  0  0  0  0  0  0  0  # atno 8010 bound_to 7997
  140.2184  143.3694  152.0991 H   0  0  0  0  0  0  0  0  0  0  0  0  # atno 10167 bound_to 10162
  157.6701  130.9809  150.1604 H   0  0  0  0  0  0  0  0  0  0  0  0  # atno 10718 bound_to 10713
  154.0045  135.6689  153.4761 H   0  0  0  0  0  0  0  0  0  0  0  0  # atno 10763 bound_to 10752
  153.0648  135.5007  154.8171 H   0  0  0  0  0  0  0  0  0  0  0  0  # atno 10764 bound_to 10752
  154.7033  135.3083  154.9272 H   0  0  0  0  0  0  0  0  0  0  0  0  # atno 10765 bound_to 10752
  140.4064  134.6732  157.4590 H   0  0  0  0  0  0  0  0  0  0  0  0  # atno 11005 bound_to 11000
  144.8384  139.5512  143.6911 LP  0  0  0  0  0  0  0  0  0  0  0  0  # atno 17320 bound_to 7965
  146.2759  139.6751  142.9263 LP  0  0  0  0  0  0  0  0  0  0  0  0  # atno 17321 bound_to 7965
  139.5153  144.6961  151.5625 LP  0  0  0  0  0  0  0  0  0  0  0  0  # atno 17342 bound_to 10162
  140.6273  143.9144  150.6575 LP  0  0  0  0  0  0  0  0  0  0  0  0  # atno 17343 bound_to 10162
  156.2382  130.3688  149.8367 LP  0  0  0  0  0  0  0  0  0  0  0  0  # atno 17370 bound_to 10713
  156.6174  130.8612  151.3468 LP  0  0  0  0  0  0  0  0  0  0  0  0  # atno 17371 bound_to 10713
  140.0299  134.6421  155.9121 LP  0  0  0  0  0  0  0  0  0  0  0  0  # atno 17394 bound_to 11000
  141.1838  133.6551  156.5130 LP  0  0  0  0  0  0  0  0  0  0  0  0  # atno 17395 bound_to 11000

$$$$
