AV-unprocessed.smi:1621|AV-procd|sdf|6493|dock5
  -GOLD-   22720 7153D 1   1.00000     0.00000
 Structure written by MMmdl.
 39 40  0  0  0  0  0  0  0  0  2 V2000
  143.9594  132.5034  149.6229 C   0  0  0  0  0  0  0  0  0  0  0  0
  143.6139  133.6424  150.5004 N   0  3  2  0  0  0  0  0  0  0  0  0
  144.6774  134.6767  150.5272 C   0  0  0  0  0  0  0  0  0  0  0  0
  144.2407  135.8998  151.3509 C   0  0  0  0  0  0  0  0  0  0  0  0
  143.8407  135.4975  152.7847 C   0  0  1  0  0  0  0  0  0  0  0  0
  143.3627  136.6967  153.6310 C   0  0  0  0  0  0  0  0  0  0  0  0
  144.2158  137.8713  153.4772 N   0  0  0  0  0  0  0  0  0  0  0  0
  145.5278  137.9125  153.7518 C   0  0  0  0  0  0  0  0  0  0  0  0
  146.1608  136.9402  154.1616 O   0  0  0  0  0  0  0  0  0  0  0  0
  146.0306  139.1397  153.5277 N   0  0  0  0  0  0  0  0  0  0  0  0
  147.3586  139.6189  153.7062 C   0  0  0  0  0  0  0  0  0  0  0  0
  147.5410  141.0165  153.7627 C   0  0  0  0  0  0  0  0  0  0  0  0
  148.8434  141.5279  153.9297 C   0  0  0  0  0  0  0  0  0  0  0  0
  149.9387  140.7468  154.0331 N   0  0  0  0  0  0  0  0  0  0  0  0
  149.7651  139.4100  153.9686 C   0  0  0  0  0  0  0  0  0  0  0  0
  148.5072  138.7959  153.8036 C   0  0  0  0  0  0  0  0  0  0  0  0
  142.7615  134.4023  152.7140 C   0  0  0  0  0  0  0  0  0  0  0  0
  143.2279  133.2076  151.8653 C   0  0  0  0  0  0  0  0  0  0  0  0
  144.8399  131.9770  149.9932 H   0  0  0  0  0  0  0  0  0  0  0  0
  144.1671  132.8477  148.6093 H   0  0  0  0  0  0  0  0  0  0  0  0
  143.1331  131.7939  149.5693 H   0  0  0  0  0  0  0  0  0  0  0  0
  145.5919  134.2508  150.9434 H   0  0  0  0  0  0  0  0  0  0  0  0
  144.9080  134.9894  149.5079 H   0  0  0  0  0  0  0  0  0  0  0  0
  145.0543  136.6254  151.3716 H   0  0  0  0  0  0  0  0  0  0  0  0
  143.4012  136.3912  150.8569 H   0  0  0  0  0  0  0  0  0  0  0  0
  144.7168  135.0664  153.2721 H   0  0  0  0  0  0  0  0  0  0  0  0
  142.3494  136.9772  153.3419 H   0  0  0  0  0  0  0  0  0  0  0  0
  143.3125  136.4200  154.6855 H   0  0  0  0  0  0  0  0  0  0  0  0
  143.7712  138.7164  153.1494 H   0  0  0  0  0  0  0  0  0  0  0  0
  145.3640  139.8382  153.2339 H   0  0  0  0  0  0  0  0  0  0  0  0
  146.7003  141.6902  153.6835 H   0  0  0  0  0  0  0  0  0  0  0  0
  149.0094  142.5939  153.9797 H   0  0  0  0  0  0  0  0  0  0  0  0
  150.6588  138.8088  154.0460 H   0  0  0  0  0  0  0  0  0  0  0  0
  148.4590  137.7202  153.7477 H   0  0  0  0  0  0  0  0  0  0  0  0
  142.5107  134.0594  153.7186 H   0  0  0  0  0  0  0  0  0  0  0  0
  141.8434  134.8130  152.2912 H   0  0  0  0  0  0  0  0  0  0  0  0
  142.4245  132.4726  151.8004 H   0  0  0  0  0  0  0  0  0  0  0  0
  144.0734  132.7122  152.3454 H   0  0  0  0  0  0  0  0  0  0  0  0
  142.7975  134.0785  150.0958 H   0  0  0  0  0  0  0  0  0  0  0  0
  1  2  1  0  0  0  0
  1 19  1  0  0  0  0
  1 20  1  0  0  0  0
  1 21  1  0  0  0  0
  2 18  1  0  0  0  0
  2  3  1  0  0  0  0
  2 39  1  0  0  0  0
  3  4  1  0  0  0  0
  3 22  1  0  0  0  0
  3 23  1  0  0  0  0
  4  5  1  0  0  0  0
  4 24  1  0  0  0  0
  4 25  1  0  0  0  0
  5  6  1  0  0  0  0
  5 17  1  0  0  0  0
  5 26  1  0  0  0  0
  6  7  1  0  0  0  0
  6 27  1  0  0  0  0
  6 28  1  0  0  0  0
  7  8  1  0  0  0  0
  7 29  1  0  0  0  0
  8  9  2  0  0  0  0
  8 10  1  0  0  0  0
 10 11  1  0  0  0  0
 10 30  1  0  0  0  0
 11 16  1  0  0  0  0
 11 12  2  0  0  0  0
 12 13  1  0  0  0  0
 12 31  1  0  0  0  0
 13 14  2  0  0  0  0
 13 32  1  0  0  0  0
 14 15  1  0  0  0  0
 15 16  2  0  0  0  0
 15 33  1  0  0  0  0
 16 34  1  0  0  0  0
 17 18  1  0  0  0  0
 17 35  1  0  0  0  0
 17 36  1  0  0  0  0
 18 37  1  0  0  0  0
 18 38  1  0  0  0  0
M  CHG  1   2   1
M  END
> <s_m_source_file>
AV-unprocessed.smi

> <i_m_source_file_index>
1621

> <i_lp_mmshare_version>
43012

> <i_f3d_flags>
0

> <s_epik_input>
W0NIM11OMVtDSDJdW0NIMl1bQ0hdKFtDSDJdW0NIMl0xKVtDSDJdW05IXUMoPU8pW05IXWMyW2NIXVtjSF1uW2NIXVtjSF0y

> <s_epik_cmdline>
J2VwaWtfcHl0aG9uJywgJy1waCcsICc3LjAnLCAnLXRuJywgJzgnLCAnLW1hJywgJzIwMCcsICctbWV0YWxfYmluZGluZycsICctaW1hZScsICc8aW5maWxlLm1hZT4nLCAnLW9tYWUnLCAnPG91dGZpbGUubWFlPic=

> <r_epik_Ionization_Penalty>
0.107254

> <r_epik_Ionization_Penalty_Charging>
0.00106265

> <r_epik_Ionization_Penalty_Neutral>
0.106191

> <r_epik_State_Penalty>
0.0960133

> <r_epik_Charging_Adjusted_Penalty>
0.0970759

> <i_epik_Tot_Q>
1

> <i_epik_Tot_abs_Q>
1

> <r_epik_Metal_State_Penalty>
0.0813061

> <b_epik_Metal_Only>
0

> <s_lp_Force_Field>
OPLS_2005

> <r_lp_Energy>
22.3351

> <b_lp_Chiralities_Consistent>
1

> <s_lp_Variant>
AV-unprocessed.smi:1621-1

> <Gold.Version>
5.8.1

> <Gold.Id.Protein>
6NUR|6NUR_protein|mol2

> <Gold.PLP.Fitness>
49.1760

> <Gold.PLP.PLP>
-32.2223

> <Gold.PLP.part.hbond>
-4.0000

> <Gold.PLP.part.metal>
0.0000

> <Gold.PLP.part.buried>
-2.8991

> <Gold.PLP.part.nonpolar>
-25.6313

> <Gold.PLP.part.repulsive>
0.2087

> <Gold.PLP.ligand.clash>
0.0000

> <Gold.PLP.ligand.torsion>
0.1767

> <Gold.PLP.Chemscore.Hbond>
4.7680

> <Gold.PLP.Chemscore.CHOScore>
1.0000

> <Gold.PLP.Chemscore.Metal>
0.0000

> <Gold.Chemscore.Hbonds>
donor molecule, donor type, donor heavy atom, donor atom, acceptor molecule, acceptor atom, score
      L1  H     2    39       P1 10186  2.00
      L1  H     7    29       P1 10175  1.00
      L1  H    10    30       P1 10175  1.00
      P1  H  7989  7998       L1    14  0.61
      L1  C    13    32       P1  8028  0.62

> <Gold.PLP.Chemscore.Internal.Correction>
0.0031

> <Gold.Rescore>
     Score         DG    S(hbond)    S(metal)    S(lipo)     H(rot)  DE(clash)    DE(int)     intcor
     22.13     -23.39       3.61        0.00      77.34       1.25       0.17       1.09       ----

> <Gold.Chemscore.Fitness>
22.1272

> <Gold.Chemscore.DG>
-23.3860

> <Gold.Chemscore.ZeroCoef>
-5.4800

> <Gold.Chemscore.Hbond>
3.6086

> <Gold.Chemscore.Metal>
0.0000

> <Gold.Chemscore.Lipo>
77.3385

> <Gold.Chemscore.Internal_Hbond>
0.0000

> <Gold.Chemscore.DEClash>
0.1691

> <Gold.Chemscore.DEInternal>
1.0897

> <Gold.Chemscore.Rot>
1.2482

> <Gold.Chemscore.Internal.Correction>
   9.000000E+99

> <Gold.Chemscore.Hbonds>
donor molecule, donor type, donor heavy atom, donor atom, acceptor molecule, acceptor atom, score
      L1  H     2    39       P1 10186  0.98
      L1  H     7    29       P1 10175  0.99
      L1  H    10    30       P1 10175  0.97
      P1  H  7989  7998       L1    14  0.18

> <Gold.Chemscore.Hbond.Weighted>
-12.0528

> <Gold.Chemscore.Metal.Weighted>
-0.0000

> <Gold.Chemscore.Lipo.Weighted>
-9.0486

> <Gold.Chemscore.Internal_Hbond.Weighted>
0.0000

> <Gold.Chemscore.DEClash.Weighted>
0.1691

> <Gold.Chemscore.DEInternal.Weighted>
1.0897

> <Gold.Chemscore.Rot.Weighted>
3.1954

> <Gold.Chemscore.Internal.Correction.Weighted>
   9.000000E+99

> <Gold.Protein.RotatedTorsions>
[ 6907 6896 6895 6894 ] final  133.44 input  -60.11 | X-H torsion
[ 7974 7965 7964 7962 ] final   22.13 input  175.53 | X-H torsion
[ 8008 7997 7996 7995 ] final  -68.88 input   59.86 | X-H torsion
[ 10167 10162 10161 10158 ] final   -7.09 input  -65.29 | X-H torsion
[ 10718 10713 10712 10709 ] final  -51.40 input   66.30 | X-H torsion
[ 10763 10752 10751 10750 ] final  -44.84 input  -60.55 | X-H torsion
[ 11005 11000 10999 10996 ] final   52.38 input  -57.11 | X-H torsion

> <Gold.Protein.ActiveResidues>
 VAL166  LYS551  ARG553  GLY616  TRP617  ASP618  TYR619  PRO620  LYS621  CYS622 
 ASP623  PHE694  ASN695  SER759  ASP760  ASP761  ALA762  ILE779  LEU786  VAL792 
 PHE793  MET794  SER795  GLU796  ALA797  LYS798  CYS799  TRP800  GLU811  SER814 

> <Gold.Protein.RotatedAtoms>
  152.3219  133.5863  159.5750 H   0  0  0  0  0  0  0  0  0  0  0  0  # atno 6907 bound_to 6896
  150.7376  133.9998  159.3643 H   0  0  0  0  0  0  0  0  0  0  0  0  # atno 6908 bound_to 6896
  151.7881  135.0744  160.0434 H   0  0  0  0  0  0  0  0  0  0  0  0  # atno 6909 bound_to 6896
  146.2042  139.7929  142.8738 H   0  0  0  0  0  0  0  0  0  0  0  0  # atno 7974 bound_to 7965
  154.4899  140.0864  156.7570 H   0  0  0  0  0  0  0  0  0  0  0  0  # atno 8008 bound_to 7997
  155.4257  140.3447  155.4257 H   0  0  0  0  0  0  0  0  0  0  0  0  # atno 8009 bound_to 7997
  156.1314  140.1502  156.9047 H   0  0  0  0  0  0  0  0  0  0  0  0  # atno 8010 bound_to 7997
  140.7018  143.6120  150.8695 H   0  0  0  0  0  0  0  0  0  0  0  0  # atno 10167 bound_to 10162
  156.1714  130.4149  149.9642 H   0  0  0  0  0  0  0  0  0  0  0  0  # atno 10718 bound_to 10713
  154.0187  135.6672  153.4771 H   0  0  0  0  0  0  0  0  0  0  0  0  # atno 10763 bound_to 10752
  153.0589  135.5039  154.8044 H   0  0  0  0  0  0  0  0  0  0  0  0  # atno 10764 bound_to 10752
  154.6951  135.3068  154.9388 H   0  0  0  0  0  0  0  0  0  0  0  0  # atno 10765 bound_to 10752
  140.0854  134.5281  155.8904 H   0  0  0  0  0  0  0  0  0  0  0  0  # atno 11005 bound_to 11000
  145.3379  141.0281  143.3409 LP  0  0  0  0  0  0  0  0  0  0  0  0  # atno 17320 bound_to 7965
  144.8753  139.4980  143.6748 LP  0  0  0  0  0  0  0  0  0  0  0  0  # atno 17321 bound_to 7965
  139.9843  143.5917  152.2932 LP  0  0  0  0  0  0  0  0  0  0  0  0  # atno 17342 bound_to 10162
  139.6549  144.7662  151.2075 LP  0  0  0  0  0  0  0  0  0  0  0  0  # atno 17343 bound_to 10162
  156.7441  130.9090  151.3634 LP  0  0  0  0  0  0  0  0  0  0  0  0  # atno 17370 bound_to 10713
  157.6805  130.9135  150.0255 LP  0  0  0  0  0  0  0  0  0  0  0  0  # atno 17371 bound_to 10713
  141.2061  133.6652  156.6220 LP  0  0  0  0  0  0  0  0  0  0  0  0  # atno 17394 bound_to 11000
  140.3427  134.7835  157.4410 LP  0  0  0  0  0  0  0  0  0  0  0  0  # atno 17395 bound_to 11000

$$$$
