AV-unprocessed.smi:2633|AV-procd|sdf|10252|dock5
  -GOLD-   2272014263D 1   1.00000     0.00000
 Structure written by MMmdl.
 35 37  0  0  0  0  0  0  0  0  1 V2000
  151.5142  136.7795  154.3115 O   0  0  0  0  0  0  0  0  0  0  0  0
  150.5965  137.7373  154.7962 C   0  0  0  0  0  0  0  0  0  0  0  0
  151.2503  139.1230  154.9325 C   0  0  0  0  0  0  0  0  0  0  0  0
  150.2990  140.1519  155.3322 N   0  0  0  0  0  0  0  0  0  0  0  0
  150.2713  140.8916  156.4719 C   0  0  0  0  0  0  0  0  0  0  0  0
  151.3008  140.7361  157.5585 C   0  0  0  0  0  0  0  0  0  0  0  0
  151.6219  142.0329  158.2824 C   0  0  0  0  0  0  0  0  0  0  0  0
  151.2470  143.2687  157.7144 C   0  0  0  0  0  0  0  0  0  0  0  0
  151.5383  144.4727  158.3846 C   0  0  0  0  0  0  0  0  0  0  0  0
  152.2053  144.4454  159.6246 C   0  0  0  0  0  0  0  0  0  0  0  0
  152.5813  143.2135  160.1944 C   0  0  0  0  0  0  0  0  0  0  0  0
  152.2906  142.0089  159.5246 C   0  0  0  0  0  0  0  0  0  0  0  0
  149.2565  141.7543  156.5710 N   0  0  0  0  0  0  0  0  0  0  0  0
  148.5772  141.5708  155.3840 C   0  0  0  0  0  0  0  0  0  0  0  0
  147.4137  142.1990  154.8850 C   0  0  0  0  0  0  0  0  0  0  0  0
  146.8946  141.8403  153.6239 C   0  0  0  0  0  0  0  0  0  0  0  0
  147.5292  140.8500  152.8462 C   0  0  0  0  0  0  0  0  0  0  0  0
  148.6888  140.2111  153.3262 C   0  0  0  0  0  0  0  0  0  0  0  0
  149.2035  140.5740  154.5853 C   0  0  0  0  0  0  0  0  0  0  0  0
  151.4051  136.7051  153.3758 H   0  0  0  0  0  0  0  0  0  0  0  0
  149.7440  137.7831  154.1180 H   0  0  0  0  0  0  0  0  0  0  0  0
  150.2190  137.4038  155.7630 H   0  0  0  0  0  0  0  0  0  0  0  0
  152.0373  139.0798  155.6860 H   0  0  0  0  0  0  0  0  0  0  0  0
  151.7459  139.4137  154.0066 H   0  0  0  0  0  0  0  0  0  0  0  0
  150.9439  139.9919  158.2710 H   0  0  0  0  0  0  0  0  0  0  0  0
  152.2337  140.3519  157.1487 H   0  0  0  0  0  0  0  0  0  0  0  0
  150.7318  143.2949  156.7651 H   0  0  0  0  0  0  0  0  0  0  0  0
  151.2484  145.4172  157.9482 H   0  0  0  0  0  0  0  0  0  0  0  0
  152.4271  145.3687  160.1393 H   0  0  0  0  0  0  0  0  0  0  0  0
  153.0911  143.1919  161.1463 H   0  0  0  0  0  0  0  0  0  0  0  0
  152.5775  141.0674  159.9695 H   0  0  0  0  0  0  0  0  0  0  0  0
  146.9208  142.9584  155.4737 H   0  0  0  0  0  0  0  0  0  0  0  0
  146.0052  142.3275  153.2517 H   0  0  0  0  0  0  0  0  0  0  0  0
  147.1251  140.5813  151.8812 H   0  0  0  0  0  0  0  0  0  0  0  0
  149.1775  139.4524  152.7334 H   0  0  0  0  0  0  0  0  0  0  0  0
  1  2  1  0  0  0  0
  1 20  1  0  0  0  0
  2  3  1  0  0  0  0
  2 21  1  0  0  0  0
  2 22  1  0  0  0  0
  3  4  1  0  0  0  0
  3 23  1  0  0  0  0
  3 24  1  0  0  0  0
  4 19  1  0  0  0  0
  4  5  1  0  0  0  0
  5  6  1  0  0  0  0
  5 13  2  0  0  0  0
  6  7  1  0  0  0  0
  6 25  1  0  0  0  0
  6 26  1  0  0  0  0
  7 12  1  0  0  0  0
  7  8  2  0  0  0  0
  8  9  1  0  0  0  0
  8 27  1  0  0  0  0
  9 10  2  0  0  0  0
  9 28  1  0  0  0  0
 10 11  1  0  0  0  0
 10 29  1  0  0  0  0
 11 12  2  0  0  0  0
 11 30  1  0  0  0  0
 12 31  1  0  0  0  0
 13 14  1  0  0  0  0
 14 19  2  0  0  0  0
 14 15  1  0  0  0  0
 15 16  2  0  0  0  0
 15 32  1  0  0  0  0
 16 17  1  0  0  0  0
 16 33  1  0  0  0  0
 17 18  2  0  0  0  0
 17 34  1  0  0  0  0
 18 19  1  0  0  0  0
 18 35  1  0  0  0  0
M  END
> <s_m_source_file>
AV-unprocessed.smi

> <i_m_source_file_index>
2633

> <i_lp_mmshare_version>
43012

> <i_f3d_flags>
0

> <s_epik_input>
W2NIXTFbY0hdW2NIXVtjSF1jKGMxMiluKFtDSDJdW0NIMl1bT0hdKWMobjIpW0NIMl1jM1tjSF1bY0hdW2NIXVtjSF1bY0hdMw==

> <s_epik_cmdline>
J2VwaWtfcHl0aG9uJywgJy1waCcsICc3LjAnLCAnLXRuJywgJzgnLCAnLW1hJywgJzIwMCcsICctbWV0YWxfYmluZGluZycsICctaW1hZScsICc8aW5maWxlLm1hZT4nLCAnLW9tYWUnLCAnPG91dGZpbGUubWFlPic=

> <r_epik_Ionization_Penalty>
0.0631471

> <r_epik_Ionization_Penalty_Charging>
0

> <r_epik_Ionization_Penalty_Neutral>
0.0631471

> <r_epik_State_Penalty>
0.0549237

> <r_epik_Charging_Adjusted_Penalty>
0.0549237

> <i_epik_Tot_Q>
0

> <i_epik_Tot_abs_Q>
0

> <r_epik_Metal_State_Penalty>
5.75471e-05

> <b_epik_Metal_Only>
0

> <s_lp_Force_Field>
OPLS_2005

> <r_lp_Energy>
13.1063

> <b_lp_Chiralities_Consistent>
1

> <s_lp_Variant>
AV-unprocessed.smi:2633-1

> <Gold.Version>
5.8.1

> <Gold.Id.Protein>
6NUR|6NUR_protein|mol2

> <Gold.PLP.Fitness>
50.2388

> <Gold.PLP.PLP>
-45.3947

> <Gold.PLP.part.hbond>
-2.0000

> <Gold.PLP.part.metal>
0.0000

> <Gold.PLP.part.buried>
-0.4641

> <Gold.PLP.part.nonpolar>
-43.1428

> <Gold.PLP.part.repulsive>
0.1200

> <Gold.PLP.ligand.clash>
0.0000

> <Gold.PLP.ligand.torsion>
0.5879

> <Gold.PLP.Chemscore.Hbond>
2.0000

> <Gold.PLP.Chemscore.CHOScore>
0.0000

> <Gold.PLP.Chemscore.Metal>
0.0000

> <Gold.Chemscore.Hbonds>
donor molecule, donor type, donor heavy atom, donor atom, acceptor molecule, acceptor atom, score
      L1  H     1    20       P1  7949  1.00
      P1  H 10752 10763       L1     1  0.45

> <Gold.PLP.Chemscore.Internal.Correction>
0.0198

> <Gold.Rescore>
     Score         DG    S(hbond)    S(metal)    S(lipo)     H(rot)  DE(clash)    DE(int)     intcor
     16.24     -20.33       1.45        0.00     128.56       1.96       1.73       2.36       ----

> <Gold.Chemscore.Fitness>
16.2401

> <Gold.Chemscore.DG>
-20.3345

> <Gold.Chemscore.ZeroCoef>
-5.4800

> <Gold.Chemscore.Hbond>
1.4457

> <Gold.Chemscore.Metal>
0.0000

> <Gold.Chemscore.Lipo>
128.5638

> <Gold.Chemscore.Internal_Hbond>
0.0000

> <Gold.Chemscore.DEClash>
1.7304

> <Gold.Chemscore.DEInternal>
2.3641

> <Gold.Chemscore.Rot>
1.9594

> <Gold.Chemscore.Internal.Correction>
   9.000000E+99

> <Gold.Chemscore.Hbonds>
donor molecule, donor type, donor heavy atom, donor atom, acceptor molecule, acceptor atom, score
      L1  H     1    20       P1  7949  0.73
      P1  H 10752 10763       L1     1  0.02

> <Gold.Chemscore.Hbond.Weighted>
-4.8286

> <Gold.Chemscore.Metal.Weighted>
-0.0000

> <Gold.Chemscore.Lipo.Weighted>
-15.0420

> <Gold.Chemscore.Internal_Hbond.Weighted>
0.0000

> <Gold.Chemscore.DEClash.Weighted>
1.7304

> <Gold.Chemscore.DEInternal.Weighted>
2.3641

> <Gold.Chemscore.Rot.Weighted>
5.0160

> <Gold.Chemscore.Internal.Correction.Weighted>
   9.000000E+99

> <Gold.Protein.RotatedTorsions>
[ 6907 6896 6895 6894 ] final -157.70 input  -60.11 | X-H torsion
[ 7974 7965 7964 7962 ] final -174.30 input  175.53 | X-H torsion
[ 8008 7997 7996 7995 ] final   52.38 input   59.86 | X-H torsion
[ 10167 10162 10161 10158 ] final  -23.38 input  -65.29 | X-H torsion
[ 10718 10713 10712 10709 ] final -174.80 input   66.30 | X-H torsion
[ 10763 10752 10751 10750 ] final   35.51 input  -60.55 | X-H torsion
[ 11005 11000 10999 10996 ] final   17.02 input  -57.11 | X-H torsion

> <Gold.Protein.ActiveResidues>
 VAL166  LYS551  ARG553  GLY616  TRP617  ASP618  TYR619  PRO620  LYS621  CYS622 
 ASP623  PHE694  ASN695  SER759  ASP760  ASP761  ALA762  ILE779  LEU786  VAL792 
 PHE793  MET794  SER795  GLU796  ALA797  LYS798  CYS799  TRP800  GLU811  SER814 

> <Gold.Protein.RotatedAtoms>
  151.3069  133.4098  159.2643 H   0  0  0  0  0  0  0  0  0  0  0  0  # atno 6907 bound_to 6896
  151.0148  134.9425  159.8037 H   0  0  0  0  0  0  0  0  0  0  0  0  # atno 6908 bound_to 6896
  152.5310  134.3033  159.9139 H   0  0  0  0  0  0  0  0  0  0  0  0  # atno 6909 bound_to 6896
  144.7132  140.1492  143.6385 H   0  0  0  0  0  0  0  0  0  0  0  0  # atno 7974 bound_to 7965
  155.4509  140.3458  155.4300 H   0  0  0  0  0  0  0  0  0  0  0  0  # atno 8008 bound_to 7997
  156.1221  140.1490  156.9219 H   0  0  0  0  0  0  0  0  0  0  0  0  # atno 8009 bound_to 7997
  154.4831  140.0863  156.7403 H   0  0  0  0  0  0  0  0  0  0  0  0  # atno 8010 bound_to 7997
  140.7288  143.4448  151.0602 H   0  0  0  0  0  0  0  0  0  0  0  0  # atno 10167 bound_to 10162
  156.7904  130.9516  151.3120 H   0  0  0  0  0  0  0  0  0  0  0  0  # atno 10718 bound_to 10713
  153.0116  135.6331  154.1838 H   0  0  0  0  0  0  0  0  0  0  0  0  # atno 10763 bound_to 10752
  154.1580  135.2825  155.3118 H   0  0  0  0  0  0  0  0  0  0  0  0  # atno 10764 bound_to 10752
  154.6003  135.5589  153.7428 H   0  0  0  0  0  0  0  0  0  0  0  0  # atno 10765 bound_to 10752
  140.4406  134.1325  155.7690 H   0  0  0  0  0  0  0  0  0  0  0  0  # atno 11005 bound_to 11000
  145.9132  139.2500  143.1425 LP  0  0  0  0  0  0  0  0  0  0  0  0  # atno 17320 bound_to 7965
  145.9695  140.8771  143.0170 LP  0  0  0  0  0  0  0  0  0  0  0  0  # atno 17321 bound_to 7965
  139.8119  143.7939  152.3172 LP  0  0  0  0  0  0  0  0  0  0  0  0  # atno 17342 bound_to 10162
  139.7991  144.7381  150.9849 LP  0  0  0  0  0  0  0  0  0  0  0  0  # atno 17343 bound_to 10162
  157.6603  130.8960  149.9816 LP  0  0  0  0  0  0  0  0  0  0  0  0  # atno 17370 bound_to 10713
  156.1162  130.3647  149.9964 LP  0  0  0  0  0  0  0  0  0  0  0  0  # atno 17371 bound_to 10713
  141.1707  133.8614  157.1579 LP  0  0  0  0  0  0  0  0  0  0  0  0  # atno 17394 bound_to 11000
  140.0072  135.0003  157.0318 LP  0  0  0  0  0  0  0  0  0  0  0  0  # atno 17395 bound_to 11000

$$$$
