AV-unprocessed.smi:967|AV-procd|sdf|4288|dock4
  -GOLD-   22720 2193D 1   1.00000     0.00000
 Structure written by MMmdl.
 42 43  0  0  0  0  0  0  0  0  1 V2000
  145.3907  137.4601  152.6335 C   0  0  0  0  0  0  0  0  0  0  0  0
  145.9076  138.6875  152.0481 N   0  0  0  0  0  0  0  0  0  0  0  0
  146.4499  138.5772  150.7027 C   0  0  0  0  0  0  0  0  0  0  0  0
  146.7467  139.3984  152.9164 C   0  0  0  0  0  0  0  0  0  0  0  0
  147.8878  138.7959  153.4933 C   0  0  0  0  0  0  0  0  0  0  0  0
  148.6955  139.5609  154.3564 C   0  0  0  0  0  0  0  0  0  0  0  0
  148.3416  140.9074  154.6094 C   0  0  0  0  0  0  0  0  0  0  0  0
  149.0630  141.7740  155.4739 N   0  0  0  0  0  0  0  0  0  0  0  0
  150.1286  141.4900  156.2421 C   0  0  0  0  0  0  0  0  0  0  0  0
  150.6916  140.3970  156.2987 O   0  0  0  0  0  0  0  0  0  0  0  0
  150.5227  142.5679  156.9355 N   0  0  0  0  0  0  0  0  0  0  0  0
  151.6569  142.6287  157.8538 C   0  0  2  0  0  0  0  0  0  0  0  0
  151.7362  141.3243  158.6675 C   0  0  0  0  0  0  0  0  0  0  0  0
  152.8753  141.3713  159.7011 C   0  0  0  0  0  0  0  0  0  0  0  0
  152.7731  142.5985  160.6267 C   0  0  2  0  0  0  0  0  0  0  0  0
  151.6691  142.4571  161.4990 O   0  0  0  0  0  0  0  0  0  0  0  0
  152.6469  143.9056  159.8210 C   0  0  0  0  0  0  0  0  0  0  0  0
  151.5110  143.8469  158.7844 C   0  0  0  0  0  0  0  0  0  0  0  0
  147.1741  141.4055  153.9951 C   0  0  0  0  0  0  0  0  0  0  0  0
  146.3959  140.6785  153.1657 N   0  0  0  0  0  0  0  0  0  0  0  0
  145.0112  137.6392  153.6402 H   0  0  0  0  0  0  0  0  0  0  0  0
  146.1661  136.6953  152.6872 H   0  0  0  0  0  0  0  0  0  0  0  0
  144.5704  137.0722  152.0291 H   0  0  0  0  0  0  0  0  0  0  0  0
  146.8067  139.5446  150.3465 H   0  0  0  0  0  0  0  0  0  0  0  0
  145.6796  138.2285  150.0146 H   0  0  0  0  0  0  0  0  0  0  0  0
  147.2798  137.8701  150.6724 H   0  0  0  0  0  0  0  0  0  0  0  0
  148.1405  137.7669  153.2840 H   0  0  0  0  0  0  0  0  0  0  0  0
  149.5554  139.0977  154.8146 H   0  0  0  0  0  0  0  0  0  0  0  0
  148.7674  142.7392  155.4638 H   0  0  0  0  0  0  0  0  0  0  0  0
  149.9984  143.4221  156.8142 H   0  0  0  0  0  0  0  0  0  0  0  0
  152.5895  142.7343  157.2968 H   0  0  0  0  0  0  0  0  0  0  0  0
  150.7884  141.1482  159.1785 H   0  0  0  0  0  0  0  0  0  0  0  0
  151.8859  140.4764  157.9981 H   0  0  0  0  0  0  0  0  0  0  0  0
  152.8870  140.4527  160.2889 H   0  0  0  0  0  0  0  0  0  0  0  0
  153.8291  141.4047  159.1727 H   0  0  0  0  0  0  0  0  0  0  0  0
  153.6656  142.6500  161.2512 H   0  0  0  0  0  0  0  0  0  0  0  0
  151.2189  143.2865  161.5505 H   0  0  0  0  0  0  0  0  0  0  0  0
  152.4985  144.7517  160.4928 H   0  0  0  0  0  0  0  0  0  0  0  0
  153.5873  144.0930  159.3011 H   0  0  0  0  0  0  0  0  0  0  0  0
  151.5050  144.7658  158.1970 H   0  0  0  0  0  0  0  0  0  0  0  0
  150.5503  143.8060  159.3000 H   0  0  0  0  0  0  0  0  0  0  0  0
  146.8549  142.4228  154.1690 H   0  0  0  0  0  0  0  0  0  0  0  0
  1  2  1  0  0  0  0
  1 21  1  0  0  0  0
  1 22  1  0  0  0  0
  1 23  1  0  0  0  0
  2  3  1  0  0  0  0
  2  4  1  0  0  0  0
  3 24  1  0  0  0  0
  3 25  1  0  0  0  0
  3 26  1  0  0  0  0
  4 20  1  0  0  0  0
  4  5  2  0  0  0  0
  5  6  1  0  0  0  0
  5 27  1  0  0  0  0
  6  7  2  0  0  0  0
  6 28  1  0  0  0  0
  7  8  1  0  0  0  0
  7 19  1  0  0  0  0
  8  9  1  0  0  0  0
  8 29  1  0  0  0  0
  9 10  2  0  0  0  0
  9 11  1  0  0  0  0
 11 12  1  0  0  0  0
 11 30  1  0  0  0  0
 12 18  1  0  0  0  0
 12 13  1  0  0  0  0
 12 31  1  0  0  0  0
 13 14  1  0  0  0  0
 13 32  1  0  0  0  0
 13 33  1  0  0  0  0
 14 15  1  0  0  0  0
 14 34  1  0  0  0  0
 14 35  1  0  0  0  0
 15 16  1  0  0  0  0
 15 17  1  0  0  0  0
 15 36  1  0  0  0  0
 16 37  1  0  0  0  0
 17 18  1  0  0  0  0
 17 38  1  0  0  0  0
 17 39  1  0  0  0  0
 18 40  1  0  0  0  0
 18 41  1  0  0  0  0
 19 20  2  0  0  0  0
 19 42  1  0  0  0  0
M  END
> <s_m_source_file>
AV-unprocessed.smi

> <i_m_source_file_index>
967

> <i_lp_mmshare_version>
43012

> <i_f3d_flags>
0

> <s_epik_input>
W0NIM11OKFtDSDNdKWMxW2NIXVtjSF1jKFtjSF1uMSlbTkhdQyg9TylbTkhdW0NAQEhdMltDSDJdW0NIMl1bQ0BASF0oW09IXSlbQ0gyXVtDSDJdMg==

> <s_epik_cmdline>
J2VwaWtfcHl0aG9uJywgJy1waCcsICc3LjAnLCAnLXRuJywgJzgnLCAnLW1hJywgJzIwMCcsICctbWV0YWxfYmluZGluZycsICctaW1hZScsICc8aW5maWxlLm1hZT4nLCAnLW9tYWUnLCAnPG91dGZpbGUubWFlPic=

> <r_lp_tautomer_probability>
1

> <r_epik_Ionization_Penalty>
0.629464

> <r_epik_Ionization_Penalty_Charging>
0

> <r_epik_Ionization_Penalty_Neutral>
0.629464

> <r_epik_State_Penalty>
0.645019

> <r_epik_Charging_Adjusted_Penalty>
0.645019

> <i_epik_Tot_Q>
0

> <i_epik_Tot_abs_Q>
0

> <r_epik_Metal_State_Penalty>
0.308581

> <b_epik_Metal_Only>
0

> <s_lp_Force_Field>
OPLS_2005

> <r_lp_Energy>
18.5045

> <b_lp_Chiralities_Consistent>
1

> <s_lp_Variant>
AV-unprocessed.smi:967-4

> <Gold.Version>
5.8.1

> <Gold.Id.Protein>
6NUR|6NUR_protein|mol2

> <Gold.PLP.Fitness>
44.6350

> <Gold.PLP.PLP>
-37.8677

> <Gold.PLP.part.hbond>
-3.9896

> <Gold.PLP.part.metal>
0.0000

> <Gold.PLP.part.buried>
-1.7361

> <Gold.PLP.part.nonpolar>
-34.7405

> <Gold.PLP.part.repulsive>
1.6487

> <Gold.PLP.ligand.clash>
0.0002

> <Gold.PLP.ligand.torsion>
0.5468

> <Gold.PLP.Chemscore.Hbond>
2.5520

> <Gold.PLP.Chemscore.CHOScore>
0.0000

> <Gold.PLP.Chemscore.Metal>
0.0000

> <Gold.Chemscore.Hbonds>
donor molecule, donor type, donor heavy atom, donor atom, acceptor molecule, acceptor atom, score
      L1  H     8    29       P1  8028  1.00
      L1  H    11    30       P1  8028  0.94
      P1  H  6933  6945       L1    16  0.12

> <Gold.PLP.Chemscore.Internal.Correction>
0.2052

> <Gold.Rescore>
     Score         DG    S(hbond)    S(metal)    S(lipo)     H(rot)  DE(clash)    DE(int)     intcor
     15.00     -20.61       2.01        0.00     109.37       1.71       2.50       3.11       ----

> <Gold.Chemscore.Fitness>
14.9994

> <Gold.Chemscore.DG>
-20.6103

> <Gold.Chemscore.ZeroCoef>
-5.4800

> <Gold.Chemscore.Hbond>
2.0084

> <Gold.Chemscore.Metal>
0.0000

> <Gold.Chemscore.Lipo>
109.3665

> <Gold.Chemscore.Internal_Hbond>
0.0000

> <Gold.Chemscore.DEClash>
2.5043

> <Gold.Chemscore.DEInternal>
3.1066

> <Gold.Chemscore.Rot>
1.7084

> <Gold.Chemscore.Internal.Correction>
   9.000000E+99

> <Gold.Chemscore.Hbonds>
donor molecule, donor type, donor heavy atom, donor atom, acceptor molecule, acceptor atom, score
      L1  H     8    29       P1  8028  0.97
      L1  H    11    30       P1  8028  0.87

> <Gold.Chemscore.Hbond.Weighted>
-6.7080

> <Gold.Chemscore.Metal.Weighted>
-0.0000

> <Gold.Chemscore.Lipo.Weighted>
-12.7959

> <Gold.Chemscore.Internal_Hbond.Weighted>
0.0000

> <Gold.Chemscore.DEClash.Weighted>
2.5043

> <Gold.Chemscore.DEInternal.Weighted>
3.1066

> <Gold.Chemscore.Rot.Weighted>
4.3735

> <Gold.Chemscore.Internal.Correction.Weighted>
   9.000000E+99

> <Gold.Protein.RotatedTorsions>
[ 6907 6896 6895 6894 ] final  115.78 input  -60.11 | X-H torsion
[ 7974 7965 7964 7962 ] final  123.15 input  175.53 | X-H torsion
[ 8008 7997 7996 7995 ] final  -76.40 input   59.86 | X-H torsion
[ 10167 10162 10161 10158 ] final  -92.10 input  -65.29 | X-H torsion
[ 10718 10713 10712 10709 ] final    6.08 input   66.30 | X-H torsion
[ 10763 10752 10751 10750 ] final  150.77 input  -60.55 | X-H torsion
[ 11005 11000 10999 10996 ] final  150.98 input  -57.11 | X-H torsion

> <Gold.Protein.ActiveResidues>
 VAL166  LYS551  ARG553  GLY616  TRP617  ASP618  TYR619  PRO620  LYS621  CYS622 
 ASP623  PHE694  ASN695  SER759  ASP760  ASP761  ALA762  ILE779  LEU786  VAL792 
 PHE793  MET794  SER795  GLU796  ALA797  LYS798  CYS799  TRP800  GLU811  SER814 

> <Gold.Protein.RotatedAtoms>
  152.4720  133.8051  159.6973 H   0  0  0  0  0  0  0  0  0  0  0  0  # atno 6907 bound_to 6896
  150.8714  133.7490  159.2966 H   0  0  0  0  0  0  0  0  0  0  0  0  # atno 6908 bound_to 6896
  151.5024  135.1065  159.9884 H   0  0  0  0  0  0  0  0  0  0  0  0  # atno 6909 bound_to 6896
  145.0993  139.3530  143.4820 H   0  0  0  0  0  0  0  0  0  0  0  0  # atno 7974 bound_to 7965
  154.5502  140.0728  156.8655 H   0  0  0  0  0  0  0  0  0  0  0  0  # atno 8008 bound_to 7997
  155.3009  140.3384  155.4229 H   0  0  0  0  0  0  0  0  0  0  0  0  # atno 8009 bound_to 7997
  156.1954  140.1701  156.7994 H   0  0  0  0  0  0  0  0  0  0  0  0  # atno 8010 bound_to 7997
  140.3382  143.2956  151.9865 H   0  0  0  0  0  0  0  0  0  0  0  0  # atno 10167 bound_to 10162
  156.9170  130.5777  149.5647 H   0  0  0  0  0  0  0  0  0  0  0  0  # atno 10718 bound_to 10713
  154.0929  135.2851  155.3268 H   0  0  0  0  0  0  0  0  0  0  0  0  # atno 10763 bound_to 10752
  154.6608  135.5335  153.8019 H   0  0  0  0  0  0  0  0  0  0  0  0  # atno 10764 bound_to 10752
  153.0407  135.6533  154.1097 H   0  0  0  0  0  0  0  0  0  0  0  0  # atno 10765 bound_to 10752
  140.1178  134.8883  157.2029 H   0  0  0  0  0  0  0  0  0  0  0  0  # atno 11005 bound_to 11000
  146.3530  140.0863  142.8615 LP  0  0  0  0  0  0  0  0  0  0  0  0  # atno 17320 bound_to 7965
  145.0974  140.9324  143.4733 LP  0  0  0  0  0  0  0  0  0  0  0  0  # atno 17321 bound_to 7965
  139.4845  144.6178  151.7312 LP  0  0  0  0  0  0  0  0  0  0  0  0  # atno 17342 bound_to 10162
  140.5333  144.0695  150.6061 LP  0  0  0  0  0  0  0  0  0  0  0  0  # atno 17343 bound_to 10162
  156.0509  130.5578  150.8987 LP  0  0  0  0  0  0  0  0  0  0  0  0  # atno 17370 bound_to 10713
  157.5932  131.0944  150.9084 LP  0  0  0  0  0  0  0  0  0  0  0  0  # atno 17371 bound_to 10713
  140.3005  134.3137  155.7291 LP  0  0  0  0  0  0  0  0  0  0  0  0  # atno 17394 bound_to 11000
  141.2145  133.7589  156.9634 LP  0  0  0  0  0  0  0  0  0  0  0  0  # atno 17395 bound_to 11000

$$$$
