AV-unprocessed.smi:2994|AV-procd|sdf|11405|dock1
  -GOLD-   2272016323D 1   1.00000     0.00000
 Structure written by MMmdl.
 47 49  0  0  0  0  0  0  0  0  1 V2000
  149.6366  132.3860  154.3746 C   0  0  0  0  0  0  0  0  0  0  0  0
  148.5639  133.3657  153.8785 C   0  0  1  0  0  0  0  0  0  0  0  0
  149.1157  134.7168  153.9110 N   0  0  0  0  0  0  0  0  0  0  0  0
  149.6802  135.3013  154.9775 C   0  0  0  0  0  0  0  0  0  0  0  0
  149.7971  134.7482  156.0702 O   0  0  0  0  0  0  0  0  0  0  0  0
  150.0810  136.5505  154.6842 N   0  0  0  0  0  0  0  0  0  0  0  0
  150.7293  137.5110  155.5095 C   0  0  0  0  0  0  0  0  0  0  0  0
  150.9878  138.8545  155.1442 C   0  0  0  0  0  0  0  0  0  0  0  0
  151.6314  139.6995  156.0684 C   0  0  0  0  0  0  0  0  0  0  0  0
  151.9848  139.1826  157.3349 C   0  0  0  0  0  0  0  0  0  0  0  0
  152.6904  140.0454  158.3404 C   0  0  0  0  0  0  0  0  0  0  0  0
  153.8166  139.7131  158.7126 O   0  0  0  0  0  0  0  0  0  0  0  0
  152.0602  141.1598  158.7912 N   0  0  0  0  0  0  0  0  0  0  0  0
  152.6888  142.2678  159.5289 C   0  0  0  0  0  0  0  0  0  0  0  0
  152.8047  143.4889  158.5977 C   0  0  0  0  0  0  0  0  0  0  0  0
  151.4320  143.8807  158.0212 C   0  0  0  0  0  0  0  0  0  0  0  0
  150.7118  142.6680  157.4050 C   0  0  0  0  0  0  0  0  0  0  0  0
  150.6846  141.4889  158.3940 C   0  0  0  0  0  0  0  0  0  0  0  0
  151.7488  137.8993  157.6863 N   0  0  0  0  0  0  0  0  0  0  0  0
  151.1332  137.0946  156.7951 C   0  0  0  0  0  0  0  0  0  0  0  0
  148.0473  132.9547  152.5095 C   0  0  0  0  0  0  0  0  0  0  0  0
  146.7706  133.5302  151.9431 C   0  0  0  0  0  0  0  0  0  0  0  0
  146.8223  132.0819  152.3718 C   0  0  0  0  0  0  0  0  0  0  0  0
  149.2482  131.3681  154.4191 H   0  0  0  0  0  0  0  0  0  0  0  0
  149.9786  132.6498  155.3761 H   0  0  0  0  0  0  0  0  0  0  0  0
  150.5057  132.3809  153.7155 H   0  0  0  0  0  0  0  0  0  0  0  0
  147.7309  133.3158  154.5827 H   0  0  0  0  0  0  0  0  0  0  0  0
  149.0598  135.2480  153.0544 H   0  0  0  0  0  0  0  0  0  0  0  0
  149.8786  136.8645  153.7463 H   0  0  0  0  0  0  0  0  0  0  0  0
  150.7074  139.2623  154.1869 H   0  0  0  0  0  0  0  0  0  0  0  0
  151.8437  140.7265  155.8088 H   0  0  0  0  0  0  0  0  0  0  0  0
  152.0753  142.5138  160.3968 H   0  0  0  0  0  0  0  0  0  0  0  0
  153.6760  142.0348  159.9229 H   0  0  0  0  0  0  0  0  0  0  0  0
  153.2368  144.3325  159.1366 H   0  0  0  0  0  0  0  0  0  0  0  0
  153.4913  143.2588  157.7817 H   0  0  0  0  0  0  0  0  0  0  0  0
  150.8148  144.2942  158.8197 H   0  0  0  0  0  0  0  0  0  0  0  0
  151.5457  144.6703  157.2780 H   0  0  0  0  0  0  0  0  0  0  0  0
  149.6964  142.9426  157.1181 H   0  0  0  0  0  0  0  0  0  0  0  0
  151.2218  142.3647  156.4896 H   0  0  0  0  0  0  0  0  0  0  0  0
  150.1604  140.6414  157.9501 H   0  0  0  0  0  0  0  0  0  0  0  0
  150.1094  141.7578  159.2813 H   0  0  0  0  0  0  0  0  0  0  0  0
  150.9583  136.0800  157.1219 H   0  0  0  0  0  0  0  0  0  0  0  0
  148.8397  132.7598  151.7889 H   0  0  0  0  0  0  0  0  0  0  0  0
  146.1991  134.2155  152.5661 H   0  0  0  0  0  0  0  0  0  0  0  0
  146.7467  133.7406  150.8759 H   0  0  0  0  0  0  0  0  0  0  0  0
  146.8298  131.3252  151.5901 H   0  0  0  0  0  0  0  0  0  0  0  0
  146.2886  131.8093  153.2802 H   0  0  0  0  0  0  0  0  0  0  0  0
  1  2  1  0  0  0  0
  1 24  1  0  0  0  0
  1 25  1  0  0  0  0
  1 26  1  0  0  0  0
  2  3  1  0  0  0  0
  2 21  1  0  0  0  0
  2 27  1  0  0  0  0
  3  4  1  0  0  0  0
  3 28  1  0  0  0  0
  4  5  2  0  0  0  0
  4  6  1  0  0  0  0
  6  7  1  0  0  0  0
  6 29  1  0  0  0  0
  7 20  1  0  0  0  0
  7  8  2  0  0  0  0
  8  9  1  0  0  0  0
  8 30  1  0  0  0  0
  9 10  2  0  0  0  0
  9 31  1  0  0  0  0
 10 11  1  0  0  0  0
 10 19  1  0  0  0  0
 11 12  2  0  0  0  0
 11 13  1  0  0  0  0
 13 18  1  0  0  0  0
 13 14  1  0  0  0  0
 14 15  1  0  0  0  0
 14 32  1  0  0  0  0
 14 33  1  0  0  0  0
 15 16  1  0  0  0  0
 15 34  1  0  0  0  0
 15 35  1  0  0  0  0
 16 17  1  0  0  0  0
 16 36  1  0  0  0  0
 16 37  1  0  0  0  0
 17 18  1  0  0  0  0
 17 38  1  0  0  0  0
 17 39  1  0  0  0  0
 18 40  1  0  0  0  0
 18 41  1  0  0  0  0
 19 20  2  0  0  0  0
 20 42  1  0  0  0  0
 21 23  1  0  0  0  0
 21 22  1  0  0  0  0
 21 43  1  0  0  0  0
 22 23  1  0  0  0  0
 22 44  1  0  0  0  0
 22 45  1  0  0  0  0
 23 46  1  0  0  0  0
 23 47  1  0  0  0  0
M  END
> <s_m_source_file>
AV-unprocessed.smi

> <i_m_source_file_index>
2994

> <i_lp_mmshare_version>
43012

> <i_f3d_flags>
0

> <s_epik_input>
W0NIMl0xW0NIMl1bQ0hdMVtDQEhdKFtDSDNdKVtOSF1DKD1PKVtOSF1jMltjSF1bY0hdYyhuW2NIXTIpQyg9TylOM1tDSDJdW0NIMl1bQ0gyXVtDSDJdW0NIMl0z

> <s_epik_cmdline>
J2VwaWtfcHl0aG9uJywgJy1waCcsICc3LjAnLCAnLXRuJywgJzgnLCAnLW1hJywgJzIwMCcsICctbWV0YWxfYmluZGluZycsICctaW1hZScsICc8aW5maWxlLm1hZT4nLCAnLW9tYWUnLCAnPG91dGZpbGUubWFlPic=

> <r_lp_tautomer_probability>
1

> <r_epik_Ionization_Penalty>
4.52104e-05

> <r_epik_Ionization_Penalty_Charging>
0

> <r_epik_Ionization_Penalty_Neutral>
4.52104e-05

> <r_epik_State_Penalty>
-0

> <r_epik_Charging_Adjusted_Penalty>
0

> <i_epik_Tot_Q>
0

> <i_epik_Tot_abs_Q>
0

> <r_epik_Metal_State_Penalty>
-0

> <b_epik_Metal_Only>
0

> <s_lp_Force_Field>
OPLS_2005

> <r_lp_Energy>
45.5302

> <b_lp_Chiralities_Consistent>
1

> <s_lp_Variant>
AV-unprocessed.smi:2994-2

> <Gold.Version>
5.8.1

> <Gold.Id.Protein>
6NUR|6NUR_protein|mol2

> <Gold.PLP.Fitness>
47.8104

> <Gold.PLP.PLP>
-41.5712

> <Gold.PLP.part.hbond>
-2.9481

> <Gold.PLP.part.metal>
0.0000

> <Gold.PLP.part.buried>
-2.6303

> <Gold.PLP.part.nonpolar>
-36.3021

> <Gold.PLP.part.repulsive>
0.0821

> <Gold.PLP.ligand.clash>
0.0000

> <Gold.PLP.ligand.torsion>
1.7836

> <Gold.PLP.Chemscore.Hbond>
2.5476

> <Gold.PLP.Chemscore.CHOScore>
0.0000

> <Gold.PLP.Chemscore.Metal>
0.0000

> <Gold.Chemscore.Hbonds>
donor molecule, donor type, donor heavy atom, donor atom, acceptor molecule, acceptor atom, score
      L1  H     3    28       P1  7948  0.90
      L1  H     6    29       P1  7948  0.59
      P1  H  7997  8008       L1    12  0.99

> <Gold.PLP.Chemscore.Internal.Correction>
2.1636

> <Gold.Rescore>
     Score         DG    S(hbond)    S(metal)    S(lipo)     H(rot)  DE(clash)    DE(int)     intcor
     18.36     -21.82       2.32        0.00      98.42       1.14       0.18       3.28       ----

> <Gold.Chemscore.Fitness>
18.3606

> <Gold.Chemscore.DG>
-21.8207

> <Gold.Chemscore.ZeroCoef>
-5.4800

> <Gold.Chemscore.Hbond>
2.3183

> <Gold.Chemscore.Metal>
0.0000

> <Gold.Chemscore.Lipo>
98.4230

> <Gold.Chemscore.Internal_Hbond>
0.0000

> <Gold.Chemscore.DEClash>
0.1832

> <Gold.Chemscore.DEInternal>
3.2769

> <Gold.Chemscore.Rot>
1.1399

> <Gold.Chemscore.Internal.Correction>
   9.000000E+99

> <Gold.Chemscore.Hbonds>
donor molecule, donor type, donor heavy atom, donor atom, acceptor molecule, acceptor atom, score
      L1  H     3    28       P1  7948  0.19
      L1  H     6    29       P1  7948  0.29
      P1  H  7997  8008       L1    12  0.66

> <Gold.Chemscore.Hbond.Weighted>
-7.7432

> <Gold.Chemscore.Metal.Weighted>
-0.0000

> <Gold.Chemscore.Lipo.Weighted>
-11.5155

> <Gold.Chemscore.Internal_Hbond.Weighted>
0.0000

> <Gold.Chemscore.DEClash.Weighted>
0.1832

> <Gold.Chemscore.DEInternal.Weighted>
3.2769

> <Gold.Chemscore.Rot.Weighted>
2.9180

> <Gold.Chemscore.Internal.Correction.Weighted>
   9.000000E+99

> <Gold.Protein.RotatedTorsions>
[ 6907 6896 6895 6894 ] final   17.70 input  -60.11 | X-H torsion
[ 7974 7965 7964 7962 ] final  165.69 input  175.53 | X-H torsion
[ 8008 7997 7996 7995 ] final -117.42 input   59.86 | X-H torsion
[ 10167 10162 10161 10158 ] final   21.36 input  -65.29 | X-H torsion
[ 10718 10713 10712 10709 ] final  116.94 input   66.30 | X-H torsion
[ 10763 10752 10751 10750 ] final -163.17 input  -60.55 | X-H torsion
[ 11005 11000 10999 10996 ] final  161.47 input  -57.11 | X-H torsion

> <Gold.Protein.ActiveResidues>
 VAL166  LYS551  ARG553  GLY616  TRP617  ASP618  TYR619  PRO620  LYS621  CYS622 
 ASP623  PHE694  ASN695  SER759  ASP760  ASP761  ALA762  ILE779  LEU786  VAL792 
 PHE793  MET794  SER795  GLU796  ALA797  LYS798  CYS799  TRP800  GLU811  SER814 

> <Gold.Protein.RotatedAtoms>
  151.8537  135.0548  160.0461 H   0  0  0  0  0  0  0  0  0  0  0  0  # atno 6907 bound_to 6896
  152.2716  133.5383  159.5451 H   0  0  0  0  0  0  0  0  0  0  0  0  # atno 6908 bound_to 6896
  150.7154  134.0605  159.3872 H   0  0  0  0  0  0  0  0  0  0  0  0  # atno 6909 bound_to 6896
  144.7492  139.8507  143.6372 H   0  0  0  0  0  0  0  0  0  0  0  0  # atno 7974 bound_to 7965
  155.0835  140.0394  157.2646 H   0  0  0  0  0  0  0  0  0  0  0  0  # atno 8008 bound_to 7997
  154.6888  140.2649  155.6809 H   0  0  0  0  0  0  0  0  0  0  0  0  # atno 8009 bound_to 7997
  156.2721  140.2764  156.1458 H   0  0  0  0  0  0  0  0  0  0  0  0  # atno 8010 bound_to 7997
  140.5433  143.9639  150.6532 H   0  0  0  0  0  0  0  0  0  0  0  0  # atno 10167 bound_to 10162
  157.6128  131.1031  150.7545 H   0  0  0  0  0  0  0  0  0  0  0  0  # atno 10718 bound_to 10713
  154.7147  135.3013  154.9143 H   0  0  0  0  0  0  0  0  0  0  0  0  # atno 10763 bound_to 10752
  154.0033  135.6704  153.4764 H   0  0  0  0  0  0  0  0  0  0  0  0  # atno 10764 bound_to 10752
  153.0783  135.5022  154.8366 H   0  0  0  0  0  0  0  0  0  0  0  0  # atno 10765 bound_to 10752
  140.2161  134.8231  157.3172 H   0  0  0  0  0  0  0  0  0  0  0  0  # atno 11005 bound_to 11000
  146.1418  139.4477  143.0104 LP  0  0  0  0  0  0  0  0  0  0  0  0  # atno 17320 bound_to 7965
  145.7006  141.0137  143.1506 LP  0  0  0  0  0  0  0  0  0  0  0  0  # atno 17321 bound_to 7965
  140.3045  143.3238  152.0939 LP  0  0  0  0  0  0  0  0  0  0  0  0  # atno 17342 bound_to 10162
  139.4997  144.6675  151.6321 LP  0  0  0  0  0  0  0  0  0  0  0  0  # atno 17343 bound_to 10162
  156.7918  130.4892  149.5383 LP  0  0  0  0  0  0  0  0  0  0  0  0  # atno 17370 bound_to 10713
  156.1238  130.6129  151.0233 LP  0  0  0  0  0  0  0  0  0  0  0  0  # atno 17371 bound_to 10713
  140.1899  134.4385  155.7722 LP  0  0  0  0  0  0  0  0  0  0  0  0  # atno 17394 bound_to 11000
  141.2225  133.7022  156.8009 LP  0  0  0  0  0  0  0  0  0  0  0  0  # atno 17395 bound_to 11000

$$$$
