AV-unprocessed.smi:11|AV-procd|sdf|55|dock9
  -GOLD-   2262015173D 1   1.00000     0.00000
 Structure written by MMmdl.
 33 35  0  0  0  0  0  0  0  0  1 V2000
  149.8499  137.5725  155.8067 C   0  0  0  0  0  0  0  0  0  0  0  0
  149.3985  139.0324  155.9802 C   0  0  0  0  0  0  0  0  0  0  0  0
  150.3224  140.0935  155.3324 C   0  0  1  0  0  0  0  0  0  0  0  0
  150.4702  139.7860  153.9598 O   0  0  0  0  0  0  0  0  0  0  0  0
  149.8450  141.5406  155.5298 C   0  0  0  0  0  0  0  0  0  0  0  0
  150.4134  141.9118  156.8979 C   0  0  0  0  0  0  0  0  0  0  0  0
  151.6726  141.1862  156.9830 N   0  0  0  0  0  0  0  0  0  0  0  0
  152.3828  141.0911  158.1969 C   0  0  0  0  0  0  0  0  0  0  0  0
  153.1064  139.9646  158.4249 N   0  0  0  0  0  0  0  0  0  0  0  0
  153.7985  139.8336  159.5601 C   0  0  0  0  0  0  0  0  0  0  0  0
  153.8974  140.6880  160.5807 N   0  0  0  0  0  0  0  0  0  0  0  0
  153.1591  141.8117  160.3597 C   0  0  0  0  0  0  0  0  0  0  0  0
  153.0209  142.8937  161.2035 N   0  0  0  0  0  0  0  0  0  0  0  0
  152.1804  143.8376  160.6406 C   0  0  0  0  0  0  0  0  0  0  0  0
  151.7565  143.3848  159.4173 C   0  0  0  0  0  0  0  0  0  0  0  0
  152.3721  142.0979  159.2064 C   0  0  0  0  0  0  0  0  0  0  0  0
  151.7061  140.1045  156.0080 C   0  0  0  0  0  0  0  0  0  0  0  0
  153.4553  143.0030  162.1085 H   0  0  0  0  0  0  0  0  0  0  0  0
  149.1756  136.9003  156.3373 H   0  0  0  0  0  0  0  0  0  0  0  0
  150.8512  137.4117  156.2061 H   0  0  0  0  0  0  0  0  0  0  0  0
  149.8512  137.2680  154.7609 H   0  0  0  0  0  0  0  0  0  0  0  0
  148.3877  139.1345  155.5835 H   0  0  0  0  0  0  0  0  0  0  0  0
  149.3166  139.2391  157.0481 H   0  0  0  0  0  0  0  0  0  0  0  0
  149.6890  140.0622  153.5053 H   0  0  0  0  0  0  0  0  0  0  0  0
  150.2954  142.1872  154.7749 H   0  0  0  0  0  0  0  0  0  0  0  0
  148.7660  141.6751  155.4680 H   0  0  0  0  0  0  0  0  0  0  0  0
  150.5639  142.9873  156.9950 H   0  0  0  0  0  0  0  0  0  0  0  0
  149.7397  141.5846  157.6909 H   0  0  0  0  0  0  0  0  0  0  0  0
  154.3519  138.9125  159.6663 H   0  0  0  0  0  0  0  0  0  0  0  0
  151.9493  144.7563  161.1596 H   0  0  0  0  0  0  0  0  0  0  0  0
  151.0883  143.8946  158.7398 H   0  0  0  0  0  0  0  0  0  0  0  0
  151.9336  139.1408  156.4649 H   0  0  0  0  0  0  0  0  0  0  0  0
  152.4926  140.3298  155.2866 H   0  0  0  0  0  0  0  0  0  0  0  0
  1  2  1  0  0  0  0
  1 19  1  0  0  0  0
  1 20  1  0  0  0  0
  1 21  1  0  0  0  0
  2  3  1  0  0  0  0
  2 22  1  0  0  0  0
  2 23  1  0  0  0  0
  3 17  1  0  0  0  0
  3  4  1  0  0  0  0
  3  5  1  0  0  0  0
  4 24  1  0  0  0  0
  5  6  1  0  0  0  0
  5 25  1  0  0  0  0
  5 26  1  0  0  0  0
  6  7  1  0  0  0  0
  6 27  1  0  0  0  0
  6 28  1  0  0  0  0
  7  8  1  0  0  0  0
  7 17  1  0  0  0  0
  8 16  1  0  0  0  0
  8  9  2  0  0  0  0
  9 10  1  0  0  0  0
 10 11  2  0  0  0  0
 10 29  1  0  0  0  0
 11 12  1  0  0  0  0
 12 16  2  0  0  0  0
 12 13  1  0  0  0  0
 13 18  1  0  0  0  0
 13 14  1  0  0  0  0
 14 15  2  0  0  0  0
 14 30  1  0  0  0  0
 15 16  1  0  0  0  0
 15 31  1  0  0  0  0
 17 32  1  0  0  0  0
 17 33  1  0  0  0  0
M  END
> <s_m_source_file>
AV-unprocessed.smi

> <i_m_source_file_index>
11

> <i_lp_mmshare_version>
43012

> <i_f3d_flags>
0

> <s_epik_input>
W0NIM11bQ0gyXVtDQEBdMShbT0hdKVtDSDJdW0NIMl1OKFtDSDJdMSljKG5bY0hdbjIpYyhjMjMpW2NIXVtjSF1bbkhdMw==

> <s_epik_cmdline>
J2VwaWtfcHl0aG9uJywgJy1waCcsICc3LjAnLCAnLXRuJywgJzgnLCAnLW1hJywgJzIwMCcsICctbWV0YWxfYmluZGluZycsICctaW1hZScsICc8aW5maWxlLm1hZT4nLCAnLW9tYWUnLCAnPG91dGZpbGUubWFlPic=

> <r_lp_tautomer_probability>
0.999998

> <r_epik_Ionization_Penalty>
0.0511253

> <r_epik_Ionization_Penalty_Charging>
0

> <r_epik_Ionization_Penalty_Neutral>
0.0511253

> <r_epik_State_Penalty>
0.0394181

> <r_epik_Charging_Adjusted_Penalty>
0.0394181

> <i_epik_Tot_Q>
0

> <i_epik_Tot_abs_Q>
0

> <r_epik_Metal_State_Penalty>
0.0367127

> <b_epik_Metal_Only>
0

> <s_lp_Force_Field>
OPLS_2005

> <r_lp_Energy>
27.4132

> <b_lp_Chiralities_Consistent>
1

> <s_lp_Variant>
AV-unprocessed.smi:11-1

> <Gold.Version>
5.8.1

> <Gold.Id.Protein>
6NUR|6NUR_protein|mol2

> <Gold.PLP.Fitness>
38.4900

> <Gold.PLP.PLP>
-32.2338

> <Gold.PLP.part.hbond>
-3.0000

> <Gold.PLP.part.metal>
0.0000

> <Gold.PLP.part.buried>
-3.2647

> <Gold.PLP.part.nonpolar>
-24.7863

> <Gold.PLP.part.repulsive>
0.0428

> <Gold.PLP.ligand.clash>
0.0000

> <Gold.PLP.ligand.torsion>
0.2158

> <Gold.PLP.Chemscore.Hbond>
2.1487

> <Gold.PLP.Chemscore.CHOScore>
0.0000

> <Gold.PLP.Chemscore.Metal>
0.0000

> <Gold.Chemscore.Hbonds>
donor molecule, donor type, donor heavy atom, donor atom, acceptor molecule, acceptor atom, score
      L1  H     4    24       P1  7957  0.08
      P1  H  7989  7998       L1     4  1.00
      P1  H  7997  8009       L1     9  0.90

> <Gold.PLP.Chemscore.Internal.Correction>
0.2415

> <Gold.Rescore>
     Score         DG    S(hbond)    S(metal)    S(lipo)     H(rot)  DE(clash)    DE(int)     intcor
     13.17     -13.32       1.26        0.00      62.37       1.43       0.00       0.15       ----

> <Gold.Chemscore.Fitness>
13.1727

> <Gold.Chemscore.DG>
-13.3249

> <Gold.Chemscore.ZeroCoef>
-5.4800

> <Gold.Chemscore.Hbond>
1.2588

> <Gold.Chemscore.Metal>
0.0000

> <Gold.Chemscore.Lipo>
62.3681

> <Gold.Chemscore.Internal_Hbond>
0.0000

> <Gold.Chemscore.DEClash>
0.0000

> <Gold.Chemscore.DEInternal>
0.1521

> <Gold.Chemscore.Rot>
1.4283

> <Gold.Chemscore.Internal.Correction>
   9.000000E+99

> <Gold.Chemscore.Hbonds>
donor molecule, donor type, donor heavy atom, donor atom, acceptor molecule, acceptor atom, score
      L1  H     4    24       P1  7957  0.09
      P1  H  7989  7998       L1     4  0.17
      P1  H  7997  8009       L1     9  0.15

> <Gold.Chemscore.Hbond.Weighted>
-4.2044

> <Gold.Chemscore.Metal.Weighted>
-0.0000

> <Gold.Chemscore.Lipo.Weighted>
-7.2971

> <Gold.Chemscore.Internal_Hbond.Weighted>
0.0000

> <Gold.Chemscore.DEClash.Weighted>
0.0000

> <Gold.Chemscore.DEInternal.Weighted>
0.1521

> <Gold.Chemscore.Rot.Weighted>
3.6566

> <Gold.Chemscore.Internal.Correction.Weighted>
   9.000000E+99

> <Gold.Protein.RotatedTorsions>
[ 6907 6896 6895 6894 ] final   67.03 input  -60.11 | X-H torsion
[ 7974 7965 7964 7962 ] final  -32.61 input  175.53 | X-H torsion
[ 8008 7997 7996 7995 ] final  165.89 input   59.86 | X-H torsion
[ 10167 10162 10161 10158 ] final  179.36 input  -65.29 | X-H torsion
[ 10718 10713 10712 10709 ] final  -26.68 input   66.30 | X-H torsion
[ 10763 10752 10751 10750 ] final -120.57 input  -60.55 | X-H torsion
[ 11005 11000 10999 10996 ] final -157.59 input  -57.11 | X-H torsion

> <Gold.Protein.ActiveResidues>
 VAL166  LYS551  ARG553  GLY616  TRP617  ASP618  TYR619  PRO620  LYS621  CYS622 
 ASP623  PHE694  ASN695  SER759  ASP760  ASP761  ALA762  ILE779  LEU786  VAL792 
 PHE793  MET794  SER795  GLU796  ALA797  LYS798  CYS799  TRP800  GLU811  SER814 

> <Gold.Protein.RotatedAtoms>
  152.4523  134.5366  159.9826 H   0  0  0  0  0  0  0  0  0  0  0  0  # atno 6907 bound_to 6896
  151.5436  133.3423  159.2948 H   0  0  0  0  0  0  0  0  0  0  0  0  # atno 6908 bound_to 6896
  150.8456  134.7795  159.7031 H   0  0  0  0  0  0  0  0  0  0  0  0  # atno 6909 bound_to 6896
  146.0977  140.5813  142.8835 H   0  0  0  0  0  0  0  0  0  0  0  0  # atno 7974 bound_to 7965
  156.1763  140.1658  156.8356 H   0  0  0  0  0  0  0  0  0  0  0  0  # atno 8008 bound_to 7997
  154.5311  140.0756  156.8380 H   0  0  0  0  0  0  0  0  0  0  0  0  # atno 8009 bound_to 7997
  155.3405  140.3384  155.4241 H   0  0  0  0  0  0  0  0  0  0  0  0  # atno 8010 bound_to 7997
  139.5333  144.2570  152.0738 H   0  0  0  0  0  0  0  0  0  0  0  0  # atno 10167 bound_to 10162
  156.4481  130.4478  149.7008 H   0  0  0  0  0  0  0  0  0  0  0  0  # atno 10718 bound_to 10713
  154.8647  135.4198  154.2481 H   0  0  0  0  0  0  0  0  0  0  0  0  # atno 10763 bound_to 10752
  153.3433  135.6995  153.6854 H   0  0  0  0  0  0  0  0  0  0  0  0  # atno 10764 bound_to 10752
  153.5824  135.3570  155.2853 H   0  0  0  0  0  0  0  0  0  0  0  0  # atno 10765 bound_to 10752
  140.6629  134.4330  157.5234 H   0  0  0  0  0  0  0  0  0  0  0  0  # atno 11005 bound_to 11000
  144.7408  140.4936  143.6871 LP  0  0  0  0  0  0  0  0  0  0  0  0  # atno 17320 bound_to 7965
  145.5917  139.1496  143.3179 LP  0  0  0  0  0  0  0  0  0  0  0  0  # atno 17321 bound_to 7965
  140.2037  144.4633  150.6419 LP  0  0  0  0  0  0  0  0  0  0  0  0  # atno 17342 bound_to 10162
  140.6525  143.2228  151.6045 LP  0  0  0  0  0  0  0  0  0  0  0  0  # atno 17343 bound_to 10162
  156.3846  130.7596  151.2592 LP  0  0  0  0  0  0  0  0  0  0  0  0  # atno 17370 bound_to 10713
  157.7504  131.0286  150.4055 LP  0  0  0  0  0  0  0  0  0  0  0  0  # atno 17371 bound_to 10713
  139.9007  134.8563  156.1909 LP  0  0  0  0  0  0  0  0  0  0  0  0  # atno 17394 bound_to 11000
  141.0451  133.6917  156.1669 LP  0  0  0  0  0  0  0  0  0  0  0  0  # atno 17395 bound_to 11000

$$$$
