AV-unprocessed.smi:2874|AV-procd|sdf|11039|dock9
  -GOLD-   2272015503D 1   1.00000     0.00000
 Structure written by MMmdl.
 40 42  0  0  0  0  0  0  0  0  2 V2000
  153.8330  137.5470  157.2046 C   0  0  0  0  0  0  0  0  0  0  0  0
  153.6003  138.5730  156.2564 O   0  0  0  0  0  0  0  0  0  0  0  0
  152.2305  138.9292  156.1636 C   0  0  0  0  0  0  0  0  0  0  0  0
  151.7816  139.5861  157.4766 C   0  0  0  0  0  0  0  0  0  0  0  0
  151.2508  140.9403  157.2667 N   0  0  0  0  0  0  0  0  0  0  0  0
  150.3901  141.4178  156.3244 C   0  0  0  0  0  0  0  0  0  0  0  0
  149.6465  140.4818  155.0238 S   0  0  0  0  0  0  0  0  0  0  0  0
  148.7421  141.6611  153.9774 C   0  0  0  0  0  0  0  0  0  0  0  0
  147.4019  142.0104  154.5999 C   0  0  0  0  0  0  0  0  0  0  0  0
  147.0978  141.4111  155.7557 N   0  0  0  0  0  0  0  0  0  0  0  0
  145.8979  141.7076  156.3005 C   0  0  0  0  0  0  0  0  0  0  0  0
  145.0042  142.6058  155.6825 C   0  0  0  0  0  0  0  0  0  0  0  0
  145.4358  143.1784  154.4695 C   0  0  0  0  0  0  0  0  0  0  0  0
  144.6289  144.0772  153.7770 N   0  0  0  0  0  0  0  0  0  0  0  0
  146.6363  142.8788  153.9295 N   0  0  0  0  0  0  0  0  0  0  0  0
  150.2040  142.7436  156.5738 N   0  3  0  0  0  0  0  0  0  0  0  0
  150.9599  143.1222  157.6833 C   0  0  0  0  0  0  0  0  0  0  0  0
  151.1027  144.3559  158.3102 C   0  0  0  0  0  0  0  0  0  0  0  0
  151.9563  144.4018  159.4323 C   0  0  0  0  0  0  0  0  0  0  0  0
  152.1826  145.8978  160.2608 Cl  0  0  0  0  0  0  0  0  0  0  0  0
  152.6267  143.2482  159.8896 C   0  0  0  0  0  0  0  0  0  0  0  0
  152.4752  142.0025  159.2456 C   0  0  0  0  0  0  0  0  0  0  0  0
  151.6319  141.9679  158.1360 C   0  0  0  0  0  0  0  0  0  0  0  0
  154.8974  137.3146  157.2381 H   0  0  0  0  0  0  0  0  0  0  0  0
  153.2974  136.6350  156.9382 H   0  0  0  0  0  0  0  0  0  0  0  0
  153.5242  137.8560  158.2042 H   0  0  0  0  0  0  0  0  0  0  0  0
  152.0817  139.6176  155.3304 H   0  0  0  0  0  0  0  0  0  0  0  0
  151.6246  138.0437  155.9671 H   0  0  0  0  0  0  0  0  0  0  0  0
  151.0262  138.9826  157.9805 H   0  0  0  0  0  0  0  0  0  0  0  0
  152.6249  139.6607  158.1638 H   0  0  0  0  0  0  0  0  0  0  0  0
  149.3374  142.5676  153.8648 H   0  0  0  0  0  0  0  0  0  0  0  0
  148.6123  141.2356  152.9814 H   0  0  0  0  0  0  0  0  0  0  0  0
  145.6485  141.2242  157.2336 H   0  0  0  0  0  0  0  0  0  0  0  0
  144.0448  142.8400  156.1203 H   0  0  0  0  0  0  0  0  0  0  0  0
  143.7178  144.3406  154.1248 H   0  0  0  0  0  0  0  0  0  0  0  0
  144.9772  144.5869  152.9779 H   0  0  0  0  0  0  0  0  0  0  0  0
  150.5882  145.2389  157.9605 H   0  0  0  0  0  0  0  0  0  0  0  0
  153.2724  143.3191  160.7529 H   0  0  0  0  0  0  0  0  0  0  0  0
  152.9929  141.1254  159.6050 H   0  0  0  0  0  0  0  0  0  0  0  0
  149.6124  143.3458  156.0149 H   0  0  0  0  0  0  0  0  0  0  0  0
  1  2  1  0  0  0  0
  1 24  1  0  0  0  0
  1 25  1  0  0  0  0
  1 26  1  0  0  0  0
  2  3  1  0  0  0  0
  3  4  1  0  0  0  0
  3 27  1  0  0  0  0
  3 28  1  0  0  0  0
  4  5  1  0  0  0  0
  4 29  1  0  0  0  0
  4 30  1  0  0  0  0
  5 23  1  0  0  0  0
  5  6  1  0  0  0  0
  6  7  1  0  0  0  0
  6 16  2  0  0  0  0
  7  8  1  0  0  0  0
  8  9  1  0  0  0  0
  8 31  1  0  0  0  0
  8 32  1  0  0  0  0
  9 15  1  0  0  0  0
  9 10  2  0  0  0  0
 10 11  1  0  0  0  0
 11 12  2  0  0  0  0
 11 33  1  0  0  0  0
 12 13  1  0  0  0  0
 12 34  1  0  0  0  0
 13 14  1  0  0  0  0
 13 15  2  0  0  0  0
 14 35  1  0  0  0  0
 14 36  1  0  0  0  0
 16 17  1  0  0  0  0
 16 40  1  0  0  0  0
 17 23  2  0  0  0  0
 17 18  1  0  0  0  0
 18 19  2  0  0  0  0
 18 37  1  0  0  0  0
 19 20  1  0  0  0  0
 19 21  1  0  0  0  0
 21 22  2  0  0  0  0
 21 38  1  0  0  0  0
 22 23  1  0  0  0  0
 22 39  1  0  0  0  0
M  CHG  1  16   1
M  END
> <s_m_source_file>
AV-unprocessed.smi

> <i_m_source_file_index>
2874

> <i_lp_mmshare_version>
43012

> <i_f3d_flags>
0

> <s_epik_input>
W2NIXTFjKENsKVtjSF1bY0hdYyhjMTIpbihbQ0gyXVtDSDJdT1tDSDNdKWMobjIpU1tDSDJdYzNuW2NIXVtjSF1jKG4zKVtOSDJd

> <s_epik_cmdline>
J2VwaWtfcHl0aG9uJywgJy1waCcsICc3LjAnLCAnLXRuJywgJzgnLCAnLW1hJywgJzIwMCcsICctbWV0YWxfYmluZGluZycsICctaW1hZScsICc8aW5maWxlLm1hZT4nLCAnLW9tYWUnLCAnPG91dGZpbGUubWFlPic=

> <r_lp_tautomer_probability>
1

> <r_epik_Ionization_Penalty>
2.48176

> <r_epik_Ionization_Penalty_Charging>
2.48043

> <r_epik_Ionization_Penalty_Neutral>
0.00132706

> <r_epik_State_Penalty>
2.64401

> <r_epik_Charging_Adjusted_Penalty>
5.12444

> <i_epik_Tot_Q>
1

> <i_epik_Tot_abs_Q>
1

> <r_epik_Metal_State_Penalty>
2.65168

> <b_epik_Metal_Only>
0

> <s_lp_Force_Field>
OPLS_2005

> <r_lp_Energy>
0.65944

> <b_lp_Chiralities_Consistent>
1

> <s_lp_Variant>
AV-unprocessed.smi:2874-2

> <Gold.Version>
5.8.1

> <Gold.Id.Protein>
6NUR|6NUR_protein|mol2

> <Gold.PLP.Fitness>
53.8308

> <Gold.PLP.PLP>
-46.8184

> <Gold.PLP.part.hbond>
-3.0222

> <Gold.PLP.part.metal>
0.0000

> <Gold.PLP.part.buried>
-4.5744

> <Gold.PLP.part.nonpolar>
-40.2470

> <Gold.PLP.part.repulsive>
0.4248

> <Gold.PLP.ligand.clash>
0.0000

> <Gold.PLP.ligand.torsion>
0.7193

> <Gold.PLP.Chemscore.Hbond>
2.8000

> <Gold.PLP.Chemscore.CHOScore>
0.0000

> <Gold.PLP.Chemscore.Metal>
0.0000

> <Gold.Chemscore.Hbonds>
donor molecule, donor type, donor heavy atom, donor atom, acceptor molecule, acceptor atom, score
      L1  H    16    40       P1  8028  2.00
      P1  H  7997  8010       L1     2  0.80

> <Gold.PLP.Chemscore.Internal.Correction>
0.0509

> <Gold.Rescore>
     Score         DG    S(hbond)    S(metal)    S(lipo)     H(rot)  DE(clash)    DE(int)     intcor
     16.16     -17.18       1.66        0.00     107.53       2.51       0.28       0.75       ----

> <Gold.Chemscore.Fitness>
16.1565

> <Gold.Chemscore.DG>
-17.1836

> <Gold.Chemscore.ZeroCoef>
-5.4800

> <Gold.Chemscore.Hbond>
1.6603

> <Gold.Chemscore.Metal>
0.0000

> <Gold.Chemscore.Lipo>
107.5259

> <Gold.Chemscore.Internal_Hbond>
0.0000

> <Gold.Chemscore.DEClash>
0.2750

> <Gold.Chemscore.DEInternal>
0.7521

> <Gold.Chemscore.Rot>
2.5088

> <Gold.Chemscore.Internal.Correction>
   9.000000E+99

> <Gold.Chemscore.Hbonds>
donor molecule, donor type, donor heavy atom, donor atom, acceptor molecule, acceptor atom, score
      L1  H    16    40       P1  8028  0.96
      P1  H  7997  8010       L1     2  0.31

> <Gold.Chemscore.Hbond.Weighted>
-5.5455

> <Gold.Chemscore.Metal.Weighted>
-0.0000

> <Gold.Chemscore.Lipo.Weighted>
-12.5805

> <Gold.Chemscore.Internal_Hbond.Weighted>
0.0000

> <Gold.Chemscore.DEClash.Weighted>
0.2750

> <Gold.Chemscore.DEInternal.Weighted>
0.7521

> <Gold.Chemscore.Rot.Weighted>
6.4224

> <Gold.Chemscore.Internal.Correction.Weighted>
   9.000000E+99

> <Gold.Protein.RotatedTorsions>
[ 6907 6896 6895 6894 ] final   15.87 input  -60.11 | X-H torsion
[ 7974 7965 7964 7962 ] final   66.34 input  175.53 | X-H torsion
[ 8008 7997 7996 7995 ] final   69.09 input   59.86 | X-H torsion
[ 10167 10162 10161 10158 ] final -151.85 input  -65.29 | X-H torsion
[ 10718 10713 10712 10709 ] final  -81.44 input   66.30 | X-H torsion
[ 10763 10752 10751 10750 ] final   84.45 input  -60.55 | X-H torsion
[ 11005 11000 10999 10996 ] final  142.64 input  -57.11 | X-H torsion

> <Gold.Protein.ActiveResidues>
 VAL166  LYS551  ARG553  GLY616  TRP617  ASP618  TYR619  PRO620  LYS621  CYS622 
 ASP623  PHE694  ASN695  SER759  ASP760  ASP761  ALA762  ILE779  LEU786  VAL792 
 PHE793  MET794  SER795  GLU796  ALA797  LYS798  CYS799  TRP800  GLU811  SER814 

> <Gold.Protein.RotatedAtoms>
  151.8250  135.0640  160.0429 H   0  0  0  0  0  0  0  0  0  0  0  0  # atno 6907 bound_to 6896
  152.2923  133.5569  159.5573 H   0  0  0  0  0  0  0  0  0  0  0  0  # atno 6908 bound_to 6896
  150.7235  134.0327  159.3781 H   0  0  0  0  0  0  0  0  0  0  0  0  # atno 6909 bound_to 6896
  145.8278  139.3121  143.1005 H   0  0  0  0  0  0  0  0  0  0  0  0  # atno 7974 bound_to 7965
  155.7183  140.3493  155.5004 H   0  0  0  0  0  0  0  0  0  0  0  0  # atno 8008 bound_to 7997
  155.9293  140.1081  157.1167 H   0  0  0  0  0  0  0  0  0  0  0  0  # atno 8009 bound_to 7997
  154.4082  140.1234  156.4768 H   0  0  0  0  0  0  0  0  0  0  0  0  # atno 8010 bound_to 7997
  139.7232  143.8924  152.2510 H   0  0  0  0  0  0  0  0  0  0  0  0  # atno 10167 bound_to 10162
  156.0050  130.4604  150.3953 H   0  0  0  0  0  0  0  0  0  0  0  0  # atno 10718 bound_to 10713
  153.1383  135.4654  154.9456 H   0  0  0  0  0  0  0  0  0  0  0  0  # atno 10763 bound_to 10752
  154.7725  135.3163  154.8163 H   0  0  0  0  0  0  0  0  0  0  0  0  # atno 10764 bound_to 10752
  153.8691  135.6905  153.4830 H   0  0  0  0  0  0  0  0  0  0  0  0  # atno 10765 bound_to 10752
  140.0492  134.9264  157.0986 H   0  0  0  0  0  0  0  0  0  0  0  0  # atno 11005 bound_to 11000
  145.9604  140.8840  143.0213 LP  0  0  0  0  0  0  0  0  0  0  0  0  # atno 17320 bound_to 7965
  144.6742  140.1805  143.7406 LP  0  0  0  0  0  0  0  0  0  0  0  0  # atno 17321 bound_to 7965
  139.8826  144.7009  150.8860 LP  0  0  0  0  0  0  0  0  0  0  0  0  # atno 17342 bound_to 10162
  140.7758  143.3649  151.1758 LP  0  0  0  0  0  0  0  0  0  0  0  0  # atno 17343 bound_to 10162
  157.2026  131.0441  151.2642 LP  0  0  0  0  0  0  0  0  0  0  0  0  # atno 17370 bound_to 10713
  157.3962  130.7308  149.6733 LP  0  0  0  0  0  0  0  0  0  0  0  0  # atno 17371 bound_to 10713
  140.3944  134.2150  155.7165 LP  0  0  0  0  0  0  0  0  0  0  0  0  # atno 17394 bound_to 11000
  141.1922  133.8178  157.0848 LP  0  0  0  0  0  0  0  0  0  0  0  0  # atno 17395 bound_to 11000

$$$$
