AV-unprocessed.smi:3158|AV-procd|sdf|12042|dock10
  -GOLD-   2272017463D 1   1.00000     0.00000
 Structure written by MMmdl.
 40 40  0  0  0  0  0  0  0  0  2 V2000
  152.7280  138.7198  155.0091 C   0  0  0  0  0  0  0  0  0  0  0  0
  151.7505  137.6706  154.4592 C   0  0  0  0  0  0  0  0  0  0  0  0
  150.3560  137.7267  155.1100 C   0  0  1  0  0  0  0  0  0  0  0  0
  149.5251  138.9047  154.5802 C   0  0  0  0  0  0  0  0  0  0  0  0
  149.6407  136.4745  154.8744 N   0  0  0  0  0  0  0  0  0  0  0  0
  150.1580  135.2428  155.0005 C   0  0  0  0  0  0  0  0  0  0  0  0
  151.3160  135.0247  155.3588 O   0  0  0  0  0  0  0  0  0  0  0  0
  149.2191  134.0726  154.6789 C   0  0  2  0  0  0  0  0  0  0  0  0
  149.9923  132.9647  153.9481 C   0  0  0  0  0  0  0  0  0  0  0  0
  148.0762  134.5164  153.8510 N   0  3  0  0  0  0  0  0  0  0  0  0
  147.3027  133.4257  153.2175 C   0  0  0  0  0  0  0  0  0  0  0  0
  147.4326  133.4642  151.6851 C   0  0  0  0  0  0  0  0  0  0  0  0
  146.1633  133.2640  151.0045 N   0  0  0  0  0  0  0  0  0  0  0  0
  145.8509  132.3331  150.0358 C   0  0  0  0  0  0  0  0  0  0  0  0
  144.5361  132.5084  149.7113 C   0  0  0  0  0  0  0  0  0  0  0  0
  144.1183  133.5751  150.5550 C   0  0  0  0  0  0  0  0  0  0  0  0
  145.0918  134.0187  151.3335 N   0  0  0  0  0  0  0  0  0  0  0  0
  153.6824  138.6707  154.4846 H   0  0  0  0  0  0  0  0  0  0  0  0
  152.9282  138.5675  156.0700 H   0  0  0  0  0  0  0  0  0  0  0  0
  152.3324  139.7283  154.8841 H   0  0  0  0  0  0  0  0  0  0  0  0
  151.6494  137.8211  153.3837 H   0  0  0  0  0  0  0  0  0  0  0  0
  152.1796  136.6757  154.5858 H   0  0  0  0  0  0  0  0  0  0  0  0
  150.4998  137.8734  156.1822 H   0  0  0  0  0  0  0  0  0  0  0  0
  150.0292  139.8538  154.7633 H   0  0  0  0  0  0  0  0  0  0  0  0
  148.5517  138.9516  155.0699 H   0  0  0  0  0  0  0  0  0  0  0  0
  149.3545  138.8201  153.5063 H   0  0  0  0  0  0  0  0  0  0  0  0
  148.6774  136.5557  154.5819 H   0  0  0  0  0  0  0  0  0  0  0  0
  148.8273  133.6561  155.6087 H   0  0  0  0  0  0  0  0  0  0  0  0
  150.8301  132.6047  154.5467 H   0  0  0  0  0  0  0  0  0  0  0  0
  150.3914  133.3148  152.9949 H   0  0  0  0  0  0  0  0  0  0  0  0
  149.3484  132.1091  153.7422 H   0  0  0  0  0  0  0  0  0  0  0  0
  147.4562  135.0542  154.4407 H   0  0  0  0  0  0  0  0  0  0  0  0
  147.6683  132.4703  153.5950 H   0  0  0  0  0  0  0  0  0  0  0  0
  146.2519  133.4905  153.5030 H   0  0  0  0  0  0  0  0  0  0  0  0
  147.8542  134.4186  151.3666 H   0  0  0  0  0  0  0  0  0  0  0  0
  148.1218  132.6887  151.3496 H   0  0  0  0  0  0  0  0  0  0  0  0
  146.5814  131.6317  149.6598 H   0  0  0  0  0  0  0  0  0  0  0  0
  143.9584  131.9555  148.9855 H   0  0  0  0  0  0  0  0  0  0  0  0
  143.1431  134.0339  150.6269 H   0  0  0  0  0  0  0  0  0  0  0  0
  148.4252  135.1150  153.1166 H   0  0  0  0  0  0  0  0  0  0  0  0
  1  2  1  0  0  0  0
  1 18  1  0  0  0  0
  1 19  1  0  0  0  0
  1 20  1  0  0  0  0
  2  3  1  0  0  0  0
  2 21  1  0  0  0  0
  2 22  1  0  0  0  0
  3  4  1  0  0  0  0
  3  5  1  0  0  0  0
  3 23  1  0  0  0  0
  4 24  1  0  0  0  0
  4 25  1  0  0  0  0
  4 26  1  0  0  0  0
  5  6  1  0  0  0  0
  5 27  1  0  0  0  0
  6  7  2  0  0  0  0
  6  8  1  0  0  0  0
  8  9  1  0  0  0  0
  8 10  1  0  0  0  0
  8 28  1  0  0  0  0
  9 29  1  0  0  0  0
  9 30  1  0  0  0  0
  9 31  1  0  0  0  0
 10 11  1  0  0  0  0
 10 32  1  0  0  0  0
 10 40  1  0  0  0  0
 11 12  1  0  0  0  0
 11 33  1  0  0  0  0
 11 34  1  0  0  0  0
 12 13  1  0  0  0  0
 12 35  1  0  0  0  0
 12 36  1  0  0  0  0
 13 17  1  0  0  0  0
 13 14  1  0  0  0  0
 14 15  2  0  0  0  0
 14 37  1  0  0  0  0
 15 16  1  0  0  0  0
 15 38  1  0  0  0  0
 16 17  2  0  0  0  0
 16 39  1  0  0  0  0
M  CHG  1  10   1
M  END
> <s_m_source_file>
AV-unprocessed.smi

> <i_m_source_file_index>
3158

> <i_lp_mmshare_version>
43012

> <i_f3d_flags>
0

> <s_epik_input>
W0NIM11bQ0gyXVtDQEhdKFtDSDNdKVtOSF1DKD1PKVtDQEhdKFtDSDNdKVtOSF1bQ0gyXVtDSDJdbjFbY0hdW2NIXVtjSF1uMQ==

> <s_epik_cmdline>
J2VwaWtfcHl0aG9uJywgJy1waCcsICc3LjAnLCAnLXRuJywgJzgnLCAnLW1hJywgJzIwMCcsICctbWV0YWxfYmluZGluZycsICctaW1hZScsICc8aW5maWxlLm1hZT4nLCAnLW9tYWUnLCAnPG91dGZpbGUubWFlPic=

> <r_lp_tautomer_probability>
1

> <r_epik_Ionization_Penalty>
0.20724

> <r_epik_Ionization_Penalty_Charging>
0.207237

> <r_epik_Ionization_Penalty_Neutral>
3.33806e-06

> <r_epik_State_Penalty>
0.197234

> <r_epik_Charging_Adjusted_Penalty>
0.404471

> <i_epik_Tot_Q>
1

> <i_epik_Tot_abs_Q>
1

> <r_epik_Metal_State_Penalty>
0.197524

> <b_epik_Metal_Only>
0

> <s_lp_Force_Field>
OPLS_2005

> <r_lp_Energy>
6.13047

> <b_lp_Chiralities_Consistent>
1

> <s_lp_Variant>
AV-unprocessed.smi:3158-2

> <Gold.Version>
5.8.1

> <Gold.Id.Protein>
6NUR|6NUR_protein|mol2

> <Gold.PLP.Fitness>
47.5178

> <Gold.PLP.PLP>
-35.8675

> <Gold.PLP.part.hbond>
-3.0000

> <Gold.PLP.part.metal>
0.0000

> <Gold.PLP.part.buried>
-3.9187

> <Gold.PLP.part.nonpolar>
-28.8518

> <Gold.PLP.part.repulsive>
0.2185

> <Gold.PLP.ligand.clash>
0.0000

> <Gold.PLP.ligand.torsion>
1.7216

> <Gold.PLP.Chemscore.Hbond>
3.0000

> <Gold.PLP.Chemscore.CHOScore>
2.0000

> <Gold.PLP.Chemscore.Metal>
0.0000

> <Gold.Chemscore.Hbonds>
donor molecule, donor type, donor heavy atom, donor atom, acceptor molecule, acceptor atom, score
      L1  H    10    40       P1  7948  2.00
      P1  H 10752 10764       L1     7  0.88
      L1  C    14    37       P1 10747  0.89
      L1  C    16    39       P1 10186  1.00

> <Gold.PLP.Chemscore.Internal.Correction>
0.0934

> <Gold.Rescore>
     Score         DG    S(hbond)    S(metal)    S(lipo)     H(rot)  DE(clash)    DE(int)     intcor
     12.30     -15.61       1.86        0.00      81.81       2.21       0.02       3.30       ----

> <Gold.Chemscore.Fitness>
12.2971

> <Gold.Chemscore.DG>
-15.6145

> <Gold.Chemscore.ZeroCoef>
-5.4800

> <Gold.Chemscore.Hbond>
1.8649

> <Gold.Chemscore.Metal>
0.0000

> <Gold.Chemscore.Lipo>
81.8084

> <Gold.Chemscore.Internal_Hbond>
0.0000

> <Gold.Chemscore.DEClash>
0.0197

> <Gold.Chemscore.DEInternal>
3.2977

> <Gold.Chemscore.Rot>
2.2132

> <Gold.Chemscore.Internal.Correction>
   9.000000E+99

> <Gold.Chemscore.Hbonds>
donor molecule, donor type, donor heavy atom, donor atom, acceptor molecule, acceptor atom, score
      L1  H    10    40       P1  7948  0.88
      P1  H 10752 10764       L1     7  0.87

> <Gold.Chemscore.Hbond.Weighted>
-6.2287

> <Gold.Chemscore.Metal.Weighted>
-0.0000

> <Gold.Chemscore.Lipo.Weighted>
-9.5716

> <Gold.Chemscore.Internal_Hbond.Weighted>
0.0000

> <Gold.Chemscore.DEClash.Weighted>
0.0197

> <Gold.Chemscore.DEInternal.Weighted>
3.2977

> <Gold.Chemscore.Rot.Weighted>
5.6658

> <Gold.Chemscore.Internal.Correction.Weighted>
   9.000000E+99

> <Gold.Protein.RotatedTorsions>
[ 6907 6896 6895 6894 ] final   46.78 input  -60.11 | X-H torsion
[ 7974 7965 7964 7962 ] final   17.74 input  175.53 | X-H torsion
[ 8008 7997 7996 7995 ] final -175.13 input   59.86 | X-H torsion
[ 10167 10162 10161 10158 ] final  -56.22 input  -65.29 | X-H torsion
[ 10718 10713 10712 10709 ] final  134.65 input   66.30 | X-H torsion
[ 10763 10752 10751 10750 ] final  -48.89 input  -60.55 | X-H torsion
[ 11005 11000 10999 10996 ] final -122.41 input  -57.11 | X-H torsion

> <Gold.Protein.ActiveResidues>
 VAL166  LYS551  ARG553  GLY616  TRP617  ASP618  TYR619  PRO620  LYS621  CYS622 
 ASP623  PHE694  ASN695  SER759  ASP760  ASP761  ALA762  ILE779  LEU786  VAL792 
 PHE793  MET794  SER795  GLU796  ALA797  LYS798  CYS799  TRP800  GLU811  SER814 

> <Gold.Protein.RotatedAtoms>
  152.2604  134.8040  160.0431 H   0  0  0  0  0  0  0  0  0  0  0  0  # atno 6907 bound_to 6896
  151.8689  133.3466  159.3736 H   0  0  0  0  0  0  0  0  0  0  0  0  # atno 6908 bound_to 6896
  150.7114  134.5060  159.5628 H   0  0  0  0  0  0  0  0  0  0  0  0  # atno 6909 bound_to 6896
  146.2208  139.8558  142.8614 H   0  0  0  0  0  0  0  0  0  0  0  0  # atno 7974 bound_to 7965
  155.9788  140.1177  157.0746 H   0  0  0  0  0  0  0  0  0  0  0  0  # atno 8008 bound_to 7997
  154.4177  140.1148  156.5474 H   0  0  0  0  0  0  0  0  0  0  0  0  # atno 8009 bound_to 7997
  155.6499  140.3473  155.4747 H   0  0  0  0  0  0  0  0  0  0  0  0  # atno 8010 bound_to 7997
  140.6330  143.2468  151.5192 H   0  0  0  0  0  0  0  0  0  0  0  0  # atno 10167 bound_to 10162
  157.4651  131.1076  150.9872 H   0  0  0  0  0  0  0  0  0  0  0  0  # atno 10718 bound_to 10713
  154.0851  135.6585  153.4844 H   0  0  0  0  0  0  0  0  0  0  0  0  # atno 10763 bound_to 10752
  153.0341  135.5189  154.7435 H   0  0  0  0  0  0  0  0  0  0  0  0  # atno 10764 bound_to 10752
  154.6542  135.3005  154.9917 H   0  0  0  0  0  0  0  0  0  0  0  0  # atno 10765 bound_to 10752
  140.9997  134.0420  157.3553 H   0  0  0  0  0  0  0  0  0  0  0  0  # atno 11005 bound_to 11000
  145.2754  141.0122  143.3747 LP  0  0  0  0  0  0  0  0  0  0  0  0  # atno 17320 bound_to 7965
  144.9191  139.4434  143.6550 LP  0  0  0  0  0  0  0  0  0  0  0  0  # atno 17321 bound_to 7965
  139.5542  144.2317  152.1584 LP  0  0  0  0  0  0  0  0  0  0  0  0  # atno 17342 bound_to 10162
  140.1566  144.5065  150.6656 LP  0  0  0  0  0  0  0  0  0  0  0  0  # atno 17343 bound_to 10162
  157.0656  130.5843  149.5393 LP  0  0  0  0  0  0  0  0  0  0  0  0  # atno 17370 bound_to 10713
  156.0046  130.5131  150.7786 LP  0  0  0  0  0  0  0  0  0  0  0  0  # atno 17371 bound_to 10713
  139.9032  135.0172  156.7368 LP  0  0  0  0  0  0  0  0  0  0  0  0  # atno 17394 bound_to 11000
  140.6908  133.9391  155.7965 LP  0  0  0  0  0  0  0  0  0  0  0  0  # atno 17395 bound_to 11000

$$$$
