AV-unprocessed.smi:750|AV-procd|sdf|3588|dock2
  -GOLD-   22720 0583D 1   1.00000     0.00000
 Structure written by MMmdl.
 23 24  0  0  0  0  0  0  0  0  1 V2000
  152.0516  139.9080  156.5237 C   0  0  0  0  0  0  0  0  0  0  0  0
  151.9879  139.4876  158.0059 C   0  0  1  0  0  0  0  0  0  0  0  0
  152.3102  140.6491  158.9591 C   0  0  0  0  0  0  0  0  0  0  0  0
  151.5692  141.8528  158.9026 C   0  0  0  0  0  0  0  0  0  0  0  0
  151.8825  142.9016  159.7874 C   0  0  0  0  0  0  0  0  0  0  0  0
  152.9314  142.7113  160.7061 C   0  0  0  0  0  0  0  0  0  0  0  0
  153.6505  141.5723  160.7790 N   0  0  0  0  0  0  0  0  0  0  0  0
  153.3434  140.5719  159.9256 C   0  0  0  0  0  0  0  0  0  0  0  0
  150.7131  138.8350  158.2794 N   0  0  0  0  0  0  0  0  0  0  0  0
  150.8494  137.5673  158.6914 C   0  0  0  0  0  0  0  0  0  0  0  0
  149.9370  136.8064  159.0046 O   0  0  0  0  0  0  0  0  0  0  0  0
  152.1527  137.2755  158.6918 N   0  0  0  0  0  0  0  0  0  0  0  0
  152.9037  138.3002  158.2923 C   0  0  0  0  0  0  0  0  0  0  0  0
  154.1273  138.3047  158.1649 O   0  0  0  0  0  0  0  0  0  0  0  0
  153.0377  140.2815  156.2467 H   0  0  0  0  0  0  0  0  0  0  0  0
  151.3297  140.6969  156.3108 H   0  0  0  0  0  0  0  0  0  0  0  0
  151.8268  139.0717  155.8600 H   0  0  0  0  0  0  0  0  0  0  0  0
  150.7709  141.9789  158.1866 H   0  0  0  0  0  0  0  0  0  0  0  0
  151.3324  143.8304  159.7608 H   0  0  0  0  0  0  0  0  0  0  0  0
  153.2003  143.4942  161.3997 H   0  0  0  0  0  0  0  0  0  0  0  0
  153.9523  139.6866  160.0307 H   0  0  0  0  0  0  0  0  0  0  0  0
  149.8261  139.3075  158.1826 H   0  0  0  0  0  0  0  0  0  0  0  0
  152.5258  136.3735  158.9496 H   0  0  0  0  0  0  0  0  0  0  0  0
  1  2  1  0  0  0  0
  1 15  1  0  0  0  0
  1 16  1  0  0  0  0
  1 17  1  0  0  0  0
  2 13  1  0  0  0  0
  2  3  1  0  0  0  0
  2  9  1  0  0  0  0
  3  8  1  0  0  0  0
  3  4  2  0  0  0  0
  4  5  1  0  0  0  0
  4 18  1  0  0  0  0
  5  6  2  0  0  0  0
  5 19  1  0  0  0  0
  6  7  1  0  0  0  0
  6 20  1  0  0  0  0
  7  8  2  0  0  0  0
  8 21  1  0  0  0  0
  9 10  1  0  0  0  0
  9 22  1  0  0  0  0
 10 11  2  0  0  0  0
 10 12  1  0  0  0  0
 12 13  1  0  0  0  0
 12 23  1  0  0  0  0
 13 14  2  0  0  0  0
M  END
> <s_m_source_file>
AV-unprocessed.smi

> <i_m_source_file_index>
750

> <i_lp_mmshare_version>
43012

> <i_f3d_flags>
0

> <s_epik_input>
Tz1DMVtOSF1DKD1PKVtOSF1bQ0BAXTEoW0NIM10pYzJbY0hdW2NIXVtjSF1uW2NIXTI=

> <s_epik_cmdline>
J2VwaWtfcHl0aG9uJywgJy1waCcsICc3LjAnLCAnLXRuJywgJzgnLCAnLW1hJywgJzIwMCcsICctbWV0YWxfYmluZGluZycsICctaW1hZScsICc8aW5maWxlLm1hZT4nLCAnLW9tYWUnLCAnPG91dGZpbGUubWFlPic=

> <r_lp_tautomer_probability>
1

> <r_epik_Ionization_Penalty>
0.0296909

> <r_epik_Ionization_Penalty_Charging>
0

> <r_epik_Ionization_Penalty_Neutral>
0.0296909

> <r_epik_State_Penalty>
0.022996

> <r_epik_Charging_Adjusted_Penalty>
0.022996

> <i_epik_Tot_Q>
0

> <i_epik_Tot_abs_Q>
0

> <r_epik_Metal_State_Penalty>
0.427807

> <b_epik_Metal_Only>
0

> <s_lp_Force_Field>
OPLS_2005

> <r_lp_Energy>
18.5111

> <b_lp_Chiralities_Consistent>
1

> <s_lp_Variant>
AV-unprocessed.smi:750-1

> <Gold.Version>
5.8.1

> <Gold.Id.Protein>
6NUR|6NUR_protein|mol2

> <Gold.PLP.Fitness>
29.5759

> <Gold.PLP.PLP>
-23.6686

> <Gold.PLP.part.hbond>
-2.0000

> <Gold.PLP.part.metal>
0.0000

> <Gold.PLP.part.buried>
-4.1400

> <Gold.PLP.part.nonpolar>
-17.6342

> <Gold.PLP.part.repulsive>
0.2023

> <Gold.PLP.ligand.clash>
0.0000

> <Gold.PLP.ligand.torsion>
0.1055

> <Gold.PLP.Chemscore.Hbond>
2.0000

> <Gold.PLP.Chemscore.CHOScore>
0.0000

> <Gold.PLP.Chemscore.Metal>
0.0000

> <Gold.Chemscore.Hbonds>
donor molecule, donor type, donor heavy atom, donor atom, acceptor molecule, acceptor atom, score
      P1  H  6896  6907       L1    11  0.50
      P1  H  7997  8010       L1    14  0.91

> <Gold.PLP.Chemscore.Internal.Correction>
0.1183

> <Gold.Rescore>
     Score         DG    S(hbond)    S(metal)    S(lipo)     H(rot)  DE(clash)    DE(int)     intcor
     14.88     -16.10       1.95        0.00      57.02       1.00       0.00       1.22       ----

> <Gold.Chemscore.Fitness>
14.8775

> <Gold.Chemscore.DG>
-16.0972

> <Gold.Chemscore.ZeroCoef>
-5.4800

> <Gold.Chemscore.Hbond>
1.9478

> <Gold.Chemscore.Metal>
0.0000

> <Gold.Chemscore.Lipo>
57.0209

> <Gold.Chemscore.Internal_Hbond>
0.0000

> <Gold.Chemscore.DEClash>
0.0000

> <Gold.Chemscore.DEInternal>
1.2197

> <Gold.Chemscore.Rot>
1.0000

> <Gold.Chemscore.Internal.Correction>
   9.000000E+99

> <Gold.Chemscore.Hbonds>
donor molecule, donor type, donor heavy atom, donor atom, acceptor molecule, acceptor atom, score
      P1  H  6896  6907       L1    11  0.26
      P1  H  7997  8010       L1    14  0.74

> <Gold.Chemscore.Hbond.Weighted>
-6.5057

> <Gold.Chemscore.Metal.Weighted>
-0.0000

> <Gold.Chemscore.Lipo.Weighted>
-6.6714

> <Gold.Chemscore.Internal_Hbond.Weighted>
0.0000

> <Gold.Chemscore.DEClash.Weighted>
0.0000

> <Gold.Chemscore.DEInternal.Weighted>
1.2197

> <Gold.Chemscore.Rot.Weighted>
2.5600

> <Gold.Chemscore.Internal.Correction.Weighted>
   9.000000E+99

> <Gold.Protein.RotatedTorsions>
[ 6907 6896 6895 6894 ] final  -39.81 input  -60.11 | X-H torsion
[ 7974 7965 7964 7962 ] final  174.52 input  175.53 | X-H torsion
[ 8008 7997 7996 7995 ] final   18.46 input   59.86 | X-H torsion
[ 10167 10162 10161 10158 ] final  -69.20 input  -65.29 | X-H torsion
[ 10718 10713 10712 10709 ] final -175.67 input   66.30 | X-H torsion
[ 10763 10752 10751 10750 ] final  -67.01 input  -60.55 | X-H torsion
[ 11005 11000 10999 10996 ] final  -52.11 input  -57.11 | X-H torsion

> <Gold.Protein.ActiveResidues>
 VAL166  LYS551  ARG553  GLY616  TRP617  ASP618  TYR619  PRO620  LYS621  CYS622 
 ASP623  PHE694  ASN695  SER759  ASP760  ASP761  ALA762  ILE779  LEU786  VAL792 
 PHE793  MET794  SER795  GLU796  ALA797  LYS798  CYS799  TRP800  GLU811  SER814 

> <Gold.Protein.RotatedAtoms>
  150.9858  134.9204  159.7870 H   0  0  0  0  0  0  0  0  0  0  0  0  # atno 6907 bound_to 6896
  152.5236  134.3348  159.9206 H   0  0  0  0  0  0  0  0  0  0  0  0  # atno 6908 bound_to 6896
  151.3354  133.3942  159.2701 H   0  0  0  0  0  0  0  0  0  0  0  0  # atno 6909 bound_to 6896
  144.7220  139.9810  143.6438 H   0  0  0  0  0  0  0  0  0  0  0  0  # atno 7974 bound_to 7965
  154.9063  140.3008  155.5290 H   0  0  0  0  0  0  0  0  0  0  0  0  # atno 8008 bound_to 7997
  156.3016  140.2397  156.4033 H   0  0  0  0  0  0  0  0  0  0  0  0  # atno 8009 bound_to 7997
  154.8470  140.0411  157.1568 H   0  0  0  0  0  0  0  0  0  0  0  0  # atno 8010 bound_to 7997
  140.5449  143.2313  151.7021 H   0  0  0  0  0  0  0  0  0  0  0  0  # atno 10167 bound_to 10162
  156.8033  130.9560  151.3118 H   0  0  0  0  0  0  0  0  0  0  0  0  # atno 10718 bound_to 10713
  154.3682  135.6101  153.5726 H   0  0  0  0  0  0  0  0  0  0  0  0  # atno 10763 bound_to 10752
  152.9791  135.5831  154.4553 H   0  0  0  0  0  0  0  0  0  0  0  0  # atno 10764 bound_to 10752
  154.4302  135.2847  155.1895 H   0  0  0  0  0  0  0  0  0  0  0  0  # atno 10765 bound_to 10752
  141.0907  133.6633  156.3976 H   0  0  0  0  0  0  0  0  0  0  0  0  # atno 11005 bound_to 11000
  146.0488  139.3491  143.0652 LP  0  0  0  0  0  0  0  0  0  0  0  0  # atno 17320 bound_to 7965
  145.8242  140.9664  143.0883 LP  0  0  0  0  0  0  0  0  0  0  0  0  # atno 17321 bound_to 7965
  139.5003  144.3911  152.0279 LP  0  0  0  0  0  0  0  0  0  0  0  0  # atno 17342 bound_to 10162
  140.3023  144.3633  150.6057 LP  0  0  0  0  0  0  0  0  0  0  0  0  # atno 17343 bound_to 10162
  157.6542  130.8910  149.9696 LP  0  0  0  0  0  0  0  0  0  0  0  0  # atno 17370 bound_to 10713
  156.1088  130.3651  150.0086 LP  0  0  0  0  0  0  0  0  0  0  0  0  # atno 17371 bound_to 10713
  140.5258  134.6260  157.5334 LP  0  0  0  0  0  0  0  0  0  0  0  0  # atno 17394 bound_to 11000
  139.9732  134.7257  156.0000 LP  0  0  0  0  0  0  0  0  0  0  0  0  # atno 17395 bound_to 11000

$$$$
