AV-unprocessed.smi:393|AV-procd|sdf|2484|dock5
  -GOLD-   2262022423D 1   1.00000     0.00000
 Structure written by MMmdl.
 43 44  0  0  0  0  0  0  0  0  1 V2000
  150.5029  131.1249  156.2608 C   0  0  0  0  0  0  0  0  0  0  0  0
  150.0882  132.5957  156.3762 C   0  0  0  0  0  0  0  0  0  0  0  0
  149.4158  133.1199  155.0994 C   0  0  0  0  0  0  0  0  0  0  0  0
  148.9425  134.5771  155.2396 C   0  0  0  0  0  0  0  0  0  0  0  0
  150.1109  135.5459  155.4332 C   0  0  0  0  0  0  0  0  0  0  0  0
  150.9459  135.3413  156.3144 O   0  0  0  0  0  0  0  0  0  0  0  0
  150.1645  136.5940  154.5972 N   0  0  0  0  0  0  0  0  0  0  0  0
  151.2261  137.5957  154.5808 C   0  0  0  0  0  0  0  0  0  0  0  0
  150.7885  138.9959  154.9943 C   0  0  0  0  0  0  0  0  0  0  0  0
  149.7238  139.6200  154.3159 C   0  0  0  0  0  0  0  0  0  0  0  0
  149.3330  140.9093  154.7206 C   0  0  0  0  0  0  0  0  0  0  0  0
  149.9321  141.5834  155.7239 N   0  0  0  0  0  0  0  0  0  0  0  0
  150.9686  141.0021  156.3770 C   0  0  0  0  0  0  0  0  0  0  0  0
  151.5871  141.7198  157.4239 N   0  0  0  0  0  0  0  0  0  0  0  0
  151.3338  143.1583  157.4479 C   0  0  0  0  0  0  0  0  0  0  0  0
  152.3035  143.8562  158.4169 C   0  0  0  0  0  0  0  0  0  0  0  0
  152.2117  143.2581  159.7055 O   0  0  0  0  0  0  0  0  0  0  0  0
  152.5721  141.8810  159.6758 C   0  0  0  0  0  0  0  0  0  0  0  0
  151.6102  141.1130  158.7537 C   0  0  0  0  0  0  0  0  0  0  0  0
  151.4253  139.7062  156.0372 C   0  0  0  0  0  0  0  0  0  0  0  0
  150.9668  130.7775  157.1841 H   0  0  0  0  0  0  0  0  0  0  0  0
  151.2209  130.9812  155.4532 H   0  0  0  0  0  0  0  0  0  0  0  0
  149.6412  130.4874  156.0612 H   0  0  0  0  0  0  0  0  0  0  0  0
  149.4090  132.7114  157.2215 H   0  0  0  0  0  0  0  0  0  0  0  0
  150.9670  133.2009  156.6011 H   0  0  0  0  0  0  0  0  0  0  0  0
  150.1146  133.0364  154.2656 H   0  0  0  0  0  0  0  0  0  0  0  0
  148.5649  132.4823  154.8531 H   0  0  0  0  0  0  0  0  0  0  0  0
  148.3674  134.8645  154.3579 H   0  0  0  0  0  0  0  0  0  0  0  0
  148.2714  134.6717  156.0939 H   0  0  0  0  0  0  0  0  0  0  0  0
  149.4365  136.6883  153.9041 H   0  0  0  0  0  0  0  0  0  0  0  0
  152.0104  137.2685  155.2635 H   0  0  0  0  0  0  0  0  0  0  0  0
  151.6771  137.6327  153.5876 H   0  0  0  0  0  0  0  0  0  0  0  0
  149.2104  139.1205  153.5072 H   0  0  0  0  0  0  0  0  0  0  0  0
  148.5160  141.4133  154.2260 H   0  0  0  0  0  0  0  0  0  0  0  0
  151.4383  143.6059  156.4607 H   0  0  0  0  0  0  0  0  0  0  0  0
  150.3043  143.3281  157.7653 H   0  0  0  0  0  0  0  0  0  0  0  0
  153.3291  143.7981  158.0492 H   0  0  0  0  0  0  0  0  0  0  0  0
  152.0549  144.9143  158.4985 H   0  0  0  0  0  0  0  0  0  0  0  0
  153.6043  141.7714  159.3388 H   0  0  0  0  0  0  0  0  0  0  0  0
  152.5232  141.4787  160.6876 H   0  0  0  0  0  0  0  0  0  0  0  0
  150.6029  141.1228  159.1727 H   0  0  0  0  0  0  0  0  0  0  0  0
  151.9278  140.0716  158.6886 H   0  0  0  0  0  0  0  0  0  0  0  0
  152.2398  139.2536  156.5822 H   0  0  0  0  0  0  0  0  0  0  0  0
  1  2  1  0  0  0  0
  1 21  1  0  0  0  0
  1 22  1  0  0  0  0
  1 23  1  0  0  0  0
  2  3  1  0  0  0  0
  2 24  1  0  0  0  0
  2 25  1  0  0  0  0
  3  4  1  0  0  0  0
  3 26  1  0  0  0  0
  3 27  1  0  0  0  0
  4  5  1  0  0  0  0
  4 28  1  0  0  0  0
  4 29  1  0  0  0  0
  5  6  2  0  0  0  0
  5  7  1  0  0  0  0
  7  8  1  0  0  0  0
  7 30  1  0  0  0  0
  8  9  1  0  0  0  0
  8 31  1  0  0  0  0
  8 32  1  0  0  0  0
  9 20  1  0  0  0  0
  9 10  2  0  0  0  0
 10 11  1  0  0  0  0
 10 33  1  0  0  0  0
 11 12  2  0  0  0  0
 11 34  1  0  0  0  0
 12 13  1  0  0  0  0
 13 14  1  0  0  0  0
 13 20  2  0  0  0  0
 14 19  1  0  0  0  0
 14 15  1  0  0  0  0
 15 16  1  0  0  0  0
 15 35  1  0  0  0  0
 15 36  1  0  0  0  0
 16 17  1  0  0  0  0
 16 37  1  0  0  0  0
 16 38  1  0  0  0  0
 17 18  1  0  0  0  0
 18 19  1  0  0  0  0
 18 39  1  0  0  0  0
 18 40  1  0  0  0  0
 19 41  1  0  0  0  0
 19 42  1  0  0  0  0
 20 43  1  0  0  0  0
M  END
> <s_m_source_file>
AV-unprocessed.smi

> <i_m_source_file_index>
393

> <i_lp_mmshare_version>
43012

> <i_f3d_flags>
0

> <s_epik_input>
W0NIM11bQ0gyXVtDSDJdW0NIMl1DKD1PKVtOSF1bQ0gyXWMxW2NIXVtjSF1uYyhbY0hdMSlOMltDSDJdW0NIMl1PW0NIMl1bQ0gyXTI=

> <s_epik_cmdline>
J2VwaWtfcHl0aG9uJywgJy1waCcsICc3LjAnLCAnLXRuJywgJzgnLCAnLW1hJywgJzIwMCcsICctbWV0YWxfYmluZGluZycsICctaW1hZScsICc8aW5maWxlLm1hZT4nLCAnLW9tYWUnLCAnPG91dGZpbGUubWFlPic=

> <r_lp_tautomer_probability>
1

> <r_epik_Ionization_Penalty>
0.00585334

> <r_epik_Ionization_Penalty_Charging>
0

> <r_epik_Ionization_Penalty_Neutral>
0.00585334

> <r_epik_State_Penalty>
0.00430121

> <r_epik_Charging_Adjusted_Penalty>
0.00430121

> <i_epik_Tot_Q>
0

> <i_epik_Tot_abs_Q>
0

> <r_epik_Metal_State_Penalty>
-0

> <b_epik_Metal_Only>
0

> <s_lp_Force_Field>
OPLS_2005

> <r_lp_Energy>
14.3492

> <b_lp_Chiralities_Consistent>
1

> <s_lp_Variant>
AV-unprocessed.smi:393-1

> <Gold.Version>
5.8.1

> <Gold.Id.Protein>
6NUR|6NUR_protein|mol2

> <Gold.PLP.Fitness>
47.7052

> <Gold.PLP.PLP>
-42.2928

> <Gold.PLP.part.hbond>
-3.0000

> <Gold.PLP.part.metal>
0.0000

> <Gold.PLP.part.buried>
-3.0809

> <Gold.PLP.part.nonpolar>
-37.4425

> <Gold.PLP.part.repulsive>
0.2288

> <Gold.PLP.ligand.clash>
0.0000

> <Gold.PLP.ligand.torsion>
0.3508

> <Gold.PLP.Chemscore.Hbond>
1.9120

> <Gold.PLP.Chemscore.CHOScore>
0.0000

> <Gold.PLP.Chemscore.Metal>
0.0000

> <Gold.Chemscore.Hbonds>
donor molecule, donor type, donor heavy atom, donor atom, acceptor molecule, acceptor atom, score
      L1  H     7    30       P1  7948  0.64

> <Gold.PLP.Chemscore.Internal.Correction>
0.3780

> <Gold.Rescore>
     Score         DG    S(hbond)    S(metal)    S(lipo)     H(rot)  DE(clash)    DE(int)     intcor
     15.75     -17.67       1.45        0.00     101.33       1.77       0.32       1.60       ----

> <Gold.Chemscore.Fitness>
15.7491

> <Gold.Chemscore.DG>
-17.6676

> <Gold.Chemscore.ZeroCoef>
-5.4800

> <Gold.Chemscore.Hbond>
1.4548

> <Gold.Chemscore.Metal>
0.0000

> <Gold.Chemscore.Lipo>
101.3307

> <Gold.Chemscore.Internal_Hbond>
0.0000

> <Gold.Chemscore.DEClash>
0.3215

> <Gold.Chemscore.DEInternal>
1.5970

> <Gold.Chemscore.Rot>
1.7684

> <Gold.Chemscore.Internal.Correction>
   9.000000E+99

> <Gold.Chemscore.Hbonds>
donor molecule, donor type, donor heavy atom, donor atom, acceptor molecule, acceptor atom, score
      L1  H     7    30       P1  7948  0.57

> <Gold.Chemscore.Hbond.Weighted>
-4.8589

> <Gold.Chemscore.Metal.Weighted>
-0.0000

> <Gold.Chemscore.Lipo.Weighted>
-11.8557

> <Gold.Chemscore.Internal_Hbond.Weighted>
0.0000

> <Gold.Chemscore.DEClash.Weighted>
0.3215

> <Gold.Chemscore.DEInternal.Weighted>
1.5970

> <Gold.Chemscore.Rot.Weighted>
4.5271

> <Gold.Chemscore.Internal.Correction.Weighted>
   9.000000E+99

> <Gold.Protein.RotatedTorsions>
[ 6907 6896 6895 6894 ] final -133.47 input  -60.11 | X-H torsion
[ 7974 7965 7964 7962 ] final  107.70 input  175.53 | X-H torsion
[ 8008 7997 7996 7995 ] final    3.45 input   59.86 | X-H torsion
[ 10167 10162 10161 10158 ] final   25.32 input  -65.29 | X-H torsion
[ 10718 10713 10712 10709 ] final  121.14 input   66.30 | X-H torsion
[ 10763 10752 10751 10750 ] final -153.63 input  -60.55 | X-H torsion
[ 11005 11000 10999 10996 ] final   -2.73 input  -57.11 | X-H torsion

> <Gold.Protein.ActiveResidues>
 VAL166  LYS551  ARG553  GLY616  TRP617  ASP618  TYR619  PRO620  LYS621  CYS622 
 ASP623  PHE694  ASN695  SER759  ASP760  ASP761  ALA762  ILE779  LEU786  VAL792 
 PHE793  MET794  SER795  GLU796  ALA797  LYS798  CYS799  TRP800  GLU811  SER814 

> <Gold.Protein.RotatedAtoms>
  150.9744  133.6310  159.2732 H   0  0  0  0  0  0  0  0  0  0  0  0  # atno 6907 bound_to 6896
  151.3587  135.0898  159.9437 H   0  0  0  0  0  0  0  0  0  0  0  0  # atno 6908 bound_to 6896
  152.5194  133.9322  159.7640 H   0  0  0  0  0  0  0  0  0  0  0  0  # atno 6909 bound_to 6896
  145.2903  139.2602  143.3868 H   0  0  0  0  0  0  0  0  0  0  0  0  # atno 7974 bound_to 7965
  154.7038  140.2678  155.6694 H   0  0  0  0  0  0  0  0  0  0  0  0  # atno 8008 bound_to 7997
  156.2773  140.2767  156.1581 H   0  0  0  0  0  0  0  0  0  0  0  0  # atno 8009 bound_to 7997
  155.0728  140.0372  157.2604 H   0  0  0  0  0  0  0  0  0  0  0  0  # atno 8010 bound_to 7997
  140.5115  144.0152  150.6375 H   0  0  0  0  0  0  0  0  0  0  0  0  # atno 10167 bound_to 10162
  157.5840  131.1072  150.8132 H   0  0  0  0  0  0  0  0  0  0  0  0  # atno 10718 bound_to 10713
  154.7915  135.3208  154.7767 H   0  0  0  0  0  0  0  0  0  0  0  0  # atno 10763 bound_to 10752
  153.8455  135.6867  153.4802 H   0  0  0  0  0  0  0  0  0  0  0  0  # atno 10764 bound_to 10752
  153.1587  135.4669  154.9681 H   0  0  0  0  0  0  0  0  0  0  0  0  # atno 10765 bound_to 10752
  140.6615  133.9316  155.8439 H   0  0  0  0  0  0  0  0  0  0  0  0  # atno 11005 bound_to 11000
  146.3187  140.3392  142.8646 LP  0  0  0  0  0  0  0  0  0  0  0  0  # atno 17320 bound_to 7965
  144.9179  140.7833  143.5767 LP  0  0  0  0  0  0  0  0  0  0  0  0  # atno 17321 bound_to 7965
  140.3476  143.2982  152.0522 LP  0  0  0  0  0  0  0  0  0  0  0  0  # atno 17342 bound_to 10162
  139.4897  144.6397  151.6901 LP  0  0  0  0  0  0  0  0  0  0  0  0  # atno 17343 bound_to 10162
  156.8571  130.5100  149.5307 LP  0  0  0  0  0  0  0  0  0  0  0  0  # atno 17370 bound_to 10713
  156.0887  130.5879  150.9695 LP  0  0  0  0  0  0  0  0  0  0  0  0  # atno 17371 bound_to 10713
  141.0461  134.0551  157.3842 LP  0  0  0  0  0  0  0  0  0  0  0  0  # atno 17394 bound_to 11000
  139.9011  135.0165  156.7274 LP  0  0  0  0  0  0  0  0  0  0  0  0  # atno 17395 bound_to 11000

$$$$
