AV-unprocessed.smi:738|AV-procd|sdf|3538|dock3
  -GOLD-   22720 0533D 1   1.00000     0.00000
 Structure written by MMmdl.
 35 37  0  0  0  0  0  0  0  0  1 V2000
  147.6273  140.7117  152.9659 N   0  0  0  0  0  0  0  0  0  0  0  0
  147.2504  141.2732  154.1188 C   0  0  0  0  0  0  0  0  0  0  0  0
  146.0886  141.6097  154.3399 O   0  0  0  0  0  0  0  0  0  0  0  0
  148.3155  141.4138  155.1673 C   0  0  0  0  0  0  0  0  0  0  0  0
  148.0441  142.0785  156.3827 C   0  0  0  0  0  0  0  0  0  0  0  0
  148.9619  142.2556  157.3560 N   0  0  0  0  0  0  0  0  0  0  0  0
  150.2159  141.7808  157.1630 C   0  0  0  0  0  0  0  0  0  0  0  0
  151.1650  141.9905  158.1806 N   0  0  0  0  0  0  0  0  0  0  0  0
  151.6908  140.7314  158.6881 C   0  0  0  0  0  0  0  0  0  0  0  0
  152.4683  140.9837  159.9862 C   0  0  0  0  0  0  0  0  0  0  0  0
  153.5230  141.9108  159.7474 O   0  0  0  0  0  0  0  0  0  0  0  0
  153.1130  143.1500  159.1650 C   0  0  2  0  0  0  0  0  0  0  0  0
  152.3673  144.1097  160.1040 C   0  0  0  0  0  0  0  0  0  0  0  0
  151.5093  144.9924  159.1842 C   0  0  0  0  0  0  0  0  0  0  0  0
  151.6368  144.4112  157.7662 C   0  0  0  0  0  0  0  0  0  0  0  0
  152.2061  142.9923  157.9334 C   0  0  2  0  0  0  0  0  0  0  0  0
  150.5923  141.1130  155.9727 C   0  0  0  0  0  0  0  0  0  0  0  0
  152.1946  140.5057  155.7388 Cl  0  0  0  0  0  0  0  0  0  0  0  0
  149.6274  140.9317  154.9631 C   0  0  0  0  0  0  0  0  0  0  0  0
  146.9511  140.5871  152.2264 H   0  0  0  0  0  0  0  0  0  0  0  0
  148.5820  140.4092  152.8376 H   0  0  0  0  0  0  0  0  0  0  0  0
  147.0623  142.4794  156.5890 H   0  0  0  0  0  0  0  0  0  0  0  0
  150.8810  140.0250  158.8743 H   0  0  0  0  0  0  0  0  0  0  0  0
  152.3439  140.2821  157.9387 H   0  0  0  0  0  0  0  0  0  0  0  0
  151.8042  141.3448  160.7715 H   0  0  0  0  0  0  0  0  0  0  0  0
  152.9004  140.0514  160.3498 H   0  0  0  0  0  0  0  0  0  0  0  0
  154.0235  143.6579  158.8437 H   0  0  0  0  0  0  0  0  0  0  0  0
  151.7121  143.5695  160.7860 H   0  0  0  0  0  0  0  0  0  0  0  0
  153.0560  144.6941  160.7145 H   0  0  0  0  0  0  0  0  0  0  0  0
  150.4698  144.9723  159.5131 H   0  0  0  0  0  0  0  0  0  0  0  0
  151.8374  146.0320  159.2077 H   0  0  0  0  0  0  0  0  0  0  0  0
  150.6984  144.4518  157.2126 H   0  0  0  0  0  0  0  0  0  0  0  0
  152.3556  145.0105  157.2062 H   0  0  0  0  0  0  0  0  0  0  0  0
  152.7949  142.6956  157.0641 H   0  0  0  0  0  0  0  0  0  0  0  0
  149.9010  140.4292  154.0466 H   0  0  0  0  0  0  0  0  0  0  0  0
  1  2  1  0  0  0  0
  1 20  1  0  0  0  0
  1 21  1  0  0  0  0
  2  3  2  0  0  0  0
  2  4  1  0  0  0  0
  4 19  1  0  0  0  0
  4  5  2  0  0  0  0
  5  6  1  0  0  0  0
  5 22  1  0  0  0  0
  6  7  2  0  0  0  0
  7  8  1  0  0  0  0
  7 17  1  0  0  0  0
  8 16  1  0  0  0  0
  8  9  1  0  0  0  0
  9 10  1  0  0  0  0
  9 23  1  0  0  0  0
  9 24  1  0  0  0  0
 10 11  1  0  0  0  0
 10 25  1  0  0  0  0
 10 26  1  0  0  0  0
 11 12  1  0  0  0  0
 12 16  1  0  0  0  0
 12 13  1  0  0  0  0
 12 27  1  0  0  0  0
 13 14  1  0  0  0  0
 13 28  1  0  0  0  0
 13 29  1  0  0  0  0
 14 15  1  0  0  0  0
 14 30  1  0  0  0  0
 14 31  1  0  0  0  0
 15 16  1  0  0  0  0
 15 32  1  0  0  0  0
 15 33  1  0  0  0  0
 16 34  1  0  0  0  0
 17 18  1  0  0  0  0
 17 19  2  0  0  0  0
 19 35  1  0  0  0  0
M  END
> <s_m_source_file>
AV-unprocessed.smi

> <i_m_source_file_index>
738

> <i_lp_mmshare_version>
43012

> <i_f3d_flags>
0

> <s_epik_input>
W05IMl1DKD1PKWMxW2NIXW5jKGMoQ2wpW2NIXTEpTihbQ0gyXVtDSDJdTzIpW0NASF0oW0NASF0yMylbQ0gyXVtDSDJdW0NIMl0z

> <s_epik_cmdline>
J2VwaWtfcHl0aG9uJywgJy1waCcsICc3LjAnLCAnLXRuJywgJzgnLCAnLW1hJywgJzIwMCcsICctbWV0YWxfYmluZGluZycsICctaW1hZScsICc8aW5maWxlLm1hZT4nLCAnLW9tYWUnLCAnPG91dGZpbGUubWFlPic=

> <r_lp_tautomer_probability>
1

> <r_epik_Ionization_Penalty>
6.75978e-06

> <r_epik_Ionization_Penalty_Charging>
0

> <r_epik_Ionization_Penalty_Neutral>
6.75978e-06

> <r_epik_State_Penalty>
-0

> <r_epik_Charging_Adjusted_Penalty>
0

> <i_epik_Tot_Q>
0

> <i_epik_Tot_abs_Q>
0

> <r_epik_Metal_State_Penalty>
-0

> <b_epik_Metal_Only>
0

> <s_lp_Force_Field>
OPLS_2005

> <r_lp_Energy>
42.794

> <b_lp_Chiralities_Consistent>
1

> <s_lp_Variant>
AV-unprocessed.smi:738-1

> <Gold.Version>
5.8.1

> <Gold.Id.Protein>
6NUR|6NUR_protein|mol2

> <Gold.PLP.Fitness>
35.4753

> <Gold.PLP.PLP>
-33.9329

> <Gold.PLP.part.hbond>
-1.0000

> <Gold.PLP.part.metal>
0.0000

> <Gold.PLP.part.buried>
-2.5916

> <Gold.PLP.part.nonpolar>
-30.2833

> <Gold.PLP.part.repulsive>
0.9543

> <Gold.PLP.ligand.clash>
0.0000

> <Gold.PLP.ligand.torsion>
0.1546

> <Gold.PLP.Chemscore.Hbond>
0.5616

> <Gold.PLP.Chemscore.CHOScore>
0.0000

> <Gold.PLP.Chemscore.Metal>
0.0000

> <Gold.Chemscore.Hbonds>
donor molecule, donor type, donor heavy atom, donor atom, acceptor molecule, acceptor atom, score
      L1  H     1    21       P1  7957  0.59

> <Gold.PLP.Chemscore.Internal.Correction>
0.1669

> <Gold.Rescore>
     Score         DG    S(hbond)    S(metal)    S(lipo)     H(rot)  DE(clash)    DE(int)     intcor
     15.01     -16.63       0.57        0.00     100.87       1.00       0.59       1.03       ----

> <Gold.Chemscore.Fitness>
15.0105

> <Gold.Chemscore.DG>
-16.6267

> <Gold.Chemscore.ZeroCoef>
-5.4800

> <Gold.Chemscore.Hbond>
0.5704

> <Gold.Chemscore.Metal>
0.0000

> <Gold.Chemscore.Lipo>
100.8667

> <Gold.Chemscore.Internal_Hbond>
0.0000

> <Gold.Chemscore.DEClash>
0.5877

> <Gold.Chemscore.DEInternal>
1.0284

> <Gold.Chemscore.Rot>
1.0000

> <Gold.Chemscore.Internal.Correction>
   9.000000E+99

> <Gold.Chemscore.Hbonds>
donor molecule, donor type, donor heavy atom, donor atom, acceptor molecule, acceptor atom, score
      L1  H     1    21       P1  7957  0.58

> <Gold.Chemscore.Hbond.Weighted>
-1.9053

> <Gold.Chemscore.Metal.Weighted>
-0.0000

> <Gold.Chemscore.Lipo.Weighted>
-11.8014

> <Gold.Chemscore.Internal_Hbond.Weighted>
0.0000

> <Gold.Chemscore.DEClash.Weighted>
0.5877

> <Gold.Chemscore.DEInternal.Weighted>
1.0284

> <Gold.Chemscore.Rot.Weighted>
2.5600

> <Gold.Chemscore.Internal.Correction.Weighted>
   9.000000E+99

> <Gold.Protein.RotatedTorsions>
[ 6907 6896 6895 6894 ] final  162.01 input  -60.11 | X-H torsion
[ 7974 7965 7964 7962 ] final  -31.05 input  175.53 | X-H torsion
[ 8008 7997 7996 7995 ] final   58.85 input   59.86 | X-H torsion
[ 10167 10162 10161 10158 ] final   -5.28 input  -65.29 | X-H torsion
[ 10718 10713 10712 10709 ] final -139.28 input   66.30 | X-H torsion
[ 10763 10752 10751 10750 ] final  -11.17 input  -60.55 | X-H torsion
[ 11005 11000 10999 10996 ] final   46.78 input  -57.11 | X-H torsion

> <Gold.Protein.ActiveResidues>
 VAL166  LYS551  ARG553  GLY616  TRP617  ASP618  TYR619  PRO620  LYS621  CYS622 
 ASP623  PHE694  ASN695  SER759  ASP760  ASP761  ALA762  ILE779  LEU786  VAL792 
 PHE793  MET794  SER795  GLU796  ALA797  LYS798  CYS799  TRP800  GLU811  SER814 

> <Gold.Protein.RotatedAtoms>
  151.9469  133.3654  159.3985 H   0  0  0  0  0  0  0  0  0  0  0  0  # atno 6907 bound_to 6896
  150.6988  134.4381  159.5288 H   0  0  0  0  0  0  0  0  0  0  0  0  # atno 6908 bound_to 6896
  152.2047  134.8556  160.0555 H   0  0  0  0  0  0  0  0  0  0  0  0  # atno 6909 bound_to 6896
  146.1097  140.5618  142.8783 H   0  0  0  0  0  0  0  0  0  0  0  0  # atno 7974 bound_to 7965
  155.5567  140.3487  155.4481 H   0  0  0  0  0  0  0  0  0  0  0  0  # atno 8008 bound_to 7997
  156.0544  140.1325  157.0040 H   0  0  0  0  0  0  0  0  0  0  0  0  # atno 8009 bound_to 7997
  154.4449  140.0998  156.6408 H   0  0  0  0  0  0  0  0  0  0  0  0  # atno 8010 bound_to 7997
  140.6957  143.6327  150.8508 H   0  0  0  0  0  0  0  0  0  0  0  0  # atno 10167 bound_to 10162
  156.3089  130.7471  151.1542 H   0  0  0  0  0  0  0  0  0  0  0  0  # atno 10718 bound_to 10713
  153.4798  135.7017  153.5945 H   0  0  0  0  0  0  0  0  0  0  0  0  # atno 10763 bound_to 10752
  153.4163  135.3836  155.2083 H   0  0  0  0  0  0  0  0  0  0  0  0  # atno 10764 bound_to 10752
  154.8722  135.3917  154.4246 H   0  0  0  0  0  0  0  0  0  0  0  0  # atno 10765 bound_to 10752
  140.1338  134.4671  155.8501 H   0  0  0  0  0  0  0  0  0  0  0  0  # atno 11005 bound_to 11000
  144.7501  140.5168  143.6808 LP  0  0  0  0  0  0  0  0  0  0  0  0  # atno 17320 bound_to 7965
  145.5689  139.1482  143.3299 LP  0  0  0  0  0  0  0  0  0  0  0  0  # atno 17321 bound_to 7965
  140.0044  143.5709  152.2863 LP  0  0  0  0  0  0  0  0  0  0  0  0  # atno 17342 bound_to 10162
  139.6410  144.7654  151.2339 LP  0  0  0  0  0  0  0  0  0  0  0  0  # atno 17343 bound_to 10162
  157.7386  131.0538  150.5283 LP  0  0  0  0  0  0  0  0  0  0  0  0  # atno 17370 bound_to 10713
  156.5420  130.4210  149.6149 LP  0  0  0  0  0  0  0  0  0  0  0  0  # atno 17371 bound_to 10713
  141.2175  133.6806  156.7120 LP  0  0  0  0  0  0  0  0  0  0  0  0  # atno 17394 bound_to 11000
  140.2808  134.8318  157.3931 LP  0  0  0  0  0  0  0  0  0  0  0  0  # atno 17395 bound_to 11000

$$$$
