AV-unprocessed.smi:157|AV-procd|sdf|1315|dock5
  -GOLD-   2262019 03D 1   1.00000     0.00000
 Structure written by MMmdl.
 36 38  0  0  0  0  0  0  0  0  2 V2000
  150.2538  135.0441  157.6948 O   0  0  0  0  0  0  0  0  0  0  0  0
  150.1646  136.3548  157.1769 C   0  0  0  0  0  0  0  0  0  0  0  0
  151.5657  136.9804  157.0242 C   0  0  1  0  0  0  0  0  0  0  0  0
  151.4514  138.0192  156.0479 O   0  0  0  0  0  0  0  0  0  0  0  0
  151.8073  139.2477  156.6029 C   0  0  1  0  0  0  0  0  0  0  0  0
  150.8700  140.2905  156.0896 N   0  0  0  0  0  0  0  0  0  0  0  0
  150.8798  141.5992  156.4187 C   0  0  0  0  0  0  0  0  0  0  0  0
  149.9445  142.3184  155.8218 N   0  3  0  0  0  0  0  0  0  0  0  0
  149.2367  141.4493  155.0188 C   0  0  0  0  0  0  0  0  0  0  0  0
  149.8203  140.1933  155.2053 C   0  0  0  0  0  0  0  0  0  0  0  0
  149.4907  138.9557  154.6316 N   0  0  0  0  0  0  0  0  0  0  0  0
  148.3642  138.7341  154.0356 C   0  0  0  0  0  0  0  0  0  0  0  0
  147.3359  139.6186  153.7548 N   0  0  0  0  0  0  0  0  0  0  0  0
  147.5581  140.9326  153.1780 C   0  0  0  0  0  0  0  0  0  0  0  0
  148.1088  141.9590  154.1770 C   0  0  1  0  0  0  0  0  0  0  0  0
  147.0365  142.4559  154.9508 O   0  0  0  0  0  0  0  0  0  0  0  0
  151.6717  139.0988  158.1114 C   0  0  0  0  0  0  0  0  0  0  0  0
  152.1391  137.6706  158.2791 C   0  0  1  0  0  0  0  0  0  0  0  0
  151.7053  137.1308  159.5109 O   0  0  0  0  0  0  0  0  0  0  0  0
  152.2634  136.2295  156.6504 H   0  0  0  0  0  0  0  0  0  0  0  0
  152.8066  139.5384  156.2769 H   0  0  0  0  0  0  0  0  0  0  0  0
  148.4830  142.8079  153.6035 H   0  0  0  0  0  0  0  0  0  0  0  0
  153.2292  137.6411  158.2432 H   0  0  0  0  0  0  0  0  0  0  0  0
  150.3321  134.4393  156.9728 H   0  0  0  0  0  0  0  0  0  0  0  0
  149.6824  136.2855  156.2013 H   0  0  0  0  0  0  0  0  0  0  0  0
  149.5198  136.9667  157.8082 H   0  0  0  0  0  0  0  0  0  0  0  0
  151.5930  142.0162  157.1071 H   0  0  0  0  0  0  0  0  0  0  0  0
  148.1459  137.7269  153.6775 H   0  0  0  0  0  0  0  0  0  0  0  0
  146.4364  139.2451  153.4867 H   0  0  0  0  0  0  0  0  0  0  0  0
  148.2736  140.8138  152.3629 H   0  0  0  0  0  0  0  0  0  0  0  0
  146.6363  141.2934  152.7204 H   0  0  0  0  0  0  0  0  0  0  0  0
  147.2929  143.2807  155.3337 H   0  0  0  0  0  0  0  0  0  0  0  0
  152.2785  139.8332  158.6417 H   0  0  0  0  0  0  0  0  0  0  0  0
  150.6260  139.2088  158.4048 H   0  0  0  0  0  0  0  0  0  0  0  0
  151.6169  137.8367  160.1336 H   0  0  0  0  0  0  0  0  0  0  0  0
  149.7894  143.3126  155.9309 H   0  0  0  0  0  0  0  0  0  0  0  0
  1  2  1  0  0  0  0
  1 24  1  0  0  0  0
  2  3  1  0  0  0  0
  2 25  1  0  0  0  0
  2 26  1  0  0  0  0
  3 20  1  0  0  0  0
  3 18  1  0  0  0  0
  3  4  1  0  0  0  0
  4  5  1  0  0  0  0
  5 21  1  0  0  0  0
  5  6  1  0  0  0  0
  5 17  1  0  0  0  0
  6 10  1  0  0  0  0
  6  7  1  0  0  0  0
  7  8  2  0  0  0  0
  7 27  1  0  0  0  0
  8  9  1  0  0  0  0
  8 36  1  0  0  0  0
  9 15  1  0  0  0  0
  9 10  2  0  0  0  0
 10 11  1  0  0  0  0
 11 12  2  0  0  0  0
 12 13  1  0  0  0  0
 12 28  1  0  0  0  0
 13 14  1  0  0  0  0
 13 29  1  0  0  0  0
 14 15  1  0  0  0  0
 14 30  1  0  0  0  0
 14 31  1  0  0  0  0
 15 22  1  0  0  0  0
 15 16  1  0  0  0  0
 16 32  1  0  0  0  0
 17 18  1  0  0  0  0
 17 33  1  0  0  0  0
 17 34  1  0  0  0  0
 18 23  1  0  0  0  0
 18 19  1  0  0  0  0
 19 35  1  0  0  0  0
M  CHG  1   8   1
M  END
> <s_m_source_file>
AV-unprocessed.smi

> <i_m_source_file_index>
157

> <i_lp_mmshare_version>
43012

> <i_f3d_flags>
0

> <s_epik_input>
W09IXVtDSDJdW0NASF0xT1tDQEhdKFtDSDJdW0NAQEhdMVtPSF0pbihbY0hdbjIpYyhjMjMpTj1bQ0hdW05IXVtDSDJdW0NASF0zW09IXQ==

> <s_epik_cmdline>
J2VwaWtfcHl0aG9uJywgJy1waCcsICc3LjAnLCAnLXRuJywgJzgnLCAnLW1hJywgJzIwMCcsICctbWV0YWxfYmluZGluZycsICctaW1hZScsICc8aW5maWxlLm1hZT4nLCAnLW9tYWUnLCAnPG91dGZpbGUubWFlPic=

> <r_epik_Ionization_Penalty>
1.68594

> <r_epik_Ionization_Penalty_Charging>
0

> <r_epik_Ionization_Penalty_Neutral>
1.68594

> <r_epik_State_Penalty>
1.79006

> <r_epik_Charging_Adjusted_Penalty>
1.79006

> <i_epik_Tot_Q>
1

> <i_epik_Tot_abs_Q>
1

> <r_epik_Metal_State_Penalty>
5.85324

> <b_epik_Metal_Only>
0

> <s_epik_Chemistry_Notes>
This compound has an imine and may undergo hydrolysis. This compound contains an acetal/aminal-like group ( X-CH(R)-Y where X, Y are N, S, or O) that may be acid/base labile, releasing an aldehyde.

> <s_lp_Force_Field>
OPLS_2005

> <r_lp_Energy>
55.0394

> <b_lp_Chiralities_Consistent>
1

> <s_lp_Variant>
AV-unprocessed.smi:157-25

> <Gold.Version>
5.8.1

> <Gold.Id.Protein>
6NUR|6NUR_protein|mol2

> <Gold.PLP.Fitness>
41.9616

> <Gold.PLP.PLP>
-26.5967

> <Gold.PLP.part.hbond>
-4.0000

> <Gold.PLP.part.metal>
0.0000

> <Gold.PLP.part.buried>
-2.7895

> <Gold.PLP.part.nonpolar>
-20.3058

> <Gold.PLP.part.repulsive>
0.2968

> <Gold.PLP.ligand.clash>
0.0000

> <Gold.PLP.ligand.torsion>
0.2671

> <Gold.PLP.Chemscore.Hbond>
4.2950

> <Gold.PLP.Chemscore.CHOScore>
1.0000

> <Gold.PLP.Chemscore.Metal>
0.0000

> <Gold.Chemscore.Hbonds>
donor molecule, donor type, donor heavy atom, donor atom, acceptor molecule, acceptor atom, score
      L1  H     8    36       P1  8028  2.00
      L1  H    16    32       P1  8028  0.51
      P1  H  6896  6907       L1    19  0.93
      P1  H  6896  6909       L1     1  0.59
      L1  C    12    28       P1  7948  1.00

> <Gold.PLP.Chemscore.Internal.Correction>
0.0142

> <Gold.Rescore>
     Score         DG    S(hbond)    S(metal)    S(lipo)     H(rot)  DE(clash)    DE(int)     intcor
      7.41      -9.62       2.74        0.00      37.46       3.67       0.19       2.02       ----

> <Gold.Chemscore.Fitness>
7.4119

> <Gold.Chemscore.DG>
-9.6246

> <Gold.Chemscore.ZeroCoef>
-5.4800

> <Gold.Chemscore.Hbond>
2.7386

> <Gold.Chemscore.Metal>
0.0000

> <Gold.Chemscore.Lipo>
37.4576

> <Gold.Chemscore.Internal_Hbond>
0.0000

> <Gold.Chemscore.DEClash>
0.1889

> <Gold.Chemscore.DEInternal>
2.0238

> <Gold.Chemscore.Rot>
3.6659

> <Gold.Chemscore.Internal.Correction>
   9.000000E+99

> <Gold.Chemscore.Hbonds>
donor molecule, donor type, donor heavy atom, donor atom, acceptor molecule, acceptor atom, score
      L1  H     8    36       P1  8028  0.96
      L1  H    16    32       P1  8028  0.05
      P1  H  6896  6907       L1    19  0.86
      P1  H  6896  6909       L1     1  0.35

> <Gold.Chemscore.Hbond.Weighted>
-9.1469

> <Gold.Chemscore.Metal.Weighted>
-0.0000

> <Gold.Chemscore.Lipo.Weighted>
-4.3825

> <Gold.Chemscore.Internal_Hbond.Weighted>
0.0000

> <Gold.Chemscore.DEClash.Weighted>
0.1889

> <Gold.Chemscore.DEInternal.Weighted>
2.0238

> <Gold.Chemscore.Rot.Weighted>
9.3848

> <Gold.Chemscore.Internal.Correction.Weighted>
   9.000000E+99

> <Gold.Protein.RotatedTorsions>
[ 6907 6896 6895 6894 ] final   14.82 input  -60.11 | X-H torsion
[ 7974 7965 7964 7962 ] final -173.17 input  175.53 | X-H torsion
[ 8008 7997 7996 7995 ] final -108.25 input   59.86 | X-H torsion
[ 10167 10162 10161 10158 ] final -164.48 input  -65.29 | X-H torsion
[ 10718 10713 10712 10709 ] final   22.11 input   66.30 | X-H torsion
[ 10763 10752 10751 10750 ] final   -7.87 input  -60.55 | X-H torsion
[ 11005 11000 10999 10996 ] final   25.36 input  -57.11 | X-H torsion

> <Gold.Protein.ActiveResidues>
 VAL166  LYS551  ARG553  GLY616  TRP617  ASP618  TYR619  PRO620  LYS621  CYS622 
 ASP623  PHE694  ASN695  SER759  ASP760  ASP761  ALA762  ILE779  LEU786  VAL792 
 PHE793  MET794  SER795  GLU796  ALA797  LYS798  CYS799  TRP800  GLU811  SER814 

> <Gold.Protein.RotatedAtoms>
  151.8083  135.0688  160.0409 H   0  0  0  0  0  0  0  0  0  0  0  0  # atno 6907 bound_to 6896
  152.3039  133.5679  159.5645 H   0  0  0  0  0  0  0  0  0  0  0  0  # atno 6908 bound_to 6896
  150.7286  134.0167  159.3730 H   0  0  0  0  0  0  0  0  0  0  0  0  # atno 6909 bound_to 6896
  144.7140  140.1662  143.6371 H   0  0  0  0  0  0  0  0  0  0  0  0  # atno 7974 bound_to 7965
  154.9415  140.0402  157.2099 H   0  0  0  0  0  0  0  0  0  0  0  0  # atno 8008 bound_to 7997
  154.8064  140.2860  155.5862 H   0  0  0  0  0  0  0  0  0  0  0  0  # atno 8009 bound_to 7997
  156.2967  140.2545  156.2943 H   0  0  0  0  0  0  0  0  0  0  0  0  # atno 8010 bound_to 7997
  139.6248  144.0554  152.1965 H   0  0  0  0  0  0  0  0  0  0  0  0  # atno 10167 bound_to 10162
  157.1478  130.6661  149.6002 H   0  0  0  0  0  0  0  0  0  0  0  0  # atno 10718 bound_to 10713
  153.4325  135.7012  153.6221 H   0  0  0  0  0  0  0  0  0  0  0  0  # atno 10763 bound_to 10752
  153.4630  135.3732  155.2349 H   0  0  0  0  0  0  0  0  0  0  0  0  # atno 10764 bound_to 10752
  154.8726  135.4024  154.3711 H   0  0  0  0  0  0  0  0  0  0  0  0  # atno 10765 bound_to 10752
  140.3487  134.2252  155.7682 H   0  0  0  0  0  0  0  0  0  0  0  0  # atno 11005 bound_to 11000
  145.8985  139.2417  143.1507 LP  0  0  0  0  0  0  0  0  0  0  0  0  # atno 17320 bound_to 7965
  145.9833  140.8664  143.0103 LP  0  0  0  0  0  0  0  0  0  0  0  0  # atno 17321 bound_to 7965
  140.0205  144.6156  150.7571 LP  0  0  0  0  0  0  0  0  0  0  0  0  # atno 17342 bound_to 10162
  140.7404  143.2804  151.3616 LP  0  0  0  0  0  0  0  0  0  0  0  0  # atno 17343 bound_to 10162
  155.9776  130.4755  150.6604 LP  0  0  0  0  0  0  0  0  0  0  0  0  # atno 17370 bound_to 10713
  157.4248  131.0841  151.1096 LP  0  0  0  0  0  0  0  0  0  0  0  0  # atno 17371 bound_to 10713
  141.2018  133.7953  157.0422 LP  0  0  0  0  0  0  0  0  0  0  0  0  # atno 17394 bound_to 11000
  140.0721  134.9696  157.1484 LP  0  0  0  0  0  0  0  0  0  0  0  0  # atno 17395 bound_to 11000

$$$$
