AV-unprocessed.smi:313|AV-procd|sdf|2310|dock1
  -GOLD-   2262022213D 1   1.00000     0.00000
 Structure written by MMmdl.
 50 51  0  0  0  0  0  0  0  0  1 V2000
  144.2772  137.9688  151.7343 C   0  0  0  0  0  0  0  0  0  0  0  0
  145.6586  137.6236  152.3106 C   0  0  0  0  0  0  0  0  0  0  0  0
  146.0260  136.1294  152.2112 C   0  0  1  0  0  0  0  0  0  0  0  0
  146.1544  135.6759  150.7504 C   0  0  0  0  0  0  0  0  0  0  0  0
  147.2826  135.8587  152.9067 N   0  0  0  0  0  0  0  0  0  0  0  0
  147.4447  135.7625  154.2358 C   0  0  0  0  0  0  0  0  0  0  0  0
  146.5212  135.8752  155.0434 O   0  0  0  0  0  0  0  0  0  0  0  0
  148.8773  135.4919  154.7215 C   0  0  2  0  0  0  0  0  0  0  0  0
  148.8411  134.3029  155.6956 C   0  0  0  0  0  0  0  0  0  0  0  0
  149.4031  136.6514  155.4399 N   0  0  0  0  0  0  0  0  0  0  0  0
  150.6089  137.2087  155.2355 C   0  0  0  0  0  0  0  0  0  0  0  0
  151.4095  136.8052  154.3915 O   0  0  0  0  0  0  0  0  0  0  0  0
  150.9134  138.4207  156.0674 C   0  0  0  0  0  0  0  0  0  0  0  0
  149.9604  138.9763  156.9488 C   0  0  0  0  0  0  0  0  0  0  0  0
  150.3154  140.0951  157.7261 C   0  0  0  0  0  0  0  0  0  0  0  0
  151.6207  140.6296  157.6135 C   0  0  0  0  0  0  0  0  0  0  0  0
  152.0009  141.7454  158.3908 N   0  0  0  0  0  0  0  0  0  0  0  0
  152.0648  141.5781  159.8417 C   0  0  0  0  0  0  0  0  0  0  0  0
  152.7533  142.7897  160.4922 C   0  0  0  0  0  0  0  0  0  0  0  0
  152.0822  143.9846  160.1075 O   0  0  0  0  0  0  0  0  0  0  0  0
  152.1302  144.1874  158.6994 C   0  0  0  0  0  0  0  0  0  0  0  0
  151.4254  143.0242  157.9801 C   0  0  0  0  0  0  0  0  0  0  0  0
  152.5341  140.0938  156.7668 N   0  0  0  0  0  0  0  0  0  0  0  0
  152.1900  139.0204  156.0241 C   0  0  0  0  0  0  0  0  0  0  0  0
  144.1023  139.0442  151.7697 H   0  0  0  0  0  0  0  0  0  0  0  0
  143.4752  137.4886  152.2954 H   0  0  0  0  0  0  0  0  0  0  0  0
  144.1950  137.6530  150.6943 H   0  0  0  0  0  0  0  0  0  0  0  0
  146.4093  138.2101  151.7797 H   0  0  0  0  0  0  0  0  0  0  0  0
  145.7045  137.9469  153.3514 H   0  0  0  0  0  0  0  0  0  0  0  0
  145.2171  135.5495  152.6590 H   0  0  0  0  0  0  0  0  0  0  0  0
  145.2239  135.8383  150.2061 H   0  0  0  0  0  0  0  0  0  0  0  0
  146.3891  134.6126  150.6885 H   0  0  0  0  0  0  0  0  0  0  0  0
  146.9428  136.2221  150.2314 H   0  0  0  0  0  0  0  0  0  0  0  0
  148.1027  135.7519  152.3276 H   0  0  0  0  0  0  0  0  0  0  0  0
  149.5270  135.2531  153.8768 H   0  0  0  0  0  0  0  0  0  0  0  0
  148.4551  133.4053  155.2106 H   0  0  0  0  0  0  0  0  0  0  0  0
  148.2139  134.5077  156.5646 H   0  0  0  0  0  0  0  0  0  0  0  0
  149.8417  134.0689  156.0601 H   0  0  0  0  0  0  0  0  0  0  0  0
  148.7980  137.0703  156.1309 H   0  0  0  0  0  0  0  0  0  0  0  0
  148.9682  138.5580  157.0384 H   0  0  0  0  0  0  0  0  0  0  0  0
  149.5835  140.5331  158.3882 H   0  0  0  0  0  0  0  0  0  0  0  0
  151.0545  141.4665  160.2381 H   0  0  0  0  0  0  0  0  0  0  0  0
  152.6167  140.6713  160.0933 H   0  0  0  0  0  0  0  0  0  0  0  0
  152.7243  142.6999  161.5781 H   0  0  0  0  0  0  0  0  0  0  0  0
  153.8050  142.8409  160.2048 H   0  0  0  0  0  0  0  0  0  0  0  0
  151.6379  145.1297  158.4594 H   0  0  0  0  0  0  0  0  0  0  0  0
  153.1665  144.2772  158.3696 H   0  0  0  0  0  0  0  0  0  0  0  0
  151.5046  143.1756  156.9049 H   0  0  0  0  0  0  0  0  0  0  0  0
  150.3621  143.0256  158.2230 H   0  0  0  0  0  0  0  0  0  0  0  0
  152.9625  138.6350  155.3744 H   0  0  0  0  0  0  0  0  0  0  0  0
  1  2  1  0  0  0  0
  1 25  1  0  0  0  0
  1 26  1  0  0  0  0
  1 27  1  0  0  0  0
  2  3  1  0  0  0  0
  2 28  1  0  0  0  0
  2 29  1  0  0  0  0
  3  4  1  0  0  0  0
  3  5  1  0  0  0  0
  3 30  1  0  0  0  0
  4 31  1  0  0  0  0
  4 32  1  0  0  0  0
  4 33  1  0  0  0  0
  5  6  1  0  0  0  0
  5 34  1  0  0  0  0
  6  7  2  0  0  0  0
  6  8  1  0  0  0  0
  8  9  1  0  0  0  0
  8 10  1  0  0  0  0
  8 35  1  0  0  0  0
  9 36  1  0  0  0  0
  9 37  1  0  0  0  0
  9 38  1  0  0  0  0
 10 11  1  0  0  0  0
 10 39  1  0  0  0  0
 11 12  2  0  0  0  0
 11 13  1  0  0  0  0
 13 24  1  0  0  0  0
 13 14  2  0  0  0  0
 14 15  1  0  0  0  0
 14 40  1  0  0  0  0
 15 16  2  0  0  0  0
 15 41  1  0  0  0  0
 16 17  1  0  0  0  0
 16 23  1  0  0  0  0
 17 22  1  0  0  0  0
 17 18  1  0  0  0  0
 18 19  1  0  0  0  0
 18 42  1  0  0  0  0
 18 43  1  0  0  0  0
 19 20  1  0  0  0  0
 19 44  1  0  0  0  0
 19 45  1  0  0  0  0
 20 21  1  0  0  0  0
 21 22  1  0  0  0  0
 21 46  1  0  0  0  0
 21 47  1  0  0  0  0
 22 48  1  0  0  0  0
 22 49  1  0  0  0  0
 23 24  2  0  0  0  0
 24 50  1  0  0  0  0
M  END
> <s_m_source_file>
AV-unprocessed.smi

> <i_m_source_file_index>
313

> <i_lp_mmshare_version>
43012

> <i_f3d_flags>
0

> <s_epik_input>
W0NIM11bQ0gyXVtDQEhdKFtDSDNdKVtOSF1DKD1PKVtDQEhdKFtDSDNdKVtOSF1DKD1PKWMxW2NIXVtjSF1jKG5bY0hdMSlOMltDSDJdW0NIMl1PW0NIMl1bQ0gyXTI=

> <s_epik_cmdline>
J2VwaWtfcHl0aG9uJywgJy1waCcsICc3LjAnLCAnLXRuJywgJzgnLCAnLW1hJywgJzIwMCcsICctbWV0YWxfYmluZGluZycsICctaW1hZScsICc8aW5maWxlLm1hZT4nLCAnLW9tYWUnLCAnPG91dGZpbGUubWFlPic=

> <r_lp_tautomer_probability>
1

> <r_epik_Ionization_Penalty>
9.96442e-06

> <r_epik_Ionization_Penalty_Charging>
0

> <r_epik_Ionization_Penalty_Neutral>
9.96442e-06

> <r_epik_State_Penalty>
-0

> <r_epik_Charging_Adjusted_Penalty>
0

> <i_epik_Tot_Q>
0

> <i_epik_Tot_abs_Q>
0

> <r_epik_Metal_State_Penalty>
-0

> <b_epik_Metal_Only>
0

> <s_lp_Force_Field>
OPLS_2005

> <r_lp_Energy>
19.2481

> <b_lp_Chiralities_Consistent>
1

> <s_lp_Variant>
AV-unprocessed.smi:313-2

> <Gold.Version>
5.8.1

> <Gold.Id.Protein>
6NUR|6NUR_protein|mol2

> <Gold.PLP.Fitness>
41.5232

> <Gold.PLP.PLP>
-33.5024

> <Gold.PLP.part.hbond>
-2.8168

> <Gold.PLP.part.metal>
0.0000

> <Gold.PLP.part.buried>
-4.0314

> <Gold.PLP.part.nonpolar>
-26.9882

> <Gold.PLP.part.repulsive>
1.1020

> <Gold.PLP.ligand.clash>
0.0000

> <Gold.PLP.ligand.torsion>
0.7208

> <Gold.PLP.Chemscore.Hbond>
3.0000

> <Gold.PLP.Chemscore.CHOScore>
0.0000

> <Gold.PLP.Chemscore.Metal>
0.0000

> <Gold.Chemscore.Hbonds>
donor molecule, donor type, donor heavy atom, donor atom, acceptor molecule, acceptor atom, score
      P1  H  7997  8009       L1    23  1.00
      P1  H 10752 10764       L1    12  1.00

> <Gold.PLP.Chemscore.Internal.Correction>
0.4623

> <Gold.Rescore>
     Score         DG    S(hbond)    S(metal)    S(lipo)     H(rot)  DE(clash)    DE(int)     intcor
     19.02     -19.98       2.86        0.00      81.37       1.79       0.06       0.90       ----

> <Gold.Chemscore.Fitness>
19.0198

> <Gold.Chemscore.DG>
-19.9804

> <Gold.Chemscore.ZeroCoef>
-5.4800

> <Gold.Chemscore.Hbond>
2.8622

> <Gold.Chemscore.Metal>
0.0000

> <Gold.Chemscore.Lipo>
81.3676

> <Gold.Chemscore.Internal_Hbond>
0.0000

> <Gold.Chemscore.DEClash>
0.0601

> <Gold.Chemscore.DEInternal>
0.9004

> <Gold.Chemscore.Rot>
1.7888

> <Gold.Chemscore.Internal.Correction>
   9.000000E+99

> <Gold.Chemscore.Hbonds>
donor molecule, donor type, donor heavy atom, donor atom, acceptor molecule, acceptor atom, score
      L1  H     5    34       P1  7948  0.02
      P1  H  7997  8009       L1    23  0.30
      P1  H 10752 10764       L1    12  1.00

> <Gold.Chemscore.Hbond.Weighted>
-9.5596

> <Gold.Chemscore.Metal.Weighted>
-0.0000

> <Gold.Chemscore.Lipo.Weighted>
-9.5200

> <Gold.Chemscore.Internal_Hbond.Weighted>
0.0000

> <Gold.Chemscore.DEClash.Weighted>
0.0601

> <Gold.Chemscore.DEInternal.Weighted>
0.9004

> <Gold.Chemscore.Rot.Weighted>
4.5793

> <Gold.Chemscore.Internal.Correction.Weighted>
   9.000000E+99

> <Gold.Protein.RotatedTorsions>
[ 6907 6896 6895 6894 ] final -157.28 input  -60.11 | X-H torsion
[ 7974 7965 7964 7962 ] final   54.93 input  175.53 | X-H torsion
[ 8008 7997 7996 7995 ] final -171.79 input   59.86 | X-H torsion
[ 10167 10162 10161 10158 ] final   20.74 input  -65.29 | X-H torsion
[ 10718 10713 10712 10709 ] final -154.79 input   66.30 | X-H torsion
[ 10763 10752 10751 10750 ] final  -80.80 input  -60.55 | X-H torsion
[ 11005 11000 10999 10996 ] final  102.62 input  -57.11 | X-H torsion

> <Gold.Protein.ActiveResidues>
 VAL166  LYS551  ARG553  GLY616  TRP617  ASP618  TYR619  PRO620  LYS621  CYS622 
 ASP623  PHE694  ASN695  SER759  ASP760  ASP761  ALA762  ILE779  LEU786  VAL792 
 PHE793  MET794  SER795  GLU796  ALA797  LYS798  CYS799  TRP800  GLU811  SER814 

> <Gold.Protein.RotatedAtoms>
  151.3004  133.4125  159.2639 H   0  0  0  0  0  0  0  0  0  0  0  0  # atno 6907 bound_to 6896
  151.0200  134.9462  159.8064 H   0  0  0  0  0  0  0  0  0  0  0  0  # atno 6908 bound_to 6896
  152.5322  134.2968  159.9116 H   0  0  0  0  0  0  0  0  0  0  0  0  # atno 6909 bound_to 6896
  145.9557  139.4013  143.0278 H   0  0  0  0  0  0  0  0  0  0  0  0  # atno 7974 bound_to 7965
  155.9362  140.1100  157.1093 H   0  0  0  0  0  0  0  0  0  0  0  0  # atno 8008 bound_to 7997
  154.4080  140.1228  156.4933 H   0  0  0  0  0  0  0  0  0  0  0  0  # atno 8009 bound_to 7997
  155.7019  140.3472  155.4939 H   0  0  0  0  0  0  0  0  0  0  0  0  # atno 8010 bound_to 7997
  140.5481  143.9559  150.6560 H   0  0  0  0  0  0  0  0  0  0  0  0  # atno 10167 bound_to 10162
  156.5041  130.8405  151.2621 H   0  0  0  0  0  0  0  0  0  0  0  0  # atno 10718 bound_to 10713
  154.5557  135.5648  153.6962 H   0  0  0  0  0  0  0  0  0  0  0  0  # atno 10763 bound_to 10752
  153.0003  135.6261  154.2313 H   0  0  0  0  0  0  0  0  0  0  0  0  # atno 10764 bound_to 10752
  154.2249  135.2868  155.2891 H   0  0  0  0  0  0  0  0  0  0  0  0  # atno 10765 bound_to 10752
  139.8778  134.9231  156.5085 H   0  0  0  0  0  0  0  0  0  0  0  0  # atno 11005 bound_to 11000
  145.8109  140.9726  143.0949 LP  0  0  0  0  0  0  0  0  0  0  0  0  # atno 17320 bound_to 7965
  144.6804  139.9920  143.7484 LP  0  0  0  0  0  0  0  0  0  0  0  0  # atno 17321 bound_to 7965
  140.2977  143.3281  152.1001 LP  0  0  0  0  0  0  0  0  0  0  0  0  # atno 17342 bound_to 10162
  139.5015  144.6716  151.6229 LP  0  0  0  0  0  0  0  0  0  0  0  0  # atno 17343 bound_to 10162
  157.7459  130.9972  150.2806 LP  0  0  0  0  0  0  0  0  0  0  0  0  # atno 17370 bound_to 10713
  156.3304  130.3799  149.7496 LP  0  0  0  0  0  0  0  0  0  0  0  0  # atno 17371 bound_to 10713
  140.8537  133.8112  155.9194 LP  0  0  0  0  0  0  0  0  0  0  0  0  # atno 17394 bound_to 11000
  140.9119  134.2250  157.4981 LP  0  0  0  0  0  0  0  0  0  0  0  0  # atno 17395 bound_to 11000

$$$$
