AV-unprocessed.smi:679|AV-procd|sdf|3320|dock1
  -GOLD-   22720 0283D 1   1.00000     0.00000
 Structure written by MMmdl.
 41 43  0  0  0  0  0  0  0  0  1 V2000
  151.1547  144.0827  158.8480 C   0  0  0  0  0  0  0  0  0  0  0  0
  151.1569  142.5729  159.0964 C   0  0  0  0  0  0  0  0  0  0  0  0
  150.3224  141.9542  158.1327 O   0  0  0  0  0  0  0  0  0  0  0  0
  150.6797  140.6064  157.8705 C   0  0  1  0  0  0  0  0  0  0  0  0
  150.1751  139.5968  158.9058 C   0  0  0  0  0  0  0  0  0  0  0  0
  149.9313  138.6622  157.7189 C   0  0  1  0  0  0  0  0  0  0  0  0
  148.7285  137.8539  157.8868 N   0  0  0  0  0  0  0  0  0  0  0  0
  148.6766  136.6988  158.5660 C   0  0  0  0  0  0  0  0  0  0  0  0
  149.6564  136.1950  159.1162 O   0  0  0  0  0  0  0  0  0  0  0  0
  147.3136  136.0035  158.6227 C   0  0  0  0  0  0  0  0  0  0  0  0
  146.9710  135.6075  159.9765 N   0  0  0  0  0  0  0  0  0  0  0  0
  146.7216  134.4068  160.5032 C   0  0  0  0  0  0  0  0  0  0  0  0
  146.4543  134.4869  161.7980 N   0  0  0  0  0  0  0  0  0  0  0  0
  146.5542  135.8439  162.0564 N   0  0  0  0  0  0  0  0  0  0  0  0
  146.8613  136.5139  160.9795 N   0  0  0  0  0  0  0  0  0  0  0  0
  149.7632  139.9205  156.8267 C   0  0  0  0  0  0  0  0  0  0  0  0
  148.3659  140.5205  156.6196 C   0  0  0  0  0  0  0  0  0  0  0  0
  148.4903  141.5346  155.4803 C   0  0  0  0  0  0  0  0  0  0  0  0
  149.7001  141.0804  154.6568 C   0  0  0  0  0  0  0  0  0  0  0  0
  150.2803  139.8678  155.3929 C   0  0  0  0  0  0  0  0  0  0  0  0
  151.7862  144.5985  159.5715 H   0  0  0  0  0  0  0  0  0  0  0  0
  150.1472  144.4909  158.9313 H   0  0  0  0  0  0  0  0  0  0  0  0
  151.5289  144.3150  157.8506 H   0  0  0  0  0  0  0  0  0  0  0  0
  152.1732  142.1838  159.0195 H   0  0  0  0  0  0  0  0  0  0  0  0
  150.7967  142.3611  160.1040 H   0  0  0  0  0  0  0  0  0  0  0  0
  151.7399  140.4794  157.6385 H   0  0  0  0  0  0  0  0  0  0  0  0
  150.9302  139.2519  159.6125 H   0  0  0  0  0  0  0  0  0  0  0  0
  149.2619  139.9191  159.4096 H   0  0  0  0  0  0  0  0  0  0  0  0
  150.8253  138.0860  157.4680 H   0  0  0  0  0  0  0  0  0  0  0  0
  147.8801  138.1988  157.4614 H   0  0  0  0  0  0  0  0  0  0  0  0
  146.5288  136.6541  158.2330 H   0  0  0  0  0  0  0  0  0  0  0  0
  147.3375  135.1137  157.9928 H   0  0  0  0  0  0  0  0  0  0  0  0
  146.7397  133.4832  159.9440 H   0  0  0  0  0  0  0  0  0  0  0  0
  147.6586  139.7479  156.3168 H   0  0  0  0  0  0  0  0  0  0  0  0
  147.9606  140.9804  157.5216 H   0  0  0  0  0  0  0  0  0  0  0  0
  147.5791  141.5857  154.8834 H   0  0  0  0  0  0  0  0  0  0  0  0
  148.6740  142.5307  155.8849 H   0  0  0  0  0  0  0  0  0  0  0  0
  149.4226  140.8246  153.6338 H   0  0  0  0  0  0  0  0  0  0  0  0
  150.4369  141.8829  154.6060 H   0  0  0  0  0  0  0  0  0  0  0  0
  151.3694  139.8572  155.3423 H   0  0  0  0  0  0  0  0  0  0  0  0
  149.9372  138.9535  154.9077 H   0  0  0  0  0  0  0  0  0  0  0  0
  1  2  1  0  0  0  0
  1 21  1  0  0  0  0
  1 22  1  0  0  0  0
  1 23  1  0  0  0  0
  2  3  1  0  0  0  0
  2 24  1  0  0  0  0
  2 25  1  0  0  0  0
  3  4  1  0  0  0  0
  4 16  1  0  0  0  0
  4  5  1  0  0  0  0
  4 26  1  0  0  0  0
  5  6  1  0  0  0  0
  5 27  1  0  0  0  0
  5 28  1  0  0  0  0
  6  7  1  0  0  0  0
  6 16  1  0  0  0  0
  6 29  1  0  0  0  0
  7  8  1  0  0  0  0
  7 30  1  0  0  0  0
  8  9  2  0  0  0  0
  8 10  1  0  0  0  0
 10 11  1  0  0  0  0
 10 31  1  0  0  0  0
 10 32  1  0  0  0  0
 11 15  1  0  0  0  0
 11 12  1  0  0  0  0
 12 13  2  0  0  0  0
 12 33  1  0  0  0  0
 13 14  1  0  0  0  0
 14 15  2  0  0  0  0
 16 20  1  0  0  0  0
 16 17  1  0  0  0  0
 17 18  1  0  0  0  0
 17 34  1  0  0  0  0
 17 35  1  0  0  0  0
 18 19  1  0  0  0  0
 18 36  1  0  0  0  0
 18 37  1  0  0  0  0
 19 20  1  0  0  0  0
 19 38  1  0  0  0  0
 19 39  1  0  0  0  0
 20 40  1  0  0  0  0
 20 41  1  0  0  0  0
M  END
> <s_m_source_file>
AV-unprocessed.smi

> <i_m_source_file_index>
679

> <i_lp_mmshare_version>
43012

> <i_f3d_flags>
0

> <s_epik_input>
W0NIMl0xW0NIMl1bQ0gyXVtDSDJdQzEyW0NASF0oT1tDSDJdW0NIM10pW0NIMl1bQ0BIXTJbTkhdQyg9TylbQ0gyXW4zW2NIXW5ubjM=

> <s_epik_cmdline>
J2VwaWtfcHl0aG9uJywgJy1waCcsICc3LjAnLCAnLXRuJywgJzgnLCAnLW1hJywgJzIwMCcsICctbWV0YWxfYmluZGluZycsICctaW1hZScsICc8aW5maWxlLm1hZT4nLCAnLW9tYWUnLCAnPG91dGZpbGUubWFlPic=

> <r_lp_tautomer_probability>
1

> <r_epik_Ionization_Penalty>
7.96741e-07

> <r_epik_Ionization_Penalty_Charging>
0

> <r_epik_Ionization_Penalty_Neutral>
7.96741e-07

> <r_epik_State_Penalty>
-0

> <r_epik_Charging_Adjusted_Penalty>
0

> <i_epik_Tot_Q>
0

> <i_epik_Tot_abs_Q>
0

> <r_epik_Metal_State_Penalty>
-0

> <b_epik_Metal_Only>
0

> <s_lp_Force_Field>
OPLS_2005

> <r_lp_Energy>
38.413

> <b_lp_Chiralities_Consistent>
1

> <s_lp_Variant>
AV-unprocessed.smi:679-2

> <Gold.Version>
5.8.1

> <Gold.Id.Protein>
6NUR|6NUR_protein|mol2

> <Gold.PLP.Fitness>
39.1662

> <Gold.PLP.PLP>
-31.8071

> <Gold.PLP.part.hbond>
-3.7733

> <Gold.PLP.part.metal>
0.0000

> <Gold.PLP.part.buried>
-4.7269

> <Gold.PLP.part.nonpolar>
-24.3214

> <Gold.PLP.part.repulsive>
0.2043

> <Gold.PLP.ligand.clash>
0.0000

> <Gold.PLP.ligand.torsion>
0.5400

> <Gold.PLP.Chemscore.Hbond>
2.6720

> <Gold.PLP.Chemscore.CHOScore>
0.0000

> <Gold.PLP.Chemscore.Metal>
0.0000

> <Gold.Chemscore.Hbonds>
donor molecule, donor type, donor heavy atom, donor atom, acceptor molecule, acceptor atom, score
      P1  H  6896  6908       L1     9  1.00

> <Gold.PLP.Chemscore.Internal.Correction>
0.4231

> <Gold.Rescore>
     Score         DG    S(hbond)    S(metal)    S(lipo)     H(rot)  DE(clash)    DE(int)     intcor
     12.39     -13.46       2.03        0.00      62.88       2.41       0.50       0.57       ----

> <Gold.Chemscore.Fitness>
12.3887

> <Gold.Chemscore.DG>
-13.4572

> <Gold.Chemscore.ZeroCoef>
-5.4800

> <Gold.Chemscore.Hbond>
2.0320

> <Gold.Chemscore.Metal>
0.0000

> <Gold.Chemscore.Lipo>
62.8807

> <Gold.Chemscore.Internal_Hbond>
0.0000

> <Gold.Chemscore.DEClash>
0.4972

> <Gold.Chemscore.DEInternal>
0.5713

> <Gold.Chemscore.Rot>
2.4089

> <Gold.Chemscore.Internal.Correction>
   9.000000E+99

> <Gold.Chemscore.Hbonds>
donor molecule, donor type, donor heavy atom, donor atom, acceptor molecule, acceptor atom, score
      P1  H  6896  6908       L1     9  1.00
      P1  H  6934  6947       L1    15  0.01

> <Gold.Chemscore.Hbond.Weighted>
-6.7869

> <Gold.Chemscore.Metal.Weighted>
-0.0000

> <Gold.Chemscore.Lipo.Weighted>
-7.3570

> <Gold.Chemscore.Internal_Hbond.Weighted>
0.0000

> <Gold.Chemscore.DEClash.Weighted>
0.4972

> <Gold.Chemscore.DEInternal.Weighted>
0.5713

> <Gold.Chemscore.Rot.Weighted>
6.1668

> <Gold.Chemscore.Internal.Correction.Weighted>
   9.000000E+99

> <Gold.Protein.RotatedTorsions>
[ 6907 6896 6895 6894 ] final -162.59 input  -60.11 | X-H torsion
[ 7974 7965 7964 7962 ] final  -67.95 input  175.53 | X-H torsion
[ 8008 7997 7996 7995 ] final  125.33 input   59.86 | X-H torsion
[ 10167 10162 10161 10158 ] final -111.72 input  -65.29 | X-H torsion
[ 10718 10713 10712 10709 ] final -107.22 input   66.30 | X-H torsion
[ 10763 10752 10751 10750 ] final   80.23 input  -60.55 | X-H torsion
[ 11005 11000 10999 10996 ] final -165.91 input  -57.11 | X-H torsion

> <Gold.Protein.ActiveResidues>
 VAL166  LYS551  ARG553  GLY616  TRP617  ASP618  TYR619  PRO620  LYS621  CYS622 
 ASP623  PHE694  ASN695  SER759  ASP760  ASP761  ALA762  ILE779  LEU786  VAL792 
 PHE793  MET794  SER795  GLU796  ALA797  LYS798  CYS799  TRP800  GLU811  SER814 

> <Gold.Protein.RotatedAtoms>
  151.3828  133.3815  159.2711 H   0  0  0  0  0  0  0  0  0  0  0  0  # atno 6907 bound_to 6896
  150.9564  134.8959  159.7714 H   0  0  0  0  0  0  0  0  0  0  0  0  # atno 6908 bound_to 6896
  152.5132  134.3785  159.9395 H   0  0  0  0  0  0  0  0  0  0  0  0  # atno 6909 bound_to 6896
  145.7226  140.9032  143.0622 H   0  0  0  0  0  0  0  0  0  0  0  0  # atno 7974 bound_to 7965
  156.2830  140.2719  156.1931 H   0  0  0  0  0  0  0  0  0  0  0  0  # atno 8008 bound_to 7997
  155.0438  140.0386  157.2537 H   0  0  0  0  0  0  0  0  0  0  0  0  # atno 8009 bound_to 7997
  154.7252  140.2696  155.6510 H   0  0  0  0  0  0  0  0  0  0  0  0  # atno 8010 bound_to 7997
  140.1306  143.4364  152.1630 H   0  0  0  0  0  0  0  0  0  0  0  0  # atno 10167 bound_to 10162
  156.0426  130.5652  150.7791 H   0  0  0  0  0  0  0  0  0  0  0  0  # atno 10718 bound_to 10713
  153.1016  135.4810  154.8878 H   0  0  0  0  0  0  0  0  0  0  0  0  # atno 10763 bound_to 10752
  154.7385  135.3077  154.8771 H   0  0  0  0  0  0  0  0  0  0  0  0  # atno 10764 bound_to 10752
  153.9386  135.6836  153.4798 H   0  0  0  0  0  0  0  0  0  0  0  0  # atno 10765 bound_to 10752
  140.5704  134.5243  157.5161 H   0  0  0  0  0  0  0  0  0  0  0  0  # atno 11005 bound_to 11000
  144.6913  139.9223  143.7468 LP  0  0  0  0  0  0  0  0  0  0  0  0  # atno 17320 bound_to 7965
  146.0611  139.3605  143.0580 LP  0  0  0  0  0  0  0  0  0  0  0  0  # atno 17321 bound_to 7965
  139.5522  144.7346  151.4402 LP  0  0  0  0  0  0  0  0  0  0  0  0  # atno 17342 bound_to 10162
  140.6819  143.8062  150.7133 LP  0  0  0  0  0  0  0  0  0  0  0  0  # atno 17343 bound_to 10162
  157.5263  131.0934  151.0013 LP  0  0  0  0  0  0  0  0  0  0  0  0  # atno 17370 bound_to 10713
  157.0330  130.5719  149.5346 LP  0  0  0  0  0  0  0  0  0  0  0  0  # atno 17371 bound_to 10713
  139.9364  134.7867  156.0791 LP  0  0  0  0  0  0  0  0  0  0  0  0  # atno 17394 bound_to 11000
  141.1059  133.6660  156.2863 LP  0  0  0  0  0  0  0  0  0  0  0  0  # atno 17395 bound_to 11000

$$$$
