AV-unprocessed.smi:792|AV-procd|sdf|3751|dock4
  -GOLD-   22720 1183D 1   1.00000     0.00000
 Structure written by MMmdl.
 47 48  0  0  0  0  0  0  0  0  2 V2000
  144.5591  134.8565  150.9514 C   0  0  0  0  0  0  0  0  0  0  0  0
  145.1851  136.0610  151.6221 C   0  0  0  0  0  0  0  0  0  0  0  0
  145.0933  136.2837  153.0130 C   0  0  0  0  0  0  0  0  0  0  0  0
  145.7014  137.4286  153.5687 C   0  0  0  0  0  0  0  0  0  0  0  0
  146.3899  138.3265  152.7237 C   0  0  0  0  0  0  0  0  0  0  0  0
  147.0522  139.5673  153.2901 C   0  0  0  0  0  0  0  0  0  0  0  0
  148.1195  139.2252  154.3377 C   0  0  0  0  0  0  0  0  0  0  0  0
  148.4776  140.4063  155.1102 N   0  0  0  0  0  0  0  0  0  0  0  0
  149.7356  140.7598  155.4032 C   0  0  0  0  0  0  0  0  0  0  0  0
  150.7294  140.1336  155.0339 O   0  0  0  0  0  0  0  0  0  0  0  0
  149.7807  141.8739  156.1479 N   0  0  0  0  0  0  0  0  0  0  0  0
  151.0045  142.5226  156.6160 C   0  0  0  0  0  0  0  0  0  0  0  0
  151.3475  142.1995  158.0830 C   0  0  0  0  0  0  0  0  0  0  0  0
  150.9231  141.1540  158.5796 O   0  0  0  0  0  0  0  0  0  0  0  0
  152.1121  143.0720  158.7843 N   0  0  0  0  0  0  0  0  0  0  0  0
  152.4338  142.8810  160.2053 C   0  0  0  0  0  0  0  0  0  0  0  0
  151.7057  143.9579  161.0306 C   0  0  0  0  0  0  0  0  0  0  0  0
  152.0678  145.3709  160.5362 C   0  0  0  0  0  0  0  0  0  0  0  0
  151.8996  145.4996  159.0105 C   0  0  0  0  0  0  0  0  0  0  0  0
  152.6255  144.3545  158.2816 C   0  0  0  0  0  0  0  0  0  0  0  0
  146.4473  138.0530  151.3403 C   0  0  0  0  0  0  0  0  0  0  0  0
  145.8515  136.9454  150.8466 N   0  3  0  0  0  0  0  0  0  0  0  0
  144.0527  134.2206  151.6782 H   0  0  0  0  0  0  0  0  0  0  0  0
  145.3229  134.2603  150.4514 H   0  0  0  0  0  0  0  0  0  0  0  0
  143.8271  135.1730  150.2077 H   0  0  0  0  0  0  0  0  0  0  0  0
  144.5642  135.5885  153.6485 H   0  0  0  0  0  0  0  0  0  0  0  0
  145.6381  137.6142  154.6311 H   0  0  0  0  0  0  0  0  0  0  0  0
  147.4977  140.1376  152.4735 H   0  0  0  0  0  0  0  0  0  0  0  0
  146.2866  140.2075  153.7309 H   0  0  0  0  0  0  0  0  0  0  0  0
  147.7475  138.4526  155.0130 H   0  0  0  0  0  0  0  0  0  0  0  0
  149.0115  138.8271  153.8515 H   0  0  0  0  0  0  0  0  0  0  0  0
  147.7228  140.9855  155.4483 H   0  0  0  0  0  0  0  0  0  0  0  0
  148.9088  142.3182  156.3960 H   0  0  0  0  0  0  0  0  0  0  0  0
  151.8230  142.1848  155.9798 H   0  0  0  0  0  0  0  0  0  0  0  0
  150.9181  143.6026  156.4835 H   0  0  0  0  0  0  0  0  0  0  0  0
  152.1639  141.8904  160.5736 H   0  0  0  0  0  0  0  0  0  0  0  0
  153.5123  142.9653  160.3464 H   0  0  0  0  0  0  0  0  0  0  0  0
  150.6280  143.8078  160.9529 H   0  0  0  0  0  0  0  0  0  0  0  0
  151.9579  143.8563  162.0865 H   0  0  0  0  0  0  0  0  0  0  0  0
  151.4607  146.1180  161.0481 H   0  0  0  0  0  0  0  0  0  0  0  0
  153.1048  145.5841  160.7984 H   0  0  0  0  0  0  0  0  0  0  0  0
  150.8394  145.4811  158.7542 H   0  0  0  0  0  0  0  0  0  0  0  0
  152.2832  146.4630  158.6738 H   0  0  0  0  0  0  0  0  0  0  0  0
  153.6972  144.4110  158.4782 H   0  0  0  0  0  0  0  0  0  0  0  0
  152.5261  144.4778  157.2046 H   0  0  0  0  0  0  0  0  0  0  0  0
  146.9471  138.6818  150.6177 H   0  0  0  0  0  0  0  0  0  0  0  0
  145.9071  136.7687  149.8432 H   0  0  0  0  0  0  0  0  0  0  0  0
  1  2  1  0  0  0  0
  1 23  1  0  0  0  0
  1 24  1  0  0  0  0
  1 25  1  0  0  0  0
  2 22  1  0  0  0  0
  2  3  2  0  0  0  0
  3  4  1  0  0  0  0
  3 26  1  0  0  0  0
  4  5  2  0  0  0  0
  4 27  1  0  0  0  0
  5  6  1  0  0  0  0
  5 21  1  0  0  0  0
  6  7  1  0  0  0  0
  6 28  1  0  0  0  0
  6 29  1  0  0  0  0
  7  8  1  0  0  0  0
  7 30  1  0  0  0  0
  7 31  1  0  0  0  0
  8  9  1  0  0  0  0
  8 32  1  0  0  0  0
  9 10  2  0  0  0  0
  9 11  1  0  0  0  0
 11 12  1  0  0  0  0
 11 33  1  0  0  0  0
 12 13  1  0  0  0  0
 12 34  1  0  0  0  0
 12 35  1  0  0  0  0
 13 14  2  0  0  0  0
 13 15  1  0  0  0  0
 15 20  1  0  0  0  0
 15 16  1  0  0  0  0
 16 17  1  0  0  0  0
 16 36  1  0  0  0  0
 16 37  1  0  0  0  0
 17 18  1  0  0  0  0
 17 38  1  0  0  0  0
 17 39  1  0  0  0  0
 18 19  1  0  0  0  0
 18 40  1  0  0  0  0
 18 41  1  0  0  0  0
 19 20  1  0  0  0  0
 19 42  1  0  0  0  0
 19 43  1  0  0  0  0
 20 44  1  0  0  0  0
 20 45  1  0  0  0  0
 21 22  2  0  0  0  0
 21 46  1  0  0  0  0
 22 47  1  0  0  0  0
M  CHG  1  22   1
M  END
> <s_m_source_file>
AV-unprocessed.smi

> <i_m_source_file_index>
792

> <i_lp_mmshare_version>
43012

> <i_f3d_flags>
0

> <s_epik_input>
W0NIM11jMVtjSF1bY0hdYyhbY0hdbjEpW0NIMl1bQ0gyXVtOSF1DKD1PKVtOSF1bQ0gyXUMoPU8pTjJbQ0gyXVtDSDJdW0NIMl1bQ0gyXVtDSDJdMg==

> <s_epik_cmdline>
J2VwaWtfcHl0aG9uJywgJy1waCcsICc3LjAnLCAnLXRuJywgJzgnLCAnLW1hJywgJzIwMCcsICctbWV0YWxfYmluZGluZycsICctaW1hZScsICc8aW5maWxlLm1hZT4nLCAnLW9tYWUnLCAnPG91dGZpbGUubWFlPic=

> <r_epik_Ionization_Penalty>
1.3596

> <r_epik_Ionization_Penalty_Charging>
1.35956

> <r_epik_Ionization_Penalty_Neutral>
4.39183e-05

> <r_epik_State_Penalty>
1.43833

> <r_epik_Charging_Adjusted_Penalty>
2.79788

> <i_epik_Tot_Q>
1

> <i_epik_Tot_abs_Q>
1

> <r_epik_Metal_State_Penalty>
1.49594

> <b_epik_Metal_Only>
0

> <s_lp_Force_Field>
OPLS_2005

> <r_lp_Energy>
23.5444

> <b_lp_Chiralities_Consistent>
1

> <s_lp_Variant>
AV-unprocessed.smi:792-2

> <Gold.Version>
5.8.1

> <Gold.Id.Protein>
6NUR|6NUR_protein|mol2

> <Gold.PLP.Fitness>
51.8421

> <Gold.PLP.PLP>
-50.0245

> <Gold.PLP.part.hbond>
-2.8460

> <Gold.PLP.part.metal>
0.0000

> <Gold.PLP.part.buried>
-1.5522

> <Gold.PLP.part.nonpolar>
-45.5084

> <Gold.PLP.part.repulsive>
0.3797

> <Gold.PLP.ligand.clash>
0.0000

> <Gold.PLP.ligand.torsion>
0.6354

> <Gold.PLP.Chemscore.Hbond>
1.0000

> <Gold.PLP.Chemscore.CHOScore>
0.0000

> <Gold.PLP.Chemscore.Metal>
0.0000

> <Gold.Chemscore.Hbonds>
donor molecule, donor type, donor heavy atom, donor atom, acceptor molecule, acceptor atom, score
      P1  H  7989  7998       L1    10  1.00

> <Gold.PLP.Chemscore.Internal.Correction>
0.0885

> <Gold.Rescore>
     Score         DG    S(hbond)    S(metal)    S(lipo)     H(rot)  DE(clash)    DE(int)     intcor
     16.75     -17.93       0.94        0.00     120.35       1.86       0.47       0.70       ----

> <Gold.Chemscore.Fitness>
16.7497

> <Gold.Chemscore.DG>
-17.9271

> <Gold.Chemscore.ZeroCoef>
-5.4800

> <Gold.Chemscore.Hbond>
0.9394

> <Gold.Chemscore.Metal>
0.0000

> <Gold.Chemscore.Lipo>
120.3508

> <Gold.Chemscore.Internal_Hbond>
0.0000

> <Gold.Chemscore.DEClash>
0.4750

> <Gold.Chemscore.DEInternal>
0.7024

> <Gold.Chemscore.Rot>
1.8639

> <Gold.Chemscore.Internal.Correction>
   9.000000E+99

> <Gold.Chemscore.Hbonds>
donor molecule, donor type, donor heavy atom, donor atom, acceptor molecule, acceptor atom, score
      P1  H  7989  7998       L1    10  0.90

> <Gold.Chemscore.Hbond.Weighted>
-3.1375

> <Gold.Chemscore.Metal.Weighted>
-0.0000

> <Gold.Chemscore.Lipo.Weighted>
-14.0810

> <Gold.Chemscore.Internal_Hbond.Weighted>
0.0000

> <Gold.Chemscore.DEClash.Weighted>
0.4750

> <Gold.Chemscore.DEInternal.Weighted>
0.7024

> <Gold.Chemscore.Rot.Weighted>
4.7715

> <Gold.Chemscore.Internal.Correction.Weighted>
   9.000000E+99

> <Gold.Protein.RotatedTorsions>
[ 6907 6896 6895 6894 ] final  165.42 input  -60.11 | X-H torsion
[ 7974 7965 7964 7962 ] final  -21.65 input  175.53 | X-H torsion
[ 8008 7997 7996 7995 ] final  -57.89 input   59.86 | X-H torsion
[ 10167 10162 10161 10158 ] final -127.60 input  -65.29 | X-H torsion
[ 10718 10713 10712 10709 ] final   78.87 input   66.30 | X-H torsion
[ 10763 10752 10751 10750 ] final  -40.18 input  -60.55 | X-H torsion
[ 11005 11000 10999 10996 ] final  124.90 input  -57.11 | X-H torsion

> <Gold.Protein.ActiveResidues>
 VAL166  LYS551  ARG553  GLY616  TRP617  ASP618  TYR619  PRO620  LYS621  CYS622 
 ASP623  PHE694  ASN695  SER759  ASP760  ASP761  ALA762  ILE779  LEU786  VAL792 
 PHE793  MET794  SER795  GLU796  ALA797  LYS798  CYS799  TRP800  GLU811  SER814 

> <Gold.Protein.RotatedAtoms>
  151.8947  133.3524  159.3810 H   0  0  0  0  0  0  0  0  0  0  0  0  # atno 6907 bound_to 6896
  150.7094  134.4888  159.5515 H   0  0  0  0  0  0  0  0  0  0  0  0  # atno 6908 bound_to 6896
  152.2465  134.8176  160.0503 H   0  0  0  0  0  0  0  0  0  0  0  0  # atno 6909 bound_to 6896
  146.1721  140.4370  142.8528 H   0  0  0  0  0  0  0  0  0  0  0  0  # atno 7974 bound_to 7965
  154.4286  140.1096  156.5869 H   0  0  0  0  0  0  0  0  0  0  0  0  # atno 8008 bound_to 7997
  155.6053  140.3493  155.4587 H   0  0  0  0  0  0  0  0  0  0  0  0  # atno 8009 bound_to 7997
  156.0142  140.1225  157.0413 H   0  0  0  0  0  0  0  0  0  0  0  0  # atno 8010 bound_to 7997
  139.9591  143.5969  152.2451 H   0  0  0  0  0  0  0  0  0  0  0  0  # atno 10167 bound_to 10162
  157.6759  130.9888  150.1849 H   0  0  0  0  0  0  0  0  0  0  0  0  # atno 10718 bound_to 10713
  153.9416  135.6760  153.4744 H   0  0  0  0  0  0  0  0  0  0  0  0  # atno 10763 bound_to 10752
  153.0928  135.4866  154.8720 H   0  0  0  0  0  0  0  0  0  0  0  0  # atno 10764 bound_to 10752
  154.7374  135.3152  154.8746 H   0  0  0  0  0  0  0  0  0  0  0  0  # atno 10765 bound_to 10752
  139.9381  134.9638  156.8478 H   0  0  0  0  0  0  0  0  0  0  0  0  # atno 11005 bound_to 11000
  144.8179  140.6499  143.6372 LP  0  0  0  0  0  0  0  0  0  0  0  0  # atno 17320 bound_to 7965
  145.4312  139.1549  143.4021 LP  0  0  0  0  0  0  0  0  0  0  0  0  # atno 17321 bound_to 7965
  139.6568  144.7662  151.2041 LP  0  0  0  0  0  0  0  0  0  0  0  0  # atno 17342 bound_to 10162
  140.7559  143.6073  150.8640 LP  0  0  0  0  0  0  0  0  0  0  0  0  # atno 17343 bound_to 10162
  156.2573  130.3707  149.8167 LP  0  0  0  0  0  0  0  0  0  0  0  0  # atno 17370 bound_to 10713
  156.5923  130.8511  151.3411 LP  0  0  0  0  0  0  0  0  0  0  0  0  # atno 17371 bound_to 10713
  140.6024  134.0159  155.7542 LP  0  0  0  0  0  0  0  0  0  0  0  0  # atno 17394 bound_to 11000
  141.1003  133.9778  157.3090 LP  0  0  0  0  0  0  0  0  0  0  0  0  # atno 17395 bound_to 11000

$$$$
