AV-unprocessed.smi:49|AV-procd|sdf|486|dock2
  -GOLD-   2262016343D 1   1.00000     0.00000
 Structure written by MMmdl.
 27 28  0  0  0  0  0  0  0  0  3 V2000
  152.6520  140.7274  159.4306 C   0  0  0  0  0  0  0  0  0  0  0  0
  152.3720  139.5171  158.5344 C   0  0  0  0  0  0  0  0  0  0  0  0
  151.8239  139.9234  157.1839 C   0  0  0  0  0  0  0  0  0  0  0  0
  150.7207  140.6342  156.9723 N   0  0  0  0  0  0  0  0  0  0  0  0
  150.6316  140.7851  155.6443 C   0  0  0  0  0  0  0  0  0  0  0  0
  149.5304  141.5603  154.9469 C   0  0  1  0  0  0  0  0  0  0  0  0
  148.6430  140.6570  154.0781 C   0  0  0  0  0  0  0  0  0  0  0  0
  147.4345  140.3730  154.9657 C   0  0  2  0  0  0  0  0  0  0  0  0
  146.2866  140.0421  154.2129 O   0  0  0  0  0  0  0  0  0  0  0  0
  147.2665  141.6842  155.7317 C   0  0  0  0  0  0  0  0  0  0  0  0
  148.6348  142.1930  155.9388 N   0  3  0  0  0  0  0  0  0  0  0  0
  151.6746  140.2036  155.0300 N   0  0  0  0  0  0  0  0  0  0  0  0
  152.3989  139.6753  155.9938 N   0  5  0  0  0  0  0  0  0  0  0  0
  149.9916  142.3356  154.3339 H   0  0  0  0  0  0  0  0  0  0  0  0
  147.6661  139.5630  155.6590 H   0  0  0  0  0  0  0  0  0  0  0  0
  153.0472  140.4128  160.3965 H   0  0  0  0  0  0  0  0  0  0  0  0
  151.7421  141.3000  159.6118 H   0  0  0  0  0  0  0  0  0  0  0  0
  153.3827  141.3942  158.9716 H   0  0  0  0  0  0  0  0  0  0  0  0
  153.2872  138.9434  158.3856 H   0  0  0  0  0  0  0  0  0  0  0  0
  151.6583  138.8506  159.0196 H   0  0  0  0  0  0  0  0  0  0  0  0
  148.3216  141.2188  153.1992 H   0  0  0  0  0  0  0  0  0  0  0  0
  149.1473  139.7565  153.7247 H   0  0  0  0  0  0  0  0  0  0  0  0
  145.5213  140.3241  154.6910 H   0  0  0  0  0  0  0  0  0  0  0  0
  146.7231  142.4130  155.1287 H   0  0  0  0  0  0  0  0  0  0  0  0
  146.7338  141.5592  156.6747 H   0  0  0  0  0  0  0  0  0  0  0  0
  148.9538  141.9159  156.8568 H   0  0  0  0  0  0  0  0  0  0  0  0
  148.6602  143.1991  155.8588 H   0  0  0  0  0  0  0  0  0  0  0  0
  1  2  1  0  0  0  0
  1 16  1  0  0  0  0
  1 17  1  0  0  0  0
  1 18  1  0  0  0  0
  2  3  1  0  0  0  0
  2 19  1  0  0  0  0
  2 20  1  0  0  0  0
  3 13  1  0  0  0  0
  3  4  2  0  0  0  0
  4  5  1  0  0  0  0
  5  6  1  0  0  0  0
  5 12  2  0  0  0  0
  6 14  1  0  0  0  0
  6 11  1  0  0  0  0
  6  7  1  0  0  0  0
  7  8  1  0  0  0  0
  7 21  1  0  0  0  0
  7 22  1  0  0  0  0
  8 15  1  0  0  0  0
  8  9  1  0  0  0  0
  8 10  1  0  0  0  0
  9 23  1  0  0  0  0
 10 11  1  0  0  0  0
 10 24  1  0  0  0  0
 10 25  1  0  0  0  0
 11 26  1  0  0  0  0
 11 27  1  0  0  0  0
 12 13  1  0  0  0  0
M  CHG  1  11   1
M  CHG  1  13  -1
M  END
> <s_m_source_file>
AV-unprocessed.smi

> <i_m_source_file_index>
49

> <i_lp_mmshare_version>
43012

> <i_f3d_flags>
0

> <s_epik_input>
W0NIM11bQ0gyXWMxbmMobltuSF0xKVtDQEBIXTJbQ0gyXVtDQEBIXShbT0hdKVtDSDJdW05IXTI=

> <s_epik_cmdline>
J2VwaWtfcHl0aG9uJywgJy1waCcsICc3LjAnLCAnLXRuJywgJzgnLCAnLW1hJywgJzIwMCcsICctbWV0YWxfYmluZGluZycsICctaW1hZScsICc8aW5maWxlLm1hZT4nLCAnLW9tYWUnLCAnPG91dGZpbGUubWFlPic=

> <r_lp_tautomer_probability>
0.948284

> <r_epik_Ionization_Penalty>
3.22013

> <r_epik_Ionization_Penalty_Charging>
3.22013

> <r_epik_Ionization_Penalty_Neutral>
3.9133e-08

> <r_epik_State_Penalty>
2.79459

> <r_epik_Charging_Adjusted_Penalty>
6.01472

> <i_epik_Tot_Q>
0

> <i_epik_Tot_abs_Q>
2

> <r_epik_Metal_State_Penalty>
0.589377

> <b_epik_Metal_Only>
1

> <s_lp_Force_Field>
OPLS_2005

> <r_lp_Energy>
10.3781

> <b_lp_Chiralities_Consistent>
1

> <s_lp_Variant>
AV-unprocessed.smi:49-24

> <Gold.Version>
5.8.1

> <Gold.Id.Protein>
6NUR|6NUR_protein|mol2

> <Gold.PLP.Fitness>
35.2658

> <Gold.PLP.PLP>
-20.5252

> <Gold.PLP.part.hbond>
-3.5125

> <Gold.PLP.part.metal>
0.0000

> <Gold.PLP.part.buried>
-2.0254

> <Gold.PLP.part.nonpolar>
-14.4829

> <Gold.PLP.part.repulsive>
0.1420

> <Gold.PLP.ligand.clash>
0.0000

> <Gold.PLP.ligand.torsion>
0.0771

> <Gold.PLP.Chemscore.Hbond>
4.9600

> <Gold.PLP.Chemscore.CHOScore>
0.0000

> <Gold.PLP.Chemscore.Metal>
0.0000

> <Gold.Chemscore.Hbonds>
donor molecule, donor type, donor heavy atom, donor atom, acceptor molecule, acceptor atom, score
      L1  H    11    27       P1  8028  2.00
      P1  H  7989  7998       L1    12  0.94
      P1  H  7997  8008       L1    13  2.00

> <Gold.PLP.Chemscore.Internal.Correction>
0.0148

> <Gold.Rescore>
     Score         DG    S(hbond)    S(metal)    S(lipo)     H(rot)  DE(clash)    DE(int)     intcor
     12.88     -13.10       2.48        0.00      34.94       1.86       0.05       0.17       ----

> <Gold.Chemscore.Fitness>
12.8759

> <Gold.Chemscore.DG>
-13.1035

> <Gold.Chemscore.ZeroCoef>
-5.4800

> <Gold.Chemscore.Hbond>
2.4817

> <Gold.Chemscore.Metal>
0.0000

> <Gold.Chemscore.Lipo>
34.9393

> <Gold.Chemscore.Internal_Hbond>
0.0000

> <Gold.Chemscore.DEClash>
0.0537

> <Gold.Chemscore.DEInternal>
0.1740

> <Gold.Chemscore.Rot>
1.8567

> <Gold.Chemscore.Internal.Correction>
   9.000000E+99

> <Gold.Chemscore.Hbonds>
donor molecule, donor type, donor heavy atom, donor atom, acceptor molecule, acceptor atom, score
      L1  H    11    27       P1  8028  0.94
      P1  H  7989  7998       L1    12  0.41
      P1  H  7997  8008       L1    13  0.59

> <Gold.Chemscore.Hbond.Weighted>
-8.2887

> <Gold.Chemscore.Metal.Weighted>
-0.0000

> <Gold.Chemscore.Lipo.Weighted>
-4.0879

> <Gold.Chemscore.Internal_Hbond.Weighted>
0.0000

> <Gold.Chemscore.DEClash.Weighted>
0.0537

> <Gold.Chemscore.DEInternal.Weighted>
0.1740

> <Gold.Chemscore.Rot.Weighted>
4.7531

> <Gold.Chemscore.Internal.Correction.Weighted>
   9.000000E+99

> <Gold.Protein.RotatedTorsions>
[ 6907 6896 6895 6894 ] final   60.88 input  -60.11 | X-H torsion
[ 7974 7965 7964 7962 ] final  -24.98 input  175.53 | X-H torsion
[ 8008 7997 7996 7995 ] final  -29.82 input   59.86 | X-H torsion
[ 10167 10162 10161 10158 ] final  127.93 input  -65.29 | X-H torsion
[ 10718 10713 10712 10709 ] final -172.99 input   66.30 | X-H torsion
[ 10763 10752 10751 10750 ] final  -85.54 input  -60.55 | X-H torsion
[ 11005 11000 10999 10996 ] final   61.76 input  -57.11 | X-H torsion

> <Gold.Protein.ActiveResidues>
 VAL166  LYS551  ARG553  GLY616  TRP617  ASP618  TYR619  PRO620  LYS621  CYS622 
 ASP623  PHE694  ASN695  SER759  ASP760  ASP761  ALA762  ILE779  LEU786  VAL792 
 PHE793  MET794  SER795  GLU796  ALA797  LYS798  CYS799  TRP800  GLU811  SER814 

> <Gold.Protein.RotatedAtoms>
  152.4041  134.6237  160.0057 H   0  0  0  0  0  0  0  0  0  0  0  0  # atno 6907 bound_to 6896
  151.6434  133.3319  159.3143 H   0  0  0  0  0  0  0  0  0  0  0  0  # atno 6908 bound_to 6896
  150.7938  134.7023  159.6602 H   0  0  0  0  0  0  0  0  0  0  0  0  # atno 6909 bound_to 6896
  146.1520  140.4825  142.8607 H   0  0  0  0  0  0  0  0  0  0  0  0  # atno 7974 bound_to 7965
  154.4274  140.1808  156.1309 H   0  0  0  0  0  0  0  0  0  0  0  0  # atno 8008 bound_to 7997
  156.0068  140.3354  155.6876 H   0  0  0  0  0  0  0  0  0  0  0  0  # atno 8009 bound_to 7997
  155.6166  140.0655  157.2681 H   0  0  0  0  0  0  0  0  0  0  0  0  # atno 8010 bound_to 7997
  139.5553  144.6844  151.4201 H   0  0  0  0  0  0  0  0  0  0  0  0  # atno 10167 bound_to 10162
  156.7637  130.9423  151.3118 H   0  0  0  0  0  0  0  0  0  0  0  0  # atno 10718 bound_to 10713
  154.6123  135.5481  153.7486 H   0  0  0  0  0  0  0  0  0  0  0  0  # atno 10763 bound_to 10752
  153.0200  135.6392  154.1560 H   0  0  0  0  0  0  0  0  0  0  0  0  # atno 10764 bound_to 10752
  154.1498  135.2903  155.3118 H   0  0  0  0  0  0  0  0  0  0  0  0  # atno 10765 bound_to 10752
  140.0138  134.6255  155.9740 H   0  0  0  0  0  0  0  0  0  0  0  0  # atno 11005 bound_to 11000
  144.7916  140.6043  143.6537 LP  0  0  0  0  0  0  0  0  0  0  0  0  # atno 17320 bound_to 7965
  145.4799  139.1496  143.3767 LP  0  0  0  0  0  0  0  0  0  0  0  0  # atno 17321 bound_to 7965
  140.6824  143.8050  150.7140 LP  0  0  0  0  0  0  0  0  0  0  0  0  # atno 17342 bound_to 10162
  140.1508  143.4359  152.2132 LP  0  0  0  0  0  0  0  0  0  0  0  0  # atno 17343 bound_to 10162
  157.6723  130.9062  150.0068 LP  0  0  0  0  0  0  0  0  0  0  0  0  # atno 17370 bound_to 10713
  156.1322  130.3643  149.9713 LP  0  0  0  0  0  0  0  0  0  0  0  0  # atno 17371 bound_to 10713
  141.1729  133.6538  156.4720 LP  0  0  0  0  0  0  0  0  0  0  0  0  # atno 17394 bound_to 11000
  140.4506  134.6932  157.5038 LP  0  0  0  0  0  0  0  0  0  0  0  0  # atno 17395 bound_to 11000

$$$$
