AV-unprocessed.smi:1231|AV-procd|sdf|5161|dock7
  -GOLD-   22720 4233D 1   1.00000     0.00000
 Structure written by MMmdl.
 42 43  0  0  0  0  0  0  0  0  1 V2000
  143.7764  141.6010  156.6820 C   0  0  0  0  0  0  0  0  0  0  0  0
  144.9082  142.3211  155.9418 C   0  0  1  0  0  0  0  0  0  0  0  0
  145.8191  141.3417  155.1767 C   0  0  0  0  0  0  0  0  0  0  0  0
  146.8471  142.0382  154.4074 N   0  0  0  0  0  0  0  0  0  0  0  0
  147.7050  141.1229  153.6572 C   0  0  0  0  0  0  0  0  0  0  0  0
  149.0578  140.8076  154.3228 C   0  0  0  0  0  0  0  0  0  0  0  0
  149.4393  141.8500  155.2678 N   0  0  0  0  0  0  0  0  0  0  0  0
  150.2800  141.6830  156.2989 C   0  0  0  0  0  0  0  0  0  0  0  0
  150.8293  140.6119  156.5592 O   0  0  0  0  0  0  0  0  0  0  0  0
  150.4316  142.8248  156.9930 N   0  0  0  0  0  0  0  0  0  0  0  0
  151.2317  143.0524  158.1443 C   0  0  0  0  0  0  0  0  0  0  0  0
  151.3469  144.4057  158.5353 C   0  0  0  0  0  0  0  0  0  0  0  0
  152.1199  144.7372  159.6650 C   0  0  0  0  0  0  0  0  0  0  0  0
  152.7580  143.7054  160.3761 C   0  0  0  0  0  0  0  0  0  0  0  0
  152.5907  142.3845  159.9210 C   0  0  0  0  0  0  0  0  0  0  0  0
  151.8510  142.0648  158.8382 N   0  0  0  0  0  0  0  0  0  0  0  0
  146.2018  142.9949  153.5153 C   0  0  0  0  0  0  0  0  0  0  0  0
  145.2956  143.9787  154.2796 C   0  0  1  0  0  0  0  0  0  0  0  0
  144.5564  144.9366  153.3395 C   0  0  0  0  0  0  0  0  0  0  0  0
  144.3280  143.2386  155.0186 O   0  0  0  0  0  0  0  0  0  0  0  0
  144.1720  140.8977  157.4152 H   0  0  0  0  0  0  0  0  0  0  0  0
  143.1442  141.0439  155.9900 H   0  0  0  0  0  0  0  0  0  0  0  0
  143.1438  142.3132  157.2123 H   0  0  0  0  0  0  0  0  0  0  0  0
  145.5015  142.8794  156.6679 H   0  0  0  0  0  0  0  0  0  0  0  0
  146.2794  140.6640  155.8948 H   0  0  0  0  0  0  0  0  0  0  0  0
  145.2130  140.7268  154.5094 H   0  0  0  0  0  0  0  0  0  0  0  0
  147.1685  140.1933  153.4605 H   0  0  0  0  0  0  0  0  0  0  0  0
  147.9080  141.5622  152.6796 H   0  0  0  0  0  0  0  0  0  0  0  0
  149.0199  139.8403  154.8265 H   0  0  0  0  0  0  0  0  0  0  0  0
  149.8506  140.7418  153.5786 H   0  0  0  0  0  0  0  0  0  0  0  0
  149.0325  142.7629  155.1262 H   0  0  0  0  0  0  0  0  0  0  0  0
  149.9142  143.6245  156.6595 H   0  0  0  0  0  0  0  0  0  0  0  0
  150.8496  145.1862  157.9776 H   0  0  0  0  0  0  0  0  0  0  0  0
  152.2208  145.7654  159.9796 H   0  0  0  0  0  0  0  0  0  0  0  0
  153.3591  143.9197  161.2473 H   0  0  0  0  0  0  0  0  0  0  0  0
  153.0627  141.5626  160.4389 H   0  0  0  0  0  0  0  0  0  0  0  0
  146.9599  143.5565  152.9679 H   0  0  0  0  0  0  0  0  0  0  0  0
  145.6107  142.4617  152.7688 H   0  0  0  0  0  0  0  0  0  0  0  0
  145.8981  144.5661  154.9746 H   0  0  0  0  0  0  0  0  0  0  0  0
  145.2585  145.5338  152.7573 H   0  0  0  0  0  0  0  0  0  0  0  0
  143.9236  145.6231  153.9024 H   0  0  0  0  0  0  0  0  0  0  0  0
  143.9194  144.3923  152.6416 H   0  0  0  0  0  0  0  0  0  0  0  0
  1  2  1  0  0  0  0
  1 21  1  0  0  0  0
  1 22  1  0  0  0  0
  1 23  1  0  0  0  0
  2 20  1  0  0  0  0
  2  3  1  0  0  0  0
  2 24  1  0  0  0  0
  3  4  1  0  0  0  0
  3 25  1  0  0  0  0
  3 26  1  0  0  0  0
  4  5  1  0  0  0  0
  4 17  1  0  0  0  0
  5  6  1  0  0  0  0
  5 27  1  0  0  0  0
  5 28  1  0  0  0  0
  6  7  1  0  0  0  0
  6 29  1  0  0  0  0
  6 30  1  0  0  0  0
  7  8  1  0  0  0  0
  7 31  1  0  0  0  0
  8  9  2  0  0  0  0
  8 10  1  0  0  0  0
 10 11  1  0  0  0  0
 10 32  1  0  0  0  0
 11 16  1  0  0  0  0
 11 12  2  0  0  0  0
 12 13  1  0  0  0  0
 12 33  1  0  0  0  0
 13 14  2  0  0  0  0
 13 34  1  0  0  0  0
 14 15  1  0  0  0  0
 14 35  1  0  0  0  0
 15 16  2  0  0  0  0
 15 36  1  0  0  0  0
 17 18  1  0  0  0  0
 17 37  1  0  0  0  0
 17 38  1  0  0  0  0
 18 19  1  0  0  0  0
 18 20  1  0  0  0  0
 18 39  1  0  0  0  0
 19 40  1  0  0  0  0
 19 41  1  0  0  0  0
 19 42  1  0  0  0  0
M  END
> <s_m_source_file>
AV-unprocessed.smi

> <i_m_source_file_index>
1231

> <i_lp_mmshare_version>
43012

> <i_f3d_flags>
0

> <s_epik_input>
W0NIM11bQ0BASF0xW0NIMl1OKFtDSDJdW0NASF0oTzEpW0NIM10pW0NIMl1bQ0gyXVtOSF1DKD1PKVtOSF1jMltjSF1bY0hdW2NIXVtjSF1uMg==

> <s_epik_cmdline>
J2VwaWtfcHl0aG9uJywgJy1waCcsICc3LjAnLCAnLXRuJywgJzgnLCAnLW1hJywgJzIwMCcsICctbWV0YWxfYmluZGluZycsICctaW1hZScsICc8aW5maWxlLm1hZT4nLCAnLW9tYWUnLCAnPG91dGZpbGUubWFlPic=

> <r_epik_Ionization_Penalty>
0.266037

> <r_epik_Ionization_Penalty_Charging>
0

> <r_epik_Ionization_Penalty_Neutral>
0.266037

> <r_epik_State_Penalty>
0.257924

> <r_epik_Charging_Adjusted_Penalty>
0.257924

> <i_epik_Tot_Q>
0

> <i_epik_Tot_abs_Q>
0

> <r_epik_Metal_State_Penalty>
0.257923

> <b_epik_Metal_Only>
0

> <s_lp_Force_Field>
OPLS_2005

> <r_lp_Energy>
20.5827

> <b_lp_Chiralities_Consistent>
1

> <s_lp_Variant>
AV-unprocessed.smi:1231-2

> <Gold.Version>
5.8.1

> <Gold.Id.Protein>
6NUR|6NUR_protein|mol2

> <Gold.PLP.Fitness>
45.6177

> <Gold.PLP.PLP>
-41.6227

> <Gold.PLP.part.hbond>
-2.0000

> <Gold.PLP.part.metal>
0.0000

> <Gold.PLP.part.buried>
-9.1024

> <Gold.PLP.part.nonpolar>
-32.0057

> <Gold.PLP.part.repulsive>
0.5436

> <Gold.PLP.ligand.clash>
0.0000

> <Gold.PLP.ligand.torsion>
1.0068

> <Gold.PLP.Chemscore.Hbond>
1.9920

> <Gold.PLP.Chemscore.CHOScore>
0.0000

> <Gold.PLP.Chemscore.Metal>
0.0000

> <Gold.Chemscore.Hbonds>
donor molecule, donor type, donor heavy atom, donor atom, acceptor molecule, acceptor atom, score
      L1  H     7    31       P1  8028  1.00
      L1  H    10    32       P1  8028  1.00

> <Gold.PLP.Chemscore.Internal.Correction>
0.0326

> <Gold.Rescore>
     Score         DG    S(hbond)    S(metal)    S(lipo)     H(rot)  DE(clash)    DE(int)     intcor
     16.73     -19.01       1.91        0.00      94.42       1.52       0.09       2.19       ----

> <Gold.Chemscore.Fitness>
16.7338

> <Gold.Chemscore.DG>
-19.0146

> <Gold.Chemscore.ZeroCoef>
-5.4800

> <Gold.Chemscore.Hbond>
1.9067

> <Gold.Chemscore.Metal>
0.0000

> <Gold.Chemscore.Lipo>
94.4249

> <Gold.Chemscore.Internal_Hbond>
0.0000

> <Gold.Chemscore.DEClash>
0.0903

> <Gold.Chemscore.DEInternal>
2.1905

> <Gold.Chemscore.Rot>
1.5162

> <Gold.Chemscore.Internal.Correction>
   9.000000E+99

> <Gold.Chemscore.Hbonds>
donor molecule, donor type, donor heavy atom, donor atom, acceptor molecule, acceptor atom, score
      L1  H     7    31       P1  8028  0.89
      L1  H    10    32       P1  8028  1.00

> <Gold.Chemscore.Hbond.Weighted>
-6.3684

> <Gold.Chemscore.Metal.Weighted>
-0.0000

> <Gold.Chemscore.Lipo.Weighted>
-11.0477

> <Gold.Chemscore.Internal_Hbond.Weighted>
0.0000

> <Gold.Chemscore.DEClash.Weighted>
0.0903

> <Gold.Chemscore.DEInternal.Weighted>
2.1905

> <Gold.Chemscore.Rot.Weighted>
3.8814

> <Gold.Chemscore.Internal.Correction.Weighted>
   9.000000E+99

> <Gold.Protein.RotatedTorsions>
[ 6907 6896 6895 6894 ] final  109.73 input  -60.11 | X-H torsion
[ 7974 7965 7964 7962 ] final  -18.79 input  175.53 | X-H torsion
[ 8008 7997 7996 7995 ] final  171.01 input   59.86 | X-H torsion
[ 10167 10162 10161 10158 ] final  117.47 input  -65.29 | X-H torsion
[ 10718 10713 10712 10709 ] final  167.52 input   66.30 | X-H torsion
[ 10763 10752 10751 10750 ] final  -15.50 input  -60.55 | X-H torsion
[ 11005 11000 10999 10996 ] final   43.44 input  -57.11 | X-H torsion

> <Gold.Protein.ActiveResidues>
 VAL166  LYS551  ARG553  GLY616  TRP617  ASP618  TYR619  PRO620  LYS621  CYS622 
 ASP623  PHE694  ASN695  SER759  ASP760  ASP761  ALA762  ILE779  LEU786  VAL792 
 PHE793  MET794  SER795  GLU796  ALA797  LYS798  CYS799  TRP800  GLU811  SER814 

> <Gold.Protein.RotatedAtoms>
  152.5054  133.8902  159.7389 H   0  0  0  0  0  0  0  0  0  0  0  0  # atno 6907 bound_to 6896
  150.9343  133.6721  159.2811 H   0  0  0  0  0  0  0  0  0  0  0  0  # atno 6908 bound_to 6896
  151.4055  135.0982  159.9621 H   0  0  0  0  0  0  0  0  0  0  0  0  # atno 6909 bound_to 6896
  146.1875  140.3970  142.8471 H   0  0  0  0  0  0  0  0  0  0  0  0  # atno 7974 bound_to 7965
  156.1312  140.1523  156.9063 H   0  0  0  0  0  0  0  0  0  0  0  0  # atno 8008 bound_to 7997
  154.4910  140.0851  156.7634 H   0  0  0  0  0  0  0  0  0  0  0  0  # atno 8009 bound_to 7997
  155.4253  140.3425  155.4277 H   0  0  0  0  0  0  0  0  0  0  0  0  # atno 8010 bound_to 7997
  139.6176  144.7095  151.2704 H   0  0  0  0  0  0  0  0  0  0  0  0  # atno 10167 bound_to 10162
  157.0503  131.0311  151.2683 H   0  0  0  0  0  0  0  0  0  0  0  0  # atno 10718 bound_to 10713
  153.5444  135.7012  153.5621 H   0  0  0  0  0  0  0  0  0  0  0  0  # atno 10763 bound_to 10752
  153.3573  135.3979  155.1691 H   0  0  0  0  0  0  0  0  0  0  0  0  # atno 10764 bound_to 10752
  154.8669  135.3780  154.4950 H   0  0  0  0  0  0  0  0  0  0  0  0  # atno 10765 bound_to 10752
  140.1645  134.4300  155.8296 H   0  0  0  0  0  0  0  0  0  0  0  0  # atno 11005 bound_to 11000
  144.8423  140.6876  143.6221 LP  0  0  0  0  0  0  0  0  0  0  0  0  # atno 17320 bound_to 7965
  145.3895  139.1619  143.4236 LP  0  0  0  0  0  0  0  0  0  0  0  0  # atno 17321 bound_to 7965
  140.7361  143.6716  150.8076 LP  0  0  0  0  0  0  0  0  0  0  0  0  # atno 17342 bound_to 10162
  140.0322  143.5432  152.2755 LP  0  0  0  0  0  0  0  0  0  0  0  0  # atno 17343 bound_to 10162
  157.5035  130.7894  149.7630 LP  0  0  0  0  0  0  0  0  0  0  0  0  # atno 17370 bound_to 10713
  156.0010  130.3880  150.2608 LP  0  0  0  0  0  0  0  0  0  0  0  0  # atno 17371 bound_to 10713
  141.2212  133.6928  156.7653 LP  0  0  0  0  0  0  0  0  0  0  0  0  # atno 17394 bound_to 11000
  140.2451  134.8584  157.3612 LP  0  0  0  0  0  0  0  0  0  0  0  0  # atno 17395 bound_to 11000

$$$$
