AV-unprocessed.smi:175|AV-procd|sdf|1431|dock6
  -GOLD-   2262019213D 1   1.00000     0.00000
 Structure written by MMmdl.
 47 50  0  0  0  0  0  0  0  0  1 V2000
  156.7322  133.5808  162.9458 C   0  0  0  0  0  0  0  0  0  0  0  0
  156.5762  135.0936  163.1714 C   0  0  2  0  0  0  0  0  0  0  0  0
  157.8503  135.7202  163.2262 O   0  0  0  0  0  0  0  0  0  0  0  0
  157.6716  136.9788  163.8497 C   0  0  0  0  0  0  0  0  0  0  0  0
  156.7554  136.6415  165.0188 C   0  0  0  0  0  0  0  0  0  0  0  0
  155.8443  135.5418  164.4656 C   0  0  2  0  0  0  0  0  0  0  0  0
  155.7777  134.4990  165.4242 O   0  0  0  0  0  0  0  0  0  0  0  0
  154.4075  136.0588  164.2041 C   0  0  0  0  0  0  0  0  0  0  0  0
  154.3365  137.0932  163.1829 N   0  0  0  0  0  0  0  0  0  0  0  0
  153.7674  136.9848  161.9329 C   0  0  0  0  0  0  0  0  0  0  0  0
  153.8251  138.0620  161.1977 N   0  0  0  0  0  0  0  0  0  0  0  0
  154.4951  138.9775  161.9981 C   0  0  0  0  0  0  0  0  0  0  0  0
  154.8955  140.3276  161.8278 C   0  0  0  0  0  0  0  0  0  0  0  0
  154.6417  141.0098  160.6892 N   0  0  0  0  0  0  0  0  0  0  0  0
  154.3237  140.1921  159.5183 C   0  0  0  0  0  0  0  0  0  0  0  0
  153.0900  140.8709  158.9577 C   0  0  0  0  0  0  0  0  0  0  0  0
  152.5122  140.4888  157.9415 O   0  0  0  0  0  0  0  0  0  0  0  0
  152.7553  141.9142  159.7188 N   0  0  0  0  0  0  0  0  0  0  0  0
  151.6376  142.8311  159.5063 C   0  0  0  0  0  0  0  0  0  0  0  0
  152.1008  144.2870  159.3195 C   0  0  0  0  0  0  0  0  0  0  0  0
  152.3873  144.8067  160.5124 F   0  0  0  0  0  0  0  0  0  0  0  0
  153.1920  144.3523  158.5572 F   0  0  0  0  0  0  0  0  0  0  0  0
  151.1320  145.0132  158.7617 F   0  0  0  0  0  0  0  0  0  0  0  0
  153.6765  142.1010  160.8270 C   0  0  0  0  0  0  0  0  0  0  0  0
  155.5625  140.9297  162.8479 N   0  0  0  0  0  0  0  0  0  0  0  0
  155.8168  140.2490  163.9697 C   0  0  0  0  0  0  0  0  0  0  0  0
  155.5011  138.9870  164.2712 N   0  0  0  0  0  0  0  0  0  0  0  0
  154.8318  138.3841  163.2462 C   0  0  0  0  0  0  0  0  0  0  0  0
  155.7613  133.0856  162.9135 H   0  0  0  0  0  0  0  0  0  0  0  0
  157.3226  133.1169  163.7363 H   0  0  0  0  0  0  0  0  0  0  0  0
  157.2369  133.3817  162.0002 H   0  0  0  0  0  0  0  0  0  0  0  0
  156.0720  135.5220  162.3042 H   0  0  0  0  0  0  0  0  0  0  0  0
  158.6204  137.4111  164.1678 H   0  0  0  0  0  0  0  0  0  0  0  0
  157.1888  137.6709  163.1579 H   0  0  0  0  0  0  0  0  0  0  0  0
  157.3664  136.2664  165.8420 H   0  0  0  0  0  0  0  0  0  0  0  0
  156.2140  137.5135  165.3873 H   0  0  0  0  0  0  0  0  0  0  0  0
  154.8715  134.3537  165.6489 H   0  0  0  0  0  0  0  0  0  0  0  0
  153.7582  135.2360  163.9018 H   0  0  0  0  0  0  0  0  0  0  0  0
  153.9796  136.4598  165.1239 H   0  0  0  0  0  0  0  0  0  0  0  0
  153.2992  136.0771  161.5813 H   0  0  0  0  0  0  0  0  0  0  0  0
  155.1404  140.2320  158.7972 H   0  0  0  0  0  0  0  0  0  0  0  0
  154.1129  139.1469  159.7506 H   0  0  0  0  0  0  0  0  0  0  0  0
  151.0777  142.5092  158.6272 H   0  0  0  0  0  0  0  0  0  0  0  0
  150.9462  142.7636  160.3479 H   0  0  0  0  0  0  0  0  0  0  0  0
  153.1374  142.0851  161.7763 H   0  0  0  0  0  0  0  0  0  0  0  0
  154.1876  143.0603  160.7391 H   0  0  0  0  0  0  0  0  0  0  0  0
  156.3495  140.7935  164.7355 H   0  0  0  0  0  0  0  0  0  0  0  0
  1  2  1  0  0  0  0
  1 29  1  0  0  0  0
  1 30  1  0  0  0  0
  1 31  1  0  0  0  0
  2  6  1  0  0  0  0
  2  3  1  0  0  0  0
  2 32  1  0  0  0  0
  3  4  1  0  0  0  0
  4  5  1  0  0  0  0
  4 33  1  0  0  0  0
  4 34  1  0  0  0  0
  5  6  1  0  0  0  0
  5 35  1  0  0  0  0
  5 36  1  0  0  0  0
  6  7  1  0  0  0  0
  6  8  1  0  0  0  0
  7 37  1  0  0  0  0
  8  9  1  0  0  0  0
  8 38  1  0  0  0  0
  8 39  1  0  0  0  0
  9 28  1  0  0  0  0
  9 10  1  0  0  0  0
 10 11  2  0  0  0  0
 10 40  1  0  0  0  0
 11 12  1  0  0  0  0
 12 28  2  0  0  0  0
 12 13  1  0  0  0  0
 13 14  1  0  0  0  0
 13 25  2  0  0  0  0
 14 24  1  0  0  0  0
 14 15  1  0  0  0  0
 15 16  1  0  0  0  0
 15 41  1  0  0  0  0
 15 42  1  0  0  0  0
 16 17  2  0  0  0  0
 16 18  1  0  0  0  0
 18 19  1  0  0  0  0
 18 24  1  0  0  0  0
 19 20  1  0  0  0  0
 19 43  1  0  0  0  0
 19 44  1  0  0  0  0
 20 21  1  0  0  0  0
 20 22  1  0  0  0  0
 20 23  1  0  0  0  0
 24 45  1  0  0  0  0
 24 46  1  0  0  0  0
 25 26  1  0  0  0  0
 26 27  2  0  0  0  0
 26 47  1  0  0  0  0
 27 28  1  0  0  0  0
M  END
> <s_m_source_file>
AV-unprocessed.smi

> <i_m_source_file_index>
175

> <i_lp_mmshare_version>
43012

> <i_f3d_flags>
0

> <s_epik_input>
W0NIMl0xW0NIMl1PW0NAQEhdKFtDSDNdKVtDQEBdMShbT0hdKVtDSDJdbihbY0hdbjIpYyhjMjMpbltjSF1uYzNONFtDSDJdQyg9TylOKFtDSDJdNClbQ0gyXUMoRikoRilG

> <s_epik_cmdline>
J2VwaWtfcHl0aG9uJywgJy1waCcsICc3LjAnLCAnLXRuJywgJzgnLCAnLW1hJywgJzIwMCcsICctbWV0YWxfYmluZGluZycsICctaW1hZScsICc8aW5maWxlLm1hZT4nLCAnLW9tYWUnLCAnPG91dGZpbGUubWFlPic=

> <r_lp_tautomer_probability>
1

> <r_epik_Ionization_Penalty>
0.000307802

> <r_epik_Ionization_Penalty_Charging>
0

> <r_epik_Ionization_Penalty_Neutral>
0.000307802

> <r_epik_State_Penalty>
-0

> <r_epik_Charging_Adjusted_Penalty>
0

> <i_epik_Tot_Q>
0

> <i_epik_Tot_abs_Q>
0

> <r_epik_Metal_State_Penalty>
-0

> <b_epik_Metal_Only>
0

> <s_epik_Chemistry_Notes>
This compound contains an acetal/aminal-like group ( X-CH(R)-Y where X, Y are N, S, or O) that may be acid/base labile, releasing an aldehyde.

> <s_lp_Force_Field>
OPLS_2005

> <r_lp_Energy>
38.2687

> <b_lp_Chiralities_Consistent>
1

> <s_lp_Variant>
AV-unprocessed.smi:175-3

> <Gold.Version>
5.8.1

> <Gold.Id.Protein>
6NUR|6NUR_protein|mol2

> <Gold.PLP.Fitness>
48.6178

> <Gold.PLP.PLP>
-48.1620

> <Gold.PLP.part.hbond>
-3.1656

> <Gold.PLP.part.metal>
0.0000

> <Gold.PLP.part.buried>
-4.6393

> <Gold.PLP.part.nonpolar>
-38.5877

> <Gold.PLP.part.repulsive>
0.0050

> <Gold.PLP.ligand.clash>
0.0000

> <Gold.PLP.ligand.torsion>
0.6512

> <Gold.PLP.Chemscore.Hbond>
0.5242

> <Gold.PLP.Chemscore.CHOScore>
0.0000

> <Gold.PLP.Chemscore.Metal>
0.0000

> <Gold.Chemscore.Hbonds>
donor molecule, donor type, donor heavy atom, donor atom, acceptor molecule, acceptor atom, score
      P1  H  7997  8009       L1    17  0.21

> <Gold.PLP.Chemscore.Internal.Correction>
0.1857

> <Gold.Rescore>
     Score         DG    S(hbond)    S(metal)    S(lipo)     H(rot)  DE(clash)    DE(int)     intcor
      1.28      -4.17       0.00        0.00      55.49       3.05       0.43       2.47       ----

> <Gold.Chemscore.Fitness>
1.2750

> <Gold.Chemscore.DG>
-4.1674

> <Gold.Chemscore.ZeroCoef>
-5.4800

> <Gold.Chemscore.Hbond>
0.0000

> <Gold.Chemscore.Metal>
0.0000

> <Gold.Chemscore.Lipo>
55.4867

> <Gold.Chemscore.Internal_Hbond>
0.0000

> <Gold.Chemscore.DEClash>
0.4271

> <Gold.Chemscore.DEInternal>
2.4653

> <Gold.Chemscore.Rot>
3.0487

> <Gold.Chemscore.Internal.Correction>
   9.000000E+99

> <Gold.Chemscore.Hbonds>
donor molecule, donor type, donor heavy atom, donor atom, acceptor molecule, acceptor atom, score
      P1  H  7997  8009       L1    17  0.01

> <Gold.Chemscore.Hbond.Weighted>
-0.0000

> <Gold.Chemscore.Metal.Weighted>
-0.0000

> <Gold.Chemscore.Lipo.Weighted>
-6.4919

> <Gold.Chemscore.Internal_Hbond.Weighted>
0.0000

> <Gold.Chemscore.DEClash.Weighted>
0.4271

> <Gold.Chemscore.DEInternal.Weighted>
2.4653

> <Gold.Chemscore.Rot.Weighted>
7.8046

> <Gold.Chemscore.Internal.Correction.Weighted>
   9.000000E+99

> <Gold.Protein.RotatedTorsions>
[ 6907 6896 6895 6894 ] final  131.21 input  -60.11 | X-H torsion
[ 7974 7965 7964 7962 ] final -148.72 input  175.53 | X-H torsion
[ 8008 7997 7996 7995 ] final  165.85 input   59.86 | X-H torsion
[ 10167 10162 10161 10158 ] final -167.75 input  -65.29 | X-H torsion
[ 10718 10713 10712 10709 ] final  146.61 input   66.30 | X-H torsion
[ 10763 10752 10751 10750 ] final   -0.61 input  -60.55 | X-H torsion
[ 11005 11000 10999 10996 ] final   84.48 input  -57.11 | X-H torsion

> <Gold.Protein.ActiveResidues>
 VAL166  LYS551  ARG553  GLY616  TRP617  ASP618  TYR619  PRO620  LYS621  CYS622 
 ASP623  PHE694  ASN695  SER759  ASP760  ASP761  ALA762  ILE779  LEU786  VAL792 
 PHE793  MET794  SER795  GLU796  ALA797  LYS798  CYS799  TRP800  GLU811  SER814 

> <Gold.Protein.RotatedAtoms>
  152.3449  133.6111  159.5902 H   0  0  0  0  0  0  0  0  0  0  0  0  # atno 6907 bound_to 6896
  150.7501  133.9664  159.3541 H   0  0  0  0  0  0  0  0  0  0  0  0  # atno 6908 bound_to 6896
  151.7523  135.0830  160.0384 H   0  0  0  0  0  0  0  0  0  0  0  0  # atno 6909 bound_to 6896
  144.8012  140.5159  143.5706 H   0  0  0  0  0  0  0  0  0  0  0  0  # atno 7974 bound_to 7965
  156.1767  140.1659  156.8350 H   0  0  0  0  0  0  0  0  0  0  0  0  # atno 8008 bound_to 7997
  154.5315  140.0756  156.8386 H   0  0  0  0  0  0  0  0  0  0  0  0  # atno 8009 bound_to 7997
  155.3398  140.3384  155.4241 H   0  0  0  0  0  0  0  0  0  0  0  0  # atno 8010 bound_to 7997
  139.6029  144.0973  152.1762 H   0  0  0  0  0  0  0  0  0  0  0  0  # atno 10167 bound_to 10162
  157.3311  131.0920  151.1161 H   0  0  0  0  0  0  0  0  0  0  0  0  # atno 10718 bound_to 10713
  153.3341  135.6977  153.6922 H   0  0  0  0  0  0  0  0  0  0  0  0  # atno 10763 bound_to 10752
  153.5713  135.3515  155.2839 H   0  0  0  0  0  0  0  0  0  0  0  0  # atno 10764 bound_to 10752
  154.8624  135.4273  154.2538 H   0  0  0  0  0  0  0  0  0  0  0  0  # atno 10765 bound_to 10752
  139.8999  134.8219  156.2451 H   0  0  0  0  0  0  0  0  0  0  0  0  # atno 11005 bound_to 11000
  145.5549  139.1477  143.3373 LP  0  0  0  0  0  0  0  0  0  0  0  0  # atno 17320 bound_to 7965
  146.2293  140.5687  142.8982 LP  0  0  0  0  0  0  0  0  0  0  0  0  # atno 17321 bound_to 7965
  140.0574  144.5884  150.7289 LP  0  0  0  0  0  0  0  0  0  0  0  0  # atno 17342 bound_to 10162
  140.7263  143.2640  151.4109 LP  0  0  0  0  0  0  0  0  0  0  0  0  # atno 17343 bound_to 10162
  157.2409  130.6569  149.5889 LP  0  0  0  0  0  0  0  0  0  0  0  0  # atno 17370 bound_to 10713
  155.9696  130.4569  150.5941 LP  0  0  0  0  0  0  0  0  0  0  0  0  # atno 17371 bound_to 10713
  141.0260  133.7015  156.1348 LP  0  0  0  0  0  0  0  0  0  0  0  0  # atno 17394 bound_to 11000
  140.7165  134.4404  157.5578 LP  0  0  0  0  0  0  0  0  0  0  0  0  # atno 17395 bound_to 11000

$$$$
