AV-unprocessed.smi:1669|AV-procd|sdf|6690|dock10
  -GOLD-   22720 7423D 1   1.00000     0.00000
 Structure written by MMmdl.
 49 51  0  0  0  0  0  0  0  0  3 V2000
  149.1058  138.7605  154.0397 C   0  0  0  0  0  0  0  0  0  0  0  0
  149.7334  137.4658  154.4042 N   0  3  2  0  0  0  0  0  0  0  0  0
  149.0123  136.7690  155.5000 C   0  0  0  0  0  0  0  0  0  0  0  0
  148.6649  135.3352  155.1397 C   0  0  0  0  0  0  0  0  0  0  0  0
  147.3184  134.9458  154.9743 C   0  0  0  0  0  0  0  0  0  0  0  0
  147.0034  133.6146  154.6388 C   0  0  0  0  0  0  0  0  0  0  0  0
  148.0323  132.6682  154.4691 C   0  0  0  0  0  0  0  0  0  0  0  0
  149.3767  133.0524  154.6355 C   0  0  0  0  0  0  0  0  0  0  0  0
  149.6927  134.3833  154.9710 C   0  0  0  0  0  0  0  0  0  0  0  0
  151.1902  137.5867  154.6762 C   0  0  0  0  0  0  0  0  0  0  0  0
  151.5627  138.9376  155.3198 C   0  0  2  0  0  0  0  0  0  0  0  0
  152.9214  138.8936  155.7111 O   0  0  0  0  0  0  0  0  0  0  0  0
  150.6805  139.2543  156.5447 C   0  0  0  0  0  0  0  0  0  0  0  0
  150.6217  140.6938  156.8491 N   0  0  0  0  0  0  0  0  0  0  0  0
  149.8541  141.6759  156.2924 C   0  0  0  0  0  0  0  0  0  0  0  0
  148.8415  141.5137  155.2036 C   0  0  0  0  0  0  0  0  0  0  0  0
  149.1232  142.3023  154.0672 O   0  0  0  0  0  0  0  0  0  0  0  0
  150.1728  142.8419  156.9226 N   0  3  0  0  0  0  0  0  0  0  0  0
  151.1518  142.6079  157.8878 C   0  0  0  0  0  0  0  0  0  0  0  0
  151.7869  143.4776  158.7687 C   0  0  0  0  0  0  0  0  0  0  0  0
  152.7481  142.9131  159.6324 C   0  0  0  0  0  0  0  0  0  0  0  0
  153.0441  141.5351  159.5998 C   0  0  0  0  0  0  0  0  0  0  0  0
  152.3923  140.6631  158.7031 C   0  0  0  0  0  0  0  0  0  0  0  0
  151.4440  141.2288  157.8499 C   0  0  0  0  0  0  0  0  0  0  0  0
  149.1293  139.4553  154.8801 H   0  0  0  0  0  0  0  0  0  0  0  0
  148.0663  138.6254  153.7418 H   0  0  0  0  0  0  0  0  0  0  0  0
  149.6129  139.2308  153.1986 H   0  0  0  0  0  0  0  0  0  0  0  0
  149.6339  136.7326  156.3958 H   0  0  0  0  0  0  0  0  0  0  0  0
  148.1129  137.3254  155.7689 H   0  0  0  0  0  0  0  0  0  0  0  0
  146.5232  135.6658  155.1022 H   0  0  0  0  0  0  0  0  0  0  0  0
  145.9722  133.3191  154.5122 H   0  0  0  0  0  0  0  0  0  0  0  0
  147.7901  131.6472  154.2128 H   0  0  0  0  0  0  0  0  0  0  0  0
  150.1654  132.3258  154.5062 H   0  0  0  0  0  0  0  0  0  0  0  0
  150.7263  134.6714  155.0974 H   0  0  0  0  0  0  0  0  0  0  0  0
  151.5060  136.7574  155.3113 H   0  0  0  0  0  0  0  0  0  0  0  0
  151.7561  137.4873  153.7486 H   0  0  0  0  0  0  0  0  0  0  0  0
  151.4489  139.7447  154.5972 H   0  0  0  0  0  0  0  0  0  0  0  0
  153.3151  138.1112  155.3558 H   0  0  0  0  0  0  0  0  0  0  0  0
  149.6575  138.9249  156.3595 H   0  0  0  0  0  0  0  0  0  0  0  0
  151.0147  138.7106  157.4285 H   0  0  0  0  0  0  0  0  0  0  0  0
  148.7940  140.4685  154.8982 H   0  0  0  0  0  0  0  0  0  0  0  0
  147.8585  141.7841  155.5897 H   0  0  0  0  0  0  0  0  0  0  0  0
  149.0832  143.2138  154.3146 H   0  0  0  0  0  0  0  0  0  0  0  0
  151.5613  144.5337  158.7951 H   0  0  0  0  0  0  0  0  0  0  0  0
  153.2682  143.5497  160.3336 H   0  0  0  0  0  0  0  0  0  0  0  0
  153.7870  141.1388  160.2766 H   0  0  0  0  0  0  0  0  0  0  0  0
  152.6318  139.6108  158.6888 H   0  0  0  0  0  0  0  0  0  0  0  0
  149.6535  136.8623  153.5977 H   0  0  0  0  0  0  0  0  0  0  0  0
  149.7489  143.7337  156.7003 H   0  0  0  0  0  0  0  0  0  0  0  0
  1  2  1  0  0  0  0
  1 25  1  0  0  0  0
  1 26  1  0  0  0  0
  1 27  1  0  0  0  0
  2  3  1  0  0  0  0
  2 10  1  0  0  0  0
  2 48  1  0  0  0  0
  3  4  1  0  0  0  0
  3 28  1  0  0  0  0
  3 29  1  0  0  0  0
  4  9  1  0  0  0  0
  4  5  2  0  0  0  0
  5  6  1  0  0  0  0
  5 30  1  0  0  0  0
  6  7  2  0  0  0  0
  6 31  1  0  0  0  0
  7  8  1  0  0  0  0
  7 32  1  0  0  0  0
  8  9  2  0  0  0  0
  8 33  1  0  0  0  0
  9 34  1  0  0  0  0
 10 11  1  0  0  0  0
 10 35  1  0  0  0  0
 10 36  1  0  0  0  0
 11 12  1  0  0  0  0
 11 13  1  0  0  0  0
 11 37  1  0  0  0  0
 12 38  1  0  0  0  0
 13 14  1  0  0  0  0
 13 39  1  0  0  0  0
 13 40  1  0  0  0  0
 14 24  1  0  0  0  0
 14 15  1  0  0  0  0
 15 16  1  0  0  0  0
 15 18  2  0  0  0  0
 16 17  1  0  0  0  0
 16 41  1  0  0  0  0
 16 42  1  0  0  0  0
 17 43  1  0  0  0  0
 18 19  1  0  0  0  0
 18 49  1  0  0  0  0
 19 24  2  0  0  0  0
 19 20  1  0  0  0  0
 20 21  2  0  0  0  0
 20 44  1  0  0  0  0
 21 22  1  0  0  0  0
 21 45  1  0  0  0  0
 22 23  2  0  0  0  0
 22 46  1  0  0  0  0
 23 24  1  0  0  0  0
 23 47  1  0  0  0  0
M  CHG  1   2   1
M  CHG  1  18   1
M  END
> <s_m_source_file>
AV-unprocessed.smi

> <i_m_source_file_index>
1669

> <i_lp_mmshare_version>
43012

> <i_f3d_flags>
0

> <s_epik_input>
W2NIXTFbY0hdW2NIXVtjSF1bY0hdYzFbQ0gyXU4oW0NIM10pW0NIMl1bQ0BIXShbT0hdKVtDSDJdbihjKG4yKVtDSDJdW09IXSljKGMyMylbY0hdW2NIXVtjSF1bY0hdMw==

> <s_epik_cmdline>
J2VwaWtfcHl0aG9uJywgJy1waCcsICc3LjAnLCAnLXRuJywgJzgnLCAnLW1hJywgJzIwMCcsICctbWV0YWxfYmluZGluZycsICctaW1hZScsICc8aW5maWxlLm1hZT4nLCAnLW9tYWUnLCAnPG91dGZpbGUubWFlPic=

> <r_epik_Ionization_Penalty>
1.57484

> <r_epik_Ionization_Penalty_Charging>
1.57398

> <r_epik_Ionization_Penalty_Neutral>
0.000858917

> <r_epik_State_Penalty>
1.64997

> <r_epik_Charging_Adjusted_Penalty>
3.22395

> <i_epik_Tot_Q>
2

> <i_epik_Tot_abs_Q>
2

> <r_epik_Metal_State_Penalty>
5.70481

> <b_epik_Metal_Only>
0

> <s_lp_Force_Field>
OPLS_2005

> <r_lp_Energy>
22.9184

> <b_lp_Chiralities_Consistent>
1

> <s_lp_Variant>
AV-unprocessed.smi:1669-8

> <Gold.Version>
5.8.1

> <Gold.Id.Protein>
6NUR|6NUR_protein|mol2

> <Gold.PLP.Fitness>
62.0798

> <Gold.PLP.PLP>
-46.4579

> <Gold.PLP.part.hbond>
-4.9923

> <Gold.PLP.part.metal>
0.0000

> <Gold.PLP.part.buried>
-4.7029

> <Gold.PLP.part.nonpolar>
-37.1704

> <Gold.PLP.part.repulsive>
0.0497

> <Gold.PLP.ligand.clash>
0.0062

> <Gold.PLP.ligand.torsion>
1.6773

> <Gold.PLP.Chemscore.Hbond>
6.2560

> <Gold.PLP.Chemscore.CHOScore>
0.0000

> <Gold.PLP.Chemscore.Metal>
0.0000

> <Gold.Chemscore.Hbonds>
donor molecule, donor type, donor heavy atom, donor atom, acceptor molecule, acceptor atom, score
      L1  H     2    48       P1  7948  2.00
      L1  H    17    43       P1  8028  1.00
      L1  H    18    49       P1  8028  2.00
      P1  H  7997  8008       L1    12  1.00
      P1  H  8011  8017       L1    17  0.24

> <Gold.PLP.Chemscore.Internal.Correction>
0.2146

> <Gold.Rescore>
     Score         DG    S(hbond)    S(metal)    S(lipo)     H(rot)  DE(clash)    DE(int)     intcor
     19.36     -22.22       3.52        0.00     114.31       3.27       0.12       2.74       ----

> <Gold.Chemscore.Fitness>
19.3564

> <Gold.Chemscore.DG>
-22.2187

> <Gold.Chemscore.ZeroCoef>
-5.4800

> <Gold.Chemscore.Hbond>
3.5150

> <Gold.Chemscore.Metal>
0.0000

> <Gold.Chemscore.Lipo>
114.3107

> <Gold.Chemscore.Internal_Hbond>
0.0000

> <Gold.Chemscore.DEClash>
0.1215

> <Gold.Chemscore.DEInternal>
2.7408

> <Gold.Chemscore.Rot>
3.2718

> <Gold.Chemscore.Internal.Correction>
   9.000000E+99

> <Gold.Chemscore.Hbonds>
donor molecule, donor type, donor heavy atom, donor atom, acceptor molecule, acceptor atom, score
      L1  H     2    48       P1  7948  0.69
      L1  H    17    43       P1  8028  0.94
      L1  H    18    49       P1  8028  0.96
      P1  H  7997  8008       L1    12  0.59
      P1  H  8011  8017       L1    17  0.06

> <Gold.Chemscore.Hbond.Weighted>
-11.7403

> <Gold.Chemscore.Metal.Weighted>
-0.0000

> <Gold.Chemscore.Lipo.Weighted>
-13.3743

> <Gold.Chemscore.Internal_Hbond.Weighted>
0.0000

> <Gold.Chemscore.DEClash.Weighted>
0.1215

> <Gold.Chemscore.DEInternal.Weighted>
2.7408

> <Gold.Chemscore.Rot.Weighted>
8.3759

> <Gold.Chemscore.Internal.Correction.Weighted>
   9.000000E+99

> <Gold.Protein.RotatedTorsions>
[ 6907 6896 6895 6894 ] final  -10.66 input  -60.11 | X-H torsion
[ 7974 7965 7964 7962 ] final  143.20 input  175.53 | X-H torsion
[ 8008 7997 7996 7995 ] final  -26.79 input   59.86 | X-H torsion
[ 10167 10162 10161 10158 ] final   91.85 input  -65.29 | X-H torsion
[ 10718 10713 10712 10709 ] final   55.18 input   66.30 | X-H torsion
[ 10763 10752 10751 10750 ] final -107.26 input  -60.55 | X-H torsion
[ 11005 11000 10999 10996 ] final   20.00 input  -57.11 | X-H torsion

> <Gold.Protein.ActiveResidues>
 VAL166  LYS551  ARG553  GLY616  TRP617  ASP618  TYR619  PRO620  LYS621  CYS622 
 ASP623  PHE694  ASN695  SER759  ASP760  ASP761  ALA762  ILE779  LEU786  VAL792 
 PHE793  MET794  SER795  GLU796  ALA797  LYS798  CYS799  TRP800  GLU811  SER814 

> <Gold.Protein.RotatedAtoms>
  151.3984  135.0967  159.9547 H   0  0  0  0  0  0  0  0  0  0  0  0  # atno 6907 bound_to 6896
  152.5058  133.8912  159.7405 H   0  0  0  0  0  0  0  0  0  0  0  0  # atno 6908 bound_to 6896
  150.9380  133.6633  159.2825 H   0  0  0  0  0  0  0  0  0  0  0  0  # atno 6909 bound_to 6896
  144.8941  139.5516  143.5784 H   0  0  0  0  0  0  0  0  0  0  0  0  # atno 7974 bound_to 7965
  154.4408  140.1890  156.0830 H   0  0  0  0  0  0  0  0  0  0  0  0  # atno 8008 bound_to 7997
  156.0424  140.3318  155.7232 H   0  0  0  0  0  0  0  0  0  0  0  0  # atno 8009 bound_to 7997
  155.5680  140.0610  157.2804 H   0  0  0  0  0  0  0  0  0  0  0  0  # atno 8010 bound_to 7997
  139.8334  144.6676  150.9372 H   0  0  0  0  0  0  0  0  0  0  0  0  # atno 10167 bound_to 10162
  157.5323  130.8639  149.8704 H   0  0  0  0  0  0  0  0  0  0  0  0  # atno 10718 bound_to 10713
  154.8064  135.4681  154.0403 H   0  0  0  0  0  0  0  0  0  0  0  0  # atno 10763 bound_to 10752
  153.1869  135.6849  153.8411 H   0  0  0  0  0  0  0  0  0  0  0  0  # atno 10764 bound_to 10752
  153.7942  135.3239  155.3360 H   0  0  0  0  0  0  0  0  0  0  0  0  # atno 10765 bound_to 10752
  140.4074  134.1654  155.7666 H   0  0  0  0  0  0  0  0  0  0  0  0  # atno 11005 bound_to 11000
  146.3071  139.7617  142.9048 LP  0  0  0  0  0  0  0  0  0  0  0  0  # atno 17320 bound_to 7965
  145.3731  141.0346  143.3220 LP  0  0  0  0  0  0  0  0  0  0  0  0  # atno 17321 bound_to 7965
  140.7805  143.3980  151.1197 LP  0  0  0  0  0  0  0  0  0  0  0  0  # atno 17342 bound_to 10162
  139.7632  143.8605  152.3105 LP  0  0  0  0  0  0  0  0  0  0  0  0  # atno 17343 bound_to 10162
  156.0432  130.3734  150.1384 LP  0  0  0  0  0  0  0  0  0  0  0  0  # atno 17370 bound_to 10713
  156.9568  130.9792  151.3487 LP  0  0  0  0  0  0  0  0  0  0  0  0  # atno 17371 bound_to 10713
  141.1834  133.8365  157.1176 LP  0  0  0  0  0  0  0  0  0  0  0  0  # atno 17394 bound_to 11000
  140.0292  134.9909  157.0746 LP  0  0  0  0  0  0  0  0  0  0  0  0  # atno 17395 bound_to 11000

$$$$
