AV-unprocessed.smi:325|AV-procd|sdf|2343|dock5
  -GOLD-   2262022253D 1   1.00000     0.00000
 Structure written by MMmdl.
 45 46  0  0  0  0  0  0  0  0  2 V2000
  148.9851  141.3226  154.8818 C   0  0  0  0  0  0  0  0  0  0  0  0
  150.1611  141.1073  155.8174 C   0  0  0  0  0  0  0  0  0  0  0  0
  150.2840  142.0281  156.8686 N   0  0  0  0  0  0  0  0  0  0  0  0
  151.2599  141.9240  157.7200 C   0  0  0  0  0  0  0  0  0  0  0  0
  151.4243  142.8306  158.7725 N   0  0  0  0  0  0  0  0  0  0  0  0
  152.6409  142.8186  159.5858 C   0  0  0  0  0  0  0  0  0  0  0  0
  152.3908  143.4208  160.9784 C   0  0  0  0  0  0  0  0  0  0  0  0
  151.8608  144.7324  160.8461 O   0  0  0  0  0  0  0  0  0  0  0  0
  150.6146  144.7184  160.1632 C   0  0  0  0  0  0  0  0  0  0  0  0
  150.8048  144.1584  158.7439 C   0  0  0  0  0  0  0  0  0  0  0  0
  152.2112  140.9191  157.6374 N   0  5  0  0  0  0  0  0  0  0  0  0
  152.1519  139.9864  156.6452 C   0  0  0  0  0  0  0  0  0  0  0  0
  152.9757  139.0770  156.5552 O   0  0  0  0  0  0  0  0  0  0  0  0
  151.0542  140.0891  155.6682 C   0  0  0  0  0  0  0  0  0  0  0  0
  150.9840  139.0710  154.5321 C   0  0  0  0  0  0  0  0  0  0  0  0
  149.6676  138.2706  154.5503 C   0  0  0  0  0  0  0  0  0  0  0  0
  149.7352  136.9974  155.3993 C   0  0  0  0  0  0  0  0  0  0  0  0
  149.9761  137.0513  156.6059 O   0  0  0  0  0  0  0  0  0  0  0  0
  149.5120  135.8471  154.7449 N   0  0  0  0  0  0  0  0  0  0  0  0
  149.5208  134.5157  155.3437 C   0  0  0  0  0  0  0  0  0  0  0  0
  150.7773  134.3532  156.2091 C   0  0  0  0  0  0  0  0  0  0  0  0
  149.4393  133.4365  154.2526 C   0  0  0  0  0  0  0  0  0  0  0  0
  148.4110  140.4031  154.7659 H   0  0  0  0  0  0  0  0  0  0  0  0
  149.3358  141.6405  153.8999 H   0  0  0  0  0  0  0  0  0  0  0  0
  148.3117  142.0907  155.2642 H   0  0  0  0  0  0  0  0  0  0  0  0
  153.0132  141.8002  159.7039 H   0  0  0  0  0  0  0  0  0  0  0  0
  153.4166  143.3838  159.0677 H   0  0  0  0  0  0  0  0  0  0  0  0
  151.7077  142.7949  161.5550 H   0  0  0  0  0  0  0  0  0  0  0  0
  153.3247  143.4711  161.5381 H   0  0  0  0  0  0  0  0  0  0  0  0
  149.8869  144.1252  160.7195 H   0  0  0  0  0  0  0  0  0  0  0  0
  150.2258  145.7355  160.1157 H   0  0  0  0  0  0  0  0  0  0  0  0
  151.4437  144.8258  158.1645 H   0  0  0  0  0  0  0  0  0  0  0  0
  149.8368  144.1430  158.2429 H   0  0  0  0  0  0  0  0  0  0  0  0
  151.0941  139.5759  153.5727 H   0  0  0  0  0  0  0  0  0  0  0  0
  151.8408  138.3984  154.5989 H   0  0  0  0  0  0  0  0  0  0  0  0
  148.8579  138.8923  154.9340 H   0  0  0  0  0  0  0  0  0  0  0  0
  149.3952  137.9970  153.5301 H   0  0  0  0  0  0  0  0  0  0  0  0
  149.3180  135.9001  153.7554 H   0  0  0  0  0  0  0  0  0  0  0  0
  148.6532  134.4136  155.9981 H   0  0  0  0  0  0  0  0  0  0  0  0
  150.7972  133.3748  156.6900 H   0  0  0  0  0  0  0  0  0  0  0  0
  150.8123  135.1066  156.9968 H   0  0  0  0  0  0  0  0  0  0  0  0
  151.6858  134.4494  155.6136 H   0  0  0  0  0  0  0  0  0  0  0  0
  149.4340  132.4377  154.6898 H   0  0  0  0  0  0  0  0  0  0  0  0
  150.2881  133.4967  153.5707 H   0  0  0  0  0  0  0  0  0  0  0  0
  148.5292  133.5393  153.6608 H   0  0  0  0  0  0  0  0  0  0  0  0
  1  2  1  0  0  0  0
  1 23  1  0  0  0  0
  1 24  1  0  0  0  0
  1 25  1  0  0  0  0
  2 14  2  0  0  0  0
  2  3  1  0  0  0  0
  3  4  2  0  0  0  0
  4  5  1  0  0  0  0
  4 11  1  0  0  0  0
  5 10  1  0  0  0  0
  5  6  1  0  0  0  0
  6  7  1  0  0  0  0
  6 26  1  0  0  0  0
  6 27  1  0  0  0  0
  7  8  1  0  0  0  0
  7 28  1  0  0  0  0
  7 29  1  0  0  0  0
  8  9  1  0  0  0  0
  9 10  1  0  0  0  0
  9 30  1  0  0  0  0
  9 31  1  0  0  0  0
 10 32  1  0  0  0  0
 10 33  1  0  0  0  0
 11 12  1  0  0  0  0
 12 13  2  0  0  0  0
 12 14  1  0  0  0  0
 14 15  1  0  0  0  0
 15 16  1  0  0  0  0
 15 34  1  0  0  0  0
 15 35  1  0  0  0  0
 16 17  1  0  0  0  0
 16 36  1  0  0  0  0
 16 37  1  0  0  0  0
 17 18  2  0  0  0  0
 17 19  1  0  0  0  0
 19 20  1  0  0  0  0
 19 38  1  0  0  0  0
 20 21  1  0  0  0  0
 20 22  1  0  0  0  0
 20 39  1  0  0  0  0
 21 40  1  0  0  0  0
 21 41  1  0  0  0  0
 21 42  1  0  0  0  0
 22 43  1  0  0  0  0
 22 44  1  0  0  0  0
 22 45  1  0  0  0  0
M  CHG  1  11  -1
M  END
> <s_m_source_file>
AV-unprocessed.smi

> <i_m_source_file_index>
325

> <i_lp_mmshare_version>
43012

> <i_f3d_flags>
0

> <s_epik_input>
W0NIMl0xW0NIMl1PW0NIMl1bQ0gyXU4xYyhuYzJbQ0gzXSlbbkhdYyg9TyljMltDSDJdW0NIMl1DKD1PKVtOSF1bQ0hdKFtDSDNdKVtDSDNd

> <s_epik_cmdline>
J2VwaWtfcHl0aG9uJywgJy1waCcsICc3LjAnLCAnLXRuJywgJzgnLCAnLW1hJywgJzIwMCcsICctbWV0YWxfYmluZGluZycsICctaW1hZScsICc8aW5maWxlLm1hZT4nLCAnLW9tYWUnLCAnPG91dGZpbGUubWFlPic=

> <r_lp_tautomer_probability>
1

> <r_epik_Ionization_Penalty>
5.05468

> <r_epik_Ionization_Penalty_Charging>
1.01174e-07

> <r_epik_Ionization_Penalty_Neutral>
5.05468

> <r_epik_State_Penalty>
2.58307

> <r_epik_Charging_Adjusted_Penalty>
2.58307

> <i_epik_Tot_Q>
-1

> <i_epik_Tot_abs_Q>
1

> <r_epik_Metal_State_Penalty>
0.123593

> <b_epik_Metal_Only>
0

> <s_lp_Force_Field>
OPLS_2005

> <r_lp_Energy>
24.1859

> <b_lp_Chiralities_Consistent>
1

> <s_lp_Variant>
AV-unprocessed.smi:325-3

> <Gold.Version>
5.8.1

> <Gold.Id.Protein>
6NUR|6NUR_protein|mol2

> <Gold.PLP.Fitness>
47.3603

> <Gold.PLP.PLP>
-42.2239

> <Gold.PLP.part.hbond>
-2.1091

> <Gold.PLP.part.metal>
0.0000

> <Gold.PLP.part.buried>
-3.1458

> <Gold.PLP.part.nonpolar>
-36.4698

> <Gold.PLP.part.repulsive>
0.3358

> <Gold.PLP.ligand.clash>
0.0000

> <Gold.PLP.ligand.torsion>
0.3908

> <Gold.PLP.Chemscore.Hbond>
1.9000

> <Gold.PLP.Chemscore.CHOScore>
0.0000

> <Gold.PLP.Chemscore.Metal>
0.0000

> <Gold.Chemscore.Hbonds>
donor molecule, donor type, donor heavy atom, donor atom, acceptor molecule, acceptor atom, score
      L1  H    19    38       P1  7948  1.00
      P1  H  7997  8009       L1    13  0.77

> <Gold.PLP.Chemscore.Internal.Correction>
0.2179

> <Gold.Rescore>
     Score         DG    S(hbond)    S(metal)    S(lipo)     H(rot)  DE(clash)    DE(int)     intcor
     13.37     -15.79       1.08        0.00      93.70       1.67       0.66       1.76       ----

> <Gold.Chemscore.Fitness>
13.3654

> <Gold.Chemscore.DG>
-15.7852

> <Gold.Chemscore.ZeroCoef>
-5.4800

> <Gold.Chemscore.Hbond>
1.0845

> <Gold.Chemscore.Metal>
0.0000

> <Gold.Chemscore.Lipo>
93.6956

> <Gold.Chemscore.Internal_Hbond>
0.0000

> <Gold.Chemscore.DEClash>
0.6596

> <Gold.Chemscore.DEInternal>
1.7602

> <Gold.Chemscore.Rot>
1.6717

> <Gold.Chemscore.Internal.Correction>
   9.000000E+99

> <Gold.Chemscore.Hbonds>
donor molecule, donor type, donor heavy atom, donor atom, acceptor molecule, acceptor atom, score
      L1  H    19    38       P1  7948  0.70
      P1  H  7997  8009       L1    13  0.11

> <Gold.Chemscore.Hbond.Weighted>
-3.6223

> <Gold.Chemscore.Metal.Weighted>
-0.0000

> <Gold.Chemscore.Lipo.Weighted>
-10.9624

> <Gold.Chemscore.Internal_Hbond.Weighted>
0.0000

> <Gold.Chemscore.DEClash.Weighted>
0.6596

> <Gold.Chemscore.DEInternal.Weighted>
1.7602

> <Gold.Chemscore.Rot.Weighted>
4.2795

> <Gold.Chemscore.Internal.Correction.Weighted>
   9.000000E+99

> <Gold.Protein.RotatedTorsions>
[ 6907 6896 6895 6894 ] final  147.57 input  -60.11 | X-H torsion
[ 7974 7965 7964 7962 ] final  161.95 input  175.53 | X-H torsion
[ 8008 7997 7996 7995 ] final -151.15 input   59.86 | X-H torsion
[ 10167 10162 10161 10158 ] final  100.42 input  -65.29 | X-H torsion
[ 10718 10713 10712 10709 ] final  -50.73 input   66.30 | X-H torsion
[ 10763 10752 10751 10750 ] final   -9.46 input  -60.55 | X-H torsion
[ 11005 11000 10999 10996 ] final -108.70 input  -57.11 | X-H torsion

> <Gold.Protein.ActiveResidues>
 VAL166  LYS551  ARG553  GLY616  TRP617  ASP618  TYR619  PRO620  LYS621  CYS622 
 ASP623  PHE694  ASN695  SER759  ASP760  ASP761  ALA762  ILE779  LEU786  VAL792 
 PHE793  MET794  SER795  GLU796  ALA797  LYS798  CYS799  TRP800  GLU811  SER814 

> <Gold.Protein.RotatedAtoms>
  152.1530  133.4534  159.4822 H   0  0  0  0  0  0  0  0  0  0  0  0  # atno 6907 bound_to 6896
  150.6898  134.2165  159.4389 H   0  0  0  0  0  0  0  0  0  0  0  0  # atno 6908 bound_to 6896
  152.0063  134.9900  160.0617 H   0  0  0  0  0  0  0  0  0  0  0  0  # atno 6909 bound_to 6896
  144.7660  139.7971  143.6315 H   0  0  0  0  0  0  0  0  0  0  0  0  # atno 7974 bound_to 7965
  155.6348  140.0695  157.2637 H   0  0  0  0  0  0  0  0  0  0  0  0  # atno 8008 bound_to 7997
  154.4197  140.1761  156.1560 H   0  0  0  0  0  0  0  0  0  0  0  0  # atno 8009 bound_to 7997
  155.9903  140.3345  155.6750 H   0  0  0  0  0  0  0  0  0  0  0  0  # atno 8010 bound_to 7997
  139.7528  144.6978  151.0406 H   0  0  0  0  0  0  0  0  0  0  0  0  # atno 10167 bound_to 10162
  156.1774  130.4150  149.9557 H   0  0  0  0  0  0  0  0  0  0  0  0  # atno 10718 bound_to 10713
  153.4551  135.7015  153.6085 H   0  0  0  0  0  0  0  0  0  0  0  0  # atno 10763 bound_to 10752
  153.4403  135.3782  155.2224 H   0  0  0  0  0  0  0  0  0  0  0  0  # atno 10764 bound_to 10752
  154.8728  135.3972  154.3968 H   0  0  0  0  0  0  0  0  0  0  0  0  # atno 10765 bound_to 10752
  141.0887  133.9093  157.2125 H   0  0  0  0  0  0  0  0  0  0  0  0  # atno 11005 bound_to 11000
  146.1768  139.4942  142.9892 LP  0  0  0  0  0  0  0  0  0  0  0  0  # atno 17320 bound_to 7965
  145.6469  141.0272  143.1781 LP  0  0  0  0  0  0  0  0  0  0  0  0  # atno 17321 bound_to 7965
  140.7799  143.4788  151.0046 LP  0  0  0  0  0  0  0  0  0  0  0  0  # atno 17342 bound_to 10162
  139.8476  143.7481  152.3179 LP  0  0  0  0  0  0  0  0  0  0  0  0  # atno 17343 bound_to 10162
  156.7338  130.9053  151.3627 LP  0  0  0  0  0  0  0  0  0  0  0  0  # atno 17370 bound_to 10713
  157.6845  130.9172  150.0351 LP  0  0  0  0  0  0  0  0  0  0  0  0  # atno 17371 bound_to 10713
  139.9710  135.0128  156.9511 LP  0  0  0  0  0  0  0  0  0  0  0  0  # atno 17394 bound_to 11000
  140.5302  134.0821  155.7314 LP  0  0  0  0  0  0  0  0  0  0  0  0  # atno 17395 bound_to 11000

$$$$
