AV-unprocessed.smi:1550|AV-procd|sdf|6230|dock1
  -GOLD-   22720 6403D 1   1.00000     0.00000
 Structure written by MMmdl.
 42 43  0  0  0  0  0  0  0  0  2 V2000
  146.9119  141.4172  154.2524 C   0  0  0  0  0  0  0  0  0  0  0  0
  148.0448  140.4444  153.8933 C   0  0  2  0  0  0  0  0  0  0  0  0
  147.4448  139.2185  153.4856 O   0  0  0  0  0  0  0  0  0  0  0  0
  146.9612  139.1918  152.1466 C   0  0  0  0  0  0  0  0  0  0  0  0
  146.5002  137.7717  151.7913 C   0  0  1  0  0  0  0  0  0  0  0  0
  145.0868  137.4460  152.3148 C   0  0  0  0  0  0  0  0  0  0  0  0
  144.6696  136.0357  151.8835 C   0  0  0  0  0  0  0  0  0  0  0  0
  144.8376  135.8896  150.3669 C   0  0  0  0  0  0  0  0  0  0  0  0
  146.2615  136.2865  149.9437 C   0  0  0  0  0  0  0  0  0  0  0  0
  146.5513  137.6131  150.3750 O   0  0  0  0  0  0  0  0  0  0  0  0
  148.9812  140.2044  155.0889 C   0  0  0  0  0  0  0  0  0  0  0  0
  148.9805  139.1061  155.6438 O   0  0  0  0  0  0  0  0  0  0  0  0
  149.7538  141.2544  155.4308 N   0  0  0  0  0  0  0  0  0  0  0  0
  150.7244  141.3792  156.4406 C   0  0  0  0  0  0  0  0  0  0  0  0
  150.8318  142.4270  157.3049 C   0  0  0  0  0  0  0  0  0  0  0  0
  151.8655  142.4899  158.3308 C   0  0  0  0  0  0  0  0  0  0  0  0
  151.9684  143.6047  159.3570 C   0  0  0  0  0  0  0  0  0  0  0  0
  152.2447  144.7708  158.7728 F   0  0  0  0  0  0  0  0  0  0  0  0
  150.8128  143.7298  160.0080 F   0  0  0  0  0  0  0  0  0  0  0  0
  152.9229  143.3456  160.2508 F   0  0  0  0  0  0  0  0  0  0  0  0
  152.6749  141.3705  158.3295 C   0  0  0  0  0  0  0  0  0  0  0  0
  152.6429  140.2991  157.5073 N   0  5  0  0  0  0  0  0  0  0  0  0
  151.6787  140.2551  156.5453 C   0  0  0  0  0  0  0  0  0  0  0  0
  151.5890  139.3039  155.7679 O   0  0  0  0  0  0  0  0  0  0  0  0
  147.3059  142.3745  154.5959 H   0  0  0  0  0  0  0  0  0  0  0  0
  146.2706  141.0163  155.0385 H   0  0  0  0  0  0  0  0  0  0  0  0
  146.2825  141.6129  153.3841 H   0  0  0  0  0  0  0  0  0  0  0  0
  148.6060  140.8699  153.0589 H   0  0  0  0  0  0  0  0  0  0  0  0
  146.1326  139.8924  152.0336 H   0  0  0  0  0  0  0  0  0  0  0  0
  147.7402  139.4969  151.4474 H   0  0  0  0  0  0  0  0  0  0  0  0
  147.2115  137.0732  152.2356 H   0  0  0  0  0  0  0  0  0  0  0  0
  145.0562  137.5310  153.4015 H   0  0  0  0  0  0  0  0  0  0  0  0
  144.3681  138.1681  151.9251 H   0  0  0  0  0  0  0  0  0  0  0  0
  145.2875  135.2967  152.3949 H   0  0  0  0  0  0  0  0  0  0  0  0
  143.6373  135.8380  152.1739 H   0  0  0  0  0  0  0  0  0  0  0  0
  144.6249  134.8649  150.0609 H   0  0  0  0  0  0  0  0  0  0  0  0
  144.1150  136.5261  149.8546 H   0  0  0  0  0  0  0  0  0  0  0  0
  146.9962  135.5924  150.3547 H   0  0  0  0  0  0  0  0  0  0  0  0
  146.3552  136.2416  148.8587 H   0  0  0  0  0  0  0  0  0  0  0  0
  149.6169  142.0961  154.8898 H   0  0  0  0  0  0  0  0  0  0  0  0
  150.1464  143.2562  157.2658 H   0  0  0  0  0  0  0  0  0  0  0  0
  153.4655  141.3280  159.1089 H   0  0  0  0  0  0  0  0  0  0  0  0
  1  2  1  0  0  0  0
  1 25  1  0  0  0  0
  1 26  1  0  0  0  0
  1 27  1  0  0  0  0
  2  3  1  0  0  0  0
  2 11  1  0  0  0  0
  2 28  1  0  0  0  0
  3  4  1  0  0  0  0
  4  5  1  0  0  0  0
  4 29  1  0  0  0  0
  4 30  1  0  0  0  0
  5 10  1  0  0  0  0
  5  6  1  0  0  0  0
  5 31  1  0  0  0  0
  6  7  1  0  0  0  0
  6 32  1  0  0  0  0
  6 33  1  0  0  0  0
  7  8  1  0  0  0  0
  7 34  1  0  0  0  0
  7 35  1  0  0  0  0
  8  9  1  0  0  0  0
  8 36  1  0  0  0  0
  8 37  1  0  0  0  0
  9 10  1  0  0  0  0
  9 38  1  0  0  0  0
  9 39  1  0  0  0  0
 11 12  2  0  0  0  0
 11 13  1  0  0  0  0
 13 14  1  0  0  0  0
 13 40  1  0  0  0  0
 14 23  1  0  0  0  0
 14 15  2  0  0  0  0
 15 16  1  0  0  0  0
 15 41  1  0  0  0  0
 16 17  1  0  0  0  0
 16 21  2  0  0  0  0
 17 18  1  0  0  0  0
 17 19  1  0  0  0  0
 17 20  1  0  0  0  0
 21 22  1  0  0  0  0
 21 42  1  0  0  0  0
 22 23  1  0  0  0  0
 23 24  2  0  0  0  0
M  CHG  1  22  -1
M  END
> <s_m_source_file>
AV-unprocessed.smi

> <i_m_source_file_index>
1550

> <i_lp_mmshare_version>
43012

> <i_f3d_flags>
0

> <s_epik_input>
TzFbQ0gyXVtDSDJdW0NIMl1bQ0gyXVtDQEhdMVtDSDJdT1tDQEBIXShbQ0gzXSlDKD1PKVtOSF1jMltjSF1jKEMoRikoRilGKVtjSF1bbkhdYzI9Tw==

> <s_epik_cmdline>
J2VwaWtfcHl0aG9uJywgJy1waCcsICc3LjAnLCAnLXRuJywgJzgnLCAnLW1hJywgJzIwMCcsICctbWV0YWxfYmluZGluZycsICctaW1hZScsICc8aW5maWxlLm1hZT4nLCAnLW9tYWUnLCAnPG91dGZpbGUubWFlPic=

> <r_epik_Ionization_Penalty>
2.54933

> <r_epik_Ionization_Penalty_Charging>
0.0583423

> <r_epik_Ionization_Penalty_Neutral>
2.49099

> <r_epik_State_Penalty>
2.65532

> <r_epik_Charging_Adjusted_Penalty>
2.71366

> <i_epik_Tot_Q>
-1

> <i_epik_Tot_abs_Q>
1

> <r_epik_Metal_State_Penalty>
0.516364

> <b_epik_Metal_Only>
0

> <s_lp_Force_Field>
OPLS_2005

> <r_lp_Energy>
26.7738

> <b_lp_Chiralities_Consistent>
1

> <s_lp_Variant>
AV-unprocessed.smi:1550-7

> <Gold.Version>
5.8.1

> <Gold.Id.Protein>
6NUR|6NUR_protein|mol2

> <Gold.PLP.Fitness>
46.4889

> <Gold.PLP.PLP>
-39.7922

> <Gold.PLP.part.hbond>
-1.8748

> <Gold.PLP.part.metal>
0.0000

> <Gold.PLP.part.buried>
-1.8177

> <Gold.PLP.part.nonpolar>
-37.2795

> <Gold.PLP.part.repulsive>
2.7663

> <Gold.PLP.ligand.clash>
0.0000

> <Gold.PLP.ligand.torsion>
1.0582

> <Gold.PLP.Chemscore.Hbond>
2.7150

> <Gold.PLP.Chemscore.CHOScore>
0.0000

> <Gold.PLP.Chemscore.Metal>
0.0000

> <Gold.Chemscore.Hbonds>
donor molecule, donor type, donor heavy atom, donor atom, acceptor molecule, acceptor atom, score
      P1  H  7954  7966       L1    10  0.88
      P1  H  7997  8008       L1    22  1.92

> <Gold.PLP.Chemscore.Internal.Correction>
0.6682

> <Gold.Rescore>
     Score         DG    S(hbond)    S(metal)    S(lipo)     H(rot)  DE(clash)    DE(int)     intcor
      8.77     -14.62       0.90        0.00      92.27       1.82       2.01       3.83       ----

> <Gold.Chemscore.Fitness>
8.7720

> <Gold.Chemscore.DG>
-14.6205

> <Gold.Chemscore.ZeroCoef>
-5.4800

> <Gold.Chemscore.Hbond>
0.9023

> <Gold.Chemscore.Metal>
0.0000

> <Gold.Chemscore.Lipo>
92.2673

> <Gold.Chemscore.Internal_Hbond>
0.0000

> <Gold.Chemscore.DEClash>
2.0136

> <Gold.Chemscore.DEInternal>
3.8349

> <Gold.Chemscore.Rot>
1.8236

> <Gold.Chemscore.Internal.Correction>
   9.000000E+99

> <Gold.Chemscore.Hbonds>
donor molecule, donor type, donor heavy atom, donor atom, acceptor molecule, acceptor atom, score
      P1  H  7954  7966       L1    10  0.25
      P1  H  7997  8008       L1    22  0.47

> <Gold.Chemscore.Hbond.Weighted>
-3.0136

> <Gold.Chemscore.Metal.Weighted>
-0.0000

> <Gold.Chemscore.Lipo.Weighted>
-10.7953

> <Gold.Chemscore.Internal_Hbond.Weighted>
0.0000

> <Gold.Chemscore.DEClash.Weighted>
2.0136

> <Gold.Chemscore.DEInternal.Weighted>
3.8349

> <Gold.Chemscore.Rot.Weighted>
4.6684

> <Gold.Chemscore.Internal.Correction.Weighted>
   9.000000E+99

> <Gold.Protein.RotatedTorsions>
[ 6907 6896 6895 6894 ] final  -70.45 input  -60.11 | X-H torsion
[ 7974 7965 7964 7962 ] final   42.33 input  175.53 | X-H torsion
[ 8008 7997 7996 7995 ] final  -70.04 input   59.86 | X-H torsion
[ 10167 10162 10161 10158 ] final  -91.83 input  -65.29 | X-H torsion
[ 10718 10713 10712 10709 ] final -101.30 input   66.30 | X-H torsion
[ 10763 10752 10751 10750 ] final -173.72 input  -60.55 | X-H torsion
[ 11005 11000 10999 10996 ] final   43.55 input  -57.11 | X-H torsion

> <Gold.Protein.ActiveResidues>
 VAL166  LYS551  ARG553  GLY616  TRP617  ASP618  TYR619  PRO620  LYS621  CYS622 
 ASP623  PHE694  ASN695  SER759  ASP760  ASP761  ALA762  ILE779  LEU786  VAL792 
 PHE793  MET794  SER795  GLU796  ALA797  LYS798  CYS799  TRP800  GLU811  SER814 

> <Gold.Protein.RotatedAtoms>
  150.7257  134.5451  159.5766 H   0  0  0  0  0  0  0  0  0  0  0  0  # atno 6907 bound_to 6896
  152.2952  134.7672  160.0378 H   0  0  0  0  0  0  0  0  0  0  0  0  # atno 6908 bound_to 6896
  151.8271  133.3367  159.3639 H   0  0  0  0  0  0  0  0  0  0  0  0  # atno 6909 bound_to 6896
  146.0749  139.5312  142.9574 H   0  0  0  0  0  0  0  0  0  0  0  0  # atno 7974 bound_to 7965
  154.4983  140.0842  156.7743 H   0  0  0  0  0  0  0  0  0  0  0  0  # atno 8008 bound_to 7997
  155.4064  140.3439  155.4242 H   0  0  0  0  0  0  0  0  0  0  0  0  # atno 8009 bound_to 7997
  156.1423  140.1533  156.8889 H   0  0  0  0  0  0  0  0  0  0  0  0  # atno 8010 bound_to 7997
  140.3409  143.2942  151.9836 H   0  0  0  0  0  0  0  0  0  0  0  0  # atno 10167 bound_to 10162
  156.0190  130.5367  150.6942 H   0  0  0  0  0  0  0  0  0  0  0  0  # atno 10718 bound_to 10713
  154.6045  135.2858  155.0499 H   0  0  0  0  0  0  0  0  0  0  0  0  # atno 10763 bound_to 10752
  154.1751  135.6466  153.5023 H   0  0  0  0  0  0  0  0  0  0  0  0  # atno 10764 bound_to 10752
  153.0170  135.5410  154.6776 H   0  0  0  0  0  0  0  0  0  0  0  0  # atno 10765 bound_to 10752
  140.1634  134.4312  155.8303 H   0  0  0  0  0  0  0  0  0  0  0  0  # atno 11005 bound_to 11000
  145.6324  141.0301  143.1856 LP  0  0  0  0  0  0  0  0  0  0  0  0  # atno 17320 bound_to 7965
  144.7255  139.7890  143.7366 LP  0  0  0  0  0  0  0  0  0  0  0  0  # atno 17321 bound_to 7965
  139.4840  144.6157  151.7350 LP  0  0  0  0  0  0  0  0  0  0  0  0  # atno 17342 bound_to 10162
  140.5310  144.0731  150.6053 LP  0  0  0  0  0  0  0  0  0  0  0  0  # atno 17343 bound_to 10162
  157.4617  131.0884  151.0738 LP  0  0  0  0  0  0  0  0  0  0  0  0  # atno 17370 bound_to 10713
  157.1224  130.6067  149.5508 LP  0  0  0  0  0  0  0  0  0  0  0  0  # atno 17371 bound_to 10713
  141.2211  133.6923  156.7635 LP  0  0  0  0  0  0  0  0  0  0  0  0  # atno 17394 bound_to 11000
  140.2462  134.8575  157.3623 LP  0  0  0  0  0  0  0  0  0  0  0  0  # atno 17395 bound_to 11000

$$$$
