AV-unprocessed.smi:219|AV-procd|sdf|1681|dock3
  -GOLD-   2262020113D 1   1.00000     0.00000
 Structure written by MMmdl.
 50 53  0  0  0  0  0  0  0  0  1 V2000
  150.7098  138.3857  153.4288 N   0  0  0  0  0  0  0  0  0  0  0  0
  150.7058  138.6180  154.7436 C   0  0  0  0  0  0  0  0  0  0  0  0
  151.1790  137.8206  155.5509 O   0  0  0  0  0  0  0  0  0  0  0  0
  150.0447  139.9171  155.2215 C   0  0  0  0  0  0  0  0  0  0  0  0
  150.8920  140.7647  156.2168 C   0  0  1  0  0  0  0  0  0  0  0  0
  150.7630  142.2580  155.8347 C   0  0  0  0  0  0  0  0  0  0  0  0
  151.5498  143.1709  156.7842 C   0  0  0  0  0  0  0  0  0  0  0  0
  151.1091  142.9191  158.2292 C   0  0  0  0  0  0  0  0  0  0  0  0
  151.2730  141.4351  158.5784 C   0  0  0  0  0  0  0  0  0  0  0  0
  150.5413  140.5821  157.6394 N   0  0  0  0  0  0  0  0  0  0  0  0
  150.4895  139.3063  158.0830 C   0  0  0  0  0  0  0  0  0  0  0  0
  151.6353  138.6541  158.4152 N   0  0  0  0  0  0  0  0  0  0  0  0
  151.5818  137.3826  158.8230 C   0  0  0  0  0  0  0  0  0  0  0  0
  150.5138  136.5931  158.9580 N   0  0  0  0  0  0  0  0  0  0  0  0
  149.3651  137.2490  158.6228 C   0  0  0  0  0  0  0  0  0  0  0  0
  149.2639  138.6004  158.1922 C   0  0  0  0  0  0  0  0  0  0  0  0
  147.9376  138.9292  157.9472 N   0  0  0  0  0  0  0  0  0  0  0  0
  147.2895  137.8258  158.2045 C   0  0  0  0  0  0  0  0  0  0  0  0
  148.0702  136.7618  158.5996 N   0  0  0  0  0  0  0  0  0  0  0  0
  147.6142  135.4189  158.9227 C   0  0  0  0  0  0  0  0  0  0  0  0
  146.5467  135.3869  160.0424 C   0  0  2  0  0  0  0  0  0  0  0  0
  145.3246  135.8861  159.5259 O   0  0  0  0  0  0  0  0  0  0  0  0
  146.9304  136.2258  161.2540 C   0  0  0  0  0  0  0  0  0  0  0  0
  146.2032  135.5221  162.3918 C   0  0  0  0  0  0  0  0  0  0  0  0
  146.3575  134.1504  162.0691 O   0  0  0  0  0  0  0  0  0  0  0  0
  146.2854  133.9942  160.6545 C   0  0  0  0  0  0  0  0  0  0  0  0
  151.1388  137.5444  153.0714 H   0  0  0  0  0  0  0  0  0  0  0  0
  150.2896  139.0515  152.7968 H   0  0  0  0  0  0  0  0  0  0  0  0
  149.8434  140.4999  154.3216 H   0  0  0  0  0  0  0  0  0  0  0  0
  149.0650  139.6990  155.6490 H   0  0  0  0  0  0  0  0  0  0  0  0
  151.9420  140.4889  156.1058 H   0  0  0  0  0  0  0  0  0  0  0  0
  151.1128  142.4168  154.8140 H   0  0  0  0  0  0  0  0  0  0  0  0
  149.7113  142.5485  155.8485 H   0  0  0  0  0  0  0  0  0  0  0  0
  152.6185  142.9771  156.6830 H   0  0  0  0  0  0  0  0  0  0  0  0
  151.3931  144.2166  156.5192 H   0  0  0  0  0  0  0  0  0  0  0  0
  151.6943  143.5323  158.9145 H   0  0  0  0  0  0  0  0  0  0  0  0
  150.0667  143.2144  158.3557 H   0  0  0  0  0  0  0  0  0  0  0  0
  152.3321  141.1736  158.5612 H   0  0  0  0  0  0  0  0  0  0  0  0
  150.9169  141.2591  159.5948 H   0  0  0  0  0  0  0  0  0  0  0  0
  152.5315  136.9308  159.0686 H   0  0  0  0  0  0  0  0  0  0  0  0
  146.2168  137.7533  158.0994 H   0  0  0  0  0  0  0  0  0  0  0  0
  147.2174  134.9657  158.0134 H   0  0  0  0  0  0  0  0  0  0  0  0
  148.4810  134.8217  159.2084 H   0  0  0  0  0  0  0  0  0  0  0  0
  145.0735  136.6433  160.0326 H   0  0  0  0  0  0  0  0  0  0  0  0
  148.0054  136.1674  161.4303 H   0  0  0  0  0  0  0  0  0  0  0  0
  146.6662  137.2802  161.1611 H   0  0  0  0  0  0  0  0  0  0  0  0
  146.6227  135.7552  163.3706 H   0  0  0  0  0  0  0  0  0  0  0  0
  145.1430  135.7794  162.3990 H   0  0  0  0  0  0  0  0  0  0  0  0
  145.3141  133.5892  160.3663 H   0  0  0  0  0  0  0  0  0  0  0  0
  147.0401  133.2651  160.3630 H   0  0  0  0  0  0  0  0  0  0  0  0
  1  2  1  0  0  0  0
  1 27  1  0  0  0  0
  1 28  1  0  0  0  0
  2  3  2  0  0  0  0
  2  4  1  0  0  0  0
  4  5  1  0  0  0  0
  4 29  1  0  0  0  0
  4 30  1  0  0  0  0
  5 10  1  0  0  0  0
  5  6  1  0  0  0  0
  5 31  1  0  0  0  0
  6  7  1  0  0  0  0
  6 32  1  0  0  0  0
  6 33  1  0  0  0  0
  7  8  1  0  0  0  0
  7 34  1  0  0  0  0
  7 35  1  0  0  0  0
  8  9  1  0  0  0  0
  8 36  1  0  0  0  0
  8 37  1  0  0  0  0
  9 10  1  0  0  0  0
  9 38  1  0  0  0  0
  9 39  1  0  0  0  0
 10 11  1  0  0  0  0
 11 16  1  0  0  0  0
 11 12  2  0  0  0  0
 12 13  1  0  0  0  0
 13 14  2  0  0  0  0
 13 40  1  0  0  0  0
 14 15  1  0  0  0  0
 15 19  1  0  0  0  0
 15 16  2  0  0  0  0
 16 17  1  0  0  0  0
 17 18  2  0  0  0  0
 18 19  1  0  0  0  0
 18 41  1  0  0  0  0
 19 20  1  0  0  0  0
 20 21  1  0  0  0  0
 20 42  1  0  0  0  0
 20 43  1  0  0  0  0
 21 26  1  0  0  0  0
 21 22  1  0  0  0  0
 21 23  1  0  0  0  0
 22 44  1  0  0  0  0
 23 24  1  0  0  0  0
 23 45  1  0  0  0  0
 23 46  1  0  0  0  0
 24 25  1  0  0  0  0
 24 47  1  0  0  0  0
 24 48  1  0  0  0  0
 25 26  1  0  0  0  0
 26 49  1  0  0  0  0
 26 50  1  0  0  0  0
M  END
> <s_m_source_file>
AV-unprocessed.smi

> <i_m_source_file_index>
219

> <i_lp_mmshare_version>
43012

> <i_f3d_flags>
0

> <s_epik_input>
W05IMl1DKD1PKVtDSDJdW0NAQEhdMVtDSDJdW0NIMl1bQ0gyXVtDSDJdTjFjKG5bY0hdbjIpYyhjMjMpbltjSF1uM1tDSDJdW0NAQF00KFtPSF0pW0NIMl1bQ0gyXU9bQ0gyXTQ=

> <s_epik_cmdline>
J2VwaWtfcHl0aG9uJywgJy1waCcsICc3LjAnLCAnLXRuJywgJzgnLCAnLW1hJywgJzIwMCcsICctbWV0YWxfYmluZGluZycsICctaW1hZScsICc8aW5maWxlLm1hZT4nLCAnLW9tYWUnLCAnPG91dGZpbGUubWFlPic=

> <r_lp_tautomer_probability>
1

> <r_epik_Ionization_Penalty>
0.00228532

> <r_epik_Ionization_Penalty_Charging>
0

> <r_epik_Ionization_Penalty_Neutral>
0.00228532

> <r_epik_State_Penalty>
0.00140978

> <r_epik_Charging_Adjusted_Penalty>
0.00140978

> <i_epik_Tot_Q>
0

> <i_epik_Tot_abs_Q>
0

> <r_epik_Metal_State_Penalty>
-0

> <b_epik_Metal_Only>
0

> <s_lp_Force_Field>
OPLS_2005

> <r_lp_Energy>
35.4504

> <b_lp_Chiralities_Consistent>
1

> <s_lp_Variant>
AV-unprocessed.smi:219-4

> <Gold.Version>
5.8.1

> <Gold.Id.Protein>
6NUR|6NUR_protein|mol2

> <Gold.PLP.Fitness>
41.8926

> <Gold.PLP.PLP>
-36.4850

> <Gold.PLP.part.hbond>
-4.2714

> <Gold.PLP.part.metal>
0.0000

> <Gold.PLP.part.buried>
-3.3884

> <Gold.PLP.part.nonpolar>
-28.8062

> <Gold.PLP.part.repulsive>
0.1580

> <Gold.PLP.ligand.clash>
0.0000

> <Gold.PLP.ligand.torsion>
1.1404

> <Gold.PLP.Chemscore.Hbond>
2.4625

> <Gold.PLP.Chemscore.CHOScore>
0.0000

> <Gold.PLP.Chemscore.Metal>
0.0000

> <Gold.Chemscore.Hbonds>
donor molecule, donor type, donor heavy atom, donor atom, acceptor molecule, acceptor atom, score
      L1  H     1    27       P1  7949  0.51
      L1  H     1    28       P1  7957  1.00
      P1  H  6896  6908       L1    14  1.00

> <Gold.PLP.Chemscore.Internal.Correction>
0.3008

> <Gold.Rescore>
     Score         DG    S(hbond)    S(metal)    S(lipo)     H(rot)  DE(clash)    DE(int)     intcor
      9.39     -12.21       1.60        0.00      85.57       3.37       1.50       1.32       ----

> <Gold.Chemscore.Fitness>
9.3852

> <Gold.Chemscore.DG>
-12.2080

> <Gold.Chemscore.ZeroCoef>
-5.4800

> <Gold.Chemscore.Hbond>
1.5995

> <Gold.Chemscore.Metal>
0.0000

> <Gold.Chemscore.Lipo>
85.5728

> <Gold.Chemscore.Internal_Hbond>
0.0000

> <Gold.Chemscore.DEClash>
1.5031

> <Gold.Chemscore.DEInternal>
1.3196

> <Gold.Chemscore.Rot>
3.3697

> <Gold.Chemscore.Internal.Correction>
   9.000000E+99

> <Gold.Chemscore.Hbonds>
donor molecule, donor type, donor heavy atom, donor atom, acceptor molecule, acceptor atom, score
      L1  H     1    27       P1  7949  0.22
      L1  H     1    28       P1  7957  0.57
      P1  H  6896  6908       L1    14  0.39

> <Gold.Chemscore.Hbond.Weighted>
-5.3424

> <Gold.Chemscore.Metal.Weighted>
-0.0000

> <Gold.Chemscore.Lipo.Weighted>
-10.0120

> <Gold.Chemscore.Internal_Hbond.Weighted>
0.0000

> <Gold.Chemscore.DEClash.Weighted>
1.5031

> <Gold.Chemscore.DEInternal.Weighted>
1.3196

> <Gold.Chemscore.Rot.Weighted>
8.6264

> <Gold.Chemscore.Internal.Correction.Weighted>
   9.000000E+99

> <Gold.Protein.RotatedTorsions>
[ 6907 6896 6895 6894 ] final -141.95 input  -60.11 | X-H torsion
[ 7974 7965 7964 7962 ] final   90.74 input  175.53 | X-H torsion
[ 8008 7997 7996 7995 ] final  -48.04 input   59.86 | X-H torsion
[ 10167 10162 10161 10158 ] final  -82.56 input  -65.29 | X-H torsion
[ 10718 10713 10712 10709 ] final   -0.32 input   66.30 | X-H torsion
[ 10763 10752 10751 10750 ] final  -90.43 input  -60.55 | X-H torsion
[ 11005 11000 10999 10996 ] final   97.14 input  -57.11 | X-H torsion

> <Gold.Protein.ActiveResidues>
 VAL166  LYS551  ARG553  GLY616  TRP617  ASP618  TYR619  PRO620  LYS621  CYS622 
 ASP623  PHE694  ASN695  SER759  ASP760  ASP761  ALA762  ILE779  LEU786  VAL792 
 PHE793  MET794  SER795  GLU796  ALA797  LYS798  CYS799  TRP800  GLU811  SER814 

> <Gold.Protein.RotatedAtoms>
  151.0806  133.5393  159.2620 H   0  0  0  0  0  0  0  0  0  0  0  0  # atno 6907 bound_to 6896
  151.2298  135.0549  159.8993 H   0  0  0  0  0  0  0  0  0  0  0  0  # atno 6908 bound_to 6896
  152.5423  134.0596  159.8200 H   0  0  0  0  0  0  0  0  0  0  0  0  # atno 6909 bound_to 6896
  145.5149  139.2278  143.2704 H   0  0  0  0  0  0  0  0  0  0  0  0  # atno 7974 bound_to 7965
  154.4024  140.1331  156.4273 H   0  0  0  0  0  0  0  0  0  0  0  0  # atno 8008 bound_to 7997
  155.7585  140.3486  155.5166 H   0  0  0  0  0  0  0  0  0  0  0  0  # atno 8009 bound_to 7997
  155.8882  140.0998  157.1428 H   0  0  0  0  0  0  0  0  0  0  0  0  # atno 8010 bound_to 7997
  140.4309  143.2549  151.8761 H   0  0  0  0  0  0  0  0  0  0  0  0  # atno 10167 bound_to 10162
  156.8221  130.5460  149.5696 H   0  0  0  0  0  0  0  0  0  0  0  0  # atno 10718 bound_to 10713
  154.6657  135.5304  153.8074 H   0  0  0  0  0  0  0  0  0  0  0  0  # atno 10763 bound_to 10752
  153.0470  135.6517  154.0802 H   0  0  0  0  0  0  0  0  0  0  0  0  # atno 10764 bound_to 10752
  154.0707  135.2954  155.3288 H   0  0  0  0  0  0  0  0  0  0  0  0  # atno 10765 bound_to 10752
  139.8777  134.8986  156.4262 H   0  0  0  0  0  0  0  0  0  0  0  0  # atno 11005 bound_to 11000
  146.2143  140.5958  142.9045 LP  0  0  0  0  0  0  0  0  0  0  0  0  # atno 17320 bound_to 7965
  144.7707  140.5631  143.6672 LP  0  0  0  0  0  0  0  0  0  0  0  0  # atno 17321 bound_to 7965
  139.4785  144.5336  151.8631 LP  0  0  0  0  0  0  0  0  0  0  0  0  # atno 17342 bound_to 10162
  140.4429  144.1962  150.5892 LP  0  0  0  0  0  0  0  0  0  0  0  0  # atno 17343 bound_to 10162
  156.0983  130.5949  150.9850 LP  0  0  0  0  0  0  0  0  0  0  0  0  # atno 17370 bound_to 10713
  157.6451  131.0905  150.8170 LP  0  0  0  0  0  0  0  0  0  0  0  0  # atno 17371 bound_to 10713
  140.9099  133.7719  155.9779 LP  0  0  0  0  0  0  0  0  0  0  0  0  # atno 17394 bound_to 11000
  140.8558  134.2899  157.5256 LP  0  0  0  0  0  0  0  0  0  0  0  0  # atno 17395 bound_to 11000

$$$$
