AV-unprocessed.smi:114|AV-procd|sdf|1121|dock1
  -GOLD-   2262018243D 1   1.00000     0.00000
 Structure written by MMmdl.
 32 34  0  0  0  0  0  0  0  0  1 V2000
  153.6744  137.1090  161.0933 N   0  0  0  0  0  0  0  0  0  0  0  0
  153.6995  137.0056  159.7572 C   0  0  0  0  0  0  0  0  0  0  0  0
  154.4092  135.9961  159.2037 N   0  0  0  0  0  0  0  0  0  0  0  0
  154.4562  135.8560  157.8744 C   0  0  0  0  0  0  0  0  0  0  0  0
  155.1901  134.8206  157.4036 F   0  0  0  0  0  0  0  0  0  0  0  0
  153.8609  136.6262  156.9585 N   0  0  0  0  0  0  0  0  0  0  0  0
  153.1423  137.6500  157.5061 C   0  0  0  0  0  0  0  0  0  0  0  0
  153.0159  137.9022  158.9000 C   0  0  0  0  0  0  0  0  0  0  0  0
  152.2156  139.0137  159.1127 N   0  0  0  0  0  0  0  0  0  0  0  0
  151.8818  139.3908  157.9089 C   0  0  0  0  0  0  0  0  0  0  0  0
  152.4023  138.6396  156.8766 N   0  0  0  0  0  0  0  0  0  0  0  0
  152.1313  138.8575  155.4116 C   0  0  2  0  0  0  0  0  0  0  0  0
  151.3329  139.9891  155.2779 O   0  0  0  0  0  0  0  0  0  0  0  0
  149.9680  139.6058  155.2001 C   0  0  1  0  0  0  0  0  0  0  0  0
  149.1574  140.7126  154.5094 C   0  0  0  0  0  0  0  0  0  0  0  0
  149.7044  140.9927  153.2385 O   0  0  0  0  0  0  0  0  0  0  0  0
  150.0244  138.2978  154.3955 C   0  0  2  0  0  0  0  0  0  0  0  0
  148.9790  137.4330  154.7919 O   0  0  0  0  0  0  0  0  0  0  0  0
  151.3901  137.6914  154.7338 C   0  0  1  0  0  0  0  0  0  0  0  0
  152.0485  137.2868  153.5503 O   0  0  0  0  0  0  0  0  0  0  0  0
  153.1199  139.0446  154.9897 H   0  0  0  0  0  0  0  0  0  0  0  0
  149.5839  139.4243  156.2041 H   0  0  0  0  0  0  0  0  0  0  0  0
  149.9471  138.5097  153.3274 H   0  0  0  0  0  0  0  0  0  0  0  0
  151.3314  136.8297  155.3978 H   0  0  0  0  0  0  0  0  0  0  0  0
  153.1497  137.8536  161.5295 H   0  0  0  0  0  0  0  0  0  0  0  0
  154.1724  136.4385  161.6606 H   0  0  0  0  0  0  0  0  0  0  0  0
  151.2347  140.2391  157.7390 H   0  0  0  0  0  0  0  0  0  0  0  0
  148.1055  140.4394  154.4205 H   0  0  0  0  0  0  0  0  0  0  0  0
  149.2057  141.6312  155.0949 H   0  0  0  0  0  0  0  0  0  0  0  0
  149.2738  140.4470  152.5984 H   0  0  0  0  0  0  0  0  0  0  0  0
  149.2977  136.5439  154.7609 H   0  0  0  0  0  0  0  0  0  0  0  0
  151.4076  136.9164  152.9625 H   0  0  0  0  0  0  0  0  0  0  0  0
  1  2  1  0  0  0  0
  1 25  1  0  0  0  0
  1 26  1  0  0  0  0
  2  8  1  0  0  0  0
  2  3  2  0  0  0  0
  3  4  1  0  0  0  0
  4  5  1  0  0  0  0
  4  6  2  0  0  0  0
  6  7  1  0  0  0  0
  7 11  1  0  0  0  0
  7  8  2  0  0  0  0
  8  9  1  0  0  0  0
  9 10  2  0  0  0  0
 10 11  1  0  0  0  0
 10 27  1  0  0  0  0
 11 12  1  0  0  0  0
 12 21  1  0  0  0  0
 12 19  1  0  0  0  0
 12 13  1  0  0  0  0
 13 14  1  0  0  0  0
 14 22  1  0  0  0  0
 14 15  1  0  0  0  0
 14 17  1  0  0  0  0
 15 16  1  0  0  0  0
 15 28  1  0  0  0  0
 15 29  1  0  0  0  0
 16 30  1  0  0  0  0
 17 23  1  0  0  0  0
 17 18  1  0  0  0  0
 17 19  1  0  0  0  0
 18 31  1  0  0  0  0
 19 24  1  0  0  0  0
 19 20  1  0  0  0  0
 20 32  1  0  0  0  0
M  END
> <s_m_source_file>
AV-unprocessed.smi

> <i_m_source_file_index>
114

> <i_lp_mmshare_version>
43012

> <i_f3d_flags>
0

> <s_epik_input>
RmMobjEpbmMoW05IMl0pYyhjMTIpbltjSF1uMltDQEBIXTNPW0NASF0oW0NIMl1bT0hdKVtDQEBIXShbT0hdKVtDQEBIXTNbT0hd

> <s_epik_cmdline>
J2VwaWtfcHl0aG9uJywgJy1waCcsICc3LjAnLCAnLXRuJywgJzgnLCAnLW1hJywgJzIwMCcsICctbWV0YWxfYmluZGluZycsICctaW1hZScsICc8aW5maWxlLm1hZT4nLCAnLW9tYWUnLCAnPG91dGZpbGUubWFlPic=

> <r_lp_tautomer_probability>
1

> <r_epik_Ionization_Penalty>
1.13199e-05

> <r_epik_Ionization_Penalty_Charging>
0

> <r_epik_Ionization_Penalty_Neutral>
1.13199e-05

> <r_epik_State_Penalty>
-0

> <r_epik_Charging_Adjusted_Penalty>
0

> <i_epik_Tot_Q>
0

> <i_epik_Tot_abs_Q>
0

> <r_epik_Metal_State_Penalty>
-0

> <b_epik_Metal_Only>
0

> <s_epik_Chemistry_Notes>
This compound contains an acetal/aminal-like group ( X-CH(R)-Y where X, Y are N, S, or O) that may be acid/base labile, releasing an aldehyde.

> <s_lp_Force_Field>
OPLS_2005

> <r_lp_Energy>
32.4154

> <b_lp_Chiralities_Consistent>
1

> <s_lp_Variant>
AV-unprocessed.smi:114-15

> <Gold.Version>
5.8.1

> <Gold.Id.Protein>
6NUR|6NUR_protein|mol2

> <Gold.PLP.Fitness>
43.5416

> <Gold.PLP.PLP>
-27.2162

> <Gold.PLP.part.hbond>
-6.1568

> <Gold.PLP.part.metal>
0.0000

> <Gold.PLP.part.buried>
-3.2205

> <Gold.PLP.part.nonpolar>
-17.5169

> <Gold.PLP.part.repulsive>
0.0943

> <Gold.PLP.ligand.clash>
0.0000

> <Gold.PLP.ligand.torsion>
0.0195

> <Gold.PLP.Chemscore.Hbond>
5.4480

> <Gold.PLP.Chemscore.CHOScore>
0.0000

> <Gold.PLP.Chemscore.Metal>
0.0000

> <Gold.Chemscore.Hbonds>
donor molecule, donor type, donor heavy atom, donor atom, acceptor molecule, acceptor atom, score
      L1  H    16    30       P1  7957  0.67
      L1  H    20    32       P1  7949  0.90
      P1  H  7989  7998       L1    13  1.00
      P1  H  8011  8017       L1    16  0.90
      P1  H 10752 10764       L1    20  1.00
      P1  H 10752 10765       L1     6  0.99

> <Gold.PLP.Chemscore.Internal.Correction>
0.0205

> <Gold.Rescore>
     Score         DG    S(hbond)    S(metal)    S(lipo)     H(rot)  DE(clash)    DE(int)     intcor
      9.40      -9.42       3.19        0.00      30.72       4.03       0.00       0.02       ----

> <Gold.Chemscore.Fitness>
9.4040

> <Gold.Chemscore.DG>
-9.4236

> <Gold.Chemscore.ZeroCoef>
-5.4800

> <Gold.Chemscore.Hbond>
3.1916

> <Gold.Chemscore.Metal>
0.0000

> <Gold.Chemscore.Lipo>
30.7231

> <Gold.Chemscore.Internal_Hbond>
0.0000

> <Gold.Chemscore.DEClash>
0.0004

> <Gold.Chemscore.DEInternal>
0.0192

> <Gold.Chemscore.Rot>
4.0277

> <Gold.Chemscore.Internal.Correction>
   9.000000E+99

> <Gold.Chemscore.Hbonds>
donor molecule, donor type, donor heavy atom, donor atom, acceptor molecule, acceptor atom, score
      L1  H    16    30       P1  7957  0.61
      L1  H    20    32       P1  7949  0.75
      P1  H  7989  7998       L1    13  0.29
      P1  H  8011  8017       L1    16  0.18
      P1  H 10752 10764       L1    20  0.20
      P1  H 10752 10765       L1     6  0.23

> <Gold.Chemscore.Hbond.Weighted>
-10.6600

> <Gold.Chemscore.Metal.Weighted>
-0.0000

> <Gold.Chemscore.Lipo.Weighted>
-3.5946

> <Gold.Chemscore.Internal_Hbond.Weighted>
0.0000

> <Gold.Chemscore.DEClash.Weighted>
0.0004

> <Gold.Chemscore.DEInternal.Weighted>
0.0192

> <Gold.Chemscore.Rot.Weighted>
10.3110

> <Gold.Chemscore.Internal.Correction.Weighted>
   9.000000E+99

> <Gold.Protein.RotatedTorsions>
[ 6907 6896 6895 6894 ] final   81.46 input  -60.11 | X-H torsion
[ 7974 7965 7964 7962 ] final   35.83 input  175.53 | X-H torsion
[ 8008 7997 7996 7995 ] final  -13.77 input   59.86 | X-H torsion
[ 10167 10162 10161 10158 ] final   87.88 input  -65.29 | X-H torsion
[ 10718 10713 10712 10709 ] final  131.36 input   66.30 | X-H torsion
[ 10763 10752 10751 10750 ] final -104.37 input  -60.55 | X-H torsion
[ 11005 11000 10999 10996 ] final  135.96 input  -57.11 | X-H torsion

> <Gold.Protein.ActiveResidues>
 VAL166  LYS551  ARG553  GLY616  TRP617  ASP618  TYR619  PRO620  LYS621  CYS622 
 ASP623  PHE694  ASN695  SER759  ASP760  ASP761  ALA762  ILE779  LEU786  VAL792 
 PHE793  MET794  SER795  GLU796  ALA797  LYS798  CYS799  TRP800  GLU811  SER814 

> <Gold.Protein.RotatedAtoms>
  152.5269  134.3200  159.9144 H   0  0  0  0  0  0  0  0  0  0  0  0  # atno 6907 bound_to 6896
  151.3150  133.4058  159.2657 H   0  0  0  0  0  0  0  0  0  0  0  0  # atno 6908 bound_to 6896
  151.0007  134.9336  159.8009 H   0  0  0  0  0  0  0  0  0  0  0  0  # atno 6909 bound_to 6896
  146.1255  139.6093  142.9261 H   0  0  0  0  0  0  0  0  0  0  0  0  # atno 7974 bound_to 7965
  154.5265  140.2241  155.8881 H   0  0  0  0  0  0  0  0  0  0  0  0  # atno 8008 bound_to 7997
  156.1719  140.3120  155.8952 H   0  0  0  0  0  0  0  0  0  0  0  0  # atno 8009 bound_to 7997
  155.3541  140.0457  157.3037 H   0  0  0  0  0  0  0  0  0  0  0  0  # atno 8010 bound_to 7997
  139.8729  144.6483  150.8929 H   0  0  0  0  0  0  0  0  0  0  0  0  # atno 10167 bound_to 10162
  157.4975  131.1093  150.9473 H   0  0  0  0  0  0  0  0  0  0  0  0  # atno 10718 bound_to 10713
  154.7874  135.4788  153.9975 H   0  0  0  0  0  0  0  0  0  0  0  0  # atno 10763 bound_to 10752
  153.1580  135.6803  153.8791 H   0  0  0  0  0  0  0  0  0  0  0  0  # atno 10764 bound_to 10752
  153.8414  135.3179  155.3404 H   0  0  0  0  0  0  0  0  0  0  0  0  # atno 10765 bound_to 10752
  140.0014  134.9477  157.0080 H   0  0  0  0  0  0  0  0  0  0  0  0  # atno 11005 bound_to 11000
  145.5375  141.0423  143.2349 LP  0  0  0  0  0  0  0  0  0  0  0  0  # atno 17320 bound_to 7965
  144.7638  139.6893  143.7223 LP  0  0  0  0  0  0  0  0  0  0  0  0  # atno 17321 bound_to 7965
  140.7758  143.3649  151.1758 LP  0  0  0  0  0  0  0  0  0  0  0  0  # atno 17342 bound_to 10162
  139.7267  143.9137  152.3005 LP  0  0  0  0  0  0  0  0  0  0  0  0  # atno 17343 bound_to 10162
  157.0155  130.5653  149.5325 LP  0  0  0  0  0  0  0  0  0  0  0  0  # atno 17370 bound_to 10713
  156.0209  130.5304  150.8272 LP  0  0  0  0  0  0  0  0  0  0  0  0  # atno 17371 bound_to 10713
  140.4721  134.1376  155.7204 LP  0  0  0  0  0  0  0  0  0  0  0  0  # atno 17394 bound_to 11000
  141.1644  133.8730  157.1755 LP  0  0  0  0  0  0  0  0  0  0  0  0  # atno 17395 bound_to 11000

$$$$
