AV-unprocessed.smi:488|AV-procd|sdf|2701|dock1
  -GOLD-   2262023133D 1   1.00000     0.00000
 Structure written by MMmdl.
 45 46  0  0  0  0  0  0  0  0  1 V2000
  152.2862  131.5966  157.5416 C   0  0  0  0  0  0  0  0  0  0  0  0
  151.2991  132.4303  156.7700 C   0  0  0  0  0  0  0  0  0  0  0  0
  151.0392  133.6056  157.2413 N   0  0  0  0  0  0  0  0  0  0  0  0
  150.1409  134.4495  156.6165 N   0  0  0  0  0  0  0  0  0  0  0  0
  149.9586  135.7392  157.2968 C   0  0  0  0  0  0  0  0  0  0  0  0
  151.2129  136.6143  157.1993 C   0  0  0  0  0  0  0  0  0  0  0  0
  152.2679  136.1130  156.8066 O   0  0  0  0  0  0  0  0  0  0  0  0
  151.0518  137.9030  157.5644 N   0  0  0  0  0  0  0  0  0  0  0  0
  151.9775  138.8807  157.5569 C   0  0  0  0  0  0  0  0  0  0  0  0
  153.1629  138.7465  157.2453 O   0  0  0  0  0  0  0  0  0  0  0  0
  151.4430  140.0504  157.9375 N   0  0  0  0  0  0  0  0  0  0  0  0
  152.1951  141.2034  158.4235 C   0  0  0  0  0  0  0  0  0  0  0  0
  152.9204  140.8335  159.7309 C   0  0  0  0  0  0  0  0  0  0  0  0
  153.6836  142.0363  160.3084 C   0  0  0  0  0  0  0  0  0  0  0  0
  152.7492  143.2374  160.5229 C   0  0  0  0  0  0  0  0  0  0  0  0
  152.0215  143.6133  159.2224 C   0  0  0  0  0  0  0  0  0  0  0  0
  151.2601  142.4112  158.6393 C   0  0  0  0  0  0  0  0  0  0  0  0
  149.4594  134.1484  155.4734 C   0  0  0  0  0  0  0  0  0  0  0  0
  148.6663  134.9308  154.9483 O   0  0  0  0  0  0  0  0  0  0  0  0
  149.7617  132.8169  154.9435 C   0  0  0  0  0  0  0  0  0  0  0  0
  149.0653  132.4587  153.7500 C   0  0  0  0  0  0  0  0  0  0  0  0
  148.5119  132.1833  152.7712 N   0  0  0  0  0  0  0  0  0  0  0  0
  150.6422  131.9802  155.5473 C   0  0  0  0  0  0  0  0  0  0  0  0
  150.9872  130.5879  155.0366 C   0  0  0  0  0  0  0  0  0  0  0  0
  153.1945  131.4375  156.9601 H   0  0  0  0  0  0  0  0  0  0  0  0
  151.8641  130.6214  157.7850 H   0  0  0  0  0  0  0  0  0  0  0  0
  152.5741  132.0719  158.4806 H   0  0  0  0  0  0  0  0  0  0  0  0
  149.1154  136.2815  156.8641 H   0  0  0  0  0  0  0  0  0  0  0  0
  149.6961  135.5907  158.3461 H   0  0  0  0  0  0  0  0  0  0  0  0
  150.1277  138.1639  157.8751 H   0  0  0  0  0  0  0  0  0  0  0  0
  150.4394  140.1512  157.8951 H   0  0  0  0  0  0  0  0  0  0  0  0
  152.9525  141.4725  157.6844 H   0  0  0  0  0  0  0  0  0  0  0  0
  152.1987  140.4768  160.4674 H   0  0  0  0  0  0  0  0  0  0  0  0
  153.6138  140.0103  159.5538 H   0  0  0  0  0  0  0  0  0  0  0  0
  154.1558  141.7590  161.2512 H   0  0  0  0  0  0  0  0  0  0  0  0
  154.4899  142.3172  159.6295 H   0  0  0  0  0  0  0  0  0  0  0  0
  152.0177  142.9979  161.2955 H   0  0  0  0  0  0  0  0  0  0  0  0
  153.3190  144.0913  160.8905 H   0  0  0  0  0  0  0  0  0  0  0  0
  151.3311  144.4365  159.4077 H   0  0  0  0  0  0  0  0  0  0  0  0
  152.7448  143.9755  158.4908 H   0  0  0  0  0  0  0  0  0  0  0  0
  150.7920  142.6991  157.6971 H   0  0  0  0  0  0  0  0  0  0  0  0
  150.4491  142.1351  159.3149 H   0  0  0  0  0  0  0  0  0  0  0  0
  150.5725  130.3989  154.0469 H   0  0  0  0  0  0  0  0  0  0  0  0
  150.5931  129.8285  155.7124 H   0  0  0  0  0  0  0  0  0  0  0  0
  152.0671  130.4566  154.9629 H   0  0  0  0  0  0  0  0  0  0  0  0
  1  2  1  0  0  0  0
  1 25  1  0  0  0  0
  1 26  1  0  0  0  0
  1 27  1  0  0  0  0
  2 23  1  0  0  0  0
  2  3  2  0  0  0  0
  3  4  1  0  0  0  0
  4  5  1  0  0  0  0
  4 18  1  0  0  0  0
  5  6  1  0  0  0  0
  5 28  1  0  0  0  0
  5 29  1  0  0  0  0
  6  7  2  0  0  0  0
  6  8  1  0  0  0  0
  8  9  1  0  0  0  0
  8 30  1  0  0  0  0
  9 10  2  0  0  0  0
  9 11  1  0  0  0  0
 11 12  1  0  0  0  0
 11 31  1  0  0  0  0
 12 17  1  0  0  0  0
 12 13  1  0  0  0  0
 12 32  1  0  0  0  0
 13 14  1  0  0  0  0
 13 33  1  0  0  0  0
 13 34  1  0  0  0  0
 14 15  1  0  0  0  0
 14 35  1  0  0  0  0
 14 36  1  0  0  0  0
 15 16  1  0  0  0  0
 15 37  1  0  0  0  0
 15 38  1  0  0  0  0
 16 17  1  0  0  0  0
 16 39  1  0  0  0  0
 16 40  1  0  0  0  0
 17 41  1  0  0  0  0
 17 42  1  0  0  0  0
 18 19  2  0  0  0  0
 18 20  1  0  0  0  0
 20 21  1  0  0  0  0
 20 23  2  0  0  0  0
 21 22  3  0  0  0  0
 23 24  1  0  0  0  0
 24 43  1  0  0  0  0
 24 44  1  0  0  0  0
 24 45  1  0  0  0  0
M  END
> <s_m_source_file>
AV-unprocessed.smi

> <i_m_source_file_index>
488

> <i_lp_mmshare_version>
43012

> <i_f3d_flags>
0

> <s_epik_input>
TiNDYyhjMVtDSDNdKWMoPU8pbihuYzFbQ0gzXSlbQ0gyXUMoPU8pW05IXUMoPU8pW05IXVtDSF0yW0NIMl1bQ0gyXVtDSDJdW0NIMl1bQ0gyXTI=

> <s_epik_cmdline>
J2VwaWtfcHl0aG9uJywgJy1waCcsICc3LjAnLCAnLXRuJywgJzgnLCAnLW1hJywgJzIwMCcsICctbWV0YWxfYmluZGluZycsICctaW1hZScsICc8aW5maWxlLm1hZT4nLCAnLW9tYWUnLCAnPG91dGZpbGUubWFlPic=

> <r_lp_tautomer_probability>
1

> <r_epik_Ionization_Penalty>
3.27035e-05

> <r_epik_Ionization_Penalty_Charging>
1.69167e-11

> <r_epik_Ionization_Penalty_Neutral>
3.27035e-05

> <r_epik_State_Penalty>
-0

> <r_epik_Charging_Adjusted_Penalty>
1.69167e-11

> <i_epik_Tot_Q>
0

> <i_epik_Tot_abs_Q>
0

> <r_epik_Metal_State_Penalty>
-0

> <b_epik_Metal_Only>
0

> <s_lp_Force_Field>
OPLS_2005

> <r_lp_Energy>
25.832

> <b_lp_Chiralities_Consistent>
1

> <s_lp_Variant>
AV-unprocessed.smi:488-1

> <Gold.Version>
5.8.1

> <Gold.Id.Protein>
6NUR|6NUR_protein|mol2

> <Gold.PLP.Fitness>
44.8526

> <Gold.PLP.PLP>
-37.9643

> <Gold.PLP.part.hbond>
-3.0000

> <Gold.PLP.part.metal>
0.0000

> <Gold.PLP.part.buried>
-6.1023

> <Gold.PLP.part.nonpolar>
-30.7550

> <Gold.PLP.part.repulsive>
1.1582

> <Gold.PLP.ligand.clash>
0.0000

> <Gold.PLP.ligand.torsion>
0.3130

> <Gold.PLP.Chemscore.Hbond>
2.4755

> <Gold.PLP.Chemscore.CHOScore>
0.0000

> <Gold.PLP.Chemscore.Metal>
0.0000

> <Gold.Chemscore.Hbonds>
donor molecule, donor type, donor heavy atom, donor atom, acceptor molecule, acceptor atom, score
      P1  H  6896  6909       L1     3  0.45
      P1  H  7997  8009       L1    10  1.00
      P1  H 10752 10764       L1     7  1.00

> <Gold.PLP.Chemscore.Internal.Correction>
0.0876

> <Gold.Rescore>
     Score         DG    S(hbond)    S(metal)    S(lipo)     H(rot)  DE(clash)    DE(int)     intcor
     16.44     -19.64       2.34        0.00      89.00       1.59       0.13       3.07       ----

> <Gold.Chemscore.Fitness>
16.4380

> <Gold.Chemscore.DG>
-19.6361

> <Gold.Chemscore.ZeroCoef>
-5.4800

> <Gold.Chemscore.Hbond>
2.3366

> <Gold.Chemscore.Metal>
0.0000

> <Gold.Chemscore.Lipo>
88.9977

> <Gold.Chemscore.Internal_Hbond>
0.0000

> <Gold.Chemscore.DEClash>
0.1251

> <Gold.Chemscore.DEInternal>
3.0730

> <Gold.Chemscore.Rot>
1.5862

> <Gold.Chemscore.Internal.Correction>
   9.000000E+99

> <Gold.Chemscore.Hbonds>
donor molecule, donor type, donor heavy atom, donor atom, acceptor molecule, acceptor atom, score
      P1  H  6896  6909       L1     3  0.13
      P1  H  7997  8009       L1    10  0.99
      P1  H 10752 10764       L1     7  0.93

> <Gold.Chemscore.Hbond.Weighted>
-7.8041

> <Gold.Chemscore.Metal.Weighted>
-0.0000

> <Gold.Chemscore.Lipo.Weighted>
-10.4127

> <Gold.Chemscore.Internal_Hbond.Weighted>
0.0000

> <Gold.Chemscore.DEClash.Weighted>
0.1251

> <Gold.Chemscore.DEInternal.Weighted>
3.0730

> <Gold.Chemscore.Rot.Weighted>
4.0607

> <Gold.Chemscore.Internal.Correction.Weighted>
   9.000000E+99

> <Gold.Protein.RotatedTorsions>
[ 6907 6896 6895 6894 ] final  -51.51 input  -60.11 | X-H torsion
[ 7974 7965 7964 7962 ] final   27.97 input  175.53 | X-H torsion
[ 8008 7997 7996 7995 ] final  163.09 input   59.86 | X-H torsion
[ 10167 10162 10161 10158 ] final  -55.32 input  -65.29 | X-H torsion
[ 10718 10713 10712 10709 ] final  -85.62 input   66.30 | X-H torsion
[ 10763 10752 10751 10750 ] final  -16.35 input  -60.55 | X-H torsion
[ 11005 11000 10999 10996 ] final  114.43 input  -57.11 | X-H torsion

> <Gold.Protein.ActiveResidues>
 VAL166  LYS551  ARG553  GLY616  TRP617  ASP618  TYR619  PRO620  LYS621  CYS622 
 ASP623  PHE694  ASN695  SER759  ASP760  ASP761  ALA762  ILE779  LEU786  VAL792 
 PHE793  MET794  SER795  GLU796  ALA797  LYS798  CYS799  TRP800  GLU811  SER814 

> <Gold.Protein.RotatedAtoms>
  150.8604  134.7954  159.7078 H   0  0  0  0  0  0  0  0  0  0  0  0  # atno 6907 bound_to 6896
  152.4643  134.5109  159.9763 H   0  0  0  0  0  0  0  0  0  0  0  0  # atno 6908 bound_to 6896
  151.5214  133.3427  159.2937 H   0  0  0  0  0  0  0  0  0  0  0  0  # atno 6909 bound_to 6896
  146.1755  139.7119  142.8938 H   0  0  0  0  0  0  0  0  0  0  0  0  # atno 7974 bound_to 7965
  156.1983  140.1733  156.7953 H   0  0  0  0  0  0  0  0  0  0  0  0  # atno 8008 bound_to 7997
  154.5558  140.0709  156.8771 H   0  0  0  0  0  0  0  0  0  0  0  0  # atno 8009 bound_to 7997
  155.2942  140.3357  155.4253 H   0  0  0  0  0  0  0  0  0  0  0  0  # atno 8010 bound_to 7997
  140.6381  143.2493  151.5063 H   0  0  0  0  0  0  0  0  0  0  0  0  # atno 10167 bound_to 10162
  155.9995  130.4737  150.4590 H   0  0  0  0  0  0  0  0  0  0  0  0  # atno 10718 bound_to 10713
  153.5572  135.7010  153.5564 H   0  0  0  0  0  0  0  0  0  0  0  0  # atno 10763 bound_to 10752
  153.3462  135.4007  155.1610 H   0  0  0  0  0  0  0  0  0  0  0  0  # atno 10764 bound_to 10752
  154.8653  135.3754  154.5087 H   0  0  0  0  0  0  0  0  0  0  0  0  # atno 10765 bound_to 10752
  139.8980  134.9568  156.6892 H   0  0  0  0  0  0  0  0  0  0  0  0  # atno 11005 bound_to 11000
  145.4224  141.0408  143.2956 LP  0  0  0  0  0  0  0  0  0  0  0  0  # atno 17320 bound_to 7965
  144.8229  139.5760  143.6979 LP  0  0  0  0  0  0  0  0  0  0  0  0  # atno 17321 bound_to 7965
  139.5591  144.2201  152.1662 LP  0  0  0  0  0  0  0  0  0  0  0  0  # atno 17342 bound_to 10162
  140.1464  144.5155  150.6713 LP  0  0  0  0  0  0  0  0  0  0  0  0  # atno 17343 bound_to 10162
  157.2616  131.0568  151.2317 LP  0  0  0  0  0  0  0  0  0  0  0  0  # atno 17370 bound_to 10713
  157.3429  130.7043  149.6393 LP  0  0  0  0  0  0  0  0  0  0  0  0  # atno 17371 bound_to 10713
  140.7239  133.9117  155.8165 LP  0  0  0  0  0  0  0  0  0  0  0  0  # atno 17394 bound_to 11000
  141.0206  134.0894  157.4124 LP  0  0  0  0  0  0  0  0  0  0  0  0  # atno 17395 bound_to 11000

$$$$
