AV-unprocessed.smi:3306|AV-procd|sdf|12702|dock6
  -GOLD-   2272019 33D 1   1.00000     0.00000
 Structure written by MMmdl.
 45 46  0  0  0  0  0  0  0  0  3 V2000
  143.0162  140.1420  155.5494 C   0  0  0  0  0  0  0  0  0  0  0  0
  144.4036  139.4742  155.4826 C   0  0  0  0  0  0  0  0  0  0  0  0
  144.8645  138.9859  156.8661 C   0  0  0  0  0  0  0  0  0  0  0  0
  145.4448  140.3247  154.8342 N   0  3  2  0  0  0  0  0  0  0  0  0
  146.7798  139.6863  154.6771 C   0  0  0  0  0  0  0  0  0  0  0  0
  147.6972  140.5480  153.7916 C   0  0  0  0  0  0  0  0  0  0  0  0
  147.8513  141.9840  154.3360 C   0  0  2  0  0  0  0  0  0  0  0  0
  148.6713  142.0481  155.5702 N   0  3  0  0  0  0  0  0  0  0  0  0
  150.0341  141.4866  155.4572 C   0  0  0  0  0  0  0  0  0  0  0  0
  150.5422  141.0017  156.8219 C   0  0  0  0  0  0  0  0  0  0  0  0
  151.2091  142.1114  157.6128 C   0  0  0  0  0  0  0  0  0  0  0  0
  151.7183  141.8713  158.9068 C   0  0  0  0  0  0  0  0  0  0  0  0
  152.3307  142.9374  159.5942 C   0  0  0  0  0  0  0  0  0  0  0  0
  152.4110  144.1943  158.9640 C   0  0  0  0  0  0  0  0  0  0  0  0
  151.8725  144.3305  157.6689 C   0  0  0  0  0  0  0  0  0  0  0  0
  151.2835  143.3145  157.0008 N   0  0  0  0  0  0  0  0  0  0  0  0
  146.4569  142.5926  154.5748 C   0  0  0  0  0  0  0  0  0  0  0  0
  145.5553  141.6821  155.4302 C   0  0  0  0  0  0  0  0  0  0  0  0
  142.2727  139.4411  155.9306 H   0  0  0  0  0  0  0  0  0  0  0  0
  142.6754  140.4686  154.5672 H   0  0  0  0  0  0  0  0  0  0  0  0
  143.0104  141.0063  156.2140 H   0  0  0  0  0  0  0  0  0  0  0  0
  144.3014  138.5761  154.8718 H   0  0  0  0  0  0  0  0  0  0  0  0
  144.1635  138.2551  157.2707 H   0  0  0  0  0  0  0  0  0  0  0  0
  144.9333  139.7995  157.5878 H   0  0  0  0  0  0  0  0  0  0  0  0
  145.8409  138.5038  156.8096 H   0  0  0  0  0  0  0  0  0  0  0  0
  147.2440  139.5400  155.6531 H   0  0  0  0  0  0  0  0  0  0  0  0
  146.6773  138.7002  154.2251 H   0  0  0  0  0  0  0  0  0  0  0  0
  148.6654  140.0639  153.6695 H   0  0  0  0  0  0  0  0  0  0  0  0
  147.2677  140.5971  152.7899 H   0  0  0  0  0  0  0  0  0  0  0  0
  148.3548  142.5940  153.5843 H   0  0  0  0  0  0  0  0  0  0  0  0
  148.7757  143.0232  155.8139 H   0  0  0  0  0  0  0  0  0  0  0  0
  150.0376  140.6560  154.7513 H   0  0  0  0  0  0  0  0  0  0  0  0
  150.7061  142.2501  155.0627 H   0  0  0  0  0  0  0  0  0  0  0  0
  149.7145  140.6006  157.4092 H   0  0  0  0  0  0  0  0  0  0  0  0
  151.2491  140.1818  156.6876 H   0  0  0  0  0  0  0  0  0  0  0  0
  151.6426  140.8967  159.3661 H   0  0  0  0  0  0  0  0  0  0  0  0
  152.7312  142.7939  160.5871 H   0  0  0  0  0  0  0  0  0  0  0  0
  152.8734  145.0340  159.4613 H   0  0  0  0  0  0  0  0  0  0  0  0
  151.9172  145.2797  157.1555 H   0  0  0  0  0  0  0  0  0  0  0  0
  146.5463  143.5756  155.0392 H   0  0  0  0  0  0  0  0  0  0  0  0
  145.9728  142.7596  153.6113 H   0  0  0  0  0  0  0  0  0  0  0  0
  144.5664  142.1357  155.5058 H   0  0  0  0  0  0  0  0  0  0  0  0
  145.9475  141.6118  156.4456 H   0  0  0  0  0  0  0  0  0  0  0  0
  145.1008  140.4773  153.8965 H   0  0  0  0  0  0  0  0  0  0  0  0
  148.1830  141.5828  156.3219 H   0  0  0  0  0  0  0  0  0  0  0  0
  1  2  1  0  0  0  0
  1 19  1  0  0  0  0
  1 20  1  0  0  0  0
  1 21  1  0  0  0  0
  2  3  1  0  0  0  0
  2  4  1  0  0  0  0
  2 22  1  0  0  0  0
  3 23  1  0  0  0  0
  3 24  1  0  0  0  0
  3 25  1  0  0  0  0
  4 18  1  0  0  0  0
  4  5  1  0  0  0  0
  4 44  1  0  0  0  0
  5  6  1  0  0  0  0
  5 26  1  0  0  0  0
  5 27  1  0  0  0  0
  6  7  1  0  0  0  0
  6 28  1  0  0  0  0
  6 29  1  0  0  0  0
  7  8  1  0  0  0  0
  7 17  1  0  0  0  0
  7 30  1  0  0  0  0
  8  9  1  0  0  0  0
  8 31  1  0  0  0  0
  8 45  1  0  0  0  0
  9 10  1  0  0  0  0
  9 32  1  0  0  0  0
  9 33  1  0  0  0  0
 10 11  1  0  0  0  0
 10 34  1  0  0  0  0
 10 35  1  0  0  0  0
 11 16  1  0  0  0  0
 11 12  2  0  0  0  0
 12 13  1  0  0  0  0
 12 36  1  0  0  0  0
 13 14  2  0  0  0  0
 13 37  1  0  0  0  0
 14 15  1  0  0  0  0
 14 38  1  0  0  0  0
 15 16  2  0  0  0  0
 15 39  1  0  0  0  0
 17 18  1  0  0  0  0
 17 40  1  0  0  0  0
 17 41  1  0  0  0  0
 18 42  1  0  0  0  0
 18 43  1  0  0  0  0
M  CHG  1   4   1
M  CHG  1   8   1
M  END
> <s_m_source_file>
AV-unprocessed.smi

> <i_m_source_file_index>
3306

> <i_lp_mmshare_version>
43012

> <i_f3d_flags>
0

> <s_epik_input>
W0NIM11bQ0hdKFtDSDNdKU4xW0NIMl1bQ0gyXVtDSF0oW0NIMl1bQ0gyXTEpW05IXVtDSDJdW0NIMl1jMltjSF1bY0hdW2NIXVtjSF1uMg==

> <s_epik_cmdline>
J2VwaWtfcHl0aG9uJywgJy1waCcsICc3LjAnLCAnLXRuJywgJzgnLCAnLW1hJywgJzIwMCcsICctbWV0YWxfYmluZGluZycsICctaW1hZScsICc8aW5maWxlLm1hZT4nLCAnLW9tYWUnLCAnPG91dGZpbGUubWFlPic=

> <r_epik_Ionization_Penalty>
0.0800465

> <r_epik_Ionization_Penalty_Charging>
0.0790817

> <r_epik_Ionization_Penalty_Neutral>
0.000964829

> <r_epik_State_Penalty>
0.0665964

> <r_epik_Charging_Adjusted_Penalty>
0.145678

> <i_epik_Tot_Q>
2

> <i_epik_Tot_abs_Q>
2

> <r_epik_Metal_State_Penalty>
0.0683331

> <b_epik_Metal_Only>
0

> <s_lp_Force_Field>
OPLS_2005

> <r_lp_Energy>
31.8931

> <b_lp_Chiralities_Consistent>
1

> <s_lp_Variant>
AV-unprocessed.smi:3306-2

> <Gold.Version>
5.8.1

> <Gold.Id.Protein>
6NUR|6NUR_protein|mol2

> <Gold.PLP.Fitness>
45.6569

> <Gold.PLP.PLP>
-34.3037

> <Gold.PLP.part.hbond>
-2.0000

> <Gold.PLP.part.metal>
0.0000

> <Gold.PLP.part.buried>
-2.0420

> <Gold.PLP.part.nonpolar>
-30.5065

> <Gold.PLP.part.repulsive>
0.6988

> <Gold.PLP.ligand.clash>
0.0000

> <Gold.PLP.ligand.torsion>
0.3779

> <Gold.PLP.Chemscore.Hbond>
4.0000

> <Gold.PLP.Chemscore.CHOScore>
0.0000

> <Gold.PLP.Chemscore.Metal>
0.0000

> <Gold.Chemscore.Hbonds>
donor molecule, donor type, donor heavy atom, donor atom, acceptor molecule, acceptor atom, score
      L1  H     4    44       P1 10175  2.00
      L1  H     8    31       P1  8028  2.00

> <Gold.PLP.Chemscore.Internal.Correction>
0.1089

> <Gold.Rescore>
     Score         DG    S(hbond)    S(metal)    S(lipo)     H(rot)  DE(clash)    DE(int)     intcor
     18.69     -19.48       1.97        0.00      95.65       1.47       0.34       0.44       ----

> <Gold.Chemscore.Fitness>
18.6911

> <Gold.Chemscore.DG>
-19.4772

> <Gold.Chemscore.ZeroCoef>
-5.4800

> <Gold.Chemscore.Hbond>
1.9652

> <Gold.Chemscore.Metal>
0.0000

> <Gold.Chemscore.Lipo>
95.6525

> <Gold.Chemscore.Internal_Hbond>
0.0000

> <Gold.Chemscore.DEClash>
0.3417

> <Gold.Chemscore.DEInternal>
0.4444

> <Gold.Chemscore.Rot>
1.4679

> <Gold.Chemscore.Internal.Correction>
   9.000000E+99

> <Gold.Chemscore.Hbonds>
donor molecule, donor type, donor heavy atom, donor atom, acceptor molecule, acceptor atom, score
      L1  H     4    44       P1 10175  0.94
      L1  H     8    31       P1  8028  1.00

> <Gold.Chemscore.Hbond.Weighted>
-6.5637

> <Gold.Chemscore.Metal.Weighted>
-0.0000

> <Gold.Chemscore.Lipo.Weighted>
-11.1913

> <Gold.Chemscore.Internal_Hbond.Weighted>
0.0000

> <Gold.Chemscore.DEClash.Weighted>
0.3417

> <Gold.Chemscore.DEInternal.Weighted>
0.4444

> <Gold.Chemscore.Rot.Weighted>
3.7579

> <Gold.Chemscore.Internal.Correction.Weighted>
   9.000000E+99

> <Gold.Protein.RotatedTorsions>
[ 6907 6896 6895 6894 ] final  -59.13 input  -60.11 | X-H torsion
[ 7974 7965 7964 7962 ] final -131.91 input  175.53 | X-H torsion
[ 8008 7997 7996 7995 ] final   85.69 input   59.86 | X-H torsion
[ 10167 10162 10161 10158 ] final  -96.50 input  -65.29 | X-H torsion
[ 10718 10713 10712 10709 ] final -130.72 input   66.30 | X-H torsion
[ 10763 10752 10751 10750 ] final  -27.50 input  -60.55 | X-H torsion
[ 11005 11000 10999 10996 ] final  -52.10 input  -57.11 | X-H torsion

> <Gold.Protein.ActiveResidues>
 VAL166  LYS551  ARG553  GLY616  TRP617  ASP618  TYR619  PRO620  LYS621  CYS622 
 ASP623  PHE694  ASN695  SER759  ASP760  ASP761  ALA762  ILE779  LEU786  VAL792 
 PHE793  MET794  SER795  GLU796  ALA797  LYS798  CYS799  TRP800  GLU811  SER814 

> <Gold.Protein.RotatedAtoms>
  150.7954  134.7009  159.6549 H   0  0  0  0  0  0  0  0  0  0  0  0  # atno 6907 bound_to 6896
  152.4065  134.6194  160.0056 H   0  0  0  0  0  0  0  0  0  0  0  0  # atno 6908 bound_to 6896
  151.6450  133.3287  159.3175 H   0  0  0  0  0  0  0  0  0  0  0  0  # atno 6909 bound_to 6896
  144.9334  140.7155  143.4891 H   0  0  0  0  0  0  0  0  0  0  0  0  # atno 7974 bound_to 7965
  155.9532  140.3399  155.6426 H   0  0  0  0  0  0  0  0  0  0  0  0  # atno 8008 bound_to 7997
  155.6893  140.0747  157.2473 H   0  0  0  0  0  0  0  0  0  0  0  0  # atno 8009 bound_to 7997
  154.4126  140.1660  156.2056 H   0  0  0  0  0  0  0  0  0  0  0  0  # atno 8010 bound_to 7997
  140.2932  143.3208  152.0325 H   0  0  0  0  0  0  0  0  0  0  0  0  # atno 10167 bound_to 10162
  156.2172  130.6956  151.0716 H   0  0  0  0  0  0  0  0  0  0  0  0  # atno 10718 bound_to 10713
  153.7331  135.6937  153.4984 H   0  0  0  0  0  0  0  0  0  0  0  0  # atno 10763 bound_to 10752
  153.2121  135.4399  155.0391 H   0  0  0  0  0  0  0  0  0  0  0  0  # atno 10764 bound_to 10752
  154.8246  135.3439  154.6860 H   0  0  0  0  0  0  0  0  0  0  0  0  # atno 10765 bound_to 10752
  141.0906  133.6633  156.3975 H   0  0  0  0  0  0  0  0  0  0  0  0  # atno 11005 bound_to 11000
  145.3105  139.1820  143.4641 LP  0  0  0  0  0  0  0  0  0  0  0  0  # atno 17320 bound_to 7965
  146.3256  140.3109  142.8626 LP  0  0  0  0  0  0  0  0  0  0  0  0  # atno 17321 bound_to 7965
  139.4933  144.6510  151.6676 LP  0  0  0  0  0  0  0  0  0  0  0  0  # atno 17342 bound_to 10162
  140.5715  144.0101  150.6219 LP  0  0  0  0  0  0  0  0  0  0  0  0  # atno 17343 bound_to 10162
  157.7069  131.0752  150.6635 LP  0  0  0  0  0  0  0  0  0  0  0  0  # atno 17370 bound_to 10713
  156.6697  130.4536  149.5661 LP  0  0  0  0  0  0  0  0  0  0  0  0  # atno 17371 bound_to 10713
  140.5260  134.6259  157.5334 LP  0  0  0  0  0  0  0  0  0  0  0  0  # atno 17394 bound_to 11000
  139.9732  134.7259  156.0001 LP  0  0  0  0  0  0  0  0  0  0  0  0  # atno 17395 bound_to 11000

$$$$
