AV-unprocessed.smi:2975|AV-procd|sdf|11355|dock10
  -GOLD-   2272016273D 1   1.00000     0.00000
 Structure written by MMmdl.
 39 41  0  0  0  0  0  0  0  0  1 V2000
  152.2559  137.9504  157.0783 C   0  0  0  0  0  0  0  0  0  0  0  0
  152.1421  138.0939  155.5550 C   0  0  2  0  0  0  0  0  0  0  0  0
  153.3139  138.7291  155.0841 O   0  0  0  0  0  0  0  0  0  0  0  0
  150.8914  138.8285  155.1541 C   0  0  0  0  0  0  0  0  0  0  0  0
  149.9384  138.2591  154.4125 N   0  0  0  0  0  0  0  0  0  0  0  0
  149.0063  139.2690  154.2802 C   0  0  0  0  0  0  0  0  0  0  0  0
  147.7611  139.2877  153.6123 C   0  0  0  0  0  0  0  0  0  0  0  0
  146.9665  140.4528  153.6171 C   0  0  0  0  0  0  0  0  0  0  0  0
  147.4050  141.6130  154.2876 C   0  0  0  0  0  0  0  0  0  0  0  0
  148.6435  141.6158  154.9576 C   0  0  0  0  0  0  0  0  0  0  0  0
  149.4327  140.4502  154.9497 C   0  0  0  0  0  0  0  0  0  0  0  0
  150.6700  140.1242  155.4957 N   0  0  0  0  0  0  0  0  0  0  0  0
  151.5197  141.0119  156.2737 C   0  0  0  0  0  0  0  0  0  0  0  0
  150.8067  141.5087  157.5370 C   0  0  0  0  0  0  0  0  0  0  0  0
  151.3012  142.8012  157.8559 O   0  0  0  0  0  0  0  0  0  0  0  0
  151.6942  143.0480  159.1542 C   0  0  0  0  0  0  0  0  0  0  0  0
  152.1266  142.0444  160.0587 C   0  0  0  0  0  0  0  0  0  0  0  0
  152.5107  142.3837  161.3705 C   0  0  0  0  0  0  0  0  0  0  0  0
  152.4685  143.7245  161.7951 C   0  0  0  0  0  0  0  0  0  0  0  0
  152.0409  144.7270  160.9052 C   0  0  0  0  0  0  0  0  0  0  0  0
  151.6560  144.3890  159.5933 C   0  0  0  0  0  0  0  0  0  0  0  0
  151.2467  145.3637  158.7463 F   0  0  0  0  0  0  0  0  0  0  0  0
  151.3965  137.4179  157.4864 H   0  0  0  0  0  0  0  0  0  0  0  0
  152.3044  138.9249  157.5656 H   0  0  0  0  0  0  0  0  0  0  0  0
  153.1510  137.3933  157.3566 H   0  0  0  0  0  0  0  0  0  0  0  0
  152.1384  137.1025  155.1038 H   0  0  0  0  0  0  0  0  0  0  0  0
  153.1596  139.0225  154.1993 H   0  0  0  0  0  0  0  0  0  0  0  0
  147.4161  138.4036  153.0970 H   0  0  0  0  0  0  0  0  0  0  0  0
  146.0158  140.4558  153.1045 H   0  0  0  0  0  0  0  0  0  0  0  0
  146.7897  142.5008  154.2874 H   0  0  0  0  0  0  0  0  0  0  0  0
  148.9817  142.5027  155.4724 H   0  0  0  0  0  0  0  0  0  0  0  0
  152.4468  140.4977  156.5273 H   0  0  0  0  0  0  0  0  0  0  0  0
  151.8053  141.8587  155.6486 H   0  0  0  0  0  0  0  0  0  0  0  0
  149.7306  141.5472  157.3592 H   0  0  0  0  0  0  0  0  0  0  0  0
  150.9918  140.8217  158.3642 H   0  0  0  0  0  0  0  0  0  0  0  0
  152.1719  141.0051  159.7712 H   0  0  0  0  0  0  0  0  0  0  0  0
  152.8379  141.6124  162.0521 H   0  0  0  0  0  0  0  0  0  0  0  0
  152.7634  143.9834  162.8014 H   0  0  0  0  0  0  0  0  0  0  0  0
  152.0077  145.7572  161.2285 H   0  0  0  0  0  0  0  0  0  0  0  0
  1  2  1  0  0  0  0
  1 23  1  0  0  0  0
  1 24  1  0  0  0  0
  1 25  1  0  0  0  0
  2  3  1  0  0  0  0
  2  4  1  0  0  0  0
  2 26  1  0  0  0  0
  3 27  1  0  0  0  0
  4 12  1  0  0  0  0
  4  5  2  0  0  0  0
  5  6  1  0  0  0  0
  6 11  2  0  0  0  0
  6  7  1  0  0  0  0
  7  8  2  0  0  0  0
  7 28  1  0  0  0  0
  8  9  1  0  0  0  0
  8 29  1  0  0  0  0
  9 10  2  0  0  0  0
  9 30  1  0  0  0  0
 10 11  1  0  0  0  0
 10 31  1  0  0  0  0
 11 12  1  0  0  0  0
 12 13  1  0  0  0  0
 13 14  1  0  0  0  0
 13 32  1  0  0  0  0
 13 33  1  0  0  0  0
 14 15  1  0  0  0  0
 14 34  1  0  0  0  0
 14 35  1  0  0  0  0
 15 16  1  0  0  0  0
 16 21  1  0  0  0  0
 16 17  2  0  0  0  0
 17 18  1  0  0  0  0
 17 36  1  0  0  0  0
 18 19  2  0  0  0  0
 18 37  1  0  0  0  0
 19 20  1  0  0  0  0
 19 38  1  0  0  0  0
 20 21  2  0  0  0  0
 20 39  1  0  0  0  0
 21 22  1  0  0  0  0
M  END
> <s_m_source_file>
AV-unprocessed.smi

> <i_m_source_file_index>
2975

> <i_lp_mmshare_version>
43012

> <i_f3d_flags>
0

> <s_epik_input>
W2NIXTFbY0hdW2NIXVtjSF1jKGMxMiluKGMobjIpW0NASF0oW0NIM10pW09IXSlbQ0gyXVtDSDJdT2MzW2NIXVtjSF1bY0hdW2NIXWMzRg==

> <s_epik_cmdline>
J2VwaWtfcHl0aG9uJywgJy1waCcsICc3LjAnLCAnLXRuJywgJzgnLCAnLW1hJywgJzIwMCcsICctbWV0YWxfYmluZGluZycsICctaW1hZScsICc8aW5maWxlLm1hZT4nLCAnLW9tYWUnLCAnPG91dGZpbGUubWFlPic=

> <r_lp_tautomer_probability>
1

> <r_epik_Ionization_Penalty>
0.0404035

> <r_epik_Ionization_Penalty_Charging>
0

> <r_epik_Ionization_Penalty_Neutral>
0.0404035

> <r_epik_State_Penalty>
0.0340039

> <r_epik_Charging_Adjusted_Penalty>
0.0340039

> <i_epik_Tot_Q>
0

> <i_epik_Tot_abs_Q>
0

> <r_epik_Metal_State_Penalty>
3.49976e-05

> <b_epik_Metal_Only>
0

> <s_lp_Force_Field>
OPLS_2005

> <r_lp_Energy>
15.721

> <b_lp_Chiralities_Consistent>
1

> <s_lp_Variant>
AV-unprocessed.smi:2975-1

> <Gold.Version>
5.8.1

> <Gold.Id.Protein>
6NUR|6NUR_protein|mol2

> <Gold.PLP.Fitness>
52.2609

> <Gold.PLP.PLP>
-51.0317

> <Gold.PLP.part.hbond>
-1.0000

> <Gold.PLP.part.metal>
0.0000

> <Gold.PLP.part.buried>
-3.8828

> <Gold.PLP.part.nonpolar>
-46.1111

> <Gold.PLP.part.repulsive>
0.3089

> <Gold.PLP.ligand.clash>
0.0000

> <Gold.PLP.ligand.torsion>
0.8953

> <Gold.PLP.Chemscore.Hbond>
1.0000

> <Gold.PLP.Chemscore.CHOScore>
0.0000

> <Gold.PLP.Chemscore.Metal>
0.0000

> <Gold.Chemscore.Hbonds>
donor molecule, donor type, donor heavy atom, donor atom, acceptor molecule, acceptor atom, score
      P1  H  7997  8010       L1     3  1.00

> <Gold.PLP.Chemscore.Internal.Correction>
0.0198

> <Gold.Rescore>
     Score         DG    S(hbond)    S(metal)    S(lipo)     H(rot)  DE(clash)    DE(int)     intcor
     16.98     -18.26       0.94        0.00     130.73       2.21       0.49       0.80       ----

> <Gold.Chemscore.Fitness>
16.9752

> <Gold.Chemscore.DG>
-18.2604

> <Gold.Chemscore.ZeroCoef>
-5.4800

> <Gold.Chemscore.Hbond>
0.9378

> <Gold.Chemscore.Metal>
0.0000

> <Gold.Chemscore.Lipo>
130.7290

> <Gold.Chemscore.Internal_Hbond>
0.0000

> <Gold.Chemscore.DEClash>
0.4886

> <Gold.Chemscore.DEInternal>
0.7966

> <Gold.Chemscore.Rot>
2.2060

> <Gold.Chemscore.Internal.Correction>
   9.000000E+99

> <Gold.Chemscore.Hbonds>
donor molecule, donor type, donor heavy atom, donor atom, acceptor molecule, acceptor atom, score
      P1  H  7997  8010       L1     3  0.41

> <Gold.Chemscore.Hbond.Weighted>
-3.1324

> <Gold.Chemscore.Metal.Weighted>
-0.0000

> <Gold.Chemscore.Lipo.Weighted>
-15.2953

> <Gold.Chemscore.Internal_Hbond.Weighted>
0.0000

> <Gold.Chemscore.DEClash.Weighted>
0.4886

> <Gold.Chemscore.DEInternal.Weighted>
0.7966

> <Gold.Chemscore.Rot.Weighted>
5.6473

> <Gold.Chemscore.Internal.Correction.Weighted>
   9.000000E+99

> <Gold.Protein.RotatedTorsions>
[ 6907 6896 6895 6894 ] final  -56.15 input  -60.11 | X-H torsion
[ 7974 7965 7964 7962 ] final   58.09 input  175.53 | X-H torsion
[ 8008 7997 7996 7995 ] final  104.98 input   59.86 | X-H torsion
[ 10167 10162 10161 10158 ] final   14.76 input  -65.29 | X-H torsion
[ 10718 10713 10712 10709 ] final  -31.53 input   66.30 | X-H torsion
[ 10763 10752 10751 10750 ] final   79.93 input  -60.55 | X-H torsion
[ 11005 11000 10999 10996 ] final  -41.70 input  -57.11 | X-H torsion

> <Gold.Protein.ActiveResidues>
 VAL166  LYS551  ARG553  GLY616  TRP617  ASP618  TYR619  PRO620  LYS621  CYS622 
 ASP623  PHE694  ASN695  SER759  ASP760  ASP761  ALA762  ILE779  LEU786  VAL792 
 PHE793  MET794  SER795  GLU796  ALA797  LYS798  CYS799  TRP800  GLU811  SER814 

> <Gold.Protein.RotatedAtoms>
  150.8191  134.7389  159.6756 H   0  0  0  0  0  0  0  0  0  0  0  0  # atno 6907 bound_to 6896
  152.4308  134.5778  159.9949 H   0  0  0  0  0  0  0  0  0  0  0  0  # atno 6908 bound_to 6896
  151.5967  133.3323  159.3075 H   0  0  0  0  0  0  0  0  0  0  0  0  # atno 6909 bound_to 6896
  145.9220  139.3737  143.0472 H   0  0  0  0  0  0  0  0  0  0  0  0  # atno 7974 bound_to 7965
  156.1620  140.3138  155.8823 H   0  0  0  0  0  0  0  0  0  0  0  0  # atno 8008 bound_to 7997
  155.3763  140.0485  157.3061 H   0  0  0  0  0  0  0  0  0  0  0  0  # atno 8009 bound_to 7997
  154.5156  140.2180  155.9084 H   0  0  0  0  0  0  0  0  0  0  0  0  # atno 8010 bound_to 7997
  140.5913  143.8789  150.6877 H   0  0  0  0  0  0  0  0  0  0  0  0  # atno 10167 bound_to 10162
  156.3862  130.4364  149.7430 H   0  0  0  0  0  0  0  0  0  0  0  0  # atno 10718 bound_to 10713
  153.0992  135.4821  154.8836 H   0  0  0  0  0  0  0  0  0  0  0  0  # atno 10763 bound_to 10752
  154.7360  135.3071  154.8813 H   0  0  0  0  0  0  0  0  0  0  0  0  # atno 10764 bound_to 10752
  153.9435  135.6831  153.4797 H   0  0  0  0  0  0  0  0  0  0  0  0  # atno 10765 bound_to 10752
  141.0264  133.6839  156.2493 H   0  0  0  0  0  0  0  0  0  0  0  0  # atno 11005 bound_to 11000
  145.8538  140.9514  143.0736 LP  0  0  0  0  0  0  0  0  0  0  0  0  # atno 17320 bound_to 7965
  144.6754  140.0441  143.7480 LP  0  0  0  0  0  0  0  0  0  0  0  0  # atno 17321 bound_to 7965
  140.2312  143.3734  152.1564 LP  0  0  0  0  0  0  0  0  0  0  0  0  # atno 17342 bound_to 10162
  139.5230  144.7065  151.5337 LP  0  0  0  0  0  0  0  0  0  0  0  0  # atno 17343 bound_to 10162
  156.4502  130.7903  151.2924 LP  0  0  0  0  0  0  0  0  0  0  0  0  # atno 17370 bound_to 10713
  157.7496  131.0098  150.3280 LP  0  0  0  0  0  0  0  0  0  0  0  0  # atno 17371 bound_to 10713
  140.6484  134.5093  157.5575 LP  0  0  0  0  0  0  0  0  0  0  0  0  # atno 17394 bound_to 11000
  139.9179  134.8209  156.1307 LP  0  0  0  0  0  0  0  0  0  0  0  0  # atno 17395 bound_to 11000

$$$$
