AV-unprocessed.smi:2011|AV-procd|sdf|8153|dock5
  -GOLD-   2272010393D 1   1.00000     0.00000
 Structure written by MMmdl.
 26 27  0  0  0  0  0  0  0  0  1 V2000
  150.4444  140.5891  156.6075 O   0  0  0  0  0  0  0  0  0  0  0  0
  150.1048  141.7494  156.3740 C   0  0  0  0  0  0  0  0  0  0  0  0
  150.6323  142.8132  156.9968 N   0  0  0  0  0  0  0  0  0  0  0  0
  151.6592  142.7535  158.0306 C   0  0  0  0  0  0  0  0  0  0  0  0
  151.9539  144.1379  158.6021 C   0  0  0  0  0  0  0  0  0  0  0  0
  152.4108  144.2824  160.0620 C   0  0  0  0  0  0  0  0  0  0  0  0
  151.6283  145.5967  160.1273 C   0  0  0  0  0  0  0  0  0  0  0  0
  150.7913  145.0775  158.9548 C   0  0  0  0  0  0  0  0  0  0  0  0
  149.1704  142.1220  155.4815 N   0  0  0  0  0  0  0  0  0  0  0  0
  148.4011  141.2995  154.6164 C   0  0  0  0  0  0  0  0  0  0  0  0
  148.6812  140.0100  154.3702 N   0  0  0  0  0  0  0  0  0  0  0  0
  147.7727  139.4402  153.4872 N   0  0  0  0  0  0  0  0  0  0  0  0
  146.8454  140.3214  153.1020 C   0  0  0  0  0  0  0  0  0  0  0  0
  146.9906  141.9336  153.7806 S   0  0  0  0  0  0  0  0  0  0  0  0
  150.2960  143.7307  156.7436 H   0  0  0  0  0  0  0  0  0  0  0  0
  151.3564  142.0660  158.8220 H   0  0  0  0  0  0  0  0  0  0  0  0
  152.5585  142.3262  157.5864 H   0  0  0  0  0  0  0  0  0  0  0  0
  152.6515  144.6821  157.9615 H   0  0  0  0  0  0  0  0  0  0  0  0
  151.9958  143.5124  160.7149 H   0  0  0  0  0  0  0  0  0  0  0  0
  153.4883  144.3834  160.1942 H   0  0  0  0  0  0  0  0  0  0  0  0
  151.0732  145.7545  161.0523 H   0  0  0  0  0  0  0  0  0  0  0  0
  152.2352  146.4644  159.8629 H   0  0  0  0  0  0  0  0  0  0  0  0
  150.5596  145.8227  158.1932 H   0  0  0  0  0  0  0  0  0  0  0  0
  149.8969  144.5438  159.2804 H   0  0  0  0  0  0  0  0  0  0  0  0
  148.9901  143.1123  155.4091 H   0  0  0  0  0  0  0  0  0  0  0  0
  146.0706  140.0200  152.4126 H   0  0  0  0  0  0  0  0  0  0  0  0
  1  2  2  0  0  0  0
  2  3  1  0  0  0  0
  2  9  1  0  0  0  0
  3  4  1  0  0  0  0
  3 15  1  0  0  0  0
  4  5  1  0  0  0  0
  4 16  1  0  0  0  0
  4 17  1  0  0  0  0
  5  8  1  0  0  0  0
  5  6  1  0  0  0  0
  5 18  1  0  0  0  0
  6  7  1  0  0  0  0
  6 19  1  0  0  0  0
  6 20  1  0  0  0  0
  7  8  1  0  0  0  0
  7 21  1  0  0  0  0
  7 22  1  0  0  0  0
  8 23  1  0  0  0  0
  8 24  1  0  0  0  0
  9 10  1  0  0  0  0
  9 25  1  0  0  0  0
 10 14  1  0  0  0  0
 10 11  2  0  0  0  0
 11 12  1  0  0  0  0
 12 13  2  0  0  0  0
 13 14  1  0  0  0  0
 13 26  1  0  0  0  0
M  END
> <s_m_source_file>
AV-unprocessed.smi

> <i_m_source_file_index>
2011

> <i_lp_mmshare_version>
43012

> <i_f3d_flags>
0

> <s_epik_input>
czFbY0hdbm5jMVtOSF1DKD1PKVtOSF1bQ0gyXVtDSF0yW0NIMl1bQ0gyXVtDSDJdMg==

> <s_epik_cmdline>
J2VwaWtfcHl0aG9uJywgJy1waCcsICc3LjAnLCAnLXRuJywgJzgnLCAnLW1hJywgJzIwMCcsICctbWV0YWxfYmluZGluZycsICctaW1hZScsICc8aW5maWxlLm1hZT4nLCAnLW9tYWUnLCAnPG91dGZpbGUubWFlPic=

> <r_lp_tautomer_probability>
1

> <r_epik_Ionization_Penalty>
0.000339164

> <r_epik_Ionization_Penalty_Charging>
0

> <r_epik_Ionization_Penalty_Neutral>
0.000339164

> <r_epik_State_Penalty>
-0

> <r_epik_Charging_Adjusted_Penalty>
0

> <i_epik_Tot_Q>
0

> <i_epik_Tot_abs_Q>
0

> <r_epik_Metal_State_Penalty>
0.176475

> <b_epik_Metal_Only>
0

> <s_lp_Force_Field>
OPLS_2005

> <r_lp_Energy>
11.4486

> <b_lp_Chiralities_Consistent>
1

> <s_lp_Variant>
AV-unprocessed.smi:2011-1

> <Gold.Version>
5.8.1

> <Gold.Id.Protein>
6NUR|6NUR_protein|mol2

> <Gold.PLP.Fitness>
39.6476

> <Gold.PLP.PLP>
-31.5016

> <Gold.PLP.part.hbond>
-2.0000

> <Gold.PLP.part.metal>
0.0000

> <Gold.PLP.part.buried>
-6.2874

> <Gold.PLP.part.nonpolar>
-25.2222

> <Gold.PLP.part.repulsive>
1.4227

> <Gold.PLP.ligand.clash>
0.0000

> <Gold.PLP.ligand.torsion>
0.2998

> <Gold.PLP.Chemscore.Hbond>
1.8960

> <Gold.PLP.Chemscore.CHOScore>
1.0000

> <Gold.PLP.Chemscore.Metal>
0.0000

> <Gold.Chemscore.Hbonds>
donor molecule, donor type, donor heavy atom, donor atom, acceptor molecule, acceptor atom, score
      L1  H     3    15       P1  8028  0.90
      L1  H     9    25       P1  8028  1.00
      L1  C    13    26       P1 10175  1.00

> <Gold.PLP.Chemscore.Internal.Correction>
0.0576

> <Gold.Rescore>
     Score         DG    S(hbond)    S(metal)    S(lipo)     H(rot)  DE(clash)    DE(int)     intcor
     15.60     -17.08       1.93        0.00      73.40       1.34       0.07       1.41       ----

> <Gold.Chemscore.Fitness>
15.6005

> <Gold.Chemscore.DG>
-17.0839

> <Gold.Chemscore.ZeroCoef>
-5.4800

> <Gold.Chemscore.Hbond>
1.9281

> <Gold.Chemscore.Metal>
0.0000

> <Gold.Chemscore.Lipo>
73.4027

> <Gold.Chemscore.Internal_Hbond>
0.0000

> <Gold.Chemscore.DEClash>
0.0698

> <Gold.Chemscore.DEInternal>
1.4136

> <Gold.Chemscore.Rot>
1.3375

> <Gold.Chemscore.Internal.Correction>
   9.000000E+99

> <Gold.Chemscore.Hbonds>
donor molecule, donor type, donor heavy atom, donor atom, acceptor molecule, acceptor atom, score
      L1  H     3    15       P1  8028  0.83
      L1  H     9    25       P1  8028  0.99

> <Gold.Chemscore.Hbond.Weighted>
-6.4398

> <Gold.Chemscore.Metal.Weighted>
-0.0000

> <Gold.Chemscore.Lipo.Weighted>
-8.5881

> <Gold.Chemscore.Internal_Hbond.Weighted>
0.0000

> <Gold.Chemscore.DEClash.Weighted>
0.0698

> <Gold.Chemscore.DEInternal.Weighted>
1.4136

> <Gold.Chemscore.Rot.Weighted>
3.4240

> <Gold.Chemscore.Internal.Correction.Weighted>
   9.000000E+99

> <Gold.Protein.RotatedTorsions>
[ 6907 6896 6895 6894 ] final  117.19 input  -60.11 | X-H torsion
[ 7974 7965 7964 7962 ] final -140.04 input  175.53 | X-H torsion
[ 8008 7997 7996 7995 ] final  -46.20 input   59.86 | X-H torsion
[ 10167 10162 10161 10158 ] final -170.33 input  -65.29 | X-H torsion
[ 10718 10713 10712 10709 ] final  -14.19 input   66.30 | X-H torsion
[ 10763 10752 10751 10750 ] final  -95.06 input  -60.55 | X-H torsion
[ 11005 11000 10999 10996 ] final -111.18 input  -57.11 | X-H torsion

> <Gold.Protein.ActiveResidues>
 VAL166  LYS551  ARG553  GLY616  TRP617  ASP618  TYR619  PRO620  LYS621  CYS622 
 ASP623  PHE694  ASN695  SER759  ASP760  ASP761  ALA762  ILE779  LEU786  VAL792 
 PHE793  MET794  SER795  GLU796  ALA797  LYS798  CYS799  TRP800  GLU811  SER814 

> <Gold.Protein.RotatedAtoms>
  152.4628  133.7859  159.6875 H   0  0  0  0  0  0  0  0  0  0  0  0  # atno 6907 bound_to 6896
  150.8580  133.7677  159.3008 H   0  0  0  0  0  0  0  0  0  0  0  0  # atno 6908 bound_to 6896
  151.5251  135.1071  159.9940 H   0  0  0  0  0  0  0  0  0  0  0  0  # atno 6909 bound_to 6896
  144.8628  140.6247  143.5317 H   0  0  0  0  0  0  0  0  0  0  0  0  # atno 7974 bound_to 7965
  154.4006  140.1377  156.3972 H   0  0  0  0  0  0  0  0  0  0  0  0  # atno 8008 bound_to 7997
  155.7858  140.3480  155.5302 H   0  0  0  0  0  0  0  0  0  0  0  0  # atno 8009 bound_to 7997
  155.8628  140.0959  157.1592 H   0  0  0  0  0  0  0  0  0  0  0  0  # atno 8010 bound_to 7997
  139.5868  144.1300  152.1585 H   0  0  0  0  0  0  0  0  0  0  0  0  # atno 10167 bound_to 10162
  156.6195  130.4871  149.6170 H   0  0  0  0  0  0  0  0  0  0  0  0  # atno 10718 bound_to 10713
  154.7113  135.5134  153.8670 H   0  0  0  0  0  0  0  0  0  0  0  0  # atno 10763 bound_to 10752
  153.0783  135.6623  154.0108 H   0  0  0  0  0  0  0  0  0  0  0  0  # atno 10764 bound_to 10752
  153.9949  135.3016  155.3388 H   0  0  0  0  0  0  0  0  0  0  0  0  # atno 10765 bound_to 10752
  141.0749  133.9317  157.2409 H   0  0  0  0  0  0  0  0  0  0  0  0  # atno 11005 bound_to 11000
  145.4279  139.1553  143.4038 LP  0  0  0  0  0  0  0  0  0  0  0  0  # atno 17320 bound_to 7965
  146.2873  140.4393  142.8753 LP  0  0  0  0  0  0  0  0  0  0  0  0  # atno 17321 bound_to 7965
  140.0866  144.5656  150.7084 LP  0  0  0  0  0  0  0  0  0  0  0  0  # atno 17342 bound_to 10162
  140.7138  143.2527  151.4497 LP  0  0  0  0  0  0  0  0  0  0  0  0  # atno 17343 bound_to 10162
  156.2323  130.6802  151.1475 LP  0  0  0  0  0  0  0  0  0  0  0  0  # atno 17370 bound_to 10713
  157.7231  131.0668  150.6049 LP  0  0  0  0  0  0  0  0  0  0  0  0  # atno 17371 bound_to 10713
  139.9562  135.0165  156.9134 LP  0  0  0  0  0  0  0  0  0  0  0  0  # atno 17394 bound_to 11000
  140.5594  134.0550  155.7394 LP  0  0  0  0  0  0  0  0  0  0  0  0  # atno 17395 bound_to 11000

$$$$
