AV-unprocessed.smi:945|AV-procd|sdf|4233|dock7
  -GOLD-   22720 2143D 1   1.00000     0.00000
 Structure written by MMmdl.
 31 32  0  0  0  0  0  0  0  0  1 V2000
  153.1532  142.5464  162.2036 C   0  0  0  0  0  0  0  0  0  0  0  0
  152.2430  143.7049  161.7816 C   0  0  0  0  0  0  0  0  0  0  0  0
  151.9485  143.6970  160.3189 C   0  0  0  0  0  0  0  0  0  0  0  0
  151.4985  142.6227  159.6650 N   0  0  0  0  0  0  0  0  0  0  0  0
  151.3340  142.8550  158.2959 C   0  0  0  0  0  0  0  0  0  0  0  0
  150.8408  141.7558  157.4050 C   0  0  0  0  0  0  0  0  0  0  0  0
  150.9718  142.1174  155.9163 C   0  0  0  0  0  0  0  0  0  0  0  0
  149.6780  142.1201  155.2433 N   0  0  0  0  0  0  0  0  0  0  0  0
  149.2079  141.1302  154.4693 C   0  0  0  0  0  0  0  0  0  0  0  0
  149.8445  140.1016  154.2349 O   0  0  0  0  0  0  0  0  0  0  0  0
  147.8426  141.3870  153.9202 C   0  0  0  0  0  0  0  0  0  0  0  0
  146.7594  141.7933  154.8986 C   0  0  0  0  0  0  0  0  0  0  0  0
  146.7401  140.4148  154.2877 C   0  0  0  0  0  0  0  0  0  0  0  0
  151.6782  144.1290  157.9181 C   0  0  0  0  0  0  0  0  0  0  0  0
  152.2272  145.0818  159.2693 S   0  0  0  0  0  0  0  0  0  0  0  0
  153.3501  142.5774  163.2753 H   0  0  0  0  0  0  0  0  0  0  0  0
  154.1120  142.5903  161.6862 H   0  0  0  0  0  0  0  0  0  0  0  0
  152.6939  141.5837  161.9772 H   0  0  0  0  0  0  0  0  0  0  0  0
  151.3023  143.6590  162.3313 H   0  0  0  0  0  0  0  0  0  0  0  0
  152.7093  144.6563  162.0390 H   0  0  0  0  0  0  0  0  0  0  0  0
  151.3952  140.8382  157.6072 H   0  0  0  0  0  0  0  0  0  0  0  0
  149.7994  141.5323  157.6391 H   0  0  0  0  0  0  0  0  0  0  0  0
  151.4560  143.0888  155.8007 H   0  0  0  0  0  0  0  0  0  0  0  0
  151.6105  141.3914  155.4124 H   0  0  0  0  0  0  0  0  0  0  0  0
  149.0925  142.9307  155.3846 H   0  0  0  0  0  0  0  0  0  0  0  0
  147.7932  141.8293  152.9263 H   0  0  0  0  0  0  0  0  0  0  0  0
  147.0134  141.8686  155.9545 H   0  0  0  0  0  0  0  0  0  0  0  0
  146.0251  142.5168  154.5502 H   0  0  0  0  0  0  0  0  0  0  0  0
  145.9936  140.2048  153.5247 H   0  0  0  0  0  0  0  0  0  0  0  0
  146.9801  139.5762  154.9390 H   0  0  0  0  0  0  0  0  0  0  0  0
  151.6493  144.5605  156.9284 H   0  0  0  0  0  0  0  0  0  0  0  0
  1  2  1  0  0  0  0
  1 16  1  0  0  0  0
  1 17  1  0  0  0  0
  1 18  1  0  0  0  0
  2  3  1  0  0  0  0
  2 19  1  0  0  0  0
  2 20  1  0  0  0  0
  3 15  1  0  0  0  0
  3  4  2  0  0  0  0
  4  5  1  0  0  0  0
  5  6  1  0  0  0  0
  5 14  2  0  0  0  0
  6  7  1  0  0  0  0
  6 21  1  0  0  0  0
  6 22  1  0  0  0  0
  7  8  1  0  0  0  0
  7 23  1  0  0  0  0
  7 24  1  0  0  0  0
  8  9  1  0  0  0  0
  8 25  1  0  0  0  0
  9 10  2  0  0  0  0
  9 11  1  0  0  0  0
 11 13  1  0  0  0  0
 11 12  1  0  0  0  0
 11 26  1  0  0  0  0
 12 13  1  0  0  0  0
 12 27  1  0  0  0  0
 12 28  1  0  0  0  0
 13 29  1  0  0  0  0
 13 30  1  0  0  0  0
 14 15  1  0  0  0  0
 14 31  1  0  0  0  0
M  END
> <s_m_source_file>
AV-unprocessed.smi

> <i_m_source_file_index>
945

> <i_lp_mmshare_version>
43012

> <i_f3d_flags>
0

> <s_epik_input>
W0NIM11bQ0gyXWMxbmMoW2NIXXMxKVtDSDJdW0NIMl1bTkhdQyg9TylbQ0hdMltDSDJdW0NIMl0y

> <s_epik_cmdline>
J2VwaWtfcHl0aG9uJywgJy1waCcsICc3LjAnLCAnLXRuJywgJzgnLCAnLW1hJywgJzIwMCcsICctbWV0YWxfYmluZGluZycsICctaW1hZScsICc8aW5maWxlLm1hZT4nLCAnLW9tYWUnLCAnPG91dGZpbGUubWFlPic=

> <r_epik_Ionization_Penalty>
0.00109668

> <r_epik_Ionization_Penalty_Charging>
0

> <r_epik_Ionization_Penalty_Neutral>
0.00109668

> <r_epik_State_Penalty>
0.000719322

> <r_epik_Charging_Adjusted_Penalty>
0.000719322

> <i_epik_Tot_Q>
0

> <i_epik_Tot_abs_Q>
0

> <r_epik_Metal_State_Penalty>
-0

> <b_epik_Metal_Only>
0

> <s_lp_Force_Field>
OPLS_2005

> <r_lp_Energy>
-3.93776

> <b_lp_Chiralities_Consistent>
1

> <s_lp_Variant>
AV-unprocessed.smi:945-1

> <Gold.Version>
5.8.1

> <Gold.Id.Protein>
6NUR|6NUR_protein|mol2

> <Gold.PLP.Fitness>
43.5391

> <Gold.PLP.PLP>
-39.1689

> <Gold.PLP.part.hbond>
-2.0824

> <Gold.PLP.part.metal>
0.0000

> <Gold.PLP.part.buried>
-5.4087

> <Gold.PLP.part.nonpolar>
-31.9306

> <Gold.PLP.part.repulsive>
0.7629

> <Gold.PLP.ligand.clash>
0.0000

> <Gold.PLP.ligand.torsion>
0.7316

> <Gold.PLP.Chemscore.Hbond>
1.9120

> <Gold.PLP.Chemscore.CHOScore>
0.0000

> <Gold.PLP.Chemscore.Metal>
0.0000

> <Gold.Chemscore.Hbonds>
donor molecule, donor type, donor heavy atom, donor atom, acceptor molecule, acceptor atom, score
      L1  H     8    25       P1  8028  1.00
      P1  H  7989  7998       L1    10  0.83

> <Gold.PLP.Chemscore.Internal.Correction>
0.0974

> <Gold.Rescore>
     Score         DG    S(hbond)    S(metal)    S(lipo)     H(rot)  DE(clash)    DE(int)     intcor
     18.21     -19.17       1.65        0.00     104.27       1.58       0.24       0.71       ----

> <Gold.Chemscore.Fitness>
18.2141

> <Gold.Chemscore.DG>
-19.1666

> <Gold.Chemscore.ZeroCoef>
-5.4800

> <Gold.Chemscore.Hbond>
1.6533

> <Gold.Chemscore.Metal>
0.0000

> <Gold.Chemscore.Lipo>
104.2669

> <Gold.Chemscore.Internal_Hbond>
0.0000

> <Gold.Chemscore.DEClash>
0.2436

> <Gold.Chemscore.DEInternal>
0.7089

> <Gold.Chemscore.Rot>
1.5760

> <Gold.Chemscore.Internal.Correction>
   9.000000E+99

> <Gold.Chemscore.Hbonds>
donor molecule, donor type, donor heavy atom, donor atom, acceptor molecule, acceptor atom, score
      L1  H     8    25       P1  8028  0.96
      P1  H  7989  7998       L1    10  0.23

> <Gold.Chemscore.Hbond.Weighted>
-5.5219

> <Gold.Chemscore.Metal.Weighted>
-0.0000

> <Gold.Chemscore.Lipo.Weighted>
-12.1992

> <Gold.Chemscore.Internal_Hbond.Weighted>
0.0000

> <Gold.Chemscore.DEClash.Weighted>
0.2436

> <Gold.Chemscore.DEInternal.Weighted>
0.7089

> <Gold.Chemscore.Rot.Weighted>
4.0346

> <Gold.Chemscore.Internal.Correction.Weighted>
   9.000000E+99

> <Gold.Protein.RotatedTorsions>
[ 6907 6896 6895 6894 ] final -174.91 input  -60.11 | X-H torsion
[ 7974 7965 7964 7962 ] final   15.31 input  175.53 | X-H torsion
[ 8008 7997 7996 7995 ] final -154.61 input   59.86 | X-H torsion
[ 10167 10162 10161 10158 ] final  101.65 input  -65.29 | X-H torsion
[ 10718 10713 10712 10709 ] final  167.11 input   66.30 | X-H torsion
[ 10763 10752 10751 10750 ] final -111.67 input  -60.55 | X-H torsion
[ 11005 11000 10999 10996 ] final -106.86 input  -57.11 | X-H torsion

> <Gold.Protein.ActiveResidues>
 VAL166  LYS551  ARG553  GLY616  TRP617  ASP618  TYR619  PRO620  LYS621  CYS622 
 ASP623  PHE694  ASN695  SER759  ASP760  ASP761  ALA762  ILE779  LEU786  VAL792 
 PHE793  MET794  SER795  GLU796  ALA797  LYS798  CYS799  TRP800  GLU811  SER814 

> <Gold.Protein.RotatedAtoms>
  151.5801  133.3379  159.3006 H   0  0  0  0  0  0  0  0  0  0  0  0  # atno 6907 bound_to 6896
  150.8318  134.7578  159.6871 H   0  0  0  0  0  0  0  0  0  0  0  0  # atno 6908 bound_to 6896
  152.4401  134.5615  159.9947 H   0  0  0  0  0  0  0  0  0  0  0  0  # atno 6909 bound_to 6896
  146.2282  139.8913  142.8554 H   0  0  0  0  0  0  0  0  0  0  0  0  # atno 7974 bound_to 7965
  155.6891  140.0753  157.2455 H   0  0  0  0  0  0  0  0  0  0  0  0  # atno 8008 bound_to 7997
  154.4092  140.1668  156.2118 H   0  0  0  0  0  0  0  0  0  0  0  0  # atno 8009 bound_to 7997
  155.9468  140.3380  155.6377 H   0  0  0  0  0  0  0  0  0  0  0  0  # atno 8010 bound_to 7997
  139.7419  144.7009  151.0562 H   0  0  0  0  0  0  0  0  0  0  0  0  # atno 10167 bound_to 10162
  157.0562  131.0327  151.2663 H   0  0  0  0  0  0  0  0  0  0  0  0  # atno 10718 bound_to 10713
  154.8312  135.4519  154.1075 H   0  0  0  0  0  0  0  0  0  0  0  0  # atno 10763 bound_to 10752
  153.2347  135.6909  153.7857 H   0  0  0  0  0  0  0  0  0  0  0  0  # atno 10764 bound_to 10752
  153.7227  135.3339  155.3246 H   0  0  0  0  0  0  0  0  0  0  0  0  # atno 10765 bound_to 10752
  141.0983  133.8930  157.1906 H   0  0  0  0  0  0  0  0  0  0  0  0  # atno 11005 bound_to 11000
  145.2415  141.0011  143.3933 LP  0  0  0  0  0  0  0  0  0  0  0  0  # atno 17320 bound_to 7965
  144.9448  139.4148  143.6431 LP  0  0  0  0  0  0  0  0  0  0  0  0  # atno 17321 bound_to 7965
  140.7787  143.4913  150.9889 LP  0  0  0  0  0  0  0  0  0  0  0  0  # atno 17342 bound_to 10162
  139.8602  143.7325  152.3174 LP  0  0  0  0  0  0  0  0  0  0  0  0  # atno 17343 bound_to 10162
  157.4991  130.7869  149.7586 LP  0  0  0  0  0  0  0  0  0  0  0  0  # atno 17370 bound_to 10713
  155.9992  130.3890  150.2672 LP  0  0  0  0  0  0  0  0  0  0  0  0  # atno 17371 bound_to 10713
  139.9827  135.0093  156.9788 LP  0  0  0  0  0  0  0  0  0  0  0  0  # atno 17394 bound_to 11000
  140.5085  134.1026  155.7265 LP  0  0  0  0  0  0  0  0  0  0  0  0  # atno 17395 bound_to 11000

$$$$
