AV-unprocessed.smi:1986|AV-procd|sdf|8048|dock9
  -GOLD-   2272010253D 1   1.00000     0.00000
 Structure written by MMmdl.
 47 48  0  0  0  0  0  0  0  0  3 V2000
  147.4413  134.1118  154.1005 C   0  0  0  0  0  0  0  0  0  0  0  0
  147.1506  134.9840  155.3349 C   0  0  0  0  0  0  0  0  0  0  0  0
  147.1719  136.5257  155.1054 C   0  0  1  0  0  0  0  0  0  0  0  0
  146.1784  136.8971  153.9726 C   0  0  0  0  0  0  0  0  0  0  0  0
  146.6855  137.2603  156.3902 C   0  0  0  0  0  0  0  0  0  0  0  0
  147.3044  136.6986  157.5862 N   0  0  0  0  0  0  0  0  0  0  0  0
  148.2962  137.2374  158.3103 C   0  0  0  0  0  0  0  0  0  0  0  0
  148.7419  138.3677  158.1166 O   0  0  0  0  0  0  0  0  0  0  0  0
  148.9162  136.3409  159.3932 C   0  0  0  0  0  0  0  0  0  0  0  0
  147.9875  136.0304  160.4945 N   0  0  0  0  0  0  0  0  0  0  0  0
  147.5032  137.2026  161.2191 N   0  5  0  0  0  0  0  0  0  0  0  0
  146.6673  137.0282  162.2769 C   0  0  0  0  0  0  0  0  0  0  0  0
  146.2314  137.9638  162.9426 O   0  0  0  0  0  0  0  0  0  0  0  0
  146.2612  135.6738  162.6122 C   0  0  0  0  0  0  0  0  0  0  0  0
  146.6869  134.6145  161.8968 C   0  0  0  0  0  0  0  0  0  0  0  0
  147.5889  134.7537  160.7607 C   0  0  0  0  0  0  0  0  0  0  0  0
  147.9626  133.7925  160.0893 O   0  0  0  0  0  0  0  0  0  0  0  0
  148.5590  137.0024  154.7394 N   0  3  0  0  0  0  0  0  0  0  0  0
  148.7450  138.4812  154.7120 C   0  0  0  0  0  0  0  0  0  0  0  0
  150.1188  138.8433  154.1268 C   0  0  0  0  0  0  0  0  0  0  0  0
  151.1392  138.2301  154.9012 O   0  0  0  0  0  0  0  0  0  0  0  0
  151.0378  136.8138  154.8723 C   0  0  0  0  0  0  0  0  0  0  0  0
  149.6924  136.3707  155.4728 C   0  0  0  0  0  0  0  0  0  0  0  0
  147.3916  133.0552  154.3640 H   0  0  0  0  0  0  0  0  0  0  0  0
  148.4376  134.2931  153.6981 H   0  0  0  0  0  0  0  0  0  0  0  0
  146.7170  134.2775  153.3037 H   0  0  0  0  0  0  0  0  0  0  0  0
  146.1780  134.6793  155.7206 H   0  0  0  0  0  0  0  0  0  0  0  0
  147.8740  134.7138  156.1035 H   0  0  0  0  0  0  0  0  0  0  0  0
  145.1416  136.7914  154.2932 H   0  0  0  0  0  0  0  0  0  0  0  0
  146.2957  136.2600  153.0961 H   0  0  0  0  0  0  0  0  0  0  0  0
  146.3023  137.9321  153.6519 H   0  0  0  0  0  0  0  0  0  0  0  0
  146.8884  138.3297  156.3211 H   0  0  0  0  0  0  0  0  0  0  0  0
  145.6042  137.1848  156.5023 H   0  0  0  0  0  0  0  0  0  0  0  0
  147.0051  135.7729  157.8592 H   0  0  0  0  0  0  0  0  0  0  0  0
  149.2767  135.4182  158.9349 H   0  0  0  0  0  0  0  0  0  0  0  0
  149.8056  136.8412  159.7802 H   0  0  0  0  0  0  0  0  0  0  0  0
  145.5969  135.5140  163.4487 H   0  0  0  0  0  0  0  0  0  0  0  0
  146.3554  133.6260  162.1781 H   0  0  0  0  0  0  0  0  0  0  0  0
  147.9818  138.9691  154.1085 H   0  0  0  0  0  0  0  0  0  0  0  0
  148.6708  138.8908  155.7195 H   0  0  0  0  0  0  0  0  0  0  0  0
  150.1935  138.5345  153.0843 H   0  0  0  0  0  0  0  0  0  0  0  0
  150.2628  139.9235  154.1480 H   0  0  0  0  0  0  0  0  0  0  0  0
  151.1469  136.4505  153.8500 H   0  0  0  0  0  0  0  0  0  0  0  0
  151.8622  136.3918  155.4472 H   0  0  0  0  0  0  0  0  0  0  0  0
  149.6579  136.6420  156.5278 H   0  0  0  0  0  0  0  0  0  0  0  0
  149.6534  135.2845  155.4163 H   0  0  0  0  0  0  0  0  0  0  0  0
  148.6779  136.7052  153.7807 H   0  0  0  0  0  0  0  0  0  0  0  0
  1  2  1  0  0  0  0
  1 24  1  0  0  0  0
  1 25  1  0  0  0  0
  1 26  1  0  0  0  0
  2  3  1  0  0  0  0
  2 27  1  0  0  0  0
  2 28  1  0  0  0  0
  3  4  1  0  0  0  0
  3  5  1  0  0  0  0
  3 18  1  0  0  0  0
  4 29  1  0  0  0  0
  4 30  1  0  0  0  0
  4 31  1  0  0  0  0
  5  6  1  0  0  0  0
  5 32  1  0  0  0  0
  5 33  1  0  0  0  0
  6  7  1  0  0  0  0
  6 34  1  0  0  0  0
  7  8  2  0  0  0  0
  7  9  1  0  0  0  0
  9 35  1  0  0  0  0
  9 36  1  0  0  0  0
  9 10  1  0  0  0  0
 10 11  1  0  0  0  0
 10 16  1  0  0  0  0
 11 12  1  0  0  0  0
 12 13  2  0  0  0  0
 12 14  1  0  0  0  0
 14 37  1  0  0  0  0
 14 15  2  0  0  0  0
 15 38  1  0  0  0  0
 15 16  1  0  0  0  0
 16 17  2  0  0  0  0
 18 23  1  0  0  0  0
 18 19  1  0  0  0  0
 18 47  1  0  0  0  0
 19 20  1  0  0  0  0
 19 39  1  0  0  0  0
 19 40  1  0  0  0  0
 20 21  1  0  0  0  0
 20 41  1  0  0  0  0
 20 42  1  0  0  0  0
 21 22  1  0  0  0  0
 22 23  1  0  0  0  0
 22 43  1  0  0  0  0
 22 44  1  0  0  0  0
 23 45  1  0  0  0  0
 23 46  1  0  0  0  0
M  CHG  1  11  -1
M  CHG  1  18   1
M  END
> <s_m_source_file>
AV-unprocessed.smi

> <i_m_source_file_index>
1986

> <i_lp_mmshare_version>
43012

> <i_f3d_flags>
0

> <s_epik_input>
W0NIMl0xW0NIMl1PW0NIMl1bQ0gyXU4xW0NAQF0oW0NIM10pKFtDSDJdW0NIM10pW0NIMl1bTkhdQyg9TylbQ0gyXW4yW25IXWMoPU8pW2NIXVtjSF1jMj1P

> <s_epik_cmdline>
J2VwaWtfcHl0aG9uJywgJy1waCcsICc3LjAnLCAnLXRuJywgJzgnLCAnLW1hJywgJzIwMCcsICctbWV0YWxfYmluZGluZycsICctaW1hZScsICc8aW5maWxlLm1hZT4nLCAnLW9tYWUnLCAnPG91dGZpbGUubWFlPic=

> <r_lp_tautomer_probability>
1

> <r_epik_Ionization_Penalty>
0.604767

> <r_epik_Ionization_Penalty_Charging>
0.604766

> <r_epik_Ionization_Penalty_Neutral>
8.70177e-08

> <r_epik_State_Penalty>
0.54579

> <r_epik_Charging_Adjusted_Penalty>
1.15056

> <i_epik_Tot_Q>
0

> <i_epik_Tot_abs_Q>
2

> <r_epik_Metal_State_Penalty>
0.54579

> <b_epik_Metal_Only>
0

> <s_lp_Force_Field>
OPLS_2005

> <r_lp_Energy>
39.3648

> <b_lp_Chiralities_Consistent>
1

> <s_lp_Variant>
AV-unprocessed.smi:1986-3

> <Gold.Version>
5.8.1

> <Gold.Id.Protein>
6NUR|6NUR_protein|mol2

> <Gold.PLP.Fitness>
43.2447

> <Gold.PLP.PLP>
-27.4084

> <Gold.PLP.part.hbond>
-3.9359

> <Gold.PLP.part.metal>
0.0000

> <Gold.PLP.part.buried>
-4.2900

> <Gold.PLP.part.nonpolar>
-21.1071

> <Gold.PLP.part.repulsive>
0.1279

> <Gold.PLP.ligand.clash>
0.0000

> <Gold.PLP.ligand.torsion>
0.7144

> <Gold.PLP.Chemscore.Hbond>
5.7120

> <Gold.PLP.Chemscore.CHOScore>
0.0000

> <Gold.PLP.Chemscore.Metal>
0.0000

> <Gold.Chemscore.Hbonds>
donor molecule, donor type, donor heavy atom, donor atom, acceptor molecule, acceptor atom, score
      L1  H    18    47       P1  7948  2.00
      P1  H  6931  6943       L1    11  1.79
      P1  H  6934  6947       L1    11  1.70

> <Gold.PLP.Chemscore.Internal.Correction>
0.1290

> <Gold.Rescore>
     Score         DG    S(hbond)    S(metal)    S(lipo)     H(rot)  DE(clash)    DE(int)     intcor
     10.46     -11.08       1.85        0.00      49.60       2.50       0.00       0.63       ----

> <Gold.Chemscore.Fitness>
10.4556

> <Gold.Chemscore.DG>
-11.0841

> <Gold.Chemscore.ZeroCoef>
-5.4800

> <Gold.Chemscore.Hbond>
1.8545

> <Gold.Chemscore.Metal>
0.0000

> <Gold.Chemscore.Lipo>
49.5993

> <Gold.Chemscore.Internal_Hbond>
0.0000

> <Gold.Chemscore.DEClash>
0.0004

> <Gold.Chemscore.DEInternal>
0.6281

> <Gold.Chemscore.Rot>
2.4973

> <Gold.Chemscore.Internal.Correction>
   9.000000E+99

> <Gold.Chemscore.Hbonds>
donor molecule, donor type, donor heavy atom, donor atom, acceptor molecule, acceptor atom, score
      L1  H    18    47       P1  7948  0.97
      P1  H  6931  6943       L1    11  0.35
      P1  H  6934  6947       L1    11  0.16

> <Gold.Chemscore.Hbond.Weighted>
-6.1940

> <Gold.Chemscore.Metal.Weighted>
-0.0000

> <Gold.Chemscore.Lipo.Weighted>
-5.8031

> <Gold.Chemscore.Internal_Hbond.Weighted>
0.0000

> <Gold.Chemscore.DEClash.Weighted>
0.0004

> <Gold.Chemscore.DEInternal.Weighted>
0.6281

> <Gold.Chemscore.Rot.Weighted>
6.3930

> <Gold.Chemscore.Internal.Correction.Weighted>
   9.000000E+99

> <Gold.Protein.RotatedTorsions>
[ 6907 6896 6895 6894 ] final  -52.01 input  -60.11 | X-H torsion
[ 7974 7965 7964 7962 ] final  -26.32 input  175.53 | X-H torsion
[ 8008 7997 7996 7995 ] final -101.43 input   59.86 | X-H torsion
[ 10167 10162 10161 10158 ] final  -48.22 input  -65.29 | X-H torsion
[ 10718 10713 10712 10709 ] final   25.45 input   66.30 | X-H torsion
[ 10763 10752 10751 10750 ] final    2.52 input  -60.55 | X-H torsion
[ 11005 11000 10999 10996 ] final -157.30 input  -57.11 | X-H torsion

> <Gold.Protein.ActiveResidues>
 VAL166  LYS551  ARG553  GLY616  TRP617  ASP618  TYR619  PRO620  LYS621  CYS622 
 ASP623  PHE694  ASN695  SER759  ASP760  ASP761  ALA762  ILE779  LEU786  VAL792 
 PHE793  MET794  SER795  GLU796  ALA797  LYS798  CYS799  TRP800  GLU811  SER814 

> <Gold.Protein.RotatedAtoms>
  150.8557  134.7896  159.7043 H   0  0  0  0  0  0  0  0  0  0  0  0  # atno 6907 bound_to 6896
  152.4609  134.5182  159.9784 H   0  0  0  0  0  0  0  0  0  0  0  0  # atno 6908 bound_to 6896
  151.5294  133.3413  159.2951 H   0  0  0  0  0  0  0  0  0  0  0  0  # atno 6909 bound_to 6896
  146.1433  140.5004  142.8642 H   0  0  0  0  0  0  0  0  0  0  0  0  # atno 7974 bound_to 7965
  154.8425  140.0434  157.1551 H   0  0  0  0  0  0  0  0  0  0  0  0  # atno 8008 bound_to 7997
  154.9031  140.3003  155.5286 H   0  0  0  0  0  0  0  0  0  0  0  0  # atno 8009 bound_to 7997
  156.2993  140.2372  156.4061 H   0  0  0  0  0  0  0  0  0  0  0  0  # atno 8010 bound_to 7997
  140.6741  143.2750  151.4039 H   0  0  0  0  0  0  0  0  0  0  0  0  # atno 10167 bound_to 10162
  157.1935  130.6857  149.6159 H   0  0  0  0  0  0  0  0  0  0  0  0  # atno 10718 bound_to 10713
  153.2945  135.6951  153.7261 H   0  0  0  0  0  0  0  0  0  0  0  0  # atno 10763 bound_to 10752
  153.6199  135.3429  155.3008 H   0  0  0  0  0  0  0  0  0  0  0  0  # atno 10764 bound_to 10752
  154.8533  135.4383  154.2038 H   0  0  0  0  0  0  0  0  0  0  0  0  # atno 10765 bound_to 10752
  140.6661  134.4297  157.5233 H   0  0  0  0  0  0  0  0  0  0  0  0  # atno 11005 bound_to 11000
  144.7817  140.5854  143.6601 LP  0  0  0  0  0  0  0  0  0  0  0  0  # atno 17320 bound_to 7965
  145.4996  139.1484  143.3664 LP  0  0  0  0  0  0  0  0  0  0  0  0  # atno 17321 bound_to 7965
  139.6023  144.1269  152.2212 LP  0  0  0  0  0  0  0  0  0  0  0  0  # atno 17342 bound_to 10162
  140.0657  144.5820  150.7229 LP  0  0  0  0  0  0  0  0  0  0  0  0  # atno 17343 bound_to 10162
  155.9709  130.4606  150.6081 LP  0  0  0  0  0  0  0  0  0  0  0  0  # atno 17370 bound_to 10713
  157.3837  131.0785  151.1454 LP  0  0  0  0  0  0  0  0  0  0  0  0  # atno 17371 bound_to 10713
  139.8997  134.8586  156.1951 LP  0  0  0  0  0  0  0  0  0  0  0  0  # atno 17394 bound_to 11000
  141.0428  133.6929  156.1628 LP  0  0  0  0  0  0  0  0  0  0  0  0  # atno 17395 bound_to 11000

$$$$
