AV-unprocessed.smi:2950|AV-procd|sdf|11288|dock4
  -GOLD-   2272016183D 1   1.00000     0.00000
 Structure written by MMmdl.
 29 30  0  0  0  0  0  0  0  0  1 V2000
  153.1006  137.3854  160.6127 C   0  0  0  0  0  0  0  0  0  0  0  0
  152.1982  137.0801  159.5640 O   0  0  0  0  0  0  0  0  0  0  0  0
  151.5649  138.2347  159.0401 C   0  0  0  0  0  0  0  0  0  0  0  0
  152.6409  139.2014  158.5306 C   0  0  0  0  0  0  0  0  0  0  0  0
  152.0590  140.4418  158.0425 N   0  0  0  0  0  0  0  0  0  0  0  0
  151.2676  140.6258  156.9562 C   0  0  0  0  0  0  0  0  0  0  0  0
  150.8795  139.4774  156.0689 C   0  0  0  0  0  0  0  0  0  0  0  0
  151.0748  139.7248  154.6911 O   0  0  0  0  0  0  0  0  0  0  0  0
  150.8740  141.8828  156.7366 N   0  0  0  0  0  0  0  0  0  0  0  0
  151.4573  142.5736  157.7805 C   0  0  0  0  0  0  0  0  0  0  0  0
  151.4151  143.9472  158.1108 C   0  0  0  0  0  0  0  0  0  0  0  0
  152.0992  144.4296  159.2459 C   0  0  0  0  0  0  0  0  0  0  0  0
  152.8331  143.5477  160.0654 C   0  0  0  0  0  0  0  0  0  0  0  0
  152.8887  142.1754  159.7538 C   0  0  0  0  0  0  0  0  0  0  0  0
  152.2051  141.6996  158.6188 C   0  0  0  0  0  0  0  0  0  0  0  0
  153.5618  136.4678  160.9777 H   0  0  0  0  0  0  0  0  0  0  0  0
  152.5874  137.8603  161.4499 H   0  0  0  0  0  0  0  0  0  0  0  0
  153.8959  138.0476  160.2681 H   0  0  0  0  0  0  0  0  0  0  0  0
  150.8918  137.9547  158.2283 H   0  0  0  0  0  0  0  0  0  0  0  0
  150.9654  138.7153  159.8150 H   0  0  0  0  0  0  0  0  0  0  0  0
  153.3403  139.4394  159.3328 H   0  0  0  0  0  0  0  0  0  0  0  0
  153.2297  138.7385  157.7387 H   0  0  0  0  0  0  0  0  0  0  0  0
  151.4601  138.5995  156.3533 H   0  0  0  0  0  0  0  0  0  0  0  0
  149.8275  139.2385  156.2249 H   0  0  0  0  0  0  0  0  0  0  0  0
  150.3590  139.3371  154.2115 H   0  0  0  0  0  0  0  0  0  0  0  0
  150.8547  144.6300  157.4897 H   0  0  0  0  0  0  0  0  0  0  0  0
  152.0601  145.4813  159.4892 H   0  0  0  0  0  0  0  0  0  0  0  0
  153.3534  143.9257  160.9332 H   0  0  0  0  0  0  0  0  0  0  0  0
  153.4495  141.4973  160.3798 H   0  0  0  0  0  0  0  0  0  0  0  0
  1  2  1  0  0  0  0
  1 16  1  0  0  0  0
  1 17  1  0  0  0  0
  1 18  1  0  0  0  0
  2  3  1  0  0  0  0
  3  4  1  0  0  0  0
  3 19  1  0  0  0  0
  3 20  1  0  0  0  0
  4  5  1  0  0  0  0
  4 21  1  0  0  0  0
  4 22  1  0  0  0  0
  5 15  1  0  0  0  0
  5  6  1  0  0  0  0
  6  7  1  0  0  0  0
  6  9  2  0  0  0  0
  7  8  1  0  0  0  0
  7 23  1  0  0  0  0
  7 24  1  0  0  0  0
  8 25  1  0  0  0  0
  9 10  1  0  0  0  0
 10 15  2  0  0  0  0
 10 11  1  0  0  0  0
 11 12  2  0  0  0  0
 11 26  1  0  0  0  0
 12 13  1  0  0  0  0
 12 27  1  0  0  0  0
 13 14  2  0  0  0  0
 13 28  1  0  0  0  0
 14 15  1  0  0  0  0
 14 29  1  0  0  0  0
M  END
> <s_m_source_file>
AV-unprocessed.smi

> <i_m_source_file_index>
2950

> <i_lp_mmshare_version>
43012

> <i_f3d_flags>
0

> <s_epik_input>
W0NIM11PW0NIMl1bQ0gyXW4oYyhuMSlbQ0gyXVtPSF0pYyhjMTIpW2NIXVtjSF1bY0hdW2NIXTI=

> <s_epik_cmdline>
J2VwaWtfcHl0aG9uJywgJy1waCcsICc3LjAnLCAnLXRuJywgJzgnLCAnLW1hJywgJzIwMCcsICctbWV0YWxfYmluZGluZycsICctaW1hZScsICc8aW5maWxlLm1hZT4nLCAnLW9tYWUnLCAnPG91dGZpbGUubWFlPic=

> <r_epik_Ionization_Penalty>
0.0637339

> <r_epik_Ionization_Penalty_Charging>
0

> <r_epik_Ionization_Penalty_Neutral>
0.0637339

> <r_epik_State_Penalty>
0.0554025

> <r_epik_Charging_Adjusted_Penalty>
0.0554025

> <i_epik_Tot_Q>
0

> <i_epik_Tot_abs_Q>
0

> <r_epik_Metal_State_Penalty>
5.80726e-05

> <b_epik_Metal_Only>
0

> <s_lp_Force_Field>
OPLS_2005

> <r_lp_Energy>
9.41749

> <b_lp_Chiralities_Consistent>
1

> <s_lp_Variant>
AV-unprocessed.smi:2950-1

> <Gold.Version>
5.8.1

> <Gold.Id.Protein>
6NUR|6NUR_protein|mol2

> <Gold.PLP.Fitness>
39.2741

> <Gold.PLP.PLP>
-33.6020

> <Gold.PLP.part.hbond>
-2.0000

> <Gold.PLP.part.metal>
0.0000

> <Gold.PLP.part.buried>
-5.4340

> <Gold.PLP.part.nonpolar>
-27.3641

> <Gold.PLP.part.repulsive>
0.0725

> <Gold.PLP.ligand.clash>
0.0000

> <Gold.PLP.ligand.torsion>
0.1693

> <Gold.PLP.Chemscore.Hbond>
2.0000

> <Gold.PLP.Chemscore.CHOScore>
0.0000

> <Gold.PLP.Chemscore.Metal>
0.0000

> <Gold.Chemscore.Hbonds>
donor molecule, donor type, donor heavy atom, donor atom, acceptor molecule, acceptor atom, score
      P1  H  6896  6907       L1     2  1.00
      P1  H  7989  7998       L1     8  0.95

> <Gold.PLP.Chemscore.Internal.Correction>
0.0108

> <Gold.Rescore>
     Score         DG    S(hbond)    S(metal)    S(lipo)     H(rot)  DE(clash)    DE(int)     intcor
     15.66     -16.11       1.77        0.00      87.31       2.14       0.08       0.37       ----

> <Gold.Chemscore.Fitness>
15.6579

> <Gold.Chemscore.DG>
-16.1070

> <Gold.Chemscore.ZeroCoef>
-5.4800

> <Gold.Chemscore.Hbond>
1.7651

> <Gold.Chemscore.Metal>
0.0000

> <Gold.Chemscore.Lipo>
87.3076

> <Gold.Chemscore.Internal_Hbond>
0.0000

> <Gold.Chemscore.DEClash>
0.0811

> <Gold.Chemscore.DEInternal>
0.3680

> <Gold.Chemscore.Rot>
2.1420

> <Gold.Chemscore.Internal.Correction>
   9.000000E+99

> <Gold.Chemscore.Hbonds>
donor molecule, donor type, donor heavy atom, donor atom, acceptor molecule, acceptor atom, score
      P1  H  6896  6907       L1     2  0.28
      P1  H  7989  7998       L1     8  0.22

> <Gold.Chemscore.Hbond.Weighted>
-5.8954

> <Gold.Chemscore.Metal.Weighted>
-0.0000

> <Gold.Chemscore.Lipo.Weighted>
-10.2150

> <Gold.Chemscore.Internal_Hbond.Weighted>
0.0000

> <Gold.Chemscore.DEClash.Weighted>
0.0811

> <Gold.Chemscore.DEInternal.Weighted>
0.3680

> <Gold.Chemscore.Rot.Weighted>
5.4834

> <Gold.Chemscore.Internal.Correction.Weighted>
   9.000000E+99

> <Gold.Protein.RotatedTorsions>
[ 6907 6896 6895 6894 ] final    9.35 input  -60.11 | X-H torsion
[ 7974 7965 7964 7962 ] final -126.74 input  175.53 | X-H torsion
[ 8008 7997 7996 7995 ] final -139.93 input   59.86 | X-H torsion
[ 10167 10162 10161 10158 ] final   20.80 input  -65.29 | X-H torsion
[ 10718 10713 10712 10709 ] final -128.03 input   66.30 | X-H torsion
[ 10763 10752 10751 10750 ] final  -52.70 input  -60.55 | X-H torsion
[ 11005 11000 10999 10996 ] final  162.38 input  -57.11 | X-H torsion

> <Gold.Protein.ActiveResidues>
 VAL166  LYS551  ARG553  GLY616  TRP617  ASP618  TYR619  PRO620  LYS621  CYS622 
 ASP623  PHE694  ASN695  SER759  ASP760  ASP761  ALA762  ILE779  LEU786  VAL792 
 PHE793  MET794  SER795  GLU796  ALA797  LYS798  CYS799  TRP800  GLU811  SER814 

> <Gold.Protein.RotatedAtoms>
  151.7208  135.0894  160.0283 H   0  0  0  0  0  0  0  0  0  0  0  0  # atno 6907 bound_to 6896
  152.3603  133.6284  159.6018 H   0  0  0  0  0  0  0  0  0  0  0  0  # atno 6908 bound_to 6896
  150.7600  133.9350  159.3480 H   0  0  0  0  0  0  0  0  0  0  0  0  # atno 6909 bound_to 6896
  144.9842  140.7670  143.4594 H   0  0  0  0  0  0  0  0  0  0  0  0  # atno 7974 bound_to 7965
  155.4530  140.0540  157.2999 H   0  0  0  0  0  0  0  0  0  0  0  0  # atno 8008 bound_to 7997
  154.4769  140.2065  155.9812 H   0  0  0  0  0  0  0  0  0  0  0  0  # atno 8009 bound_to 7997
  156.1146  140.3198  155.8125 H   0  0  0  0  0  0  0  0  0  0  0  0  # atno 8010 bound_to 7997
  140.5476  143.9567  150.6557 H   0  0  0  0  0  0  0  0  0  0  0  0  # atno 10167 bound_to 10162
  156.1912  130.6797  151.0427 H   0  0  0  0  0  0  0  0  0  0  0  0  # atno 10718 bound_to 10713
  154.1469  135.6496  153.4955 H   0  0  0  0  0  0  0  0  0  0  0  0  # atno 10763 bound_to 10752
  153.0149  135.5329  154.6847 H   0  0  0  0  0  0  0  0  0  0  0  0  # atno 10764 bound_to 10752
  154.6124  135.2955  155.0388 H   0  0  0  0  0  0  0  0  0  0  0  0  # atno 10765 bound_to 10752
  140.2252  134.8166  157.3261 H   0  0  0  0  0  0  0  0  0  0  0  0  # atno 11005 bound_to 11000
  145.2378  139.2086  143.5009 LP  0  0  0  0  0  0  0  0  0  0  0  0  # atno 17320 bound_to 7965
  146.3416  140.2267  142.8592 LP  0  0  0  0  0  0  0  0  0  0  0  0  # atno 17321 bound_to 7965
  140.2984  143.3277  152.0995 LP  0  0  0  0  0  0  0  0  0  0  0  0  # atno 17342 bound_to 10162
  139.5014  144.6712  151.6238 LP  0  0  0  0  0  0  0  0  0  0  0  0  # atno 17343 bound_to 10162
  157.6930  131.0803  150.7051 LP  0  0  0  0  0  0  0  0  0  0  0  0  # atno 17370 bound_to 10713
  156.7108  130.4651  149.5548 LP  0  0  0  0  0  0  0  0  0  0  0  0  # atno 17371 bound_to 10713
  140.1808  134.4492  155.7773 LP  0  0  0  0  0  0  0  0  0  0  0  0  # atno 17394 bound_to 11000
  141.2221  133.6983  156.7865 LP  0  0  0  0  0  0  0  0  0  0  0  0  # atno 17395 bound_to 11000

$$$$
