AV-unprocessed.smi:3056|AV-procd|sdf|11654|dock1
  -GOLD-   2272017 53D 1   1.00000     0.00000
 Structure written by MMmdl.
 47 48  0  0  0  0  0  0  0  0  1 V2000
  151.5687  145.0638  160.0233 C   0  0  0  0  0  0  0  0  0  0  0  0
  151.7234  143.8209  159.1951 C   0  0  0  0  0  0  0  0  0  0  0  0
  151.3513  143.6273  157.8352 C   0  0  0  0  0  0  0  0  0  0  0  0
  151.6277  142.4114  157.3944 N   0  0  0  0  0  0  0  0  0  0  0  0
  152.1798  141.7811  158.4560 N   0  0  0  0  0  0  0  0  0  0  0  0
  152.6439  140.4015  158.3384 C   0  0  1  0  0  0  0  0  0  0  0  0
  153.1499  139.8982  159.7044 C   0  0  0  0  0  0  0  0  0  0  0  0
  151.5481  139.4925  157.7183 C   0  0  2  0  0  0  0  0  0  0  0  0
  151.1194  139.9367  156.3065 C   0  0  0  0  0  0  0  0  0  0  0  0
  150.3704  139.5321  158.5822 N   0  0  0  0  0  0  0  0  0  0  0  0
  149.3841  138.4939  158.2530 C   0  0  0  0  0  0  0  0  0  0  0  0
  149.4588  137.2760  159.1892 C   0  0  0  0  0  0  0  0  0  0  0  0
  150.5213  137.0245  159.7618 O   0  0  0  0  0  0  0  0  0  0  0  0
  148.3532  136.5115  159.3566 N   0  0  0  0  0  0  0  0  0  0  0  0
  147.0535  136.8372  158.7644 C   0  0  0  0  0  0  0  0  0  0  0  0
  146.0795  137.1695  159.9086 C   0  0  0  0  0  0  0  0  0  0  0  0
  145.9995  136.0658  160.8091 O   0  0  0  0  0  0  0  0  0  0  0  0
  147.2581  135.6989  161.3743 C   0  0  1  0  0  0  0  0  0  0  0  0
  147.0305  134.5241  162.3313 C   0  0  0  0  0  0  0  0  0  0  0  0
  148.2339  135.3437  160.2343 C   0  0  0  0  0  0  0  0  0  0  0  0
  152.2527  142.6135  159.5536 C   0  0  0  0  0  0  0  0  0  0  0  0
  150.5194  145.3136  160.1803 H   0  0  0  0  0  0  0  0  0  0  0  0
  152.0374  145.9250  159.5469 H   0  0  0  0  0  0  0  0  0  0  0  0
  152.0239  144.9554  161.0081 H   0  0  0  0  0  0  0  0  0  0  0  0
  150.8928  144.3326  157.1580 H   0  0  0  0  0  0  0  0  0  0  0  0
  153.5019  140.4129  157.6641 H   0  0  0  0  0  0  0  0  0  0  0  0
  153.6734  138.9471  159.6130 H   0  0  0  0  0  0  0  0  0  0  0  0
  152.3300  139.7610  160.4101 H   0  0  0  0  0  0  0  0  0  0  0  0
  153.8530  140.6062  160.1446 H   0  0  0  0  0  0  0  0  0  0  0  0
  151.9390  138.4747  157.6658 H   0  0  0  0  0  0  0  0  0  0  0  0
  151.9405  139.8531  155.5951 H   0  0  0  0  0  0  0  0  0  0  0  0
  150.7787  140.9726  156.3016 H   0  0  0  0  0  0  0  0  0  0  0  0
  150.3088  139.3202  155.9179 H   0  0  0  0  0  0  0  0  0  0  0  0
  149.9651  140.4572  158.5676 H   0  0  0  0  0  0  0  0  0  0  0  0
  148.3784  138.9121  158.2991 H   0  0  0  0  0  0  0  0  0  0  0  0
  149.5631  138.1568  157.2309 H   0  0  0  0  0  0  0  0  0  0  0  0
  147.1002  137.6719  158.0640 H   0  0  0  0  0  0  0  0  0  0  0  0
  146.6884  135.9824  158.1930 H   0  0  0  0  0  0  0  0  0  0  0  0
  146.4017  138.0635  160.4447 H   0  0  0  0  0  0  0  0  0  0  0  0
  145.0851  137.3752  159.5125 H   0  0  0  0  0  0  0  0  0  0  0  0
  147.6511  136.5426  161.9447 H   0  0  0  0  0  0  0  0  0  0  0  0
  147.9644  134.2143  162.8010 H   0  0  0  0  0  0  0  0  0  0  0  0
  146.6162  133.6623  161.8075 H   0  0  0  0  0  0  0  0  0  0  0  0
  146.3351  134.7978  163.1252 H   0  0  0  0  0  0  0  0  0  0  0  0
  147.8473  134.5019  159.6578 H   0  0  0  0  0  0  0  0  0  0  0  0
  149.1838  135.0045  160.6447 H   0  0  0  0  0  0  0  0  0  0  0  0
  152.6760  142.2820  160.4902 H   0  0  0  0  0  0  0  0  0  0  0  0
  1  2  1  0  0  0  0
  1 22  1  0  0  0  0
  1 23  1  0  0  0  0
  1 24  1  0  0  0  0
  2 21  2  0  0  0  0
  2  3  1  0  0  0  0
  3  4  2  0  0  0  0
  3 25  1  0  0  0  0
  4  5  1  0  0  0  0
  5  6  1  0  0  0  0
  5 21  1  0  0  0  0
  6  7  1  0  0  0  0
  6  8  1  0  0  0  0
  6 26  1  0  0  0  0
  7 27  1  0  0  0  0
  7 28  1  0  0  0  0
  7 29  1  0  0  0  0
  8  9  1  0  0  0  0
  8 10  1  0  0  0  0
  8 30  1  0  0  0  0
  9 31  1  0  0  0  0
  9 32  1  0  0  0  0
  9 33  1  0  0  0  0
 10 11  1  0  0  0  0
 10 34  1  0  0  0  0
 11 12  1  0  0  0  0
 11 35  1  0  0  0  0
 11 36  1  0  0  0  0
 12 13  2  0  0  0  0
 12 14  1  0  0  0  0
 14 20  1  0  0  0  0
 14 15  1  0  0  0  0
 15 16  1  0  0  0  0
 15 37  1  0  0  0  0
 15 38  1  0  0  0  0
 16 17  1  0  0  0  0
 16 39  1  0  0  0  0
 16 40  1  0  0  0  0
 17 18  1  0  0  0  0
 18 19  1  0  0  0  0
 18 20  1  0  0  0  0
 18 41  1  0  0  0  0
 19 42  1  0  0  0  0
 19 43  1  0  0  0  0
 19 44  1  0  0  0  0
 20 45  1  0  0  0  0
 20 46  1  0  0  0  0
 21 47  1  0  0  0  0
M  END
> <s_m_source_file>
AV-unprocessed.smi

> <i_m_source_file_index>
3056

> <i_lp_mmshare_version>
43012

> <i_f3d_flags>
0

> <s_epik_input>
W0NIM11jMVtjSF1ubihbY0hdMSlbQ0BIXShbQ0gzXSlbQ0BIXShbQ0gzXSlbTkhdW0NIMl1DKD1PKU4yW0NIMl1bQ0gyXU9bQ0BASF0oW0NIM10pW0NIMl0y

> <s_epik_cmdline>
J2VwaWtfcHl0aG9uJywgJy1waCcsICc3LjAnLCAnLXRuJywgJzgnLCAnLW1hJywgJzIwMCcsICctbWV0YWxfYmluZGluZycsICctaW1hZScsICc8aW5maWxlLm1hZT4nLCAnLW9tYWUnLCAnPG91dGZpbGUubWFlPic=

> <r_lp_tautomer_probability>
1

> <r_epik_Ionization_Penalty>
0.667689

> <r_epik_Ionization_Penalty_Charging>
0

> <r_epik_Ionization_Penalty_Neutral>
0.667689

> <r_epik_State_Penalty>
0.684601

> <r_epik_Charging_Adjusted_Penalty>
0.684601

> <i_epik_Tot_Q>
0

> <i_epik_Tot_abs_Q>
0

> <r_epik_Metal_State_Penalty>
0.681448

> <b_epik_Metal_Only>
0

> <s_lp_Force_Field>
OPLS_2005

> <r_lp_Energy>
29.4013

> <b_lp_Chiralities_Consistent>
1

> <s_lp_Variant>
AV-unprocessed.smi:3056-10

> <Gold.Version>
5.8.1

> <Gold.Id.Protein>
6NUR|6NUR_protein|mol2

> <Gold.PLP.Fitness>
41.5786

> <Gold.PLP.PLP>
-37.0877

> <Gold.PLP.part.hbond>
-1.2171

> <Gold.PLP.part.metal>
0.0000

> <Gold.PLP.part.buried>
-2.7939

> <Gold.PLP.part.nonpolar>
-33.2200

> <Gold.PLP.part.repulsive>
0.0547

> <Gold.PLP.ligand.clash>
0.0000

> <Gold.PLP.ligand.torsion>
0.8314

> <Gold.PLP.Chemscore.Hbond>
0.9913

> <Gold.PLP.Chemscore.CHOScore>
1.0000

> <Gold.PLP.Chemscore.Metal>
0.0000

> <Gold.Chemscore.Hbonds>
donor molecule, donor type, donor heavy atom, donor atom, acceptor molecule, acceptor atom, score
      P1  H  6896  6907       L1    13  1.00
      L1  C     3    25       P1  8028  1.00

> <Gold.PLP.Chemscore.Internal.Correction>
0.1799

> <Gold.Rescore>
     Score         DG    S(hbond)    S(metal)    S(lipo)     H(rot)  DE(clash)    DE(int)     intcor
     13.98     -16.23       0.98        0.00     100.54       1.68       0.08       2.17       ----

> <Gold.Chemscore.Fitness>
13.9756

> <Gold.Chemscore.DG>
-16.2307

> <Gold.Chemscore.ZeroCoef>
-5.4800

> <Gold.Chemscore.Hbond>
0.9838

> <Gold.Chemscore.Metal>
0.0000

> <Gold.Chemscore.Lipo>
100.5447

> <Gold.Chemscore.Internal_Hbond>
0.0000

> <Gold.Chemscore.DEClash>
0.0811

> <Gold.Chemscore.DEInternal>
2.1740

> <Gold.Chemscore.Rot>
1.6793

> <Gold.Chemscore.Internal.Correction>
   9.000000E+99

> <Gold.Chemscore.Hbonds>
donor molecule, donor type, donor heavy atom, donor atom, acceptor molecule, acceptor atom, score
      P1  H  6896  6907       L1    13  0.91

> <Gold.Chemscore.Hbond.Weighted>
-3.2860

> <Gold.Chemscore.Metal.Weighted>
-0.0000

> <Gold.Chemscore.Lipo.Weighted>
-11.7637

> <Gold.Chemscore.Internal_Hbond.Weighted>
0.0000

> <Gold.Chemscore.DEClash.Weighted>
0.0811

> <Gold.Chemscore.DEInternal.Weighted>
2.1740

> <Gold.Chemscore.Rot.Weighted>
4.2990

> <Gold.Chemscore.Internal.Correction.Weighted>
   9.000000E+99

> <Gold.Protein.RotatedTorsions>
[ 6907 6896 6895 6894 ] final  -23.49 input  -60.11 | X-H torsion
[ 7974 7965 7964 7962 ] final   93.28 input  175.53 | X-H torsion
[ 8008 7997 7996 7995 ] final  143.26 input   59.86 | X-H torsion
[ 10167 10162 10161 10158 ] final   -7.78 input  -65.29 | X-H torsion
[ 10718 10713 10712 10709 ] final  -19.85 input   66.30 | X-H torsion
[ 10763 10752 10751 10750 ] final  -51.03 input  -60.55 | X-H torsion
[ 11005 11000 10999 10996 ] final  -95.30 input  -57.11 | X-H torsion

> <Gold.Protein.ActiveResidues>
 VAL166  LYS551  ARG553  GLY616  TRP617  ASP618  TYR619  PRO620  LYS621  CYS622 
 ASP623  PHE694  ASN695  SER759  ASP760  ASP761  ALA762  ILE779  LEU786  VAL792 
 PHE793  MET794  SER795  GLU796  ALA797  LYS798  CYS799  TRP800  GLU811  SER814 

> <Gold.Protein.RotatedAtoms>
  151.2032  135.0451  159.8880 H   0  0  0  0  0  0  0  0  0  0  0  0  # atno 6907 bound_to 6896
  152.5431  134.0827  159.8252 H   0  0  0  0  0  0  0  0  0  0  0  0  # atno 6908 bound_to 6896
  151.0970  133.5224  159.2644 H   0  0  0  0  0  0  0  0  0  0  0  0  # atno 6909 bound_to 6896
  145.4811  139.2278  143.2882 H   0  0  0  0  0  0  0  0  0  0  0  0  # atno 7974 bound_to 7965
  156.2934  140.2267  156.4862 H   0  0  0  0  0  0  0  0  0  0  0  0  # atno 8008 bound_to 7997
  154.7810  140.0460  157.1148 H   0  0  0  0  0  0  0  0  0  0  0  0  # atno 8009 bound_to 7997
  154.9758  140.3072  155.4971 H   0  0  0  0  0  0  0  0  0  0  0  0  # atno 8010 bound_to 7997
  140.7039  143.6042  150.8768 H   0  0  0  0  0  0  0  0  0  0  0  0  # atno 10167 bound_to 10162
  156.5399  130.4676  149.6504 H   0  0  0  0  0  0  0  0  0  0  0  0  # atno 10718 bound_to 10713
  154.1199  135.6536  153.4901 H   0  0  0  0  0  0  0  0  0  0  0  0  # atno 10763 bound_to 10752
  153.0228  135.5268  154.7107 H   0  0  0  0  0  0  0  0  0  0  0  0  # atno 10764 bound_to 10752
  154.6311  135.2976  155.0185 H   0  0  0  0  0  0  0  0  0  0  0  0  # atno 10765 bound_to 10752
  141.1446  133.8016  157.0416 H   0  0  0  0  0  0  0  0  0  0  0  0  # atno 11005 bound_to 11000
  146.2340  140.5597  142.8963 LP  0  0  0  0  0  0  0  0  0  0  0  0  # atno 17320 bound_to 7965
  144.7888  140.5991  143.6555 LP  0  0  0  0  0  0  0  0  0  0  0  0  # atno 17321 bound_to 7965
  139.9766  143.5998  152.2956 LP  0  0  0  0  0  0  0  0  0  0  0  0  # atno 17342 bound_to 10162
  139.6604  144.7662  151.1975 LP  0  0  0  0  0  0  0  0  0  0  0  0  # atno 17343 bound_to 10162
  156.2981  130.7161  151.2026 LP  0  0  0  0  0  0  0  0  0  0  0  0  # atno 17370 bound_to 10713
  157.7407  131.0513  150.5148 LP  0  0  0  0  0  0  0  0  0  0  0  0  # atno 17371 bound_to 10713
  140.0689  134.9713  157.1433 LP  0  0  0  0  0  0  0  0  0  0  0  0  # atno 17394 bound_to 11000
  140.3739  134.2360  155.7176 LP  0  0  0  0  0  0  0  0  0  0  0  0  # atno 17395 bound_to 11000

$$$$
