AV-unprocessed.smi:102|AV-procd|sdf|967|dock9
  -GOLD-   2262017513D 1   1.00000     0.00000
 Structure written by MMmdl.
 43 44  0  0  0  0  0  0  0  0  2 V2000
  146.9271  140.6723  152.4620 C   0  0  0  0  0  0  0  0  0  0  0  0
  147.2877  141.5890  153.6236 C   0  0  0  0  0  0  0  0  0  0  0  0
  146.4802  142.3991  154.0792 O   0  0  0  0  0  0  0  0  0  0  0  0
  148.5424  141.3987  154.0526 O   0  0  0  0  0  0  0  0  0  0  0  0
  148.9972  142.0569  155.2242 C   0  0  0  0  0  0  0  0  0  0  0  0
  150.4082  141.5742  155.5870 C   0  0  2  0  0  0  0  0  0  0  0  0
  150.5994  140.2264  155.1861 O   0  0  0  0  0  0  0  0  0  0  0  0
  151.5751  139.6338  155.9897 C   0  0  2  0  0  0  0  0  0  0  0  0
  151.0570  138.2806  156.4317 N   0  0  0  0  0  0  0  0  0  0  0  0
  149.9691  138.2015  157.2842 C   0  0  0  0  0  0  0  0  0  0  0  0
  149.4963  137.0121  157.7071 C   0  0  0  0  0  0  0  0  0  0  0  0
  148.4404  136.9689  158.5378 F   0  0  0  0  0  0  0  0  0  0  0  0
  150.1420  135.7789  157.2614 C   0  0  0  0  0  0  0  0  0  0  0  0
  149.7010  134.6958  157.6421 O   0  0  0  0  0  0  0  0  0  0  0  0
  151.2220  135.8873  156.4338 N   0  5  0  0  0  0  0  0  0  0  0  0
  151.7107  137.0902  156.0110 C   0  0  0  0  0  0  0  0  0  0  0  0
  152.7030  137.1949  155.2901 O   0  0  0  0  0  0  0  0  0  0  0  0
  151.8656  140.5746  157.1819 C   0  0  2  0  0  0  0  0  0  0  0  0
  151.8193  139.8954  158.4333 O   0  0  0  0  0  0  0  0  0  0  0  0
  152.7775  139.0180  158.7687 C   0  0  0  0  0  0  0  0  0  0  0  0
  152.2579  137.9204  159.6874 C   0  0  0  0  0  0  0  0  0  0  0  0
  153.9542  139.0532  158.4085 O   0  0  0  0  0  0  0  0  0  0  0  0
  150.7457  141.5984  157.0791 C   0  0  1  0  0  0  0  0  0  0  0  0
  151.2237  142.8747  157.4827 O   0  0  0  0  0  0  0  0  0  0  0  0
  151.4020  143.1495  158.7858 C   0  0  0  0  0  0  0  0  0  0  0  0
  151.9735  144.5428  159.0112 C   0  0  0  0  0  0  0  0  0  0  0  0
  151.1458  142.4000  159.7282 O   0  0  0  0  0  0  0  0  0  0  0  0
  147.4021  139.6979  152.5803 H   0  0  0  0  0  0  0  0  0  0  0  0
  147.2621  141.1083  151.5207 H   0  0  0  0  0  0  0  0  0  0  0  0
  145.8481  140.5259  152.4121 H   0  0  0  0  0  0  0  0  0  0  0  0
  148.9943  143.1360  155.0672 H   0  0  0  0  0  0  0  0  0  0  0  0
  148.3174  141.8460  156.0510 H   0  0  0  0  0  0  0  0  0  0  0  0
  151.1431  142.1699  155.0428 H   0  0  0  0  0  0  0  0  0  0  0  0
  152.4552  139.4549  155.3717 H   0  0  0  0  0  0  0  0  0  0  0  0
  149.4909  139.1060  157.6278 H   0  0  0  0  0  0  0  0  0  0  0  0
  152.8370  141.0373  156.9996 H   0  0  0  0  0  0  0  0  0  0  0  0
  152.0055  138.3340  160.6638 H   0  0  0  0  0  0  0  0  0  0  0  0
  153.0120  137.1449  159.8235 H   0  0  0  0  0  0  0  0  0  0  0  0
  151.3640  137.4626  159.2629 H   0  0  0  0  0  0  0  0  0  0  0  0
  149.8972  141.2566  157.6742 H   0  0  0  0  0  0  0  0  0  0  0  0
  151.1990  145.2961  158.8666 H   0  0  0  0  0  0  0  0  0  0  0  0
  152.7851  144.7398  158.3105 H   0  0  0  0  0  0  0  0  0  0  0  0
  152.3628  144.6369  160.0253 H   0  0  0  0  0  0  0  0  0  0  0  0
  1  2  1  0  0  0  0
  1 28  1  0  0  0  0
  1 29  1  0  0  0  0
  1 30  1  0  0  0  0
  2  3  2  0  0  0  0
  2  4  1  0  0  0  0
  4  5  1  0  0  0  0
  5  6  1  0  0  0  0
  5 31  1  0  0  0  0
  5 32  1  0  0  0  0
  6 23  1  0  0  0  0
  6  7  1  0  0  0  0
  6 33  1  0  0  0  0
  7  8  1  0  0  0  0
  8  9  1  0  0  0  0
  8 18  1  0  0  0  0
  8 34  1  0  0  0  0
  9 16  1  0  0  0  0
  9 10  1  0  0  0  0
 10 11  2  0  0  0  0
 10 35  1  0  0  0  0
 11 12  1  0  0  0  0
 11 13  1  0  0  0  0
 13 14  2  0  0  0  0
 13 15  1  0  0  0  0
 15 16  1  0  0  0  0
 16 17  2  0  0  0  0
 18 19  1  0  0  0  0
 18 23  1  0  0  0  0
 18 36  1  0  0  0  0
 19 20  1  0  0  0  0
 20 21  1  0  0  0  0
 20 22  2  0  0  0  0
 21 37  1  0  0  0  0
 21 38  1  0  0  0  0
 21 39  1  0  0  0  0
 23 24  1  0  0  0  0
 23 40  1  0  0  0  0
 24 25  1  0  0  0  0
 25 26  1  0  0  0  0
 25 27  2  0  0  0  0
 26 41  1  0  0  0  0
 26 42  1  0  0  0  0
 26 43  1  0  0  0  0
M  CHG  1  15  -1
M  END
> <s_m_source_file>
AV-unprocessed.smi

> <i_m_source_file_index>
102

> <i_lp_mmshare_version>
43012

> <i_f3d_flags>
0

> <s_epik_input>
W0NIM11DKD1PKU9bQ0gyXVtDQEBIXTFPW0NASF0oW0NAQEhdKE9DKD1PKVtDSDNdKVtDQEhdMU9DKD1PKVtDSDNdKW4yW2NIXWMoRiljKD1PKVtuSF1jMj1P

> <s_epik_cmdline>
J2VwaWtfcHl0aG9uJywgJy1waCcsICc3LjAnLCAnLXRuJywgJzgnLCAnLW1hJywgJzIwMCcsICctbWV0YWxfYmluZGluZycsICctaW1hZScsICc8aW5maWxlLm1hZT4nLCAnLW9tYWUnLCAnPG91dGZpbGUubWFlPic=

> <r_epik_Ionization_Penalty>
1.40304

> <r_epik_Ionization_Penalty_Charging>
1.43915e-08

> <r_epik_Ionization_Penalty_Neutral>
1.40304

> <r_epik_State_Penalty>
1.48536

> <r_epik_Charging_Adjusted_Penalty>
1.48536

> <i_epik_Tot_Q>
-1

> <i_epik_Tot_abs_Q>
1

> <r_epik_Metal_State_Penalty>
0.00663881

> <b_epik_Metal_Only>
0

> <s_epik_Chemistry_Notes>
This compound has an ester and may undergo hydrolysis at high or low pH. This compound contains an acetal/aminal-like group ( X-CH(R)-Y where X, Y are N, S, or O) that may be acid/base labile, releasing an aldehyde.

> <s_lp_Force_Field>
OPLS_2005

> <r_lp_Energy>
21.6407

> <b_lp_Chiralities_Consistent>
1

> <s_lp_Variant>
AV-unprocessed.smi:102-23

> <Gold.Version>
5.8.1

> <Gold.Id.Protein>
6NUR|6NUR_protein|mol2

> <Gold.PLP.Fitness>
42.1889

> <Gold.PLP.PLP>
-34.9150

> <Gold.PLP.part.hbond>
-5.1771

> <Gold.PLP.part.metal>
0.0000

> <Gold.PLP.part.buried>
-2.7593

> <Gold.PLP.part.nonpolar>
-26.7356

> <Gold.PLP.part.repulsive>
0.5439

> <Gold.PLP.ligand.clash>
0.0000

> <Gold.PLP.ligand.torsion>
0.9967

> <Gold.PLP.Chemscore.Hbond>
3.0573

> <Gold.PLP.Chemscore.CHOScore>
0.0000

> <Gold.PLP.Chemscore.Metal>
0.0000

> <Gold.Chemscore.Hbonds>
donor molecule, donor type, donor heavy atom, donor atom, acceptor molecule, acceptor atom, score
      P1  H  6896  6908       L1    14  0.97
      P1  H  7989  7998       L1     7  0.44
      P1  H  7997  8009       L1    22  1.00
      P1  H 10752 10764       L1    17  0.53

> <Gold.PLP.Chemscore.Internal.Correction>
0.0955

> <Gold.Rescore>
     Score         DG    S(hbond)    S(metal)    S(lipo)     H(rot)  DE(clash)    DE(int)     intcor
      6.79     -10.89       2.52        0.00      61.85       4.00       1.60       2.50       ----

> <Gold.Chemscore.Fitness>
6.7919

> <Gold.Chemscore.DG>
-10.8897

> <Gold.Chemscore.ZeroCoef>
-5.4800

> <Gold.Chemscore.Hbond>
2.5152

> <Gold.Chemscore.Metal>
0.0000

> <Gold.Chemscore.Lipo>
61.8486

> <Gold.Chemscore.Internal_Hbond>
0.0000

> <Gold.Chemscore.DEClash>
1.5992

> <Gold.Chemscore.DEInternal>
2.4985

> <Gold.Chemscore.Rot>
3.9951

> <Gold.Chemscore.Internal.Correction>
   9.000000E+99

> <Gold.Chemscore.Hbonds>
donor molecule, donor type, donor heavy atom, donor atom, acceptor molecule, acceptor atom, score
      P1  H  6896  6908       L1    14  0.48
      P1  H  7989  7998       L1     7  0.01
      P1  H  7997  8009       L1    22  1.00
      P1  H 10752 10764       L1    17  0.21

> <Gold.Chemscore.Hbond.Weighted>
-8.4008

> <Gold.Chemscore.Metal.Weighted>
-0.0000

> <Gold.Chemscore.Lipo.Weighted>
-7.2363

> <Gold.Chemscore.Internal_Hbond.Weighted>
0.0000

> <Gold.Chemscore.DEClash.Weighted>
1.5992

> <Gold.Chemscore.DEInternal.Weighted>
2.4985

> <Gold.Chemscore.Rot.Weighted>
10.2274

> <Gold.Chemscore.Internal.Correction.Weighted>
   9.000000E+99

> <Gold.Protein.RotatedTorsions>
[ 6907 6896 6895 6894 ] final  150.83 input  -60.11 | X-H torsion
[ 7974 7965 7964 7962 ] final  -20.62 input  175.53 | X-H torsion
[ 8008 7997 7996 7995 ] final  147.01 input   59.86 | X-H torsion
[ 10167 10162 10161 10158 ] final   -4.76 input  -65.29 | X-H torsion
[ 10718 10713 10712 10709 ] final  -31.11 input   66.30 | X-H torsion
[ 10763 10752 10751 10750 ] final  -41.56 input  -60.55 | X-H torsion
[ 11005 11000 10999 10996 ] final -137.20 input  -57.11 | X-H torsion

> <Gold.Protein.ActiveResidues>
 VAL166  LYS551  ARG553  GLY616  TRP617  ASP618  TYR619  PRO620  LYS621  CYS622 
 ASP623  PHE694  ASN695  SER759  ASP760  ASP761  ALA762  ILE779  LEU786  VAL792 
 PHE793  MET794  SER795  GLU796  ALA797  LYS798  CYS799  TRP800  GLU811  SER814 

> <Gold.Protein.RotatedAtoms>
  152.1090  133.4290  159.4622 H   0  0  0  0  0  0  0  0  0  0  0  0  # atno 6907 bound_to 6896
  150.6866  134.2670  159.4582 H   0  0  0  0  0  0  0  0  0  0  0  0  # atno 6908 bound_to 6896
  152.0537  134.9637  160.0625 H   0  0  0  0  0  0  0  0  0  0  0  0  # atno 6909 bound_to 6896
  146.1778  140.4227  142.8506 H   0  0  0  0  0  0  0  0  0  0  0  0  # atno 7974 bound_to 7965
  156.2838  140.2167  156.5469 H   0  0  0  0  0  0  0  0  0  0  0  0  # atno 8008 bound_to 7997
  154.7323  140.0494  157.0760 H   0  0  0  0  0  0  0  0  0  0  0  0  # atno 8009 bound_to 7997
  155.0337  140.3138  155.4752 H   0  0  0  0  0  0  0  0  0  0  0  0  # atno 8010 bound_to 7997
  140.6939  143.6386  150.8456 H   0  0  0  0  0  0  0  0  0  0  0  0  # atno 10167 bound_to 10162
  156.3913  130.4373  149.7392 H   0  0  0  0  0  0  0  0  0  0  0  0  # atno 10718 bound_to 10713
  153.9646  135.6735  153.4746 H   0  0  0  0  0  0  0  0  0  0  0  0  # atno 10763 bound_to 10752
  153.0822  135.4917  154.8522 H   0  0  0  0  0  0  0  0  0  0  0  0  # atno 10764 bound_to 10752
  154.7254  135.3126  154.8940 H   0  0  0  0  0  0  0  0  0  0  0  0  # atno 10765 bound_to 10752
  140.8733  134.2023  157.4637 H   0  0  0  0  0  0  0  0  0  0  0  0  # atno 11005 bound_to 11000
  144.8265  140.6636  143.6319 LP  0  0  0  0  0  0  0  0  0  0  0  0  # atno 17320 bound_to 7965
  145.4162  139.1571  143.4099 LP  0  0  0  0  0  0  0  0  0  0  0  0  # atno 17321 bound_to 7965
  140.0102  143.5651  152.2842 LP  0  0  0  0  0  0  0  0  0  0  0  0  # atno 17342 bound_to 10162
  139.6372  144.7651  151.2414 LP  0  0  0  0  0  0  0  0  0  0  0  0  # atno 17343 bound_to 10162
  156.4444  130.7877  151.2898 LP  0  0  0  0  0  0  0  0  0  0  0  0  # atno 17370 bound_to 10713
  157.7499  131.0115  150.3346 LP  0  0  0  0  0  0  0  0  0  0  0  0  # atno 17371 bound_to 10713
  139.8714  134.9784  156.4997 LP  0  0  0  0  0  0  0  0  0  0  0  0  # atno 17394 bound_to 11000
  140.8547  133.8105  155.9204 LP  0  0  0  0  0  0  0  0  0  0  0  0  # atno 17395 bound_to 11000

$$$$
