AV-unprocessed.smi:281|AV-procd|sdf|2116|dock2
  -GOLD-   2262021413D 1   1.00000     0.00000
 Structure written by MMmdl.
 55 59  0  0  0  0  0  0  0  0  1 V2000
  149.6357  137.2656  159.1827 C   0  0  0  0  0  0  0  0  0  0  0  0
  149.7687  136.9862  157.6825 C   0  0  1  0  0  0  0  0  0  0  0  0
  148.4954  136.3556  157.0977 C   0  0  0  0  0  0  0  0  0  0  0  0
  148.6484  136.2044  155.6588 N   0  0  0  0  0  0  0  0  0  0  0  0
  147.6902  135.4791  155.0459 C   0  0  0  0  0  0  0  0  0  0  0  0
  146.4057  135.8502  155.2667 N   0  0  0  0  0  0  0  0  0  0  0  0
  145.4068  135.1677  154.6988 C   0  0  0  0  0  0  0  0  0  0  0  0
  145.4729  134.1025  153.8972 N   0  0  0  0  0  0  0  0  0  0  0  0
  146.7652  133.7238  153.6788 C   0  0  0  0  0  0  0  0  0  0  0  0
  147.9270  134.3483  154.2136 C   0  0  0  0  0  0  0  0  0  0  0  0
  149.0651  133.6728  153.7895 N   0  0  0  0  0  0  0  0  0  0  0  0
  148.6028  132.7088  153.0414 C   0  0  0  0  0  0  0  0  0  0  0  0
  147.2326  132.6707  152.9111 N   0  0  0  0  0  0  0  0  0  0  0  0
  146.4532  131.7095  152.1454 C   0  0  0  0  0  0  0  0  0  0  0  0
  145.7731  132.3122  150.8916 C   0  0  2  0  0  0  0  0  0  0  0  0
  146.7498  132.5099  149.8861 O   0  0  0  0  0  0  0  0  0  0  0  0
  145.0871  133.6472  151.1893 C   0  0  0  0  0  0  0  0  0  0  0  0
  143.6033  133.3037  151.1504 C   0  0  0  0  0  0  0  0  0  0  0  0
  143.5412  132.3280  150.1260 O   0  0  0  0  0  0  0  0  0  0  0  0
  144.6321  131.4411  150.3273 C   0  0  0  0  0  0  0  0  0  0  0  0
  148.9357  137.4627  154.9860 C   0  0  0  0  0  0  0  0  0  0  0  0
  150.1800  138.1459  155.6004 C   0  0  1  0  0  0  0  0  0  0  0  0
  151.4991  137.4478  155.2409 C   0  0  0  0  0  0  0  0  0  0  0  0
  152.1593  138.3812  154.2355 C   0  0  0  0  0  0  0  0  0  0  0  0
  151.7558  139.6577  154.6935 O   0  0  0  0  0  0  0  0  0  0  0  0
  150.3741  139.5631  155.0073 C   0  0  2  0  0  0  0  0  0  0  0  0
  149.9484  140.7330  155.9062 C   0  0  0  0  0  0  0  0  0  0  0  0
  150.0230  138.2279  157.0237 O   0  0  0  0  0  0  0  0  0  0  0  0
  149.4480  136.3467  159.7385 H   0  0  0  0  0  0  0  0  0  0  0  0
  148.8139  137.9536  159.3842 H   0  0  0  0  0  0  0  0  0  0  0  0
  150.5484  137.7123  159.5775 H   0  0  0  0  0  0  0  0  0  0  0  0
  150.6098  136.3086  157.5330 H   0  0  0  0  0  0  0  0  0  0  0  0
  148.3091  135.3834  157.5560 H   0  0  0  0  0  0  0  0  0  0  0  0
  147.6372  136.9908  157.3187 H   0  0  0  0  0  0  0  0  0  0  0  0
  144.4120  135.5258  154.9191 H   0  0  0  0  0  0  0  0  0  0  0  0
  149.2558  131.9941  152.5618 H   0  0  0  0  0  0  0  0  0  0  0  0
  147.1139  130.8914  151.8555 H   0  0  0  0  0  0  0  0  0  0  0  0
  145.7037  131.2744  152.8082 H   0  0  0  0  0  0  0  0  0  0  0  0
  147.5092  131.9896  150.0998 H   0  0  0  0  0  0  0  0  0  0  0  0
  145.3867  134.0890  152.1403 H   0  0  0  0  0  0  0  0  0  0  0  0
  145.2994  134.3798  150.4087 H   0  0  0  0  0  0  0  0  0  0  0  0
  143.2748  132.8693  152.0960 H   0  0  0  0  0  0  0  0  0  0  0  0
  142.9754  134.1665  150.9268 H   0  0  0  0  0  0  0  0  0  0  0  0
  144.8947  130.9183  149.4066 H   0  0  0  0  0  0  0  0  0  0  0  0
  144.3131  130.6914  151.0518 H   0  0  0  0  0  0  0  0  0  0  0  0
  149.0867  137.2906  153.9191 H   0  0  0  0  0  0  0  0  0  0  0  0
  148.0698  138.1196  155.0825 H   0  0  0  0  0  0  0  0  0  0  0  0
  152.1423  137.3798  156.1191 H   0  0  0  0  0  0  0  0  0  0  0  0
  151.3688  136.4384  154.8493 H   0  0  0  0  0  0  0  0  0  0  0  0
  153.2447  138.2818  154.2167 H   0  0  0  0  0  0  0  0  0  0  0  0
  151.7768  138.2099  153.2281 H   0  0  0  0  0  0  0  0  0  0  0  0
  149.8340  139.6389  154.0615 H   0  0  0  0  0  0  0  0  0  0  0  0
  148.8928  140.6601  156.1693 H   0  0  0  0  0  0  0  0  0  0  0  0
  150.0996  141.6855  155.3981 H   0  0  0  0  0  0  0  0  0  0  0  0
  150.5265  140.7583  156.8303 H   0  0  0  0  0  0  0  0  0  0  0  0
  1  2  1  0  0  0  0
  1 29  1  0  0  0  0
  1 30  1  0  0  0  0
  1 31  1  0  0  0  0
  2 28  1  0  0  0  0
  2  3  1  0  0  0  0
  2 32  1  0  0  0  0
  3  4  1  0  0  0  0
  3 33  1  0  0  0  0
  3 34  1  0  0  0  0
  4  5  1  0  0  0  0
  4 21  1  0  0  0  0
  5 10  1  0  0  0  0
  5  6  2  0  0  0  0
  6  7  1  0  0  0  0
  7  8  2  0  0  0  0
  7 35  1  0  0  0  0
  8  9  1  0  0  0  0
  9 13  1  0  0  0  0
  9 10  2  0  0  0  0
 10 11  1  0  0  0  0
 11 12  2  0  0  0  0
 12 13  1  0  0  0  0
 12 36  1  0  0  0  0
 13 14  1  0  0  0  0
 14 15  1  0  0  0  0
 14 37  1  0  0  0  0
 14 38  1  0  0  0  0
 15 20  1  0  0  0  0
 15 16  1  0  0  0  0
 15 17  1  0  0  0  0
 16 39  1  0  0  0  0
 17 18  1  0  0  0  0
 17 40  1  0  0  0  0
 17 41  1  0  0  0  0
 18 19  1  0  0  0  0
 18 42  1  0  0  0  0
 18 43  1  0  0  0  0
 19 20  1  0  0  0  0
 20 44  1  0  0  0  0
 20 45  1  0  0  0  0
 21 22  1  0  0  0  0
 21 46  1  0  0  0  0
 21 47  1  0  0  0  0
 22 26  1  0  0  0  0
 22 23  1  0  0  0  0
 22 28  1  0  0  0  0
 23 24  1  0  0  0  0
 23 48  1  0  0  0  0
 23 49  1  0  0  0  0
 24 25  1  0  0  0  0
 24 50  1  0  0  0  0
 24 51  1  0  0  0  0
 25 26  1  0  0  0  0
 26 27  1  0  0  0  0
 26 52  1  0  0  0  0
 27 53  1  0  0  0  0
 27 54  1  0  0  0  0
 27 55  1  0  0  0  0
M  END
> <s_m_source_file>
AV-unprocessed.smi

> <i_m_source_file_index>
281

> <i_lp_mmshare_version>
43012

> <i_f3d_flags>
0

> <s_epik_input>
W0NIM11bQ0BASF0xT1tDSDJdW0NIMl1bQ0BAXTEyW0NIMl1OKFtDSDJdW0NASF0oTzIpW0NIM10pYyhuW2NIXW4zKWMoYzM0KW5bY0hdbjRbQ0gyXVtDQEBdNShbT0hdKVtDSDJdW0NIMl1PW0NIMl01

> <s_epik_cmdline>
J2VwaWtfcHl0aG9uJywgJy1waCcsICc3LjAnLCAnLXRuJywgJzgnLCAnLW1hJywgJzIwMCcsICctbWV0YWxfYmluZGluZycsICctaW1hZScsICc8aW5maWxlLm1hZT4nLCAnLW9tYWUnLCAnPG91dGZpbGUubWFlPic=

> <r_lp_tautomer_probability>
1

> <r_epik_Ionization_Penalty>
0.00571331

> <r_epik_Ionization_Penalty_Charging>
0

> <r_epik_Ionization_Penalty_Neutral>
0.00571331

> <r_epik_State_Penalty>
0.00399586

> <r_epik_Charging_Adjusted_Penalty>
0.00399586

> <i_epik_Tot_Q>
0

> <i_epik_Tot_abs_Q>
0

> <r_epik_Metal_State_Penalty>
-0

> <b_epik_Metal_Only>
0

> <s_lp_Force_Field>
OPLS_2005

> <r_lp_Energy>
55.1206

> <b_lp_Chiralities_Consistent>
1

> <s_lp_Variant>
AV-unprocessed.smi:281-16

> <Gold.Version>
5.8.1

> <Gold.Id.Protein>
6NUR|6NUR_protein|mol2

> <Gold.PLP.Fitness>
43.0909

> <Gold.PLP.PLP>
-35.1284

> <Gold.PLP.part.hbond>
-2.2599

> <Gold.PLP.part.metal>
0.0000

> <Gold.PLP.part.buried>
-6.7979

> <Gold.PLP.part.nonpolar>
-26.9756

> <Gold.PLP.part.repulsive>
0.6503

> <Gold.PLP.ligand.clash>
0.0000

> <Gold.PLP.ligand.torsion>
0.5599

> <Gold.PLP.Chemscore.Hbond>
2.0000

> <Gold.PLP.Chemscore.CHOScore>
0.9704

> <Gold.PLP.Chemscore.Metal>
0.0000

> <Gold.Chemscore.Hbonds>
donor molecule, donor type, donor heavy atom, donor atom, acceptor molecule, acceptor atom, score
      L1  H    16    39       P1 10747  1.00
      P1  H  7989  7998       L1    25  0.95
      L1  C    12    36       P1 10747  0.98

> <Gold.PLP.Chemscore.Internal.Correction>
0.1710

> <Gold.Rescore>
     Score         DG    S(hbond)    S(metal)    S(lipo)     H(rot)  DE(clash)    DE(int)     intcor
     13.57     -14.34       1.25        0.00      85.88       2.09       0.17       0.60       ----

> <Gold.Chemscore.Fitness>
13.5655

> <Gold.Chemscore.DG>
-14.3364

> <Gold.Chemscore.ZeroCoef>
-5.4800

> <Gold.Chemscore.Hbond>
1.2474

> <Gold.Chemscore.Metal>
0.0000

> <Gold.Chemscore.Lipo>
85.8758

> <Gold.Chemscore.Internal_Hbond>
0.0000

> <Gold.Chemscore.DEClash>
0.1739

> <Gold.Chemscore.DEInternal>
0.5970

> <Gold.Chemscore.Rot>
2.0927

> <Gold.Chemscore.Internal.Correction>
   9.000000E+99

> <Gold.Chemscore.Hbonds>
donor molecule, donor type, donor heavy atom, donor atom, acceptor molecule, acceptor atom, score
      L1  H    16    39       P1 10747  1.00
      P1  H  7989  7998       L1    25  0.19

> <Gold.Chemscore.Hbond.Weighted>
-4.1663

> <Gold.Chemscore.Metal.Weighted>
-0.0000

> <Gold.Chemscore.Lipo.Weighted>
-10.0475

> <Gold.Chemscore.Internal_Hbond.Weighted>
0.0000

> <Gold.Chemscore.DEClash.Weighted>
0.1739

> <Gold.Chemscore.DEInternal.Weighted>
0.5970

> <Gold.Chemscore.Rot.Weighted>
5.3573

> <Gold.Chemscore.Internal.Correction.Weighted>
   9.000000E+99

> <Gold.Protein.RotatedTorsions>
[ 6907 6896 6895 6894 ] final  -28.74 input  -60.11 | X-H torsion
[ 7974 7965 7964 7962 ] final -158.66 input  175.53 | X-H torsion
[ 8008 7997 7996 7995 ] final  136.64 input   59.86 | X-H torsion
[ 10167 10162 10161 10158 ] final -111.40 input  -65.29 | X-H torsion
[ 10718 10713 10712 10709 ] final  -69.67 input   66.30 | X-H torsion
[ 10763 10752 10751 10750 ] final  -44.99 input  -60.55 | X-H torsion
[ 11005 11000 10999 10996 ] final -159.23 input  -57.11 | X-H torsion

> <Gold.Protein.ActiveResidues>
 VAL166  LYS551  ARG553  GLY616  TRP617  ASP618  TYR619  PRO620  LYS621  CYS622 
 ASP623  PHE694  ASN695  SER759  ASP760  ASP761  ALA762  ILE779  LEU786  VAL792 
 PHE793  MET794  SER795  GLU796  ALA797  LYS798  CYS799  TRP800  GLU811  SER814 

> <Gold.Protein.RotatedAtoms>
  151.1287  135.0119  159.8572 H   0  0  0  0  0  0  0  0  0  0  0  0  # atno 6907 bound_to 6896
  152.5450  134.1636  159.8578 H   0  0  0  0  0  0  0  0  0  0  0  0  # atno 6908 bound_to 6896
  151.1700  133.4745  159.2627 H   0  0  0  0  0  0  0  0  0  0  0  0  # atno 6909 bound_to 6896
  144.7497  140.3796  143.6058 H   0  0  0  0  0  0  0  0  0  0  0  0  # atno 7974 bound_to 7965
  156.3004  140.2440  156.3778 H   0  0  0  0  0  0  0  0  0  0  0  0  # atno 8008 bound_to 7997
  154.8729  140.0415  157.1755 H   0  0  0  0  0  0  0  0  0  0  0  0  # atno 8009 bound_to 7997
  154.8776  140.2944  155.5448 H   0  0  0  0  0  0  0  0  0  0  0  0  # atno 8010 bound_to 7997
  140.1340  143.4336  152.1608 H   0  0  0  0  0  0  0  0  0  0  0  0  # atno 10167 bound_to 10162
  156.0444  130.4317  150.2182 H   0  0  0  0  0  0  0  0  0  0  0  0  # atno 10718 bound_to 10713
  154.0211  135.6669  153.4772 H   0  0  0  0  0  0  0  0  0  0  0  0  # atno 10763 bound_to 10752
  153.0579  135.5045  154.8022 H   0  0  0  0  0  0  0  0  0  0  0  0  # atno 10764 bound_to 10752
  154.6936  135.3066  154.9408 H   0  0  0  0  0  0  0  0  0  0  0  0  # atno 10765 bound_to 10752
  140.6448  134.4513  157.5234 H   0  0  0  0  0  0  0  0  0  0  0  0  # atno 11005 bound_to 11000
  145.6991  139.1657  143.2603 LP  0  0  0  0  0  0  0  0  0  0  0  0  # atno 17320 bound_to 7965
  146.1428  140.7034  142.9359 LP  0  0  0  0  0  0  0  0  0  0  0  0  # atno 17321 bound_to 7965
  139.5505  144.7334  151.4449 LP  0  0  0  0  0  0  0  0  0  0  0  0  # atno 17342 bound_to 10162
  140.6800  143.8103  150.7109 LP  0  0  0  0  0  0  0  0  0  0  0  0  # atno 17343 bound_to 10162
  157.0273  130.9997  151.3322 LP  0  0  0  0  0  0  0  0  0  0  0  0  # atno 17370 bound_to 10713
  157.5302  130.8053  149.7908 LP  0  0  0  0  0  0  0  0  0  0  0  0  # atno 17371 bound_to 10713
  139.9067  134.8434  156.1680 LP  0  0  0  0  0  0  0  0  0  0  0  0  # atno 17394 bound_to 11000
  141.0580  133.6855  156.1898 LP  0  0  0  0  0  0  0  0  0  0  0  0  # atno 17395 bound_to 11000

$$$$
