AV-unprocessed.smi:1005|AV-procd|sdf|4368|dock1
  -GOLD-   22720 2273D 1   1.00000     0.00000
 Structure written by MMmdl.
 57 59  0  0  0  0  0  0  0  0  3 V2000
  153.1707  142.8359  160.3093 C   0  0  0  0  0  0  0  0  0  0  0  0
  152.3629  142.4157  159.0940 C   0  0  0  0  0  0  0  0  0  0  0  0
  152.2141  141.0394  158.8102 C   0  0  0  0  0  0  0  0  0  0  0  0
  151.4717  140.6073  157.6895 C   0  0  0  0  0  0  0  0  0  0  0  0
  151.2025  139.3305  157.2270 N   0  0  0  0  0  0  0  0  0  0  0  0
  150.4661  139.5847  156.1498 C   0  0  0  0  0  0  0  0  0  0  0  0
  150.2286  140.8775  155.8560 N   0  0  0  0  0  0  0  0  0  0  0  0
  149.4604  141.3916  154.7360 C   0  0  0  0  0  0  0  0  0  0  0  0
  148.0575  140.7611  154.6455 C   0  0  2  0  0  0  0  0  0  0  0  0
  148.0388  139.8060  153.6021 O   0  0  0  0  0  0  0  0  0  0  0  0
  146.9750  141.8202  154.3587 C   0  0  0  0  0  0  0  0  0  0  0  0
  146.7029  142.6872  155.5372 N   0  3  2  0  0  0  0  0  0  0  0  0
  146.5669  141.9388  156.8100 C   0  0  0  0  0  0  0  0  0  0  0  0
  145.1794  141.2853  156.9240 C   0  0  0  0  0  0  0  0  0  0  0  0
  144.1774  142.2886  156.8086 O   0  0  0  0  0  0  0  0  0  0  0  0
  144.2017  142.9455  155.5452 C   0  0  1  0  0  0  0  0  0  0  0  0
  143.0472  143.9655  155.5188 C   0  0  0  0  0  0  0  0  0  0  0  0
  142.8037  144.5307  154.1665 N   0  3  0  0  0  0  0  0  0  0  0  0
  143.8607  145.4675  153.7187 C   0  0  0  0  0  0  0  0  0  0  0  0
  141.4593  145.1391  154.0531 C   0  0  0  0  0  0  0  0  0  0  0  0
  145.5732  143.6380  155.3678 C   0  0  0  0  0  0  0  0  0  0  0  0
  150.8765  141.5975  156.8544 C   0  0  0  0  0  0  0  0  0  0  0  0
  151.0178  142.9698  157.1260 C   0  0  0  0  0  0  0  0  0  0  0  0
  151.7630  143.3844  158.2497 C   0  0  0  0  0  0  0  0  0  0  0  0
  151.9099  144.8687  158.5345 C   0  0  0  0  0  0  0  0  0  0  0  0
  153.5589  141.9711  160.8483 H   0  0  0  0  0  0  0  0  0  0  0  0
  152.5519  143.4095  160.9996 H   0  0  0  0  0  0  0  0  0  0  0  0
  154.0190  143.4515  160.0103 H   0  0  0  0  0  0  0  0  0  0  0  0
  152.6710  140.3014  159.4532 H   0  0  0  0  0  0  0  0  0  0  0  0
  150.0787  138.7846  155.5359 H   0  0  0  0  0  0  0  0  0  0  0  0
  149.3801  142.4737  154.8480 H   0  0  0  0  0  0  0  0  0  0  0  0
  150.0213  141.2157  153.8170 H   0  0  0  0  0  0  0  0  0  0  0  0
  147.8489  140.2450  155.5823 H   0  0  0  0  0  0  0  0  0  0  0  0
  148.6298  140.0918  152.9210 H   0  0  0  0  0  0  0  0  0  0  0  0
  147.2591  142.4309  153.5020 H   0  0  0  0  0  0  0  0  0  0  0  0
  146.0609  141.3017  154.0649 H   0  0  0  0  0  0  0  0  0  0  0  0
  147.3581  141.1946  156.9089 H   0  0  0  0  0  0  0  0  0  0  0  0
  146.7030  142.6387  157.6357 H   0  0  0  0  0  0  0  0  0  0  0  0
  145.0381  140.5166  156.1627 H   0  0  0  0  0  0  0  0  0  0  0  0
  145.0757  140.7953  157.8921 H   0  0  0  0  0  0  0  0  0  0  0  0
  144.0612  142.2122  154.7517 H   0  0  0  0  0  0  0  0  0  0  0  0
  142.1431  143.4653  155.8698 H   0  0  0  0  0  0  0  0  0  0  0  0
  143.2378  144.7794  156.2202 H   0  0  0  0  0  0  0  0  0  0  0  0
  143.9305  146.3269  154.3868 H   0  0  0  0  0  0  0  0  0  0  0  0
  143.6445  145.8369  152.7156 H   0  0  0  0  0  0  0  0  0  0  0  0
  144.8367  144.9854  153.6786 H   0  0  0  0  0  0  0  0  0  0  0  0
  141.3535  145.9845  154.7345 H   0  0  0  0  0  0  0  0  0  0  0  0
  140.6819  144.4109  154.2871 H   0  0  0  0  0  0  0  0  0  0  0  0
  141.2799  145.4944  153.0377 H   0  0  0  0  0  0  0  0  0  0  0  0
  145.6828  144.4199  156.1207 H   0  0  0  0  0  0  0  0  0  0  0  0
  145.6279  144.1396  154.4022 H   0  0  0  0  0  0  0  0  0  0  0  0
  150.5576  143.6977  156.4743 H   0  0  0  0  0  0  0  0  0  0  0  0
  151.3824  145.4701  157.7935 H   0  0  0  0  0  0  0  0  0  0  0  0
  152.9606  145.1587  158.5143 H   0  0  0  0  0  0  0  0  0  0  0  0
  151.5010  145.1123  159.5152 H   0  0  0  0  0  0  0  0  0  0  0  0
  142.8086  143.7513  153.5232 H   0  0  0  0  0  0  0  0  0  0  0  0
  147.5397  143.2453  155.6382 H   0  0  0  0  0  0  0  0  0  0  0  0
  1  2  1  0  0  0  0
  1 26  1  0  0  0  0
  1 27  1  0  0  0  0
  1 28  1  0  0  0  0
  2 24  1  0  0  0  0
  2  3  2  0  0  0  0
  3  4  1  0  0  0  0
  3 29  1  0  0  0  0
  4 22  2  0  0  0  0
  4  5  1  0  0  0  0
  5  6  2  0  0  0  0
  6  7  1  0  0  0  0
  6 30  1  0  0  0  0
  7  8  1  0  0  0  0
  7 22  1  0  0  0  0
  8  9  1  0  0  0  0
  8 31  1  0  0  0  0
  8 32  1  0  0  0  0
  9 10  1  0  0  0  0
  9 11  1  0  0  0  0
  9 33  1  0  0  0  0
 10 34  1  0  0  0  0
 11 12  1  0  0  0  0
 11 35  1  0  0  0  0
 11 36  1  0  0  0  0
 12 21  1  0  0  0  0
 12 13  1  0  0  0  0
 12 57  1  0  0  0  0
 13 14  1  0  0  0  0
 13 37  1  0  0  0  0
 13 38  1  0  0  0  0
 14 15  1  0  0  0  0
 14 39  1  0  0  0  0
 14 40  1  0  0  0  0
 15 16  1  0  0  0  0
 16 17  1  0  0  0  0
 16 21  1  0  0  0  0
 16 41  1  0  0  0  0
 17 18  1  0  0  0  0
 17 42  1  0  0  0  0
 17 43  1  0  0  0  0
 18 19  1  0  0  0  0
 18 20  1  0  0  0  0
 18 56  1  0  0  0  0
 19 44  1  0  0  0  0
 19 45  1  0  0  0  0
 19 46  1  0  0  0  0
 20 47  1  0  0  0  0
 20 48  1  0  0  0  0
 20 49  1  0  0  0  0
 21 50  1  0  0  0  0
 21 51  1  0  0  0  0
 22 23  1  0  0  0  0
 23 24  2  0  0  0  0
 23 52  1  0  0  0  0
 24 25  1  0  0  0  0
 25 53  1  0  0  0  0
 25 54  1  0  0  0  0
 25 55  1  0  0  0  0
M  CHG  1  12   1
M  CHG  1  18   1
M  END
> <s_m_source_file>
AV-unprocessed.smi

> <i_m_source_file_index>
1005

> <i_lp_mmshare_version>
43012

> <i_f3d_flags>
0

> <s_epik_input>
W0NIM11jKFtjSF0xKWMoW0NIM10pW2NIXWMoYzEyKW4oW2NIXW4yKVtDSDJdW0NASF0oW09IXSlbQ0gyXU4zW0NIMl1bQ0gyXU9bQ0BIXShbQ0gyXTMpW0NIMl1OKFtDSDNdKVtDSDNd

> <s_epik_cmdline>
J2VwaWtfcHl0aG9uJywgJy1waCcsICc3LjAnLCAnLXRuJywgJzgnLCAnLW1hJywgJzIwMCcsICctbWV0YWxfYmluZGluZycsICctaW1hZScsICc8aW5maWxlLm1hZT4nLCAnLW9tYWUnLCAnPG91dGZpbGUubWFlPic=

> <r_epik_Ionization_Penalty>
1.0968

> <r_epik_Ionization_Penalty_Charging>
1.0096

> <r_epik_Ionization_Penalty_Neutral>
0.0871956

> <r_epik_State_Penalty>
1.31185

> <r_epik_Charging_Adjusted_Penalty>
2.32145

> <i_epik_Tot_Q>
2

> <i_epik_Tot_abs_Q>
2

> <r_epik_Metal_State_Penalty>
1.22442

> <b_epik_Metal_Only>
0

> <s_lp_Force_Field>
OPLS_2005

> <r_lp_Energy>
35.7023

> <b_lp_Chiralities_Consistent>
1

> <s_lp_Variant>
AV-unprocessed.smi:1005-7

> <Gold.Version>
5.8.1

> <Gold.Id.Protein>
6NUR|6NUR_protein|mol2

> <Gold.PLP.Fitness>
60.6572

> <Gold.PLP.PLP>
-47.2592

> <Gold.PLP.part.hbond>
-3.0000

> <Gold.PLP.part.metal>
0.0000

> <Gold.PLP.part.buried>
-4.7084

> <Gold.PLP.part.nonpolar>
-39.8613

> <Gold.PLP.part.repulsive>
0.1570

> <Gold.PLP.ligand.clash>
0.0025

> <Gold.PLP.ligand.torsion>
1.0017

> <Gold.PLP.Chemscore.Hbond>
4.9920

> <Gold.PLP.Chemscore.CHOScore>
0.0000

> <Gold.PLP.Chemscore.Metal>
0.0000

> <Gold.Chemscore.Hbonds>
donor molecule, donor type, donor heavy atom, donor atom, acceptor molecule, acceptor atom, score
      L1  H    10    34       P1  7957  1.00
      L1  H    12    57       P1  8028  1.60
      L1  H    18    56       P1 10174  2.00

> <Gold.PLP.Chemscore.Internal.Correction>
0.4279

> <Gold.Rescore>
     Score         DG    S(hbond)    S(metal)    S(lipo)     H(rot)  DE(clash)    DE(int)     intcor
     19.38     -21.59       2.17        0.00     130.14       2.48       0.44       1.77       ----

> <Gold.Chemscore.Fitness>
19.3813

> <Gold.Chemscore.DG>
-21.5940

> <Gold.Chemscore.ZeroCoef>
-5.4800

> <Gold.Chemscore.Hbond>
2.1678

> <Gold.Chemscore.Metal>
0.0000

> <Gold.Chemscore.Lipo>
130.1367

> <Gold.Chemscore.Internal_Hbond>
0.0000

> <Gold.Chemscore.DEClash>
0.4442

> <Gold.Chemscore.DEInternal>
1.7685

> <Gold.Chemscore.Rot>
2.4814

> <Gold.Chemscore.Internal.Correction>
   9.000000E+99

> <Gold.Chemscore.Hbonds>
donor molecule, donor type, donor heavy atom, donor atom, acceptor molecule, acceptor atom, score
      L1  H    10    34       P1  7957  0.94
      L1  H    12    57       P1  8028  0.12
      L1  H    18    56       P1 10174  1.00

> <Gold.Chemscore.Hbond.Weighted>
-7.2404

> <Gold.Chemscore.Metal.Weighted>
-0.0000

> <Gold.Chemscore.Lipo.Weighted>
-15.2260

> <Gold.Chemscore.Internal_Hbond.Weighted>
0.0000

> <Gold.Chemscore.DEClash.Weighted>
0.4442

> <Gold.Chemscore.DEInternal.Weighted>
1.7685

> <Gold.Chemscore.Rot.Weighted>
6.3524

> <Gold.Chemscore.Internal.Correction.Weighted>
   9.000000E+99

> <Gold.Protein.RotatedTorsions>
[ 6907 6896 6895 6894 ] final  132.29 input  -60.11 | X-H torsion
[ 7974 7965 7964 7962 ] final  129.50 input  175.53 | X-H torsion
[ 8008 7997 7996 7995 ] final -164.98 input   59.86 | X-H torsion
[ 10167 10162 10161 10158 ] final -177.74 input  -65.29 | X-H torsion
[ 10718 10713 10712 10709 ] final -167.33 input   66.30 | X-H torsion
[ 10763 10752 10751 10750 ] final  124.93 input  -60.55 | X-H torsion
[ 11005 11000 10999 10996 ] final  -21.16 input  -57.11 | X-H torsion

> <Gold.Protein.ActiveResidues>
 VAL166  LYS551  ARG553  GLY616  TRP617  ASP618  TYR619  PRO620  LYS621  CYS622 
 ASP623  PHE694  ASN695  SER759  ASP760  ASP761  ALA762  ILE779  LEU786  VAL792 
 PHE793  MET794  SER795  GLU796  ALA797  LYS798  CYS799  TRP800  GLU811  SER814 

> <Gold.Protein.RotatedAtoms>
  152.3339  133.5989  159.5828 H   0  0  0  0  0  0  0  0  0  0  0  0  # atno 6907 bound_to 6896
  150.7439  133.9826  159.3590 H   0  0  0  0  0  0  0  0  0  0  0  0  # atno 6908 bound_to 6896
  151.7697  135.0790  160.0409 H   0  0  0  0  0  0  0  0  0  0  0  0  # atno 6909 bound_to 6896
  145.0280  139.4072  143.5164 H   0  0  0  0  0  0  0  0  0  0  0  0  # atno 7974 bound_to 7965
  155.8433  140.0952  157.1720 H   0  0  0  0  0  0  0  0  0  0  0  0  # atno 8008 bound_to 7997
  154.3982  140.1397  156.3817 H   0  0  0  0  0  0  0  0  0  0  0  0  # atno 8009 bound_to 7997
  155.8040  140.3452  155.5421 H   0  0  0  0  0  0  0  0  0  0  0  0  # atno 8010 bound_to 7997
  139.5466  144.2220  152.0998 H   0  0  0  0  0  0  0  0  0  0  0  0  # atno 10167 bound_to 10162
  156.6808  130.9121  151.3057 H   0  0  0  0  0  0  0  0  0  0  0  0  # atno 10718 bound_to 10713
  153.6693  135.3333  155.3149 H   0  0  0  0  0  0  0  0  0  0  0  0  # atno 10763 bound_to 10752
  154.8495  135.4382  154.1722 H   0  0  0  0  0  0  0  0  0  0  0  0  # atno 10764 bound_to 10752
  153.2709  135.7000  153.7557 H   0  0  0  0  0  0  0  0  0  0  0  0  # atno 10765 bound_to 10752
  140.8535  133.7840  155.9992 H   0  0  0  0  0  0  0  0  0  0  0  0  # atno 11005 bound_to 11000
  146.3495  139.9814  142.8695 LP  0  0  0  0  0  0  0  0  0  0  0  0  # atno 17320 bound_to 7965
  145.1808  140.9766  143.4267 LP  0  0  0  0  0  0  0  0  0  0  0  0  # atno 17321 bound_to 7965
  140.1708  144.4937  150.6580 LP  0  0  0  0  0  0  0  0  0  0  0  0  # atno 17342 bound_to 10162
  140.6715  143.2288  151.5612 LP  0  0  0  0  0  0  0  0  0  0  0  0  # atno 17343 bound_to 10162
  157.7044  130.9368  150.0885 LP  0  0  0  0  0  0  0  0  0  0  0  0  # atno 17370 bound_to 10713
  156.1869  130.3652  149.8961 LP  0  0  0  0  0  0  0  0  0  0  0  0  # atno 17371 bound_to 10713
  140.8764  134.2665  157.5166 LP  0  0  0  0  0  0  0  0  0  0  0  0  # atno 17394 bound_to 11000
  139.8704  134.9593  156.4327 LP  0  0  0  0  0  0  0  0  0  0  0  0  # atno 17395 bound_to 11000

$$$$
