AV-unprocessed.smi:594|AV-procd|sdf|3014|dock8
  -GOLD-   2262023523D 1   1.00000     0.00000
 Structure written by MMmdl.
 40 41  0  0  0  0  0  0  0  0  3 V2000
  145.7261  136.1095  152.0909 C   0  0  0  0  0  0  0  0  0  0  0  0
  145.7600  134.7989  151.2842 C   0  0  2  0  0  0  0  0  0  0  0  0
  144.3799  134.5137  150.6575 C   0  0  0  0  0  0  0  0  0  0  0  0
  144.3801  133.2146  149.8380 C   0  0  0  0  0  0  0  0  0  0  0  0
  144.8357  132.0244  150.6927 C   0  0  0  0  0  0  0  0  0  0  0  0
  146.2166  132.2868  151.3102 C   0  0  0  0  0  0  0  0  0  0  0  0
  146.2343  133.5925  152.1328 C   0  0  1  0  0  0  0  0  0  0  0  0
  147.5800  133.8320  152.6498 N   0  0  0  0  0  0  0  0  0  0  0  0
  148.2627  133.0060  153.4567 C   0  0  0  0  0  0  0  0  0  0  0  0
  147.8262  131.9187  153.8368 O   0  0  0  0  0  0  0  0  0  0  0  0
  149.6606  133.4825  153.8759 C   0  0  0  0  0  0  0  0  0  0  0  0
  149.6364  134.7210  154.6722 N   0  0  0  0  0  0  0  0  0  0  0  0
  150.5710  135.7195  154.3334 C   0  0  0  0  0  0  0  0  0  0  0  0
  150.6423  136.8888  154.9989 C   0  0  0  0  0  0  0  0  0  0  0  0
  151.6118  137.9009  154.6404 N   0  3  0  0  0  0  0  0  0  0  0  0
  152.6714  137.5473  154.1331 O   0  0  0  0  0  0  0  0  0  0  0  0
  151.3482  139.0805  154.8539 O   0  5  0  0  0  0  0  0  0  0  0  0
  149.7145  137.0995  156.0934 C   0  0  0  0  0  0  0  0  0  0  0  0
  148.8206  136.1470  156.4247 C   0  0  0  0  0  0  0  0  0  0  0  0
  148.7474  134.8735  155.7013 C   0  0  0  0  0  0  0  0  0  0  0  0
  147.9363  133.9974  156.0018 O   0  0  0  0  0  0  0  0  0  0  0  0
  145.0570  136.0282  152.9481 H   0  0  0  0  0  0  0  0  0  0  0  0
  145.3767  136.9388  151.4756 H   0  0  0  0  0  0  0  0  0  0  0  0
  146.7138  136.3801  152.4649 H   0  0  0  0  0  0  0  0  0  0  0  0
  146.4695  134.9369  150.4666 H   0  0  0  0  0  0  0  0  0  0  0  0
  143.6256  134.4461  151.4429 H   0  0  0  0  0  0  0  0  0  0  0  0
  144.0824  135.3449  150.0171 H   0  0  0  0  0  0  0  0  0  0  0  0
  143.3825  133.0258  149.4403 H   0  0  0  0  0  0  0  0  0  0  0  0
  145.0416  133.3230  148.9777 H   0  0  0  0  0  0  0  0  0  0  0  0
  144.1089  131.8415  151.4853 H   0  0  0  0  0  0  0  0  0  0  0  0
  144.8659  131.1197  150.0850 H   0  0  0  0  0  0  0  0  0  0  0  0
  146.4985  131.4415  151.9393 H   0  0  0  0  0  0  0  0  0  0  0  0
  146.9621  132.3408  150.5156 H   0  0  0  0  0  0  0  0  0  0  0  0
  145.5451  133.4821  152.9726 H   0  0  0  0  0  0  0  0  0  0  0  0
  148.0194  134.7010  152.3821 H   0  0  0  0  0  0  0  0  0  0  0  0
  150.1400  132.6770  154.4338 H   0  0  0  0  0  0  0  0  0  0  0  0
  150.2793  133.6201  152.9871 H   0  0  0  0  0  0  0  0  0  0  0  0
  151.2212  135.4632  153.5093 H   0  0  0  0  0  0  0  0  0  0  0  0
  149.7305  138.0214  156.6560 H   0  0  0  0  0  0  0  0  0  0  0  0
  148.1393  136.3242  157.2438 H   0  0  0  0  0  0  0  0  0  0  0  0
  1  2  1  0  0  0  0
  1 22  1  0  0  0  0
  1 23  1  0  0  0  0
  1 24  1  0  0  0  0
  2  7  1  0  0  0  0
  2  3  1  0  0  0  0
  2 25  1  0  0  0  0
  3  4  1  0  0  0  0
  3 26  1  0  0  0  0
  3 27  1  0  0  0  0
  4  5  1  0  0  0  0
  4 28  1  0  0  0  0
  4 29  1  0  0  0  0
  5  6  1  0  0  0  0
  5 30  1  0  0  0  0
  5 31  1  0  0  0  0
  6  7  1  0  0  0  0
  6 32  1  0  0  0  0
  6 33  1  0  0  0  0
  7  8  1  0  0  0  0
  7 34  1  0  0  0  0
  8  9  1  0  0  0  0
  8 35  1  0  0  0  0
  9 10  2  0  0  0  0
  9 11  1  0  0  0  0
 11 12  1  0  0  0  0
 11 36  1  0  0  0  0
 11 37  1  0  0  0  0
 12 20  1  0  0  0  0
 12 13  1  0  0  0  0
 13 14  2  0  0  0  0
 13 38  1  0  0  0  0
 14 15  1  0  0  0  0
 14 18  1  0  0  0  0
 15 16  2  0  0  0  0
 15 17  1  0  0  0  0
 18 19  2  0  0  0  0
 18 39  1  0  0  0  0
 19 20  1  0  0  0  0
 19 40  1  0  0  0  0
 20 21  2  0  0  0  0
M  CHG  1  15   1
M  CHG  1  17  -1
M  END
> <s_m_source_file>
AV-unprocessed.smi

> <i_m_source_file_index>
594

> <i_lp_mmshare_version>
43012

> <i_f3d_flags>
0

> <s_epik_input>
W0NIM11bQ0BASF0xW0NIMl1bQ0gyXVtDSDJdW0NIMl1bQ0BIXTFbTkhdQyg9TylbQ0gyXW4yW2NIXWMoW04rXSg9TylbTy1dKVtjSF1bY0hdYzI9Tw==

> <s_epik_cmdline>
J2VwaWtfcHl0aG9uJywgJy1waCcsICc3LjAnLCAnLXRuJywgJzgnLCAnLW1hJywgJzIwMCcsICctbWV0YWxfYmluZGluZycsICctaW1hZScsICc8aW5maWxlLm1hZT4nLCAnLW9tYWUnLCAnPG91dGZpbGUubWFlPic=

> <r_lp_tautomer_probability>
1

> <r_epik_Ionization_Penalty>
1.91305e-08

> <r_epik_Ionization_Penalty_Charging>
8.35811e-11

> <r_epik_Ionization_Penalty_Neutral>
1.90469e-08

> <r_epik_State_Penalty>
-0

> <r_epik_Charging_Adjusted_Penalty>
8.35811e-11

> <i_epik_Tot_Q>
0

> <i_epik_Tot_abs_Q>
2

> <r_epik_Metal_State_Penalty>
-0

> <b_epik_Metal_Only>
0

> <s_lp_Force_Field>
OPLS_2005

> <r_lp_Energy>
21.501

> <b_lp_Chiralities_Consistent>
1

> <s_lp_Variant>
AV-unprocessed.smi:594-1

> <Gold.Version>
5.8.1

> <Gold.Id.Protein>
6NUR|6NUR_protein|mol2

> <Gold.PLP.Fitness>
41.4618

> <Gold.PLP.PLP>
-31.7563

> <Gold.PLP.part.hbond>
-3.0000

> <Gold.PLP.part.metal>
0.0000

> <Gold.PLP.part.buried>
-1.5234

> <Gold.PLP.part.nonpolar>
-26.9842

> <Gold.PLP.part.repulsive>
0.2549

> <Gold.PLP.ligand.clash>
0.0000

> <Gold.PLP.ligand.torsion>
0.5385

> <Gold.PLP.Chemscore.Hbond>
2.6080

> <Gold.PLP.Chemscore.CHOScore>
0.9823

> <Gold.PLP.Chemscore.Metal>
0.0000

> <Gold.Chemscore.Hbonds>
donor molecule, donor type, donor heavy atom, donor atom, acceptor molecule, acceptor atom, score
      L1  H     8    35       P1  7948  1.00
      P1  H  7989  7998       L1    17  0.44
      P1  H 10752 10764       L1    16  0.58
      L1  C    13    38       P1  7949  1.00

> <Gold.PLP.Chemscore.Internal.Correction>
0.0116

> <Gold.Rescore>
     Score         DG    S(hbond)    S(metal)    S(lipo)     H(rot)  DE(clash)    DE(int)     intcor
     15.30     -17.38       2.59        0.00      61.74       1.55       0.24       1.85       ----

> <Gold.Chemscore.Fitness>
15.2982

> <Gold.Chemscore.DG>
-17.3822

> <Gold.Chemscore.ZeroCoef>
-5.4800

> <Gold.Chemscore.Hbond>
2.5892

> <Gold.Chemscore.Metal>
0.0000

> <Gold.Chemscore.Lipo>
61.7387

> <Gold.Chemscore.Internal_Hbond>
0.0000

> <Gold.Chemscore.DEClash>
0.2369

> <Gold.Chemscore.DEInternal>
1.8471

> <Gold.Chemscore.Rot>
1.5505

> <Gold.Chemscore.Internal.Correction>
   9.000000E+99

> <Gold.Chemscore.Hbonds>
donor molecule, donor type, donor heavy atom, donor atom, acceptor molecule, acceptor atom, score
      L1  H     8    35       P1  7948  0.50
      P1  H  7989  7998       L1    17  0.43
      P1  H 10752 10764       L1    16  0.55

> <Gold.Chemscore.Hbond.Weighted>
-8.6479

> <Gold.Chemscore.Metal.Weighted>
-0.0000

> <Gold.Chemscore.Lipo.Weighted>
-7.2234

> <Gold.Chemscore.Internal_Hbond.Weighted>
0.0000

> <Gold.Chemscore.DEClash.Weighted>
0.2369

> <Gold.Chemscore.DEInternal.Weighted>
1.8471

> <Gold.Chemscore.Rot.Weighted>
3.9692

> <Gold.Chemscore.Internal.Correction.Weighted>
   9.000000E+99

> <Gold.Protein.RotatedTorsions>
[ 6907 6896 6895 6894 ] final  173.90 input  -60.11 | X-H torsion
[ 7974 7965 7964 7962 ] final   28.84 input  175.53 | X-H torsion
[ 8008 7997 7996 7995 ] final  118.72 input   59.86 | X-H torsion
[ 10167 10162 10161 10158 ] final  109.79 input  -65.29 | X-H torsion
[ 10718 10713 10712 10709 ] final  -40.26 input   66.30 | X-H torsion
[ 10763 10752 10751 10750 ] final  -88.31 input  -60.55 | X-H torsion
[ 11005 11000 10999 10996 ] final  -38.15 input  -57.11 | X-H torsion

> <Gold.Protein.ActiveResidues>
 VAL166  LYS551  ARG553  GLY616  TRP617  ASP618  TYR619  PRO620  LYS621  CYS622 
 ASP623  PHE694  ASN695  SER759  ASP760  ASP761  ALA762  ILE779  LEU786  VAL792 
 PHE793  MET794  SER795  GLU796  ALA797  LYS798  CYS799  TRP800  GLU811  SER814 

> <Gold.Protein.RotatedAtoms>
  151.7609  133.3333  159.3417 H   0  0  0  0  0  0  0  0  0  0  0  0  # atno 6907 bound_to 6896
  150.7498  134.6107  159.6094 H   0  0  0  0  0  0  0  0  0  0  0  0  # atno 6908 bound_to 6896
  152.3406  134.7141  160.0316 H   0  0  0  0  0  0  0  0  0  0  0  0  # atno 6909 bound_to 6896
  146.1706  139.7001  142.8970 H   0  0  0  0  0  0  0  0  0  0  0  0  # atno 7974 bound_to 7965
  156.2561  140.2868  156.0880 H   0  0  0  0  0  0  0  0  0  0  0  0  # atno 8008 bound_to 7997
  155.1494  140.0397  157.2835 H   0  0  0  0  0  0  0  0  0  0  0  0  # atno 8009 bound_to 7997
  154.6471  140.2536  155.7262 H   0  0  0  0  0  0  0  0  0  0  0  0  # atno 8010 bound_to 7997
  139.6739  144.7123  151.1638 H   0  0  0  0  0  0  0  0  0  0  0  0  # atno 10167 bound_to 10162
  156.2833  130.4219  149.8314 H   0  0  0  0  0  0  0  0  0  0  0  0  # atno 10718 bound_to 10713
  154.6432  135.5381  153.7813 H   0  0  0  0  0  0  0  0  0  0  0  0  # atno 10763 bound_to 10752
  153.0345  135.6464  154.1129 H   0  0  0  0  0  0  0  0  0  0  0  0  # atno 10764 bound_to 10752
  154.1052  135.2930  155.3223 H   0  0  0  0  0  0  0  0  0  0  0  0  # atno 10765 bound_to 10752
  141.0005  133.6957  156.2014 H   0  0  0  0  0  0  0  0  0  0  0  0  # atno 11005 bound_to 11000
  145.4351  141.0418  143.2889 LP  0  0  0  0  0  0  0  0  0  0  0  0  # atno 17320 bound_to 7965
  144.8157  139.5881  143.7009 LP  0  0  0  0  0  0  0  0  0  0  0  0  # atno 17321 bound_to 7965
  140.7628  143.5802  150.8903 LP  0  0  0  0  0  0  0  0  0  0  0  0  # atno 17342 bound_to 10162
  139.9469  143.6317  152.3039 LP  0  0  0  0  0  0  0  0  0  0  0  0  # atno 17343 bound_to 10162
  156.5753  130.8442  151.3368 LP  0  0  0  0  0  0  0  0  0  0  0  0  # atno 17370 bound_to 10713
  157.7321  130.9710  150.1912 LP  0  0  0  0  0  0  0  0  0  0  0  0  # atno 17371 bound_to 10713
  140.6896  134.4680  157.5589 LP  0  0  0  0  0  0  0  0  0  0  0  0  # atno 17394 bound_to 11000
  139.9036  134.8498  156.1793 LP  0  0  0  0  0  0  0  0  0  0  0  0  # atno 17395 bound_to 11000

$$$$
