AV-unprocessed.smi:639|AV-procd|sdf|3144|dock6
  -GOLD-   22720 0 73D 1   1.00000     0.00000
 Structure written by MMmdl.
 24 25  0  0  0  0  0  0  0  0  1 V2000
  152.1912  145.2085  158.6109 C   0  0  0  0  0  0  0  0  0  0  0  0
  151.9786  143.7776  158.5704 N   0  0  0  0  0  0  0  0  0  0  0  0
  151.2866  143.0384  157.6366 C   0  0  0  0  0  0  0  0  0  0  0  0
  151.3548  141.7239  158.0105 C   0  0  0  0  0  0  0  0  0  0  0  0
  150.7541  140.5135  157.3225 C   0  0  1  0  0  0  0  0  0  0  0  0
  151.0144  139.2100  158.1000 C   0  0  0  0  0  0  0  0  0  0  0  0
  149.3346  140.6741  157.0436 N   0  0  0  0  0  0  0  0  0  0  0  0
  149.0647  140.7293  155.7322 C   0  0  0  0  0  0  0  0  0  0  0  0
  147.9544  140.8814  155.2286 O   0  0  0  0  0  0  0  0  0  0  0  0
  150.2161  140.5820  155.0697 N   0  0  0  0  0  0  0  0  0  0  0  0
  151.2571  140.4297  155.8867 C   0  0  0  0  0  0  0  0  0  0  0  0
  152.4295  140.2518  155.5593 O   0  0  0  0  0  0  0  0  0  0  0  0
  152.1282  141.7723  159.2085 C   0  0  0  0  0  0  0  0  0  0  0  0
  152.5001  142.9980  159.5383 N   0  0  0  0  0  0  0  0  0  0  0  0
  151.4370  145.7142  158.0072 H   0  0  0  0  0  0  0  0  0  0  0  0
  153.1798  145.4433  158.2157 H   0  0  0  0  0  0  0  0  0  0  0  0
  152.1202  145.5695  159.6377 H   0  0  0  0  0  0  0  0  0  0  0  0
  150.8033  143.5033  156.7899 H   0  0  0  0  0  0  0  0  0  0  0  0
  152.0815  139.0316  158.2366 H   0  0  0  0  0  0  0  0  0  0  0  0
  150.6016  138.3432  157.5819 H   0  0  0  0  0  0  0  0  0  0  0  0
  150.5582  139.2485  159.0897 H   0  0  0  0  0  0  0  0  0  0  0  0
  148.6396  140.7546  157.7718 H   0  0  0  0  0  0  0  0  0  0  0  0
  150.2873  140.5753  154.0626 H   0  0  0  0  0  0  0  0  0  0  0  0
  152.4289  140.9547  159.8469 H   0  0  0  0  0  0  0  0  0  0  0  0
  1  2  1  0  0  0  0
  1 15  1  0  0  0  0
  1 16  1  0  0  0  0
  1 17  1  0  0  0  0
  2 14  1  0  0  0  0
  2  3  1  0  0  0  0
  3  4  2  0  0  0  0
  3 18  1  0  0  0  0
  4  5  1  0  0  0  0
  4 13  1  0  0  0  0
  5 11  1  0  0  0  0
  5  6  1  0  0  0  0
  5  7  1  0  0  0  0
  6 19  1  0  0  0  0
  6 20  1  0  0  0  0
  6 21  1  0  0  0  0
  7  8  1  0  0  0  0
  7 22  1  0  0  0  0
  8  9  2  0  0  0  0
  8 10  1  0  0  0  0
 10 11  1  0  0  0  0
 10 23  1  0  0  0  0
 11 12  2  0  0  0  0
 13 14  2  0  0  0  0
 13 24  1  0  0  0  0
M  END
> <s_m_source_file>
AV-unprocessed.smi

> <i_m_source_file_index>
639

> <i_lp_mmshare_version>
43012

> <i_f3d_flags>
0

> <s_epik_input>
W0NIM11uMVtjSF1jKFtjSF1uMSlbQ0BAXTIoW0NIM10pW05IXUMoPU8pW05IXUMyPU8=

> <s_epik_cmdline>
J2VwaWtfcHl0aG9uJywgJy1waCcsICc3LjAnLCAnLXRuJywgJzgnLCAnLW1hJywgJzIwMCcsICctbWV0YWxfYmluZGluZycsICctaW1hZScsICc8aW5maWxlLm1hZT4nLCAnLW9tYWUnLCAnPG91dGZpbGUubWFlPic=

> <r_lp_tautomer_probability>
1

> <r_epik_Ionization_Penalty>
0.0282779

> <r_epik_Ionization_Penalty_Charging>
0

> <r_epik_Ionization_Penalty_Neutral>
0.0282779

> <r_epik_State_Penalty>
0.022996

> <r_epik_Charging_Adjusted_Penalty>
0.022996

> <i_epik_Tot_Q>
0

> <i_epik_Tot_abs_Q>
0

> <r_epik_Metal_State_Penalty>
0.428533

> <b_epik_Metal_Only>
0

> <s_lp_Force_Field>
OPLS_2005

> <r_lp_Energy>
13.4697

> <b_lp_Chiralities_Consistent>
1

> <s_lp_Variant>
AV-unprocessed.smi:639-1

> <Gold.Version>
5.8.1

> <Gold.Id.Protein>
6NUR|6NUR_protein|mol2

> <Gold.PLP.Fitness>
29.8939

> <Gold.PLP.PLP>
-23.7948

> <Gold.PLP.part.hbond>
-2.0000

> <Gold.PLP.part.metal>
0.0000

> <Gold.PLP.part.buried>
-3.2782

> <Gold.PLP.part.nonpolar>
-19.2666

> <Gold.PLP.part.repulsive>
0.9283

> <Gold.PLP.ligand.clash>
0.0000

> <Gold.PLP.ligand.torsion>
0.0805

> <Gold.PLP.Chemscore.Hbond>
1.0449

> <Gold.PLP.Chemscore.CHOScore>
0.9996

> <Gold.PLP.Chemscore.Metal>
0.0000

> <Gold.Chemscore.Hbonds>
donor molecule, donor type, donor heavy atom, donor atom, acceptor molecule, acceptor atom, score
      P1  H  7989  7998       L1    12  0.05
      P1  H  7997  8008       L1    12  1.00
      L1  C     3    18       P1  8028  1.00

> <Gold.PLP.Chemscore.Internal.Correction>
0.1268

> <Gold.Rescore>
     Score         DG    S(hbond)    S(metal)    S(lipo)     H(rot)  DE(clash)    DE(int)     intcor
     11.92     -12.08       1.00        0.00      49.84       1.00       0.09       0.07       ----

> <Gold.Chemscore.Fitness>
11.9238

> <Gold.Chemscore.DG>
-12.0828

> <Gold.Chemscore.ZeroCoef>
-5.4800

> <Gold.Chemscore.Hbond>
0.9974

> <Gold.Chemscore.Metal>
0.0000

> <Gold.Chemscore.Lipo>
49.8406

> <Gold.Chemscore.Internal_Hbond>
0.0000

> <Gold.Chemscore.DEClash>
0.0939

> <Gold.Chemscore.DEInternal>
0.0651

> <Gold.Chemscore.Rot>
1.0000

> <Gold.Chemscore.Internal.Correction>
   9.000000E+99

> <Gold.Chemscore.Hbonds>
donor molecule, donor type, donor heavy atom, donor atom, acceptor molecule, acceptor atom, score
      P1  H  7997  8008       L1    12  0.93

> <Gold.Chemscore.Hbond.Weighted>
-3.3314

> <Gold.Chemscore.Metal.Weighted>
-0.0000

> <Gold.Chemscore.Lipo.Weighted>
-5.8314

> <Gold.Chemscore.Internal_Hbond.Weighted>
0.0000

> <Gold.Chemscore.DEClash.Weighted>
0.0939

> <Gold.Chemscore.DEInternal.Weighted>
0.0651

> <Gold.Chemscore.Rot.Weighted>
2.5600

> <Gold.Chemscore.Internal.Correction.Weighted>
   9.000000E+99

> <Gold.Protein.RotatedTorsions>
[ 6907 6896 6895 6894 ] final  -46.24 input  -60.11 | X-H torsion
[ 7974 7965 7964 7962 ] final   13.92 input  175.53 | X-H torsion
[ 8008 7997 7996 7995 ] final  -21.17 input   59.86 | X-H torsion
[ 10167 10162 10161 10158 ] final  -46.71 input  -65.29 | X-H torsion
[ 10718 10713 10712 10709 ] final    8.26 input   66.30 | X-H torsion
[ 10763 10752 10751 10750 ] final   30.29 input  -60.55 | X-H torsion
[ 11005 11000 10999 10996 ] final -123.33 input  -57.11 | X-H torsion

> <Gold.Protein.ActiveResidues>
 VAL166  LYS551  ARG553  GLY616  TRP617  ASP618  TYR619  PRO620  LYS621  CYS622 
 ASP623  PHE694  ASN695  SER759  ASP760  ASP761  ALA762  ILE779  LEU786  VAL792 
 PHE793  MET794  SER795  GLU796  ALA797  LYS798  CYS799  TRP800  GLU811  SER814 

> <Gold.Protein.RotatedAtoms>
  150.9134  134.8551  159.7440 H   0  0  0  0  0  0  0  0  0  0  0  0  # atno 6907 bound_to 6896
  152.4956  134.4326  159.9527 H   0  0  0  0  0  0  0  0  0  0  0  0  # atno 6908 bound_to 6896
  151.4366  133.3616  159.2811 H   0  0  0  0  0  0  0  0  0  0  0  0  # atno 6909 bound_to 6896
  146.2318  139.9118  142.8523 H   0  0  0  0  0  0  0  0  0  0  0  0  # atno 7974 bound_to 7965
  154.4722  140.2042  155.9965 H   0  0  0  0  0  0  0  0  0  0  0  0  # atno 8008 bound_to 7997
  156.1030  140.3241  155.7939 H   0  0  0  0  0  0  0  0  0  0  0  0  # atno 8009 bound_to 7997
  155.4765  140.0535  157.2963 H   0  0  0  0  0  0  0  0  0  0  0  0  # atno 8010 bound_to 7997
  140.6806  143.2818  151.3821 H   0  0  0  0  0  0  0  0  0  0  0  0  # atno 10167 bound_to 10162
  156.9491  130.5890  149.5656 H   0  0  0  0  0  0  0  0  0  0  0  0  # atno 10718 bound_to 10713
  153.0380  135.6468  154.1022 H   0  0  0  0  0  0  0  0  0  0  0  0  # atno 10763 bound_to 10752
  154.0733  135.2879  155.3305 H   0  0  0  0  0  0  0  0  0  0  0  0  # atno 10764 bound_to 10752
  154.6579  135.5402  153.8046 H   0  0  0  0  0  0  0  0  0  0  0  0  # atno 10765 bound_to 10752
  140.9927  134.0516  157.3635 H   0  0  0  0  0  0  0  0  0  0  0  0  # atno 11005 bound_to 11000
  145.2222  140.9940  143.4039 LP  0  0  0  0  0  0  0  0  0  0  0  0  # atno 17320 bound_to 7965
  144.9600  139.3990  143.6360 LP  0  0  0  0  0  0  0  0  0  0  0  0  # atno 17321 bound_to 7965
  139.6126  144.1067  152.2314 LP  0  0  0  0  0  0  0  0  0  0  0  0  # atno 17342 bound_to 10162
  140.0486  144.5951  150.7354 LP  0  0  0  0  0  0  0  0  0  0  0  0  # atno 17343 bound_to 10162
  156.0371  130.5457  150.8679 LP  0  0  0  0  0  0  0  0  0  0  0  0  # atno 17370 bound_to 10713
  157.5734  131.0946  150.9383 LP  0  0  0  0  0  0  0  0  0  0  0  0  # atno 17371 bound_to 10713
  139.9000  135.0160  156.7220 LP  0  0  0  0  0  0  0  0  0  0  0  0  # atno 17394 bound_to 11000
  140.7015  133.9302  155.8027 LP  0  0  0  0  0  0  0  0  0  0  0  0  # atno 17395 bound_to 11000

$$$$
