AV-unprocessed.smi:409|AV-procd|sdf|2506|dock1
  -GOLD-   2262022453D 1   1.00000     0.00000
 Structure written by MMmdl.
 34 35  0  0  0  0  0  0  0  0  2 V2000
  152.1880  139.9203  157.1711 O   0  0  0  0  0  0  0  0  0  0  0  0
  151.3133  140.5996  156.6316 C   0  0  0  0  0  0  0  0  0  0  0  0
  150.3783  139.9823  155.5829 C   0  0  0  0  0  0  0  0  0  0  0  0
  150.3111  138.5148  155.6696 N   0  0  0  0  0  0  0  0  0  0  0  0
  149.0561  137.9303  155.9151 C   0  0  0  0  0  0  0  0  0  0  0  0
  148.9007  136.5961  156.0129 C   0  0  0  0  0  0  0  0  0  0  0  0
  150.0779  135.7508  155.8565 C   0  0  0  0  0  0  0  0  0  0  0  0
  149.9540  134.5303  155.9372 O   0  0  0  0  0  0  0  0  0  0  0  0
  151.2746  136.3658  155.6246 N   0  5  0  0  0  0  0  0  0  0  0  0
  151.4180  137.7243  155.5308 C   0  0  0  0  0  0  0  0  0  0  0  0
  152.5081  138.2590  155.3240 O   0  0  0  0  0  0  0  0  0  0  0  0
  151.0934  141.8887  156.9313 N   0  0  0  0  0  0  0  0  0  0  0  0
  151.8552  142.6733  157.8980 C   0  0  0  0  0  0  0  0  0  0  0  0
  151.4937  142.2612  159.3402 C   0  0  0  0  0  0  0  0  0  0  0  0
  152.2289  143.1295  160.3741 C   0  0  0  0  0  0  0  0  0  0  0  0
  151.9571  144.6242  160.1428 C   0  0  0  0  0  0  0  0  0  0  0  0
  152.3218  145.0385  158.7086 C   0  0  0  0  0  0  0  0  0  0  0  0
  151.5843  144.1730  157.6738 C   0  0  0  0  0  0  0  0  0  0  0  0
  149.3871  140.4174  155.7157 H   0  0  0  0  0  0  0  0  0  0  0  0
  150.6913  140.2842  154.5815 H   0  0  0  0  0  0  0  0  0  0  0  0
  148.2378  138.6264  156.0247 H   0  0  0  0  0  0  0  0  0  0  0  0
  147.9303  136.1629  156.2051 H   0  0  0  0  0  0  0  0  0  0  0  0
  150.3516  142.3660  156.4403 H   0  0  0  0  0  0  0  0  0  0  0  0
  152.9204  142.4957  157.7368 H   0  0  0  0  0  0  0  0  0  0  0  0
  150.4171  142.3527  159.4917 H   0  0  0  0  0  0  0  0  0  0  0  0
  151.7400  141.2120  159.5059 H   0  0  0  0  0  0  0  0  0  0  0  0
  151.9223  142.8470  161.3817 H   0  0  0  0  0  0  0  0  0  0  0  0
  153.3012  142.9394  160.3126 H   0  0  0  0  0  0  0  0  0  0  0  0
  150.9036  144.8370  160.3286 H   0  0  0  0  0  0  0  0  0  0  0  0
  152.5243  145.2207  160.8579 H   0  0  0  0  0  0  0  0  0  0  0  0
  152.0811  146.0903  158.5520 H   0  0  0  0  0  0  0  0  0  0  0  0
  153.3984  144.9425  158.5631 H   0  0  0  0  0  0  0  0  0  0  0  0
  151.8919  144.4624  156.6682 H   0  0  0  0  0  0  0  0  0  0  0  0
  150.5131  144.3697  157.7377 H   0  0  0  0  0  0  0  0  0  0  0  0
  1  2  2  0  0  0  0
  2  3  1  0  0  0  0
  2 12  1  0  0  0  0
  3  4  1  0  0  0  0
  3 19  1  0  0  0  0
  3 20  1  0  0  0  0
  4 10  1  0  0  0  0
  4  5  1  0  0  0  0
  5  6  2  0  0  0  0
  5 21  1  0  0  0  0
  6  7  1  0  0  0  0
  6 22  1  0  0  0  0
  7  8  2  0  0  0  0
  7  9  1  0  0  0  0
  9 10  1  0  0  0  0
 10 11  2  0  0  0  0
 12 13  1  0  0  0  0
 12 23  1  0  0  0  0
 13 18  1  0  0  0  0
 13 14  1  0  0  0  0
 13 24  1  0  0  0  0
 14 15  1  0  0  0  0
 14 25  1  0  0  0  0
 14 26  1  0  0  0  0
 15 16  1  0  0  0  0
 15 27  1  0  0  0  0
 15 28  1  0  0  0  0
 16 17  1  0  0  0  0
 16 29  1  0  0  0  0
 16 30  1  0  0  0  0
 17 18  1  0  0  0  0
 17 31  1  0  0  0  0
 17 32  1  0  0  0  0
 18 33  1  0  0  0  0
 18 34  1  0  0  0  0
M  CHG  1   9  -1
M  END
> <s_m_source_file>
AV-unprocessed.smi

> <i_m_source_file_index>
409

> <i_lp_mmshare_version>
43012

> <i_f3d_flags>
0

> <s_epik_input>
W0NIMl0xW0NIMl1bQ0gyXVtDSDJdW0NIMl1bQ0hdMVtOSF1DKD1PKVtDSDJdbjJbY0hdW2NIXWMoPU8pW25IXWMyPU8=

> <s_epik_cmdline>
J2VwaWtfcHl0aG9uJywgJy1waCcsICc3LjAnLCAnLXRuJywgJzgnLCAnLW1hJywgJzIwMCcsICctbWV0YWxfYmluZGluZycsICctaW1hZScsICc8aW5maWxlLm1hZT4nLCAnLW9tYWUnLCAnPG91dGZpbGUubWFlPic=

> <r_lp_tautomer_probability>
0.999537

> <r_epik_Ionization_Penalty>
3.11464

> <r_epik_Ionization_Penalty_Charging>
2.89611e-08

> <r_epik_Ionization_Penalty_Neutral>
3.11464

> <r_epik_State_Penalty>
3.11372

> <r_epik_Charging_Adjusted_Penalty>
3.11373

> <i_epik_Tot_Q>
-1

> <i_epik_Tot_abs_Q>
1

> <r_epik_Metal_State_Penalty>
0.463005

> <b_epik_Metal_Only>
1

> <s_lp_Force_Field>
OPLS_2005

> <r_lp_Energy>
17.6148

> <b_lp_Chiralities_Consistent>
1

> <s_lp_Variant>
AV-unprocessed.smi:409-2

> <Gold.Version>
5.8.1

> <Gold.Id.Protein>
6NUR|6NUR_protein|mol2

> <Gold.PLP.Fitness>
43.4377

> <Gold.PLP.PLP>
-35.4042

> <Gold.PLP.part.hbond>
-2.0000

> <Gold.PLP.part.metal>
0.0000

> <Gold.PLP.part.buried>
-4.7773

> <Gold.PLP.part.nonpolar>
-29.2981

> <Gold.PLP.part.repulsive>
0.3776

> <Gold.PLP.ligand.clash>
0.0000

> <Gold.PLP.ligand.torsion>
0.4899

> <Gold.PLP.Chemscore.Hbond>
3.0000

> <Gold.PLP.Chemscore.CHOScore>
0.0000

> <Gold.PLP.Chemscore.Metal>
0.0000

> <Gold.Chemscore.Hbonds>
donor molecule, donor type, donor heavy atom, donor atom, acceptor molecule, acceptor atom, score
      P1  H  7997  8010       L1     1  0.27
      P1  H 10752 10765       L1     9  1.79

> <Gold.PLP.Chemscore.Internal.Correction>
0.0134

> <Gold.Rescore>
     Score         DG    S(hbond)    S(metal)    S(lipo)     H(rot)  DE(clash)    DE(int)     intcor
     11.65     -16.61       1.84        0.00      79.14       1.67       0.22       4.74       ----

> <Gold.Chemscore.Fitness>
11.6515

> <Gold.Chemscore.DG>
-16.6126

> <Gold.Chemscore.ZeroCoef>
-5.4800

> <Gold.Chemscore.Hbond>
1.8400

> <Gold.Chemscore.Metal>
0.0000

> <Gold.Chemscore.Lipo>
79.1407

> <Gold.Chemscore.Internal_Hbond>
0.0000

> <Gold.Chemscore.DEClash>
0.2234

> <Gold.Chemscore.DEInternal>
4.7377

> <Gold.Chemscore.Rot>
1.6690

> <Gold.Chemscore.Internal.Correction>
   9.000000E+99

> <Gold.Chemscore.Hbonds>
donor molecule, donor type, donor heavy atom, donor atom, acceptor molecule, acceptor atom, score
      P1  H  7997  8010       L1     1  0.25
      P1  H 10752 10765       L1     9  0.47

> <Gold.Chemscore.Hbond.Weighted>
-6.1457

> <Gold.Chemscore.Metal.Weighted>
-0.0000

> <Gold.Chemscore.Lipo.Weighted>
-9.2595

> <Gold.Chemscore.Internal_Hbond.Weighted>
0.0000

> <Gold.Chemscore.DEClash.Weighted>
0.2234

> <Gold.Chemscore.DEInternal.Weighted>
4.7377

> <Gold.Chemscore.Rot.Weighted>
4.2726

> <Gold.Chemscore.Internal.Correction.Weighted>
   9.000000E+99

> <Gold.Protein.RotatedTorsions>
[ 6907 6896 6895 6894 ] final  125.05 input  -60.11 | X-H torsion
[ 7974 7965 7964 7962 ] final  -63.26 input  175.53 | X-H torsion
[ 8008 7997 7996 7995 ] final   79.49 input   59.86 | X-H torsion
[ 10167 10162 10161 10158 ] final -109.65 input  -65.29 | X-H torsion
[ 10718 10713 10712 10709 ] final   28.96 input   66.30 | X-H torsion
[ 10763 10752 10751 10750 ] final -166.81 input  -60.55 | X-H torsion
[ 11005 11000 10999 10996 ] final  -24.10 input  -57.11 | X-H torsion

> <Gold.Protein.ActiveResidues>
 VAL166  LYS551  ARG553  GLY616  TRP617  ASP618  TYR619  PRO620  LYS621  CYS622 
 ASP623  PHE694  ASN695  SER759  ASP760  ASP761  ALA762  ILE779  LEU786  VAL792 
 PHE793  MET794  SER795  GLU796  ALA797  LYS798  CYS799  TRP800  GLU811  SER814 

> <Gold.Protein.RotatedAtoms>
  152.4026  133.6840  159.6328 H   0  0  0  0  0  0  0  0  0  0  0  0  # atno 6907 bound_to 6896
  150.7915  133.8765  159.3282 H   0  0  0  0  0  0  0  0  0  0  0  0  # atno 6908 bound_to 6896
  151.6527  135.1001  160.0215 H   0  0  0  0  0  0  0  0  0  0  0  0  # atno 6909 bound_to 6896
  145.7812  140.8761  143.0329 H   0  0  0  0  0  0  0  0  0  0  0  0  # atno 7974 bound_to 7965
  155.8704  140.3449  155.5817 H   0  0  0  0  0  0  0  0  0  0  0  0  # atno 8008 bound_to 7997
  155.7834  140.0861  157.2066 H   0  0  0  0  0  0  0  0  0  0  0  0  # atno 8009 bound_to 7997
  154.4017  140.1496  156.3066 H   0  0  0  0  0  0  0  0  0  0  0  0  # atno 8010 bound_to 7997
  140.1530  143.4183  152.1481 H   0  0  0  0  0  0  0  0  0  0  0  0  # atno 10167 bound_to 10162
  157.2403  130.7066  149.6355 H   0  0  0  0  0  0  0  0  0  0  0  0  # atno 10718 bound_to 10713
  154.6796  135.2952  154.9632 H   0  0  0  0  0  0  0  0  0  0  0  0  # atno 10763 bound_to 10752
  154.0631  135.6628  153.4818 H   0  0  0  0  0  0  0  0  0  0  0  0  # atno 10764 bound_to 10752
  153.0538  135.5157  154.7832 H   0  0  0  0  0  0  0  0  0  0  0  0  # atno 10765 bound_to 10752
  140.8814  133.7651  156.0306 H   0  0  0  0  0  0  0  0  0  0  0  0  # atno 11005 bound_to 11000
  144.6796  139.9991  143.7484 LP  0  0  0  0  0  0  0  0  0  0  0  0  # atno 17320 bound_to 7965
  146.0072  139.3140  143.0892 LP  0  0  0  0  0  0  0  0  0  0  0  0  # atno 17321 bound_to 7965
  139.5417  144.7262  151.4713 LP  0  0  0  0  0  0  0  0  0  0  0  0  # atno 17342 bound_to 10162
  140.6691  143.8334  150.6977 LP  0  0  0  0  0  0  0  0  0  0  0  0  # atno 17343 bound_to 10162
  155.9670  130.4460  150.5525 LP  0  0  0  0  0  0  0  0  0  0  0  0  # atno 17370 bound_to 10713
  157.3386  131.0712  151.1805 LP  0  0  0  0  0  0  0  0  0  0  0  0  # atno 17371 bound_to 10713
  140.8457  134.3014  157.5296 LP  0  0  0  0  0  0  0  0  0  0  0  0  # atno 17394 bound_to 11000
  139.8720  134.9440  156.3869 LP  0  0  0  0  0  0  0  0  0  0  0  0  # atno 17395 bound_to 11000

$$$$
