AV-unprocessed.smi:2712|AV-procd|sdf|10477|dock10
  -GOLD-   2272014523D 1   1.00000     0.00000
 Structure written by MMmdl.
 52 53  0  0  0  0  0  0  0  0  1 V2000
  152.4341  142.4109  159.9773 C   0  0  0  0  0  0  0  0  0  0  0  0
  151.9492  141.8885  158.6576 C   0  0  0  0  0  0  0  0  0  0  0  0
  151.3792  142.7433  157.6337 C   0  0  0  0  0  0  0  0  0  0  0  0
  150.9633  142.1962  156.4714 C   0  0  0  0  0  0  0  0  0  0  0  0
  151.0731  140.7618  156.2147 C   0  0  0  0  0  0  0  0  0  0  0  0
  150.6996  140.2323  155.1681 O   0  0  0  0  0  0  0  0  0  0  0  0
  151.6309  140.0602  157.2459 N   0  0  0  0  0  0  0  0  0  0  0  0
  151.8327  138.6068  157.1551 C   0  0  0  0  0  0  0  0  0  0  0  0
  150.9514  137.8097  158.1278 C   0  0  0  0  0  0  0  0  0  0  0  0
  151.4418  136.9525  158.8643 O   0  0  0  0  0  0  0  0  0  0  0  0
  149.6451  138.1187  158.1263 N   0  0  0  0  0  0  0  0  0  0  0  0
  148.6238  137.4919  158.9630 C   0  0  1  0  0  0  0  0  0  0  0  0
  147.2462  138.0206  158.5216 C   0  0  0  0  0  0  0  0  0  0  0  0
  146.0268  137.2091  158.9880 C   0  0  0  0  0  0  0  0  0  0  0  0
  146.1180  136.6302  160.4100 C   0  0  0  0  0  0  0  0  0  0  0  0
  146.7533  135.2120  160.4699 C   0  0  2  0  0  0  0  0  0  0  0  0
  146.3728  134.4190  161.7757 C   0  0  0  0  0  0  0  0  0  0  0  0
  144.8446  134.3672  161.9927 C   0  0  0  0  0  0  0  0  0  0  0  0
  147.0180  135.0589  163.0270 C   0  0  0  0  0  0  0  0  0  0  0  0
  146.9106  132.9695  161.7112 C   0  0  0  0  0  0  0  0  0  0  0  0
  148.2839  135.2616  160.2079 C   0  0  0  0  0  0  0  0  0  0  0  0
  148.7446  135.9545  158.9111 C   0  0  0  0  0  0  0  0  0  0  0  0
  152.0533  140.6182  158.4414 N   0  0  0  0  0  0  0  0  0  0  0  0
  152.1878  143.4661  160.0984 H   0  0  0  0  0  0  0  0  0  0  0  0
  153.5166  142.3087  160.0597 H   0  0  0  0  0  0  0  0  0  0  0  0
  151.9784  141.8658  160.8045 H   0  0  0  0  0  0  0  0  0  0  0  0
  151.2917  143.8057  157.8076 H   0  0  0  0  0  0  0  0  0  0  0  0
  150.5391  142.8338  155.7099 H   0  0  0  0  0  0  0  0  0  0  0  0
  151.6189  138.2577  156.1433 H   0  0  0  0  0  0  0  0  0  0  0  0
  152.8835  138.3681  157.3311 H   0  0  0  0  0  0  0  0  0  0  0  0
  149.3314  138.8376  157.4904 H   0  0  0  0  0  0  0  0  0  0  0  0
  148.7901  137.8178  159.9914 H   0  0  0  0  0  0  0  0  0  0  0  0
  147.1465  139.0461  158.8797 H   0  0  0  0  0  0  0  0  0  0  0  0
  147.2032  138.0861  157.4332 H   0  0  0  0  0  0  0  0  0  0  0  0
  145.1544  137.8607  158.9273 H   0  0  0  0  0  0  0  0  0  0  0  0
  145.8268  136.4060  158.2779 H   0  0  0  0  0  0  0  0  0  0  0  0
  146.6361  137.3230  161.0740 H   0  0  0  0  0  0  0  0  0  0  0  0
  145.0962  136.5941  160.7789 H   0  0  0  0  0  0  0  0  0  0  0  0
  146.3277  134.6389  159.6449 H   0  0  0  0  0  0  0  0  0  0  0  0
  144.5969  133.8251  162.9061 H   0  0  0  0  0  0  0  0  0  0  0  0
  144.3329  133.8598  161.1753 H   0  0  0  0  0  0  0  0  0  0  0  0
  144.4117  135.3627  162.0863 H   0  0  0  0  0  0  0  0  0  0  0  0
  146.5756  136.0242  163.2722 H   0  0  0  0  0  0  0  0  0  0  0  0
  148.0905  135.2042  162.8930 H   0  0  0  0  0  0  0  0  0  0  0  0
  146.8834  134.4330  163.9100 H   0  0  0  0  0  0  0  0  0  0  0  0
  146.7730  132.4538  162.6622 H   0  0  0  0  0  0  0  0  0  0  0  0
  147.9775  132.9494  161.4861 H   0  0  0  0  0  0  0  0  0  0  0  0
  146.4019  132.3606  160.9659 H   0  0  0  0  0  0  0  0  0  0  0  0
  148.7975  135.7189  161.0534 H   0  0  0  0  0  0  0  0  0  0  0  0
  148.6687  134.2453  160.1448 H   0  0  0  0  0  0  0  0  0  0  0  0
  148.2231  135.5488  158.0432 H   0  0  0  0  0  0  0  0  0  0  0  0
  149.7924  135.6849  158.7704 H   0  0  0  0  0  0  0  0  0  0  0  0
  1  2  1  0  0  0  0
  1 24  1  0  0  0  0
  1 25  1  0  0  0  0
  1 26  1  0  0  0  0
  2 23  2  0  0  0  0
  2  3  1  0  0  0  0
  3  4  2  0  0  0  0
  3 27  1  0  0  0  0
  4  5  1  0  0  0  0
  4 28  1  0  0  0  0
  5  6  2  0  0  0  0
  5  7  1  0  0  0  0
  7  8  1  0  0  0  0
  7 23  1  0  0  0  0
  8  9  1  0  0  0  0
  8 29  1  0  0  0  0
  8 30  1  0  0  0  0
  9 10  2  0  0  0  0
  9 11  1  0  0  0  0
 11 12  1  0  0  0  0
 11 31  1  0  0  0  0
 12 22  1  0  0  0  0
 12 13  1  0  0  0  0
 12 32  1  0  0  0  0
 13 14  1  0  0  0  0
 13 33  1  0  0  0  0
 13 34  1  0  0  0  0
 14 15  1  0  0  0  0
 14 35  1  0  0  0  0
 14 36  1  0  0  0  0
 15 16  1  0  0  0  0
 15 37  1  0  0  0  0
 15 38  1  0  0  0  0
 16 17  1  0  0  0  0
 16 21  1  0  0  0  0
 16 39  1  0  0  0  0
 17 18  1  0  0  0  0
 17 19  1  0  0  0  0
 17 20  1  0  0  0  0
 18 40  1  0  0  0  0
 18 41  1  0  0  0  0
 18 42  1  0  0  0  0
 19 43  1  0  0  0  0
 19 44  1  0  0  0  0
 19 45  1  0  0  0  0
 20 46  1  0  0  0  0
 20 47  1  0  0  0  0
 20 48  1  0  0  0  0
 21 22  1  0  0  0  0
 21 49  1  0  0  0  0
 21 50  1  0  0  0  0
 22 51  1  0  0  0  0
 22 52  1  0  0  0  0
M  END
> <s_m_source_file>
AV-unprocessed.smi

> <i_m_source_file_index>
2712

> <i_lp_mmshare_version>
43012

> <i_f3d_flags>
0

> <s_epik_input>
W0NIM11jMVtjSF1bY0hdYyg9TyluKG4xKVtDSDJdQyg9TylbTkhdW0NAQEhdMltDSDJdW0NIMl1bQ0gyXVtDQEBIXShDKFtDSDNdKShbQ0gzXSlbQ0gzXSlbQ0gyXVtDSDJdMg==

> <s_epik_cmdline>
J2VwaWtfcHl0aG9uJywgJy1waCcsICc3LjAnLCAnLXRuJywgJzgnLCAnLW1hJywgJzIwMCcsICctbWV0YWxfYmluZGluZycsICctaW1hZScsICc8aW5maWxlLm1hZT4nLCAnLW9tYWUnLCAnPG91dGZpbGUubWFlPic=

> <r_lp_tautomer_probability>
1

> <r_epik_Ionization_Penalty>
8.71758e-07

> <r_epik_Ionization_Penalty_Charging>
8.50442e-07

> <r_epik_Ionization_Penalty_Neutral>
2.13165e-08

> <r_epik_State_Penalty>
-0

> <r_epik_Charging_Adjusted_Penalty>
8.50442e-07

> <i_epik_Tot_Q>
0

> <i_epik_Tot_abs_Q>
0

> <r_epik_Metal_State_Penalty>
-0

> <b_epik_Metal_Only>
0

> <s_lp_Force_Field>
OPLS_2005

> <r_lp_Energy>
38.5576

> <b_lp_Chiralities_Consistent>
1

> <s_lp_Variant>
AV-unprocessed.smi:2712-4

> <Gold.Version>
5.8.1

> <Gold.Id.Protein>
6NUR|6NUR_protein|mol2

> <Gold.PLP.Fitness>
40.6713

> <Gold.PLP.PLP>
-35.6637

> <Gold.PLP.part.hbond>
-2.0000

> <Gold.PLP.part.metal>
0.0000

> <Gold.PLP.part.buried>
-5.5359

> <Gold.PLP.part.nonpolar>
-29.6284

> <Gold.PLP.part.repulsive>
0.1580

> <Gold.PLP.ligand.clash>
0.0000

> <Gold.PLP.ligand.torsion>
0.2719

> <Gold.PLP.Chemscore.Hbond>
1.8268

> <Gold.PLP.Chemscore.CHOScore>
0.0000

> <Gold.PLP.Chemscore.Metal>
0.0000

> <Gold.Chemscore.Hbonds>
donor molecule, donor type, donor heavy atom, donor atom, acceptor molecule, acceptor atom, score
      P1  H  6896  6907       L1    10  0.81
      P1  H  7989  7998       L1     6  1.00

> <Gold.PLP.Chemscore.Internal.Correction>
0.0710

> <Gold.Rescore>
     Score         DG    S(hbond)    S(metal)    S(lipo)     H(rot)  DE(clash)    DE(int)     intcor
     16.79     -18.28       1.85        0.00      89.63       1.52       0.02       1.47       ----

> <Gold.Chemscore.Fitness>
16.7879

> <Gold.Chemscore.DG>
-18.2802

> <Gold.Chemscore.ZeroCoef>
-5.4800

> <Gold.Chemscore.Hbond>
1.8547

> <Gold.Chemscore.Metal>
0.0000

> <Gold.Chemscore.Lipo>
89.6321

> <Gold.Chemscore.Internal_Hbond>
0.0000

> <Gold.Chemscore.DEClash>
0.0181

> <Gold.Chemscore.DEInternal>
1.4742

> <Gold.Chemscore.Rot>
1.5162

> <Gold.Chemscore.Internal.Correction>
   9.000000E+99

> <Gold.Chemscore.Hbonds>
donor molecule, donor type, donor heavy atom, donor atom, acceptor molecule, acceptor atom, score
      P1  H  6896  6907       L1    10  0.76
      P1  H  7989  7998       L1     6  0.85

> <Gold.Chemscore.Hbond.Weighted>
-6.1947

> <Gold.Chemscore.Metal.Weighted>
-0.0000

> <Gold.Chemscore.Lipo.Weighted>
-10.4870

> <Gold.Chemscore.Internal_Hbond.Weighted>
0.0000

> <Gold.Chemscore.DEClash.Weighted>
0.0181

> <Gold.Chemscore.DEInternal.Weighted>
1.4742

> <Gold.Chemscore.Rot.Weighted>
3.8814

> <Gold.Chemscore.Internal.Correction.Weighted>
   9.000000E+99

> <Gold.Protein.RotatedTorsions>
[ 6907 6896 6895 6894 ] final  -18.09 input  -60.11 | X-H torsion
[ 7974 7965 7964 7962 ] final   -0.05 input  175.53 | X-H torsion
[ 8008 7997 7996 7995 ] final   19.30 input   59.86 | X-H torsion
[ 10167 10162 10161 10158 ] final  165.31 input  -65.29 | X-H torsion
[ 10718 10713 10712 10709 ] final   40.01 input   66.30 | X-H torsion
[ 10763 10752 10751 10750 ] final -114.96 input  -60.55 | X-H torsion
[ 11005 11000 10999 10996 ] final  143.01 input  -57.11 | X-H torsion

> <Gold.Protein.ActiveResidues>
 VAL166  LYS551  ARG553  GLY616  TRP617  ASP618  TYR619  PRO620  LYS621  CYS622 
 ASP623  PHE694  ASN695  SER759  ASP760  ASP761  ALA762  ILE779  LEU786  VAL792 
 PHE793  MET794  SER795  GLU796  ALA797  LYS798  CYS799  TRP800  GLU811  SER814 

> <Gold.Protein.RotatedAtoms>
  151.2835  135.0721  159.9177 H   0  0  0  0  0  0  0  0  0  0  0  0  # atno 6907 bound_to 6896
  152.5330  134.0006  159.7903 H   0  0  0  0  0  0  0  0  0  0  0  0  # atno 6908 bound_to 6896
  151.0264  133.5779  159.2696 H   0  0  0  0  0  0  0  0  0  0  0  0  # atno 6909 bound_to 6896
  146.2430  140.1211  142.8340 H   0  0  0  0  0  0  0  0  0  0  0  0  # atno 7974 bound_to 7965
  154.9187  140.3024  155.5228 H   0  0  0  0  0  0  0  0  0  0  0  0  # atno 8008 bound_to 7997
  156.3011  140.2375  156.4170 H   0  0  0  0  0  0  0  0  0  0  0  0  # atno 8009 bound_to 7997
  154.8352  140.0416  157.1493 H   0  0  0  0  0  0  0  0  0  0  0  0  # atno 8010 bound_to 7997
  139.4903  144.4145  151.9260 H   0  0  0  0  0  0  0  0  0  0  0  0  # atno 10167 bound_to 10162
  157.3772  130.7733  149.7164 H   0  0  0  0  0  0  0  0  0  0  0  0  # atno 10718 bound_to 10713
  154.8462  135.4399  154.1588 H   0  0  0  0  0  0  0  0  0  0  0  0  # atno 10763 bound_to 10752
  153.2730  135.6947  153.7467 H   0  0  0  0  0  0  0  0  0  0  0  0  # atno 10764 bound_to 10752
  153.6701  135.3420  155.3126 H   0  0  0  0  0  0  0  0  0  0  0  0  # atno 10765 bound_to 10752
  140.0521  134.9250  157.1035 H   0  0  0  0  0  0  0  0  0  0  0  0  # atno 11005 bound_to 11000
  145.0405  140.8942  143.5055 LP  0  0  0  0  0  0  0  0  0  0  0  0  # atno 17320 bound_to 7965
  145.1291  139.2643  143.5548 LP  0  0  0  0  0  0  0  0  0  0  0  0  # atno 17321 bound_to 7965
  140.3588  144.2999  150.5937 LP  0  0  0  0  0  0  0  0  0  0  0  0  # atno 17342 bound_to 10162
  140.5421  143.2221  151.8067 LP  0  0  0  0  0  0  0  0  0  0  0  0  # atno 17343 bound_to 10162
  155.9768  130.4071  150.3756 LP  0  0  0  0  0  0  0  0  0  0  0  0  # atno 17370 bound_to 10713
  157.1855  131.0402  151.2727 LP  0  0  0  0  0  0  0  0  0  0  0  0  # atno 17371 bound_to 10713
  140.3901  134.2193  155.7166 LP  0  0  0  0  0  0  0  0  0  0  0  0  # atno 17394 bound_to 11000
  141.1935  133.8149  157.0796 LP  0  0  0  0  0  0  0  0  0  0  0  0  # atno 17395 bound_to 11000

$$$$
