AV-unprocessed.smi:863|AV-procd|sdf|3984|dock5
  -GOLD-   22720 1463D 1   1.00000     0.00000
 Structure written by MMmdl.
 42 44  0  0  0  0  0  0  0  0  1 V2000
  150.5964  136.8164  159.1467 O   0  0  0  0  0  0  0  0  0  0  0  0
  149.4964  136.8228  158.5942 C   0  0  0  0  0  0  0  0  0  0  0  0
  148.5125  135.6775  158.8359 C   0  0  0  0  0  0  0  0  0  0  0  0
  148.0195  135.7072  160.2574 C   0  0  0  0  0  0  0  0  0  0  0  0
  147.7134  134.6089  161.1086 C   0  0  0  0  0  0  0  0  0  0  0  0
  147.3136  135.2057  162.2692 C   0  0  0  0  0  0  0  0  0  0  0  0
  147.3618  136.5564  162.1499 O   0  0  0  0  0  0  0  0  0  0  0  0
  147.8109  136.8676  160.8612 N   0  0  0  0  0  0  0  0  0  0  0  0
  149.0896  137.7976  157.7655 N   0  0  0  0  0  0  0  0  0  0  0  0
  149.8689  138.9791  157.4087 C   0  0  2  0  0  0  0  0  0  0  0  0
  150.8712  138.6255  156.3046 C   0  0  0  0  0  0  0  0  0  0  0  0
  151.7788  139.8241  155.9971 C   0  0  0  0  0  0  0  0  0  0  0  0
  152.4339  140.2714  157.1827 O   0  0  0  0  0  0  0  0  0  0  0  0
  151.5896  140.6852  158.2651 C   0  0  0  0  0  0  0  0  0  0  0  0
  152.5350  140.9627  159.4577 C   0  0  0  0  0  0  0  0  0  0  0  0
  153.4704  142.1591  159.2101 C   0  0  0  0  0  0  0  0  0  0  0  0
  152.6773  143.4252  158.8593 C   0  0  0  0  0  0  0  0  0  0  0  0
  151.7501  143.1765  157.6619 C   0  0  0  0  0  0  0  0  0  0  0  0
  150.8130  141.9857  157.9226 C   0  0  0  0  0  0  0  0  0  0  0  0
  150.6368  139.5201  158.6283 C   0  0  0  0  0  0  0  0  0  0  0  0
  147.6819  135.7488  158.1318 H   0  0  0  0  0  0  0  0  0  0  0  0
  149.0109  134.7299  158.6285 H   0  0  0  0  0  0  0  0  0  0  0  0
  147.7791  133.5515  160.9000 H   0  0  0  0  0  0  0  0  0  0  0  0
  146.9794  134.8242  163.2227 H   0  0  0  0  0  0  0  0  0  0  0  0
  148.1682  137.7202  157.3596 H   0  0  0  0  0  0  0  0  0  0  0  0
  149.1908  139.7449  157.0290 H   0  0  0  0  0  0  0  0  0  0  0  0
  151.4875  137.7815  156.6177 H   0  0  0  0  0  0  0  0  0  0  0  0
  150.3468  138.3125  155.4010 H   0  0  0  0  0  0  0  0  0  0  0  0
  152.5408  139.5322  155.2744 H   0  0  0  0  0  0  0  0  0  0  0  0
  151.2149  140.6333  155.5338 H   0  0  0  0  0  0  0  0  0  0  0  0
  151.9434  141.1571  160.3536 H   0  0  0  0  0  0  0  0  0  0  0  0
  153.1331  140.0770  159.6758 H   0  0  0  0  0  0  0  0  0  0  0  0
  154.0826  142.3392  160.0943 H   0  0  0  0  0  0  0  0  0  0  0  0
  154.1624  141.9247  158.4001 H   0  0  0  0  0  0  0  0  0  0  0  0
  152.0867  143.7383  159.7213 H   0  0  0  0  0  0  0  0  0  0  0  0
  153.3614  144.2448  158.6380 H   0  0  0  0  0  0  0  0  0  0  0  0
  151.1628  144.0718  157.4570 H   0  0  0  0  0  0  0  0  0  0  0  0
  152.3457  142.9875  156.7679 H   0  0  0  0  0  0  0  0  0  0  0  0
  150.1558  141.8503  157.0651 H   0  0  0  0  0  0  0  0  0  0  0  0
  150.1534  142.2366  158.7543 H   0  0  0  0  0  0  0  0  0  0  0  0
  149.9399  139.8364  159.4057 H   0  0  0  0  0  0  0  0  0  0  0  0
  151.2201  138.7054  159.0606 H   0  0  0  0  0  0  0  0  0  0  0  0
  1  2  2  0  0  0  0
  2  3  1  0  0  0  0
  2  9  1  0  0  0  0
  3  4  1  0  0  0  0
  3 21  1  0  0  0  0
  3 22  1  0  0  0  0
  4  8  2  0  0  0  0
  4  5  1  0  0  0  0
  5  6  2  0  0  0  0
  5 23  1  0  0  0  0
  6  7  1  0  0  0  0
  6 24  1  0  0  0  0
  7  8  1  0  0  0  0
  9 10  1  0  0  0  0
  9 25  1  0  0  0  0
 10 20  1  0  0  0  0
 10 11  1  0  0  0  0
 10 26  1  0  0  0  0
 11 12  1  0  0  0  0
 11 27  1  0  0  0  0
 11 28  1  0  0  0  0
 12 13  1  0  0  0  0
 12 29  1  0  0  0  0
 12 30  1  0  0  0  0
 13 14  1  0  0  0  0
 14 19  1  0  0  0  0
 14 15  1  0  0  0  0
 14 20  1  0  0  0  0
 15 16  1  0  0  0  0
 15 31  1  0  0  0  0
 15 32  1  0  0  0  0
 16 17  1  0  0  0  0
 16 33  1  0  0  0  0
 16 34  1  0  0  0  0
 17 18  1  0  0  0  0
 17 35  1  0  0  0  0
 17 36  1  0  0  0  0
 18 19  1  0  0  0  0
 18 37  1  0  0  0  0
 18 38  1  0  0  0  0
 19 39  1  0  0  0  0
 19 40  1  0  0  0  0
 20 41  1  0  0  0  0
 20 42  1  0  0  0  0
M  END
> <s_m_source_file>
AV-unprocessed.smi

> <i_m_source_file_index>
863

> <i_lp_mmshare_version>
43012

> <i_f3d_flags>
0

> <s_epik_input>
bjFvW2NIXVtjSF1jMVtDSDJdQyg9TylbTkhdW0NAQEhdKFtDSDJdMilbQ0gyXVtDSDJdT0MyM1tDSDJdW0NIMl1bQ0gyXVtDSDJdW0NIMl0z

> <s_epik_cmdline>
J2VwaWtfcHl0aG9uJywgJy1waCcsICc3LjAnLCAnLXRuJywgJzgnLCAnLW1hJywgJzIwMCcsICctbWV0YWxfYmluZGluZycsICctaW1hZScsICc8aW5maWxlLm1hZT4nLCAnLW9tYWUnLCAnPG91dGZpbGUubWFlPic=

> <r_lp_tautomer_probability>
1

> <r_epik_Ionization_Penalty>
1.10177e-07

> <r_epik_Ionization_Penalty_Charging>
0

> <r_epik_Ionization_Penalty_Neutral>
1.10177e-07

> <r_epik_State_Penalty>
-0

> <r_epik_Charging_Adjusted_Penalty>
0

> <i_epik_Tot_Q>
0

> <i_epik_Tot_abs_Q>
0

> <r_epik_Metal_State_Penalty>
-0

> <b_epik_Metal_Only>
0

> <s_lp_Force_Field>
OPLS_2005

> <r_lp_Energy>
15.5763

> <b_lp_Chiralities_Consistent>
1

> <s_lp_Variant>
AV-unprocessed.smi:863-1

> <Gold.Version>
5.8.1

> <Gold.Id.Protein>
6NUR|6NUR_protein|mol2

> <Gold.PLP.Fitness>
44.7762

> <Gold.PLP.PLP>
-36.7194

> <Gold.PLP.part.hbond>
-4.9643

> <Gold.PLP.part.metal>
0.0000

> <Gold.PLP.part.buried>
-5.0314

> <Gold.PLP.part.nonpolar>
-26.9914

> <Gold.PLP.part.repulsive>
0.1096

> <Gold.PLP.ligand.clash>
0.0000

> <Gold.PLP.ligand.torsion>
0.6976

> <Gold.PLP.Chemscore.Hbond>
3.1503

> <Gold.PLP.Chemscore.CHOScore>
0.0000

> <Gold.PLP.Chemscore.Metal>
0.0000

> <Gold.Chemscore.Hbonds>
donor molecule, donor type, donor heavy atom, donor atom, acceptor molecule, acceptor atom, score
      P1  H  6896  6907       L1     1  1.00
      P1  H  6931  6943       L1     8  0.12
      P1  H  6934  6947       L1     8  0.34
      P1  H  7997  8010       L1    13  0.92

> <Gold.PLP.Chemscore.Internal.Correction>
0.0011

> <Gold.Rescore>
     Score         DG    S(hbond)    S(metal)    S(lipo)     H(rot)  DE(clash)    DE(int)     intcor
     15.80     -17.43       1.13        0.00     100.80       1.42       0.15       1.47       ----

> <Gold.Chemscore.Fitness>
15.8011

> <Gold.Chemscore.DG>
-17.4251

> <Gold.Chemscore.ZeroCoef>
-5.4800

> <Gold.Chemscore.Hbond>
1.1311

> <Gold.Chemscore.Metal>
0.0000

> <Gold.Chemscore.Lipo>
100.7955

> <Gold.Chemscore.Internal_Hbond>
0.0000

> <Gold.Chemscore.DEClash>
0.1523

> <Gold.Chemscore.DEInternal>
1.4717

> <Gold.Chemscore.Rot>
1.4164

> <Gold.Chemscore.Internal.Correction>
   9.000000E+99

> <Gold.Chemscore.Hbonds>
donor molecule, donor type, donor heavy atom, donor atom, acceptor molecule, acceptor atom, score
      P1  H  6896  6907       L1     1  0.94
      P1  H  6934  6947       L1     8  0.05
      P1  H  7997  8010       L1    13  0.42

> <Gold.Chemscore.Hbond.Weighted>
-3.7780

> <Gold.Chemscore.Metal.Weighted>
-0.0000

> <Gold.Chemscore.Lipo.Weighted>
-11.7931

> <Gold.Chemscore.Internal_Hbond.Weighted>
0.0000

> <Gold.Chemscore.DEClash.Weighted>
0.1523

> <Gold.Chemscore.DEInternal.Weighted>
1.4717

> <Gold.Chemscore.Rot.Weighted>
3.6259

> <Gold.Chemscore.Internal.Correction.Weighted>
   9.000000E+99

> <Gold.Protein.RotatedTorsions>
[ 6907 6896 6895 6894 ] final  -19.05 input  -60.11 | X-H torsion
[ 7974 7965 7964 7962 ] final -102.13 input  175.53 | X-H torsion
[ 8008 7997 7996 7995 ] final   51.43 input   59.86 | X-H torsion
[ 10167 10162 10161 10158 ] final  -56.18 input  -65.29 | X-H torsion
[ 10718 10713 10712 10709 ] final -152.89 input   66.30 | X-H torsion
[ 10763 10752 10751 10750 ] final  -20.17 input  -60.55 | X-H torsion
[ 11005 11000 10999 10996 ] final   98.28 input  -57.11 | X-H torsion

> <Gold.Protein.ActiveResidues>
 VAL166  LYS551  ARG553  GLY616  TRP617  ASP618  TYR619  PRO620  LYS621  CYS622 
 ASP623  PHE694  ASN695  SER759  ASP760  ASP761  ALA762  ILE779  LEU786  VAL792 
 PHE793  MET794  SER795  GLU796  ALA797  LYS798  CYS799  TRP800  GLU811  SER814 

> <Gold.Protein.RotatedAtoms>
  151.2690  135.0678  159.9126 H   0  0  0  0  0  0  0  0  0  0  0  0  # atno 6907 bound_to 6896
  152.5353  134.0150  159.7966 H   0  0  0  0  0  0  0  0  0  0  0  0  # atno 6908 bound_to 6896
  151.0386  133.5676  159.2684 H   0  0  0  0  0  0  0  0  0  0  0  0  # atno 6909 bound_to 6896
  145.2727  140.9303  143.2977 H   0  0  0  0  0  0  0  0  0  0  0  0  # atno 7974 bound_to 7965
  155.4351  140.3452  155.4284 H   0  0  0  0  0  0  0  0  0  0  0  0  # atno 8008 bound_to 7997
  156.1312  140.1515  156.9092 H   0  0  0  0  0  0  0  0  0  0  0  0  # atno 8009 bound_to 7997
  154.4896  140.0845  156.7545 H   0  0  0  0  0  0  0  0  0  0  0  0  # atno 8010 bound_to 7997
  140.6332  143.2469  151.5187 H   0  0  0  0  0  0  0  0  0  0  0  0  # atno 10167 bound_to 10162
  156.4785  130.8292  151.2519 H   0  0  0  0  0  0  0  0  0  0  0  0  # atno 10718 bound_to 10713
  153.6162  135.6994  153.5328 H   0  0  0  0  0  0  0  0  0  0  0  0  # atno 10763 bound_to 10752
  153.2975  135.4138  155.1223 H   0  0  0  0  0  0  0  0  0  0  0  0  # atno 10764 bound_to 10752
  154.8553  135.3640  154.5702 H   0  0  0  0  0  0  0  0  0  0  0  0  # atno 10765 bound_to 10752
  139.8773  134.9041  156.4433 H   0  0  0  0  0  0  0  0  0  0  0  0  # atno 11005 bound_to 11000
  144.9321  139.4287  143.6490 LP  0  0  0  0  0  0  0  0  0  0  0  0  # atno 17320 bound_to 7965
  146.3241  139.8237  142.8922 LP  0  0  0  0  0  0  0  0  0  0  0  0  # atno 17321 bound_to 7965
  139.5544  144.2313  152.1587 LP  0  0  0  0  0  0  0  0  0  0  0  0  # atno 17342 bound_to 10162
  140.1562  144.5068  150.6659 LP  0  0  0  0  0  0  0  0  0  0  0  0  # atno 17343 bound_to 10162
  157.7485  131.0053  150.3108 LP  0  0  0  0  0  0  0  0  0  0  0  0  # atno 17370 bound_to 10713
  156.3546  130.3836  149.7301 LP  0  0  0  0  0  0  0  0  0  0  0  0  # atno 17371 bound_to 10713
  140.8984  133.7797  155.9652 LP  0  0  0  0  0  0  0  0  0  0  0  0  # atno 17394 bound_to 11000
  140.8678  134.2763  157.5205 LP  0  0  0  0  0  0  0  0  0  0  0  0  # atno 17395 bound_to 11000

$$$$
