AV-unprocessed.smi:3314|AV-procd|sdf|12741|dock5
  -GOLD-   2272019 83D 1   1.00000     0.00000
 Structure written by MMmdl.
 38 39  0  0  0  0  0  0  0  0  2 V2000
  153.5434  140.9562  159.6725 C   0  0  0  0  0  0  0  0  0  0  0  0
  152.6337  141.9512  158.9818 C   0  0  0  0  0  0  0  0  0  0  0  0
  152.5990  143.3001  159.3922 C   0  0  0  0  0  0  0  0  0  0  0  0
  151.7328  144.1944  158.7318 C   0  0  0  0  0  0  0  0  0  0  0  0
  151.6294  145.6548  159.1180 C   0  0  0  0  0  0  0  0  0  0  0  0
  150.9577  143.7491  157.7181 N   0  3  0  0  0  0  0  0  0  0  0  0
  150.9580  142.4702  157.2757 C   0  0  0  0  0  0  0  0  0  0  0  0
  150.0699  142.1601  156.2098 N   0  0  0  0  0  0  0  0  0  0  0  0
  150.1598  141.1875  155.2833 C   0  0  0  0  0  0  0  0  0  0  0  0
  151.0883  140.3831  155.2015 O   0  0  0  0  0  0  0  0  0  0  0  0
  148.9957  141.1327  154.2858 C   0  0  2  0  0  0  0  0  0  0  0  0
  147.8211  142.0656  154.6596 C   0  0  0  0  0  0  0  0  0  0  0  0
  146.7142  141.9367  153.7215 N   0  0  0  0  0  0  0  0  0  0  0  0
  145.6103  142.8187  154.0685 C   0  0  0  0  0  0  0  0  0  0  0  0
  146.2896  140.5450  153.6546 C   0  0  0  0  0  0  0  0  0  0  0  0
  147.4575  139.6131  153.2891 C   0  0  0  0  0  0  0  0  0  0  0  0
  148.5217  139.7879  154.2208 O   0  0  0  0  0  0  0  0  0  0  0  0
  151.8047  141.5319  157.9194 C   0  0  0  0  0  0  0  0  0  0  0  0
  154.1339  141.4326  160.4557 H   0  0  0  0  0  0  0  0  0  0  0  0
  154.2303  140.5092  158.9532 H   0  0  0  0  0  0  0  0  0  0  0  0
  152.9551  140.1587  160.1270 H   0  0  0  0  0  0  0  0  0  0  0  0
  153.2235  143.6435  160.2044 H   0  0  0  0  0  0  0  0  0  0  0  0
  152.3229  145.8983  159.9235 H   0  0  0  0  0  0  0  0  0  0  0  0
  150.6195  145.8875  159.4565 H   0  0  0  0  0  0  0  0  0  0  0  0
  151.8625  146.2920  158.2645 H   0  0  0  0  0  0  0  0  0  0  0  0
  149.2844  142.7858  156.1050 H   0  0  0  0  0  0  0  0  0  0  0  0
  149.3861  141.4169  153.3067 H   0  0  0  0  0  0  0  0  0  0  0  0
  147.4745  141.8361  155.6689 H   0  0  0  0  0  0  0  0  0  0  0  0
  148.1658  143.1005  154.6753 H   0  0  0  0  0  0  0  0  0  0  0  0
  144.8062  142.7369  153.3366 H   0  0  0  0  0  0  0  0  0  0  0  0
  145.9377  143.8588  154.0864 H   0  0  0  0  0  0  0  0  0  0  0  0
  145.2030  142.5733  155.0502 H   0  0  0  0  0  0  0  0  0  0  0  0
  145.8717  140.2395  154.6153 H   0  0  0  0  0  0  0  0  0  0  0  0
  145.4927  140.4356  152.9182 H   0  0  0  0  0  0  0  0  0  0  0  0
  147.1329  138.5728  153.3087 H   0  0  0  0  0  0  0  0  0  0  0  0
  147.8135  139.8188  152.2786 H   0  0  0  0  0  0  0  0  0  0  0  0
  151.8279  140.4931  157.6290 H   0  0  0  0  0  0  0  0  0  0  0  0
  150.3396  144.4196  157.2605 H   0  0  0  0  0  0  0  0  0  0  0  0
  1  2  1  0  0  0  0
  1 19  1  0  0  0  0
  1 20  1  0  0  0  0
  1 21  1  0  0  0  0
  2 18  1  0  0  0  0
  2  3  2  0  0  0  0
  3  4  1  0  0  0  0
  3 22  1  0  0  0  0
  4  5  1  0  0  0  0
  4  6  2  0  0  0  0
  5 23  1  0  0  0  0
  5 24  1  0  0  0  0
  5 25  1  0  0  0  0
  6  7  1  0  0  0  0
  6 38  1  0  0  0  0
  7  8  1  0  0  0  0
  7 18  2  0  0  0  0
  8  9  1  0  0  0  0
  8 26  1  0  0  0  0
  9 10  2  0  0  0  0
  9 11  1  0  0  0  0
 11 17  1  0  0  0  0
 11 12  1  0  0  0  0
 11 27  1  0  0  0  0
 12 13  1  0  0  0  0
 12 28  1  0  0  0  0
 12 29  1  0  0  0  0
 13 14  1  0  0  0  0
 13 15  1  0  0  0  0
 14 30  1  0  0  0  0
 14 31  1  0  0  0  0
 14 32  1  0  0  0  0
 15 16  1  0  0  0  0
 15 33  1  0  0  0  0
 15 34  1  0  0  0  0
 16 17  1  0  0  0  0
 16 35  1  0  0  0  0
 16 36  1  0  0  0  0
 18 37  1  0  0  0  0
M  CHG  1   6   1
M  END
> <s_m_source_file>
AV-unprocessed.smi

> <i_m_source_file_index>
3314

> <i_lp_mmshare_version>
43012

> <i_f3d_flags>
0

> <s_epik_input>
W0NIM11jMVtjSF1jKFtDSDNdKW5jKFtjSF0xKVtOSF1DKD1PKVtDQEBIXTJbQ0gyXU4oW0NIM10pW0NIMl1bQ0gyXU8y

> <s_epik_cmdline>
J2VwaWtfcHl0aG9uJywgJy1waCcsICc3LjAnLCAnLXRuJywgJzgnLCAnLW1hJywgJzIwMCcsICctbWV0YWxfYmluZGluZycsICctaW1hZScsICc8aW5maWxlLm1hZT4nLCAnLW9tYWUnLCAnPG91dGZpbGUubWFlPic=

> <r_epik_Ionization_Penalty>
2.57421

> <r_epik_Ionization_Penalty_Charging>
1.80498

> <r_epik_Ionization_Penalty_Neutral>
0.76923

> <r_epik_State_Penalty>
2.63884

> <r_epik_Charging_Adjusted_Penalty>
4.44382

> <i_epik_Tot_Q>
1

> <i_epik_Tot_abs_Q>
1

> <r_epik_Metal_State_Penalty>
6.15142

> <b_epik_Metal_Only>
0

> <s_lp_Force_Field>
OPLS_2005

> <r_lp_Energy>
30.3211

> <b_lp_Chiralities_Consistent>
1

> <s_lp_Variant>
AV-unprocessed.smi:3314-11

> <Gold.Version>
5.8.1

> <Gold.Id.Protein>
6NUR|6NUR_protein|mol2

> <Gold.PLP.Fitness>
43.9636

> <Gold.PLP.PLP>
-36.3822

> <Gold.PLP.part.hbond>
-2.9032

> <Gold.PLP.part.metal>
0.0000

> <Gold.PLP.part.buried>
2.2722

> <Gold.PLP.part.nonpolar>
-35.3088

> <Gold.PLP.part.repulsive>
0.4553

> <Gold.PLP.ligand.clash>
0.6180

> <Gold.PLP.ligand.torsion>
0.3245

> <Gold.PLP.Chemscore.Hbond>
2.9487

> <Gold.PLP.Chemscore.CHOScore>
0.0000

> <Gold.PLP.Chemscore.Metal>
0.0000

> <Gold.Chemscore.Hbonds>
donor molecule, donor type, donor heavy atom, donor atom, acceptor molecule, acceptor atom, score
      L1  H     6    38       P1  8028  1.32
      L1  H     8    26       P1  8028  0.82
      P1  H  7989  7998       L1    10  0.80

> <Gold.PLP.Chemscore.Internal.Correction>
0.0023

> <Gold.Rescore>
     Score         DG    S(hbond)    S(metal)    S(lipo)     H(rot)  DE(clash)    DE(int)     intcor
     15.68     -18.45       1.18        0.00      98.93       1.00       1.28       1.49       ----

> <Gold.Chemscore.Fitness>
15.6820

> <Gold.Chemscore.DG>
-18.4455

> <Gold.Chemscore.ZeroCoef>
-5.4800

> <Gold.Chemscore.Hbond>
1.1830

> <Gold.Chemscore.Metal>
0.0000

> <Gold.Chemscore.Lipo>
98.9271

> <Gold.Chemscore.Internal_Hbond>
0.0000

> <Gold.Chemscore.DEClash>
1.2781

> <Gold.Chemscore.DEInternal>
1.4855

> <Gold.Chemscore.Rot>
1.0000

> <Gold.Chemscore.Internal.Correction>
   9.000000E+99

> <Gold.Chemscore.Hbonds>
donor molecule, donor type, donor heavy atom, donor atom, acceptor molecule, acceptor atom, score
      L1  H     6    38       P1  8028  0.41
      L1  H     8    26       P1  8028  0.74
      P1  H  7989  7998       L1    10  0.11

> <Gold.Chemscore.Hbond.Weighted>
-3.9511

> <Gold.Chemscore.Metal.Weighted>
-0.0000

> <Gold.Chemscore.Lipo.Weighted>
-11.5745

> <Gold.Chemscore.Internal_Hbond.Weighted>
0.0000

> <Gold.Chemscore.DEClash.Weighted>
1.2781

> <Gold.Chemscore.DEInternal.Weighted>
1.4855

> <Gold.Chemscore.Rot.Weighted>
2.5600

> <Gold.Chemscore.Internal.Correction.Weighted>
   9.000000E+99

> <Gold.Protein.RotatedTorsions>
[ 6907 6896 6895 6894 ] final  134.69 input  -60.11 | X-H torsion
[ 7974 7965 7964 7962 ] final -105.06 input  175.53 | X-H torsion
[ 8008 7997 7996 7995 ] final  -34.24 input   59.86 | X-H torsion
[ 10167 10162 10161 10158 ] final   60.72 input  -65.29 | X-H torsion
[ 10718 10713 10712 10709 ] final  -14.52 input   66.30 | X-H torsion
[ 10763 10752 10751 10750 ] final  136.38 input  -60.55 | X-H torsion
[ 11005 11000 10999 10996 ] final   60.77 input  -57.11 | X-H torsion

> <Gold.Protein.ActiveResidues>
 VAL166  LYS551  ARG553  GLY616  TRP617  ASP618  TYR619  PRO620  LYS621  CYS622 
 ASP623  PHE694  ASN695  SER759  ASP760  ASP761  ALA762  ILE779  LEU786  VAL792 
 PHE793  MET794  SER795  GLU796  ALA797  LYS798  CYS799  TRP800  GLU811  SER814 

> <Gold.Protein.RotatedAtoms>
  152.3086  133.5729  159.5665 H   0  0  0  0  0  0  0  0  0  0  0  0  # atno 6907 bound_to 6896
  150.7312  134.0186  159.3702 H   0  0  0  0  0  0  0  0  0  0  0  0  # atno 6908 bound_to 6896
  151.8080  135.0689  160.0460 H   0  0  0  0  0  0  0  0  0  0  0  0  # atno 6909 bound_to 6896
  145.2352  140.9185  143.3181 H   0  0  0  0  0  0  0  0  0  0  0  0  # atno 7974 bound_to 7965
  154.4126  140.1689  156.2018 H   0  0  0  0  0  0  0  0  0  0  0  0  # atno 8008 bound_to 7997
  155.9517  140.3400  155.6390 H   0  0  0  0  0  0  0  0  0  0  0  0  # atno 8009 bound_to 7997
  155.6861  140.0728  157.2457 H   0  0  0  0  0  0  0  0  0  0  0  0  # atno 8010 bound_to 7997
  140.1625  144.4356  150.6702 H   0  0  0  0  0  0  0  0  0  0  0  0  # atno 10167 bound_to 10162
  156.6147  130.4859  149.6187 H   0  0  0  0  0  0  0  0  0  0  0  0  # atno 10718 bound_to 10713
  153.8555  135.3074  155.3435 H   0  0  0  0  0  0  0  0  0  0  0  0  # atno 10763 bound_to 10752
  154.7872  135.4803  153.9975 H   0  0  0  0  0  0  0  0  0  0  0  0  # atno 10764 bound_to 10752
  153.1493  135.6840  153.9001 H   0  0  0  0  0  0  0  0  0  0  0  0  # atno 10765 bound_to 10752
  140.0208  134.6155  155.9642 H   0  0  0  0  0  0  0  0  0  0  0  0  # atno 11005 bound_to 11000
  144.9639  139.3950  143.6342 LP  0  0  0  0  0  0  0  0  0  0  0  0  # atno 17320 bound_to 7965
  146.3343  139.8705  142.8841 LP  0  0  0  0  0  0  0  0  0  0  0  0  # atno 17321 bound_to 7965
  140.6634  143.2259  151.5802 LP  0  0  0  0  0  0  0  0  0  0  0  0  # atno 17342 bound_to 10162
  139.5374  144.2742  152.1281 LP  0  0  0  0  0  0  0  0  0  0  0  0  # atno 17343 bound_to 10162
  156.2360  130.6823  151.1510 LP  0  0  0  0  0  0  0  0  0  0  0  0  # atno 17370 bound_to 10713
  157.7244  131.0660  150.5995 LP  0  0  0  0  0  0  0  0  0  0  0  0  # atno 17371 bound_to 10713
  141.1772  133.6542  156.4877 LP  0  0  0  0  0  0  0  0  0  0  0  0  # atno 17394 bound_to 11000
  140.4390  134.7033  157.4982 LP  0  0  0  0  0  0  0  0  0  0  0  0  # atno 17395 bound_to 11000

$$$$
