AV-unprocessed.smi:658|AV-procd|sdf|3235|dock9
  -GOLD-   22720 0183D 1   1.00000     0.00000
 Structure written by MMmdl.
 37 37  0  0  0  0  0  0  0  0  3 V2000
  147.7803  133.2016  153.0319 C   0  0  0  0  0  0  0  0  0  0  0  0
  146.7424  134.3379  153.0652 C   0  0  1  0  0  0  0  0  0  0  0  0
  147.3410  135.5154  153.7316 N   0  3  0  0  0  0  0  0  0  0  0  0
  147.8857  135.2564  155.0798 C   0  0  0  0  0  0  0  0  0  0  0  0
  148.8598  136.3620  155.5011 C   0  0  0  0  0  0  0  0  0  0  0  0
  150.3114  136.0543  155.0985 C   0  0  0  0  0  0  0  0  0  0  0  0
  151.2391  137.5848  154.6563 S   0  0  0  0  0  0  0  0  0  0  0  0
  152.2598  137.0084  153.5477 N   0  5  0  0  0  0  0  0  0  0  0  0
  150.2546  138.5155  154.0829 O   0  0  0  0  0  0  0  0  0  0  0  0
  151.9367  137.9949  155.8837 O   0  0  0  0  0  0  0  0  0  0  0  0
  146.2178  134.7265  151.6568 C   0  0  2  0  0  0  0  0  0  0  0  0
  145.4182  136.0438  151.6599 C   0  0  0  0  0  0  0  0  0  0  0  0
  145.4218  133.6624  151.0584 N   0  0  0  0  0  0  0  0  0  0  0  0
  145.8045  132.3702  150.7613 C   0  0  0  0  0  0  0  0  0  0  0  0
  144.7236  131.7391  150.2157 C   0  0  0  0  0  0  0  0  0  0  0  0
  143.7126  132.7400  150.2142 C   0  0  0  0  0  0  0  0  0  0  0  0
  144.1329  133.8891  150.7177 N   0  0  0  0  0  0  0  0  0  0  0  0
  147.3563  132.2760  152.6421 H   0  0  0  0  0  0  0  0  0  0  0  0
  148.1527  132.9828  154.0331 H   0  0  0  0  0  0  0  0  0  0  0  0
  148.6355  133.4648  152.4085 H   0  0  0  0  0  0  0  0  0  0  0  0
  145.8992  133.9833  153.6612 H   0  0  0  0  0  0  0  0  0  0  0  0
  148.0867  135.8723  153.1517 H   0  0  0  0  0  0  0  0  0  0  0  0
  147.0732  135.1806  155.8039 H   0  0  0  0  0  0  0  0  0  0  0  0
  148.3992  134.2941  155.0710 H   0  0  0  0  0  0  0  0  0  0  0  0
  148.5525  137.2970  155.0316 H   0  0  0  0  0  0  0  0  0  0  0  0
  148.7900  136.5239  156.5774 H   0  0  0  0  0  0  0  0  0  0  0  0
  150.8429  135.5891  155.9281 H   0  0  0  0  0  0  0  0  0  0  0  0
  150.3617  135.3677  154.2529 H   0  0  0  0  0  0  0  0  0  0  0  0
  151.7331  136.8455  152.6812 H   0  0  0  0  0  0  0  0  0  0  0  0
  147.0821  134.8706  151.0062 H   0  0  0  0  0  0  0  0  0  0  0  0
  146.0354  136.8875  151.9689 H   0  0  0  0  0  0  0  0  0  0  0  0
  144.5647  135.9929  152.3368 H   0  0  0  0  0  0  0  0  0  0  0  0
  145.0376  136.2718  150.6635 H   0  0  0  0  0  0  0  0  0  0  0  0
  146.8024  132.0087  150.9616 H   0  0  0  0  0  0  0  0  0  0  0  0
  144.6639  130.7181  149.8688 H   0  0  0  0  0  0  0  0  0  0  0  0
  142.6932  132.6664  149.8652 H   0  0  0  0  0  0  0  0  0  0  0  0
  146.6301  136.2285  153.8111 H   0  0  0  0  0  0  0  0  0  0  0  0
  1  2  1  0  0  0  0
  1 18  1  0  0  0  0
  1 19  1  0  0  0  0
  1 20  1  0  0  0  0
  2  3  1  0  0  0  0
  2 11  1  0  0  0  0
  2 21  1  0  0  0  0
  3  4  1  0  0  0  0
  3 22  1  0  0  0  0
  3 37  1  0  0  0  0
  4  5  1  0  0  0  0
  4 23  1  0  0  0  0
  4 24  1  0  0  0  0
  5  6  1  0  0  0  0
  5 25  1  0  0  0  0
  5 26  1  0  0  0  0
  6  7  1  0  0  0  0
  6 27  1  0  0  0  0
  6 28  1  0  0  0  0
  7  8  1  0  0  0  0
  7  9  2  0  0  0  0
  7 10  2  0  0  0  0
  8 29  1  0  0  0  0
 11 12  1  0  0  0  0
 11 13  1  0  0  0  0
 11 30  1  0  0  0  0
 12 31  1  0  0  0  0
 12 32  1  0  0  0  0
 12 33  1  0  0  0  0
 13 17  1  0  0  0  0
 13 14  1  0  0  0  0
 14 15  2  0  0  0  0
 14 34  1  0  0  0  0
 15 16  1  0  0  0  0
 15 35  1  0  0  0  0
 16 17  2  0  0  0  0
 16 36  1  0  0  0  0
M  CHG  1   3   1
M  CHG  1   8  -1
M  END
> <s_m_source_file>
AV-unprocessed.smi

> <i_m_source_file_index>
658

> <i_lp_mmshare_version>
43012

> <i_f3d_flags>
0

> <s_epik_input>
bjFbY0hdW2NIXVtjSF1uMVtDQEBIXShbQ0gzXSlbQ0BIXShbQ0gzXSlbTkhdW0NIMl1bQ0gyXVtDSDJdUyg9TykoPU8pW05IMl0=

> <s_epik_cmdline>
J2VwaWtfcHl0aG9uJywgJy1waCcsICc3LjAnLCAnLXRuJywgJzgnLCAnLW1hJywgJzIwMCcsICctbWV0YWxfYmluZGluZycsICctaW1hZScsICc8aW5maWxlLm1hZT4nLCAnLW9tYWUnLCAnPG91dGZpbGUubWFlPic=

> <r_lp_tautomer_probability>
1

> <r_epik_Ionization_Penalty>
4.63642

> <r_epik_Ionization_Penalty_Charging>
4.63641

> <r_epik_Ionization_Penalty_Neutral>
1.08396e-05

> <r_epik_State_Penalty>
4.63466

> <r_epik_Charging_Adjusted_Penalty>
9.27106

> <i_epik_Tot_Q>
0

> <i_epik_Tot_abs_Q>
2

> <r_epik_Metal_State_Penalty>
0.890424

> <b_epik_Metal_Only>
1

> <s_lp_Force_Field>
OPLS_2005

> <r_lp_Energy>
-2.21025

> <b_lp_Chiralities_Consistent>
1

> <s_lp_Variant>
AV-unprocessed.smi:658-6

> <Gold.Version>
5.8.1

> <Gold.Id.Protein>
6NUR|6NUR_protein|mol2

> <Gold.PLP.Fitness>
46.6932

> <Gold.PLP.PLP>
-27.9939

> <Gold.PLP.part.hbond>
-3.0000

> <Gold.PLP.part.metal>
0.0000

> <Gold.PLP.part.buried>
-2.8943

> <Gold.PLP.part.nonpolar>
-21.9238

> <Gold.PLP.part.repulsive>
0.3949

> <Gold.PLP.ligand.clash>
0.0000

> <Gold.PLP.ligand.torsion>
1.2168

> <Gold.PLP.Chemscore.Hbond>
5.0000

> <Gold.PLP.Chemscore.CHOScore>
1.9825

> <Gold.PLP.Chemscore.Metal>
0.0000

> <Gold.Chemscore.Hbonds>
donor molecule, donor type, donor heavy atom, donor atom, acceptor molecule, acceptor atom, score
      L1  H     3    22       P1  7948  2.00
      L1  H     8    29       P1  7949  1.00
      P1  H 10752 10765       L1     8  2.00
      L1  C    14    34       P1 10747  0.94
      L1  C    16    36       P1 10186  1.00

> <Gold.PLP.Chemscore.Internal.Correction>
0.1853

> <Gold.Rescore>
     Score         DG    S(hbond)    S(metal)    S(lipo)     H(rot)  DE(clash)    DE(int)     intcor
     12.22     -13.74       2.76        0.00      58.27       3.04       0.30       1.22       ----

> <Gold.Chemscore.Fitness>
12.2155

> <Gold.Chemscore.DG>
-13.7407

> <Gold.Chemscore.ZeroCoef>
-5.4800

> <Gold.Chemscore.Hbond>
2.7627

> <Gold.Chemscore.Metal>
0.0000

> <Gold.Chemscore.Lipo>
58.2737

> <Gold.Chemscore.Internal_Hbond>
0.0000

> <Gold.Chemscore.DEClash>
0.3023

> <Gold.Chemscore.DEInternal>
1.2229

> <Gold.Chemscore.Rot>
3.0409

> <Gold.Chemscore.Internal.Correction>
   9.000000E+99

> <Gold.Chemscore.Hbonds>
donor molecule, donor type, donor heavy atom, donor atom, acceptor molecule, acceptor atom, score
      L1  H     3    22       P1  7948  0.98
      L1  H     8    29       P1  7949  0.95
      P1  H 10752 10765       L1     8  0.65

> <Gold.Chemscore.Hbond.Weighted>
-9.2275

> <Gold.Chemscore.Metal.Weighted>
-0.0000

> <Gold.Chemscore.Lipo.Weighted>
-6.8180

> <Gold.Chemscore.Internal_Hbond.Weighted>
0.0000

> <Gold.Chemscore.DEClash.Weighted>
0.3023

> <Gold.Chemscore.DEInternal.Weighted>
1.2229

> <Gold.Chemscore.Rot.Weighted>
7.7848

> <Gold.Chemscore.Internal.Correction.Weighted>
   9.000000E+99

> <Gold.Protein.RotatedTorsions>
[ 6907 6896 6895 6894 ] final  118.45 input  -60.11 | X-H torsion
[ 7974 7965 7964 7962 ] final  -78.31 input  175.53 | X-H torsion
[ 8008 7997 7996 7995 ] final  -43.66 input   59.86 | X-H torsion
[ 10167 10162 10161 10158 ] final -148.36 input  -65.29 | X-H torsion
[ 10718 10713 10712 10709 ] final -122.27 input   66.30 | X-H torsion
[ 10763 10752 10751 10750 ] final  136.39 input  -60.55 | X-H torsion
[ 11005 11000 10999 10996 ] final   85.05 input  -57.11 | X-H torsion

> <Gold.Protein.ActiveResidues>
 VAL166  LYS551  ARG553  GLY616  TRP617  ASP618  TYR619  PRO620  LYS621  CYS622 
 ASP623  PHE694  ASN695  SER759  ASP760  ASP761  ALA762  ILE779  LEU786  VAL792 
 PHE793  MET794  SER795  GLU796  ALA797  LYS798  CYS799  TRP800  GLU811  SER814 

> <Gold.Protein.RotatedAtoms>
  152.4542  133.7689  159.6787 H   0  0  0  0  0  0  0  0  0  0  0  0  # atno 6907 bound_to 6896
  150.8463  133.7846  159.3048 H   0  0  0  0  0  0  0  0  0  0  0  0  # atno 6908 bound_to 6896
  151.5456  135.1071  159.9989 H   0  0  0  0  0  0  0  0  0  0  0  0  # atno 6909 bound_to 6896
  145.5882  140.9435  143.1307 H   0  0  0  0  0  0  0  0  0  0  0  0  # atno 7974 bound_to 7965
  154.3997  140.1442  156.3555 H   0  0  0  0  0  0  0  0  0  0  0  0  # atno 8008 bound_to 7997
  155.8230  140.3468  155.5504 H   0  0  0  0  0  0  0  0  0  0  0  0  # atno 8009 bound_to 7997
  155.8268  140.0906  157.1807 H   0  0  0  0  0  0  0  0  0  0  0  0  # atno 8010 bound_to 7997
  139.7539  143.8477  152.2592 H   0  0  0  0  0  0  0  0  0  0  0  0  # atno 10167 bound_to 10162
  156.1405  130.6462  150.9763 H   0  0  0  0  0  0  0  0  0  0  0  0  # atno 10718 bound_to 10713
  153.8557  135.3074  155.3435 H   0  0  0  0  0  0  0  0  0  0  0  0  # atno 10763 bound_to 10752
  154.7871  135.4803  153.9974 H   0  0  0  0  0  0  0  0  0  0  0  0  # atno 10764 bound_to 10752
  153.1492  135.6839  153.9002 H   0  0  0  0  0  0  0  0  0  0  0  0  # atno 10765 bound_to 10752
  139.8982  134.8260  156.2529 H   0  0  0  0  0  0  0  0  0  0  0  0  # atno 11005 bound_to 11000
  144.7363  139.7576  143.7328 LP  0  0  0  0  0  0  0  0  0  0  0  0  # atno 17320 bound_to 7965
  146.1667  139.4801  142.9954 LP  0  0  0  0  0  0  0  0  0  0  0  0  # atno 17321 bound_to 7965
  139.8464  144.7186  150.9268 LP  0  0  0  0  0  0  0  0  0  0  0  0  # atno 17342 bound_to 10162
  140.7800  143.3938  151.1265 LP  0  0  0  0  0  0  0  0  0  0  0  0  # atno 17343 bound_to 10162
  157.6571  131.0887  150.7922 LP  0  0  0  0  0  0  0  0  0  0  0  0  # atno 17370 bound_to 10713
  156.7998  130.4917  149.5371 LP  0  0  0  0  0  0  0  0  0  0  0  0  # atno 17371 bound_to 10713
  141.0212  133.7040  156.1271 LP  0  0  0  0  0  0  0  0  0  0  0  0  # atno 17394 bound_to 11000
  140.7231  134.4337  157.5573 LP  0  0  0  0  0  0  0  0  0  0  0  0  # atno 17395 bound_to 11000

$$$$
