AV-unprocessed.smi:2058|AV-procd|sdf|8345|dock4
  -GOLD-   2272011 13D 1   1.00000     0.00000
 Structure written by MMmdl.
 42 43  0  0  0  0  0  0  0  0  1 V2000
  146.9877  133.4537  154.7444 C   0  0  0  0  0  0  0  0  0  0  0  0
  148.4906  133.4410  154.4259 C   0  0  1  0  0  0  0  0  0  0  0  0
  148.8250  132.5423  153.2185 C   0  0  0  0  0  0  0  0  0  0  0  0
  148.0064  132.8699  152.1159 O   0  0  0  0  0  0  0  0  0  0  0  0
  148.9363  134.8101  154.1803 N   0  0  0  0  0  0  0  0  0  0  0  0
  149.3164  135.6853  155.1222 C   0  0  0  0  0  0  0  0  0  0  0  0
  149.3425  135.4212  156.3240 O   0  0  0  0  0  0  0  0  0  0  0  0
  149.6782  136.8580  154.5749 N   0  0  0  0  0  0  0  0  0  0  0  0
  150.1513  138.0285  155.2267 C   0  0  0  0  0  0  0  0  0  0  0  0
  150.3984  137.9608  156.6113 C   0  0  0  0  0  0  0  0  0  0  0  0
  150.8781  139.1015  157.2816 C   0  0  0  0  0  0  0  0  0  0  0  0
  151.1101  140.2868  156.5458 C   0  0  0  0  0  0  0  0  0  0  0  0
  151.5824  141.4445  157.2008 N   0  0  0  0  0  0  0  0  0  0  0  0
  152.0492  141.2349  158.5727 C   0  0  0  0  0  0  0  0  0  0  0  0
  152.8991  142.4215  159.0576 C   0  0  0  0  0  0  0  0  0  0  0  0
  152.1452  143.7485  158.8869 C   0  0  0  0  0  0  0  0  0  0  0  0
  151.6889  143.9100  157.4294 C   0  0  0  0  0  0  0  0  0  0  0  0
  150.8589  142.6979  156.9725 C   0  0  0  0  0  0  0  0  0  0  0  0
  150.8947  140.3450  155.2087 N   0  0  0  0  0  0  0  0  0  0  0  0
  150.4311  139.2501  154.5697 C   0  0  0  0  0  0  0  0  0  0  0  0
  146.6257  132.4527  154.9802 H   0  0  0  0  0  0  0  0  0  0  0  0
  146.4057  133.8276  153.9016 H   0  0  0  0  0  0  0  0  0  0  0  0
  146.7741  134.0884  155.6050 H   0  0  0  0  0  0  0  0  0  0  0  0
  149.0181  133.0638  155.3046 H   0  0  0  0  0  0  0  0  0  0  0  0
  149.8744  132.6360  152.9371 H   0  0  0  0  0  0  0  0  0  0  0  0
  148.6495  131.4925  153.4568 H   0  0  0  0  0  0  0  0  0  0  0  0
  148.0242  132.1497  151.5045 H   0  0  0  0  0  0  0  0  0  0  0  0
  148.9525  135.1135  153.2179 H   0  0  0  0  0  0  0  0  0  0  0  0
  149.6747  136.8964  153.5662 H   0  0  0  0  0  0  0  0  0  0  0  0
  150.2200  137.0468  157.1590 H   0  0  0  0  0  0  0  0  0  0  0  0
  151.0747  139.0528  158.3423 H   0  0  0  0  0  0  0  0  0  0  0  0
  151.1795  141.1130  159.2199 H   0  0  0  0  0  0  0  0  0  0  0  0
  152.6346  140.3209  158.6640 H   0  0  0  0  0  0  0  0  0  0  0  0
  153.1752  142.2795  160.1027 H   0  0  0  0  0  0  0  0  0  0  0  0
  153.8316  142.4561  158.4925 H   0  0  0  0  0  0  0  0  0  0  0  0
  151.2785  143.7677  159.5486 H   0  0  0  0  0  0  0  0  0  0  0  0
  152.7817  144.5845  159.1785 H   0  0  0  0  0  0  0  0  0  0  0  0
  151.1054  144.8241  157.3180 H   0  0  0  0  0  0  0  0  0  0  0  0
  152.5612  144.0185  156.7838 H   0  0  0  0  0  0  0  0  0  0  0  0
  150.6214  142.8076  155.9136 H   0  0  0  0  0  0  0  0  0  0  0  0
  149.9125  142.6686  157.5145 H   0  0  0  0  0  0  0  0  0  0  0  0
  150.3073  139.3698  153.5049 H   0  0  0  0  0  0  0  0  0  0  0  0
  1  2  1  0  0  0  0
  1 21  1  0  0  0  0
  1 22  1  0  0  0  0
  1 23  1  0  0  0  0
  2  3  1  0  0  0  0
  2  5  1  0  0  0  0
  2 24  1  0  0  0  0
  3  4  1  0  0  0  0
  3 25  1  0  0  0  0
  3 26  1  0  0  0  0
  4 27  1  0  0  0  0
  5  6  1  0  0  0  0
  5 28  1  0  0  0  0
  6  7  2  0  0  0  0
  6  8  1  0  0  0  0
  8  9  1  0  0  0  0
  8 29  1  0  0  0  0
  9 20  1  0  0  0  0
  9 10  2  0  0  0  0
 10 11  1  0  0  0  0
 10 30  1  0  0  0  0
 11 12  2  0  0  0  0
 11 31  1  0  0  0  0
 12 13  1  0  0  0  0
 12 19  1  0  0  0  0
 13 18  1  0  0  0  0
 13 14  1  0  0  0  0
 14 15  1  0  0  0  0
 14 32  1  0  0  0  0
 14 33  1  0  0  0  0
 15 16  1  0  0  0  0
 15 34  1  0  0  0  0
 15 35  1  0  0  0  0
 16 17  1  0  0  0  0
 16 36  1  0  0  0  0
 16 37  1  0  0  0  0
 17 18  1  0  0  0  0
 17 38  1  0  0  0  0
 17 39  1  0  0  0  0
 18 40  1  0  0  0  0
 18 41  1  0  0  0  0
 19 20  2  0  0  0  0
 20 42  1  0  0  0  0
M  END
> <s_m_source_file>
AV-unprocessed.smi

> <i_m_source_file_index>
2058

> <i_lp_mmshare_version>
43012

> <i_f3d_flags>
0

> <s_epik_input>
W09IXVtDSDJdW0NAQEhdKFtDSDNdKVtOSF1DKD1PKVtOSF1jMVtjSF1bY0hdYyhuW2NIXTEpTjJbQ0gyXVtDSDJdW0NIMl1bQ0gyXVtDSDJdMg==

> <s_epik_cmdline>
J2VwaWtfcHl0aG9uJywgJy1waCcsICc3LjAnLCAnLXRuJywgJzgnLCAnLW1hJywgJzIwMCcsICctbWV0YWxfYmluZGluZycsICctaW1hZScsICc8aW5maWxlLm1hZT4nLCAnLW9tYWUnLCAnPG91dGZpbGUubWFlPic=

> <r_lp_tautomer_probability>
1

> <r_epik_Ionization_Penalty>
0.104828

> <r_epik_Ionization_Penalty_Charging>
0

> <r_epik_Ionization_Penalty_Neutral>
0.104828

> <r_epik_State_Penalty>
0.0887547

> <r_epik_Charging_Adjusted_Penalty>
0.0887547

> <i_epik_Tot_Q>
0

> <i_epik_Tot_abs_Q>
0

> <r_epik_Metal_State_Penalty>
0.0759464

> <b_epik_Metal_Only>
0

> <s_lp_Force_Field>
OPLS_2005

> <r_lp_Energy>
18.2312

> <b_lp_Chiralities_Consistent>
1

> <s_lp_Variant>
AV-unprocessed.smi:2058-2

> <Gold.Version>
5.8.1

> <Gold.Id.Protein>
6NUR|6NUR_protein|mol2

> <Gold.PLP.Fitness>
45.4236

> <Gold.PLP.PLP>
-33.2190

> <Gold.PLP.part.hbond>
-4.0000

> <Gold.PLP.part.metal>
0.0000

> <Gold.PLP.part.buried>
-2.8429

> <Gold.PLP.part.nonpolar>
-26.3167

> <Gold.PLP.part.repulsive>
0.1207

> <Gold.PLP.ligand.clash>
0.0000

> <Gold.PLP.ligand.torsion>
0.6211

> <Gold.PLP.Chemscore.Hbond>
3.3420

> <Gold.PLP.Chemscore.CHOScore>
1.0000

> <Gold.PLP.Chemscore.Metal>
0.0000

> <Gold.Chemscore.Hbonds>
donor molecule, donor type, donor heavy atom, donor atom, acceptor molecule, acceptor atom, score
      L1  H     4    27       P1 10747  1.00
      L1  H     5    28       P1  7948  1.00
      L1  H     8    29       P1  7948  0.99
      P1  H  7989  7998       L1    19  0.35
      L1  C    20    42       P1  7957  1.00

> <Gold.PLP.Chemscore.Internal.Correction>
0.4208

> <Gold.Rescore>
     Score         DG    S(hbond)    S(metal)    S(lipo)     H(rot)  DE(clash)    DE(int)     intcor
     15.64     -17.77       2.33        0.00      83.23       2.05       0.08       2.05       ----

> <Gold.Chemscore.Fitness>
15.6445

> <Gold.Chemscore.DG>
-17.7725

> <Gold.Chemscore.ZeroCoef>
-5.4800

> <Gold.Chemscore.Hbond>
2.3327

> <Gold.Chemscore.Metal>
0.0000

> <Gold.Chemscore.Lipo>
83.2257

> <Gold.Chemscore.Internal_Hbond>
0.0000

> <Gold.Chemscore.DEClash>
0.0811

> <Gold.Chemscore.DEInternal>
2.0469

> <Gold.Chemscore.Rot>
2.0453

> <Gold.Chemscore.Internal.Correction>
   9.000000E+99

> <Gold.Chemscore.Hbonds>
donor molecule, donor type, donor heavy atom, donor atom, acceptor molecule, acceptor atom, score
      L1  H     4    27       P1 10747  0.91
      L1  H     5    28       P1  7948  0.34
      L1  H     8    29       P1  7948  0.61
      P1  H  7989  7998       L1    19  0.01

> <Gold.Chemscore.Hbond.Weighted>
-7.7911

> <Gold.Chemscore.Metal.Weighted>
-0.0000

> <Gold.Chemscore.Lipo.Weighted>
-9.7374

> <Gold.Chemscore.Internal_Hbond.Weighted>
0.0000

> <Gold.Chemscore.DEClash.Weighted>
0.0811

> <Gold.Chemscore.DEInternal.Weighted>
2.0469

> <Gold.Chemscore.Rot.Weighted>
5.2360

> <Gold.Chemscore.Internal.Correction.Weighted>
   9.000000E+99

> <Gold.Protein.RotatedTorsions>
[ 6907 6896 6895 6894 ] final -157.97 input  -60.11 | X-H torsion
[ 7974 7965 7964 7962 ] final  -15.65 input  175.53 | X-H torsion
[ 8008 7997 7996 7995 ] final  -69.48 input   59.86 | X-H torsion
[ 10167 10162 10161 10158 ] final  141.18 input  -65.29 | X-H torsion
[ 10718 10713 10712 10709 ] final -133.99 input   66.30 | X-H torsion
[ 10763 10752 10751 10750 ] final -129.86 input  -60.55 | X-H torsion
[ 11005 11000 10999 10996 ] final  120.03 input  -57.11 | X-H torsion

> <Gold.Protein.ActiveResidues>
 VAL166  LYS551  ARG553  GLY616  TRP617  ASP618  TYR619  PRO620  LYS621  CYS622 
 ASP623  PHE694  ASN695  SER759  ASP760  ASP761  ALA762  ILE779  LEU786  VAL792 
 PHE793  MET794  SER795  GLU796  ALA797  LYS798  CYS799  TRP800  GLU811  SER814 

> <Gold.Protein.RotatedAtoms>
  151.3110  133.4080  159.2646 H   0  0  0  0  0  0  0  0  0  0  0  0  # atno 6907 bound_to 6896
  151.0114  134.9400  159.8020 H   0  0  0  0  0  0  0  0  0  0  0  0  # atno 6908 bound_to 6896
  152.5301  134.3074  159.9153 H   0  0  0  0  0  0  0  0  0  0  0  0  # atno 6909 bound_to 6896
  146.2023  140.3523  142.8419 H   0  0  0  0  0  0  0  0  0  0  0  0  # atno 7974 bound_to 7965
  154.4942  140.0852  156.7660 H   0  0  0  0  0  0  0  0  0  0  0  0  # atno 8008 bound_to 7997
  155.4157  140.3443  155.4249 H   0  0  0  0  0  0  0  0  0  0  0  0  # atno 8009 bound_to 7997
  156.1371  140.1518  156.8966 H   0  0  0  0  0  0  0  0  0  0  0  0  # atno 8010 bound_to 7997
  139.5027  144.6187  151.6102 H   0  0  0  0  0  0  0  0  0  0  0  0  # atno 10167 bound_to 10162
  156.2507  130.7151  151.1049 H   0  0  0  0  0  0  0  0  0  0  0  0  # atno 10718 bound_to 10713
  154.8757  135.3881  154.3989 H   0  0  0  0  0  0  0  0  0  0  0  0  # atno 10763 bound_to 10752
  153.4716  135.7030  153.5995 H   0  0  0  0  0  0  0  0  0  0  0  0  # atno 10764 bound_to 10752
  153.4450  135.3847  155.2218 H   0  0  0  0  0  0  0  0  0  0  0  0  # atno 10765 bound_to 10752
  139.9169  134.9632  156.7745 H   0  0  0  0  0  0  0  0  0  0  0  0  # atno 11005 bound_to 11000
  144.8710  140.7273  143.6047 LP  0  0  0  0  0  0  0  0  0  0  0  0  # atno 17320 bound_to 7965
  145.3443  139.1723  143.4469 LP  0  0  0  0  0  0  0  0  0  0  0  0  # atno 17321 bound_to 7965
  140.5883  143.9824  150.6309 LP  0  0  0  0  0  0  0  0  0  0  0  0  # atno 17342 bound_to 10162
  140.2996  143.3269  152.0984 LP  0  0  0  0  0  0  0  0  0  0  0  0  # atno 17343 bound_to 10162
  157.7213  131.0679  150.6122 LP  0  0  0  0  0  0  0  0  0  0  0  0  # atno 17370 bound_to 10713
  156.6202  130.4404  149.5825 LP  0  0  0  0  0  0  0  0  0  0  0  0  # atno 17371 bound_to 10713
  140.6594  133.9659  155.7797 LP  0  0  0  0  0  0  0  0  0  0  0  0  # atno 17394 bound_to 11000
  141.0654  134.0285  157.3601 LP  0  0  0  0  0  0  0  0  0  0  0  0  # atno 17395 bound_to 11000

$$$$
