AV-unprocessed.smi:716|AV-procd|sdf|3488|dock4
  -GOLD-   22720 0483D 1   1.00000     0.00000
 Structure written by MMmdl.
 48 50  0  0  0  0  0  0  0  0  1 V2000
  151.0883  137.6976  153.8719 C   0  0  0  0  0  0  0  0  0  0  0  0
  152.3851  138.4346  154.2128 C   0  0  0  0  0  0  0  0  0  0  0  0
  152.0672  139.5960  154.9603 O   0  0  0  0  0  0  0  0  0  0  0  0
  152.1129  139.3806  156.3621 C   0  0  2  0  0  0  0  0  0  0  0  0
  151.5160  138.0468  156.8220 C   0  0  0  0  0  0  0  0  0  0  0  0
  150.9757  138.8253  158.0225 C   0  0  2  0  0  0  0  0  0  0  0  0
  149.6550  138.3650  158.4349 N   0  0  0  0  0  0  0  0  0  0  0  0
  149.3897  137.1390  158.9072 C   0  0  0  0  0  0  0  0  0  0  0  0
  150.2515  136.2714  159.0546 O   0  0  0  0  0  0  0  0  0  0  0  0
  147.9288  136.8672  159.2932 C   0  0  0  0  0  0  0  0  0  0  0  0
  147.7875  135.8555  160.3501 N   0  0  0  0  0  0  0  0  0  0  0  0
  147.9528  134.5510  159.9146 N   0  0  0  0  0  0  0  0  0  0  0  0
  147.8502  133.5568  160.7347 C   0  0  0  0  0  0  0  0  0  0  0  0
  148.0413  132.1760  160.1813 C   0  0  0  0  0  0  0  0  0  0  0  0
  147.5595  133.8104  162.1329 C   0  0  0  0  0  0  0  0  0  0  0  0
  147.4042  135.0831  162.5559 C   0  0  0  0  0  0  0  0  0  0  0  0
  147.5212  136.2162  161.6409 C   0  0  0  0  0  0  0  0  0  0  0  0
  147.3939  137.3876  161.9970 O   0  0  0  0  0  0  0  0  0  0  0  0
  150.9789  140.0979  157.1367 C   0  0  0  0  0  0  0  0  0  0  0  0
  149.7175  140.4723  156.3468 C   0  0  0  0  0  0  0  0  0  0  0  0
  149.9251  141.9017  155.8404 C   0  0  0  0  0  0  0  0  0  0  0  0
  150.9441  142.5330  156.7952 C   0  0  0  0  0  0  0  0  0  0  0  0
  151.3278  141.4312  157.7886 C   0  0  0  0  0  0  0  0  0  0  0  0
  151.2927  136.7972  153.2925 H   0  0  0  0  0  0  0  0  0  0  0  0
  150.4218  138.3296  153.2845 H   0  0  0  0  0  0  0  0  0  0  0  0
  150.5580  137.4005  154.7770 H   0  0  0  0  0  0  0  0  0  0  0  0
  153.0427  137.7806  154.7868 H   0  0  0  0  0  0  0  0  0  0  0  0
  152.9094  138.7102  153.2968 H   0  0  0  0  0  0  0  0  0  0  0  0
  153.0973  139.5735  156.7951 H   0  0  0  0  0  0  0  0  0  0  0  0
  150.7397  137.6706  156.1530 H   0  0  0  0  0  0  0  0  0  0  0  0
  152.2496  137.2785  157.0672 H   0  0  0  0  0  0  0  0  0  0  0  0
  151.7076  138.8759  158.8327 H   0  0  0  0  0  0  0  0  0  0  0  0
  148.8920  139.0210  158.3512 H   0  0  0  0  0  0  0  0  0  0  0  0
  147.4850  137.8127  159.6102 H   0  0  0  0  0  0  0  0  0  0  0  0
  147.3636  136.5600  158.4111 H   0  0  0  0  0  0  0  0  0  0  0  0
  148.0041  131.4257  160.9715 H   0  0  0  0  0  0  0  0  0  0  0  0
  149.0065  132.0868  159.6824 H   0  0  0  0  0  0  0  0  0  0  0  0
  147.2619  131.9378  159.4571 H   0  0  0  0  0  0  0  0  0  0  0  0
  147.4700  132.9836  162.8221 H   0  0  0  0  0  0  0  0  0  0  0  0
  147.1875  135.2708  163.5971 H   0  0  0  0  0  0  0  0  0  0  0  0
  149.5076  139.7847  155.5268 H   0  0  0  0  0  0  0  0  0  0  0  0
  148.8424  140.4607  156.9971 H   0  0  0  0  0  0  0  0  0  0  0  0
  150.3296  141.8856  154.8276 H   0  0  0  0  0  0  0  0  0  0  0  0
  148.9880  142.4583  155.8107 H   0  0  0  0  0  0  0  0  0  0  0  0
  151.8210  142.8607  156.2355 H   0  0  0  0  0  0  0  0  0  0  0  0
  150.5377  143.4050  157.3083 H   0  0  0  0  0  0  0  0  0  0  0  0
  150.7518  141.5552  158.7066 H   0  0  0  0  0  0  0  0  0  0  0  0
  152.3796  141.4972  158.0680 H   0  0  0  0  0  0  0  0  0  0  0  0
  1  2  1  0  0  0  0
  1 24  1  0  0  0  0
  1 25  1  0  0  0  0
  1 26  1  0  0  0  0
  2  3  1  0  0  0  0
  2 27  1  0  0  0  0
  2 28  1  0  0  0  0
  3  4  1  0  0  0  0
  4 19  1  0  0  0  0
  4  5  1  0  0  0  0
  4 29  1  0  0  0  0
  5  6  1  0  0  0  0
  5 30  1  0  0  0  0
  5 31  1  0  0  0  0
  6  7  1  0  0  0  0
  6 19  1  0  0  0  0
  6 32  1  0  0  0  0
  7  8  1  0  0  0  0
  7 33  1  0  0  0  0
  8  9  2  0  0  0  0
  8 10  1  0  0  0  0
 10 11  1  0  0  0  0
 10 34  1  0  0  0  0
 10 35  1  0  0  0  0
 11 17  1  0  0  0  0
 11 12  1  0  0  0  0
 12 13  2  0  0  0  0
 13 14  1  0  0  0  0
 13 15  1  0  0  0  0
 14 36  1  0  0  0  0
 14 37  1  0  0  0  0
 14 38  1  0  0  0  0
 15 16  2  0  0  0  0
 15 39  1  0  0  0  0
 16 17  1  0  0  0  0
 16 40  1  0  0  0  0
 17 18  2  0  0  0  0
 19 23  1  0  0  0  0
 19 20  1  0  0  0  0
 20 21  1  0  0  0  0
 20 41  1  0  0  0  0
 20 42  1  0  0  0  0
 21 22  1  0  0  0  0
 21 43  1  0  0  0  0
 21 44  1  0  0  0  0
 22 23  1  0  0  0  0
 22 45  1  0  0  0  0
 22 46  1  0  0  0  0
 23 47  1  0  0  0  0
 23 48  1  0  0  0  0
M  END
> <s_m_source_file>
AV-unprocessed.smi

> <i_m_source_file_index>
716

> <i_lp_mmshare_version>
43012

> <i_f3d_flags>
0

> <s_epik_input>
W0NIMl0xW0NIMl1bQ0gyXVtDSDJdQzEyW0NASF0oT1tDSDJdW0NIM10pW0NIMl1bQ0BIXTJbTkhdQyg9TylbQ0gyXW4zbmMoW0NIM10pW2NIXVtjSF1jMz1P

> <s_epik_cmdline>
J2VwaWtfcHl0aG9uJywgJy1waCcsICc3LjAnLCAnLXRuJywgJzgnLCAnLW1hJywgJzIwMCcsICctbWV0YWxfYmluZGluZycsICctaW1hZScsICc8aW5maWxlLm1hZT4nLCAnLW9tYWUnLCAnPG91dGZpbGUubWFlPic=

> <r_lp_tautomer_probability>
1

> <r_epik_Ionization_Penalty>
4.75561e-08

> <r_epik_Ionization_Penalty_Charging>
2.86617e-08

> <r_epik_Ionization_Penalty_Neutral>
1.88944e-08

> <r_epik_State_Penalty>
-0

> <r_epik_Charging_Adjusted_Penalty>
2.86617e-08

> <i_epik_Tot_Q>
0

> <i_epik_Tot_abs_Q>
0

> <r_epik_Metal_State_Penalty>
-0

> <b_epik_Metal_Only>
0

> <s_lp_Force_Field>
OPLS_2005

> <r_lp_Energy>
50.3273

> <b_lp_Chiralities_Consistent>
1

> <s_lp_Variant>
AV-unprocessed.smi:716-3

> <Gold.Version>
5.8.1

> <Gold.Id.Protein>
6NUR|6NUR_protein|mol2

> <Gold.PLP.Fitness>
48.2525

> <Gold.PLP.PLP>
-41.3345

> <Gold.PLP.part.hbond>
-4.0000

> <Gold.PLP.part.metal>
0.0000

> <Gold.PLP.part.buried>
-2.1942

> <Gold.PLP.part.nonpolar>
-34.5317

> <Gold.PLP.part.repulsive>
0.1896

> <Gold.PLP.ligand.clash>
0.0000

> <Gold.PLP.ligand.torsion>
1.3019

> <Gold.PLP.Chemscore.Hbond>
3.0594

> <Gold.PLP.Chemscore.CHOScore>
0.0000

> <Gold.PLP.Chemscore.Metal>
0.0000

> <Gold.Chemscore.Hbonds>
donor molecule, donor type, donor heavy atom, donor atom, acceptor molecule, acceptor atom, score
      P1  H  6896  6907       L1     9  0.96
      P1  H  6931  6943       L1    18  0.80
      P1  H  6934  6947       L1    18  0.67
      P1  H  7989  7998       L1     3  0.88

> <Gold.PLP.Chemscore.Internal.Correction>
0.3436

> <Gold.Rescore>
     Score         DG    S(hbond)    S(metal)    S(lipo)     H(rot)  DE(clash)    DE(int)     intcor
     18.22     -22.45       3.11        0.00      94.33       1.73       1.58       2.65       ----

> <Gold.Chemscore.Fitness>
18.2160

> <Gold.Chemscore.DG>
-22.4505

> <Gold.Chemscore.ZeroCoef>
-5.4800

> <Gold.Chemscore.Hbond>
3.1063

> <Gold.Chemscore.Metal>
0.0000

> <Gold.Chemscore.Lipo>
94.3291

> <Gold.Chemscore.Internal_Hbond>
0.0000

> <Gold.Chemscore.DEClash>
1.5841

> <Gold.Chemscore.DEInternal>
2.6504

> <Gold.Chemscore.Rot>
1.7348

> <Gold.Chemscore.Internal.Correction>
   9.000000E+99

> <Gold.Chemscore.Hbonds>
donor molecule, donor type, donor heavy atom, donor atom, acceptor molecule, acceptor atom, score
      P1  H  6896  6907       L1     9  0.92
      P1  H  6931  6943       L1    18  0.62
      P1  H  6934  6947       L1    18  0.65
      P1  H  7989  7998       L1     3  0.22

> <Gold.Chemscore.Hbond.Weighted>
-10.3751

> <Gold.Chemscore.Metal.Weighted>
-0.0000

> <Gold.Chemscore.Lipo.Weighted>
-11.0365

> <Gold.Chemscore.Internal_Hbond.Weighted>
0.0000

> <Gold.Chemscore.DEClash.Weighted>
1.5841

> <Gold.Chemscore.DEInternal.Weighted>
2.6504

> <Gold.Chemscore.Rot.Weighted>
4.4411

> <Gold.Chemscore.Internal.Correction.Weighted>
   9.000000E+99

> <Gold.Protein.RotatedTorsions>
[ 6907 6896 6895 6894 ] final  -21.29 input  -60.11 | X-H torsion
[ 7974 7965 7964 7962 ] final  -92.39 input  175.53 | X-H torsion
[ 8008 7997 7996 7995 ] final -126.47 input   59.86 | X-H torsion
[ 10167 10162 10161 10158 ] final   69.42 input  -65.29 | X-H torsion
[ 10718 10713 10712 10709 ] final  -53.66 input   66.30 | X-H torsion
[ 10763 10752 10751 10750 ] final   28.48 input  -60.55 | X-H torsion
[ 11005 11000 10999 10996 ] final  -22.55 input  -57.11 | X-H torsion

> <Gold.Protein.ActiveResidues>
 VAL166  LYS551  ARG553  GLY616  TRP617  ASP618  TYR619  PRO620  LYS621  CYS622 
 ASP623  PHE694  ASN695  SER759  ASP760  ASP761  ALA762  ILE779  LEU786  VAL792 
 PHE793  MET794  SER795  GLU796  ALA797  LYS798  CYS799  TRP800  GLU811  SER814 

> <Gold.Protein.RotatedAtoms>
  151.2356  135.0570  159.9004 H   0  0  0  0  0  0  0  0  0  0  0  0  # atno 6907 bound_to 6896
  152.5399  134.0490  159.8111 H   0  0  0  0  0  0  0  0  0  0  0  0  # atno 6908 bound_to 6896
  151.0676  133.5444  159.2661 H   0  0  0  0  0  0  0  0  0  0  0  0  # atno 6909 bound_to 6896
  145.4004  140.9537  143.2290 H   0  0  0  0  0  0  0  0  0  0  0  0  # atno 7974 bound_to 7965
  155.2302  140.0425  157.2961 H   0  0  0  0  0  0  0  0  0  0  0  0  # atno 8008 bound_to 7997
  154.5893  140.2422  155.7913 H   0  0  0  0  0  0  0  0  0  0  0  0  # atno 8009 bound_to 7997
  156.2248  140.2958  156.0049 H   0  0  0  0  0  0  0  0  0  0  0  0  # atno 8010 bound_to 7997
  140.0680  144.5177  150.7247 H   0  0  0  0  0  0  0  0  0  0  0  0  # atno 10167 bound_to 10162
  156.1516  130.4151  149.9936 H   0  0  0  0  0  0  0  0  0  0  0  0  # atno 10718 bound_to 10713
  153.0489  135.6512  154.0744 H   0  0  0  0  0  0  0  0  0  0  0  0  # atno 10763 bound_to 10752
  154.0436  135.2901  155.3353 H   0  0  0  0  0  0  0  0  0  0  0  0  # atno 10764 bound_to 10752
  154.6765  135.5336  153.8273 H   0  0  0  0  0  0  0  0  0  0  0  0  # atno 10765 bound_to 10752
  140.8668  133.7749  156.0139 H   0  0  0  0  0  0  0  0  0  0  0  0  # atno 11005 bound_to 11000
  144.8378  139.5522  143.6914 LP  0  0  0  0  0  0  0  0  0  0  0  0  # atno 17320 bound_to 7965
  146.2754  139.6741  142.9266 LP  0  0  0  0  0  0  0  0  0  0  0  0  # atno 17321 bound_to 7965
  140.7140  143.2528  151.4494 LP  0  0  0  0  0  0  0  0  0  0  0  0  # atno 17342 bound_to 10162
  139.5853  144.1618  152.2021 LP  0  0  0  0  0  0  0  0  0  0  0  0  # atno 17343 bound_to 10162
  156.7791  130.9215  151.3646 LP  0  0  0  0  0  0  0  0  0  0  0  0  # atno 17370 bound_to 10713
  157.6661  130.9009  149.9936 LP  0  0  0  0  0  0  0  0  0  0  0  0  # atno 17371 bound_to 10713
  140.8619  134.2830  157.5230 LP  0  0  0  0  0  0  0  0  0  0  0  0  # atno 17394 bound_to 11000
  139.8710  134.9523  156.4110 LP  0  0  0  0  0  0  0  0  0  0  0  0  # atno 17395 bound_to 11000

$$$$
