AV-unprocessed.smi:2124|AV-procd|sdf|8651|dock4
  -GOLD-   2272011403D 1   1.00000     0.00000
 Structure written by MMmdl.
 47 49  0  0  0  0  0  0  0  0  1 V2000
  149.7115  134.2992  155.1825 C   0  0  0  0  0  0  0  0  0  0  0  0
  150.3063  135.6623  155.4664 C   0  0  0  0  0  0  0  0  0  0  0  0
  151.2435  135.8743  156.3307 N   0  0  0  0  0  0  0  0  0  0  0  0
  151.7180  137.1819  156.5050 C   0  0  0  0  0  0  0  0  0  0  0  0
  152.8246  137.3426  157.5335 C   0  0  0  0  0  0  0  0  0  0  0  0
  151.2134  138.2275  155.7853 C   0  0  0  0  0  0  0  0  0  0  0  0
  151.6953  139.6696  155.9467 C   0  0  0  0  0  0  0  0  0  0  0  0
  151.0639  140.4753  157.0862 C   0  0  0  0  0  0  0  0  0  0  0  0
  150.8415  139.9297  158.1663 O   0  0  0  0  0  0  0  0  0  0  0  0
  150.7692  141.7602  156.8319 N   0  0  0  0  0  0  0  0  0  0  0  0
  150.1544  142.7039  157.7615 C   0  0  1  0  0  0  0  0  0  0  0  0
  148.7445  142.2050  158.1148 C   0  0  0  0  0  0  0  0  0  0  0  0
  151.0497  142.8626  159.0129 C   0  0  2  0  0  0  0  0  0  0  0  0
  150.6646  144.0338  159.9450 C   0  0  0  0  0  0  0  0  0  0  0  0
  152.0056  144.7597  160.1635 C   0  0  2  0  0  0  0  0  0  0  0  0
  152.3751  145.5296  158.8825 C   0  0  0  0  0  0  0  0  0  0  0  0
  152.7783  144.4016  157.9159 C   0  0  0  0  0  0  0  0  0  0  0  0
  152.5558  143.1298  158.7608 C   0  0  1  0  0  0  0  0  0  0  0  0
  153.0046  143.6085  160.1378 C   0  0  0  0  0  0  0  0  0  0  0  0
  150.1399  137.9744  154.8050 C   0  0  0  0  0  0  0  0  0  0  0  0
  149.6095  138.8428  154.1142 O   0  0  0  0  0  0  0  0  0  0  0  0
  149.7469  136.6851  154.7027 N   0  0  0  0  0  0  0  0  0  0  0  0
  149.0154  136.4609  154.0439 H   0  0  0  0  0  0  0  0  0  0  0  0
  148.9278  134.3505  154.4255 H   0  0  0  0  0  0  0  0  0  0  0  0
  149.2799  133.8809  156.0921 H   0  0  0  0  0  0  0  0  0  0  0  0
  150.4856  133.6195  154.8257 H   0  0  0  0  0  0  0  0  0  0  0  0
  153.7507  137.6549  157.0506 H   0  0  0  0  0  0  0  0  0  0  0  0
  153.0202  136.4045  158.0542 H   0  0  0  0  0  0  0  0  0  0  0  0
  152.5566  138.0864  158.2829 H   0  0  0  0  0  0  0  0  0  0  0  0
  152.7738  139.6812  156.1003 H   0  0  0  0  0  0  0  0  0  0  0  0
  151.5462  140.2072  155.0090 H   0  0  0  0  0  0  0  0  0  0  0  0
  150.9866  142.1144  155.9115 H   0  0  0  0  0  0  0  0  0  0  0  0
  150.0442  143.6795  157.2863 H   0  0  0  0  0  0  0  0  0  0  0  0
  148.2336  142.8967  158.7846 H   0  0  0  0  0  0  0  0  0  0  0  0
  148.7783  141.2315  158.6048 H   0  0  0  0  0  0  0  0  0  0  0  0
  148.1296  142.1054  157.2195 H   0  0  0  0  0  0  0  0  0  0  0  0
  150.9800  141.9372  159.5882 H   0  0  0  0  0  0  0  0  0  0  0  0
  149.9146  144.6970  159.5122 H   0  0  0  0  0  0  0  0  0  0  0  0
  150.2658  143.6556  160.8871 H   0  0  0  0  0  0  0  0  0  0  0  0
  152.0295  145.3737  161.0640 H   0  0  0  0  0  0  0  0  0  0  0  0
  151.5444  146.1258  158.5030 H   0  0  0  0  0  0  0  0  0  0  0  0
  153.2159  146.2011  159.0597 H   0  0  0  0  0  0  0  0  0  0  0  0
  152.2045  144.4140  156.9900 H   0  0  0  0  0  0  0  0  0  0  0  0
  153.8302  144.4969  157.6438 H   0  0  0  0  0  0  0  0  0  0  0  0
  153.0982  142.2604  158.3884 H   0  0  0  0  0  0  0  0  0  0  0  0
  154.0452  143.9372  160.1649 H   0  0  0  0  0  0  0  0  0  0  0  0
  152.8408  142.8745  160.9290 H   0  0  0  0  0  0  0  0  0  0  0  0
  1  2  1  0  0  0  0
  1 24  1  0  0  0  0
  1 25  1  0  0  0  0
  1 26  1  0  0  0  0
  2 22  1  0  0  0  0
  2  3  2  0  0  0  0
  3  4  1  0  0  0  0
  4  5  1  0  0  0  0
  4  6  2  0  0  0  0
  5 27  1  0  0  0  0
  5 28  1  0  0  0  0
  5 29  1  0  0  0  0
  6  7  1  0  0  0  0
  6 20  1  0  0  0  0
  7  8  1  0  0  0  0
  7 30  1  0  0  0  0
  7 31  1  0  0  0  0
  8  9  2  0  0  0  0
  8 10  1  0  0  0  0
 10 11  1  0  0  0  0
 10 32  1  0  0  0  0
 11 12  1  0  0  0  0
 11 13  1  0  0  0  0
 11 33  1  0  0  0  0
 12 34  1  0  0  0  0
 12 35  1  0  0  0  0
 12 36  1  0  0  0  0
 13 18  1  0  0  0  0
 13 14  1  0  0  0  0
 13 37  1  0  0  0  0
 14 15  1  0  0  0  0
 14 38  1  0  0  0  0
 14 39  1  0  0  0  0
 15 19  1  0  0  0  0
 15 16  1  0  0  0  0
 15 40  1  0  0  0  0
 16 17  1  0  0  0  0
 16 41  1  0  0  0  0
 16 42  1  0  0  0  0
 17 18  1  0  0  0  0
 17 43  1  0  0  0  0
 17 44  1  0  0  0  0
 18 19  1  0  0  0  0
 18 45  1  0  0  0  0
 19 46  1  0  0  0  0
 19 47  1  0  0  0  0
 20 21  2  0  0  0  0
 20 22  1  0  0  0  0
 22 23  1  0  0  0  0
M  END
> <s_m_source_file>
AV-unprocessed.smi

> <i_m_source_file_index>
2124

> <i_lp_mmshare_version>
43012

> <i_f3d_flags>
0

> <s_epik_input>
W0NIM11jMW5jKFtDSDNdKWMoYyg9TylbbkhdMSlbQ0gyXUMoPU8pW05IXVtDQEhdKFtDSDNdKVtDQEhdKFtDSDJdW0NASF0yMylbQ0BIXShbQ0gyXTMpW0NIMl1bQ0gyXTI=

> <s_epik_cmdline>
J2VwaWtfcHl0aG9uJywgJy1waCcsICc3LjAnLCAnLXRuJywgJzgnLCAnLW1hJywgJzIwMCcsICctbWV0YWxfYmluZGluZycsICctaW1hZScsICc8aW5maWxlLm1hZT4nLCAnLW9tYWUnLCAnPG91dGZpbGUubWFlPic=

> <r_lp_tautomer_probability>
0.839158

> <r_epik_Ionization_Penalty>
0.000383628

> <r_epik_Ionization_Penalty_Charging>
0.00035045

> <r_epik_Ionization_Penalty_Neutral>
3.31781e-05

> <r_epik_State_Penalty>
0.09125

> <r_epik_Charging_Adjusted_Penalty>
0.0916005

> <i_epik_Tot_Q>
0

> <i_epik_Tot_abs_Q>
0

> <r_epik_Metal_State_Penalty>
0.255229

> <b_epik_Metal_Only>
0

> <s_lp_Force_Field>
OPLS_2005

> <r_lp_Energy>
53.2281

> <b_lp_Chiralities_Consistent>
1

> <s_lp_Variant>
AV-unprocessed.smi:2124-2

> <Gold.Version>
5.8.1

> <Gold.Id.Protein>
6NUR|6NUR_protein|mol2

> <Gold.PLP.Fitness>
44.5229

> <Gold.PLP.PLP>
-40.3554

> <Gold.PLP.part.hbond>
-2.6155

> <Gold.PLP.part.metal>
0.0000

> <Gold.PLP.part.buried>
-5.3029

> <Gold.PLP.part.nonpolar>
-34.3115

> <Gold.PLP.part.repulsive>
1.9473

> <Gold.PLP.ligand.clash>
0.0000

> <Gold.PLP.ligand.torsion>
0.7490

> <Gold.PLP.Chemscore.Hbond>
1.8780

> <Gold.PLP.Chemscore.CHOScore>
0.0000

> <Gold.PLP.Chemscore.Metal>
0.0000

> <Gold.Chemscore.Hbonds>
donor molecule, donor type, donor heavy atom, donor atom, acceptor molecule, acceptor atom, score
      L1  H    22    23       P1  7948  0.42
      P1  H 10752 10763       L1     3  0.11

> <Gold.PLP.Chemscore.Internal.Correction>
0.0316

> <Gold.Rescore>
     Score         DG    S(hbond)    S(metal)    S(lipo)     H(rot)  DE(clash)    DE(int)     intcor
     15.72     -17.46       0.88        0.00     113.49       1.65       0.11       1.63       ----

> <Gold.Chemscore.Fitness>
15.7205

> <Gold.Chemscore.DG>
-17.4649

> <Gold.Chemscore.ZeroCoef>
-5.4800

> <Gold.Chemscore.Hbond>
0.8798

> <Gold.Chemscore.Metal>
0.0000

> <Gold.Chemscore.Lipo>
113.4942

> <Gold.Chemscore.Internal_Hbond>
0.0000

> <Gold.Chemscore.DEClash>
0.1103

> <Gold.Chemscore.DEInternal>
1.6341

> <Gold.Chemscore.Rot>
1.6534

> <Gold.Chemscore.Internal.Correction>
   9.000000E+99

> <Gold.Chemscore.Hbonds>
donor molecule, donor type, donor heavy atom, donor atom, acceptor molecule, acceptor atom, score
      L1  H    22    23       P1  7948  0.41

> <Gold.Chemscore.Hbond.Weighted>
-2.9387

> <Gold.Chemscore.Metal.Weighted>
-0.0000

> <Gold.Chemscore.Lipo.Weighted>
-13.2788

> <Gold.Chemscore.Internal_Hbond.Weighted>
0.0000

> <Gold.Chemscore.DEClash.Weighted>
0.1103

> <Gold.Chemscore.DEInternal.Weighted>
1.6341

> <Gold.Chemscore.Rot.Weighted>
4.2326

> <Gold.Chemscore.Internal.Correction.Weighted>
   9.000000E+99

> <Gold.Protein.RotatedTorsions>
[ 6907 6896 6895 6894 ] final -147.08 input  -60.11 | X-H torsion
[ 7974 7965 7964 7962 ] final -154.36 input  175.53 | X-H torsion
[ 8008 7997 7996 7995 ] final -161.32 input   59.86 | X-H torsion
[ 10167 10162 10161 10158 ] final -122.78 input  -65.29 | X-H torsion
[ 10718 10713 10712 10709 ] final  156.16 input   66.30 | X-H torsion
[ 10763 10752 10751 10750 ] final   88.83 input  -60.55 | X-H torsion
[ 11005 11000 10999 10996 ] final   23.89 input  -57.11 | X-H torsion

> <Gold.Protein.ActiveResidues>
 VAL166  LYS551  ARG553  GLY616  TRP617  ASP618  TYR619  PRO620  LYS621  CYS622 
 ASP623  PHE694  ASN695  SER759  ASP760  ASP761  ALA762  ILE779  LEU786  VAL792 
 PHE793  MET794  SER795  GLU796  ALA797  LYS798  CYS799  TRP800  GLU811  SER814 

> <Gold.Protein.RotatedAtoms>
  151.1506  133.4910  159.2595 H   0  0  0  0  0  0  0  0  0  0  0  0  # atno 6907 bound_to 6896
  151.1558  135.0249  159.8698 H   0  0  0  0  0  0  0  0  0  0  0  0  # atno 6908 bound_to 6896
  152.5463  134.1385  159.8522 H   0  0  0  0  0  0  0  0  0  0  0  0  # atno 6909 bound_to 6896
  144.7693  140.4399  143.5919 H   0  0  0  0  0  0  0  0  0  0  0  0  # atno 7974 bound_to 7965
  155.7905  140.0877  157.2011 H   0  0  0  0  0  0  0  0  0  0  0  0  # atno 8008 bound_to 7997
  154.3985  140.1491  156.3216 H   0  0  0  0  0  0  0  0  0  0  0  0  # atno 8009 bound_to 7997
  155.8563  140.3432  155.5729 H   0  0  0  0  0  0  0  0  0  0  0  0  # atno 8010 bound_to 7997
  140.0105  143.5446  152.2265 H   0  0  0  0  0  0  0  0  0  0  0  0  # atno 10167 bound_to 10162
  157.2086  131.0692  151.1983 H   0  0  0  0  0  0  0  0  0  0  0  0  # atno 10718 bound_to 10713
  153.1809  135.4492  155.0026 H   0  0  0  0  0  0  0  0  0  0  0  0  # atno 10763 bound_to 10752
  154.8029  135.3263  154.7507 H   0  0  0  0  0  0  0  0  0  0  0  0  # atno 10764 bound_to 10752
  153.7972  135.6965  153.4916 H   0  0  0  0  0  0  0  0  0  0  0  0  # atno 10765 bound_to 10752
  140.3646  134.2088  155.7670 H   0  0  0  0  0  0  0  0  0  0  0  0  # atno 11005 bound_to 11000
  145.6372  139.1544  143.2936 LP  0  0  0  0  0  0  0  0  0  0  0  0  # atno 17320 bound_to 7965
  146.1827  140.6471  142.9182 LP  0  0  0  0  0  0  0  0  0  0  0  0  # atno 17321 bound_to 7965
  139.6208  144.7628  151.2745 LP  0  0  0  0  0  0  0  0  0  0  0  0  # atno 17342 bound_to 10162
  140.7383  143.6652  150.8129 LP  0  0  0  0  0  0  0  0  0  0  0  0  # atno 17343 bound_to 10162
  157.3695  130.7173  149.6555 LP  0  0  0  0  0  0  0  0  0  0  0  0  # atno 17370 bound_to 10713
  155.9693  130.4203  150.4415 LP  0  0  0  0  0  0  0  0  0  0  0  0  # atno 17371 bound_to 10713
  141.1973  133.8061  157.0632 LP  0  0  0  0  0  0  0  0  0  0  0  0  # atno 17394 bound_to 11000
  140.0599  134.9760  157.1287 LP  0  0  0  0  0  0  0  0  0  0  0  0  # atno 17395 bound_to 11000

$$$$
