AV-unprocessed.smi:573|AV-procd|sdf|2969|dock2
  -GOLD-   2262023473D 1   1.00000     0.00000
 Structure written by MMmdl.
 45 47  0  0  0  0  0  0  0  0  2 V2000
  147.1217  140.1195  153.5226 C   0  0  0  0  0  0  0  0  0  0  0  0
  147.8736  141.4267  153.8136 C   0  0  2  0  0  0  0  0  0  0  0  0
  149.1651  141.3329  153.2524 O   0  0  0  0  0  0  0  0  0  0  0  0
  148.0301  141.7145  155.3187 C   0  0  0  0  0  0  0  0  0  0  0  0
  149.0189  140.8571  155.9566 N   0  0  0  0  0  0  0  0  0  0  0  0
  149.9595  141.4196  156.8272 C   0  0  0  0  0  0  0  0  0  0  0  0
  150.2607  142.7410  156.9384 N   0  3  0  0  0  0  0  0  0  0  0  0
  151.2354  142.8877  157.9292 C   0  0  0  0  0  0  0  0  0  0  0  0
  151.8671  144.0274  158.4171 C   0  0  0  0  0  0  0  0  0  0  0  0
  152.8145  143.8361  159.4439 C   0  0  0  0  0  0  0  0  0  0  0  0
  153.1023  142.5515  159.9489 C   0  0  0  0  0  0  0  0  0  0  0  0
  152.4590  141.4012  159.4467 C   0  0  0  0  0  0  0  0  0  0  0  0
  151.5262  141.5946  158.4279 C   0  0  0  0  0  0  0  0  0  0  0  0
  150.7148  140.7103  157.7041 N   0  0  0  0  0  0  0  0  0  0  0  0
  150.7647  139.2663  157.9744 C   0  0  0  0  0  0  0  0  0  0  0  0
  151.5508  138.5043  156.8953 C   0  0  1  0  0  0  0  0  0  0  0  0
  150.8041  138.4782  155.5485 C   0  0  0  0  0  0  0  0  0  0  0  0
  151.6421  137.7620  154.4833 C   0  0  0  0  0  0  0  0  0  0  0  0
  153.0402  138.3863  154.4190 C   0  0  0  0  0  0  0  0  0  0  0  0
  153.6745  138.4252  155.8187 C   0  0  0  0  0  0  0  0  0  0  0  0
  152.8225  139.1264  156.7191 O   0  0  0  0  0  0  0  0  0  0  0  0
  146.1011  140.1574  153.9044 H   0  0  0  0  0  0  0  0  0  0  0  0
  147.6171  139.2641  153.9831 H   0  0  0  0  0  0  0  0  0  0  0  0
  147.0608  139.9315  152.4500 H   0  0  0  0  0  0  0  0  0  0  0  0
  147.3629  142.2555  153.3222 H   0  0  0  0  0  0  0  0  0  0  0  0
  149.1916  140.5827  152.6779 H   0  0  0  0  0  0  0  0  0  0  0  0
  148.3292  142.7523  155.4696 H   0  0  0  0  0  0  0  0  0  0  0  0
  147.0730  141.5966  155.8284 H   0  0  0  0  0  0  0  0  0  0  0  0
  148.8386  139.8642  156.0008 H   0  0  0  0  0  0  0  0  0  0  0  0
  151.6469  145.0133  158.0348 H   0  0  0  0  0  0  0  0  0  0  0  0
  153.3294  144.6928  159.8544 H   0  0  0  0  0  0  0  0  0  0  0  0
  153.8316  142.4454  160.7391 H   0  0  0  0  0  0  0  0  0  0  0  0
  152.6845  140.4238  159.8464 H   0  0  0  0  0  0  0  0  0  0  0  0
  151.2363  139.1312  158.9485 H   0  0  0  0  0  0  0  0  0  0  0  0
  149.7494  138.8819  158.0706 H   0  0  0  0  0  0  0  0  0  0  0  0
  151.7065  137.4803  157.2406 H   0  0  0  0  0  0  0  0  0  0  0  0
  149.8394  137.9823  155.6588 H   0  0  0  0  0  0  0  0  0  0  0  0
  150.5961  139.4985  155.2231 H   0  0  0  0  0  0  0  0  0  0  0  0
  151.7232  136.7026  154.7307 H   0  0  0  0  0  0  0  0  0  0  0  0
  151.1538  137.8210  153.5103 H   0  0  0  0  0  0  0  0  0  0  0  0
  153.6735  137.8238  153.7325 H   0  0  0  0  0  0  0  0  0  0  0  0
  152.9710  139.3998  154.0225 H   0  0  0  0  0  0  0  0  0  0  0  0
  153.8616  137.4164  156.1901 H   0  0  0  0  0  0  0  0  0  0  0  0
  154.6382  138.9330  155.7791 H   0  0  0  0  0  0  0  0  0  0  0  0
  149.8352  143.4755  156.3878 H   0  0  0  0  0  0  0  0  0  0  0  0
  1  2  1  0  0  0  0
  1 22  1  0  0  0  0
  1 23  1  0  0  0  0
  1 24  1  0  0  0  0
  2  3  1  0  0  0  0
  2  4  1  0  0  0  0
  2 25  1  0  0  0  0
  3 26  1  0  0  0  0
  4  5  1  0  0  0  0
  4 27  1  0  0  0  0
  4 28  1  0  0  0  0
  5  6  1  0  0  0  0
  5 29  1  0  0  0  0
  6 14  1  0  0  0  0
  6  7  2  0  0  0  0
  7  8  1  0  0  0  0
  7 45  1  0  0  0  0
  8 13  2  0  0  0  0
  8  9  1  0  0  0  0
  9 10  2  0  0  0  0
  9 30  1  0  0  0  0
 10 11  1  0  0  0  0
 10 31  1  0  0  0  0
 11 12  2  0  0  0  0
 11 32  1  0  0  0  0
 12 13  1  0  0  0  0
 12 33  1  0  0  0  0
 13 14  1  0  0  0  0
 14 15  1  0  0  0  0
 15 16  1  0  0  0  0
 15 34  1  0  0  0  0
 15 35  1  0  0  0  0
 16 21  1  0  0  0  0
 16 17  1  0  0  0  0
 16 36  1  0  0  0  0
 17 18  1  0  0  0  0
 17 37  1  0  0  0  0
 17 38  1  0  0  0  0
 18 19  1  0  0  0  0
 18 39  1  0  0  0  0
 18 40  1  0  0  0  0
 19 20  1  0  0  0  0
 19 41  1  0  0  0  0
 19 42  1  0  0  0  0
 20 21  1  0  0  0  0
 20 43  1  0  0  0  0
 20 44  1  0  0  0  0
M  CHG  1   7   1
M  END
> <s_m_source_file>
AV-unprocessed.smi

> <i_m_source_file_index>
573

> <i_lp_mmshare_version>
43012

> <i_f3d_flags>
0

> <s_epik_input>
W0NIM11bQ0BIXShbT0hdKVtDSDJdW05IXWMobjEpbihjKGMxMilbY0hdW2NIXVtjSF1bY0hdMilbQ0gyXVtDQEBIXTNbQ0gyXVtDSDJdW0NIMl1bQ0gyXU8z

> <s_epik_cmdline>
J2VwaWtfcHl0aG9uJywgJy1waCcsICc3LjAnLCAnLXRuJywgJzgnLCAnLW1hJywgJzIwMCcsICctbWV0YWxfYmluZGluZycsICctaW1hZScsICc8aW5maWxlLm1hZT4nLCAnLW9tYWUnLCAnPG91dGZpbGUubWFlPic=

> <r_epik_Ionization_Penalty>
0.0692245

> <r_epik_Ionization_Penalty_Charging>
0.0692223

> <r_epik_Ionization_Penalty_Neutral>
2.1869e-06

> <r_epik_State_Penalty>
0.0606215

> <r_epik_Charging_Adjusted_Penalty>
0.129844

> <i_epik_Tot_Q>
1

> <i_epik_Tot_abs_Q>
1

> <r_epik_Metal_State_Penalty>
2.77811

> <b_epik_Metal_Only>
0

> <s_lp_Force_Field>
OPLS_2005

> <r_lp_Energy>
19.2261

> <b_lp_Chiralities_Consistent>
1

> <s_lp_Variant>
AV-unprocessed.smi:573-3

> <Gold.Version>
5.8.1

> <Gold.Id.Protein>
6NUR|6NUR_protein|mol2

> <Gold.PLP.Fitness>
53.6135

> <Gold.PLP.PLP>
-42.7468

> <Gold.PLP.part.hbond>
-4.6810

> <Gold.PLP.part.metal>
0.0000

> <Gold.PLP.part.buried>
-1.2325

> <Gold.PLP.part.nonpolar>
-36.6493

> <Gold.PLP.part.repulsive>
0.0665

> <Gold.PLP.ligand.clash>
0.0132

> <Gold.PLP.ligand.torsion>
0.4424

> <Gold.PLP.Chemscore.Hbond>
3.9120

> <Gold.PLP.Chemscore.CHOScore>
0.0000

> <Gold.PLP.Chemscore.Metal>
0.0000

> <Gold.Chemscore.Hbonds>
donor molecule, donor type, donor heavy atom, donor atom, acceptor molecule, acceptor atom, score
      L1  H     3    26       P1  7957  0.88
      L1  H     7    45       P1  8028  2.00
      P1  H  8011  8017       L1     3  1.00

> <Gold.PLP.Chemscore.Internal.Correction>
0.0289

> <Gold.Rescore>
     Score         DG    S(hbond)    S(metal)    S(lipo)     H(rot)  DE(clash)    DE(int)     intcor
     20.21     -22.37       2.33        0.00     123.03       2.07       1.64       0.52       ----

> <Gold.Chemscore.Fitness>
20.2134

> <Gold.Chemscore.DG>
-22.3708

> <Gold.Chemscore.ZeroCoef>
-5.4800

> <Gold.Chemscore.Hbond>
2.3339

> <Gold.Chemscore.Metal>
0.0000

> <Gold.Chemscore.Lipo>
123.0299

> <Gold.Chemscore.Internal_Hbond>
0.0000

> <Gold.Chemscore.DEClash>
1.6362

> <Gold.Chemscore.DEInternal>
0.5212

> <Gold.Chemscore.Rot>
2.0699

> <Gold.Chemscore.Internal.Correction>
   9.000000E+99

> <Gold.Chemscore.Hbonds>
donor molecule, donor type, donor heavy atom, donor atom, acceptor molecule, acceptor atom, score
      L1  H     3    26       P1  7957  0.86
      L1  H     7    45       P1  8028  1.00
      P1  H  8011  8017       L1     3  0.23

> <Gold.Chemscore.Hbond.Weighted>
-7.7953

> <Gold.Chemscore.Metal.Weighted>
-0.0000

> <Gold.Chemscore.Lipo.Weighted>
-14.3945

> <Gold.Chemscore.Internal_Hbond.Weighted>
0.0000

> <Gold.Chemscore.DEClash.Weighted>
1.6362

> <Gold.Chemscore.DEInternal.Weighted>
0.5212

> <Gold.Chemscore.Rot.Weighted>
5.2991

> <Gold.Chemscore.Internal.Correction.Weighted>
   9.000000E+99

> <Gold.Protein.RotatedTorsions>
[ 6907 6896 6895 6894 ] final -118.45 input  -60.11 | X-H torsion
[ 7974 7965 7964 7962 ] final  -21.06 input  175.53 | X-H torsion
[ 8008 7997 7996 7995 ] final  117.07 input   59.86 | X-H torsion
[ 10167 10162 10161 10158 ] final -144.59 input  -65.29 | X-H torsion
[ 10718 10713 10712 10709 ] final   37.09 input   66.30 | X-H torsion
[ 10763 10752 10751 10750 ] final  158.22 input  -60.55 | X-H torsion
[ 11005 11000 10999 10996 ] final  -50.98 input  -57.11 | X-H torsion

> <Gold.Protein.ActiveResidues>
 VAL166  LYS551  ARG553  GLY616  TRP617  ASP618  TYR619  PRO620  LYS621  CYS622 
 ASP623  PHE694  ASN695  SER759  ASP760  ASP761  ALA762  ILE779  LEU786  VAL792 
 PHE793  MET794  SER795  GLU796  ALA797  LYS798  CYS799  TRP800  GLU811  SER814 

> <Gold.Protein.RotatedAtoms>
  150.8221  133.8235  159.3134 H   0  0  0  0  0  0  0  0  0  0  0  0  # atno 6907 bound_to 6896
  151.5990  135.1047  160.0065 H   0  0  0  0  0  0  0  0  0  0  0  0  # atno 6908 bound_to 6896
  152.4309  133.7235  159.6603 H   0  0  0  0  0  0  0  0  0  0  0  0  # atno 6909 bound_to 6896
  146.1754  140.4289  142.8516 H   0  0  0  0  0  0  0  0  0  0  0  0  # atno 7974 bound_to 7965
  156.2474  140.2904  156.0621 H   0  0  0  0  0  0  0  0  0  0  0  0  # atno 8008 bound_to 7997
  155.1764  140.0403  157.2890 H   0  0  0  0  0  0  0  0  0  0  0  0  # atno 8009 bound_to 7997
  154.6290  140.2494  155.7463 H   0  0  0  0  0  0  0  0  0  0  0  0  # atno 8010 bound_to 7997
  139.7885  143.8000  152.2647 H   0  0  0  0  0  0  0  0  0  0  0  0  # atno 10167 bound_to 10162
  157.3427  130.7556  149.6923 H   0  0  0  0  0  0  0  0  0  0  0  0  # atno 10718 bound_to 10713
  154.2127  135.2785  155.2953 H   0  0  0  0  0  0  0  0  0  0  0  0  # atno 10763 bound_to 10752
  154.5766  135.5602  153.7148 H   0  0  0  0  0  0  0  0  0  0  0  0  # atno 10764 bound_to 10752
  153.0060  135.6334  154.2266 H   0  0  0  0  0  0  0  0  0  0  0  0  # atno 10765 bound_to 10752
  141.0846  133.6645  156.3810 H   0  0  0  0  0  0  0  0  0  0  0  0  # atno 11005 bound_to 11000
  144.8228  140.6578  143.6342 LP  0  0  0  0  0  0  0  0  0  0  0  0  # atno 17320 bound_to 7965
  145.4226  139.1561  143.4065 LP  0  0  0  0  0  0  0  0  0  0  0  0  # atno 17321 bound_to 7965
  139.8084  144.7346  150.9730 LP  0  0  0  0  0  0  0  0  0  0  0  0  # atno 17342 bound_to 10162
  140.7820  143.4275  151.0746 LP  0  0  0  0  0  0  0  0  0  0  0  0  # atno 17343 bound_to 10162
  155.9710  130.4163  150.4223 LP  0  0  0  0  0  0  0  0  0  0  0  0  # atno 17370 bound_to 10713
  157.2274  131.0496  151.2512 LP  0  0  0  0  0  0  0  0  0  0  0  0  # atno 17371 bound_to 10713
  140.5393  134.6136  157.5374 LP  0  0  0  0  0  0  0  0  0  0  0  0  # atno 17394 bound_to 11000
  139.9662  134.7368  156.0133 LP  0  0  0  0  0  0  0  0  0  0  0  0  # atno 17395 bound_to 11000

$$$$
