AV-unprocessed.smi:1095|AV-procd|sdf|4748|dock3
  -GOLD-   22720 3283D 1   1.00000     0.00000
 Structure written by MMmdl.
 50 51  0  0  0  0  0  0  0  0  1 V2000
  150.8177  144.7790  158.6309 C   0  0  0  0  0  0  0  0  0  0  0  0
  151.3465  143.3387  158.5879 C   0  0  0  0  0  0  0  0  0  0  0  0
  150.6246  142.4326  157.5697 C   0  0  2  0  0  0  0  0  0  0  0  0
  149.3700  141.7573  158.1642 C   0  0  0  0  0  0  0  0  0  0  0  0
  148.6810  140.8301  157.1471 C   0  0  0  0  0  0  0  0  0  0  0  0
  149.6344  139.7620  156.5758 C   0  0  2  0  0  0  0  0  0  0  0  0
  149.9486  138.6513  157.6055 C   0  0  0  0  0  0  0  0  0  0  0  0
  148.7399  138.1129  158.2203 N   0  0  0  0  0  0  0  0  0  0  0  0
  148.6810  136.9897  158.9519 C   0  0  0  0  0  0  0  0  0  0  0  0
  149.6530  136.2619  159.1556 O   0  0  0  0  0  0  0  0  0  0  0  0
  147.3197  136.6387  159.5551 C   0  0  0  0  0  0  0  0  0  0  0  0
  147.4363  135.3930  160.3983 C   0  0  0  0  0  0  0  0  0  0  0  0
  147.2699  135.2771  161.8107 C   0  0  0  0  0  0  0  0  0  0  0  0
  146.9510  136.3523  162.8094 C   0  0  0  0  0  0  0  0  0  0  0  0
  147.4399  134.0377  162.2391 N   0  0  0  0  0  0  0  0  0  0  0  0
  147.7194  133.3246  161.1300 N   0  0  0  0  0  0  0  0  0  0  0  0
  147.9653  131.9002  161.2455 C   0  0  0  0  0  0  0  0  0  0  0  0
  147.7313  134.1168  159.9982 C   0  0  0  0  0  0  0  0  0  0  0  0
  148.0268  133.5649  158.6404 C   0  0  0  0  0  0  0  0  0  0  0  0
  150.8923  140.4434  155.9935 C   0  0  0  0  0  0  0  0  0  0  0  0
  151.5862  141.3644  157.0115 C   0  0  0  0  0  0  0  0  0  0  0  0
  151.4143  145.3871  159.3112 H   0  0  0  0  0  0  0  0  0  0  0  0
  149.7858  144.8206  158.9786 H   0  0  0  0  0  0  0  0  0  0  0  0
  150.8618  145.2451  157.6462 H   0  0  0  0  0  0  0  0  0  0  0  0
  152.4077  143.3781  158.3387 H   0  0  0  0  0  0  0  0  0  0  0  0
  151.2883  142.8983  159.5840 H   0  0  0  0  0  0  0  0  0  0  0  0
  150.3079  143.0570  156.7328 H   0  0  0  0  0  0  0  0  0  0  0  0
  149.6396  141.1923  159.0569 H   0  0  0  0  0  0  0  0  0  0  0  0
  148.6527  142.5112  158.4880 H   0  0  0  0  0  0  0  0  0  0  0  0
  147.8128  140.3547  157.6044 H   0  0  0  0  0  0  0  0  0  0  0  0
  148.2934  141.4353  156.3265 H   0  0  0  0  0  0  0  0  0  0  0  0
  149.1120  139.2824  155.7466 H   0  0  0  0  0  0  0  0  0  0  0  0
  150.4792  137.8246  157.1344 H   0  0  0  0  0  0  0  0  0  0  0  0
  150.6172  139.0330  158.3790 H   0  0  0  0  0  0  0  0  0  0  0  0
  147.8916  138.6476  158.1023 H   0  0  0  0  0  0  0  0  0  0  0  0
  146.9449  137.4767  160.1443 H   0  0  0  0  0  0  0  0  0  0  0  0
  146.6076  136.5076  158.7404 H   0  0  0  0  0  0  0  0  0  0  0  0
  147.8383  136.6271  163.3799 H   0  0  0  0  0  0  0  0  0  0  0  0
  146.1891  136.0230  163.5163 H   0  0  0  0  0  0  0  0  0  0  0  0
  146.5795  137.2532  162.3218 H   0  0  0  0  0  0  0  0  0  0  0  0
  147.3778  131.3633  160.5006 H   0  0  0  0  0  0  0  0  0  0  0  0
  147.6862  131.5406  162.2368 H   0  0  0  0  0  0  0  0  0  0  0  0
  149.0234  131.6975  161.0800 H   0  0  0  0  0  0  0  0  0  0  0  0
  148.3052  134.3563  157.9447 H   0  0  0  0  0  0  0  0  0  0  0  0
  147.1551  133.0508  158.2355 H   0  0  0  0  0  0  0  0  0  0  0  0
  148.8533  132.8549  158.6761 H   0  0  0  0  0  0  0  0  0  0  0  0
  151.5993  139.7021  155.6228 H   0  0  0  0  0  0  0  0  0  0  0  0
  150.6033  141.0358  155.1245 H   0  0  0  0  0  0  0  0  0  0  0  0
  152.4383  141.8478  156.5324 H   0  0  0  0  0  0  0  0  0  0  0  0
  151.9966  140.7700  157.8284 H   0  0  0  0  0  0  0  0  0  0  0  0
  1  2  1  0  0  0  0
  1 22  1  0  0  0  0
  1 23  1  0  0  0  0
  1 24  1  0  0  0  0
  2  3  1  0  0  0  0
  2 25  1  0  0  0  0
  2 26  1  0  0  0  0
  3 21  1  0  0  0  0
  3  4  1  0  0  0  0
  3 27  1  0  0  0  0
  4  5  1  0  0  0  0
  4 28  1  0  0  0  0
  4 29  1  0  0  0  0
  5  6  1  0  0  0  0
  5 30  1  0  0  0  0
  5 31  1  0  0  0  0
  6  7  1  0  0  0  0
  6 20  1  0  0  0  0
  6 32  1  0  0  0  0
  7  8  1  0  0  0  0
  7 33  1  0  0  0  0
  7 34  1  0  0  0  0
  8  9  1  0  0  0  0
  8 35  1  0  0  0  0
  9 10  2  0  0  0  0
  9 11  1  0  0  0  0
 11 12  1  0  0  0  0
 11 36  1  0  0  0  0
 11 37  1  0  0  0  0
 12 18  2  0  0  0  0
 12 13  1  0  0  0  0
 13 14  1  0  0  0  0
 13 15  2  0  0  0  0
 14 38  1  0  0  0  0
 14 39  1  0  0  0  0
 14 40  1  0  0  0  0
 15 16  1  0  0  0  0
 16 17  1  0  0  0  0
 16 18  1  0  0  0  0
 17 41  1  0  0  0  0
 17 42  1  0  0  0  0
 17 43  1  0  0  0  0
 18 19  1  0  0  0  0
 19 44  1  0  0  0  0
 19 45  1  0  0  0  0
 19 46  1  0  0  0  0
 20 21  1  0  0  0  0
 20 47  1  0  0  0  0
 20 48  1  0  0  0  0
 21 49  1  0  0  0  0
 21 50  1  0  0  0  0
M  END
> <s_m_source_file>
AV-unprocessed.smi

> <i_m_source_file_index>
1095

> <i_lp_mmshare_version>
43012

> <i_f3d_flags>
0

> <s_epik_input>
W0NIM11bQ0gyXVtDQEBIXTFbQ0gyXVtDSDJdW0NASF0oW0NIMl1bQ0gyXTEpW0NIMl1bTkhdQyg9TylbQ0gyXWMyYyhbQ0gzXSlubihbQ0gzXSljMltDSDNd

> <s_epik_cmdline>
J2VwaWtfcHl0aG9uJywgJy1waCcsICc3LjAnLCAnLXRuJywgJzgnLCAnLW1hJywgJzIwMCcsICctbWV0YWxfYmluZGluZycsICctaW1hZScsICc8aW5maWxlLm1hZT4nLCAnLW9tYWUnLCAnPG91dGZpbGUubWFlPic=

> <r_lp_tautomer_probability>
1

> <r_epik_Ionization_Penalty>
0.00317479

> <r_epik_Ionization_Penalty_Charging>
0

> <r_epik_Ionization_Penalty_Neutral>
0.00317479

> <r_epik_State_Penalty>
0.00223767

> <r_epik_Charging_Adjusted_Penalty>
0.00223767

> <i_epik_Tot_Q>
0

> <i_epik_Tot_abs_Q>
0

> <r_epik_Metal_State_Penalty>
-0

> <b_epik_Metal_Only>
0

> <s_lp_Force_Field>
OPLS_2005

> <r_lp_Energy>
8.21356

> <b_lp_Chiralities_Consistent>
1

> <s_lp_Variant>
AV-unprocessed.smi:1095-2

> <Gold.Version>
5.8.1

> <Gold.Id.Protein>
6NUR|6NUR_protein|mol2

> <Gold.PLP.Fitness>
39.7126

> <Gold.PLP.PLP>
-37.6770

> <Gold.PLP.part.hbond>
-1.0000

> <Gold.PLP.part.metal>
0.0000

> <Gold.PLP.part.buried>
-5.9269

> <Gold.PLP.part.nonpolar>
-31.0199

> <Gold.PLP.part.repulsive>
0.1602

> <Gold.PLP.ligand.clash>
0.0000

> <Gold.PLP.ligand.torsion>
0.5056

> <Gold.PLP.Chemscore.Hbond>
1.0000

> <Gold.PLP.Chemscore.CHOScore>
0.0000

> <Gold.PLP.Chemscore.Metal>
0.0000

> <Gold.Chemscore.Hbonds>
donor molecule, donor type, donor heavy atom, donor atom, acceptor molecule, acceptor atom, score
      P1  H  6896  6907       L1    10  1.00

> <Gold.PLP.Chemscore.Internal.Correction>
0.0469

> <Gold.Rescore>
     Score         DG    S(hbond)    S(metal)    S(lipo)     H(rot)  DE(clash)    DE(int)     intcor
     15.88     -16.70       1.00        0.00      98.80       1.43       0.02       0.80       ----

> <Gold.Chemscore.Fitness>
15.8766

> <Gold.Chemscore.DG>
-16.6975

> <Gold.Chemscore.ZeroCoef>
-5.4800

> <Gold.Chemscore.Hbond>
0.9963

> <Gold.Chemscore.Metal>
0.0000

> <Gold.Chemscore.Lipo>
98.8009

> <Gold.Chemscore.Internal_Hbond>
0.0000

> <Gold.Chemscore.DEClash>
0.0212

> <Gold.Chemscore.DEInternal>
0.7997

> <Gold.Chemscore.Rot>
1.4336

> <Gold.Chemscore.Internal.Correction>
   9.000000E+99

> <Gold.Chemscore.Hbonds>
donor molecule, donor type, donor heavy atom, donor atom, acceptor molecule, acceptor atom, score
      P1  H  6896  6907       L1    10  0.96

> <Gold.Chemscore.Hbond.Weighted>
-3.3278

> <Gold.Chemscore.Metal.Weighted>
-0.0000

> <Gold.Chemscore.Lipo.Weighted>
-11.5597

> <Gold.Chemscore.Internal_Hbond.Weighted>
0.0000

> <Gold.Chemscore.DEClash.Weighted>
0.0212

> <Gold.Chemscore.DEInternal.Weighted>
0.7997

> <Gold.Chemscore.Rot.Weighted>
3.6700

> <Gold.Chemscore.Internal.Correction.Weighted>
   9.000000E+99

> <Gold.Protein.RotatedTorsions>
[ 6907 6896 6895 6894 ] final  -66.80 input  -60.11 | X-H torsion
[ 7974 7965 7964 7962 ] final -175.91 input  175.53 | X-H torsion
[ 8008 7997 7996 7995 ] final  -19.03 input   59.86 | X-H torsion
[ 10167 10162 10161 10158 ] final -161.98 input  -65.29 | X-H torsion
[ 10718 10713 10712 10709 ] final  -41.38 input   66.30 | X-H torsion
[ 10763 10752 10751 10750 ] final   14.37 input  -60.55 | X-H torsion
[ 11005 11000 10999 10996 ] final -158.23 input  -57.11 | X-H torsion

> <Gold.Protein.ActiveResidues>
 VAL166  LYS551  ARG553  GLY616  TRP617  ASP618  TYR619  PRO620  LYS621  CYS622 
 ASP623  PHE694  ASN695  SER759  ASP760  ASP761  ALA762  ILE779  LEU786  VAL792 
 PHE793  MET794  SER795  GLU796  ALA797  LYS798  CYS799  TRP800  GLU811  SER814 

> <Gold.Protein.RotatedAtoms>
  150.7445  134.5970  159.6016 H   0  0  0  0  0  0  0  0  0  0  0  0  # atno 6907 bound_to 6896
  152.3342  134.7217  160.0290 H   0  0  0  0  0  0  0  0  0  0  0  0  # atno 6908 bound_to 6896
  151.7690  133.3304  159.3475 H   0  0  0  0  0  0  0  0  0  0  0  0  # atno 6909 bound_to 6896
  144.7127  140.1250  143.6402 H   0  0  0  0  0  0  0  0  0  0  0  0  # atno 7974 bound_to 7965
  154.4864  140.2100  155.9645 H   0  0  0  0  0  0  0  0  0  0  0  0  # atno 8008 bound_to 7997
  156.1243  140.3208  155.8222 H   0  0  0  0  0  0  0  0  0  0  0  0  # atno 8009 bound_to 7997
  155.4412  140.0510  157.3001 H   0  0  0  0  0  0  0  0  0  0  0  0  # atno 8010 bound_to 7997
  139.6425  144.0232  152.2103 H   0  0  0  0  0  0  0  0  0  0  0  0  # atno 10167 bound_to 10162
  156.2710  130.4206  149.8438 H   0  0  0  0  0  0  0  0  0  0  0  0  # atno 10718 bound_to 10713
  153.1629  135.6799  153.8717 H   0  0  0  0  0  0  0  0  0  0  0  0  # atno 10763 bound_to 10752
  153.8106  135.3143  155.3401 H   0  0  0  0  0  0  0  0  0  0  0  0  # atno 10764 bound_to 10752
  154.7945  135.4815  154.0218 H   0  0  0  0  0  0  0  0  0  0  0  0  # atno 10765 bound_to 10752
  140.6559  134.4401  157.5235 H   0  0  0  0  0  0  0  0  0  0  0  0  # atno 11005 bound_to 11000
  145.9337  139.2623  143.1310 LP  0  0  0  0  0  0  0  0  0  0  0  0  # atno 17320 bound_to 7965
  145.9496  140.8918  143.0266 LP  0  0  0  0  0  0  0  0  0  0  0  0  # atno 17321 bound_to 7965
  139.9926  144.6351  150.7801 LP  0  0  0  0  0  0  0  0  0  0  0  0  # atno 17342 bound_to 10162
  140.7498  143.2945  151.3242 LP  0  0  0  0  0  0  0  0  0  0  0  0  # atno 17343 bound_to 10162
  156.5919  130.8510  151.3410 LP  0  0  0  0  0  0  0  0  0  0  0  0  # atno 17370 bound_to 10713
  157.7284  130.9656  150.1739 LP  0  0  0  0  0  0  0  0  0  0  0  0  # atno 17371 bound_to 10713
  139.9030  134.8513  156.1819 LP  0  0  0  0  0  0  0  0  0  0  0  0  # atno 17394 bound_to 11000
  141.0502  133.6892  156.1758 LP  0  0  0  0  0  0  0  0  0  0  0  0  # atno 17395 bound_to 11000

$$$$
