AV-unprocessed.smi:1489|AV-procd|sdf|6027|dock3
  -GOLD-   22720 6133D 1   1.00000     0.00000
 Structure written by MMmdl.
 47 49  0  0  0  0  0  0  0  0  2 V2000
  146.2294  138.4251  154.5794 O   0  0  0  0  0  0  0  0  0  0  0  0
  147.0725  138.0581  153.7611 C   0  0  0  0  0  0  0  0  0  0  0  0
  148.3712  138.4049  153.7777 N   0  0  0  0  0  0  0  0  0  0  0  0
  149.0370  139.2855  154.6726 C   0  0  0  0  0  0  0  0  0  0  0  0
  150.4389  139.4933  154.6799 C   0  0  0  0  0  0  0  0  0  0  0  0
  151.0049  140.3775  155.6210 C   0  0  0  0  0  0  0  0  0  0  0  0
  150.1664  141.0377  156.5491 C   0  0  0  0  0  0  0  0  0  0  0  0
  150.6318  141.9395  157.5171 N   0  0  0  0  0  0  0  0  0  0  0  0
  151.3105  143.1060  156.9764 C   0  0  0  0  0  0  0  0  0  0  0  0
  152.1059  143.7033  158.1410 C   0  0  0  0  0  0  0  0  0  0  0  0
  152.2204  142.5693  159.1663 C   0  0  0  0  0  0  0  0  0  0  0  0
  151.5351  141.3719  158.5044 C   0  0  0  0  0  0  0  0  0  0  0  0
  148.8370  140.8001  156.5169 N   0  3  0  0  0  0  0  0  0  0  0  0
  148.2549  139.9600  155.6337 C   0  0  0  0  0  0  0  0  0  0  0  0
  146.8018  137.2340  152.7384 N   0  0  0  0  0  0  0  0  0  0  0  0
  145.4919  136.6617  152.4388 C   0  0  2  0  0  0  0  0  0  0  0  0
  145.0497  135.7543  153.6031 C   0  0  0  0  0  0  0  0  0  0  0  0
  143.7005  135.0774  153.3113 C   0  0  0  0  0  0  0  0  0  0  0  0
  143.7516  134.2877  151.9924 C   0  0  1  0  0  0  0  0  0  0  0  0
  142.4805  133.7352  151.7230 O   0  0  0  0  0  0  0  0  0  0  0  0
  144.1790  135.1925  150.8241 C   0  0  0  0  0  0  0  0  0  0  0  0
  145.5278  135.8714  151.1129 C   0  0  0  0  0  0  0  0  0  0  0  0
  148.9617  137.9475  153.0984 H   0  0  0  0  0  0  0  0  0  0  0  0
  151.0939  138.9826  153.9912 H   0  0  0  0  0  0  0  0  0  0  0  0
  152.0725  140.5410  155.6255 H   0  0  0  0  0  0  0  0  0  0  0  0
  151.9864  142.8190  156.1697 H   0  0  0  0  0  0  0  0  0  0  0  0
  150.5934  143.8222  156.5740 H   0  0  0  0  0  0  0  0  0  0  0  0
  153.0815  144.0632  157.8127 H   0  0  0  0  0  0  0  0  0  0  0  0
  151.5711  144.5477  158.5773 H   0  0  0  0  0  0  0  0  0  0  0  0
  153.2551  142.3482  159.4305 H   0  0  0  0  0  0  0  0  0  0  0  0
  151.6961  142.8454  160.0821 H   0  0  0  0  0  0  0  0  0  0  0  0
  150.9917  140.7694  159.2329 H   0  0  0  0  0  0  0  0  0  0  0  0
  152.2785  140.7328  158.0267 H   0  0  0  0  0  0  0  0  0  0  0  0
  147.1824  139.8605  155.7196 H   0  0  0  0  0  0  0  0  0  0  0  0
  147.5576  136.9791  152.1198 H   0  0  0  0  0  0  0  0  0  0  0  0
  144.7663  137.4726  152.3469 H   0  0  0  0  0  0  0  0  0  0  0  0
  145.8048  134.9872  153.7813 H   0  0  0  0  0  0  0  0  0  0  0  0
  144.9760  136.3351  154.5234 H   0  0  0  0  0  0  0  0  0  0  0  0
  143.4350  134.4144  154.1357 H   0  0  0  0  0  0  0  0  0  0  0  0
  142.9188  135.8368  153.2600 H   0  0  0  0  0  0  0  0  0  0  0  0
  144.4602  133.4643  152.0904 H   0  0  0  0  0  0  0  0  0  0  0  0
  142.1948  134.0373  150.8743 H   0  0  0  0  0  0  0  0  0  0  0  0
  144.2489  134.6104  149.9045 H   0  0  0  0  0  0  0  0  0  0  0  0
  143.4203  135.9571  150.6497 H   0  0  0  0  0  0  0  0  0  0  0  0
  145.7845  136.5322  150.2842 H   0  0  0  0  0  0  0  0  0  0  0  0
  146.3110  135.1130  151.1564 H   0  0  0  0  0  0  0  0  0  0  0  0
  148.2425  141.2790  157.1937 H   0  0  0  0  0  0  0  0  0  0  0  0
  1  2  2  0  0  0  0
  2  3  1  0  0  0  0
  2 15  1  0  0  0  0
  3  4  1  0  0  0  0
  3 23  1  0  0  0  0
  4 14  1  0  0  0  0
  4  5  2  0  0  0  0
  5  6  1  0  0  0  0
  5 24  1  0  0  0  0
  6  7  2  0  0  0  0
  6 25  1  0  0  0  0
  7  8  1  0  0  0  0
  7 13  1  0  0  0  0
  8 12  1  0  0  0  0
  8  9  1  0  0  0  0
  9 10  1  0  0  0  0
  9 26  1  0  0  0  0
  9 27  1  0  0  0  0
 10 11  1  0  0  0  0
 10 28  1  0  0  0  0
 10 29  1  0  0  0  0
 11 12  1  0  0  0  0
 11 30  1  0  0  0  0
 11 31  1  0  0  0  0
 12 32  1  0  0  0  0
 12 33  1  0  0  0  0
 13 14  2  0  0  0  0
 13 47  1  0  0  0  0
 14 34  1  0  0  0  0
 15 16  1  0  0  0  0
 15 35  1  0  0  0  0
 16 22  1  0  0  0  0
 16 17  1  0  0  0  0
 16 36  1  0  0  0  0
 17 18  1  0  0  0  0
 17 37  1  0  0  0  0
 17 38  1  0  0  0  0
 18 19  1  0  0  0  0
 18 39  1  0  0  0  0
 18 40  1  0  0  0  0
 19 20  1  0  0  0  0
 19 21  1  0  0  0  0
 19 41  1  0  0  0  0
 20 42  1  0  0  0  0
 21 22  1  0  0  0  0
 21 43  1  0  0  0  0
 21 44  1  0  0  0  0
 22 45  1  0  0  0  0
 22 46  1  0  0  0  0
M  CHG  1  13   1
M  END
> <s_m_source_file>
AV-unprocessed.smi

> <i_m_source_file_index>
1489

> <i_lp_mmshare_version>
43012

> <i_f3d_flags>
0

> <s_epik_input>
W0NIMl0xW0NIMl1bQ0BIXShbT0hdKVtDSDJdW0NIMl1bQ0BIXTFbTkhdQyg9TylbTkhdYzJbY0hdW2NIXWMobltjSF0yKU4zW0NIMl1bQ0gyXVtDSDJdW0NIMl0z

> <s_epik_cmdline>
J2VwaWtfcHl0aG9uJywgJy1waCcsICc3LjAnLCAnLXRuJywgJzgnLCAnLW1hJywgJzIwMCcsICctbWV0YWxfYmluZGluZycsICctaW1hZScsICc8aW5maWxlLm1hZT4nLCAnLW9tYWUnLCAnPG91dGZpbGUubWFlPic=

> <r_lp_tautomer_probability>
0.999994

> <r_epik_Ionization_Penalty>
1.08454

> <r_epik_Ionization_Penalty_Charging>
1.08452

> <r_epik_Ionization_Penalty_Neutral>
2.18252e-05

> <r_epik_State_Penalty>
1.14025

> <r_epik_Charging_Adjusted_Penalty>
2.22477

> <i_epik_Tot_Q>
1

> <i_epik_Tot_abs_Q>
1

> <r_epik_Metal_State_Penalty>
1.22975

> <b_epik_Metal_Only>
0

> <s_lp_Force_Field>
OPLS_2005

> <r_lp_Energy>
44.1541

> <b_lp_Chiralities_Consistent>
1

> <s_lp_Variant>
AV-unprocessed.smi:1489-3

> <Gold.Version>
5.8.1

> <Gold.Id.Protein>
6NUR|6NUR_protein|mol2

> <Gold.PLP.Fitness>
42.7480

> <Gold.PLP.PLP>
-34.5807

> <Gold.PLP.part.hbond>
-2.8037

> <Gold.PLP.part.metal>
0.0000

> <Gold.PLP.part.buried>
-3.8640

> <Gold.PLP.part.nonpolar>
-27.9008

> <Gold.PLP.part.repulsive>
0.2146

> <Gold.PLP.ligand.clash>
0.0000

> <Gold.PLP.ligand.torsion>
0.0354

> <Gold.PLP.Chemscore.Hbond>
2.7410

> <Gold.PLP.Chemscore.CHOScore>
0.0000

> <Gold.PLP.Chemscore.Metal>
0.0000

> <Gold.Chemscore.Hbonds>
donor molecule, donor type, donor heavy atom, donor atom, acceptor molecule, acceptor atom, score
      L1  H     3    23       P1  7948  0.69
      L1  H    15    35       P1  7948  1.00
      L1  H    20    42       P1 10186  1.00

> <Gold.PLP.Chemscore.Internal.Correction>
0.0152

> <Gold.Rescore>
     Score         DG    S(hbond)    S(metal)    S(lipo)     H(rot)  DE(clash)    DE(int)     intcor
     18.54     -20.21       2.77        0.00      83.76       1.69       0.07       1.60       ----

> <Gold.Chemscore.Fitness>
18.5419

> <Gold.Chemscore.DG>
-20.2084

> <Gold.Chemscore.ZeroCoef>
-5.4800

> <Gold.Chemscore.Hbond>
2.7730

> <Gold.Chemscore.Metal>
0.0000

> <Gold.Chemscore.Lipo>
83.7640

> <Gold.Chemscore.Internal_Hbond>
0.0000

> <Gold.Chemscore.DEClash>
0.0659

> <Gold.Chemscore.DEInternal>
1.6005

> <Gold.Chemscore.Rot>
1.6929

> <Gold.Chemscore.Internal.Correction>
   9.000000E+99

> <Gold.Chemscore.Hbonds>
donor molecule, donor type, donor heavy atom, donor atom, acceptor molecule, acceptor atom, score
      L1  H     3    23       P1  7948  0.68
      L1  H    15    35       P1  7948  0.94
      L1  H    20    42       P1 10186  0.34

> <Gold.Chemscore.Hbond.Weighted>
-9.2617

> <Gold.Chemscore.Metal.Weighted>
-0.0000

> <Gold.Chemscore.Lipo.Weighted>
-9.8004

> <Gold.Chemscore.Internal_Hbond.Weighted>
0.0000

> <Gold.Chemscore.DEClash.Weighted>
0.0659

> <Gold.Chemscore.DEInternal.Weighted>
1.6005

> <Gold.Chemscore.Rot.Weighted>
4.3338

> <Gold.Chemscore.Internal.Correction.Weighted>
   9.000000E+99

> <Gold.Protein.RotatedTorsions>
[ 6907 6896 6895 6894 ] final  129.96 input  -60.11 | X-H torsion
[ 7974 7965 7964 7962 ] final  123.27 input  175.53 | X-H torsion
[ 8008 7997 7996 7995 ] final  165.03 input   59.86 | X-H torsion
[ 10167 10162 10161 10158 ] final   -2.75 input  -65.29 | X-H torsion
[ 10718 10713 10712 10709 ] final  -60.33 input   66.30 | X-H torsion
[ 10763 10752 10751 10750 ] final  -12.46 input  -60.55 | X-H torsion
[ 11005 11000 10999 10996 ] final  -42.96 input  -57.11 | X-H torsion

> <Gold.Protein.ActiveResidues>
 VAL166  LYS551  ARG553  GLY616  TRP617  ASP618  TYR619  PRO620  LYS621  CYS622 
 ASP623  PHE694  ASN695  SER759  ASP760  ASP761  ALA762  ILE779  LEU786  VAL792 
 PHE793  MET794  SER795  GLU796  ALA797  LYS798  CYS799  TRP800  GLU811  SER814 

> <Gold.Protein.RotatedAtoms>
  152.3573  133.6253  159.5988 H   0  0  0  0  0  0  0  0  0  0  0  0  # atno 6907 bound_to 6896
  150.7577  133.9479  159.3485 H   0  0  0  0  0  0  0  0  0  0  0  0  # atno 6908 bound_to 6896
  151.7322  135.0873  160.0353 H   0  0  0  0  0  0  0  0  0  0  0  0  # atno 6909 bound_to 6896
  145.0979  139.3540  143.4827 H   0  0  0  0  0  0  0  0  0  0  0  0  # atno 7974 bound_to 7965
  156.1833  140.1681  156.8232 H   0  0  0  0  0  0  0  0  0  0  0  0  # atno 8008 bound_to 7997
  154.5385  140.0741  156.8502 H   0  0  0  0  0  0  0  0  0  0  0  0  # atno 8009 bound_to 7997
  155.3262  140.3376  155.4242 H   0  0  0  0  0  0  0  0  0  0  0  0  # atno 8010 bound_to 7997
  140.6863  143.6621  150.8258 H   0  0  0  0  0  0  0  0  0  0  0  0  # atno 10167 bound_to 10162
  156.0998  130.4188  150.0838 H   0  0  0  0  0  0  0  0  0  0  0  0  # atno 10718 bound_to 10713
  153.4988  135.7017  153.5843 H   0  0  0  0  0  0  0  0  0  0  0  0  # atno 10763 bound_to 10752
  153.3983  135.3878  155.1970 H   0  0  0  0  0  0  0  0  0  0  0  0  # atno 10764 bound_to 10752
  154.8712  135.3875  154.4457 H   0  0  0  0  0  0  0  0  0  0  0  0  # atno 10765 bound_to 10752
  141.0351  133.6803  156.2666 H   0  0  0  0  0  0  0  0  0  0  0  0  # atno 11005 bound_to 11000
  146.3530  140.0843  142.8616 LP  0  0  0  0  0  0  0  0  0  0  0  0  # atno 17320 bound_to 7965
  145.0990  140.9333  143.4724 LP  0  0  0  0  0  0  0  0  0  0  0  0  # atno 17321 bound_to 7965
  140.0328  143.5426  152.2752 LP  0  0  0  0  0  0  0  0  0  0  0  0  # atno 17342 bound_to 10162
  139.6225  144.7631  151.2710 LP  0  0  0  0  0  0  0  0  0  0  0  0  # atno 17343 bound_to 10162
  156.8828  130.9562  151.3597 LP  0  0  0  0  0  0  0  0  0  0  0  0  # atno 17370 bound_to 10713
  157.6167  130.8623  149.9039 LP  0  0  0  0  0  0  0  0  0  0  0  0  # atno 17371 bound_to 10713
  140.6336  134.5238  157.5562 LP  0  0  0  0  0  0  0  0  0  0  0  0  # atno 17394 bound_to 11000
  139.9235  134.8102  156.1139 LP  0  0  0  0  0  0  0  0  0  0  0  0  # atno 17395 bound_to 11000

$$$$
