AV-unprocessed.smi:1|AV-procd|sdf|5|dock10
  -GOLD-   2262015 93D 1   1.00000     0.00000
 Structure written by MMmdl.
 57 62  0  0  0  0  0  0  0  0  1 V2000
  153.5807  140.3293  159.1709 O   0  0  0  0  0  0  0  0  0  0  0  0
  152.7357  141.0723  158.6704 C   0  0  0  0  0  0  0  0  0  0  0  0
  152.0451  140.7376  157.4374 N   0  0  0  0  0  0  0  0  0  0  0  0
  152.1348  139.5990  156.7105 C   0  0  0  0  0  0  0  0  0  0  0  0
  152.8657  139.5182  155.5677 N   0  0  0  0  0  0  0  0  0  0  0  0
  152.9224  138.3712  154.8851 C   0  0  0  0  0  0  0  0  0  0  0  0
  152.3338  137.2064  155.1630 N   0  0  0  0  0  0  0  0  0  0  0  0
  151.6004  137.2760  156.3110 C   0  0  0  0  0  0  0  0  0  0  0  0
  151.4533  138.4281  157.1336 C   0  0  0  0  0  0  0  0  0  0  0  0
  150.6371  138.1315  158.2169 N   0  0  0  0  0  0  0  0  0  0  0  0
  150.3240  136.8760  158.0417 C   0  0  0  0  0  0  0  0  0  0  0  0
  150.8556  136.2838  156.9172 N   0  0  0  0  0  0  0  0  0  0  0  0
  150.6764  134.8691  156.4692 C   0  0  2  0  0  0  0  0  0  0  0  0
  150.3081  134.8534  155.1216 O   0  0  0  0  0  0  0  0  0  0  0  0
  149.0202  134.2640  154.9582 C   0  0  1  0  0  0  0  0  0  0  0  0
  148.9130  133.5330  153.6151 C   0  0  0  0  0  0  0  0  0  0  0  0
  147.5590  133.5385  153.1948 O   0  0  0  0  0  0  0  0  0  0  0  0
  146.9179  132.3765  152.9662 C   0  0  0  0  0  0  0  0  0  0  0  0
  147.2399  131.3058  153.4855 O   0  0  0  0  0  0  0  0  0  0  0  0
  145.7736  132.5225  152.0209 C   0  0  0  0  0  0  0  0  0  0  0  0
  144.9461  131.4061  151.7567 C   0  0  0  0  0  0  0  0  0  0  0  0
  143.8567  131.5146  150.8703 C   0  0  0  0  0  0  0  0  0  0  0  0
  143.5821  132.7404  150.2366 C   0  0  0  0  0  0  0  0  0  0  0  0
  144.3986  133.8579  150.4896 C   0  0  0  0  0  0  0  0  0  0  0  0
  145.4882  133.7518  151.3763 C   0  0  0  0  0  0  0  0  0  0  0  0
  148.8587  133.3659  156.1828 C   0  0  1  0  0  0  0  0  0  0  0  0
  149.5302  132.1283  156.0119 O   0  0  0  0  0  0  0  0  0  0  0  0
  150.3334  131.7667  157.4314 S   0  0  0  0  0  0  0  0  0  0  0  0
  149.5475  130.7634  158.1652 O   0  0  0  0  0  0  0  0  0  0  0  0
  151.7594  131.5851  157.1194 O   0  0  0  0  0  0  0  0  0  0  0  0
  150.1462  133.2400  158.1986 O   0  0  0  0  0  0  0  0  0  0  0  0
  149.5824  134.1552  157.2761 C   0  0  1  0  0  0  0  0  0  0  0  0
  152.4211  142.4175  159.2577 C   0  0  0  0  0  0  0  0  0  0  0  0
  152.0269  143.4817  158.4157 C   0  0  0  0  0  0  0  0  0  0  0  0
  151.7462  144.7519  158.9556 C   0  0  0  0  0  0  0  0  0  0  0  0
  151.8638  144.9709  160.3411 C   0  0  0  0  0  0  0  0  0  0  0  0
  152.2671  143.9199  161.1861 C   0  0  0  0  0  0  0  0  0  0  0  0
  152.5488  142.6491  160.6473 C   0  0  0  0  0  0  0  0  0  0  0  0
  151.4044  141.4350  157.0872 H   0  0  0  0  0  0  0  0  0  0  0  0
  153.5250  138.3899  153.9891 H   0  0  0  0  0  0  0  0  0  0  0  0
  149.6886  136.3436  158.7346 H   0  0  0  0  0  0  0  0  0  0  0  0
  151.6620  134.4145  156.5771 H   0  0  0  0  0  0  0  0  0  0  0  0
  148.2639  135.0470  155.0073 H   0  0  0  0  0  0  0  0  0  0  0  0
  149.5520  134.0023  152.8657 H   0  0  0  0  0  0  0  0  0  0  0  0
  149.2428  132.4996  153.7315 H   0  0  0  0  0  0  0  0  0  0  0  0
  145.1369  130.4545  152.2319 H   0  0  0  0  0  0  0  0  0  0  0  0
  143.2314  130.6555  150.6770 H   0  0  0  0  0  0  0  0  0  0  0  0
  142.7467  132.8234  149.5572 H   0  0  0  0  0  0  0  0  0  0  0  0
  144.1895  134.7995  150.0033 H   0  0  0  0  0  0  0  0  0  0  0  0
  146.0945  134.6291  151.5480 H   0  0  0  0  0  0  0  0  0  0  0  0
  147.8132  133.1751  156.4271 H   0  0  0  0  0  0  0  0  0  0  0  0
  148.9163  134.8703  157.7599 H   0  0  0  0  0  0  0  0  0  0  0  0
  151.9330  143.3303  157.3499 H   0  0  0  0  0  0  0  0  0  0  0  0
  151.4414  145.5588  158.3057 H   0  0  0  0  0  0  0  0  0  0  0  0
  151.6489  145.9453  160.7545 H   0  0  0  0  0  0  0  0  0  0  0  0
  152.3635  144.0892  162.2486 H   0  0  0  0  0  0  0  0  0  0  0  0
  152.8664  141.8595  161.3128 H   0  0  0  0  0  0  0  0  0  0  0  0
  1  2  2  0  0  0  0
  2  3  1  0  0  0  0
  2 33  1  0  0  0  0
  3  4  1  0  0  0  0
  3 39  1  0  0  0  0
  4  9  1  0  0  0  0
  4  5  2  0  0  0  0
  5  6  1  0  0  0  0
  6  7  2  0  0  0  0
  6 40  1  0  0  0  0
  7  8  1  0  0  0  0
  8 12  1  0  0  0  0
  8  9  2  0  0  0  0
  9 10  1  0  0  0  0
 10 11  2  0  0  0  0
 11 12  1  0  0  0  0
 11 41  1  0  0  0  0
 12 13  1  0  0  0  0
 13 32  1  0  0  0  0
 13 14  1  0  0  0  0
 13 42  1  0  0  0  0
 14 15  1  0  0  0  0
 15 16  1  0  0  0  0
 15 26  1  0  0  0  0
 15 43  1  0  0  0  0
 16 17  1  0  0  0  0
 16 44  1  0  0  0  0
 16 45  1  0  0  0  0
 17 18  1  0  0  0  0
 18 19  2  0  0  0  0
 18 20  1  0  0  0  0
 20 25  1  0  0  0  0
 20 21  2  0  0  0  0
 21 22  1  0  0  0  0
 21 46  1  0  0  0  0
 22 23  2  0  0  0  0
 22 47  1  0  0  0  0
 23 24  1  0  0  0  0
 23 48  1  0  0  0  0
 24 25  2  0  0  0  0
 24 49  1  0  0  0  0
 25 50  1  0  0  0  0
 26 32  1  0  0  0  0
 26 27  1  0  0  0  0
 26 51  1  0  0  0  0
 27 28  1  0  0  0  0
 28 29  2  0  0  0  0
 28 30  2  0  0  0  0
 28 31  1  0  0  0  0
 31 32  1  0  0  0  0
 32 52  1  0  0  0  0
 33 38  1  0  0  0  0
 33 34  2  0  0  0  0
 34 35  1  0  0  0  0
 34 53  1  0  0  0  0
 35 36  2  0  0  0  0
 35 54  1  0  0  0  0
 36 37  1  0  0  0  0
 36 55  1  0  0  0  0
 37 38  2  0  0  0  0
 37 56  1  0  0  0  0
 38 57  1  0  0  0  0
M  END
> <s_m_source_file>
AV-unprocessed.smi

> <i_m_source_file_index>
1

> <i_lp_mmshare_version>
43012

> <i_f3d_flags>
0

> <s_epik_input>
W2NIXTFbY0hdW2NIXVtjSF1bY0hdYzFDKD1PKVtOSF1jKG5bY0hdbjIpYyhjMjMpbltjSF1uM1tDQEBIXShbQ0BIXShbQ0BIXTQ1KU9TKE81KSg9Tyk9TylPW0NASF00W0NIMl1PQyg9TyljNltjSF1bY0hdW2NIXVtjSF1bY0hdNg==

> <s_epik_cmdline>
J2VwaWtfcHl0aG9uJywgJy1waCcsICc3LjAnLCAnLXRuJywgJzgnLCAnLW1hJywgJzIwMCcsICctbWV0YWxfYmluZGluZycsICctaW1hZScsICc8aW5maWxlLm1hZT4nLCAnLW9tYWUnLCAnPG91dGZpbGUubWFlPic=

> <r_lp_tautomer_probability>
1

> <r_epik_Ionization_Penalty>
0.00195722

> <r_epik_Ionization_Penalty_Charging>
0

> <r_epik_Ionization_Penalty_Neutral>
0.00195722

> <r_epik_State_Penalty>
0.00633741

> <r_epik_Charging_Adjusted_Penalty>
0.00633741

> <i_epik_Tot_Q>
0

> <i_epik_Tot_abs_Q>
0

> <r_epik_Metal_State_Penalty>
0.341185

> <b_epik_Metal_Only>
0

> <s_epik_Chemistry_Notes>
This compound has an ester and may undergo hydrolysis at high or low pH. This compound contains an acetal/aminal-like group ( X-CH(R)-Y where X, Y are N, S, or O) that may be acid/base labile, releasing an aldehyde.

> <s_lp_Force_Field>
OPLS_2005

> <r_lp_Energy>
45.5474

> <b_lp_Chiralities_Consistent>
1

> <s_lp_Variant>
AV-unprocessed.smi:1-5

> <Gold.Version>
5.8.1

> <Gold.Id.Protein>
6NUR|6NUR_protein|mol2

> <Gold.PLP.Fitness>
62.4021

> <Gold.PLP.PLP>
-61.8932

> <Gold.PLP.part.hbond>
-3.3789

> <Gold.PLP.part.metal>
0.0000

> <Gold.PLP.part.buried>
-7.1356

> <Gold.PLP.part.nonpolar>
-52.4065

> <Gold.PLP.part.repulsive>
0.6976

> <Gold.PLP.ligand.clash>
0.0000

> <Gold.PLP.ligand.torsion>
2.3646

> <Gold.PLP.Chemscore.Hbond>
1.6880

> <Gold.PLP.Chemscore.CHOScore>
0.0000

> <Gold.PLP.Chemscore.Metal>
0.0000

> <Gold.Chemscore.Hbonds>
donor molecule, donor type, donor heavy atom, donor atom, acceptor molecule, acceptor atom, score
      P1  H  7997  8008       L1     5  1.00
      P1  H 10752 10765       L1     7  0.74

> <Gold.PLP.Chemscore.Internal.Correction>
0.1742

> <Gold.Rescore>
     Score         DG    S(hbond)    S(metal)    S(lipo)     H(rot)  DE(clash)    DE(int)     intcor
     16.43     -20.29       1.27        0.00     136.88       2.13       1.58       2.28       ----

> <Gold.Chemscore.Fitness>
16.4300

> <Gold.Chemscore.DG>
-20.2854

> <Gold.Chemscore.ZeroCoef>
-5.4800

> <Gold.Chemscore.Hbond>
1.2730

> <Gold.Chemscore.Metal>
0.0000

> <Gold.Chemscore.Lipo>
136.8789

> <Gold.Chemscore.Internal_Hbond>
0.0000

> <Gold.Chemscore.DEClash>
1.5802

> <Gold.Chemscore.DEInternal>
2.2751

> <Gold.Chemscore.Rot>
2.1333

> <Gold.Chemscore.Internal.Correction>
   9.000000E+99

> <Gold.Chemscore.Hbonds>
donor molecule, donor type, donor heavy atom, donor atom, acceptor molecule, acceptor atom, score
      P1  H  7997  8008       L1     5  0.49
      P1  H 10752 10765       L1     7  0.72

> <Gold.Chemscore.Hbond.Weighted>
-4.2519

> <Gold.Chemscore.Metal.Weighted>
-0.0000

> <Gold.Chemscore.Lipo.Weighted>
-16.0148

> <Gold.Chemscore.Internal_Hbond.Weighted>
0.0000

> <Gold.Chemscore.DEClash.Weighted>
1.5802

> <Gold.Chemscore.DEInternal.Weighted>
2.2751

> <Gold.Chemscore.Rot.Weighted>
5.4614

> <Gold.Chemscore.Internal.Correction.Weighted>
   9.000000E+99

> <Gold.Protein.RotatedTorsions>
[ 6907 6896 6895 6894 ] final -123.53 input  -60.11 | X-H torsion
[ 7974 7965 7964 7962 ] final  -63.00 input  175.53 | X-H torsion
[ 8008 7997 7996 7995 ] final  -18.58 input   59.86 | X-H torsion
[ 10167 10162 10161 10158 ] final  161.40 input  -65.29 | X-H torsion
[ 10718 10713 10712 10709 ] final -104.62 input   66.30 | X-H torsion
[ 10763 10752 10751 10750 ] final  178.00 input  -60.55 | X-H torsion
[ 11005 11000 10999 10996 ] final  132.80 input  -57.11 | X-H torsion

> <Gold.Protein.ActiveResidues>
 VAL166  LYS551  ARG553  GLY616  TRP617  ASP618  TYR619  PRO620  LYS621  CYS622 
 ASP623  PHE694  ASN695  SER759  ASP760  ASP761  ALA762  ILE779  LEU786  VAL792 
 PHE793  MET794  SER795  GLU796  ALA797  LYS798  CYS799  TRP800  GLU811  SER814 

> <Gold.Protein.RotatedAtoms>
  150.8680  133.7547  159.2970 H   0  0  0  0  0  0  0  0  0  0  0  0  # atno 6907 bound_to 6896
  151.5168  135.1065  159.9878 H   0  0  0  0  0  0  0  0  0  0  0  0  # atno 6908 bound_to 6896
  152.4674  133.7910  159.6957 H   0  0  0  0  0  0  0  0  0  0  0  0  # atno 6909 bound_to 6896
  145.7845  140.8744  143.0313 H   0  0  0  0  0  0  0  0  0  0  0  0  # atno 7974 bound_to 7965
  154.4896  140.2112  155.9577 H   0  0  0  0  0  0  0  0  0  0  0  0  # atno 8008 bound_to 7997
  156.1287  140.3201  155.8284 H   0  0  0  0  0  0  0  0  0  0  0  0  # atno 8009 bound_to 7997
  155.4337  140.0505  157.3007 H   0  0  0  0  0  0  0  0  0  0  0  0  # atno 8010 bound_to 7997
  139.4849  144.4540  151.8792 H   0  0  0  0  0  0  0  0  0  0  0  0  # atno 10167 bound_to 10162
  156.0312  130.5524  150.7423 H   0  0  0  0  0  0  0  0  0  0  0  0  # atno 10718 bound_to 10713
  154.5019  135.2784  155.1413 H   0  0  0  0  0  0  0  0  0  0  0  0  # atno 10763 bound_to 10752
  154.3043  135.6242  153.5442 H   0  0  0  0  0  0  0  0  0  0  0  0  # atno 10764 bound_to 10752
  152.9904  135.5704  154.5464 H   0  0  0  0  0  0  0  0  0  0  0  0  # atno 10765 bound_to 10752
  139.9812  134.9547  156.9634 H   0  0  0  0  0  0  0  0  0  0  0  0  # atno 11005 bound_to 11000
  144.6791  140.0035  143.7484 LP  0  0  0  0  0  0  0  0  0  0  0  0  # atno 17320 bound_to 7965
  146.0040  139.3115  143.0910 LP  0  0  0  0  0  0  0  0  0  0  0  0  # atno 17321 bound_to 7965
  140.3999  144.2507  150.5894 LP  0  0  0  0  0  0  0  0  0  0  0  0  # atno 17342 bound_to 10162
  140.5067  143.2302  151.8597 LP  0  0  0  0  0  0  0  0  0  0  0  0  # atno 17343 bound_to 10162
  157.4989  131.0917  151.0338 LP  0  0  0  0  0  0  0  0  0  0  0  0  # atno 17370 bound_to 10713
  157.0725  130.5870  149.5405 LP  0  0  0  0  0  0  0  0  0  0  0  0  # atno 17371 bound_to 10713
  140.5092  134.1019  155.7266 LP  0  0  0  0  0  0  0  0  0  0  0  0  # atno 17394 bound_to 11000
  141.1484  133.9013  157.2159 LP  0  0  0  0  0  0  0  0  0  0  0  0  # atno 17395 bound_to 11000

$$$$
