AV-unprocessed.smi:2076|AV-procd|sdf|8457|dock5
  -GOLD-   2272011153D 1   1.00000     0.00000
 Structure written by MMmdl.
 44 45  0  0  0  0  0  0  0  0  1 V2000
  153.8035  141.3679  161.7594 C   0  0  0  0  0  0  0  0  0  0  0  0
  153.0846  142.4250  160.9747 C   0  0  0  0  0  0  0  0  0  0  0  0
  152.5984  143.6830  161.4284 C   0  0  0  0  0  0  0  0  0  0  0  0
  152.0251  144.2426  160.3215 C   0  0  0  0  0  0  0  0  0  0  0  0
  151.3314  145.5546  160.1555 C   0  0  0  0  0  0  0  0  0  0  0  0
  152.1855  143.3388  159.2860 N   0  0  0  0  0  0  0  0  0  0  0  0
  151.7345  143.4345  157.9055 C   0  0  0  0  0  0  0  0  0  0  0  0
  150.9820  142.1696  157.4911 C   0  0  0  0  0  0  0  0  0  0  0  0
  151.4231  141.0612  157.7939 O   0  0  0  0  0  0  0  0  0  0  0  0
  149.8617  142.3518  156.7753 N   0  0  0  0  0  0  0  0  0  0  0  0
  149.0781  141.2887  156.1557 C   0  0  0  0  0  0  0  0  0  0  0  0
  149.8847  140.4733  155.1023 C   0  0  2  0  0  0  0  0  0  0  0  0
  148.8910  139.7356  154.1672 C   0  0  0  0  0  0  0  0  0  0  0  0
  150.8858  139.5648  155.7083 N   0  0  0  0  0  0  0  0  0  0  0  0
  151.8688  139.0748  154.7349 C   0  0  0  0  0  0  0  0  0  0  0  0
  152.8900  138.1037  155.3527 C   0  0  0  0  0  0  0  0  0  0  0  0
  152.2108  137.0107  155.9546 O   0  0  0  0  0  0  0  0  0  0  0  0
  151.3041  137.4365  156.9619 C   0  0  0  0  0  0  0  0  0  0  0  0
  150.2700  138.3995  156.3540 C   0  0  0  0  0  0  0  0  0  0  0  0
  152.8372  142.2263  159.6906 N   0  0  0  0  0  0  0  0  0  0  0  0
  153.8147  141.6063  162.8231 H   0  0  0  0  0  0  0  0  0  0  0  0
  154.8380  141.2713  161.4298 H   0  0  0  0  0  0  0  0  0  0  0  0
  153.3234  140.3957  161.6435 H   0  0  0  0  0  0  0  0  0  0  0  0
  152.6574  144.1089  162.4193 H   0  0  0  0  0  0  0  0  0  0  0  0
  151.3502  146.1251  161.0842 H   0  0  0  0  0  0  0  0  0  0  0  0
  150.2885  145.4096  159.8736 H   0  0  0  0  0  0  0  0  0  0  0  0
  151.8128  146.1555  159.3837 H   0  0  0  0  0  0  0  0  0  0  0  0
  151.0921  144.3095  157.7999 H   0  0  0  0  0  0  0  0  0  0  0  0
  152.5924  143.5874  157.2487 H   0  0  0  0  0  0  0  0  0  0  0  0
  149.5771  143.3009  156.5793 H   0  0  0  0  0  0  0  0  0  0  0  0
  148.7029  140.6605  156.9626 H   0  0  0  0  0  0  0  0  0  0  0  0
  148.2056  141.7421  155.6849 H   0  0  0  0  0  0  0  0  0  0  0  0
  150.4225  141.1935  154.4834 H   0  0  0  0  0  0  0  0  0  0  0  0
  148.1352  140.4009  153.7507 H   0  0  0  0  0  0  0  0  0  0  0  0
  148.3687  138.9387  154.6976 H   0  0  0  0  0  0  0  0  0  0  0  0
  149.3841  139.2979  153.3007 H   0  0  0  0  0  0  0  0  0  0  0  0
  151.3568  138.5830  153.9064 H   0  0  0  0  0  0  0  0  0  0  0  0
  152.4375  139.9000  154.3118 H   0  0  0  0  0  0  0  0  0  0  0  0
  153.5624  137.7234  154.5838 H   0  0  0  0  0  0  0  0  0  0  0  0
  153.5075  138.6125  156.0950 H   0  0  0  0  0  0  0  0  0  0  0  0
  150.8060  136.5637  157.3839 H   0  0  0  0  0  0  0  0  0  0  0  0
  151.8495  137.9178  157.7753 H   0  0  0  0  0  0  0  0  0  0  0  0
  149.6129  138.7114  157.1638 H   0  0  0  0  0  0  0  0  0  0  0  0
  149.6528  137.8601  155.6338 H   0  0  0  0  0  0  0  0  0  0  0  0
  1  2  1  0  0  0  0
  1 21  1  0  0  0  0
  1 22  1  0  0  0  0
  1 23  1  0  0  0  0
  2 20  2  0  0  0  0
  2  3  1  0  0  0  0
  3  4  2  0  0  0  0
  3 24  1  0  0  0  0
  4  5  1  0  0  0  0
  4  6  1  0  0  0  0
  5 25  1  0  0  0  0
  5 26  1  0  0  0  0
  5 27  1  0  0  0  0
  6  7  1  0  0  0  0
  6 20  1  0  0  0  0
  7  8  1  0  0  0  0
  7 28  1  0  0  0  0
  7 29  1  0  0  0  0
  8  9  2  0  0  0  0
  8 10  1  0  0  0  0
 10 11  1  0  0  0  0
 10 30  1  0  0  0  0
 11 12  1  0  0  0  0
 11 31  1  0  0  0  0
 11 32  1  0  0  0  0
 12 13  1  0  0  0  0
 12 14  1  0  0  0  0
 12 33  1  0  0  0  0
 13 34  1  0  0  0  0
 13 35  1  0  0  0  0
 13 36  1  0  0  0  0
 14 19  1  0  0  0  0
 14 15  1  0  0  0  0
 15 16  1  0  0  0  0
 15 37  1  0  0  0  0
 15 38  1  0  0  0  0
 16 17  1  0  0  0  0
 16 39  1  0  0  0  0
 16 40  1  0  0  0  0
 17 18  1  0  0  0  0
 18 19  1  0  0  0  0
 18 41  1  0  0  0  0
 18 42  1  0  0  0  0
 19 43  1  0  0  0  0
 19 44  1  0  0  0  0
M  END
> <s_m_source_file>
AV-unprocessed.smi

> <i_m_source_file_index>
2076

> <i_lp_mmshare_version>
43012

> <i_f3d_flags>
0

> <s_epik_input>
W0NIM11jMVtjSF1jKFtDSDNdKW4objEpW0NIMl1DKD1PKVtOSF1bQ0gyXVtDQEhdKFtDSDNdKU4yW0NIMl1bQ0gyXU9bQ0gyXVtDSDJdMg==

> <s_epik_cmdline>
J2VwaWtfcHl0aG9uJywgJy1waCcsICc3LjAnLCAnLXRuJywgJzgnLCAnLW1hJywgJzIwMCcsICctbWV0YWxfYmluZGluZycsICctaW1hZScsICc8aW5maWxlLm1hZT4nLCAnLW9tYWUnLCAnPG91dGZpbGUubWFlPic=

> <r_lp_tautomer_probability>
1

> <r_epik_Ionization_Penalty>
0.197284

> <r_epik_Ionization_Penalty_Charging>
0

> <r_epik_Ionization_Penalty_Neutral>
0.197284

> <r_epik_State_Penalty>
0.186684

> <r_epik_Charging_Adjusted_Penalty>
0.186684

> <i_epik_Tot_Q>
0

> <i_epik_Tot_abs_Q>
0

> <r_epik_Metal_State_Penalty>
0.186636

> <b_epik_Metal_Only>
0

> <s_lp_Force_Field>
OPLS_2005

> <r_lp_Energy>
25.7273

> <b_lp_Chiralities_Consistent>
1

> <s_lp_Variant>
AV-unprocessed.smi:2076-1

> <Gold.Version>
5.8.1

> <Gold.Id.Protein>
6NUR|6NUR_protein|mol2

> <Gold.PLP.Fitness>
47.0397

> <Gold.PLP.PLP>
-42.3719

> <Gold.PLP.part.hbond>
-2.0000

> <Gold.PLP.part.metal>
0.0000

> <Gold.PLP.part.buried>
-2.9055

> <Gold.PLP.part.nonpolar>
-37.3686

> <Gold.PLP.part.repulsive>
0.0674

> <Gold.PLP.ligand.clash>
0.0000

> <Gold.PLP.ligand.torsion>
0.5970

> <Gold.PLP.Chemscore.Hbond>
1.9440

> <Gold.PLP.Chemscore.CHOScore>
0.0000

> <Gold.PLP.Chemscore.Metal>
0.0000

> <Gold.Chemscore.Hbonds>
donor molecule, donor type, donor heavy atom, donor atom, acceptor molecule, acceptor atom, score
      L1  H    10    30       P1  8028  1.00
      P1  H 10752 10763       L1    17  0.91

> <Gold.PLP.Chemscore.Internal.Correction>
0.0298

> <Gold.Rescore>
     Score         DG    S(hbond)    S(metal)    S(lipo)     H(rot)  DE(clash)    DE(int)     intcor
     15.35     -19.69       1.66        0.00     111.24       1.70       0.38       3.96       ----

> <Gold.Chemscore.Fitness>
15.3450

> <Gold.Chemscore.DG>
-19.6901

> <Gold.Chemscore.ZeroCoef>
-5.4800

> <Gold.Chemscore.Hbond>
1.6601

> <Gold.Chemscore.Metal>
0.0000

> <Gold.Chemscore.Lipo>
111.2449

> <Gold.Chemscore.Internal_Hbond>
0.0000

> <Gold.Chemscore.DEClash>
0.3831

> <Gold.Chemscore.DEInternal>
3.9619

> <Gold.Chemscore.Rot>
1.6993

> <Gold.Chemscore.Internal.Correction>
   9.000000E+99

> <Gold.Chemscore.Hbonds>
donor molecule, donor type, donor heavy atom, donor atom, acceptor molecule, acceptor atom, score
      L1  H    10    30       P1  8028  1.00
      P1  H 10752 10763       L1    17  0.19

> <Gold.Chemscore.Hbond.Weighted>
-5.5446

> <Gold.Chemscore.Metal.Weighted>
-0.0000

> <Gold.Chemscore.Lipo.Weighted>
-13.0156

> <Gold.Chemscore.Internal_Hbond.Weighted>
0.0000

> <Gold.Chemscore.DEClash.Weighted>
0.3831

> <Gold.Chemscore.DEInternal.Weighted>
3.9619

> <Gold.Chemscore.Rot.Weighted>
4.3502

> <Gold.Chemscore.Internal.Correction.Weighted>
   9.000000E+99

> <Gold.Protein.RotatedTorsions>
[ 6907 6896 6895 6894 ] final -170.16 input  -60.11 | X-H torsion
[ 7974 7965 7964 7962 ] final -140.12 input  175.53 | X-H torsion
[ 8008 7997 7996 7995 ] final  -87.83 input   59.86 | X-H torsion
[ 10167 10162 10161 10158 ] final  -46.17 input  -65.29 | X-H torsion
[ 10718 10713 10712 10709 ] final  -39.20 input   66.30 | X-H torsion
[ 10763 10752 10751 10750 ] final   87.63 input  -60.55 | X-H torsion
[ 11005 11000 10999 10996 ] final  152.50 input  -57.11 | X-H torsion

> <Gold.Protein.ActiveResidues>
 VAL166  LYS551  ARG553  GLY616  TRP617  ASP618  TYR619  PRO620  LYS621  CYS622 
 ASP623  PHE694  ASN695  SER759  ASP760  ASP761  ALA762  ILE779  LEU786  VAL792 
 PHE793  MET794  SER795  GLU796  ALA797  LYS798  CYS799  TRP800  GLU811  SER814 

> <Gold.Protein.RotatedAtoms>
  151.5033  133.3500  159.2872 H   0  0  0  0  0  0  0  0  0  0  0  0  # atno 6907 bound_to 6896
  150.8759  134.8144  159.7200 H   0  0  0  0  0  0  0  0  0  0  0  0  # atno 6908 bound_to 6896
  152.4730  134.4924  159.9751 H   0  0  0  0  0  0  0  0  0  0  0  0  # atno 6909 bound_to 6896
  144.8622  140.6237  143.5321 H   0  0  0  0  0  0  0  0  0  0  0  0  # atno 7974 bound_to 7965
  154.6678  140.0561  157.0132 H   0  0  0  0  0  0  0  0  0  0  0  0  # atno 8008 bound_to 7997
  155.1133  140.3240  155.4497 H   0  0  0  0  0  0  0  0  0  0  0  0  # atno 8009 bound_to 7997
  156.2645  140.2010  156.6257 H   0  0  0  0  0  0  0  0  0  0  0  0  # atno 8010 bound_to 7997
  140.6828  143.2844  151.3744 H   0  0  0  0  0  0  0  0  0  0  0  0  # atno 10167 bound_to 10162
  156.2951  130.4233  149.8199 H   0  0  0  0  0  0  0  0  0  0  0  0  # atno 10718 bound_to 10713
  153.1687  135.4536  154.9873 H   0  0  0  0  0  0  0  0  0  0  0  0  # atno 10763 bound_to 10752
  154.7950  135.3234  154.7689 H   0  0  0  0  0  0  0  0  0  0  0  0  # atno 10764 bound_to 10752
  153.8169  135.6950  153.4887 H   0  0  0  0  0  0  0  0  0  0  0  0  # atno 10765 bound_to 10752
  140.1313  134.8800  157.2207 H   0  0  0  0  0  0  0  0  0  0  0  0  # atno 11005 bound_to 11000
  145.4290  139.1552  143.4033 LP  0  0  0  0  0  0  0  0  0  0  0  0  # atno 17320 bound_to 7965
  146.2869  140.4405  142.8754 LP  0  0  0  0  0  0  0  0  0  0  0  0  # atno 17321 bound_to 7965
  139.6163  144.0996  152.2349 LP  0  0  0  0  0  0  0  0  0  0  0  0  # atno 17342 bound_to 10162
  140.0426  144.5996  150.7399 LP  0  0  0  0  0  0  0  0  0  0  0  0  # atno 17343 bound_to 10162
  156.5597  130.8378  151.3325 LP  0  0  0  0  0  0  0  0  0  0  0  0  # atno 17370 bound_to 10713
  157.7353  130.9760  150.2075 LP  0  0  0  0  0  0  0  0  0  0  0  0  # atno 17371 bound_to 10713
  140.2839  134.3319  155.7335 LP  0  0  0  0  0  0  0  0  0  0  0  0  # atno 17394 bound_to 11000
  141.2170  133.7494  156.9404 LP  0  0  0  0  0  0  0  0  0  0  0  0  # atno 17395 bound_to 11000

$$$$
