AV-unprocessed.smi:290|AV-procd|sdf|2244|dock1
  -GOLD-   2262022123D 1   1.00000     0.00000
 Structure written by MMmdl.
 59 62  0  0  0  0  0  0  0  0  2 V2000
  150.9308  141.2649  157.2581 C   0  0  0  0  0  0  0  0  0  0  0  0
  150.9717  139.9901  156.3970 C   0  0  1  0  0  0  0  0  0  0  0  0
  151.5160  140.2825  155.1107 O   0  0  0  0  0  0  0  0  0  0  0  0
  152.6688  139.4870  154.8766 C   0  0  0  0  0  0  0  0  0  0  0  0
  152.4306  138.2332  155.7072 C   0  0  0  0  0  0  0  0  0  0  0  0
  151.7719  138.7884  156.9606 C   0  0  1  0  0  0  0  0  0  0  0  0
  152.7971  139.2288  157.8372 O   0  0  0  0  0  0  0  0  0  0  0  0
  150.9150  137.7300  157.6968 C   0  0  0  0  0  0  0  0  0  0  0  0
  149.8316  137.1977  156.8857 N   0  0  0  0  0  0  0  0  0  0  0  0
  148.6409  137.8211  156.5944 C   0  0  0  0  0  0  0  0  0  0  0  0
  147.8351  137.1432  155.8253 N   0  0  0  0  0  0  0  0  0  0  0  0
  148.5121  135.9546  155.5711 C   0  0  0  0  0  0  0  0  0  0  0  0
  148.2287  134.7807  154.8092 C   0  0  0  0  0  0  0  0  0  0  0  0
  147.0991  134.5853  154.0749 N   0  0  0  0  0  0  0  0  0  0  0  0
  145.9807  135.5215  154.1272 C   0  0  0  0  0  0  0  0  0  0  0  0
  144.8048  134.8096  153.4450 C   0  0  0  0  0  0  0  0  0  0  0  0
  145.4540  133.6186  152.7182 C   0  0  2  0  0  0  0  0  0  0  0  0
  144.5506  132.4713  152.4054 N   0  3  2  0  0  0  0  0  0  0  0  0
  145.3098  131.2704  151.9708 C   0  0  0  0  0  0  0  0  0  0  0  0
  143.4518  132.7975  151.4539 C   0  0  0  0  0  0  0  0  0  0  0  0
  143.9055  132.7073  149.9864 C   0  0  0  0  0  0  0  0  0  0  0  0
  142.8625  132.1808  149.1931 O   0  0  0  0  0  0  0  0  0  0  0  0
  146.6267  133.2713  153.6594 C   0  0  2  0  0  0  0  0  0  0  0  0
  146.2124  132.4162  154.8815 C   0  0  0  0  0  0  0  0  0  0  0  0
  149.1597  133.7902  154.8331 N   0  0  0  0  0  0  0  0  0  0  0  0
  150.2933  133.9346  155.5241 C   0  0  0  0  0  0  0  0  0  0  0  0
  150.6955  134.9740  156.2550 N   0  0  0  0  0  0  0  0  0  0  0  0
  149.7646  135.9693  156.2519 C   0  0  0  0  0  0  0  0  0  0  0  0
  145.8649  133.9907  151.7772 H   0  0  0  0  0  0  0  0  0  0  0  0
  147.3960  132.7575  153.0856 H   0  0  0  0  0  0  0  0  0  0  0  0
  150.5248  141.0645  158.2493 H   0  0  0  0  0  0  0  0  0  0  0  0
  150.3000  142.0222  156.7924 H   0  0  0  0  0  0  0  0  0  0  0  0
  151.9236  141.6987  157.3809 H   0  0  0  0  0  0  0  0  0  0  0  0
  149.9467  139.6721  156.2060 H   0  0  0  0  0  0  0  0  0  0  0  0
  152.8000  139.2730  153.8158 H   0  0  0  0  0  0  0  0  0  0  0  0
  153.5513  140.0224  155.2293 H   0  0  0  0  0  0  0  0  0  0  0  0
  151.7402  137.5778  155.1744 H   0  0  0  0  0  0  0  0  0  0  0  0
  153.3430  137.6681  155.9032 H   0  0  0  0  0  0  0  0  0  0  0  0
  152.7046  138.7693  158.6576 H   0  0  0  0  0  0  0  0  0  0  0  0
  151.5401  136.8973  158.0215 H   0  0  0  0  0  0  0  0  0  0  0  0
  150.4845  138.1572  158.6035 H   0  0  0  0  0  0  0  0  0  0  0  0
  148.3920  138.8052  156.9644 H   0  0  0  0  0  0  0  0  0  0  0  0
  145.7271  135.7964  155.1519 H   0  0  0  0  0  0  0  0  0  0  0  0
  146.2496  136.4291  153.5853 H   0  0  0  0  0  0  0  0  0  0  0  0
  144.0987  134.4597  154.1994 H   0  0  0  0  0  0  0  0  0  0  0  0
  144.2708  135.4805  152.7714 H   0  0  0  0  0  0  0  0  0  0  0  0
  145.8382  131.4625  151.0361 H   0  0  0  0  0  0  0  0  0  0  0  0
  144.6546  130.4146  151.8164 H   0  0  0  0  0  0  0  0  0  0  0  0
  146.0461  130.9664  152.7136 H   0  0  0  0  0  0  0  0  0  0  0  0
  142.6044  132.1240  151.5663 H   0  0  0  0  0  0  0  0  0  0  0  0
  143.0674  133.7950  151.6717 H   0  0  0  0  0  0  0  0  0  0  0  0
  144.1468  133.7032  149.6137 H   0  0  0  0  0  0  0  0  0  0  0  0
  144.8020  132.1009  149.8636 H   0  0  0  0  0  0  0  0  0  0  0  0
  142.1547  132.8074  149.1692 H   0  0  0  0  0  0  0  0  0  0  0  0
  145.8450  131.4351  154.5831 H   0  0  0  0  0  0  0  0  0  0  0  0
  145.4292  132.8964  155.4684 H   0  0  0  0  0  0  0  0  0  0  0  0
  147.0557  132.2440  155.5500 H   0  0  0  0  0  0  0  0  0  0  0  0
  150.9766  133.0992  155.4821 H   0  0  0  0  0  0  0  0  0  0  0  0
  144.0966  132.2370  153.2771 H   0  0  0  0  0  0  0  0  0  0  0  0
  1  2  1  0  0  0  0
  1 31  1  0  0  0  0
  1 32  1  0  0  0  0
  1 33  1  0  0  0  0
  2  6  1  0  0  0  0
  2  3  1  0  0  0  0
  2 34  1  0  0  0  0
  3  4  1  0  0  0  0
  4  5  1  0  0  0  0
  4 35  1  0  0  0  0
  4 36  1  0  0  0  0
  5  6  1  0  0  0  0
  5 37  1  0  0  0  0
  5 38  1  0  0  0  0
  6  7  1  0  0  0  0
  6  8  1  0  0  0  0
  7 39  1  0  0  0  0
  8  9  1  0  0  0  0
  8 40  1  0  0  0  0
  8 41  1  0  0  0  0
  9 28  1  0  0  0  0
  9 10  1  0  0  0  0
 10 11  2  0  0  0  0
 10 42  1  0  0  0  0
 11 12  1  0  0  0  0
 12 28  2  0  0  0  0
 12 13  1  0  0  0  0
 13 14  1  0  0  0  0
 13 25  2  0  0  0  0
 14 23  1  0  0  0  0
 14 15  1  0  0  0  0
 15 16  1  0  0  0  0
 15 43  1  0  0  0  0
 15 44  1  0  0  0  0
 16 17  1  0  0  0  0
 16 45  1  0  0  0  0
 16 46  1  0  0  0  0
 17 29  1  0  0  0  0
 17 18  1  0  0  0  0
 17 23  1  0  0  0  0
 18 19  1  0  0  0  0
 18 20  1  0  0  0  0
 18 59  1  0  0  0  0
 19 47  1  0  0  0  0
 19 48  1  0  0  0  0
 19 49  1  0  0  0  0
 20 21  1  0  0  0  0
 20 50  1  0  0  0  0
 20 51  1  0  0  0  0
 21 22  1  0  0  0  0
 21 52  1  0  0  0  0
 21 53  1  0  0  0  0
 22 54  1  0  0  0  0
 23 30  1  0  0  0  0
 23 24  1  0  0  0  0
 24 55  1  0  0  0  0
 24 56  1  0  0  0  0
 24 57  1  0  0  0  0
 25 26  1  0  0  0  0
 26 27  2  0  0  0  0
 26 58  1  0  0  0  0
 27 28  1  0  0  0  0
M  CHG  1  18   1
M  END
> <s_m_source_file>
AV-unprocessed.smi

> <i_m_source_file_index>
290

> <i_lp_mmshare_version>
43012

> <i_f3d_flags>
0

> <s_epik_input>
W0NIMl0xW0NIMl1PW0NAQEhdKFtDSDNdKVtDQEBdMShbT0hdKVtDSDJdbihbY0hdbjIpYyhjMjMpbltjSF1uYzNONFtDSDJdW0NIMl1bQ0BIXShbQ0BIXTRbQ0gzXSlOKFtDSDNdKVtDSDJdW0NIMl1bT0hd

> <s_epik_cmdline>
J2VwaWtfcHl0aG9uJywgJy1waCcsICc3LjAnLCAnLXRuJywgJzgnLCAnLW1hJywgJzIwMCcsICctbWV0YWxfYmluZGluZycsICctaW1hZScsICc8aW5maWxlLm1hZT4nLCAnLW9tYWUnLCAnPG91dGZpbGUubWFlPic=

> <r_lp_tautomer_probability>
1

> <r_epik_Ionization_Penalty>
0.0036983

> <r_epik_Ionization_Penalty_Charging>
0.0032725

> <r_epik_Ionization_Penalty_Neutral>
0.000425798

> <r_epik_State_Penalty>
-0

> <r_epik_Charging_Adjusted_Penalty>
0.0032725

> <i_epik_Tot_Q>
1

> <i_epik_Tot_abs_Q>
1

> <r_epik_Metal_State_Penalty>
-0

> <b_epik_Metal_Only>
0

> <s_lp_Force_Field>
OPLS_2005

> <r_lp_Energy>
62.044

> <b_lp_Chiralities_Consistent>
1

> <s_lp_Variant>
AV-unprocessed.smi:290-30

> <Gold.Version>
5.8.1

> <Gold.Id.Protein>
6NUR|6NUR_protein|mol2

> <Gold.PLP.Fitness>
46.9120

> <Gold.PLP.PLP>
-33.8911

> <Gold.PLP.part.hbond>
-5.6973

> <Gold.PLP.part.metal>
0.0000

> <Gold.PLP.part.buried>
-5.2134

> <Gold.PLP.part.nonpolar>
-24.3283

> <Gold.PLP.part.repulsive>
0.1954

> <Gold.PLP.ligand.clash>
0.0000

> <Gold.PLP.ligand.torsion>
0.8328

> <Gold.PLP.Chemscore.Hbond>
4.7098

> <Gold.PLP.Chemscore.CHOScore>
0.0000

> <Gold.PLP.Chemscore.Metal>
0.0000

> <Gold.Chemscore.Hbonds>
donor molecule, donor type, donor heavy atom, donor atom, acceptor molecule, acceptor atom, score
      L1  H    18    59       P1 10957  0.96
      L1  H    22    54       P1 10186  1.00
      P1  H  7989  7998       L1     3  0.44
      P1  H  7997  8010       L1     7  0.68
      P1  H 10785 10796       L1    22  0.80

> <Gold.PLP.Chemscore.Internal.Correction>
0.5573

> <Gold.Rescore>
     Score         DG    S(hbond)    S(metal)    S(lipo)     H(rot)  DE(clash)    DE(int)     intcor
     15.16     -17.69       3.40        0.00      80.50       3.35       0.62       1.91       ----

> <Gold.Chemscore.Fitness>
15.1627

> <Gold.Chemscore.DG>
-17.6897

> <Gold.Chemscore.ZeroCoef>
-5.4800

> <Gold.Chemscore.Hbond>
3.4047

> <Gold.Chemscore.Metal>
0.0000

> <Gold.Chemscore.Lipo>
80.5007

> <Gold.Chemscore.Internal_Hbond>
0.0000

> <Gold.Chemscore.DEClash>
0.6203

> <Gold.Chemscore.DEInternal>
1.9066

> <Gold.Chemscore.Rot>
3.3518

> <Gold.Chemscore.Internal.Correction>
   9.000000E+99

> <Gold.Chemscore.Hbonds>
donor molecule, donor type, donor heavy atom, donor atom, acceptor molecule, acceptor atom, score
      L1  H    18    59       P1 10957  0.03
      L1  H    22    54       P1 10186  0.96
      P1  H  7989  7998       L1     3  0.01
      P1  H  7997  8010       L1     7  0.44
      P1  H 10785 10796       L1    22  0.64

> <Gold.Chemscore.Hbond.Weighted>
-11.3716

> <Gold.Chemscore.Metal.Weighted>
-0.0000

> <Gold.Chemscore.Lipo.Weighted>
-9.4186

> <Gold.Chemscore.Internal_Hbond.Weighted>
0.0000

> <Gold.Chemscore.DEClash.Weighted>
0.6203

> <Gold.Chemscore.DEInternal.Weighted>
1.9066

> <Gold.Chemscore.Rot.Weighted>
8.5806

> <Gold.Chemscore.Internal.Correction.Weighted>
   9.000000E+99

> <Gold.Protein.RotatedTorsions>
[ 6907 6896 6895 6894 ] final  -53.40 input  -60.11 | X-H torsion
[ 7974 7965 7964 7962 ] final   93.03 input  175.53 | X-H torsion
[ 8008 7997 7996 7995 ] final   60.98 input   59.86 | X-H torsion
[ 10167 10162 10161 10158 ] final  129.23 input  -65.29 | X-H torsion
[ 10718 10713 10712 10709 ] final -163.54 input   66.30 | X-H torsion
[ 10763 10752 10751 10750 ] final  -68.52 input  -60.55 | X-H torsion
[ 11005 11000 10999 10996 ] final   86.73 input  -57.11 | X-H torsion

> <Gold.Protein.ActiveResidues>
 VAL166  LYS551  ARG553  GLY616  TRP617  ASP618  TYR619  PRO620  LYS621  CYS622 
 ASP623  PHE694  ASN695  SER759  ASP760  ASP761  ALA762  ILE779  LEU786  VAL792 
 PHE793  MET794  SER795  GLU796  ALA797  LYS798  CYS799  TRP800  GLU811  SER814 

> <Gold.Protein.RotatedAtoms>
  150.8430  134.7729  159.6947 H   0  0  0  0  0  0  0  0  0  0  0  0  # atno 6907 bound_to 6896
  152.4513  134.5384  159.9841 H   0  0  0  0  0  0  0  0  0  0  0  0  # atno 6908 bound_to 6896
  151.5520  133.3378  159.2990 H   0  0  0  0  0  0  0  0  0  0  0  0  # atno 6909 bound_to 6896
  145.4844  139.2277  143.2864 H   0  0  0  0  0  0  0  0  0  0  0  0  # atno 7974 bound_to 7965
  155.5910  140.3493  155.4566 H   0  0  0  0  0  0  0  0  0  0  0  0  # atno 8008 bound_to 7997
  156.0301  140.1272  157.0292 H   0  0  0  0  0  0  0  0  0  0  0  0  # atno 8009 bound_to 7997
  154.4349  140.1045  156.6073 H   0  0  0  0  0  0  0  0  0  0  0  0  # atno 8010 bound_to 7997
  139.5488  144.6796  151.4389 H   0  0  0  0  0  0  0  0  0  0  0  0  # atno 10167 bound_to 10162
  156.6261  130.8910  151.2968 H   0  0  0  0  0  0  0  0  0  0  0  0  # atno 10718 bound_to 10713
  154.3902  135.6054  153.5839 H   0  0  0  0  0  0  0  0  0  0  0  0  # atno 10763 bound_to 10752
  152.9787  135.5882  154.4306 H   0  0  0  0  0  0  0  0  0  0  0  0  # atno 10764 bound_to 10752
  154.4089  135.2844  155.2027 H   0  0  0  0  0  0  0  0  0  0  0  0  # atno 10765 bound_to 10752
  139.8937  134.8375  156.2761 H   0  0  0  0  0  0  0  0  0  0  0  0  # atno 11005 bound_to 11000
  146.2322  140.5633  142.8970 LP  0  0  0  0  0  0  0  0  0  0  0  0  # atno 17320 bound_to 7965
  144.7870  140.5956  143.6567 LP  0  0  0  0  0  0  0  0  0  0  0  0  # atno 17321 bound_to 7965
  140.6744  143.8221  150.7040 LP  0  0  0  0  0  0  0  0  0  0  0  0  # atno 17342 bound_to 10162
  140.1656  143.4238  152.2037 LP  0  0  0  0  0  0  0  0  0  0  0  0  # atno 17343 bound_to 10162
  157.7213  130.9563  150.1452 LP  0  0  0  0  0  0  0  0  0  0  0  0  # atno 17370 bound_to 10713
  156.2272  130.3679  149.8487 LP  0  0  0  0  0  0  0  0  0  0  0  0  # atno 17371 bound_to 10713
  141.0069  133.7118  156.1049 LP  0  0  0  0  0  0  0  0  0  0  0  0  # atno 17394 bound_to 11000
  140.7421  134.4139  157.5553 LP  0  0  0  0  0  0  0  0  0  0  0  0  # atno 17395 bound_to 11000

$$$$
