AV-unprocessed.smi:179|AV-procd|sdf|1450|dock2
  -GOLD-   2262019243D 1   1.00000     0.00000
 Structure written by MMmdl.
 45 48  0  0  0  0  0  0  0  0  2 V2000
  152.4334  139.6555  156.1452 O   0  0  0  0  0  0  0  0  0  0  0  0
  151.6415  140.2019  155.1090 C   0  0  0  0  0  0  0  0  0  0  0  0
  150.1503  140.2883  155.4894 C   0  0  0  0  0  0  0  0  0  0  0  0
  150.0552  141.1328  156.7740 C   0  0  0  0  0  0  0  0  0  0  0  0
  150.4339  142.4749  156.5452 O   0  0  0  0  0  0  0  0  0  0  0  0
  149.1567  140.6732  154.3673 C   0  0  0  0  0  0  0  0  0  0  0  0
  148.1767  139.6187  154.8865 C   0  0  0  0  0  0  0  0  0  0  0  0
  147.3199  138.8940  153.9886 N   0  0  0  0  0  0  0  0  0  0  0  0
  147.0877  139.1715  152.6891 C   0  0  0  0  0  0  0  0  0  0  0  0
  146.2580  138.3665  152.0286 N   0  0  0  0  0  0  0  0  0  0  0  0
  145.9110  137.4572  153.0134 C   0  0  0  0  0  0  0  0  0  0  0  0
  145.0581  136.3279  152.9960 C   0  0  0  0  0  0  0  0  0  0  0  0
  144.3575  135.9322  151.8226 N   0  0  0  0  0  0  0  0  0  0  0  0
  145.1868  135.4746  150.7118 C   0  0  0  0  0  0  0  0  0  0  0  0
  144.4935  134.1109  150.7982 C   0  0  0  0  0  0  0  0  0  0  0  0
  143.7750  133.7535  149.6346 O   0  0  0  0  0  0  0  0  0  0  0  0
  145.3642  132.8772  151.0680 C   0  0  0  0  0  0  0  0  0  0  0  0
  144.6235  131.7864  151.2556 F   0  0  0  0  0  0  0  0  0  0  0  0
  146.1893  132.6560  150.0440 F   0  0  0  0  0  0  0  0  0  0  0  0
  143.6453  134.6655  151.9466 C   0  0  0  0  0  0  0  0  0  0  0  0
  144.9365  135.6412  154.1695 N   0  3  0  0  0  0  0  0  0  0  0  0
  145.5895  136.0020  155.2886 C   0  0  0  0  0  0  0  0  0  0  0  0
  146.4169  137.0497  155.3945 N   0  0  0  0  0  0  0  0  0  0  0  0
  146.5551  137.7580  154.2415 C   0  0  0  0  0  0  0  0  0  0  0  0
  149.3786  138.9495  155.5603 C   0  0  0  0  0  0  0  0  0  0  0  0
  152.0435  138.8406  156.4232 H   0  0  0  0  0  0  0  0  0  0  0  0
  152.0389  141.1887  154.8692 H   0  0  0  0  0  0  0  0  0  0  0  0
  151.7858  139.5804  154.2248 H   0  0  0  0  0  0  0  0  0  0  0  0
  149.0391  141.1371  157.1691 H   0  0  0  0  0  0  0  0  0  0  0  0
  150.6867  140.7204  157.5618 H   0  0  0  0  0  0  0  0  0  0  0  0
  149.6630  142.9697  156.3121 H   0  0  0  0  0  0  0  0  0  0  0  0
  148.7789  141.6948  154.4173 H   0  0  0  0  0  0  0  0  0  0  0  0
  149.5242  140.4505  153.3650 H   0  0  0  0  0  0  0  0  0  0  0  0
  147.5293  140.0613  155.6459 H   0  0  0  0  0  0  0  0  0  0  0  0
  147.5524  140.0124  152.1941 H   0  0  0  0  0  0  0  0  0  0  0  0
  144.9699  136.0175  149.7912 H   0  0  0  0  0  0  0  0  0  0  0  0
  146.2578  135.4475  150.9164 H   0  0  0  0  0  0  0  0  0  0  0  0
  142.9418  134.1978  149.6720 H   0  0  0  0  0  0  0  0  0  0  0  0
  145.9782  132.9931  151.9626 H   0  0  0  0  0  0  0  0  0  0  0  0
  143.7967  134.1510  152.8968 H   0  0  0  0  0  0  0  0  0  0  0  0
  142.5867  134.7637  151.7039 H   0  0  0  0  0  0  0  0  0  0  0  0
  145.4158  135.3835  156.1569 H   0  0  0  0  0  0  0  0  0  0  0  0
  149.8175  138.1560  154.9553 H   0  0  0  0  0  0  0  0  0  0  0  0
  149.1808  138.5919  156.5712 H   0  0  0  0  0  0  0  0  0  0  0  0
  144.3246  134.8245  154.1928 H   0  0  0  0  0  0  0  0  0  0  0  0
  1  2  1  0  0  0  0
  1 26  1  0  0  0  0
  2  3  1  0  0  0  0
  2 27  1  0  0  0  0
  2 28  1  0  0  0  0
  3 25  1  0  0  0  0
  3  4  1  0  0  0  0
  3  6  1  0  0  0  0
  4  5  1  0  0  0  0
  4 29  1  0  0  0  0
  4 30  1  0  0  0  0
  5 31  1  0  0  0  0
  6  7  1  0  0  0  0
  6 32  1  0  0  0  0
  6 33  1  0  0  0  0
  7  8  1  0  0  0  0
  7 25  1  0  0  0  0
  7 34  1  0  0  0  0
  8 24  1  0  0  0  0
  8  9  1  0  0  0  0
  9 10  2  0  0  0  0
  9 35  1  0  0  0  0
 10 11  1  0  0  0  0
 11 24  2  0  0  0  0
 11 12  1  0  0  0  0
 12 13  1  0  0  0  0
 12 21  2  0  0  0  0
 13 20  1  0  0  0  0
 13 14  1  0  0  0  0
 14 15  1  0  0  0  0
 14 36  1  0  0  0  0
 14 37  1  0  0  0  0
 15 16  1  0  0  0  0
 15 17  1  0  0  0  0
 15 20  1  0  0  0  0
 16 38  1  0  0  0  0
 17 18  1  0  0  0  0
 17 19  1  0  0  0  0
 17 39  1  0  0  0  0
 20 40  1  0  0  0  0
 20 41  1  0  0  0  0
 21 22  1  0  0  0  0
 21 45  1  0  0  0  0
 22 23  2  0  0  0  0
 22 42  1  0  0  0  0
 23 24  1  0  0  0  0
 25 43  1  0  0  0  0
 25 44  1  0  0  0  0
M  CHG  1  21   1
M  END
> <s_m_source_file>
AV-unprocessed.smi

> <i_m_source_file_index>
179

> <i_lp_mmshare_version>
43012

> <i_f3d_flags>
0

> <s_epik_input>
W09IXVtDSDJdQzEoW0NIMl1bT0hdKVtDSDJdW0NIXShbQ0gyXTEpbihbY0hdbjIpYyhjMjMpbltjSF1uYzNOKFtDSDJdNClbQ0gyXUM0KFtPSF0pW0NIXShGKUY=

> <s_epik_cmdline>
J2VwaWtfcHl0aG9uJywgJy1waCcsICc3LjAnLCAnLXRuJywgJzgnLCAnLW1hJywgJzIwMCcsICctbWV0YWxfYmluZGluZycsICctaW1hZScsICc8aW5maWxlLm1hZT4nLCAnLW9tYWUnLCAnPG91dGZpbGUubWFlPic=

> <r_lp_tautomer_probability>
0.978912

> <r_epik_Ionization_Penalty>
2.53898

> <r_epik_Ionization_Penalty_Charging>
2.53898

> <r_epik_Ionization_Penalty_Neutral>
7.40332e-06

> <r_epik_State_Penalty>
2.7067

> <r_epik_Charging_Adjusted_Penalty>
5.24568

> <i_epik_Tot_Q>
1

> <i_epik_Tot_abs_Q>
1

> <r_epik_Metal_State_Penalty>
2.71482

> <b_epik_Metal_Only>
0

> <s_lp_Force_Field>
OPLS_2005

> <r_lp_Energy>
57.9721

> <b_lp_Chiralities_Consistent>
1

> <s_lp_Variant>
AV-unprocessed.smi:179-2

> <Gold.Version>
5.8.1

> <Gold.Id.Protein>
6NUR|6NUR_protein|mol2

> <Gold.PLP.Fitness>
45.8044

> <Gold.PLP.PLP>
-33.9523

> <Gold.PLP.part.hbond>
-3.0714

> <Gold.PLP.part.metal>
0.0000

> <Gold.PLP.part.buried>
-3.7167

> <Gold.PLP.part.nonpolar>
-28.5925

> <Gold.PLP.part.repulsive>
0.5290

> <Gold.PLP.ligand.clash>
0.0129

> <Gold.PLP.ligand.torsion>
0.4198

> <Gold.PLP.Chemscore.Hbond>
3.0000

> <Gold.PLP.Chemscore.CHOScore>
0.9900

> <Gold.PLP.Chemscore.Metal>
0.0000

> <Gold.Chemscore.Hbonds>
donor molecule, donor type, donor heavy atom, donor atom, acceptor molecule, acceptor atom, score
      L1  H     5    31       P1  8028  0.96
      L1  H    16    38       P1 10186  1.00
      P1  H  7997  8010       L1     1  1.00
      L1  C     9    35       P1  7957  0.94

> <Gold.PLP.Chemscore.Internal.Correction>
0.7345

> <Gold.Rescore>
     Score         DG    S(hbond)    S(metal)    S(lipo)     H(rot)  DE(clash)    DE(int)     intcor
      9.13     -11.88       2.86        0.00      66.48       4.27       2.35       0.40       ----

> <Gold.Chemscore.Fitness>
9.1274

> <Gold.Chemscore.DG>
-11.8788

> <Gold.Chemscore.ZeroCoef>
-5.4800

> <Gold.Chemscore.Hbond>
2.8576

> <Gold.Chemscore.Metal>
0.0000

> <Gold.Chemscore.Lipo>
66.4759

> <Gold.Chemscore.Internal_Hbond>
0.0000

> <Gold.Chemscore.DEClash>
2.3511

> <Gold.Chemscore.DEInternal>
0.4003

> <Gold.Chemscore.Rot>
4.2669

> <Gold.Chemscore.Internal.Correction>
   9.000000E+99

> <Gold.Chemscore.Hbonds>
donor molecule, donor type, donor heavy atom, donor atom, acceptor molecule, acceptor atom, score
      L1  H     5    31       P1  8028  0.86
      L1  H    16    38       P1 10186  0.98
      P1  H  7997  8010       L1     1  0.92

> <Gold.Chemscore.Hbond.Weighted>
-9.5444

> <Gold.Chemscore.Metal.Weighted>
-0.0000

> <Gold.Chemscore.Lipo.Weighted>
-7.7777

> <Gold.Chemscore.Internal_Hbond.Weighted>
0.0000

> <Gold.Chemscore.DEClash.Weighted>
2.3511

> <Gold.Chemscore.DEInternal.Weighted>
0.4003

> <Gold.Chemscore.Rot.Weighted>
10.9232

> <Gold.Chemscore.Internal.Correction.Weighted>
   9.000000E+99

> <Gold.Protein.RotatedTorsions>
[ 6907 6896 6895 6894 ] final -158.22 input  -60.11 | X-H torsion
[ 7974 7965 7964 7962 ] final   78.43 input  175.53 | X-H torsion
[ 8008 7997 7996 7995 ] final   87.51 input   59.86 | X-H torsion
[ 10167 10162 10161 10158 ] final -120.53 input  -65.29 | X-H torsion
[ 10718 10713 10712 10709 ] final -128.24 input   66.30 | X-H torsion
[ 10763 10752 10751 10750 ] final  -26.96 input  -60.55 | X-H torsion
[ 11005 11000 10999 10996 ] final   75.93 input  -57.11 | X-H torsion

> <Gold.Protein.ActiveResidues>
 VAL166  LYS551  ARG553  GLY616  TRP617  ASP618  TYR619  PRO620  LYS621  CYS622 
 ASP623  PHE694  ASN695  SER759  ASP760  ASP761  ALA762  ILE779  LEU786  VAL792 
 PHE793  MET794  SER795  GLU796  ALA797  LYS798  CYS799  TRP800  GLU811  SER814 

> <Gold.Protein.RotatedAtoms>
  151.3148  133.4065  159.2649 H   0  0  0  0  0  0  0  0  0  0  0  0  # atno 6907 bound_to 6896
  151.0084  134.9378  159.8004 H   0  0  0  0  0  0  0  0  0  0  0  0  # atno 6908 bound_to 6896
  152.5294  134.3112  159.9167 H   0  0  0  0  0  0  0  0  0  0  0  0  # atno 6909 bound_to 6896
  145.6773  139.2513  143.1834 H   0  0  0  0  0  0  0  0  0  0  0  0  # atno 7974 bound_to 7965
  155.9763  140.3381  155.6622 H   0  0  0  0  0  0  0  0  0  0  0  0  # atno 8008 bound_to 7997
  155.6608  140.0716  157.2573 H   0  0  0  0  0  0  0  0  0  0  0  0  # atno 8009 bound_to 7997
  154.4180  140.1709  156.1762 H   0  0  0  0  0  0  0  0  0  0  0  0  # atno 8010 bound_to 7997
  140.0348  143.5212  152.2159 H   0  0  0  0  0  0  0  0  0  0  0  0  # atno 10167 bound_to 10162
  156.1932  130.6809  151.0450 H   0  0  0  0  0  0  0  0  0  0  0  0  # atno 10718 bound_to 10713
  153.7243  135.6943  153.5005 H   0  0  0  0  0  0  0  0  0  0  0  0  # atno 10763 bound_to 10752
  153.2181  135.4379  155.0456 H   0  0  0  0  0  0  0  0  0  0  0  0  # atno 10764 bound_to 10752
  154.8274  135.3453  154.6776 H   0  0  0  0  0  0  0  0  0  0  0  0  # atno 10765 bound_to 10752
  139.9321  134.7558  156.1332 H   0  0  0  0  0  0  0  0  0  0  0  0  # atno 11005 bound_to 11000
  146.0995  140.7561  142.9556 LP  0  0  0  0  0  0  0  0  0  0  0  0  # atno 17320 bound_to 7965
  144.7037  140.3764  143.7135 LP  0  0  0  0  0  0  0  0  0  0  0  0  # atno 17321 bound_to 7965
  139.6052  144.7594  151.3078 LP  0  0  0  0  0  0  0  0  0  0  0  0  # atno 17342 bound_to 10162
  140.7286  143.6931  150.7906 LP  0  0  0  0  0  0  0  0  0  0  0  0  # atno 17343 bound_to 10162
  157.6942  131.0800  150.7019 LP  0  0  0  0  0  0  0  0  0  0  0  0  # atno 17370 bound_to 10713
  156.7076  130.4642  149.5556 LP  0  0  0  0  0  0  0  0  0  0  0  0  # atno 17371 bound_to 10713
  141.0916  133.6712  156.2552 LP  0  0  0  0  0  0  0  0  0  0  0  0  # atno 17394 bound_to 11000
  140.6173  134.5397  157.5542 LP  0  0  0  0  0  0  0  0  0  0  0  0  # atno 17395 bound_to 11000

$$$$
