AV-unprocessed.smi:2845|AV-procd|sdf|10947|dock1
  -GOLD-   2272015393D 1   1.00000     0.00000
 Structure written by MMmdl.
 43 45  0  0  0  0  0  0  0  0  2 V2000
  153.0147  142.4669  162.1224 C   0  0  0  0  0  0  0  0  0  0  0  0
  152.4650  142.1611  160.7394 C   0  0  0  0  0  0  0  0  0  0  0  0
  152.7147  140.8869  160.1812 C   0  0  0  0  0  0  0  0  0  0  0  0
  152.1978  140.6365  158.9156 C   0  0  0  0  0  0  0  0  0  0  0  0
  152.2659  139.4999  158.1066 N   0  3  0  0  0  0  0  0  0  0  0  0
  151.6002  139.7313  156.9412 C   0  0  0  0  0  0  0  0  0  0  0  0
  151.1091  140.9990  156.9949 N   0  0  0  0  0  0  0  0  0  0  0  0
  150.3145  141.7439  156.0103 C   0  0  0  0  0  0  0  0  0  0  0  0
  149.5540  140.8183  155.0368 C   0  0  2  0  0  0  0  0  0  0  0  0
  150.4614  140.2897  154.0881 O   0  0  0  0  0  0  0  0  0  0  0  0
  148.3803  141.5136  154.3134 C   0  0  0  0  0  0  0  0  0  0  0  0
  147.1650  141.5930  155.1066 N   0  0  0  0  0  0  0  0  0  0  0  0
  145.9039  141.2777  154.7952 C   0  0  0  0  0  0  0  0  0  0  0  0
  145.0381  141.4811  155.7789 N   0  0  0  0  0  0  0  0  0  0  0  0
  145.8990  141.9585  156.7244 C   0  0  0  0  0  0  0  0  0  0  0  0
  145.3251  142.4527  158.3795 S   0  0  1  0  0  0  0  0  0  0  0  0
  143.8150  141.3759  158.3790 C   0  0  0  0  0  0  0  0  0  0  0  0
  146.3145  141.8367  159.3709 O   0  0  0  0  0  0  0  0  0  0  0  0
  147.1814  142.0532  156.3805 N   0  0  0  0  0  0  0  0  0  0  0  0
  151.4564  141.6021  158.2076 C   0  0  0  0  0  0  0  0  0  0  0  0
  151.2009  142.8625  158.7421 C   0  0  0  0  0  0  0  0  0  0  0  0
  151.7178  143.1363  160.0287 C   0  0  0  0  0  0  0  0  0  0  0  0
  151.4561  144.5031  160.6387 C   0  0  0  0  0  0  0  0  0  0  0  0
  153.5684  141.6196  162.5281 H   0  0  0  0  0  0  0  0  0  0  0  0
  152.2045  142.6973  162.8145 H   0  0  0  0  0  0  0  0  0  0  0  0
  153.6924  143.3201  162.0856 H   0  0  0  0  0  0  0  0  0  0  0  0
  153.2829  140.1401  160.7162 H   0  0  0  0  0  0  0  0  0  0  0  0
  151.4786  139.0347  156.1241 H   0  0  0  0  0  0  0  0  0  0  0  0
  149.6272  142.4010  156.5443 H   0  0  0  0  0  0  0  0  0  0  0  0
  151.0038  142.3920  155.4676 H   0  0  0  0  0  0  0  0  0  0  0  0
  149.1498  139.9727  155.5940 H   0  0  0  0  0  0  0  0  0  0  0  0
  150.1607  139.4319  153.8290 H   0  0  0  0  0  0  0  0  0  0  0  0
  148.6650  142.5216  154.0077 H   0  0  0  0  0  0  0  0  0  0  0  0
  148.1460  140.9718  153.3963 H   0  0  0  0  0  0  0  0  0  0  0  0
  145.6148  140.8872  153.8305 H   0  0  0  0  0  0  0  0  0  0  0  0
  143.4443  141.2201  157.3656 H   0  0  0  0  0  0  0  0  0  0  0  0
  143.0237  141.8429  158.9650 H   0  0  0  0  0  0  0  0  0  0  0  0
  144.0439  140.4050  158.8180 H   0  0  0  0  0  0  0  0  0  0  0  0
  150.6315  143.6032  158.2006 H   0  0  0  0  0  0  0  0  0  0  0  0
  150.8720  145.1345  159.9684 H   0  0  0  0  0  0  0  0  0  0  0  0
  152.3955  145.0166  160.8451 H   0  0  0  0  0  0  0  0  0  0  0  0
  150.9014  144.4063  161.5722 H   0  0  0  0  0  0  0  0  0  0  0  0
  152.7297  138.6286  158.3306 H   0  0  0  0  0  0  0  0  0  0  0  0
  1  2  1  0  0  0  0
  1 24  1  0  0  0  0
  1 25  1  0  0  0  0
  1 26  1  0  0  0  0
  2 22  1  0  0  0  0
  2  3  2  0  0  0  0
  3  4  1  0  0  0  0
  3 27  1  0  0  0  0
  4 20  2  0  0  0  0
  4  5  1  0  0  0  0
  5  6  2  0  0  0  0
  5 43  1  0  0  0  0
  6  7  1  0  0  0  0
  6 28  1  0  0  0  0
  7  8  1  0  0  0  0
  7 20  1  0  0  0  0
  8  9  1  0  0  0  0
  8 29  1  0  0  0  0
  8 30  1  0  0  0  0
  9 10  1  0  0  0  0
  9 11  1  0  0  0  0
  9 31  1  0  0  0  0
 10 32  1  0  0  0  0
 11 12  1  0  0  0  0
 11 33  1  0  0  0  0
 11 34  1  0  0  0  0
 12 19  1  0  0  0  0
 12 13  1  0  0  0  0
 13 14  2  0  0  0  0
 13 35  1  0  0  0  0
 14 15  1  0  0  0  0
 15 16  1  0  0  0  0
 15 19  2  0  0  0  0
 16 17  1  0  0  0  0
 16 18  2  0  0  0  0
 17 36  1  0  0  0  0
 17 37  1  0  0  0  0
 17 38  1  0  0  0  0
 20 21  1  0  0  0  0
 21 22  2  0  0  0  0
 21 39  1  0  0  0  0
 22 23  1  0  0  0  0
 23 40  1  0  0  0  0
 23 41  1  0  0  0  0
 23 42  1  0  0  0  0
M  CHG  1   5   1
M  END
> <s_m_source_file>
AV-unprocessed.smi

> <i_m_source_file_index>
2845

> <i_lp_mmshare_version>
43012

> <i_f3d_flags>
0

> <s_epik_input>
W0NIM11jKFtjSF0xKWMoW0NIM10pW2NIXWMoYzEyKW4oW2NIXW4yKVtDSDJdW0NASF0oW09IXSlbQ0gyXW4zW2NIXW5jKG4zKVtTQF0oPU8pW0NIM10=

> <s_epik_cmdline>
J2VwaWtfcHl0aG9uJywgJy1waCcsICc3LjAnLCAnLXRuJywgJzgnLCAnLW1hJywgJzIwMCcsICctbWV0YWxfYmluZGluZycsICctaW1hZScsICc8aW5maWxlLm1hZT4nLCAnLW9tYWUnLCAnPG91dGZpbGUubWFlPic=

> <r_lp_tautomer_probability>
1

> <r_epik_Ionization_Penalty>
1.12076

> <r_epik_Ionization_Penalty_Charging>
1.12075

> <r_epik_Ionization_Penalty_Neutral>
1.54566e-06

> <r_epik_State_Penalty>
1.17957

> <r_epik_Charging_Adjusted_Penalty>
2.30033

> <i_epik_Tot_Q>
1

> <i_epik_Tot_abs_Q>
1

> <r_epik_Metal_State_Penalty>
1.26402

> <b_epik_Metal_Only>
0

> <s_lp_Force_Field>
OPLS_2005

> <r_lp_Energy>
15.2254

> <b_lp_Chiralities_Consistent>
1

> <s_lp_Variant>
AV-unprocessed.smi:2845-5

> <Gold.Version>
5.8.1

> <Gold.Id.Protein>
6NUR|6NUR_protein|mol2

> <Gold.PLP.Fitness>
51.9570

> <Gold.PLP.PLP>
-44.5462

> <Gold.PLP.part.hbond>
-2.7514

> <Gold.PLP.part.metal>
0.0000

> <Gold.PLP.part.buried>
-7.0384

> <Gold.PLP.part.nonpolar>
-36.4231

> <Gold.PLP.part.repulsive>
1.4860

> <Gold.PLP.ligand.clash>
0.0000

> <Gold.PLP.ligand.torsion>
1.3338

> <Gold.PLP.Chemscore.Hbond>
2.0000

> <Gold.PLP.Chemscore.CHOScore>
1.0000

> <Gold.PLP.Chemscore.Metal>
0.0000

> <Gold.Chemscore.Hbonds>
donor molecule, donor type, donor heavy atom, donor atom, acceptor molecule, acceptor atom, score
      P1  H  6934  6946       L1    18  0.99
      P1  H  7989  7998       L1    10  0.73
      L1  C    13    35       P1 10175  1.00

> <Gold.PLP.Chemscore.Internal.Correction>
1.0783

> <Gold.Rescore>
     Score         DG    S(hbond)    S(metal)    S(lipo)     H(rot)  DE(clash)    DE(int)     intcor
     15.13     -16.56       1.93        0.00     100.04       2.77       0.10       1.33       ----

> <Gold.Chemscore.Fitness>
15.1284

> <Gold.Chemscore.DG>
-16.5586

> <Gold.Chemscore.ZeroCoef>
-5.4800

> <Gold.Chemscore.Hbond>
1.9340

> <Gold.Chemscore.Metal>
0.0000

> <Gold.Chemscore.Lipo>
100.0445

> <Gold.Chemscore.Internal_Hbond>
0.0000

> <Gold.Chemscore.DEClash>
0.0959

> <Gold.Chemscore.DEInternal>
1.3343

> <Gold.Chemscore.Rot>
2.7681

> <Gold.Chemscore.Internal.Correction>
   9.000000E+99

> <Gold.Chemscore.Hbonds>
donor molecule, donor type, donor heavy atom, donor atom, acceptor molecule, acceptor atom, score
      P1  H  6934  6946       L1    18  0.94
      P1  H  7989  7998       L1    10  0.68

> <Gold.Chemscore.Hbond.Weighted>
-6.4596

> <Gold.Chemscore.Metal.Weighted>
-0.0000

> <Gold.Chemscore.Lipo.Weighted>
-11.7052

> <Gold.Chemscore.Internal_Hbond.Weighted>
0.0000

> <Gold.Chemscore.DEClash.Weighted>
0.0959

> <Gold.Chemscore.DEInternal.Weighted>
1.3343

> <Gold.Chemscore.Rot.Weighted>
7.0863

> <Gold.Chemscore.Internal.Correction.Weighted>
   9.000000E+99

> <Gold.Protein.RotatedTorsions>
[ 6907 6896 6895 6894 ] final -152.13 input  -60.11 | X-H torsion
[ 7974 7965 7964 7962 ] final  -92.41 input  175.53 | X-H torsion
[ 8008 7997 7996 7995 ] final  115.80 input   59.86 | X-H torsion
[ 10167 10162 10161 10158 ] final  164.73 input  -65.29 | X-H torsion
[ 10718 10713 10712 10709 ] final -102.37 input   66.30 | X-H torsion
[ 10763 10752 10751 10750 ] final  -41.42 input  -60.55 | X-H torsion
[ 11005 11000 10999 10996 ] final  -15.23 input  -57.11 | X-H torsion

> <Gold.Protein.ActiveResidues>
 VAL166  LYS551  ARG553  GLY616  TRP617  ASP618  TYR619  PRO620  LYS621  CYS622 
 ASP623  PHE694  ASN695  SER759  ASP760  ASP761  ALA762  ILE779  LEU786  VAL792 
 PHE793  MET794  SER795  GLU796  ALA797  LYS798  CYS799  TRP800  GLU811  SER814 

> <Gold.Protein.RotatedAtoms>
  151.2233  133.4490  159.2601 H   0  0  0  0  0  0  0  0  0  0  0  0  # atno 6907 bound_to 6896
  151.0864  134.9889  159.8391 H   0  0  0  0  0  0  0  0  0  0  0  0  # atno 6908 bound_to 6896
  152.5430  134.2169  159.8825 H   0  0  0  0  0  0  0  0  0  0  0  0  # atno 6909 bound_to 6896
  145.4003  140.9536  143.2291 H   0  0  0  0  0  0  0  0  0  0  0  0  # atno 7974 bound_to 7965
  156.2403  140.2931  156.0425 H   0  0  0  0  0  0  0  0  0  0  0  0  # atno 8008 bound_to 7997
  155.1971  140.0408  157.2928 H   0  0  0  0  0  0  0  0  0  0  0  0  # atno 8009 bound_to 7997
  154.6155  140.2462  155.7622 H   0  0  0  0  0  0  0  0  0  0  0  0  # atno 8010 bound_to 7997
  139.4894  144.4205  151.9192 H   0  0  0  0  0  0  0  0  0  0  0  0  # atno 10167 bound_to 10162
  156.0226  130.5417  150.7099 H   0  0  0  0  0  0  0  0  0  0  0  0  # atno 10718 bound_to 10713
  153.9622  135.6738  153.4745 H   0  0  0  0  0  0  0  0  0  0  0  0  # atno 10763 bound_to 10752
  153.0832  135.4912  154.8542 H   0  0  0  0  0  0  0  0  0  0  0  0  # atno 10764 bound_to 10752
  154.7266  135.3129  154.8921 H   0  0  0  0  0  0  0  0  0  0  0  0  # atno 10765 bound_to 10752
  140.7945  133.8262  155.9411 H   0  0  0  0  0  0  0  0  0  0  0  0  # atno 11005 bound_to 11000
  144.8379  139.5520  143.6914 LP  0  0  0  0  0  0  0  0  0  0  0  0  # atno 17320 bound_to 7965
  146.2755  139.6742  142.9266 LP  0  0  0  0  0  0  0  0  0  0  0  0  # atno 17321 bound_to 7965
  140.3649  144.2927  150.5928 LP  0  0  0  0  0  0  0  0  0  0  0  0  # atno 17342 bound_to 10162
  140.5370  143.2231  151.8147 LP  0  0  0  0  0  0  0  0  0  0  0  0  # atno 17343 bound_to 10162
  157.4740  131.0896  151.0611 LP  0  0  0  0  0  0  0  0  0  0  0  0  # atno 17370 bound_to 10713
  157.1063  130.6003  149.5471 LP  0  0  0  0  0  0  0  0  0  0  0  0  # atno 17371 bound_to 10713
  140.9356  134.1966  157.4834 LP  0  0  0  0  0  0  0  0  0  0  0  0  # atno 17394 bound_to 11000
  139.8727  134.9851  156.5266 LP  0  0  0  0  0  0  0  0  0  0  0  0  # atno 17395 bound_to 11000

$$$$
