AV-unprocessed.smi:2027|AV-procd|sdf|8215|dock5
  -GOLD-   2272010483D 1   1.00000     0.00000
 Structure written by MMmdl.
 50 52  0  0  0  0  0  0  0  0  2 V2000
  152.3515  143.7104  161.7172 C   0  0  0  0  0  0  0  0  0  0  0  0
  152.1838  142.9119  160.4357 C   0  0  0  0  0  0  0  0  0  0  0  0
  151.3426  143.4283  159.4244 C   0  0  0  0  0  0  0  0  0  0  0  0
  151.2129  142.6771  158.2623 C   0  0  0  0  0  0  0  0  0  0  0  0
  150.4745  142.9088  157.0996 N   0  3  0  0  0  0  0  0  0  0  0  0
  150.6715  141.8843  156.2240 C   0  0  0  0  0  0  0  0  0  0  0  0
  151.5248  141.0022  156.8111 N   0  0  0  0  0  0  0  0  0  0  0  0
  152.0846  139.7435  156.3001 C   0  0  0  0  0  0  0  0  0  0  0  0
  151.0792  138.9673  155.4287 C   0  0  2  0  0  0  0  0  0  0  0  0
  150.8904  139.6612  154.2109 O   0  0  0  0  0  0  0  0  0  0  0  0
  149.7111  138.8025  156.1238 C   0  0  0  0  0  0  0  0  0  0  0  0
  148.7503  137.8905  155.4818 N   0  0  0  0  0  0  0  0  0  0  0  0
  149.4121  136.6291  155.1692 C   0  0  0  0  0  0  0  0  0  0  0  0
  148.1489  138.4297  154.2536 C   0  0  0  0  0  0  0  0  0  0  0  0
  147.3752  139.7078  154.4313 C   0  0  0  0  0  0  0  0  0  0  0  0
  146.2674  139.9371  155.2961 C   0  0  0  0  0  0  0  0  0  0  0  0
  145.7840  141.1644  155.1991 N   0  0  0  0  0  0  0  0  0  0  0  0
  146.5718  141.7642  154.2840 N   0  0  0  0  0  0  0  0  0  0  0  0
  146.3116  143.1382  153.9129 C   0  0  0  0  0  0  0  0  0  0  0  0
  147.5542  140.9169  153.8182 C   0  0  0  0  0  0  0  0  0  0  0  0
  151.8849  141.4523  158.0860 C   0  0  0  0  0  0  0  0  0  0  0  0
  152.7139  140.9269  159.0740 C   0  0  0  0  0  0  0  0  0  0  0  0
  152.8588  141.6757  160.2635 C   0  0  0  0  0  0  0  0  0  0  0  0
  153.7570  141.1284  161.3596 C   0  0  0  0  0  0  0  0  0  0  0  0
  151.7987  144.6494  161.6777 H   0  0  0  0  0  0  0  0  0  0  0  0
  153.4015  143.9503  161.8852 H   0  0  0  0  0  0  0  0  0  0  0  0
  151.9840  143.1427  162.5724 H   0  0  0  0  0  0  0  0  0  0  0  0
  150.8249  144.3680  159.5493 H   0  0  0  0  0  0  0  0  0  0  0  0
  150.2382  141.7939  155.2383 H   0  0  0  0  0  0  0  0  0  0  0  0
  152.9904  139.9763  155.7388 H   0  0  0  0  0  0  0  0  0  0  0  0
  152.3928  139.1446  157.1582 H   0  0  0  0  0  0  0  0  0  0  0  0
  151.5271  138.0075  155.1999 H   0  0  0  0  0  0  0  0  0  0  0  0
  149.9675  139.6657  154.0081 H   0  0  0  0  0  0  0  0  0  0  0  0
  149.8637  138.4870  157.1570 H   0  0  0  0  0  0  0  0  0  0  0  0
  149.2732  139.7997  156.1935 H   0  0  0  0  0  0  0  0  0  0  0  0
  148.7094  135.9168  154.7353 H   0  0  0  0  0  0  0  0  0  0  0  0
  149.8212  136.1702  156.0700 H   0  0  0  0  0  0  0  0  0  0  0  0
  150.2288  136.7762  154.4610 H   0  0  0  0  0  0  0  0  0  0  0  0
  148.9249  138.5550  153.4971 H   0  0  0  0  0  0  0  0  0  0  0  0
  147.4723  137.6811  153.8391 H   0  0  0  0  0  0  0  0  0  0  0  0
  145.7913  139.2449  155.9748 H   0  0  0  0  0  0  0  0  0  0  0  0
  147.0334  143.4671  153.1648 H   0  0  0  0  0  0  0  0  0  0  0  0
  146.3927  143.7796  154.7910 H   0  0  0  0  0  0  0  0  0  0  0  0
  145.3067  143.2233  153.4975 H   0  0  0  0  0  0  0  0  0  0  0  0
  148.2763  141.2300  153.0785 H   0  0  0  0  0  0  0  0  0  0  0  0
  153.2319  139.9890  158.9405 H   0  0  0  0  0  0  0  0  0  0  0  0
  154.1727  140.1579  161.0870 H   0  0  0  0  0  0  0  0  0  0  0  0
  153.1985  141.0012  162.2869 H   0  0  0  0  0  0  0  0  0  0  0  0
  154.5896  141.8074  161.5444 H   0  0  0  0  0  0  0  0  0  0  0  0
  149.8834  143.7085  156.9120 H   0  0  0  0  0  0  0  0  0  0  0  0
  1  2  1  0  0  0  0
  1 25  1  0  0  0  0
  1 26  1  0  0  0  0
  1 27  1  0  0  0  0
  2 23  1  0  0  0  0
  2  3  2  0  0  0  0
  3  4  1  0  0  0  0
  3 28  1  0  0  0  0
  4 21  2  0  0  0  0
  4  5  1  0  0  0  0
  5  6  2  0  0  0  0
  5 50  1  0  0  0  0
  6  7  1  0  0  0  0
  6 29  1  0  0  0  0
  7  8  1  0  0  0  0
  7 21  1  0  0  0  0
  8  9  1  0  0  0  0
  8 30  1  0  0  0  0
  8 31  1  0  0  0  0
  9 10  1  0  0  0  0
  9 11  1  0  0  0  0
  9 32  1  0  0  0  0
 10 33  1  0  0  0  0
 11 12  1  0  0  0  0
 11 34  1  0  0  0  0
 11 35  1  0  0  0  0
 12 13  1  0  0  0  0
 12 14  1  0  0  0  0
 13 36  1  0  0  0  0
 13 37  1  0  0  0  0
 13 38  1  0  0  0  0
 14 15  1  0  0  0  0
 14 39  1  0  0  0  0
 14 40  1  0  0  0  0
 15 20  2  0  0  0  0
 15 16  1  0  0  0  0
 16 17  2  0  0  0  0
 16 41  1  0  0  0  0
 17 18  1  0  0  0  0
 18 19  1  0  0  0  0
 18 20  1  0  0  0  0
 19 42  1  0  0  0  0
 19 43  1  0  0  0  0
 19 44  1  0  0  0  0
 20 45  1  0  0  0  0
 21 22  1  0  0  0  0
 22 23  2  0  0  0  0
 22 46  1  0  0  0  0
 23 24  1  0  0  0  0
 24 47  1  0  0  0  0
 24 48  1  0  0  0  0
 24 49  1  0  0  0  0
M  CHG  1   5   1
M  END
> <s_m_source_file>
AV-unprocessed.smi

> <i_m_source_file_index>
2027

> <i_lp_mmshare_version>
43012

> <i_f3d_flags>
0

> <s_epik_input>
W0NIM11jKFtjSF0xKWMoW0NIM10pW2NIXWMoYzEyKW4oW2NIXW4yKVtDSDJdW0NASF0oW09IXSlbQ0gyXU4oW0NIM10pW0NIMl1jM1tjSF1ubihbQ0gzXSlbY0hdMw==

> <s_epik_cmdline>
J2VwaWtfcHl0aG9uJywgJy1waCcsICc3LjAnLCAnLXRuJywgJzgnLCAnLW1hJywgJzIwMCcsICctbWV0YWxfYmluZGluZycsICctaW1hZScsICc8aW5maWxlLm1hZT4nLCAnLW9tYWUnLCAnPG91dGZpbGUubWFlPic=

> <r_epik_Ionization_Penalty>
1.48134

> <r_epik_Ionization_Penalty_Charging>
1.21121

> <r_epik_Ionization_Penalty_Neutral>
0.270133

> <r_epik_State_Penalty>
1.53013

> <r_epik_Charging_Adjusted_Penalty>
2.74134

> <i_epik_Tot_Q>
1

> <i_epik_Tot_abs_Q>
1

> <r_epik_Metal_State_Penalty>
1.60443

> <b_epik_Metal_Only>
0

> <s_lp_Force_Field>
OPLS_2005

> <r_lp_Energy>
21.1476

> <b_lp_Chiralities_Consistent>
1

> <s_lp_Variant>
AV-unprocessed.smi:2027-7

> <Gold.Version>
5.8.1

> <Gold.Id.Protein>
6NUR|6NUR_protein|mol2

> <Gold.PLP.Fitness>
57.3346

> <Gold.PLP.PLP>
-46.1936

> <Gold.PLP.part.hbond>
-2.0607

> <Gold.PLP.part.metal>
0.0000

> <Gold.PLP.part.buried>
-5.7754

> <Gold.PLP.part.nonpolar>
-38.2326

> <Gold.PLP.part.repulsive>
0.1906

> <Gold.PLP.ligand.clash>
0.0000

> <Gold.PLP.ligand.torsion>
0.5222

> <Gold.PLP.Chemscore.Hbond>
3.0000

> <Gold.PLP.Chemscore.CHOScore>
0.9762

> <Gold.PLP.Chemscore.Metal>
0.0000

> <Gold.Chemscore.Hbonds>
donor molecule, donor type, donor heavy atom, donor atom, acceptor molecule, acceptor atom, score
      L1  H     5    50       P1  8028  1.98
      P1  H  7989  7998       L1    10  1.00
      L1  C    20    45       P1  7957  0.80

> <Gold.PLP.Chemscore.Internal.Correction>
0.2568

> <Gold.Rescore>
     Score         DG    S(hbond)    S(metal)    S(lipo)     H(rot)  DE(clash)    DE(int)     intcor
     17.03     -19.48       1.90        0.00     120.17       2.50       0.14       2.30       ----

> <Gold.Chemscore.Fitness>
17.0298

> <Gold.Chemscore.DG>
-19.4753

> <Gold.Chemscore.ZeroCoef>
-5.4800

> <Gold.Chemscore.Hbond>
1.8968

> <Gold.Chemscore.Metal>
0.0000

> <Gold.Chemscore.Lipo>
120.1691

> <Gold.Chemscore.Internal_Hbond>
0.0000

> <Gold.Chemscore.DEClash>
0.1429

> <Gold.Chemscore.DEInternal>
2.3026

> <Gold.Chemscore.Rot>
2.5000

> <Gold.Chemscore.Internal.Correction>
   9.000000E+99

> <Gold.Chemscore.Hbonds>
donor molecule, donor type, donor heavy atom, donor atom, acceptor molecule, acceptor atom, score
      L1  H     5    50       P1  8028  0.92
      P1  H  7989  7998       L1    10  0.77

> <Gold.Chemscore.Hbond.Weighted>
-6.3354

> <Gold.Chemscore.Metal.Weighted>
-0.0000

> <Gold.Chemscore.Lipo.Weighted>
-14.0598

> <Gold.Chemscore.Internal_Hbond.Weighted>
0.0000

> <Gold.Chemscore.DEClash.Weighted>
0.1429

> <Gold.Chemscore.DEInternal.Weighted>
2.3026

> <Gold.Chemscore.Rot.Weighted>
6.3999

> <Gold.Chemscore.Internal.Correction.Weighted>
   9.000000E+99

> <Gold.Protein.RotatedTorsions>
[ 6907 6896 6895 6894 ] final  -98.45 input  -60.11 | X-H torsion
[ 7974 7965 7964 7962 ] final    8.29 input  175.53 | X-H torsion
[ 8008 7997 7996 7995 ] final -110.83 input   59.86 | X-H torsion
[ 10167 10162 10161 10158 ] final  100.96 input  -65.29 | X-H torsion
[ 10718 10713 10712 10709 ] final   18.24 input   66.30 | X-H torsion
[ 10763 10752 10751 10750 ] final  -79.00 input  -60.55 | X-H torsion
[ 11005 11000 10999 10996 ] final  -91.75 input  -57.11 | X-H torsion

> <Gold.Protein.ActiveResidues>
 VAL166  LYS551  ARG553  GLY616  TRP617  ASP618  TYR619  PRO620  LYS621  CYS622 
 ASP623  PHE694  ASN695  SER759  ASP760  ASP761  ALA762  ILE779  LEU786  VAL792 
 PHE793  MET794  SER795  GLU796  ALA797  LYS798  CYS799  TRP800  GLU811  SER814 

> <Gold.Protein.RotatedAtoms>
  150.7047  134.1193  159.4028 H   0  0  0  0  0  0  0  0  0  0  0  0  # atno 6907 bound_to 6896
  151.9180  135.0308  160.0529 H   0  0  0  0  0  0  0  0  0  0  0  0  # atno 6908 bound_to 6896
  152.2280  133.5000  159.5236 H   0  0  0  0  0  0  0  0  0  0  0  0  # atno 6909 bound_to 6896
  146.2418  139.9955  142.8421 H   0  0  0  0  0  0  0  0  0  0  0  0  # atno 7974 bound_to 7965
  154.9805  140.0396  157.2275 H   0  0  0  0  0  0  0  0  0  0  0  0  # atno 8008 bound_to 7997
  154.7718  140.2803  155.6109 H   0  0  0  0  0  0  0  0  0  0  0  0  # atno 8009 bound_to 7997
  156.2922  140.2608  156.2523 H   0  0  0  0  0  0  0  0  0  0  0  0  # atno 8010 bound_to 7997
  139.7480  144.6992  151.0475 H   0  0  0  0  0  0  0  0  0  0  0  0  # atno 10167 bound_to 10162
  157.0935  130.6438  149.5854 H   0  0  0  0  0  0  0  0  0  0  0  0  # atno 10718 bound_to 10713
  154.5330  135.5711  153.6775 H   0  0  0  0  0  0  0  0  0  0  0  0  # atno 10763 bound_to 10752
  152.9944  135.6209  154.2603 H   0  0  0  0  0  0  0  0  0  0  0  0  # atno 10764 bound_to 10752
  154.2531  135.2858  155.2788 H   0  0  0  0  0  0  0  0  0  0  0  0  # atno 10765 bound_to 10752
  141.1538  133.7776  156.9923 H   0  0  0  0  0  0  0  0  0  0  0  0  # atno 11005 bound_to 11000
  145.1463  140.9599  143.4459 LP  0  0  0  0  0  0  0  0  0  0  0  0  # atno 17320 bound_to 7965
  145.0247  139.3393  143.6054 LP  0  0  0  0  0  0  0  0  0  0  0  0  # atno 17321 bound_to 7965
  140.7794  143.4843  150.9976 LP  0  0  0  0  0  0  0  0  0  0  0  0  # atno 17342 bound_to 10162
  139.8531  143.7412  152.3177 LP  0  0  0  0  0  0  0  0  0  0  0  0  # atno 17343 bound_to 10162
  155.9892  130.4938  150.7202 LP  0  0  0  0  0  0  0  0  0  0  0  0  # atno 17370 bound_to 10713
  157.4701  131.0892  151.0652 LP  0  0  0  0  0  0  0  0  0  0  0  0  # atno 17371 bound_to 10713
  140.0995  134.9544  157.1900 LP  0  0  0  0  0  0  0  0  0  0  0  0  # atno 17394 bound_to 11000
  140.3338  134.2780  155.7223 LP  0  0  0  0  0  0  0  0  0  0  0  0  # atno 17395 bound_to 11000

$$$$
