AV-unprocessed.smi:1460|AV-procd|sdf|5929|dock10
  -GOLD-   22720 6 13D 1   1.00000     0.00000
 Structure written by MMmdl.
 41 42  0  0  0  0  0  0  0  0  1 V2000
  151.4663  140.1378  158.1919 C   0  0  0  0  0  0  0  0  0  0  0  0
  150.5210  141.1740  157.5696 C   0  0  1  0  0  0  0  0  0  0  0  0
  151.3065  142.3497  156.9490 C   0  0  0  0  0  0  0  0  0  0  0  0
  151.7433  143.3194  157.9383 N   0  0  0  0  0  0  0  0  0  0  0  0
  151.4889  144.6744  157.9819 C   0  0  0  0  0  0  0  0  0  0  0  0
  152.0870  145.1636  159.1076 C   0  0  0  0  0  0  0  0  0  0  0  0
  152.6952  144.0175  159.6920 C   0  0  0  0  0  0  0  0  0  0  0  0
  152.4913  142.9161  158.9877 N   0  0  0  0  0  0  0  0  0  0  0  0
  149.6908  140.5137  156.5627 N   0  0  0  0  0  0  0  0  0  0  0  0
  150.1243  140.0116  155.3950 C   0  0  0  0  0  0  0  0  0  0  0  0
  151.2961  140.0779  155.0222 O   0  0  0  0  0  0  0  0  0  0  0  0
  149.0765  139.3086  154.5235 C   0  0  0  0  0  0  0  0  0  0  0  0
  147.9413  140.2852  154.1362 C   0  0  0  0  0  0  0  0  0  0  0  0
  146.8183  139.5577  153.3747 C   0  0  0  0  0  0  0  0  0  0  0  0
  146.3199  138.4495  154.2066 N   0  0  0  0  0  0  0  0  0  0  0  0
  145.1426  138.4211  154.8808 C   0  0  0  0  0  0  0  0  0  0  0  0
  144.2209  139.2918  154.4574 N   0  0  0  0  0  0  0  0  0  0  0  0
  144.8951  137.6338  155.7928 O   0  0  0  0  0  0  0  0  0  0  0  0
  147.3592  137.4347  154.4196 C   0  0  0  0  0  0  0  0  0  0  0  0
  148.5085  138.0572  155.2324 C   0  0  0  0  0  0  0  0  0  0  0  0
  152.0828  140.5884  158.9702 H   0  0  0  0  0  0  0  0  0  0  0  0
  152.1351  139.7089  157.4450 H   0  0  0  0  0  0  0  0  0  0  0  0
  150.9075  139.3204  158.6487 H   0  0  0  0  0  0  0  0  0  0  0  0
  149.8916  141.5574  158.3751 H   0  0  0  0  0  0  0  0  0  0  0  0
  152.1910  141.9774  156.4300 H   0  0  0  0  0  0  0  0  0  0  0  0
  150.7013  142.8624  156.2002 H   0  0  0  0  0  0  0  0  0  0  0  0
  150.9022  145.1694  157.2223 H   0  0  0  0  0  0  0  0  0  0  0  0
  152.0883  146.1837  159.4615 H   0  0  0  0  0  0  0  0  0  0  0  0
  153.2751  143.9535  160.6006 H   0  0  0  0  0  0  0  0  0  0  0  0
  148.7099  140.4136  156.7809 H   0  0  0  0  0  0  0  0  0  0  0  0
  149.5582  138.9772  153.6017 H   0  0  0  0  0  0  0  0  0  0  0  0
  147.5221  140.7543  155.0280 H   0  0  0  0  0  0  0  0  0  0  0  0
  148.3380  141.0938  153.5209 H   0  0  0  0  0  0  0  0  0  0  0  0
  146.0493  140.2735  153.0848 H   0  0  0  0  0  0  0  0  0  0  0  0
  147.2051  139.1546  152.4376 H   0  0  0  0  0  0  0  0  0  0  0  0
  143.3197  139.3315  154.9101 H   0  0  0  0  0  0  0  0  0  0  0  0
  144.4331  139.9073  153.6858 H   0  0  0  0  0  0  0  0  0  0  0  0
  146.9812  136.5466  154.9283 H   0  0  0  0  0  0  0  0  0  0  0  0
  147.7279  137.0859  153.4537 H   0  0  0  0  0  0  0  0  0  0  0  0
  149.2978  137.3185  155.3771 H   0  0  0  0  0  0  0  0  0  0  0  0
  148.1414  138.3156  156.2270 H   0  0  0  0  0  0  0  0  0  0  0  0
  1  2  1  0  0  0  0
  1 21  1  0  0  0  0
  1 22  1  0  0  0  0
  1 23  1  0  0  0  0
  2  3  1  0  0  0  0
  2  9  1  0  0  0  0
  2 24  1  0  0  0  0
  3  4  1  0  0  0  0
  3 25  1  0  0  0  0
  3 26  1  0  0  0  0
  4  8  1  0  0  0  0
  4  5  1  0  0  0  0
  5  6  2  0  0  0  0
  5 27  1  0  0  0  0
  6  7  1  0  0  0  0
  6 28  1  0  0  0  0
  7  8  2  0  0  0  0
  7 29  1  0  0  0  0
  9 10  1  0  0  0  0
  9 30  1  0  0  0  0
 10 11  2  0  0  0  0
 10 12  1  0  0  0  0
 12 20  1  0  0  0  0
 12 13  1  0  0  0  0
 12 31  1  0  0  0  0
 13 14  1  0  0  0  0
 13 32  1  0  0  0  0
 13 33  1  0  0  0  0
 14 15  1  0  0  0  0
 14 34  1  0  0  0  0
 14 35  1  0  0  0  0
 15 16  1  0  0  0  0
 15 19  1  0  0  0  0
 16 17  1  0  0  0  0
 16 18  2  0  0  0  0
 17 36  1  0  0  0  0
 17 37  1  0  0  0  0
 19 20  1  0  0  0  0
 19 38  1  0  0  0  0
 19 39  1  0  0  0  0
 20 40  1  0  0  0  0
 20 41  1  0  0  0  0
M  END
> <s_m_source_file>
AV-unprocessed.smi

> <i_m_source_file_index>
1460

> <i_lp_mmshare_version>
43012

> <i_f3d_flags>
0

> <s_epik_input>
bjFbY0hdW2NIXVtjSF1uMVtDSDJdW0NAQEhdKFtDSDNdKVtOSF1DKD1PKVtDSF0yW0NIMl1bQ0gyXU4oQyg9TylbTkgyXSlbQ0gyXVtDSDJdMg==

> <s_epik_cmdline>
J2VwaWtfcHl0aG9uJywgJy1waCcsICc3LjAnLCAnLXRuJywgJzgnLCAnLW1hJywgJzIwMCcsICctbWV0YWxfYmluZGluZycsICctaW1hZScsICc8aW5maWxlLm1hZT4nLCAnLW9tYWUnLCAnPG91dGZpbGUubWFlPic=

> <r_lp_tautomer_probability>
1

> <r_epik_Ionization_Penalty>
0.000387527

> <r_epik_Ionization_Penalty_Charging>
0

> <r_epik_Ionization_Penalty_Neutral>
0.000387527

> <r_epik_State_Penalty>
-0

> <r_epik_Charging_Adjusted_Penalty>
0

> <i_epik_Tot_Q>
0

> <i_epik_Tot_abs_Q>
0

> <r_epik_Metal_State_Penalty>
-0

> <b_epik_Metal_Only>
0

> <s_lp_Force_Field>
OPLS_2005

> <r_lp_Energy>
25.9922

> <b_lp_Chiralities_Consistent>
1

> <s_lp_Variant>
AV-unprocessed.smi:1460-2

> <Gold.Version>
5.8.1

> <Gold.Id.Protein>
6NUR|6NUR_protein|mol2

> <Gold.PLP.Fitness>
40.8339

> <Gold.PLP.PLP>
-33.1469

> <Gold.PLP.part.hbond>
-1.6896

> <Gold.PLP.part.metal>
0.0000

> <Gold.PLP.part.buried>
-6.2507

> <Gold.PLP.part.nonpolar>
-25.8722

> <Gold.PLP.part.repulsive>
0.0945

> <Gold.PLP.ligand.clash>
0.0000

> <Gold.PLP.ligand.torsion>
0.3621

> <Gold.PLP.Chemscore.Hbond>
1.7840

> <Gold.PLP.Chemscore.CHOScore>
0.9999

> <Gold.PLP.Chemscore.Metal>
0.0000

> <Gold.Chemscore.Hbonds>
donor molecule, donor type, donor heavy atom, donor atom, acceptor molecule, acceptor atom, score
      L1  H    17    37       P1 10175  0.71
      P1  H  7989  7998       L1    11  1.00
      L1  C     5    27       P1  8028  0.98

> <Gold.PLP.Chemscore.Internal.Correction>
0.0594

> <Gold.Rescore>
     Score         DG    S(hbond)    S(metal)    S(lipo)     H(rot)  DE(clash)    DE(int)     intcor
     14.88     -16.26       1.83        0.00      79.58       1.82       0.11       1.27       ----

> <Gold.Chemscore.Fitness>
14.8789

> <Gold.Chemscore.DG>
-16.2576

> <Gold.Chemscore.ZeroCoef>
-5.4800

> <Gold.Chemscore.Hbond>
1.8345

> <Gold.Chemscore.Metal>
0.0000

> <Gold.Chemscore.Lipo>
79.5803

> <Gold.Chemscore.Internal_Hbond>
0.0000

> <Gold.Chemscore.DEClash>
0.1075

> <Gold.Chemscore.DEInternal>
1.2712

> <Gold.Chemscore.Rot>
1.8206

> <Gold.Chemscore.Internal.Correction>
   9.000000E+99

> <Gold.Chemscore.Hbonds>
donor molecule, donor type, donor heavy atom, donor atom, acceptor molecule, acceptor atom, score
      L1  H    17    37       P1 10175  0.66
      P1  H  7989  7998       L1    11  0.96

> <Gold.Chemscore.Hbond.Weighted>
-6.1274

> <Gold.Chemscore.Metal.Weighted>
-0.0000

> <Gold.Chemscore.Lipo.Weighted>
-9.3109

> <Gold.Chemscore.Internal_Hbond.Weighted>
0.0000

> <Gold.Chemscore.DEClash.Weighted>
0.1075

> <Gold.Chemscore.DEInternal.Weighted>
1.2712

> <Gold.Chemscore.Rot.Weighted>
4.6607

> <Gold.Chemscore.Internal.Correction.Weighted>
   9.000000E+99

> <Gold.Protein.RotatedTorsions>
[ 6907 6896 6895 6894 ] final   40.16 input  -60.11 | X-H torsion
[ 7974 7965 7964 7962 ] final  110.82 input  175.53 | X-H torsion
[ 8008 7997 7996 7995 ] final  -84.87 input   59.86 | X-H torsion
[ 10167 10162 10161 10158 ] final  177.34 input  -65.29 | X-H torsion
[ 10718 10713 10712 10709 ] final -159.29 input   66.30 | X-H torsion
[ 10763 10752 10751 10750 ] final -153.16 input  -60.55 | X-H torsion
[ 11005 11000 10999 10996 ] final -108.98 input  -57.11 | X-H torsion

> <Gold.Protein.ActiveResidues>
 VAL166  LYS551  ARG553  GLY616  TRP617  ASP618  TYR619  PRO620  LYS621  CYS622 
 ASP623  PHE694  ASN695  SER759  ASP760  ASP761  ALA762  ILE779  LEU786  VAL792 
 PHE793  MET794  SER795  GLU796  ALA797  LYS798  CYS799  TRP800  GLU811  SER814 

> <Gold.Protein.RotatedAtoms>
  152.1789  134.8771  160.0527 H   0  0  0  0  0  0  0  0  0  0  0  0  # atno 6907 bound_to 6896
  151.9702  133.3718  159.4076 H   0  0  0  0  0  0  0  0  0  0  0  0  # atno 6908 bound_to 6896
  150.6914  134.4071  159.5189 H   0  0  0  0  0  0  0  0  0  0  0  0  # atno 6909 bound_to 6896
  145.2501  139.2743  143.4072 H   0  0  0  0  0  0  0  0  0  0  0  0  # atno 7974 bound_to 7965
  154.6345  140.0599  156.9772 H   0  0  0  0  0  0  0  0  0  0  0  0  # atno 8008 bound_to 7997
  155.1614  140.3283  155.4392 H   0  0  0  0  0  0  0  0  0  0  0  0  # atno 8009 bound_to 7997
  156.2500  140.1930  156.6721 H   0  0  0  0  0  0  0  0  0  0  0  0  # atno 8010 bound_to 7997
  139.5249  144.2810  152.0546 H   0  0  0  0  0  0  0  0  0  0  0  0  # atno 10167 bound_to 10162
  156.5661  130.8668  151.2824 H   0  0  0  0  0  0  0  0  0  0  0  0  # atno 10718 bound_to 10713
  154.7946  135.3219  154.7696 H   0  0  0  0  0  0  0  0  0  0  0  0  # atno 10763 bound_to 10752
  153.8377  135.6873  153.4811 H   0  0  0  0  0  0  0  0  0  0  0  0  # atno 10764 bound_to 10752
  153.1632  135.4652  154.9743 H   0  0  0  0  0  0  0  0  0  0  0  0  # atno 10765 bound_to 10752
  141.0872  133.9118  157.2158 H   0  0  0  0  0  0  0  0  0  0  0  0  # atno 11005 bound_to 11000
  146.3305  140.2889  142.8614 LP  0  0  0  0  0  0  0  0  0  0  0  0  # atno 17320 bound_to 7965
  144.9510  140.8178  143.5572 LP  0  0  0  0  0  0  0  0  0  0  0  0  # atno 17321 bound_to 7965
  140.2265  144.4412  150.6318 LP  0  0  0  0  0  0  0  0  0  0  0  0  # atno 17342 bound_to 10162
  140.6384  143.2199  151.6345 LP  0  0  0  0  0  0  0  0  0  0  0  0  # atno 17343 bound_to 10162
  157.7358  130.9768  150.2103 LP  0  0  0  0  0  0  0  0  0  0  0  0  # atno 17370 bound_to 10713
  156.2756  130.3727  149.7987 LP  0  0  0  0  0  0  0  0  0  0  0  0  # atno 17371 bound_to 10713
  139.9692  135.0133  156.9468 LP  0  0  0  0  0  0  0  0  0  0  0  0  # atno 17394 bound_to 11000
  140.5335  134.0790  155.7322 LP  0  0  0  0  0  0  0  0  0  0  0  0  # atno 17395 bound_to 11000

$$$$
