AV-unprocessed.smi:2993|AV-procd|sdf|11403|dock8
  -GOLD-   2272016323D 1   1.00000     0.00000
 Structure written by MMmdl.
 34 35  0  0  0  0  0  0  0  0  1 V2000
  148.2015  141.5133  154.4437 C   0  0  0  0  0  0  0  0  0  0  0  0
  149.2899  140.4936  154.6206 C   0  0  0  0  0  0  0  0  0  0  0  0
  149.1474  139.2985  154.0730 N   0  0  0  0  0  0  0  0  0  0  0  0
  150.2963  138.5794  154.4159 O   0  0  0  0  0  0  0  0  0  0  0  0
  151.0940  139.3790  155.1684 C   0  0  0  0  0  0  0  0  0  0  0  0
  152.3773  138.7890  155.6462 C   0  0  0  0  0  0  0  0  0  0  0  0
  150.5184  140.6085  155.3346 C   0  0  0  0  0  0  0  0  0  0  0  0
  151.0521  141.7938  156.0977 C   0  0  0  0  0  0  0  0  0  0  0  0
  151.3664  141.3759  157.5335 C   0  0  0  0  0  0  0  0  0  0  0  0
  151.1130  140.2320  157.9102 O   0  0  0  0  0  0  0  0  0  0  0  0
  151.9059  142.3174  158.3232 N   0  0  0  0  0  0  0  0  0  0  0  0
  152.2296  142.1556  159.7360 C   0  0  1  0  0  0  0  0  0  0  0  0
  153.2136  140.9871  159.8827 C   0  0  0  0  0  0  0  0  0  0  0  0
  152.7904  143.4172  160.3705 C   0  0  0  0  0  0  0  0  0  0  0  0
  152.4490  143.7892  161.7938 C   0  0  0  0  0  0  0  0  0  0  0  0
  151.9154  144.6170  160.6470 C   0  0  0  0  0  0  0  0  0  0  0  0
  147.3318  141.2630  155.0515 H   0  0  0  0  0  0  0  0  0  0  0  0
  147.8780  141.5695  153.4041 H   0  0  0  0  0  0  0  0  0  0  0  0
  148.5338  142.5084  154.7375 H   0  0  0  0  0  0  0  0  0  0  0  0
  152.5525  139.0429  156.6919 H   0  0  0  0  0  0  0  0  0  0  0  0
  153.2159  139.1667  155.0612 H   0  0  0  0  0  0  0  0  0  0  0  0
  152.3660  137.7021  155.5613 H   0  0  0  0  0  0  0  0  0  0  0  0
  151.9599  142.1853  155.6369 H   0  0  0  0  0  0  0  0  0  0  0  0
  150.3416  142.6208  156.1069 H   0  0  0  0  0  0  0  0  0  0  0  0
  152.0795  143.2265  157.9201 H   0  0  0  0  0  0  0  0  0  0  0  0
  151.3188  141.8822  160.2725 H   0  0  0  0  0  0  0  0  0  0  0  0
  153.4412  140.7951  160.9316 H   0  0  0  0  0  0  0  0  0  0  0  0
  154.1546  141.1943  159.3721 H   0  0  0  0  0  0  0  0  0  0  0  0
  152.8007  140.0686  159.4637 H   0  0  0  0  0  0  0  0  0  0  0  0
  153.8112  143.6386  160.0631 H   0  0  0  0  0  0  0  0  0  0  0  0
  151.7415  143.1578  162.3278 H   0  0  0  0  0  0  0  0  0  0  0  0
  153.2402  144.2220  162.4027 H   0  0  0  0  0  0  0  0  0  0  0  0
  152.3518  145.6012  160.4887 H   0  0  0  0  0  0  0  0  0  0  0  0
  150.8534  144.5366  160.4240 H   0  0  0  0  0  0  0  0  0  0  0  0
  1  2  1  0  0  0  0
  1 17  1  0  0  0  0
  1 18  1  0  0  0  0
  1 19  1  0  0  0  0
  2  7  1  0  0  0  0
  2  3  2  0  0  0  0
  3  4  1  0  0  0  0
  4  5  1  0  0  0  0
  5  6  1  0  0  0  0
  5  7  2  0  0  0  0
  6 20  1  0  0  0  0
  6 21  1  0  0  0  0
  6 22  1  0  0  0  0
  7  8  1  0  0  0  0
  8  9  1  0  0  0  0
  8 23  1  0  0  0  0
  8 24  1  0  0  0  0
  9 10  2  0  0  0  0
  9 11  1  0  0  0  0
 11 12  1  0  0  0  0
 11 25  1  0  0  0  0
 12 13  1  0  0  0  0
 12 14  1  0  0  0  0
 12 26  1  0  0  0  0
 13 27  1  0  0  0  0
 13 28  1  0  0  0  0
 13 29  1  0  0  0  0
 14 16  1  0  0  0  0
 14 15  1  0  0  0  0
 14 30  1  0  0  0  0
 15 16  1  0  0  0  0
 15 31  1  0  0  0  0
 15 32  1  0  0  0  0
 16 33  1  0  0  0  0
 16 34  1  0  0  0  0
M  END
> <s_m_source_file>
AV-unprocessed.smi

> <i_m_source_file_index>
2993

> <i_lp_mmshare_version>
43012

> <i_f3d_flags>
0

> <s_epik_input>
W0NIM11jMW5vYyhbQ0gzXSljMVtDSDJdQyg9TylbTkhdW0NASF0oW0NIM10pW0NIXTJbQ0gyXVtDSDJdMg==

> <s_epik_cmdline>
J2VwaWtfcHl0aG9uJywgJy1waCcsICc3LjAnLCAnLXRuJywgJzgnLCAnLW1hJywgJzIwMCcsICctbWV0YWxfYmluZGluZycsICctaW1hZScsICc8aW5maWxlLm1hZT4nLCAnLW9tYWUnLCAnPG91dGZpbGUubWFlPic=

> <r_lp_tautomer_probability>
1

> <r_epik_Ionization_Penalty>
1.92533e-08

> <r_epik_Ionization_Penalty_Charging>
0

> <r_epik_Ionization_Penalty_Neutral>
1.92533e-08

> <r_epik_State_Penalty>
-0

> <r_epik_Charging_Adjusted_Penalty>
0

> <i_epik_Tot_Q>
0

> <i_epik_Tot_abs_Q>
0

> <r_epik_Metal_State_Penalty>
-0

> <b_epik_Metal_Only>
0

> <s_lp_Force_Field>
OPLS_2005

> <r_lp_Energy>
6.29181

> <b_lp_Chiralities_Consistent>
1

> <s_lp_Variant>
AV-unprocessed.smi:2993-2

> <Gold.Version>
5.8.1

> <Gold.Id.Protein>
6NUR|6NUR_protein|mol2

> <Gold.PLP.Fitness>
37.0902

> <Gold.PLP.PLP>
-37.2268

> <Gold.PLP.part.hbond>
0.0000

> <Gold.PLP.part.metal>
0.0000

> <Gold.PLP.part.buried>
-4.6708

> <Gold.PLP.part.nonpolar>
-31.6946

> <Gold.PLP.part.repulsive>
0.7977

> <Gold.PLP.ligand.clash>
0.0000

> <Gold.PLP.ligand.torsion>
0.5990

> <Gold.PLP.Chemscore.Hbond>
0.0000

> <Gold.PLP.Chemscore.CHOScore>
0.0000

> <Gold.PLP.Chemscore.Metal>
0.0000

> <Gold.PLP.Chemscore.Internal.Correction>
1.0614

> <Gold.Rescore>
     Score         DG    S(hbond)    S(metal)    S(lipo)     H(rot)  DE(clash)    DE(int)     intcor
     11.81     -13.26       0.00        0.00      98.42       1.46       0.09       1.37       ----

> <Gold.Chemscore.Fitness>
11.8067

> <Gold.Chemscore.DG>
-13.2618

> <Gold.Chemscore.ZeroCoef>
-5.4800

> <Gold.Chemscore.Hbond>
0.0000

> <Gold.Chemscore.Metal>
0.0000

> <Gold.Chemscore.Lipo>
98.4203

> <Gold.Chemscore.Internal_Hbond>
0.0000

> <Gold.Chemscore.DEClash>
0.0889

> <Gold.Chemscore.DEInternal>
1.3662

> <Gold.Chemscore.Rot>
1.4584

> <Gold.Chemscore.Internal.Correction>
   9.000000E+99

> <Gold.Chemscore.Hbond.Weighted>
-0.0000

> <Gold.Chemscore.Metal.Weighted>
-0.0000

> <Gold.Chemscore.Lipo.Weighted>
-11.5152

> <Gold.Chemscore.Internal_Hbond.Weighted>
0.0000

> <Gold.Chemscore.DEClash.Weighted>
0.0889

> <Gold.Chemscore.DEInternal.Weighted>
1.3662

> <Gold.Chemscore.Rot.Weighted>
3.7334

> <Gold.Chemscore.Internal.Correction.Weighted>
   9.000000E+99

> <Gold.Protein.RotatedTorsions>
[ 6907 6896 6895 6894 ] final  -44.41 input  -60.11 | X-H torsion
[ 7974 7965 7964 7962 ] final   53.12 input  175.53 | X-H torsion
[ 8008 7997 7996 7995 ] final  -56.80 input   59.86 | X-H torsion
[ 10167 10162 10161 10158 ] final  -82.79 input  -65.29 | X-H torsion
[ 10718 10713 10712 10709 ] final   29.20 input   66.30 | X-H torsion
[ 10763 10752 10751 10750 ] final  138.27 input  -60.55 | X-H torsion
[ 11005 11000 10999 10996 ] final  142.89 input  -57.11 | X-H torsion

> <Gold.Protein.ActiveResidues>
 VAL166  LYS551  ARG553  GLY616  TRP617  ASP618  TYR619  PRO620  LYS621  CYS622 
 ASP623  PHE694  ASN695  SER759  ASP760  ASP761  ALA762  ILE779  LEU786  VAL792 
 PHE793  MET794  SER795  GLU796  ALA797  LYS798  CYS799  TRP800  GLU811  SER814 

> <Gold.Protein.RotatedAtoms>
  150.9331  134.8745  159.7564 H   0  0  0  0  0  0  0  0  0  0  0  0  # atno 6907 bound_to 6896
  152.5047  134.4049  159.9439 H   0  0  0  0  0  0  0  0  0  0  0  0  # atno 6908 bound_to 6896
  151.4075  133.3698  159.2775 H   0  0  0  0  0  0  0  0  0  0  0  0  # atno 6909 bound_to 6896
  145.9744  139.4180  143.0170 H   0  0  0  0  0  0  0  0  0  0  0  0  # atno 7974 bound_to 7965
  154.4243  140.1121  156.5695 H   0  0  0  0  0  0  0  0  0  0  0  0  # atno 8008 bound_to 7997
  155.6227  140.3495  155.4638 H   0  0  0  0  0  0  0  0  0  0  0  0  # atno 8009 bound_to 7997
  156.0011  140.1199  157.0536 H   0  0  0  0  0  0  0  0  0  0  0  0  # atno 8010 bound_to 7997
  140.4287  143.2557  151.8790 H   0  0  0  0  0  0  0  0  0  0  0  0  # atno 10167 bound_to 10162
  157.2434  130.7080  149.6369 H   0  0  0  0  0  0  0  0  0  0  0  0  # atno 10718 bound_to 10713
  153.8867  135.3038  155.3446 H   0  0  0  0  0  0  0  0  0  0  0  0  # atno 10763 bound_to 10752
  154.7736  135.4873  153.9701 H   0  0  0  0  0  0  0  0  0  0  0  0  # atno 10764 bound_to 10752
  153.1320  135.6806  153.9260 H   0  0  0  0  0  0  0  0  0  0  0  0  # atno 10765 bound_to 10752
  140.0511  134.9255  157.1019 H   0  0  0  0  0  0  0  0  0  0  0  0  # atno 11005 bound_to 11000
  145.7860  140.9835  143.1074 LP  0  0  0  0  0  0  0  0  0  0  0  0  # atno 17320 bound_to 7965
  144.6845  139.9623  143.7480 LP  0  0  0  0  0  0  0  0  0  0  0  0  # atno 17321 bound_to 7965
  139.4784  144.5359  151.8600 LP  0  0  0  0  0  0  0  0  0  0  0  0  # atno 17342 bound_to 10162
  140.4452  144.1931  150.5893 LP  0  0  0  0  0  0  0  0  0  0  0  0  # atno 17343 bound_to 10162
  155.9669  130.4451  150.5486 LP  0  0  0  0  0  0  0  0  0  0  0  0  # atno 17370 bound_to 10713
  157.3355  131.0707  151.1828 LP  0  0  0  0  0  0  0  0  0  0  0  0  # atno 17371 bound_to 10713
  140.3915  134.2179  155.7166 LP  0  0  0  0  0  0  0  0  0  0  0  0  # atno 17394 bound_to 11000
  141.1931  133.8159  157.0813 LP  0  0  0  0  0  0  0  0  0  0  0  0  # atno 17395 bound_to 11000

$$$$
