AV-unprocessed.smi:3161|AV-procd|sdf|12061|dock4
  -GOLD-   2272017493D 1   1.00000     0.00000
 Structure written by MMmdl.
 40 41  0  0  0  0  0  0  0  0  1 V2000
  147.5381  140.5023  153.5639 C   0  0  0  0  0  0  0  0  0  0  0  0
  148.8356  140.4937  154.3195 C   0  0  0  0  0  0  0  0  0  0  0  0
  149.4518  141.5721  155.0157 C   0  0  0  0  0  0  0  0  0  0  0  0
  150.5991  141.2321  155.5797 N   0  0  0  0  0  0  0  0  0  0  0  0
  150.7598  139.9299  155.2604 N   0  0  0  0  0  0  0  0  0  0  0  0
  151.9384  139.2078  155.7150 C   0  0  0  0  0  0  0  0  0  0  0  0
  152.2378  139.3907  157.2199 C   0  0  2  0  0  0  0  0  0  0  0  0
  151.2978  138.5517  158.1088 C   0  0  0  0  0  0  0  0  0  0  0  0
  152.1954  140.8158  157.5659 N   0  0  0  0  0  0  0  0  0  0  0  0
  152.7762  141.1767  158.8586 C   0  0  0  0  0  0  0  0  0  0  0  0
  152.0619  142.3952  159.4626 C   0  0  1  0  0  0  0  0  0  0  0  0
  152.6827  142.8441  160.8023 C   0  0  0  0  0  0  0  0  0  0  0  0
  151.9948  144.1139  161.3159 C   0  0  0  0  0  0  0  0  0  0  0  0
  152.0149  145.1895  160.2250 C   0  0  0  0  0  0  0  0  0  0  0  0
  151.4435  144.6301  158.9125 C   0  0  0  0  0  0  0  0  0  0  0  0
  152.1655  143.4647  158.5252 O   0  0  0  0  0  0  0  0  0  0  0  0
  149.7062  139.4579  154.5062 C   0  0  0  0  0  0  0  0  0  0  0  0
  147.0484  141.4753  153.6087 H   0  0  0  0  0  0  0  0  0  0  0  0
  146.8359  139.7704  153.9635 H   0  0  0  0  0  0  0  0  0  0  0  0
  147.6855  140.2652  152.5102 H   0  0  0  0  0  0  0  0  0  0  0  0
  149.1001  142.5871  155.1273 H   0  0  0  0  0  0  0  0  0  0  0  0
  151.8022  138.1481  155.4929 H   0  0  0  0  0  0  0  0  0  0  0  0
  152.7914  139.5332  155.1179 H   0  0  0  0  0  0  0  0  0  0  0  0
  153.2534  139.0286  157.3847 H   0  0  0  0  0  0  0  0  0  0  0  0
  151.2569  137.5192  157.7613 H   0  0  0  0  0  0  0  0  0  0  0  0
  150.2798  138.9429  158.1033 H   0  0  0  0  0  0  0  0  0  0  0  0
  151.6383  138.5223  159.1436 H   0  0  0  0  0  0  0  0  0  0  0  0
  151.2356  141.1439  157.5272 H   0  0  0  0  0  0  0  0  0  0  0  0
  152.7202  140.3452  159.5607 H   0  0  0  0  0  0  0  0  0  0  0  0
  153.8342  141.4074  158.7283 H   0  0  0  0  0  0  0  0  0  0  0  0
  151.0055  142.1558  159.6005 H   0  0  0  0  0  0  0  0  0  0  0  0
  152.5993  142.0526  161.5478 H   0  0  0  0  0  0  0  0  0  0  0  0
  153.7484  143.0357  160.6684 H   0  0  0  0  0  0  0  0  0  0  0  0
  150.9638  143.8873  161.5900 H   0  0  0  0  0  0  0  0  0  0  0  0
  152.4876  144.4766  162.2183 H   0  0  0  0  0  0  0  0  0  0  0  0
  151.4449  146.0623  160.5447 H   0  0  0  0  0  0  0  0  0  0  0  0
  153.0390  145.5265  160.0612 H   0  0  0  0  0  0  0  0  0  0  0  0
  150.3832  144.3958  159.0175 H   0  0  0  0  0  0  0  0  0  0  0  0
  151.5265  145.3750  158.1210 H   0  0  0  0  0  0  0  0  0  0  0  0
  149.6663  138.4340  154.1643 H   0  0  0  0  0  0  0  0  0  0  0  0
  1  2  1  0  0  0  0
  1 18  1  0  0  0  0
  1 19  1  0  0  0  0
  1 20  1  0  0  0  0
  2 17  2  0  0  0  0
  2  3  1  0  0  0  0
  3  4  2  0  0  0  0
  3 21  1  0  0  0  0
  4  5  1  0  0  0  0
  5  6  1  0  0  0  0
  5 17  1  0  0  0  0
  6  7  1  0  0  0  0
  6 22  1  0  0  0  0
  6 23  1  0  0  0  0
  7  8  1  0  0  0  0
  7  9  1  0  0  0  0
  7 24  1  0  0  0  0
  8 25  1  0  0  0  0
  8 26  1  0  0  0  0
  8 27  1  0  0  0  0
  9 10  1  0  0  0  0
  9 28  1  0  0  0  0
 10 11  1  0  0  0  0
 10 29  1  0  0  0  0
 10 30  1  0  0  0  0
 11 16  1  0  0  0  0
 11 12  1  0  0  0  0
 11 31  1  0  0  0  0
 12 13  1  0  0  0  0
 12 32  1  0  0  0  0
 12 33  1  0  0  0  0
 13 14  1  0  0  0  0
 13 34  1  0  0  0  0
 13 35  1  0  0  0  0
 14 15  1  0  0  0  0
 14 36  1  0  0  0  0
 14 37  1  0  0  0  0
 15 16  1  0  0  0  0
 15 38  1  0  0  0  0
 15 39  1  0  0  0  0
 17 40  1  0  0  0  0
M  END
> <s_m_source_file>
AV-unprocessed.smi

> <i_m_source_file_index>
3161

> <i_lp_mmshare_version>
43012

> <i_f3d_flags>
0

> <s_epik_input>
W0NIM11jMVtjSF1ubihbY0hdMSlbQ0gyXVtDQEhdKFtDSDNdKVtOSF1bQ0gyXVtDQEBIXTJbQ0gyXVtDSDJdW0NIMl1bQ0gyXU8y

> <s_epik_cmdline>
J2VwaWtfcHl0aG9uJywgJy1waCcsICc3LjAnLCAnLXRuJywgJzgnLCAnLW1hJywgJzIwMCcsICctbWV0YWxfYmluZGluZycsICctaW1hZScsICc8aW5maWxlLm1hZT4nLCAnLW9tYWUnLCAnPG91dGZpbGUubWFlPic=

> <r_lp_tautomer_probability>
1

> <r_epik_Ionization_Penalty>
2.51986

> <r_epik_Ionization_Penalty_Charging>
0

> <r_epik_Ionization_Penalty_Neutral>
2.51986

> <r_epik_State_Penalty>
2.68614

> <r_epik_Charging_Adjusted_Penalty>
2.68614

> <i_epik_Tot_Q>
0

> <i_epik_Tot_abs_Q>
0

> <r_epik_Metal_State_Penalty>
2.68606

> <b_epik_Metal_Only>
0

> <s_lp_Force_Field>
OPLS_2005

> <r_lp_Energy>
14.508

> <b_lp_Chiralities_Consistent>
1

> <s_lp_Variant>
AV-unprocessed.smi:3161-7

> <Gold.Version>
5.8.1

> <Gold.Id.Protein>
6NUR|6NUR_protein|mol2

> <Gold.PLP.Fitness>
42.1745

> <Gold.PLP.PLP>
-40.1071

> <Gold.PLP.part.hbond>
-0.9277

> <Gold.PLP.part.metal>
0.0000

> <Gold.PLP.part.buried>
-2.6853

> <Gold.PLP.part.nonpolar>
-36.7590

> <Gold.PLP.part.repulsive>
0.0912

> <Gold.PLP.ligand.clash>
0.0000

> <Gold.PLP.ligand.torsion>
0.4847

> <Gold.PLP.Chemscore.Hbond>
0.0000

> <Gold.PLP.Chemscore.CHOScore>
1.0000

> <Gold.PLP.Chemscore.Metal>
0.0000

> <Gold.Chemscore.Hbonds>
donor molecule, donor type, donor heavy atom, donor atom, acceptor molecule, acceptor atom, score
      L1  C     3    21       P1  8028  1.00

> <Gold.PLP.Chemscore.Internal.Correction>
0.0369

> <Gold.Rescore>
     Score         DG    S(hbond)    S(metal)    S(lipo)     H(rot)  DE(clash)    DE(int)     intcor
     14.51     -15.01       0.00        0.00     114.33       1.50       0.14       0.36       ----

> <Gold.Chemscore.Fitness>
14.5107

> <Gold.Chemscore.DG>
-15.0084

> <Gold.Chemscore.ZeroCoef>
-5.4800

> <Gold.Chemscore.Hbond>
0.0000

> <Gold.Chemscore.Metal>
0.0000

> <Gold.Chemscore.Lipo>
114.3257

> <Gold.Chemscore.Internal_Hbond>
0.0000

> <Gold.Chemscore.DEClash>
0.1376

> <Gold.Chemscore.DEInternal>
0.3601

> <Gold.Chemscore.Rot>
1.5030

> <Gold.Chemscore.Internal.Correction>
   9.000000E+99

> <Gold.Chemscore.Hbond.Weighted>
-0.0000

> <Gold.Chemscore.Metal.Weighted>
-0.0000

> <Gold.Chemscore.Lipo.Weighted>
-13.3761

> <Gold.Chemscore.Internal_Hbond.Weighted>
0.0000

> <Gold.Chemscore.DEClash.Weighted>
0.1376

> <Gold.Chemscore.DEInternal.Weighted>
0.3601

> <Gold.Chemscore.Rot.Weighted>
3.8477

> <Gold.Chemscore.Internal.Correction.Weighted>
   9.000000E+99

> <Gold.Protein.RotatedTorsions>
[ 6907 6896 6895 6894 ] final -132.55 input  -60.11 | X-H torsion
[ 7974 7965 7964 7962 ] final  -69.92 input  175.53 | X-H torsion
[ 8008 7997 7996 7995 ] final -123.27 input   59.86 | X-H torsion
[ 10167 10162 10161 10158 ] final -107.35 input  -65.29 | X-H torsion
[ 10718 10713 10712 10709 ] final  -85.18 input   66.30 | X-H torsion
[ 10763 10752 10751 10750 ] final  157.76 input  -60.55 | X-H torsion
[ 11005 11000 10999 10996 ] final  -97.00 input  -57.11 | X-H torsion

> <Gold.Protein.ActiveResidues>
 VAL166  LYS551  ARG553  GLY616  TRP617  ASP618  TYR619  PRO620  LYS621  CYS622 
 ASP623  PHE694  ASN695  SER759  ASP760  ASP761  ALA762  ILE779  LEU786  VAL792 
 PHE793  MET794  SER795  GLU796  ALA797  LYS798  CYS799  TRP800  GLU811  SER814 

> <Gold.Protein.RotatedAtoms>
  150.9637  133.6417  159.2749 H   0  0  0  0  0  0  0  0  0  0  0  0  # atno 6907 bound_to 6896
  151.3731  135.0925  159.9481 H   0  0  0  0  0  0  0  0  0  0  0  0  # atno 6908 bound_to 6896
  152.5157  133.9187  159.7578 H   0  0  0  0  0  0  0  0  0  0  0  0  # atno 6909 bound_to 6896
  145.6976  140.9129  143.0748 H   0  0  0  0  0  0  0  0  0  0  0  0  # atno 7974 bound_to 7965
  155.1778  140.0410  157.2876 H   0  0  0  0  0  0  0  0  0  0  0  0  # atno 8008 bound_to 7997
  154.6225  140.2504  155.7505 H   0  0  0  0  0  0  0  0  0  0  0  0  # atno 8009 bound_to 7997
  156.2441  140.2892  156.0539 H   0  0  0  0  0  0  0  0  0  0  0  0  # atno 8010 bound_to 7997
  140.1779  143.3990  152.1304 H   0  0  0  0  0  0  0  0  0  0  0  0  # atno 10167 bound_to 10162
  155.9999  130.4722  150.4523 H   0  0  0  0  0  0  0  0  0  0  0  0  # atno 10718 bound_to 10713
  154.2054  135.2788  155.2976 H   0  0  0  0  0  0  0  0  0  0  0  0  # atno 10763 bound_to 10752
  154.5821  135.5586  153.7199 H   0  0  0  0  0  0  0  0  0  0  0  0  # atno 10764 bound_to 10752
  153.0077  135.6347  154.2193 H   0  0  0  0  0  0  0  0  0  0  0  0  # atno 10765 bound_to 10752
  141.1393  133.8138  157.0647 H   0  0  0  0  0  0  0  0  0  0  0  0  # atno 11005 bound_to 11000
  144.6978  139.8904  143.7453 LP  0  0  0  0  0  0  0  0  0  0  0  0  # atno 17320 bound_to 7965
  146.0826  139.3814  143.0455 LP  0  0  0  0  0  0  0  0  0  0  0  0  # atno 17321 bound_to 7965
  139.5309  144.7158  151.5060 LP  0  0  0  0  0  0  0  0  0  0  0  0  # atno 17342 bound_to 10162
  140.6539  143.8639  150.6815 LP  0  0  0  0  0  0  0  0  0  0  0  0  # atno 17343 bound_to 10162
  157.2555  131.0555  151.2353 LP  0  0  0  0  0  0  0  0  0  0  0  0  # atno 17370 bound_to 10713
  157.3486  130.7070  149.6426 LP  0  0  0  0  0  0  0  0  0  0  0  0  # atno 17371 bound_to 10713
  140.0549  134.9786  157.1203 LP  0  0  0  0  0  0  0  0  0  0  0  0  # atno 17394 bound_to 11000
  140.3934  134.2160  155.7165 LP  0  0  0  0  0  0  0  0  0  0  0  0  # atno 17395 bound_to 11000

$$$$
