AV-unprocessed.smi:2999|AV-procd|sdf|11426|dock10
  -GOLD-   2272016353D 1   1.00000     0.00000
 Structure written by MMmdl.
 37 39  0  0  0  0  0  0  0  0  3 V2000
  146.8099  139.0442  154.6920 O   0  0  0  0  0  0  0  0  0  0  0  0
  147.5989  138.4065  153.9914 C   0  0  0  0  0  0  0  0  0  0  0  0
  147.1514  137.4155  153.2087 N   0  0  0  0  0  0  0  0  0  0  0  0
  145.7740  136.9382  153.1254 C   0  0  0  0  0  0  0  0  0  0  0  0
  145.6584  135.5329  152.4979 C   0  0  1  0  0  0  0  0  0  0  0  0
  145.6888  135.5360  150.9502 C   0  0  0  0  0  0  0  0  0  0  0  0
  145.6412  134.1603  150.4020 N   0  3  2  0  0  0  0  0  0  0  0  0
  144.2886  133.5570  150.4387 C   0  0  0  0  0  0  0  0  0  0  0  0
  144.3005  132.0464  150.4509 C   0  0  0  0  0  0  0  0  0  0  0  0
  143.9347  132.7904  149.1861 C   0  0  0  0  0  0  0  0  0  0  0  0
  146.6848  133.3080  151.0187 C   0  0  0  0  0  0  0  0  0  0  0  0
  146.6157  133.3637  152.5552 C   0  0  0  0  0  0  0  0  0  0  0  0
  146.7131  134.7128  152.9912 O   0  0  0  0  0  0  0  0  0  0  0  0
  148.9362  138.5893  153.9183 N   0  5  0  0  0  0  0  0  0  0  0  0
  149.5945  139.1474  154.9473 C   0  0  0  0  0  0  0  0  0  0  0  0
  150.8354  139.6359  154.8387 N   0  0  0  0  0  0  0  0  0  0  0  0
  151.3256  140.1751  156.0296 C   0  0  0  0  0  0  0  0  0  0  0  0
  150.4345  140.1018  157.0672 C   0  0  0  0  0  0  0  0  0  0  0  0
  148.9434  139.3498  156.5763 S   0  0  0  0  0  0  0  0  0  0  0  0
  147.8354  136.9333  152.6442 H   0  0  0  0  0  0  0  0  0  0  0  0
  145.2997  136.9605  154.1079 H   0  0  0  0  0  0  0  0  0  0  0  0
  145.2263  137.6510  152.5089 H   0  0  0  0  0  0  0  0  0  0  0  0
  144.7146  135.1063  152.8411 H   0  0  0  0  0  0  0  0  0  0  0  0
  144.8694  136.1321  150.5472 H   0  0  0  0  0  0  0  0  0  0  0  0
  146.6110  135.9947  150.5915 H   0  0  0  0  0  0  0  0  0  0  0  0
  143.5199  134.1030  150.9819 H   0  0  0  0  0  0  0  0  0  0  0  0
  145.2629  131.5384  150.4743 H   0  0  0  0  0  0  0  0  0  0  0  0
  143.4961  131.5422  150.9826 H   0  0  0  0  0  0  0  0  0  0  0  0
  142.8893  132.7778  148.8843 H   0  0  0  0  0  0  0  0  0  0  0  0
  144.6545  132.7759  148.3694 H   0  0  0  0  0  0  0  0  0  0  0  0
  146.5942  132.2808  150.6640 H   0  0  0  0  0  0  0  0  0  0  0  0
  147.6608  133.6664  150.6888 H   0  0  0  0  0  0  0  0  0  0  0  0
  145.6959  132.9120  152.9290 H   0  0  0  0  0  0  0  0  0  0  0  0
  147.4417  132.7977  152.9860 H   0  0  0  0  0  0  0  0  0  0  0  0
  152.3215  140.5918  156.0479 H   0  0  0  0  0  0  0  0  0  0  0  0
  150.5617  140.4426  158.0834 H   0  0  0  0  0  0  0  0  0  0  0  0
  145.8759  134.2360  149.4225 H   0  0  0  0  0  0  0  0  0  0  0  0
  1  2  2  0  0  0  0
  2  3  1  0  0  0  0
  2 14  1  0  0  0  0
  3  4  1  0  0  0  0
  3 20  1  0  0  0  0
  4  5  1  0  0  0  0
  4 21  1  0  0  0  0
  4 22  1  0  0  0  0
  5 13  1  0  0  0  0
  5  6  1  0  0  0  0
  5 23  1  0  0  0  0
  6  7  1  0  0  0  0
  6 24  1  0  0  0  0
  6 25  1  0  0  0  0
  7  8  1  0  0  0  0
  7 11  1  0  0  0  0
  7 37  1  0  0  0  0
  8 10  1  0  0  0  0
  8  9  1  0  0  0  0
  8 26  1  0  0  0  0
  9 10  1  0  0  0  0
  9 27  1  0  0  0  0
  9 28  1  0  0  0  0
 10 29  1  0  0  0  0
 10 30  1  0  0  0  0
 11 12  1  0  0  0  0
 11 31  1  0  0  0  0
 11 32  1  0  0  0  0
 12 13  1  0  0  0  0
 12 33  1  0  0  0  0
 12 34  1  0  0  0  0
 14 15  1  0  0  0  0
 15 19  1  0  0  0  0
 15 16  2  0  0  0  0
 16 17  1  0  0  0  0
 17 18  2  0  0  0  0
 17 35  1  0  0  0  0
 18 19  1  0  0  0  0
 18 36  1  0  0  0  0
M  CHG  1   7   1
M  CHG  1  14  -1
M  END
> <s_m_source_file>
AV-unprocessed.smi

> <i_m_source_file_index>
2999

> <i_lp_mmshare_version>
43012

> <i_f3d_flags>
0

> <s_epik_input>
czFbY0hdW2NIXW5jMVtOSF1DKD1PKVtOSF1bQ0gyXVtDQEBIXTJbQ0gyXU4oW0NIMl1bQ0gyXU8yKVtDSF0zW0NIMl1bQ0gyXTM=

> <s_epik_cmdline>
J2VwaWtfcHl0aG9uJywgJy1waCcsICc3LjAnLCAnLXRuJywgJzgnLCAnLW1hJywgJzIwMCcsICctbWV0YWxfYmluZGluZycsICctaW1hZScsICc8aW5maWxlLm1hZT4nLCAnLW9tYWUnLCAnPG91dGZpbGUubWFlPic=

> <r_lp_tautomer_probability>
0.999

> <r_epik_Ionization_Penalty>
7.79196

> <r_epik_Ionization_Penalty_Charging>
6.93299

> <r_epik_Ionization_Penalty_Neutral>
0.858963

> <r_epik_State_Penalty>
7.05108

> <r_epik_Charging_Adjusted_Penalty>
13.9841

> <i_epik_Tot_Q>
0

> <i_epik_Tot_abs_Q>
2

> <r_epik_Metal_State_Penalty>
3.05936

> <b_epik_Metal_Only>
1

> <s_lp_Force_Field>
OPLS_2005

> <r_lp_Energy>
16.0159

> <b_lp_Chiralities_Consistent>
1

> <s_lp_Variant>
AV-unprocessed.smi:2999-10

> <Gold.Version>
5.8.1

> <Gold.Id.Protein>
6NUR|6NUR_protein|mol2

> <Gold.PLP.Fitness>
37.2279

> <Gold.PLP.PLP>
-29.7025

> <Gold.PLP.part.hbond>
-3.0000

> <Gold.PLP.part.metal>
0.0000

> <Gold.PLP.part.buried>
-7.6229

> <Gold.PLP.part.nonpolar>
-22.3060

> <Gold.PLP.part.repulsive>
2.7254

> <Gold.PLP.ligand.clash>
0.0000

> <Gold.PLP.ligand.torsion>
1.3708

> <Gold.PLP.Chemscore.Hbond>
3.0000

> <Gold.PLP.Chemscore.CHOScore>
0.0000

> <Gold.PLP.Chemscore.Metal>
0.0000

> <Gold.Chemscore.Hbonds>
donor molecule, donor type, donor heavy atom, donor atom, acceptor molecule, acceptor atom, score
      L1  H     3    20       P1  7948  0.99
      L1  H     7    37       P1  7921  1.00
      P1  H  7989  7998       L1    16  1.00

> <Gold.PLP.Chemscore.Internal.Correction>
1.2670

> <Gold.Rescore>
     Score         DG    S(hbond)    S(metal)    S(lipo)     H(rot)  DE(clash)    DE(int)     intcor
     13.81     -18.00       2.66        0.00      65.07       1.55       1.46       2.72       ----

> <Gold.Chemscore.Fitness>
13.8146

> <Gold.Chemscore.DG>
-17.9964

> <Gold.Chemscore.ZeroCoef>
-5.4800

> <Gold.Chemscore.Hbond>
2.6565

> <Gold.Chemscore.Metal>
0.0000

> <Gold.Chemscore.Lipo>
65.0665

> <Gold.Chemscore.Internal_Hbond>
0.0000

> <Gold.Chemscore.DEClash>
1.4612

> <Gold.Chemscore.DEInternal>
2.7206

> <Gold.Chemscore.Rot>
1.5504

> <Gold.Chemscore.Internal.Correction>
   9.000000E+99

> <Gold.Chemscore.Hbonds>
donor molecule, donor type, donor heavy atom, donor atom, acceptor molecule, acceptor atom, score
      L1  H     3    20       P1  7948  0.93
      L1  H     7    37       P1  7921  0.45
      P1  H  7989  7998       L1    16  0.29

> <Gold.Chemscore.Hbond.Weighted>
-8.8726

> <Gold.Chemscore.Metal.Weighted>
-0.0000

> <Gold.Chemscore.Lipo.Weighted>
-7.6128

> <Gold.Chemscore.Internal_Hbond.Weighted>
0.0000

> <Gold.Chemscore.DEClash.Weighted>
1.4612

> <Gold.Chemscore.DEInternal.Weighted>
2.7206

> <Gold.Chemscore.Rot.Weighted>
3.9690

> <Gold.Chemscore.Internal.Correction.Weighted>
   9.000000E+99

> <Gold.Protein.RotatedTorsions>
[ 6907 6896 6895 6894 ] final -156.54 input  -60.11 | X-H torsion
[ 7974 7965 7964 7962 ] final -163.38 input  175.53 | X-H torsion
[ 8008 7997 7996 7995 ] final -135.32 input   59.86 | X-H torsion
[ 10167 10162 10161 10158 ] final -164.69 input  -65.29 | X-H torsion
[ 10718 10713 10712 10709 ] final  -76.73 input   66.30 | X-H torsion
[ 10763 10752 10751 10750 ] final   55.87 input  -60.55 | X-H torsion
[ 11005 11000 10999 10996 ] final  -28.51 input  -57.11 | X-H torsion

> <Gold.Protein.ActiveResidues>
 VAL166  LYS551  ARG553  GLY616  TRP617  ASP618  TYR619  PRO620  LYS621  CYS622 
 ASP623  PHE694  ASN695  SER759  ASP760  ASP761  ALA762  ILE779  LEU786  VAL792 
 PHE793  MET794  SER795  GLU796  ALA797  LYS798  CYS799  TRP800  GLU811  SER814 

> <Gold.Protein.RotatedAtoms>
  151.2892  133.4173  159.2631 H   0  0  0  0  0  0  0  0  0  0  0  0  # atno 6907 bound_to 6896
  151.0292  134.9527  159.8112 H   0  0  0  0  0  0  0  0  0  0  0  0  # atno 6908 bound_to 6896
  152.5342  134.2853  159.9075 H   0  0  0  0  0  0  0  0  0  0  0  0  # atno 6909 bound_to 6896
  144.7328  140.3116  143.6187 H   0  0  0  0  0  0  0  0  0  0  0  0  # atno 7974 bound_to 7965
  155.3767  140.0491  157.3044 H   0  0  0  0  0  0  0  0  0  0  0  0  # atno 8008 bound_to 7997
  154.5103  140.2189  155.9132 H   0  0  0  0  0  0  0  0  0  0  0  0  # atno 8009 bound_to 7997
  156.1574  140.3123  155.8755 H   0  0  0  0  0  0  0  0  0  0  0  0  # atno 8010 bound_to 7997
  139.6233  144.0581  152.1952 H   0  0  0  0  0  0  0  0  0  0  0  0  # atno 10167 bound_to 10162
  156.0166  130.4473  150.3238 H   0  0  0  0  0  0  0  0  0  0  0  0  # atno 10718 bound_to 10713
  152.9823  135.5696  154.5137 H   0  0  0  0  0  0  0  0  0  0  0  0  # atno 10763 bound_to 10752
  154.4637  135.2782  155.1696 H   0  0  0  0  0  0  0  0  0  0  0  0  # atno 10764 bound_to 10752
  154.3274  135.6256  153.5589 H   0  0  0  0  0  0  0  0  0  0  0  0  # atno 10765 bound_to 10752
  140.9215  133.7396  156.0808 H   0  0  0  0  0  0  0  0  0  0  0  0  # atno 11005 bound_to 11000
  145.7659  139.1840  143.2240 LP  0  0  0  0  0  0  0  0  0  0  0  0  # atno 17320 bound_to 7965
  146.0949  140.7612  142.9577 LP  0  0  0  0  0  0  0  0  0  0  0  0  # atno 17321 bound_to 7965
  140.0229  144.6140  150.7552 LP  0  0  0  0  0  0  0  0  0  0  0  0  # atno 17342 bound_to 10162
  140.7395  143.2793  151.3648 LP  0  0  0  0  0  0  0  0  0  0  0  0  # atno 17343 bound_to 10162
  157.1338  131.0278  151.2958 LP  0  0  0  0  0  0  0  0  0  0  0  0  # atno 17370 bound_to 10713
  157.4529  130.7608  149.7167 LP  0  0  0  0  0  0  0  0  0  0  0  0  # atno 17371 bound_to 10713
  140.7982  134.3540  157.5447 LP  0  0  0  0  0  0  0  0  0  0  0  0  # atno 17394 bound_to 11000
  139.8776  134.9181  156.3195 LP  0  0  0  0  0  0  0  0  0  0  0  0  # atno 17395 bound_to 11000

$$$$
