AV-unprocessed.smi:282|AV-procd|sdf|2118|dock10
  -GOLD-   2262021413D 1   1.00000     0.00000
 Structure written by MMmdl.
 65 69  0  0  0  0  0  0  0  0  2 V2000
  149.0702  130.3558  154.5113 C   0  0  0  0  0  0  0  0  0  0  0  0
  149.5828  131.7799  154.2559 C   0  0  0  0  0  0  0  0  0  0  0  0
  148.5011  132.7611  153.7306 C   0  0  1  0  0  0  0  0  0  0  0  0
  147.7645  132.1695  152.5057 C   0  0  0  0  0  0  0  0  0  0  0  0
  146.6750  133.0529  152.0206 N   0  3  1  0  0  0  0  0  0  0  0  0
  146.0084  132.4986  150.8137 C   0  0  0  0  0  0  0  0  0  0  0  0
  144.9528  133.4689  150.2610 C   0  0  0  0  0  0  0  0  0  0  0  0
  143.9219  133.8229  151.3388 C   0  0  0  0  0  0  0  0  0  0  0  0
  144.6347  134.3788  152.5775 C   0  0  0  0  0  0  0  0  0  0  0  0
  145.7062  133.3997  153.0974 C   0  0  2  0  0  0  0  0  0  0  0  0
  146.4427  133.9950  154.3085 C   0  0  0  0  0  0  0  0  0  0  0  0
  147.5197  133.1224  154.7627 N   0  0  0  0  0  0  0  0  0  0  0  0
  148.0159  133.5607  155.9416 C   0  0  0  0  0  0  0  0  0  0  0  0
  149.1243  134.3386  155.8928 N   0  0  0  0  0  0  0  0  0  0  0  0
  149.6591  134.8080  157.0240 C   0  0  0  0  0  0  0  0  0  0  0  0
  149.2505  134.6212  158.2808 N   0  0  0  0  0  0  0  0  0  0  0  0
  148.1369  133.8350  158.3324 C   0  0  0  0  0  0  0  0  0  0  0  0
  147.4637  133.2596  157.2186 C   0  0  0  0  0  0  0  0  0  0  0  0
  146.3830  132.5041  157.6550 N   0  0  0  0  0  0  0  0  0  0  0  0
  146.4147  132.6279  158.9537 C   0  0  0  0  0  0  0  0  0  0  0  0
  147.4224  133.4274  159.4462 N   0  0  0  0  0  0  0  0  0  0  0  0
  147.6861  133.7330  160.8460 C   0  0  0  0  0  0  0  0  0  0  0  0
  146.4907  134.3751  161.6198 C   0  0  0  0  0  0  0  0  0  0  0  0
  145.5062  133.2886  162.1296 C   0  0  0  0  0  0  0  0  0  0  0  0
  144.4761  133.8322  162.9311 O   0  0  0  0  0  0  0  0  0  0  0  0
  147.0135  135.1925  162.8278 C   0  0  0  0  0  0  0  0  0  0  0  0
  147.7207  136.4946  162.4095 C   0  0  0  0  0  0  0  0  0  0  0  0
  146.8478  137.2892  161.6174 O   0  0  0  0  0  0  0  0  0  0  0  0
  146.4639  136.6461  160.4092 C   0  0  0  0  0  0  0  0  0  0  0  0
  145.6879  135.3550  160.7272 C   0  0  0  0  0  0  0  0  0  0  0  0
  149.8947  129.6956  154.7819 H   0  0  0  0  0  0  0  0  0  0  0  0
  148.5954  129.9426  153.6210 H   0  0  0  0  0  0  0  0  0  0  0  0
  148.3499  130.3212  155.3279 H   0  0  0  0  0  0  0  0  0  0  0  0
  150.0308  132.1758  155.1682 H   0  0  0  0  0  0  0  0  0  0  0  0
  150.3974  131.6922  153.5370 H   0  0  0  0  0  0  0  0  0  0  0  0
  148.9964  133.6776  153.4089 H   0  0  0  0  0  0  0  0  0  0  0  0
  148.4649  132.0107  151.6861 H   0  0  0  0  0  0  0  0  0  0  0  0
  147.3459  131.1941  152.7601 H   0  0  0  0  0  0  0  0  0  0  0  0
  146.7544  132.2982  150.0436 H   0  0  0  0  0  0  0  0  0  0  0  0
  145.5438  131.5425  151.0606 H   0  0  0  0  0  0  0  0  0  0  0  0
  145.4391  134.3775  149.9035 H   0  0  0  0  0  0  0  0  0  0  0  0
  144.4530  133.0250  149.3995 H   0  0  0  0  0  0  0  0  0  0  0  0
  143.2088  134.5526  150.9542 H   0  0  0  0  0  0  0  0  0  0  0  0
  143.3477  132.9356  151.6089 H   0  0  0  0  0  0  0  0  0  0  0  0
  145.0963  135.3359  152.3299 H   0  0  0  0  0  0  0  0  0  0  0  0
  143.9037  134.5834  153.3604 H   0  0  0  0  0  0  0  0  0  0  0  0
  145.2122  132.4788  153.4133 H   0  0  0  0  0  0  0  0  0  0  0  0
  146.8593  134.9687  154.0456 H   0  0  0  0  0  0  0  0  0  0  0  0
  145.7338  134.1627  155.1213 H   0  0  0  0  0  0  0  0  0  0  0  0
  150.5388  135.4233  156.9057 H   0  0  0  0  0  0  0  0  0  0  0  0
  145.6941  132.1395  159.5935 H   0  0  0  0  0  0  0  0  0  0  0  0
  147.9878  132.8049  161.3328 H   0  0  0  0  0  0  0  0  0  0  0  0
  148.5676  134.3714  160.8830 H   0  0  0  0  0  0  0  0  0  0  0  0
  145.0368  132.7747  161.2899 H   0  0  0  0  0  0  0  0  0  0  0  0
  146.0275  132.5197  162.6997 H   0  0  0  0  0  0  0  0  0  0  0  0
  144.6965  133.6915  163.8391 H   0  0  0  0  0  0  0  0  0  0  0  0
  146.1789  135.4566  163.4785 H   0  0  0  0  0  0  0  0  0  0  0  0
  147.6880  134.5884  163.4356 H   0  0  0  0  0  0  0  0  0  0  0  0
  147.9982  137.0646  163.2962 H   0  0  0  0  0  0  0  0  0  0  0  0
  148.6452  136.2940  161.8677 H   0  0  0  0  0  0  0  0  0  0  0  0
  145.8308  137.3268  159.8397 H   0  0  0  0  0  0  0  0  0  0  0  0
  147.3420  136.4507  159.7939 H   0  0  0  0  0  0  0  0  0  0  0  0
  145.3664  134.8724  159.8048 H   0  0  0  0  0  0  0  0  0  0  0  0
  144.7687  135.6414  161.2403 H   0  0  0  0  0  0  0  0  0  0  0  0
  147.1119  133.9188  151.7388 H   0  0  0  0  0  0  0  0  0  0  0  0
  1  2  1  0  0  0  0
  1 31  1  0  0  0  0
  1 32  1  0  0  0  0
  1 33  1  0  0  0  0
  2  3  1  0  0  0  0
  2 34  1  0  0  0  0
  2 35  1  0  0  0  0
  3 12  1  0  0  0  0
  3  4  1  0  0  0  0
  3 36  1  0  0  0  0
  4  5  1  0  0  0  0
  4 37  1  0  0  0  0
  4 38  1  0  0  0  0
  5 10  1  0  0  0  0
  5  6  1  0  0  0  0
  5 65  1  0  0  0  0
  6  7  1  0  0  0  0
  6 39  1  0  0  0  0
  6 40  1  0  0  0  0
  7  8  1  0  0  0  0
  7 41  1  0  0  0  0
  7 42  1  0  0  0  0
  8  9  1  0  0  0  0
  8 43  1  0  0  0  0
  8 44  1  0  0  0  0
  9 10  1  0  0  0  0
  9 45  1  0  0  0  0
  9 46  1  0  0  0  0
 10 11  1  0  0  0  0
 10 47  1  0  0  0  0
 11 12  1  0  0  0  0
 11 48  1  0  0  0  0
 11 49  1  0  0  0  0
 12 13  1  0  0  0  0
 13 18  1  0  0  0  0
 13 14  2  0  0  0  0
 14 15  1  0  0  0  0
 15 16  2  0  0  0  0
 15 50  1  0  0  0  0
 16 17  1  0  0  0  0
 17 21  1  0  0  0  0
 17 18  2  0  0  0  0
 18 19  1  0  0  0  0
 19 20  2  0  0  0  0
 20 21  1  0  0  0  0
 20 51  1  0  0  0  0
 21 22  1  0  0  0  0
 22 23  1  0  0  0  0
 22 52  1  0  0  0  0
 22 53  1  0  0  0  0
 23 30  1  0  0  0  0
 23 24  1  0  0  0  0
 23 26  1  0  0  0  0
 24 25  1  0  0  0  0
 24 54  1  0  0  0  0
 24 55  1  0  0  0  0
 25 56  1  0  0  0  0
 26 27  1  0  0  0  0
 26 57  1  0  0  0  0
 26 58  1  0  0  0  0
 27 28  1  0  0  0  0
 27 59  1  0  0  0  0
 27 60  1  0  0  0  0
 28 29  1  0  0  0  0
 29 30  1  0  0  0  0
 29 61  1  0  0  0  0
 29 62  1  0  0  0  0
 30 63  1  0  0  0  0
 30 64  1  0  0  0  0
M  CHG  1   5   1
M  END
> <s_m_source_file>
AV-unprocessed.smi

> <i_m_source_file_index>
282

> <i_lp_mmshare_version>
43012

> <i_f3d_flags>
0

> <s_epik_input>
W0NIMl0xW0NIMl1bQ0gyXVtDSDJdW0NAQEhdKE4xMilbQ0gyXU4oW0NAQEhdKFtDSDJdMilbQ0gyXVtDSDNdKWMobltjSF1uMyljKGMzNCluW2NIXW40W0NIMl1DNShbQ0gyXVtPSF0pW0NIMl1bQ0gyXU9bQ0gyXVtDSDJdNQ==

> <s_epik_cmdline>
J2VwaWtfcHl0aG9uJywgJy1waCcsICc3LjAnLCAnLXRuJywgJzgnLCAnLW1hJywgJzIwMCcsICctbWV0YWxfYmluZGluZycsICctaW1hZScsICc8aW5maWxlLm1hZT4nLCAnLW9tYWUnLCAnPG91dGZpbGUubWFlPic=

> <r_lp_tautomer_probability>
1

> <r_epik_Ionization_Penalty>
0.00308583

> <r_epik_Ionization_Penalty_Charging>
0.00300384

> <r_epik_Ionization_Penalty_Neutral>
8.19894e-05

> <r_epik_State_Penalty>
-0

> <r_epik_Charging_Adjusted_Penalty>
0.00300384

> <i_epik_Tot_Q>
1

> <i_epik_Tot_abs_Q>
1

> <r_epik_Metal_State_Penalty>
-0

> <b_epik_Metal_Only>
0

> <s_lp_Force_Field>
OPLS_2005

> <r_lp_Energy>
55.6254

> <b_lp_Chiralities_Consistent>
1

> <s_lp_Variant>
AV-unprocessed.smi:282-2

> <Gold.Version>
5.8.1

> <Gold.Id.Protein>
6NUR|6NUR_protein|mol2

> <Gold.PLP.Fitness>
45.2766

> <Gold.PLP.PLP>
-41.3019

> <Gold.PLP.part.hbond>
-2.7927

> <Gold.PLP.part.metal>
0.0000

> <Gold.PLP.part.buried>
-4.0812

> <Gold.PLP.part.nonpolar>
-33.9275

> <Gold.PLP.part.repulsive>
0.0735

> <Gold.PLP.ligand.clash>
0.0000

> <Gold.PLP.ligand.torsion>
1.1223

> <Gold.PLP.Chemscore.Hbond>
1.9920

> <Gold.PLP.Chemscore.CHOScore>
0.0000

> <Gold.PLP.Chemscore.Metal>
0.0000

> <Gold.Chemscore.Hbonds>
donor molecule, donor type, donor heavy atom, donor atom, acceptor molecule, acceptor atom, score
      P1  H  6896  6909       L1    16  1.00
      P1  H  6934  6947       L1    28  1.00

> <Gold.PLP.Chemscore.Internal.Correction>
0.2432

> <Gold.Rescore>
     Score         DG    S(hbond)    S(metal)    S(lipo)     H(rot)  DE(clash)    DE(int)     intcor
     14.51     -16.79       1.75        0.00     100.35       2.46       1.13       1.14       ----

> <Gold.Chemscore.Fitness>
14.5125

> <Gold.Chemscore.DG>
-16.7864

> <Gold.Chemscore.ZeroCoef>
-5.4800

> <Gold.Chemscore.Hbond>
1.7536

> <Gold.Chemscore.Metal>
0.0000

> <Gold.Chemscore.Lipo>
100.3483

> <Gold.Chemscore.Internal_Hbond>
0.0000

> <Gold.Chemscore.DEClash>
1.1337

> <Gold.Chemscore.DEInternal>
1.1401

> <Gold.Chemscore.Rot>
2.4576

> <Gold.Chemscore.Internal.Correction>
   9.000000E+99

> <Gold.Chemscore.Hbonds>
donor molecule, donor type, donor heavy atom, donor atom, acceptor molecule, acceptor atom, score
      P1  H  6896  6909       L1    16  0.66
      P1  H  6934  6947       L1    28  0.24

> <Gold.Chemscore.Hbond.Weighted>
-5.8572

> <Gold.Chemscore.Metal.Weighted>
-0.0000

> <Gold.Chemscore.Lipo.Weighted>
-11.7407

> <Gold.Chemscore.Internal_Hbond.Weighted>
0.0000

> <Gold.Chemscore.DEClash.Weighted>
1.1337

> <Gold.Chemscore.DEInternal.Weighted>
1.1401

> <Gold.Chemscore.Rot.Weighted>
6.2915

> <Gold.Chemscore.Internal.Correction.Weighted>
   9.000000E+99

> <Gold.Protein.RotatedTorsions>
[ 6907 6896 6895 6894 ] final   13.58 input  -60.11 | X-H torsion
[ 7974 7965 7964 7962 ] final  -68.45 input  175.53 | X-H torsion
[ 8008 7997 7996 7995 ] final -136.83 input   59.86 | X-H torsion
[ 10167 10162 10161 10158 ] final -161.73 input  -65.29 | X-H torsion
[ 10718 10713 10712 10709 ] final -101.42 input   66.30 | X-H torsion
[ 10763 10752 10751 10750 ] final -138.61 input  -60.55 | X-H torsion
[ 11005 11000 10999 10996 ] final  -25.76 input  -57.11 | X-H torsion

> <Gold.Protein.ActiveResidues>
 VAL166  LYS551  ARG553  GLY616  TRP617  ASP618  TYR619  PRO620  LYS621  CYS622 
 ASP623  PHE694  ASN695  SER759  ASP760  ASP761  ALA762  ILE779  LEU786  VAL792 
 PHE793  MET794  SER795  GLU796  ALA797  LYS798  CYS799  TRP800  GLU811  SER814 

> <Gold.Protein.RotatedAtoms>
  151.7886  135.0742  160.0383 H   0  0  0  0  0  0  0  0  0  0  0  0  # atno 6907 bound_to 6896
  152.3172  133.5811  159.5728 H   0  0  0  0  0  0  0  0  0  0  0  0  # atno 6908 bound_to 6896
  150.7350  133.9981  159.3671 H   0  0  0  0  0  0  0  0  0  0  0  0  # atno 6909 bound_to 6896
  145.7163  140.9057  143.0654 H   0  0  0  0  0  0  0  0  0  0  0  0  # atno 7974 bound_to 7965
  155.4017  140.0506  157.3036 H   0  0  0  0  0  0  0  0  0  0  0  0  # atno 8008 bound_to 7997
  154.4988  140.2148  155.9351 H   0  0  0  0  0  0  0  0  0  0  0  0  # atno 8009 bound_to 7997
  156.1440  140.3149  155.8545 H   0  0  0  0  0  0  0  0  0  0  0  0  # atno 8010 bound_to 7997
  139.6443  144.0200  152.2116 H   0  0  0  0  0  0  0  0  0  0  0  0  # atno 10167 bound_to 10162
  156.0194  130.5373  150.6961 H   0  0  0  0  0  0  0  0  0  0  0  0  # atno 10718 bound_to 10713
  154.8632  135.3607  154.5412 H   0  0  0  0  0  0  0  0  0  0  0  0  # atno 10763 bound_to 10752
  153.6034  135.7012  153.5380 H   0  0  0  0  0  0  0  0  0  0  0  0  # atno 10764 bound_to 10752
  153.3271  135.4135  155.1426 H   0  0  0  0  0  0  0  0  0  0  0  0  # atno 10765 bound_to 10752
  140.8967  133.7551  156.0491 H   0  0  0  0  0  0  0  0  0  0  0  0  # atno 11005 bound_to 11000
  144.6928  139.9142  143.7465 LP  0  0  0  0  0  0  0  0  0  0  0  0  # atno 17320 bound_to 7965
  146.0667  139.3657  143.0548 LP  0  0  0  0  0  0  0  0  0  0  0  0  # atno 17321 bound_to 7965
  139.9898  144.6369  150.7824 LP  0  0  0  0  0  0  0  0  0  0  0  0  # atno 17342 bound_to 10162
  140.7507  143.2960  151.3205 LP  0  0  0  0  0  0  0  0  0  0  0  0  # atno 17343 bound_to 10162
  157.4632  131.0885  151.0723 LP  0  0  0  0  0  0  0  0  0  0  0  0  # atno 17370 bound_to 10713
  157.1205  130.6060  149.5504 LP  0  0  0  0  0  0  0  0  0  0  0  0  # atno 17371 bound_to 10713
  140.8280  134.3211  157.5359 LP  0  0  0  0  0  0  0  0  0  0  0  0  # atno 17394 bound_to 11000
  139.8736  134.9347  156.3614 LP  0  0  0  0  0  0  0  0  0  0  0  0  # atno 17395 bound_to 11000

$$$$
