AV-unprocessed.smi:3237|AV-procd|sdf|12374|dock6
  -GOLD-   2272018233D 1   1.00000     0.00000
 Structure written by MMmdl.
 36 38  0  0  0  0  0  0  0  0  3 V2000
  147.7706  136.1624  163.1123 C   0  0  0  0  0  0  0  0  0  0  0  0
  147.9048  136.0346  161.6337 C   0  0  0  0  0  0  0  0  0  0  0  0
  148.0521  134.9602  160.8026 C   0  0  0  0  0  0  0  0  0  0  0  0
  148.1190  135.5562  159.5151 C   0  0  0  0  0  0  0  0  0  0  0  0
  148.2751  134.7542  158.3536 N   0  0  0  0  0  0  0  0  0  0  0  0
  148.2926  135.1336  157.0627 C   0  0  0  0  0  0  0  0  0  0  0  0
  148.1704  136.3265  156.7611 O   0  0  0  0  0  0  0  0  0  0  0  0
  148.4525  134.0774  156.2180 N   0  5  0  0  0  0  0  0  0  0  0  0
  148.5949  134.1784  154.7645 C   0  0  1  0  0  0  0  0  0  0  0  0
  148.7257  132.8016  154.1117 C   0  0  0  0  0  0  0  0  0  0  0  0
  148.1698  132.9990  152.6941 C   0  0  0  0  0  0  0  0  0  0  0  0
  147.4101  134.2715  152.7077 N   0  3  1  0  0  0  0  0  0  0  0  0
  146.1075  134.2116  152.0104 C   0  0  0  0  0  0  0  0  0  0  0  0
  145.3685  132.9128  152.2273 C   0  0  0  0  0  0  0  0  0  0  0  0
  146.0579  133.1819  150.9071 C   0  0  0  0  0  0  0  0  0  0  0  0
  147.3272  134.7243  154.1103 C   0  0  0  0  0  0  0  0  0  0  0  0
  148.0207  136.8768  159.5580 N   0  0  0  0  0  0  0  0  0  0  0  0
  147.8835  137.1898  160.9155 O   0  0  0  0  0  0  0  0  0  0  0  0
  147.7141  135.1815  163.5846 H   0  0  0  0  0  0  0  0  0  0  0  0
  146.8677  136.7149  163.3725 H   0  0  0  0  0  0  0  0  0  0  0  0
  148.6254  136.6917  163.5332 H   0  0  0  0  0  0  0  0  0  0  0  0
  148.1031  133.9162  161.0738 H   0  0  0  0  0  0  0  0  0  0  0  0
  148.3834  133.7648  158.5198 H   0  0  0  0  0  0  0  0  0  0  0  0
  149.4384  134.7941  154.4475 H   0  0  0  0  0  0  0  0  0  0  0  0
  149.7532  132.4363  154.1114 H   0  0  0  0  0  0  0  0  0  0  0  0
  148.1134  132.0668  154.6378 H   0  0  0  0  0  0  0  0  0  0  0  0
  148.9706  133.0747  151.9569 H   0  0  0  0  0  0  0  0  0  0  0  0
  147.5420  132.1534  152.4082 H   0  0  0  0  0  0  0  0  0  0  0  0
  145.5626  135.1496  151.9181 H   0  0  0  0  0  0  0  0  0  0  0  0
  145.8149  132.1696  152.8856 H   0  0  0  0  0  0  0  0  0  0  0  0
  144.2810  132.9505  152.2389 H   0  0  0  0  0  0  0  0  0  0  0  0
  145.4235  133.3943  150.0489 H   0  0  0  0  0  0  0  0  0  0  0  0
  146.9634  132.6188  150.6880 H   0  0  0  0  0  0  0  0  0  0  0  0
  146.4383  134.2964  154.5789 H   0  0  0  0  0  0  0  0  0  0  0  0
  147.2554  135.8104  154.1767 H   0  0  0  0  0  0  0  0  0  0  0  0
  147.9866  134.9482  152.2288 H   0  0  0  0  0  0  0  0  0  0  0  0
  1  2  1  0  0  0  0
  1 19  1  0  0  0  0
  1 20  1  0  0  0  0
  1 21  1  0  0  0  0
  2 18  1  0  0  0  0
  2  3  2  0  0  0  0
  3  4  1  0  0  0  0
  3 22  1  0  0  0  0
  4  5  1  0  0  0  0
  4 17  2  0  0  0  0
  5  6  1  0  0  0  0
  5 23  1  0  0  0  0
  6  7  2  0  0  0  0
  6  8  1  0  0  0  0
  8  9  1  0  0  0  0
  9 16  1  0  0  0  0
  9 10  1  0  0  0  0
  9 24  1  0  0  0  0
 10 11  1  0  0  0  0
 10 25  1  0  0  0  0
 10 26  1  0  0  0  0
 11 12  1  0  0  0  0
 11 27  1  0  0  0  0
 11 28  1  0  0  0  0
 12 13  1  0  0  0  0
 12 16  1  0  0  0  0
 12 36  1  0  0  0  0
 13 15  1  0  0  0  0
 13 14  1  0  0  0  0
 13 29  1  0  0  0  0
 14 15  1  0  0  0  0
 14 30  1  0  0  0  0
 14 31  1  0  0  0  0
 15 32  1  0  0  0  0
 15 33  1  0  0  0  0
 16 34  1  0  0  0  0
 16 35  1  0  0  0  0
 17 18  1  0  0  0  0
M  CHG  1   8  -1
M  CHG  1  12   1
M  END
> <s_m_source_file>
AV-unprocessed.smi

> <i_m_source_file_index>
3237

> <i_lp_mmshare_version>
43012

> <i_f3d_flags>
0

> <s_epik_input>
W0NIM11jMVtjSF1jKG5vMSlbTkhdQyg9TylbTkhdW0NAQEhdMltDSDJdW0NIMl1OKFtDSDJdMilbQ0hdM1tDSDJdW0NIMl0z

> <s_epik_cmdline>
J2VwaWtfcHl0aG9uJywgJy1waCcsICc3LjAnLCAnLXRuJywgJzgnLCAnLW1hJywgJzIwMCcsICctbWV0YWxfYmluZGluZycsICctaW1hZScsICc8aW5maWxlLm1hZT4nLCAnLW9tYWUnLCAnPG91dGZpbGUubWFlPic=

> <r_epik_Ionization_Penalty>
6.76456

> <r_epik_Ionization_Penalty_Charging>
6.76456

> <r_epik_Ionization_Penalty_Neutral>
5.76722e-06

> <r_epik_State_Penalty>
6.78919

> <r_epik_Charging_Adjusted_Penalty>
13.5538

> <i_epik_Tot_Q>
0

> <i_epik_Tot_abs_Q>
2

> <r_epik_Metal_State_Penalty>
2.728

> <b_epik_Metal_Only>
1

> <s_lp_Force_Field>
OPLS_2005

> <r_lp_Energy>
31.1689

> <b_lp_Chiralities_Consistent>
1

> <s_lp_Variant>
AV-unprocessed.smi:3237-12

> <Gold.Version>
5.8.1

> <Gold.Id.Protein>
6NUR|6NUR_protein|mol2

> <Gold.PLP.Fitness>
39.1295

> <Gold.PLP.PLP>
-27.7692

> <Gold.PLP.part.hbond>
-3.0000

> <Gold.PLP.part.metal>
0.0000

> <Gold.PLP.part.buried>
-2.7265

> <Gold.PLP.part.nonpolar>
-22.0962

> <Gold.PLP.part.repulsive>
0.0774

> <Gold.PLP.ligand.clash>
0.0000

> <Gold.PLP.ligand.torsion>
0.6509

> <Gold.PLP.Chemscore.Hbond>
3.7920

> <Gold.PLP.Chemscore.CHOScore>
0.0000

> <Gold.PLP.Chemscore.Metal>
0.0000

> <Gold.Chemscore.Hbonds>
donor molecule, donor type, donor heavy atom, donor atom, acceptor molecule, acceptor atom, score
      L1  H    12    36       P1  7948  2.00
      P1  H  6931  6943       L1    18  0.90
      P1  H  6934  6947       L1    18  0.80

> <Gold.PLP.Chemscore.Internal.Correction>
1.2861

> <Gold.Rescore>
     Score         DG    S(hbond)    S(metal)    S(lipo)     H(rot)  DE(clash)    DE(int)     intcor
     13.53     -15.52       1.95        0.00      57.51       1.25       0.01       1.97       ----

> <Gold.Chemscore.Fitness>
13.5350

> <Gold.Chemscore.DG>
-15.5211

> <Gold.Chemscore.ZeroCoef>
-5.4800

> <Gold.Chemscore.Hbond>
1.9470

> <Gold.Chemscore.Metal>
0.0000

> <Gold.Chemscore.Lipo>
57.5140

> <Gold.Chemscore.Internal_Hbond>
0.0000

> <Gold.Chemscore.DEClash>
0.0120

> <Gold.Chemscore.DEInternal>
1.9742

> <Gold.Chemscore.Rot>
1.2464

> <Gold.Chemscore.Internal.Correction>
   9.000000E+99

> <Gold.Chemscore.Hbonds>
donor molecule, donor type, donor heavy atom, donor atom, acceptor molecule, acceptor atom, score
      L1  H    12    36       P1  7948  0.69
      P1  H  6931  6943       L1    18  0.30
      P1  H  6934  6947       L1    18  0.39

> <Gold.Chemscore.Hbond.Weighted>
-6.5028

> <Gold.Chemscore.Metal.Weighted>
-0.0000

> <Gold.Chemscore.Lipo.Weighted>
-6.7291

> <Gold.Chemscore.Internal_Hbond.Weighted>
0.0000

> <Gold.Chemscore.DEClash.Weighted>
0.0120

> <Gold.Chemscore.DEInternal.Weighted>
1.9742

> <Gold.Chemscore.Rot.Weighted>
3.1909

> <Gold.Chemscore.Internal.Correction.Weighted>
   9.000000E+99

> <Gold.Protein.RotatedTorsions>
[ 6907 6896 6895 6894 ] final  164.96 input  -60.11 | X-H torsion
[ 7974 7965 7964 7962 ] final   30.05 input  175.53 | X-H torsion
[ 8008 7997 7996 7995 ] final  174.17 input   59.86 | X-H torsion
[ 10167 10162 10161 10158 ] final -167.18 input  -65.29 | X-H torsion
[ 10718 10713 10712 10709 ] final   81.38 input   66.30 | X-H torsion
[ 10763 10752 10751 10750 ] final   58.86 input  -60.55 | X-H torsion
[ 11005 11000 10999 10996 ] final  178.50 input  -57.11 | X-H torsion

> <Gold.Protein.ActiveResidues>
 VAL166  LYS551  ARG553  GLY616  TRP617  ASP618  TYR619  PRO620  LYS621  CYS622 
 ASP623  PHE694  ASN695  SER759  ASP760  ASP761  ALA762  ILE779  LEU786  VAL792 
 PHE793  MET794  SER795  GLU796  ALA797  LYS798  CYS799  TRP800  GLU811  SER814 

> <Gold.Protein.RotatedAtoms>
  151.9019  133.3540  159.3833 H   0  0  0  0  0  0  0  0  0  0  0  0  # atno 6907 bound_to 6896
  150.7078  134.4820  159.5484 H   0  0  0  0  0  0  0  0  0  0  0  0  # atno 6908 bound_to 6896
  152.2410  134.8229  160.0511 H   0  0  0  0  0  0  0  0  0  0  0  0  # atno 6909 bound_to 6896
  146.1635  139.6840  142.9017 H   0  0  0  0  0  0  0  0  0  0  0  0  # atno 7974 bound_to 7965
  156.1001  140.1441  156.9479 H   0  0  0  0  0  0  0  0  0  0  0  0  # atno 8008 bound_to 7997
  154.4697  140.0914  156.7157 H   0  0  0  0  0  0  0  0  0  0  0  0  # atno 8009 bound_to 7997
  155.4775  140.3444  155.4337 H   0  0  0  0  0  0  0  0  0  0  0  0  # atno 8010 bound_to 7997
  139.6066  144.0900  152.1799 H   0  0  0  0  0  0  0  0  0  0  0  0  # atno 10167 bound_to 10162
  157.6831  131.0001  150.2218 H   0  0  0  0  0  0  0  0  0  0  0  0  # atno 10718 bound_to 10713
  152.9880  135.5592  154.5620 H   0  0  0  0  0  0  0  0  0  0  0  0  # atno 10763 bound_to 10752
  154.5037  135.2798  155.1401 H   0  0  0  0  0  0  0  0  0  0  0  0  # atno 10764 bound_to 10752
  154.2821  135.6342  153.5404 H   0  0  0  0  0  0  0  0  0  0  0  0  # atno 10765 bound_to 10752
  140.3957  134.6822  157.4533 H   0  0  0  0  0  0  0  0  0  0  0  0  # atno 11005 bound_to 11000
  145.4527  141.0429  143.2795 LP  0  0  0  0  0  0  0  0  0  0  0  0  # atno 17320 bound_to 7965
  144.8060  139.6051  143.7051 LP  0  0  0  0  0  0  0  0  0  0  0  0  # atno 17321 bound_to 7965
  140.0508  144.5934  150.7337 LP  0  0  0  0  0  0  0  0  0  0  0  0  # atno 17342 bound_to 10162
  140.7289  143.2667  151.4021 LP  0  0  0  0  0  0  0  0  0  0  0  0  # atno 17343 bound_to 10162
  156.2868  130.3740  149.7881 LP  0  0  0  0  0  0  0  0  0  0  0  0  # atno 17370 bound_to 10713
  156.5552  130.8359  151.3312 LP  0  0  0  0  0  0  0  0  0  0  0  0  # atno 17371 bound_to 10713
  140.0373  134.6318  155.9027 LP  0  0  0  0  0  0  0  0  0  0  0  0  # atno 17394 bound_to 11000
  141.1875  133.6560  156.5283 LP  0  0  0  0  0  0  0  0  0  0  0  0  # atno 17395 bound_to 11000

$$$$
