AV-unprocessed.smi:338|AV-procd|sdf|2376|dock5
  -GOLD-   2262022293D 1   1.00000     0.00000
 Structure written by MMmdl.
 42 44  0  0  0  0  0  0  0  0  2 V2000
  151.0029  142.2130  157.1596 C   0  0  0  0  0  0  0  0  0  0  0  0
  152.0123  141.4515  158.0176 C   0  0  0  0  0  0  0  0  0  0  0  0
  152.4756  140.3963  157.5857 O   0  0  0  0  0  0  0  0  0  0  0  0
  152.3829  142.0341  159.3396 C   0  0  0  0  0  0  0  0  0  0  0  0
  151.8270  143.2525  159.7947 C   0  0  0  0  0  0  0  0  0  0  0  0
  152.1967  143.7782  161.0459 C   0  0  0  0  0  0  0  0  0  0  0  0
  153.1232  143.0948  161.8534 C   0  0  0  0  0  0  0  0  0  0  0  0
  153.6906  141.8791  161.4246 C   0  0  0  0  0  0  0  0  0  0  0  0
  154.5910  141.2771  162.2776 O   0  0  0  0  0  0  0  0  0  0  0  0
  155.1369  140.0181  161.9061 C   0  0  0  0  0  0  0  0  0  0  0  0
  154.8089  138.9905  162.9995 C   0  0  2  0  0  0  0  0  0  0  0  0
  155.6474  139.2362  164.1113 O   0  0  0  0  0  0  0  0  0  0  0  0
  154.9858  137.5378  162.5143 C   0  0  0  0  0  0  0  0  0  0  0  0
  154.4377  136.5512  163.4561 N   0  0  0  0  0  0  0  0  0  0  0  0
  153.8473  136.7443  164.6667 C   0  0  0  0  0  0  0  0  0  0  0  0
  153.5008  135.5216  165.1561 N   0  3  0  0  0  0  0  0  0  0  0  0
  153.8770  134.5315  164.2461 C   0  0  0  0  0  0  0  0  0  0  0  0
  153.7377  133.1478  164.2973 C   0  0  0  0  0  0  0  0  0  0  0  0
  154.2360  132.4203  163.1967 C   0  0  0  0  0  0  0  0  0  0  0  0
  154.8449  133.0689  162.1029 C   0  0  0  0  0  0  0  0  0  0  0  0
  154.9796  134.4723  162.0610 C   0  0  0  0  0  0  0  0  0  0  0  0
  154.4822  135.1853  163.1518 C   0  0  0  0  0  0  0  0  0  0  0  0
  153.3122  141.3548  160.1625 C   0  0  0  0  0  0  0  0  0  0  0  0
  151.3698  143.2147  156.9348 H   0  0  0  0  0  0  0  0  0  0  0  0
  150.0470  142.2954  157.6771 H   0  0  0  0  0  0  0  0  0  0  0  0
  150.8349  141.6926  156.2164 H   0  0  0  0  0  0  0  0  0  0  0  0
  151.1132  143.8030  159.2003 H   0  0  0  0  0  0  0  0  0  0  0  0
  151.7679  144.7087  161.3876 H   0  0  0  0  0  0  0  0  0  0  0  0
  153.4010  143.5078  162.8122 H   0  0  0  0  0  0  0  0  0  0  0  0
  154.7310  139.6885  160.9479 H   0  0  0  0  0  0  0  0  0  0  0  0
  156.2197  140.1089  161.8036 H   0  0  0  0  0  0  0  0  0  0  0  0
  153.7794  139.1395  163.3279 H   0  0  0  0  0  0  0  0  0  0  0  0
  155.9381  140.1348  164.0752 H   0  0  0  0  0  0  0  0  0  0  0  0
  154.4626  137.3959  161.5679 H   0  0  0  0  0  0  0  0  0  0  0  0
  156.0335  137.3093  162.3181 H   0  0  0  0  0  0  0  0  0  0  0  0
  153.6823  137.6961  165.1506 H   0  0  0  0  0  0  0  0  0  0  0  0
  153.2732  132.6486  165.1350 H   0  0  0  0  0  0  0  0  0  0  0  0
  154.1513  131.3432  163.1925 H   0  0  0  0  0  0  0  0  0  0  0  0
  155.2183  132.4782  161.2789 H   0  0  0  0  0  0  0  0  0  0  0  0
  155.4535  134.9571  161.2203 H   0  0  0  0  0  0  0  0  0  0  0  0
  153.7329  140.4252  159.8100 H   0  0  0  0  0  0  0  0  0  0  0  0
  153.0421  135.3766  166.0464 H   0  0  0  0  0  0  0  0  0  0  0  0
  1  2  1  0  0  0  0
  1 24  1  0  0  0  0
  1 25  1  0  0  0  0
  1 26  1  0  0  0  0
  2  3  2  0  0  0  0
  2  4  1  0  0  0  0
  4 23  1  0  0  0  0
  4  5  2  0  0  0  0
  5  6  1  0  0  0  0
  5 27  1  0  0  0  0
  6  7  2  0  0  0  0
  6 28  1  0  0  0  0
  7  8  1  0  0  0  0
  7 29  1  0  0  0  0
  8  9  1  0  0  0  0
  8 23  2  0  0  0  0
  9 10  1  0  0  0  0
 10 11  1  0  0  0  0
 10 30  1  0  0  0  0
 10 31  1  0  0  0  0
 11 12  1  0  0  0  0
 11 13  1  0  0  0  0
 11 32  1  0  0  0  0
 12 33  1  0  0  0  0
 13 14  1  0  0  0  0
 13 34  1  0  0  0  0
 13 35  1  0  0  0  0
 14 22  1  0  0  0  0
 14 15  1  0  0  0  0
 15 16  2  0  0  0  0
 15 36  1  0  0  0  0
 16 17  1  0  0  0  0
 16 42  1  0  0  0  0
 17 22  2  0  0  0  0
 17 18  1  0  0  0  0
 18 19  2  0  0  0  0
 18 37  1  0  0  0  0
 19 20  1  0  0  0  0
 19 38  1  0  0  0  0
 20 21  2  0  0  0  0
 20 39  1  0  0  0  0
 21 22  1  0  0  0  0
 21 40  1  0  0  0  0
 23 41  1  0  0  0  0
M  CHG  1  16   1
M  END
> <s_m_source_file>
AV-unprocessed.smi

> <i_m_source_file_index>
338

> <i_lp_mmshare_version>
43012

> <i_f3d_flags>
0

> <s_epik_input>
W0NIM11DKD1PKWMxW2NIXVtjSF1bY0hdYyhbY0hdMSlPW0NIMl1bQ0BIXShbT0hdKVtDSDJdbihbY0hdbjIpYyhjMjMpW2NIXVtjSF1bY0hdW2NIXTM=

> <s_epik_cmdline>
J2VwaWtfcHl0aG9uJywgJy1waCcsICc3LjAnLCAnLXRuJywgJzgnLCAnLW1hJywgJzIwMCcsICctbWV0YWxfYmluZGluZycsICctaW1hZScsICc8aW5maWxlLm1hZT4nLCAnLW9tYWUnLCAnPG91dGZpbGUubWFlPic=

> <r_lp_tautomer_probability>
0.99995

> <r_epik_Ionization_Penalty>
1.35015

> <r_epik_Ionization_Penalty_Charging>
1.35015

> <r_epik_Ionization_Penalty_Neutral>
2.3993e-06

> <r_epik_State_Penalty>
1.42814

> <r_epik_Charging_Adjusted_Penalty>
2.77829

> <i_epik_Tot_Q>
1

> <i_epik_Tot_abs_Q>
1

> <r_epik_Metal_State_Penalty>
5.46522

> <b_epik_Metal_Only>
0

> <s_lp_Force_Field>
OPLS_2005

> <r_lp_Energy>
26.3487

> <b_lp_Chiralities_Consistent>
1

> <s_lp_Variant>
AV-unprocessed.smi:338-3

> <Gold.Version>
5.8.1

> <Gold.Id.Protein>
6NUR|6NUR_protein|mol2

> <Gold.PLP.Fitness>
50.2916

> <Gold.PLP.PLP>
-48.5431

> <Gold.PLP.part.hbond>
-3.0000

> <Gold.PLP.part.metal>
0.0000

> <Gold.PLP.part.buried>
-3.9899

> <Gold.PLP.part.nonpolar>
-41.3064

> <Gold.PLP.part.repulsive>
0.1506

> <Gold.PLP.ligand.clash>
0.0000

> <Gold.PLP.ligand.torsion>
0.5622

> <Gold.PLP.Chemscore.Hbond>
0.9199

> <Gold.PLP.Chemscore.CHOScore>
0.0000

> <Gold.PLP.Chemscore.Metal>
0.0000

> <Gold.Chemscore.Hbonds>
donor molecule, donor type, donor heavy atom, donor atom, acceptor molecule, acceptor atom, score
      P1  H  7997  8008       L1     3  0.69

> <Gold.PLP.Chemscore.Internal.Correction>
0.1133

> <Gold.Rescore>
     Score         DG    S(hbond)    S(metal)    S(lipo)     H(rot)  DE(clash)    DE(int)     intcor
     14.31     -15.90       0.88        0.00     118.30       2.48       1.00       0.58       ----

> <Gold.Chemscore.Fitness>
14.3109

> <Gold.Chemscore.DG>
-15.8964

> <Gold.Chemscore.ZeroCoef>
-5.4800

> <Gold.Chemscore.Hbond>
0.8787

> <Gold.Chemscore.Metal>
0.0000

> <Gold.Chemscore.Lipo>
118.2999

> <Gold.Chemscore.Internal_Hbond>
0.0000

> <Gold.Chemscore.DEClash>
1.0021

> <Gold.Chemscore.DEInternal>
0.5833

> <Gold.Chemscore.Rot>
2.4842

> <Gold.Chemscore.Internal.Correction>
   9.000000E+99

> <Gold.Chemscore.Hbonds>
donor molecule, donor type, donor heavy atom, donor atom, acceptor molecule, acceptor atom, score
      P1  H  7997  8008       L1     3  0.67

> <Gold.Chemscore.Hbond.Weighted>
-2.9347

> <Gold.Chemscore.Metal.Weighted>
-0.0000

> <Gold.Chemscore.Lipo.Weighted>
-13.8411

> <Gold.Chemscore.Internal_Hbond.Weighted>
0.0000

> <Gold.Chemscore.DEClash.Weighted>
1.0021

> <Gold.Chemscore.DEInternal.Weighted>
0.5833

> <Gold.Chemscore.Rot.Weighted>
6.3594

> <Gold.Chemscore.Internal.Correction.Weighted>
   9.000000E+99

> <Gold.Protein.RotatedTorsions>
[ 6907 6896 6895 6894 ] final  131.85 input  -60.11 | X-H torsion
[ 7974 7965 7964 7962 ] final   -3.10 input  175.53 | X-H torsion
[ 8008 7997 7996 7995 ] final  -68.17 input   59.86 | X-H torsion
[ 10167 10162 10161 10158 ] final  -95.71 input  -65.29 | X-H torsion
[ 10718 10713 10712 10709 ] final  -67.20 input   66.30 | X-H torsion
[ 10763 10752 10751 10750 ] final   39.31 input  -60.55 | X-H torsion
[ 11005 11000 10999 10996 ] final   77.00 input  -57.11 | X-H torsion

> <Gold.Protein.ActiveResidues>
 VAL166  LYS551  ARG553  GLY616  TRP617  ASP618  TYR619  PRO620  LYS621  CYS622 
 ASP623  PHE694  ASN695  SER759  ASP760  ASP761  ALA762  ILE779  LEU786  VAL792 
 PHE793  MET794  SER795  GLU796  ALA797  LYS798  CYS799  TRP800  GLU811  SER814 

> <Gold.Protein.RotatedAtoms>
  152.3384  133.6038  159.5858 H   0  0  0  0  0  0  0  0  0  0  0  0  # atno 6907 bound_to 6896
  150.7464  133.9760  159.3570 H   0  0  0  0  0  0  0  0  0  0  0  0  # atno 6908 bound_to 6896
  151.7627  135.0807  160.0399 H   0  0  0  0  0  0  0  0  0  0  0  0  # atno 6909 bound_to 6896
  146.2395  140.1670  142.8332 H   0  0  0  0  0  0  0  0  0  0  0  0  # atno 7974 bound_to 7965
  154.4850  140.0878  156.7465 H   0  0  0  0  0  0  0  0  0  0  0  0  # atno 8008 bound_to 7997
  155.4374  140.3452  155.4268 H   0  0  0  0  0  0  0  0  0  0  0  0  # atno 8009 bound_to 7997
  156.1247  140.1484  156.9141 H   0  0  0  0  0  0  0  0  0  0  0  0  # atno 8010 bound_to 7997
  140.3014  143.3160  152.0244 H   0  0  0  0  0  0  0  0  0  0  0  0  # atno 10167 bound_to 10162
  156.0570  130.4274  150.1819 H   0  0  0  0  0  0  0  0  0  0  0  0  # atno 10718 bound_to 10713
  152.9971  135.6224  154.2445 H   0  0  0  0  0  0  0  0  0  0  0  0  # atno 10763 bound_to 10752
  154.2185  135.2797  155.2935 H   0  0  0  0  0  0  0  0  0  0  0  0  # atno 10764 bound_to 10752
  154.5548  135.5722  153.7013 H   0  0  0  0  0  0  0  0  0  0  0  0  # atno 10765 bound_to 10752
  139.9273  134.7647  156.1466 H   0  0  0  0  0  0  0  0  0  0  0  0  # atno 11005 bound_to 11000
  145.0042  140.8659  143.5263 LP  0  0  0  0  0  0  0  0  0  0  0  0  # atno 17320 bound_to 7965
  145.1694  139.2413  143.5350 LP  0  0  0  0  0  0  0  0  0  0  0  0  # atno 17321 bound_to 7965
  139.4914  144.6453  151.6791 LP  0  0  0  0  0  0  0  0  0  0  0  0  # atno 17342 bound_to 10162
  140.5648  144.0208  150.6187 LP  0  0  0  0  0  0  0  0  0  0  0  0  # atno 17343 bound_to 10162
  156.9894  130.9888  151.3418 LP  0  0  0  0  0  0  0  0  0  0  0  0  # atno 17370 bound_to 10713
  157.5549  130.8207  149.8191 LP  0  0  0  0  0  0  0  0  0  0  0  0  # atno 17371 bound_to 10713
  141.0840  133.6742  156.2396 LP  0  0  0  0  0  0  0  0  0  0  0  0  # atno 17394 bound_to 11000
  140.6299  134.5275  157.5558 LP  0  0  0  0  0  0  0  0  0  0  0  0  # atno 17395 bound_to 11000

$$$$
