AV-unprocessed.smi:1947|AV-procd|sdf|7866|dock3
  -GOLD-   2272010 13D 1   1.00000     0.00000
 Structure written by MMmdl.
 39 40  0  0  0  0  0  0  0  0  1 V2000
  148.5155  140.8451  154.4834 C   0  0  0  0  0  0  0  0  0  0  0  0
  149.9086  140.8485  155.1329 C   0  0  1  0  0  0  0  0  0  0  0  0
  149.8409  141.1986  156.6327 C   0  0  0  0  0  0  0  0  0  0  0  0
  151.2409  141.2322  157.2660 C   0  0  0  0  0  0  0  0  0  0  0  0
  151.9817  139.9035  157.0520 C   0  0  0  0  0  0  0  0  0  0  0  0
  152.0535  139.5372  155.5600 C   0  0  0  0  0  0  0  0  0  0  0  0
  150.6596  139.5175  154.9055 C   0  0  1  0  0  0  0  0  0  0  0  0
  149.9074  138.4569  155.4821 O   0  0  0  0  0  0  0  0  0  0  0  0
  150.4162  137.1622  155.2041 C   0  0  0  0  0  0  0  0  0  0  0  0
  149.6277  136.1338  156.0284 C   0  0  0  0  0  0  0  0  0  0  0  0
  149.1831  136.6933  157.3007 N   0  0  0  0  0  0  0  0  0  0  0  0
  148.9237  135.9845  158.4082 C   0  0  0  0  0  0  0  0  0  0  0  0
  149.0861  134.7670  158.4877 O   0  0  0  0  0  0  0  0  0  0  0  0
  148.4625  136.7735  159.3917 N   0  0  0  0  0  0  0  0  0  0  0  0
  148.0298  136.3904  160.6855 C   0  0  0  0  0  0  0  0  0  0  0  0
  147.7992  137.3563  161.5827 N   0  0  0  0  0  0  0  0  0  0  0  0
  147.3794  136.8430  162.8039 N   0  0  0  0  0  0  0  0  0  0  0  0
  147.3078  135.5088  162.7791 C   0  0  0  0  0  0  0  0  0  0  0  0
  147.7457  134.7450  161.2612 S   0  0  0  0  0  0  0  0  0  0  0  0
  147.8567  140.1157  154.9546 H   0  0  0  0  0  0  0  0  0  0  0  0
  148.5768  140.6007  153.4227 H   0  0  0  0  0  0  0  0  0  0  0  0
  148.0402  141.8224  154.5699 H   0  0  0  0  0  0  0  0  0  0  0  0
  150.4852  141.6330  154.6405 H   0  0  0  0  0  0  0  0  0  0  0  0
  149.3564  142.1660  156.7683 H   0  0  0  0  0  0  0  0  0  0  0  0
  149.2214  140.4693  157.1566 H   0  0  0  0  0  0  0  0  0  0  0  0
  151.8200  142.0475  156.8302 H   0  0  0  0  0  0  0  0  0  0  0  0
  151.1612  141.4454  158.3324 H   0  0  0  0  0  0  0  0  0  0  0  0
  152.9878  139.9681  157.4671 H   0  0  0  0  0  0  0  0  0  0  0  0
  151.4730  139.1099  157.6006 H   0  0  0  0  0  0  0  0  0  0  0  0
  152.6836  140.2619  155.0427 H   0  0  0  0  0  0  0  0  0  0  0  0
  152.5376  138.5678  155.4371 H   0  0  0  0  0  0  0  0  0  0  0  0
  150.7864  139.3700  153.8309 H   0  0  0  0  0  0  0  0  0  0  0  0
  150.3280  136.9397  154.1394 H   0  0  0  0  0  0  0  0  0  0  0  0
  151.4756  137.1196  155.4602 H   0  0  0  0  0  0  0  0  0  0  0  0
  148.7698  135.7703  155.4611 H   0  0  0  0  0  0  0  0  0  0  0  0
  150.2555  135.2668  156.2360 H   0  0  0  0  0  0  0  0  0  0  0  0
  149.0201  137.6893  157.3236 H   0  0  0  0  0  0  0  0  0  0  0  0
  148.3926  137.7591  159.1850 H   0  0  0  0  0  0  0  0  0  0  0  0
  146.9942  134.9706  163.6612 H   0  0  0  0  0  0  0  0  0  0  0  0
  1  2  1  0  0  0  0
  1 20  1  0  0  0  0
  1 21  1  0  0  0  0
  1 22  1  0  0  0  0
  2  7  1  0  0  0  0
  2  3  1  0  0  0  0
  2 23  1  0  0  0  0
  3  4  1  0  0  0  0
  3 24  1  0  0  0  0
  3 25  1  0  0  0  0
  4  5  1  0  0  0  0
  4 26  1  0  0  0  0
  4 27  1  0  0  0  0
  5  6  1  0  0  0  0
  5 28  1  0  0  0  0
  5 29  1  0  0  0  0
  6  7  1  0  0  0  0
  6 30  1  0  0  0  0
  6 31  1  0  0  0  0
  7  8  1  0  0  0  0
  7 32  1  0  0  0  0
  8  9  1  0  0  0  0
  9 10  1  0  0  0  0
  9 33  1  0  0  0  0
  9 34  1  0  0  0  0
 10 11  1  0  0  0  0
 10 35  1  0  0  0  0
 10 36  1  0  0  0  0
 11 12  1  0  0  0  0
 11 37  1  0  0  0  0
 12 13  2  0  0  0  0
 12 14  1  0  0  0  0
 14 15  1  0  0  0  0
 14 38  1  0  0  0  0
 15 19  1  0  0  0  0
 15 16  2  0  0  0  0
 16 17  1  0  0  0  0
 17 18  2  0  0  0  0
 18 19  1  0  0  0  0
 18 39  1  0  0  0  0
M  END
> <s_m_source_file>
AV-unprocessed.smi

> <i_m_source_file_index>
1947

> <i_lp_mmshare_version>
43012

> <i_f3d_flags>
0

> <s_epik_input>
W0NIM11bQ0BASF0xW0NIMl1bQ0gyXVtDSDJdW0NIMl1bQ0BIXTFPW0NIMl1bQ0gyXVtOSF1DKD1PKVtOSF1jMm5uW2NIXXMy

> <s_epik_cmdline>
J2VwaWtfcHl0aG9uJywgJy1waCcsICc3LjAnLCAnLXRuJywgJzgnLCAnLW1hJywgJzIwMCcsICctbWV0YWxfYmluZGluZycsICctaW1hZScsICc8aW5maWxlLm1hZT4nLCAnLW9tYWUnLCAnPG91dGZpbGUubWFlPic=

> <r_lp_tautomer_probability>
1

> <r_epik_Ionization_Penalty>
0.00220897

> <r_epik_Ionization_Penalty_Charging>
0

> <r_epik_Ionization_Penalty_Neutral>
0.00220897

> <r_epik_State_Penalty>
-0

> <r_epik_Charging_Adjusted_Penalty>
0

> <i_epik_Tot_Q>
0

> <i_epik_Tot_abs_Q>
0

> <r_epik_Metal_State_Penalty>
0.345002

> <b_epik_Metal_Only>
0

> <s_lp_Force_Field>
OPLS_2005

> <r_lp_Energy>
8.88806

> <b_lp_Chiralities_Consistent>
1

> <s_lp_Variant>
AV-unprocessed.smi:1947-2

> <Gold.Version>
5.8.1

> <Gold.Id.Protein>
6NUR|6NUR_protein|mol2

> <Gold.PLP.Fitness>
40.0854

> <Gold.PLP.PLP>
-32.5131

> <Gold.PLP.part.hbond>
-3.0000

> <Gold.PLP.part.metal>
0.0000

> <Gold.PLP.part.buried>
-3.4584

> <Gold.PLP.part.nonpolar>
-26.1539

> <Gold.PLP.part.repulsive>
0.2809

> <Gold.PLP.ligand.clash>
0.0000

> <Gold.PLP.ligand.torsion>
0.4030

> <Gold.PLP.Chemscore.Hbond>
2.7840

> <Gold.PLP.Chemscore.CHOScore>
0.0000

> <Gold.PLP.Chemscore.Metal>
0.0000

> <Gold.Chemscore.Hbonds>
donor molecule, donor type, donor heavy atom, donor atom, acceptor molecule, acceptor atom, score
      P1  H  6896  6909       L1    13  0.98
      P1  H  6931  6943       L1    16  0.96
      P1  H  6934  6947       L1    16  0.67

> <Gold.PLP.Chemscore.Internal.Correction>
0.0263

> <Gold.Rescore>
     Score         DG    S(hbond)    S(metal)    S(lipo)     H(rot)  DE(clash)    DE(int)     intcor
     14.91     -16.00       2.18        0.00      70.06       1.94       0.01       1.08       ----

> <Gold.Chemscore.Fitness>
14.9103

> <Gold.Chemscore.DG>
-16.0025

> <Gold.Chemscore.ZeroCoef>
-5.4800

> <Gold.Chemscore.Hbond>
2.1820

> <Gold.Chemscore.Metal>
0.0000

> <Gold.Chemscore.Lipo>
70.0623

> <Gold.Chemscore.Internal_Hbond>
0.0000

> <Gold.Chemscore.DEClash>
0.0137

> <Gold.Chemscore.DEInternal>
1.0785

> <Gold.Chemscore.Rot>
1.9385

> <Gold.Chemscore.Internal.Correction>
   9.000000E+99

> <Gold.Chemscore.Hbonds>
donor molecule, donor type, donor heavy atom, donor atom, acceptor molecule, acceptor atom, score
      P1  H  6896  6909       L1    13  0.90
      P1  H  6931  6943       L1    16  0.40
      P1  H  6934  6947       L1    16  0.62

> <Gold.Chemscore.Hbond.Weighted>
-7.2878

> <Gold.Chemscore.Metal.Weighted>
-0.0000

> <Gold.Chemscore.Lipo.Weighted>
-8.1973

> <Gold.Chemscore.Internal_Hbond.Weighted>
0.0000

> <Gold.Chemscore.DEClash.Weighted>
0.0137

> <Gold.Chemscore.DEInternal.Weighted>
1.0785

> <Gold.Chemscore.Rot.Weighted>
4.9625

> <Gold.Chemscore.Internal.Correction.Weighted>
   9.000000E+99

> <Gold.Protein.RotatedTorsions>
[ 6907 6896 6895 6894 ] final   11.86 input  -60.11 | X-H torsion
[ 7974 7965 7964 7962 ] final   68.28 input  175.53 | X-H torsion
[ 8008 7997 7996 7995 ] final  -88.63 input   59.86 | X-H torsion
[ 10167 10162 10161 10158 ] final   25.00 input  -65.29 | X-H torsion
[ 10718 10713 10712 10709 ] final -112.69 input   66.30 | X-H torsion
[ 10763 10752 10751 10750 ] final  -52.42 input  -60.55 | X-H torsion
[ 11005 11000 10999 10996 ] final  -40.41 input  -57.11 | X-H torsion

> <Gold.Protein.ActiveResidues>
 VAL166  LYS551  ARG553  GLY616  TRP617  ASP618  TYR619  PRO620  LYS621  CYS622 
 ASP623  PHE694  ASN695  SER759  ASP760  ASP761  ALA762  ILE779  LEU786  VAL792 
 PHE793  MET794  SER795  GLU796  ALA797  LYS798  CYS799  TRP800  GLU811  SER814 

> <Gold.Protein.RotatedAtoms>
  151.7610  135.0810  160.0345 H   0  0  0  0  0  0  0  0  0  0  0  0  # atno 6907 bound_to 6896
  152.3353  133.6000  159.5846 H   0  0  0  0  0  0  0  0  0  0  0  0  # atno 6908 bound_to 6896
  150.7446  133.9722  159.3591 H   0  0  0  0  0  0  0  0  0  0  0  0  # atno 6909 bound_to 6896
  145.8044  139.2999  143.1136 H   0  0  0  0  0  0  0  0  0  0  0  0  # atno 7974 bound_to 7965
  154.6770  140.0551  157.0226 H   0  0  0  0  0  0  0  0  0  0  0  0  # atno 8008 bound_to 7997
  155.1006  140.3228  155.4529 H   0  0  0  0  0  0  0  0  0  0  0  0  # atno 8009 bound_to 7997
  156.2680  140.2032  156.6132 H   0  0  0  0  0  0  0  0  0  0  0  0  # atno 8010 bound_to 7997
  140.5142  144.0110  150.6386 H   0  0  0  0  0  0  0  0  0  0  0  0  # atno 10167 bound_to 10162
  156.0721  130.5933  150.8542 H   0  0  0  0  0  0  0  0  0  0  0  0  # atno 10718 bound_to 10713
  154.1424  135.6503  153.4945 H   0  0  0  0  0  0  0  0  0  0  0  0  # atno 10763 bound_to 10752
  153.0162  135.5318  154.6891 H   0  0  0  0  0  0  0  0  0  0  0  0  # atno 10764 bound_to 10752
  154.6156  135.2959  155.0354 H   0  0  0  0  0  0  0  0  0  0  0  0  # atno 10765 bound_to 10752
  141.0172  133.6879  156.2317 H   0  0  0  0  0  0  0  0  0  0  0  0  # atno 11005 bound_to 11000
  145.9843  140.8656  143.0098 LP  0  0  0  0  0  0  0  0  0  0  0  0  # atno 17320 bound_to 7965
  144.6765  140.2125  143.7375 LP  0  0  0  0  0  0  0  0  0  0  0  0  # atno 17321 bound_to 7965
  140.3441  143.3002  152.0557 LP  0  0  0  0  0  0  0  0  0  0  0  0  # atno 17342 bound_to 10162
  139.4904  144.6421  151.6855 LP  0  0  0  0  0  0  0  0  0  0  0  0  # atno 17343 bound_to 10162
  157.5797  131.0946  150.9290 LP  0  0  0  0  0  0  0  0  0  0  0  0  # atno 17370 bound_to 10713
  156.9488  130.5412  149.5282 LP  0  0  0  0  0  0  0  0  0  0  0  0  # atno 17371 bound_to 10713
  140.6634  134.4944  157.5584 LP  0  0  0  0  0  0  0  0  0  0  0  0  # atno 17394 bound_to 11000
  139.9124  134.8316  156.1482 LP  0  0  0  0  0  0  0  0  0  0  0  0  # atno 17395 bound_to 11000

$$$$
