AV-unprocessed.smi:1252|AV-procd|sdf|5265|dock3
  -GOLD-   22720 4383D 1   1.00000     0.00000
 Structure written by MMmdl.
 43 44  0  0  0  0  0  0  0  0  1 V2000
  148.6359  140.7762  154.3769 C   0  0  0  0  0  0  0  0  0  0  0  0
  149.4885  140.9921  155.6444 C   0  0  1  0  0  0  0  0  0  0  0  0
  148.7215  140.6979  156.9454 C   0  0  0  0  0  0  0  0  0  0  0  0
  148.5595  141.5702  157.7993 O   0  0  0  0  0  0  0  0  0  0  0  0
  148.2518  139.4494  157.0810 N   0  0  0  0  0  0  0  0  0  0  0  0
  147.4499  138.9650  158.1987 C   0  0  0  0  0  0  0  0  0  0  0  0
  148.1686  137.8179  158.9651 C   0  0  0  0  0  0  0  0  0  0  0  0
  148.1674  136.5760  158.0416 C   0  0  0  0  0  0  0  0  0  0  0  0
  149.6433  138.2675  159.1327 C   0  0  0  0  0  0  0  0  0  0  0  0
  147.5338  137.5620  160.2890 N   0  0  0  0  0  0  0  0  0  0  0  0
  146.1265  137.1497  160.2283 C   0  0  0  0  0  0  0  0  0  0  0  0
  145.4996  137.0269  161.6272 C   0  0  0  0  0  0  0  0  0  0  0  0
  146.2530  136.1087  162.4096 O   0  0  0  0  0  0  0  0  0  0  0  0
  147.6138  136.5003  162.5441 C   0  0  0  0  0  0  0  0  0  0  0  0
  148.2596  136.6244  161.1535 C   0  0  0  0  0  0  0  0  0  0  0  0
  150.7307  140.2279  155.6049 N   0  0  0  0  0  0  0  0  0  0  0  0
  151.6898  140.1030  156.5252 C   0  0  0  0  0  0  0  0  0  0  0  0
  152.6629  139.2716  156.1805 N   0  0  0  0  0  0  0  0  0  0  0  0
  152.2062  138.8834  154.9530 C   0  0  0  0  0  0  0  0  0  0  0  0
  151.0487  139.4176  154.5645 N   0  0  0  0  0  0  0  0  0  0  0  0
  147.7584  141.4236  154.3777 H   0  0  0  0  0  0  0  0  0  0  0  0
  148.2871  139.7463  154.2895 H   0  0  0  0  0  0  0  0  0  0  0  0
  149.2093  141.0074  153.4788 H   0  0  0  0  0  0  0  0  0  0  0  0
  149.7646  142.0474  155.6734 H   0  0  0  0  0  0  0  0  0  0  0  0
  148.4361  138.7877  156.3409 H   0  0  0  0  0  0  0  0  0  0  0  0
  147.2143  139.8025  158.8560 H   0  0  0  0  0  0  0  0  0  0  0  0
  146.4866  138.6145  157.8229 H   0  0  0  0  0  0  0  0  0  0  0  0
  148.6509  136.7971  157.0893 H   0  0  0  0  0  0  0  0  0  0  0  0
  147.1580  136.2379  157.8084 H   0  0  0  0  0  0  0  0  0  0  0  0
  148.7063  135.7360  158.4790 H   0  0  0  0  0  0  0  0  0  0  0  0
  150.0638  138.6216  158.1906 H   0  0  0  0  0  0  0  0  0  0  0  0
  150.2883  137.4537  159.4638 H   0  0  0  0  0  0  0  0  0  0  0  0
  149.7394  139.0792  159.8552 H   0  0  0  0  0  0  0  0  0  0  0  0
  145.5341  137.8658  159.6622 H   0  0  0  0  0  0  0  0  0  0  0  0
  146.0360  136.1902  159.7188 H   0  0  0  0  0  0  0  0  0  0  0  0
  145.4668  137.9990  162.1221 H   0  0  0  0  0  0  0  0  0  0  0  0
  144.4722  136.6710  161.5518 H   0  0  0  0  0  0  0  0  0  0  0  0
  147.6759  137.4464  163.0841 H   0  0  0  0  0  0  0  0  0  0  0  0
  148.1410  135.7561  163.1412 H   0  0  0  0  0  0  0  0  0  0  0  0
  148.2953  135.6368  160.6935 H   0  0  0  0  0  0  0  0  0  0  0  0
  149.2899  136.9450  161.2972 H   0  0  0  0  0  0  0  0  0  0  0  0
  151.6707  140.6242  157.4712 H   0  0  0  0  0  0  0  0  0  0  0  0
  152.7393  138.1804  154.3299 H   0  0  0  0  0  0  0  0  0  0  0  0
  1  2  1  0  0  0  0
  1 21  1  0  0  0  0
  1 22  1  0  0  0  0
  1 23  1  0  0  0  0
  2  3  1  0  0  0  0
  2 16  1  0  0  0  0
  2 24  1  0  0  0  0
  3  4  2  0  0  0  0
  3  5  1  0  0  0  0
  5  6  1  0  0  0  0
  5 25  1  0  0  0  0
  6  7  1  0  0  0  0
  6 26  1  0  0  0  0
  6 27  1  0  0  0  0
  7  8  1  0  0  0  0
  7  9  1  0  0  0  0
  7 10  1  0  0  0  0
  8 28  1  0  0  0  0
  8 29  1  0  0  0  0
  8 30  1  0  0  0  0
  9 31  1  0  0  0  0
  9 32  1  0  0  0  0
  9 33  1  0  0  0  0
 10 15  1  0  0  0  0
 10 11  1  0  0  0  0
 11 12  1  0  0  0  0
 11 34  1  0  0  0  0
 11 35  1  0  0  0  0
 12 13  1  0  0  0  0
 12 36  1  0  0  0  0
 12 37  1  0  0  0  0
 13 14  1  0  0  0  0
 14 15  1  0  0  0  0
 14 38  1  0  0  0  0
 14 39  1  0  0  0  0
 15 40  1  0  0  0  0
 15 41  1  0  0  0  0
 16 20  1  0  0  0  0
 16 17  1  0  0  0  0
 17 18  2  0  0  0  0
 17 42  1  0  0  0  0
 18 19  1  0  0  0  0
 19 20  2  0  0  0  0
 19 43  1  0  0  0  0
M  END
> <s_m_source_file>
AV-unprocessed.smi

> <i_m_source_file_index>
1252

> <i_lp_mmshare_version>
43012

> <i_f3d_flags>
0

> <s_epik_input>
bjFbY0hdbltjSF1uMVtDQEhdKFtDSDNdKUMoPU8pW05IXVtDSDJdQyhbQ0gzXSkoW0NIM10pTjJbQ0gyXVtDSDJdT1tDSDJdW0NIMl0y

> <s_epik_cmdline>
J2VwaWtfcHl0aG9uJywgJy1waCcsICc3LjAnLCAnLXRuJywgJzgnLCAnLW1hJywgJzIwMCcsICctbWV0YWxfYmluZGluZycsICctaW1hZScsICc8aW5maWxlLm1hZT4nLCAnLW9tYWUnLCAnPG91dGZpbGUubWFlPic=

> <r_lp_tautomer_probability>
1

> <r_epik_Ionization_Penalty>
0.211373

> <r_epik_Ionization_Penalty_Charging>
0

> <r_epik_Ionization_Penalty_Neutral>
0.211373

> <r_epik_State_Penalty>
0.201459

> <r_epik_Charging_Adjusted_Penalty>
0.201459

> <i_epik_Tot_Q>
0

> <i_epik_Tot_abs_Q>
0

> <r_epik_Metal_State_Penalty>
0.201458

> <b_epik_Metal_Only>
0

> <s_lp_Force_Field>
OPLS_2005

> <r_lp_Energy>
47.0271

> <b_lp_Chiralities_Consistent>
1

> <s_lp_Variant>
AV-unprocessed.smi:1252-2

> <Gold.Version>
5.8.1

> <Gold.Id.Protein>
6NUR|6NUR_protein|mol2

> <Gold.PLP.Fitness>
35.1839

> <Gold.PLP.PLP>
-26.9223

> <Gold.PLP.part.hbond>
-3.0000

> <Gold.PLP.part.metal>
0.0000

> <Gold.PLP.part.buried>
-3.8217

> <Gold.PLP.part.nonpolar>
-21.7630

> <Gold.PLP.part.repulsive>
0.2201

> <Gold.PLP.ligand.clash>
0.1332

> <Gold.PLP.ligand.torsion>
0.2904

> <Gold.PLP.Chemscore.Hbond>
2.9357

> <Gold.PLP.Chemscore.CHOScore>
0.0000

> <Gold.PLP.Chemscore.Metal>
0.0000

> <Gold.Chemscore.Hbonds>
donor molecule, donor type, donor heavy atom, donor atom, acceptor molecule, acceptor atom, score
      P1  H  6934  6947       L1    10  0.64
      P1  H  7989  7998       L1    20  0.65
      P1  H  7997  8008       L1    18  1.00

> <Gold.PLP.Chemscore.Internal.Correction>
0.1683

> <Gold.Rescore>
     Score         DG    S(hbond)    S(metal)    S(lipo)     H(rot)  DE(clash)    DE(int)     intcor
      7.73      -8.00       1.09        0.00      45.44       2.52       0.01       0.26       ----

> <Gold.Chemscore.Fitness>
7.7341

> <Gold.Chemscore.DG>
-8.0040

> <Gold.Chemscore.ZeroCoef>
-5.4800

> <Gold.Chemscore.Hbond>
1.0917

> <Gold.Chemscore.Metal>
0.0000

> <Gold.Chemscore.Lipo>
45.4426

> <Gold.Chemscore.Internal_Hbond>
0.0000

> <Gold.Chemscore.DEClash>
0.0060

> <Gold.Chemscore.DEInternal>
0.2640

> <Gold.Chemscore.Rot>
2.5153

> <Gold.Chemscore.Internal.Correction>
   9.000000E+99

> <Gold.Chemscore.Hbonds>
donor molecule, donor type, donor heavy atom, donor atom, acceptor molecule, acceptor atom, score
      P1  H  6934  6947       L1    10  0.03
      P1  H  7989  7998       L1    20  0.02
      P1  H  7997  8008       L1    18  0.73

> <Gold.Chemscore.Hbond.Weighted>
-3.6464

> <Gold.Chemscore.Metal.Weighted>
-0.0000

> <Gold.Chemscore.Lipo.Weighted>
-5.3168

> <Gold.Chemscore.Internal_Hbond.Weighted>
0.0000

> <Gold.Chemscore.DEClash.Weighted>
0.0060

> <Gold.Chemscore.DEInternal.Weighted>
0.2640

> <Gold.Chemscore.Rot.Weighted>
6.4392

> <Gold.Chemscore.Internal.Correction.Weighted>
   9.000000E+99

> <Gold.Protein.RotatedTorsions>
[ 6907 6896 6895 6894 ] final -172.00 input  -60.11 | X-H torsion
[ 7974 7965 7964 7962 ] final   28.88 input  175.53 | X-H torsion
[ 8008 7997 7996 7995 ] final  -44.54 input   59.86 | X-H torsion
[ 10167 10162 10161 10158 ] final  -70.54 input  -65.29 | X-H torsion
[ 10718 10713 10712 10709 ] final  105.57 input   66.30 | X-H torsion
[ 10763 10752 10751 10750 ] final  130.37 input  -60.55 | X-H torsion
[ 11005 11000 10999 10996 ] final  -61.09 input  -57.11 | X-H torsion

> <Gold.Protein.ActiveResidues>
 VAL166  LYS551  ARG553  GLY616  TRP617  ASP618  TYR619  PRO620  LYS621  CYS622 
 ASP623  PHE694  ASN695  SER759  ASP760  ASP761  ALA762  ILE779  LEU786  VAL792 
 PHE793  MET794  SER795  GLU796  ALA797  LYS798  CYS799  TRP800  GLU811  SER814 

> <Gold.Protein.RotatedAtoms>
  151.5329  133.3446  159.2921 H   0  0  0  0  0  0  0  0  0  0  0  0  # atno 6907 bound_to 6896
  150.8582  134.7929  159.7073 H   0  0  0  0  0  0  0  0  0  0  0  0  # atno 6908 bound_to 6896
  152.4609  134.5194  159.9829 H   0  0  0  0  0  0  0  0  0  0  0  0  # atno 6909 bound_to 6896
  146.1704  139.6997  142.8972 H   0  0  0  0  0  0  0  0  0  0  0  0  # atno 7974 bound_to 7965
  154.3998  140.1419  156.3699 H   0  0  0  0  0  0  0  0  0  0  0  0  # atno 8008 bound_to 7997
  155.8102  140.3473  155.5432 H   0  0  0  0  0  0  0  0  0  0  0  0  # atno 8009 bound_to 7997
  155.8394  140.0924  157.1734 H   0  0  0  0  0  0  0  0  0  0  0  0  # atno 8010 bound_to 7997
  140.5344  143.2319  151.7204 H   0  0  0  0  0  0  0  0  0  0  0  0  # atno 10167 bound_to 10162
  157.6700  131.0831  150.5876 H   0  0  0  0  0  0  0  0  0  0  0  0  # atno 10718 bound_to 10713
  153.7569  135.3201  155.3330 H   0  0  0  0  0  0  0  0  0  0  0  0  # atno 10763 bound_to 10752
  154.8243  135.4580  154.0876 H   0  0  0  0  0  0  0  0  0  0  0  0  # atno 10764 bound_to 10752
  153.2095  135.6934  153.8214 H   0  0  0  0  0  0  0  0  0  0  0  0  # atno 10765 bound_to 10752
  141.1311  133.6627  156.5322 H   0  0  0  0  0  0  0  0  0  0  0  0  # atno 11005 bound_to 11000
  145.4356  141.0418  143.2886 LP  0  0  0  0  0  0  0  0  0  0  0  0  # atno 17320 bound_to 7965
  144.8154  139.5886  143.7011 LP  0  0  0  0  0  0  0  0  0  0  0  0  # atno 17321 bound_to 7965
  139.4965  144.4065  152.0126 LP  0  0  0  0  0  0  0  0  0  0  0  0  # atno 17342 bound_to 10162
  140.3170  144.3472  150.6019 LP  0  0  0  0  0  0  0  0  0  0  0  0  # atno 17343 bound_to 10162
  156.6177  130.4397  149.5834 LP  0  0  0  0  0  0  0  0  0  0  0  0  # atno 17370 bound_to 10713
  156.2380  130.6834  151.1528 LP  0  0  0  0  0  0  0  0  0  0  0  0  # atno 17371 bound_to 10713
  140.4206  134.7190  157.4888 LP  0  0  0  0  0  0  0  0  0  0  0  0  # atno 17394 bound_to 11000
  140.0362  134.6333  155.9040 LP  0  0  0  0  0  0  0  0  0  0  0  0  # atno 17395 bound_to 11000

$$$$
