AV-unprocessed.smi:2216|AV-procd|sdf|8967|dock10
  -GOLD-   2272012183D 1   1.00000     0.00000
 Structure written by MMmdl.
 40 41  0  0  0  0  0  0  0  0  2 V2000
  147.1831  135.2643  163.0405 C   0  0  0  0  0  0  0  0  0  0  0  0
  147.4616  135.2922  161.5472 C   0  0  0  0  0  0  0  0  0  0  0  0
  148.0888  136.3415  160.9591 C   0  0  0  0  0  0  0  0  0  0  0  0
  148.3675  136.3723  159.5234 C   0  0  0  0  0  0  0  0  0  0  0  0
  149.0122  137.3906  158.8092 N   0  0  0  0  0  0  0  0  0  0  0  0
  150.3151  137.7231  158.8129 C   0  0  0  0  0  0  0  0  0  0  0  0
  151.1933  137.1949  159.4943 O   0  0  0  0  0  0  0  0  0  0  0  0
  150.5507  138.7374  157.9685 N   0  0  0  0  0  0  0  0  0  0  0  0
  151.8500  139.3618  157.7483 C   0  0  0  0  0  0  0  0  0  0  0  0
  151.6985  140.8062  157.2422 C   0  0  0  0  0  0  0  0  0  0  0  0
  151.6004  141.8324  158.3818 C   0  0  1  0  0  0  0  0  0  0  0  0
  152.9054  141.9139  159.1975 C   0  0  0  0  0  0  0  0  0  0  0  0
  152.8020  142.9998  160.2745 C   0  0  0  0  0  0  0  0  0  0  0  0
  152.3791  144.3254  159.6329 C   0  0  0  0  0  0  0  0  0  0  0  0
  151.1092  144.1293  158.7897 C   0  0  0  0  0  0  0  0  0  0  0  0
  151.3243  143.1125  157.8158 O   0  0  0  0  0  0  0  0  0  0  0  0
  147.9333  135.2340  158.8749 C   0  0  0  0  0  0  0  0  0  0  0  0
  147.3024  134.1553  159.3872 N   0  5  0  0  0  0  0  0  0  0  0  0
  147.0400  134.1396  160.7256 C   0  0  0  0  0  0  0  0  0  0  0  0
  146.4645  133.1934  161.2616 O   0  0  0  0  0  0  0  0  0  0  0  0
  147.5405  136.1710  163.5294 H   0  0  0  0  0  0  0  0  0  0  0  0
  147.6815  134.4126  163.5047 H   0  0  0  0  0  0  0  0  0  0  0  0
  146.1121  135.1811  163.2271 H   0  0  0  0  0  0  0  0  0  0  0  0
  148.3914  137.1597  161.5922 H   0  0  0  0  0  0  0  0  0  0  0  0
  148.4073  137.9416  158.2180 H   0  0  0  0  0  0  0  0  0  0  0  0
  149.7712  139.1102  157.4469 H   0  0  0  0  0  0  0  0  0  0  0  0
  152.4417  139.3331  158.6648 H   0  0  0  0  0  0  0  0  0  0  0  0
  152.3906  138.7650  157.0133 H   0  0  0  0  0  0  0  0  0  0  0  0
  152.5556  141.0500  156.6133 H   0  0  0  0  0  0  0  0  0  0  0  0
  150.8173  140.8867  156.6042 H   0  0  0  0  0  0  0  0  0  0  0  0
  150.7798  141.5469  159.0427 H   0  0  0  0  0  0  0  0  0  0  0  0
  153.1235  140.9512  159.6608 H   0  0  0  0  0  0  0  0  0  0  0  0
  153.7416  142.1376  158.5337 H   0  0  0  0  0  0  0  0  0  0  0  0
  152.0681  142.7042  161.0254 H   0  0  0  0  0  0  0  0  0  0  0  0
  153.7543  143.1142  160.7932 H   0  0  0  0  0  0  0  0  0  0  0  0
  152.2110  145.0805  160.4012 H   0  0  0  0  0  0  0  0  0  0  0  0
  153.1834  144.6984  158.9976 H   0  0  0  0  0  0  0  0  0  0  0  0
  150.2587  143.8680  159.4211 H   0  0  0  0  0  0  0  0  0  0  0  0
  150.8522  145.0570  158.2783 H   0  0  0  0  0  0  0  0  0  0  0  0
  148.1165  135.1842  157.7798 H   0  0  0  0  0  0  0  0  0  0  0  0
  1  2  1  0  0  0  0
  1 21  1  0  0  0  0
  1 22  1  0  0  0  0
  1 23  1  0  0  0  0
  2 19  1  0  0  0  0
  2  3  2  0  0  0  0
  3  4  1  0  0  0  0
  3 24  1  0  0  0  0
  4  5  1  0  0  0  0
  4 17  2  0  0  0  0
  5  6  1  0  0  0  0
  5 25  1  0  0  0  0
  6  7  2  0  0  0  0
  6  8  1  0  0  0  0
  8  9  1  0  0  0  0
  8 26  1  0  0  0  0
  9 10  1  0  0  0  0
  9 27  1  0  0  0  0
  9 28  1  0  0  0  0
 10 11  1  0  0  0  0
 10 29  1  0  0  0  0
 10 30  1  0  0  0  0
 11 16  1  0  0  0  0
 11 12  1  0  0  0  0
 11 31  1  0  0  0  0
 12 13  1  0  0  0  0
 12 32  1  0  0  0  0
 12 33  1  0  0  0  0
 13 14  1  0  0  0  0
 13 34  1  0  0  0  0
 13 35  1  0  0  0  0
 14 15  1  0  0  0  0
 14 36  1  0  0  0  0
 14 37  1  0  0  0  0
 15 16  1  0  0  0  0
 15 38  1  0  0  0  0
 15 39  1  0  0  0  0
 17 18  1  0  0  0  0
 17 40  1  0  0  0  0
 18 19  1  0  0  0  0
 19 20  2  0  0  0  0
M  CHG  1  18  -1
M  END
> <s_m_source_file>
AV-unprocessed.smi

> <i_m_source_file_index>
2216

> <i_lp_mmshare_version>
43012

> <i_f3d_flags>
0

> <s_epik_input>
Tz1jMVtuSF1bY0hdYyhbY0hdYzFbQ0gzXSlbTkhdQyg9TylbTkhdW0NIMl1bQ0gyXVtDQEBIXTJbQ0gyXVtDSDJdW0NIMl1bQ0gyXU8y

> <s_epik_cmdline>
J2VwaWtfcHl0aG9uJywgJy1waCcsICc3LjAnLCAnLXRuJywgJzgnLCAnLW1hJywgJzIwMCcsICctbWV0YWxfYmluZGluZycsICctaW1hZScsICc8aW5maWxlLm1hZT4nLCAnLW9tYWUnLCAnPG91dGZpbGUubWFlPic=

> <r_lp_tautomer_probability>
1

> <r_epik_Ionization_Penalty>
7.55627

> <r_epik_Ionization_Penalty_Charging>
1.50531

> <r_epik_Ionization_Penalty_Neutral>
6.05097

> <r_epik_State_Penalty>
6.05091

> <r_epik_Charging_Adjusted_Penalty>
7.55622

> <i_epik_Tot_Q>
-1

> <i_epik_Tot_abs_Q>
1

> <r_epik_Metal_State_Penalty>
2.00009

> <b_epik_Metal_Only>
1

> <s_lp_Force_Field>
OPLS_2005

> <r_lp_Energy>
20.9745

> <b_lp_Chiralities_Consistent>
1

> <s_lp_Variant>
AV-unprocessed.smi:2216-4

> <Gold.Version>
5.8.1

> <Gold.Id.Protein>
6NUR|6NUR_protein|mol2

> <Gold.PLP.Fitness>
38.6575

> <Gold.PLP.PLP>
-37.9181

> <Gold.PLP.part.hbond>
-0.9203

> <Gold.PLP.part.metal>
0.0000

> <Gold.PLP.part.buried>
-6.2274

> <Gold.PLP.part.nonpolar>
-31.3492

> <Gold.PLP.part.repulsive>
0.3386

> <Gold.PLP.ligand.clash>
0.0000

> <Gold.PLP.ligand.torsion>
1.0463

> <Gold.PLP.Chemscore.Hbond>
0.9425

> <Gold.PLP.Chemscore.CHOScore>
0.0000

> <Gold.PLP.Chemscore.Metal>
0.0000

> <Gold.Chemscore.Hbonds>
donor molecule, donor type, donor heavy atom, donor atom, acceptor molecule, acceptor atom, score
      P1  H  6896  6908       L1     7  0.84

> <Gold.PLP.Chemscore.Internal.Correction>
0.0045

> <Gold.Rescore>
     Score         DG    S(hbond)    S(metal)    S(lipo)     H(rot)  DE(clash)    DE(int)     intcor
     15.35     -16.34       0.98        0.00      96.96       1.47       0.02       0.97       ----

> <Gold.Chemscore.Fitness>
15.3470

> <Gold.Chemscore.DG>
-16.3415

> <Gold.Chemscore.ZeroCoef>
-5.4800

> <Gold.Chemscore.Hbond>
0.9828

> <Gold.Chemscore.Metal>
0.0000

> <Gold.Chemscore.Lipo>
96.9599

> <Gold.Chemscore.Internal_Hbond>
0.0000

> <Gold.Chemscore.DEClash>
0.0222

> <Gold.Chemscore.DEInternal>
0.9722

> <Gold.Chemscore.Rot>
1.4709

> <Gold.Chemscore.Internal.Correction>
   9.000000E+99

> <Gold.Chemscore.Hbonds>
donor molecule, donor type, donor heavy atom, donor atom, acceptor molecule, acceptor atom, score
      P1  H  6896  6908       L1     7  0.84

> <Gold.Chemscore.Hbond.Weighted>
-3.2826

> <Gold.Chemscore.Metal.Weighted>
-0.0000

> <Gold.Chemscore.Lipo.Weighted>
-11.3443

> <Gold.Chemscore.Internal_Hbond.Weighted>
0.0000

> <Gold.Chemscore.DEClash.Weighted>
0.0222

> <Gold.Chemscore.DEInternal.Weighted>
0.9722

> <Gold.Chemscore.Rot.Weighted>
3.7654

> <Gold.Chemscore.Internal.Correction.Weighted>
   9.000000E+99

> <Gold.Protein.RotatedTorsions>
[ 6907 6896 6895 6894 ] final -129.17 input  -60.11 | X-H torsion
[ 7974 7965 7964 7962 ] final  -15.73 input  175.53 | X-H torsion
[ 8008 7997 7996 7995 ] final  122.68 input   59.86 | X-H torsion
[ 10167 10162 10161 10158 ] final   -1.49 input  -65.29 | X-H torsion
[ 10718 10713 10712 10709 ] final -167.55 input   66.30 | X-H torsion
[ 10763 10752 10751 10750 ] final   79.07 input  -60.55 | X-H torsion
[ 11005 11000 10999 10996 ] final  -81.34 input  -57.11 | X-H torsion

> <Gold.Protein.ActiveResidues>
 VAL166  LYS551  ARG553  GLY616  TRP617  ASP618  TYR619  PRO620  LYS621  CYS622 
 ASP623  PHE694  ASN695  SER759  ASP760  ASP761  ALA762  ILE779  LEU786  VAL792 
 PHE793  MET794  SER795  GLU796  ALA797  LYS798  CYS799  TRP800  GLU811  SER814 

> <Gold.Protein.RotatedAtoms>
  150.9258  133.6825  159.2821 H   0  0  0  0  0  0  0  0  0  0  0  0  # atno 6907 bound_to 6896
  151.4264  135.1003  159.9639 H   0  0  0  0  0  0  0  0  0  0  0  0  # atno 6908 bound_to 6896
  152.5002  133.8698  159.7348 H   0  0  0  0  0  0  0  0  0  0  0  0  # atno 6909 bound_to 6896
  146.2019  140.3534  142.8420 H   0  0  0  0  0  0  0  0  0  0  0  0  # atno 7974 bound_to 7965
  156.2737  140.2780  156.1507 H   0  0  0  0  0  0  0  0  0  0  0  0  # atno 8008 bound_to 7997
  155.0856  140.0388  157.2670 H   0  0  0  0  0  0  0  0  0  0  0  0  # atno 8009 bound_to 7997
  154.6929  140.2633  155.6800 H   0  0  0  0  0  0  0  0  0  0  0  0  # atno 8010 bound_to 7997
  140.6812  143.6769  150.8138 H   0  0  0  0  0  0  0  0  0  0  0  0  # atno 10167 bound_to 10162
  156.6839  130.9133  151.3060 H   0  0  0  0  0  0  0  0  0  0  0  0  # atno 10718 bound_to 10713
  153.0924  135.4853  154.8714 H   0  0  0  0  0  0  0  0  0  0  0  0  # atno 10763 bound_to 10752
  154.7284  135.3055  154.8934 H   0  0  0  0  0  0  0  0  0  0  0  0  # atno 10764 bound_to 10752
  153.9577  135.6816  153.4798 H   0  0  0  0  0  0  0  0  0  0  0  0  # atno 10765 bound_to 10752
  141.1666  133.7192  156.8408 H   0  0  0  0  0  0  0  0  0  0  0  0  # atno 11005 bound_to 11000
  144.8703  140.7263  143.6051 LP  0  0  0  0  0  0  0  0  0  0  0  0  # atno 17320 bound_to 7965
  145.3454  139.1721  143.4463 LP  0  0  0  0  0  0  0  0  0  0  0  0  # atno 17321 bound_to 7965
  140.0470  143.5288  152.2692 LP  0  0  0  0  0  0  0  0  0  0  0  0  # atno 17342 bound_to 10162
  139.6136  144.7614  151.2896 LP  0  0  0  0  0  0  0  0  0  0  0  0  # atno 17343 bound_to 10162
  157.7033  130.9357  150.0853 LP  0  0  0  0  0  0  0  0  0  0  0  0  # atno 17370 bound_to 10713
  156.1847  130.3651  149.8989 LP  0  0  0  0  0  0  0  0  0  0  0  0  # atno 17371 bound_to 10713
  140.1984  134.8915  157.3141 LP  0  0  0  0  0  0  0  0  0  0  0  0  # atno 17394 bound_to 11000
  140.2214  134.4019  155.7564 LP  0  0  0  0  0  0  0  0  0  0  0  0  # atno 17395 bound_to 11000

$$$$
