AV-unprocessed.smi:2021|AV-procd|sdf|8182|dock3
  -GOLD-   2272010433D 1   1.00000     0.00000
 Structure written by MMmdl.
 41 42  0  0  0  0  0  0  0  0  3 V2000
  152.8476  144.2194  158.1734 C   0  0  0  0  0  0  0  0  0  0  0  0
  151.3418  144.2404  158.4759 C   0  0  0  0  0  0  0  0  0  0  0  0
  151.0668  145.0233  159.7708 C   0  0  0  0  0  0  0  0  0  0  0  0
  150.7821  142.8024  158.5385 C   0  0  0  0  0  0  0  0  0  0  0  0
  151.4706  141.8652  157.6093 N   0  3  2  0  0  0  0  0  0  0  0  0
  151.1382  142.0948  156.1821 C   0  0  0  0  0  0  0  0  0  0  0  0
  149.7641  141.4992  155.8295 C   0  0  0  0  0  0  0  0  0  0  0  0
  149.7635  140.1145  156.1465 O   0  0  0  0  0  0  0  0  0  0  0  0
  149.9487  139.8693  157.5374 C   0  0  1  0  0  0  0  0  0  0  0  0
  149.8461  138.3563  157.7965 C   0  0  0  0  0  0  0  0  0  0  0  0
  149.1782  138.0735  159.0625 N   0  0  0  0  0  0  0  0  0  0  0  0
  148.7566  136.8713  159.4789 C   0  0  0  0  0  0  0  0  0  0  0  0
  148.9430  135.8749  158.7767 O   0  0  0  0  0  0  0  0  0  0  0  0
  148.1420  136.8993  160.6827 N   0  5  0  0  0  0  0  0  0  0  0  0
  147.6536  135.7655  161.2128 C   0  0  0  0  0  0  0  0  0  0  0  0
  147.2120  134.7502  160.4534 N   0  0  0  0  0  0  0  0  0  0  0  0
  146.7497  133.6728  161.1973 N   0  0  0  0  0  0  0  0  0  0  0  0
  146.8474  133.9081  162.5056 C   0  0  0  0  0  0  0  0  0  0  0  0
  147.5058  135.4693  162.9475 S   0  0  0  0  0  0  0  0  0  0  0  0
  151.3295  140.4256  157.9506 C   0  0  0  0  0  0  0  0  0  0  0  0
  153.4041  143.7082  158.9599 H   0  0  0  0  0  0  0  0  0  0  0  0
  153.2466  145.2307  158.0885 H   0  0  0  0  0  0  0  0  0  0  0  0
  153.0534  143.7070  157.2331 H   0  0  0  0  0  0  0  0  0  0  0  0
  150.8669  144.7755  157.6543 H   0  0  0  0  0  0  0  0  0  0  0  0
  151.5230  144.5371  160.6338 H   0  0  0  0  0  0  0  0  0  0  0  0
  149.9979  145.1140  159.9654 H   0  0  0  0  0  0  0  0  0  0  0  0
  151.4698  146.0348  159.7091 H   0  0  0  0  0  0  0  0  0  0  0  0
  150.8313  142.4202  159.5580 H   0  0  0  0  0  0  0  0  0  0  0  0
  149.7213  142.8430  158.2867 H   0  0  0  0  0  0  0  0  0  0  0  0
  151.1765  143.1574  155.9400 H   0  0  0  0  0  0  0  0  0  0  0  0
  151.9038  141.6152  155.5707 H   0  0  0  0  0  0  0  0  0  0  0  0
  148.9587  142.0113  156.3580 H   0  0  0  0  0  0  0  0  0  0  0  0
  149.5675  141.6149  154.7636 H   0  0  0  0  0  0  0  0  0  0  0  0
  149.1599  140.3686  158.1019 H   0  0  0  0  0  0  0  0  0  0  0  0
  149.3463  137.8520  156.9677 H   0  0  0  0  0  0  0  0  0  0  0  0
  150.8461  137.9266  157.8574 H   0  0  0  0  0  0  0  0  0  0  0  0
  149.0069  138.8582  159.6741 H   0  0  0  0  0  0  0  0  0  0  0  0
  146.5257  133.1601  163.2145 H   0  0  0  0  0  0  0  0  0  0  0  0
  152.1096  139.8790  157.4189 H   0  0  0  0  0  0  0  0  0  0  0  0
  151.5118  140.2528  159.0102 H   0  0  0  0  0  0  0  0  0  0  0  0
  152.4521  142.0866  157.6993 H   0  0  0  0  0  0  0  0  0  0  0  0
  1  2  1  0  0  0  0
  1 21  1  0  0  0  0
  1 22  1  0  0  0  0
  1 23  1  0  0  0  0
  2  3  1  0  0  0  0
  2  4  1  0  0  0  0
  2 24  1  0  0  0  0
  3 25  1  0  0  0  0
  3 26  1  0  0  0  0
  3 27  1  0  0  0  0
  4  5  1  0  0  0  0
  4 28  1  0  0  0  0
  4 29  1  0  0  0  0
  5 20  1  0  0  0  0
  5  6  1  0  0  0  0
  5 41  1  0  0  0  0
  6  7  1  0  0  0  0
  6 30  1  0  0  0  0
  6 31  1  0  0  0  0
  7  8  1  0  0  0  0
  7 32  1  0  0  0  0
  7 33  1  0  0  0  0
  8  9  1  0  0  0  0
  9 10  1  0  0  0  0
  9 20  1  0  0  0  0
  9 34  1  0  0  0  0
 10 11  1  0  0  0  0
 10 35  1  0  0  0  0
 10 36  1  0  0  0  0
 11 12  1  0  0  0  0
 11 37  1  0  0  0  0
 12 13  2  0  0  0  0
 12 14  1  0  0  0  0
 14 15  1  0  0  0  0
 15 19  1  0  0  0  0
 15 16  2  0  0  0  0
 16 17  1  0  0  0  0
 17 18  2  0  0  0  0
 18 19  1  0  0  0  0
 18 38  1  0  0  0  0
 20 39  1  0  0  0  0
 20 40  1  0  0  0  0
M  CHG  1   5   1
M  CHG  1  14  -1
M  END
> <s_m_source_file>
AV-unprocessed.smi

> <i_m_source_file_index>
2021

> <i_lp_mmshare_version>
43012

> <i_f3d_flags>
0

> <s_epik_input>
W0NIM11bQ0hdKFtDSDNdKVtDSDJdTjFbQ0gyXVtDSDJdT1tDQEhdKFtDSDJdMSlbQ0gyXVtOSF1DKD1PKVtOSF1jMm5uW2NIXXMy

> <s_epik_cmdline>
J2VwaWtfcHl0aG9uJywgJy1waCcsICc3LjAnLCAnLXRuJywgJzgnLCAnLW1hJywgJzIwMCcsICctbWV0YWxfYmluZGluZycsICctaW1hZScsICc8aW5maWxlLm1hZT4nLCAnLW9tYWUnLCAnPG91dGZpbGUubWFlPic=

> <r_lp_tautomer_probability>
1

> <r_epik_Ionization_Penalty>
3.15762

> <r_epik_Ionization_Penalty_Charging>
3.12229

> <r_epik_Ionization_Penalty_Neutral>
0.0353298

> <r_epik_State_Penalty>
3.11266

> <r_epik_Charging_Adjusted_Penalty>
6.23495

> <i_epik_Tot_Q>
0

> <i_epik_Tot_abs_Q>
2

> <r_epik_Metal_State_Penalty>
0.541462

> <b_epik_Metal_Only>
1

> <s_lp_Force_Field>
OPLS_2005

> <r_lp_Energy>
12.8808

> <b_lp_Chiralities_Consistent>
1

> <s_lp_Variant>
AV-unprocessed.smi:2021-8

> <Gold.Version>
5.8.1

> <Gold.Id.Protein>
6NUR|6NUR_protein|mol2

> <Gold.PLP.Fitness>
44.0139

> <Gold.PLP.PLP>
-35.8693

> <Gold.PLP.part.hbond>
-2.8281

> <Gold.PLP.part.metal>
0.0000

> <Gold.PLP.part.buried>
-6.9642

> <Gold.PLP.part.nonpolar>
-28.5478

> <Gold.PLP.part.repulsive>
0.8375

> <Gold.PLP.ligand.clash>
0.0000

> <Gold.PLP.ligand.torsion>
1.1648

> <Gold.PLP.Chemscore.Hbond>
3.4220

> <Gold.PLP.Chemscore.CHOScore>
0.0000

> <Gold.PLP.Chemscore.Metal>
0.0000

> <Gold.Chemscore.Hbonds>
donor molecule, donor type, donor heavy atom, donor atom, acceptor molecule, acceptor atom, score
      P1  H  6896  6908       L1    13  0.34
      P1  H  6931  6943       L1    14  1.89
      P1  H  6934  6947       L1    14  0.34

> <Gold.PLP.Chemscore.Internal.Correction>
0.2083

> <Gold.Rescore>
     Score         DG    S(hbond)    S(metal)    S(lipo)     H(rot)  DE(clash)    DE(int)     intcor
     12.25     -16.97       1.69        0.00      90.29       1.85       1.93       2.78       ----

> <Gold.Chemscore.Fitness>
12.2472

> <Gold.Chemscore.DG>
-16.9654

> <Gold.Chemscore.ZeroCoef>
-5.4800

> <Gold.Chemscore.Hbond>
1.6911

> <Gold.Chemscore.Metal>
0.0000

> <Gold.Chemscore.Lipo>
90.2924

> <Gold.Chemscore.Internal_Hbond>
0.0000

> <Gold.Chemscore.DEClash>
1.9338

> <Gold.Chemscore.DEInternal>
2.7844

> <Gold.Chemscore.Rot>
1.8466

> <Gold.Chemscore.Internal.Correction>
   9.000000E+99

> <Gold.Chemscore.Hbonds>
donor molecule, donor type, donor heavy atom, donor atom, acceptor molecule, acceptor atom, score
      P1  H  6896  6908       L1    13  0.29
      P1  H  6931  6943       L1    14  0.61
      P1  H  6934  6947       L1    14  0.11

> <Gold.Chemscore.Hbond.Weighted>
-5.6484

> <Gold.Chemscore.Metal.Weighted>
-0.0000

> <Gold.Chemscore.Lipo.Weighted>
-10.5642

> <Gold.Chemscore.Internal_Hbond.Weighted>
0.0000

> <Gold.Chemscore.DEClash.Weighted>
1.9338

> <Gold.Chemscore.DEInternal.Weighted>
2.7844

> <Gold.Chemscore.Rot.Weighted>
4.7272

> <Gold.Chemscore.Internal.Correction.Weighted>
   9.000000E+99

> <Gold.Protein.RotatedTorsions>
[ 6907 6896 6895 6894 ] final  170.01 input  -60.11 | X-H torsion
[ 7974 7965 7964 7962 ] final  111.41 input  175.53 | X-H torsion
[ 8008 7997 7996 7995 ] final  -85.02 input   59.86 | X-H torsion
[ 10167 10162 10161 10158 ] final  -52.00 input  -65.29 | X-H torsion
[ 10718 10713 10712 10709 ] final  -95.87 input   66.30 | X-H torsion
[ 10763 10752 10751 10750 ] final   75.89 input  -60.55 | X-H torsion
[ 11005 11000 10999 10996 ] final -117.95 input  -57.11 | X-H torsion

> <Gold.Protein.ActiveResidues>
 VAL166  LYS551  ARG553  GLY616  TRP617  ASP618  TYR619  PRO620  LYS621  CYS622 
 ASP623  PHE694  ASN695  SER759  ASP760  ASP761  ALA762  ILE779  LEU786  VAL792 
 PHE793  MET794  SER795  GLU796  ALA797  LYS798  CYS799  TRP800  GLU811  SER814 

> <Gold.Protein.RotatedAtoms>
  151.8229  133.3397  159.3589 H   0  0  0  0  0  0  0  0  0  0  0  0  # atno 6907 bound_to 6896
  150.7289  134.5557  159.5826 H   0  0  0  0  0  0  0  0  0  0  0  0  # atno 6908 bound_to 6896
  152.2993  134.7631  160.0412 H   0  0  0  0  0  0  0  0  0  0  0  0  # atno 6909 bound_to 6896
  145.2425  139.2773  143.4110 H   0  0  0  0  0  0  0  0  0  0  0  0  # atno 7974 bound_to 7965
  154.6362  140.0597  156.9791 H   0  0  0  0  0  0  0  0  0  0  0  0  # atno 8008 bound_to 7997
  155.1588  140.3281  155.4397 H   0  0  0  0  0  0  0  0  0  0  0  0  # atno 8009 bound_to 7997
  156.2508  140.1934  156.6696 H   0  0  0  0  0  0  0  0  0  0  0  0  # atno 8010 bound_to 7997
  140.6560  143.2599  151.4585 H   0  0  0  0  0  0  0  0  0  0  0  0  # atno 10167 bound_to 10162
  156.0051  130.5127  150.6140 H   0  0  0  0  0  0  0  0  0  0  0  0  # atno 10718 bound_to 10713
  153.0686  135.4972  154.8256 H   0  0  0  0  0  0  0  0  0  0  0  0  # atno 10763 bound_to 10752
  154.6990  135.2998  154.9371 H   0  0  0  0  0  0  0  0  0  0  0  0  # atno 10764 bound_to 10752
  154.0100  135.6755  153.4817 H   0  0  0  0  0  0  0  0  0  0  0  0  # atno 10765 bound_to 10752
  141.0320  133.9967  157.3129 H   0  0  0  0  0  0  0  0  0  0  0  0  # atno 11005 bound_to 11000
  146.3324  140.2793  142.8609 LP  0  0  0  0  0  0  0  0  0  0  0  0  # atno 17320 bound_to 7965
  144.9576  140.8242  143.5533 LP  0  0  0  0  0  0  0  0  0  0  0  0  # atno 17321 bound_to 7965
  139.5782  144.1769  152.1933 LP  0  0  0  0  0  0  0  0  0  0  0  0  # atno 17342 bound_to 10162
  140.1087  144.5476  150.6940 LP  0  0  0  0  0  0  0  0  0  0  0  0  # atno 17343 bound_to 10162
  157.3968  131.0804  151.1345 LP  0  0  0  0  0  0  0  0  0  0  0  0  # atno 17370 bound_to 10713
  157.2019  130.6398  149.5742 LP  0  0  0  0  0  0  0  0  0  0  0  0  # atno 17371 bound_to 10713
  139.9214  135.0200  156.8078 LP  0  0  0  0  0  0  0  0  0  0  0  0  # atno 17394 bound_to 11000
  140.6390  133.9836  155.7698 LP  0  0  0  0  0  0  0  0  0  0  0  0  # atno 17395 bound_to 11000

$$$$
