AV-unprocessed.smi:160|AV-procd|sdf|1362|dock3
  -GOLD-   2262019 73D 1   1.00000     0.00000
 Structure written by MMmdl.
 28 29  0  0  0  0  0  0  0  0  2 V2000
  154.2703  135.7344  156.8966 N   0  5  0  0  0  0  0  0  0  0  0  0
  154.2345  137.0367  157.2545 C   0  0  0  0  0  0  0  0  0  0  0  0
  154.9426  137.5776  158.1033 O   0  0  0  0  0  0  0  0  0  0  0  0
  153.2097  137.8629  156.5140 C   0  0  0  0  0  0  0  0  0  0  0  0
  152.5473  137.3470  155.4338 N   0  0  0  0  0  0  0  0  0  0  0  0
  151.7903  138.3925  155.1299 C   0  0  0  0  0  0  0  0  0  0  0  0
  151.9684  139.4485  155.9284 N   0  0  0  0  0  0  0  0  0  0  0  0
  151.3039  140.7892  155.9097 C   0  0  1  0  0  0  0  0  0  0  0  0
  150.4455  140.8195  154.8092 O   0  0  0  0  0  0  0  0  0  0  0  0
  149.1604  141.3030  155.1932 C   0  0  1  0  0  0  0  0  0  0  0  0
  148.0669  140.7683  154.2516 C   0  0  0  0  0  0  0  0  0  0  0  0
  148.3630  141.1140  152.9151 O   0  0  0  0  0  0  0  0  0  0  0  0
  149.0287  140.8886  156.6657 C   0  0  1  0  0  0  0  0  0  0  0  0
  148.5638  139.5549  156.7819 O   0  0  0  0  0  0  0  0  0  0  0  0
  150.4564  141.0624  157.1691 C   0  0  1  0  0  0  0  0  0  0  0  0
  150.7558  140.2713  158.3075 O   0  0  0  0  0  0  0  0  0  0  0  0
  152.8972  139.1162  156.8580 N   0  0  0  0  0  0  0  0  0  0  0  0
  152.1240  141.4974  155.7856 H   0  0  0  0  0  0  0  0  0  0  0  0
  149.1860  142.3938  155.1560 H   0  0  0  0  0  0  0  0  0  0  0  0
  148.3349  141.5332  157.2061 H   0  0  0  0  0  0  0  0  0  0  0  0
  150.6091  142.1103  157.4307 H   0  0  0  0  0  0  0  0  0  0  0  0
  153.9122  135.0362  157.5591 H   0  0  0  0  0  0  0  0  0  0  0  0
  151.0942  138.3900  154.3041 H   0  0  0  0  0  0  0  0  0  0  0  0
  147.9552  139.6877  154.3477 H   0  0  0  0  0  0  0  0  0  0  0  0
  147.1048  141.2188  154.4975 H   0  0  0  0  0  0  0  0  0  0  0  0
  148.6913  140.3457  152.4740 H   0  0  0  0  0  0  0  0  0  0  0  0
  149.0430  139.1315  157.4781 H   0  0  0  0  0  0  0  0  0  0  0  0
  150.1424  139.5538  158.3464 H   0  0  0  0  0  0  0  0  0  0  0  0
  1  2  1  0  0  0  0
  1 22  1  0  0  0  0
  2  3  2  0  0  0  0
  2  4  1  0  0  0  0
  4 17  2  0  0  0  0
  4  5  1  0  0  0  0
  5  6  2  0  0  0  0
  6  7  1  0  0  0  0
  6 23  1  0  0  0  0
  7  8  1  0  0  0  0
  7 17  1  0  0  0  0
  8 18  1  0  0  0  0
  8 15  1  0  0  0  0
  8  9  1  0  0  0  0
  9 10  1  0  0  0  0
 10 19  1  0  0  0  0
 10 11  1  0  0  0  0
 10 13  1  0  0  0  0
 11 12  1  0  0  0  0
 11 24  1  0  0  0  0
 11 25  1  0  0  0  0
 12 26  1  0  0  0  0
 13 20  1  0  0  0  0
 13 14  1  0  0  0  0
 13 15  1  0  0  0  0
 14 27  1  0  0  0  0
 15 21  1  0  0  0  0
 15 16  1  0  0  0  0
 16 28  1  0  0  0  0
M  CHG  1   1  -1
M  END
> <s_m_source_file>
AV-unprocessed.smi

> <i_m_source_file_index>
160

> <i_lp_mmshare_version>
43012

> <i_f3d_flags>
0

> <s_epik_input>
W05IMl1DKD1PKWMxbltjSF1uKG4xKVtDQEBIXTJPW0NASF0oW0NIMl1bT0hdKVtDQEBIXShbT0hdKVtDQEhdMltPSF0=

> <s_epik_cmdline>
J2VwaWtfcHl0aG9uJywgJy1waCcsICc3LjAnLCAnLXRuJywgJzgnLCAnLW1hJywgJzIwMCcsICctbWV0YWxfYmluZGluZycsICctaW1hZScsICc8aW5maWxlLm1hZT4nLCAnLW9tYWUnLCAnPG91dGZpbGUubWFlPic=

> <r_lp_tautomer_probability>
1

> <r_epik_Ionization_Penalty>
6.6993

> <r_epik_Ionization_Penalty_Charging>
6.6993

> <r_epik_Ionization_Penalty_Neutral>
6.01698e-06

> <r_epik_State_Penalty>
6.69929

> <r_epik_Charging_Adjusted_Penalty>
13.3986

> <i_epik_Tot_Q>
-1

> <i_epik_Tot_abs_Q>
1

> <r_epik_Metal_State_Penalty>
2.62798

> <b_epik_Metal_Only>
1

> <s_epik_Chemistry_Notes>
This compound contains an acetal/aminal-like group ( X-CH(R)-Y where X, Y are N, S, or O) that may be acid/base labile, releasing an aldehyde.

> <s_lp_Force_Field>
OPLS_2005

> <r_lp_Energy>
51.4857

> <b_lp_Chiralities_Consistent>
1

> <s_lp_Variant>
AV-unprocessed.smi:160-20

> <Gold.Version>
5.8.1

> <Gold.Id.Protein>
6NUR|6NUR_protein|mol2

> <Gold.PLP.Fitness>
39.2709

> <Gold.PLP.PLP>
-22.4271

> <Gold.PLP.part.hbond>
-5.4369

> <Gold.PLP.part.metal>
0.0000

> <Gold.PLP.part.buried>
-1.2704

> <Gold.PLP.part.nonpolar>
-15.3506

> <Gold.PLP.part.repulsive>
0.1328

> <Gold.PLP.ligand.clash>
0.0000

> <Gold.PLP.ligand.torsion>
0.0752

> <Gold.PLP.Chemscore.Hbond>
5.6630

> <Gold.PLP.Chemscore.CHOScore>
0.0000

> <Gold.PLP.Chemscore.Metal>
0.0000

> <Gold.Chemscore.Hbonds>
donor molecule, donor type, donor heavy atom, donor atom, acceptor molecule, acceptor atom, score
      L1  H    12    26       P1  7957  0.72
      P1  H  7989  7998       L1     9  0.82
      P1  H  7997  8009       L1    17  1.00
      P1  H  8011  8017       L1    12  0.84
      P1  H 10752 10763       L1     5  0.19
      P1  H 10752 10764       L1     1  2.00

> <Gold.PLP.Chemscore.Internal.Correction>
0.0050

> <Gold.Rescore>
     Score         DG    S(hbond)    S(metal)    S(lipo)     H(rot)  DE(clash)    DE(int)     intcor
      5.48      -8.03       3.05        0.00      23.05       4.04       1.13       1.42       ----

> <Gold.Chemscore.Fitness>
5.4829

> <Gold.Chemscore.DG>
-8.0288

> <Gold.Chemscore.ZeroCoef>
-5.4800

> <Gold.Chemscore.Hbond>
3.0524

> <Gold.Chemscore.Metal>
0.0000

> <Gold.Chemscore.Lipo>
23.0508

> <Gold.Chemscore.Internal_Hbond>
0.0000

> <Gold.Chemscore.DEClash>
1.1298

> <Gold.Chemscore.DEInternal>
1.4160

> <Gold.Chemscore.Rot>
4.0403

> <Gold.Chemscore.Internal.Correction>
   9.000000E+99

> <Gold.Chemscore.Hbonds>
donor molecule, donor type, donor heavy atom, donor atom, acceptor molecule, acceptor atom, score
      L1  H    12    26       P1  7957  0.71
      P1  H  7989  7998       L1     9  0.21
      P1  H  7997  8009       L1    17  0.36
      P1  H  8011  8017       L1    12  0.15
      P1  H 10752 10763       L1     5  0.18
      P1  H 10752 10764       L1     1  0.81

> <Gold.Chemscore.Hbond.Weighted>
-10.1949

> <Gold.Chemscore.Metal.Weighted>
-0.0000

> <Gold.Chemscore.Lipo.Weighted>
-2.6969

> <Gold.Chemscore.Internal_Hbond.Weighted>
0.0000

> <Gold.Chemscore.DEClash.Weighted>
1.1298

> <Gold.Chemscore.DEInternal.Weighted>
1.4160

> <Gold.Chemscore.Rot.Weighted>
10.3431

> <Gold.Chemscore.Internal.Correction.Weighted>
   9.000000E+99

> <Gold.Protein.RotatedTorsions>
[ 6907 6896 6895 6894 ] final   18.33 input  -60.11 | X-H torsion
[ 7974 7965 7964 7962 ] final  -74.92 input  175.53 | X-H torsion
[ 8008 7997 7996 7995 ] final -173.36 input   59.86 | X-H torsion
[ 10167 10162 10161 10158 ] final -159.88 input  -65.29 | X-H torsion
[ 10718 10713 10712 10709 ] final -120.40 input   66.30 | X-H torsion
[ 10763 10752 10751 10750 ] final   29.14 input  -60.55 | X-H torsion
[ 11005 11000 10999 10996 ] final -129.56 input  -57.11 | X-H torsion

> <Gold.Protein.ActiveResidues>
 VAL166  LYS551  ARG553  GLY616  TRP617  ASP618  TYR619  PRO620  LYS621  CYS622 
 ASP623  PHE694  ASN695  SER759  ASP760  ASP761  ALA762  ILE779  LEU786  VAL792 
 PHE793  MET794  SER795  GLU796  ALA797  LYS798  CYS799  TRP800  GLU811  SER814 

> <Gold.Protein.RotatedAtoms>
  151.8635  135.0515  160.0471 H   0  0  0  0  0  0  0  0  0  0  0  0  # atno 6907 bound_to 6896
  152.2644  133.5321  159.5409 H   0  0  0  0  0  0  0  0  0  0  0  0  # atno 6908 bound_to 6896
  150.7128  134.0701  159.3904 H   0  0  0  0  0  0  0  0  0  0  0  0  # atno 6909 bound_to 6896
  145.6328  140.9333  143.1078 H   0  0  0  0  0  0  0  0  0  0  0  0  # atno 7974 bound_to 7965
  155.9564  140.1136  157.0933 H   0  0  0  0  0  0  0  0  0  0  0  0  # atno 8008 bound_to 7997
  154.4121  140.1190  156.5188 H   0  0  0  0  0  0  0  0  0  0  0  0  # atno 8009 bound_to 7997
  155.6776  140.3473  155.4845 H   0  0  0  0  0  0  0  0  0  0  0  0  # atno 8010 bound_to 7997
  139.6582  143.9961  152.2208 H   0  0  0  0  0  0  0  0  0  0  0  0  # atno 10167 bound_to 10162
  156.1255  130.6356  150.9535 H   0  0  0  0  0  0  0  0  0  0  0  0  # atno 10718 bound_to 10713
  153.0448  135.6496  154.0846 H   0  0  0  0  0  0  0  0  0  0  0  0  # atno 10763 bound_to 10752
  154.0546  135.2893  155.3336 H   0  0  0  0  0  0  0  0  0  0  0  0  # atno 10764 bound_to 10752
  154.6698  135.5360  153.8189 H   0  0  0  0  0  0  0  0  0  0  0  0  # atno 10765 bound_to 10752
  140.9421  134.1179  157.4141 H   0  0  0  0  0  0  0  0  0  0  0  0  # atno 11005 bound_to 11000
  144.7187  139.8105  143.7389 LP  0  0  0  0  0  0  0  0  0  0  0  0  # atno 17320 bound_to 7965
  146.1343  139.4385  143.0149 LP  0  0  0  0  0  0  0  0  0  0  0  0  # atno 17321 bound_to 7965
  139.9693  144.6505  150.8004 LP  0  0  0  0  0  0  0  0  0  0  0  0  # atno 17342 bound_to 10162
  140.7568  143.3074  151.2929 LP  0  0  0  0  0  0  0  0  0  0  0  0  # atno 17343 bound_to 10162
  157.6437  131.0907  150.8199 LP  0  0  0  0  0  0  0  0  0  0  0  0  # atno 17370 bound_to 10713
  156.8290  130.5009  149.5334 LP  0  0  0  0  0  0  0  0  0  0  0  0  # atno 17371 bound_to 10713
  139.8823  135.0040  156.6221 LP  0  0  0  0  0  0  0  0  0  0  0  0  # atno 17394 bound_to 11000
  140.7719  133.8731  155.8499 LP  0  0  0  0  0  0  0  0  0  0  0  0  # atno 17395 bound_to 11000

$$$$
