AV-unprocessed.smi:2340|AV-procd|sdf|9348|dock1
  -GOLD-   2272012573D 1   1.00000     0.00000
 Structure written by MMmdl.
 40 41  0  0  0  0  0  0  0  0  1 V2000
  151.7675  144.6859  159.1314 C   0  0  0  0  0  0  0  0  0  0  0  0
  152.2213  143.7132  160.1736 C   0  0  0  0  0  0  0  0  0  0  0  0
  152.0922  143.8399  161.5342 C   0  0  0  0  0  0  0  0  0  0  0  0
  152.7599  142.4710  162.3795 S   0  0  0  0  0  0  0  0  0  0  0  0
  153.1980  141.7620  160.8264 C   0  0  0  0  0  0  0  0  0  0  0  0
  153.8912  140.4426  160.6823 C   0  0  2  0  0  0  0  0  0  0  0  0
  155.1655  140.5693  159.8296 C   0  0  0  0  0  0  0  0  0  0  0  0
  152.9187  139.3527  160.1821 C   0  0  0  0  0  0  0  0  0  0  0  0
  151.9423  139.8617  159.2239 N   0  0  0  0  0  0  0  0  0  0  0  0
  152.1709  140.0381  157.9154 C   0  0  0  0  0  0  0  0  0  0  0  0
  153.2432  139.7918  157.3632 O   0  0  0  0  0  0  0  0  0  0  0  0
  151.0880  140.5091  157.2814 N   0  0  0  0  0  0  0  0  0  0  0  0
  151.0091  140.8106  155.8517 C   0  0  2  0  0  0  0  0  0  0  0  0
  149.6958  141.5208  155.5251 C   0  0  0  0  0  0  0  0  0  0  0  0
  149.1388  140.7468  154.3350 C   0  0  0  0  0  0  0  0  0  0  0  0
  149.6277  139.4340  154.5439 O   0  0  0  0  0  0  0  0  0  0  0  0
  150.9830  139.5536  154.9501 C   0  0  2  0  0  0  0  0  0  0  0  0
  151.4689  138.2277  155.5580 C   0  0  0  0  0  0  0  0  0  0  0  0
  152.8520  142.5272  159.7872 N   0  0  0  0  0  0  0  0  0  0  0  0
  151.3567  145.5903  159.5811 H   0  0  0  0  0  0  0  0  0  0  0  0
  150.9934  144.2513  158.4988 H   0  0  0  0  0  0  0  0  0  0  0  0
  152.5936  144.9858  158.4861 H   0  0  0  0  0  0  0  0  0  0  0  0
  151.6467  144.6526  162.0887 H   0  0  0  0  0  0  0  0  0  0  0  0
  154.2150  140.1519  161.6831 H   0  0  0  0  0  0  0  0  0  0  0  0
  155.8341  141.3272  160.2391 H   0  0  0  0  0  0  0  0  0  0  0  0
  154.9308  140.8527  158.8033 H   0  0  0  0  0  0  0  0  0  0  0  0
  155.7209  139.6320  159.7962 H   0  0  0  0  0  0  0  0  0  0  0  0
  153.4751  138.5298  159.7299 H   0  0  0  0  0  0  0  0  0  0  0  0
  152.3708  138.9258  161.0225 H   0  0  0  0  0  0  0  0  0  0  0  0
  151.0275  140.0915  159.5834 H   0  0  0  0  0  0  0  0  0  0  0  0
  150.2528  140.6710  157.8246 H   0  0  0  0  0  0  0  0  0  0  0  0
  151.8466  141.4452  155.5562 H   0  0  0  0  0  0  0  0  0  0  0  0
  148.9947  141.4504  156.3584 H   0  0  0  0  0  0  0  0  0  0  0  0
  149.8341  142.5786  155.2997 H   0  0  0  0  0  0  0  0  0  0  0  0
  148.0499  140.7698  154.2877 H   0  0  0  0  0  0  0  0  0  0  0  0
  149.5328  141.1384  153.3959 H   0  0  0  0  0  0  0  0  0  0  0  0
  151.5722  139.7606  154.0547 H   0  0  0  0  0  0  0  0  0  0  0  0
  152.5065  138.3013  155.8848 H   0  0  0  0  0  0  0  0  0  0  0  0
  151.4119  137.4244  154.8234 H   0  0  0  0  0  0  0  0  0  0  0  0
  150.8630  137.9311  156.4144 H   0  0  0  0  0  0  0  0  0  0  0  0
  1  2  1  0  0  0  0
  1 20  1  0  0  0  0
  1 21  1  0  0  0  0
  1 22  1  0  0  0  0
  2 19  1  0  0  0  0
  2  3  2  0  0  0  0
  3  4  1  0  0  0  0
  3 23  1  0  0  0  0
  4  5  1  0  0  0  0
  5  6  1  0  0  0  0
  5 19  2  0  0  0  0
  6  7  1  0  0  0  0
  6  8  1  0  0  0  0
  6 24  1  0  0  0  0
  7 25  1  0  0  0  0
  7 26  1  0  0  0  0
  7 27  1  0  0  0  0
  8  9  1  0  0  0  0
  8 28  1  0  0  0  0
  8 29  1  0  0  0  0
  9 10  1  0  0  0  0
  9 30  1  0  0  0  0
 10 11  2  0  0  0  0
 10 12  1  0  0  0  0
 12 13  1  0  0  0  0
 12 31  1  0  0  0  0
 13 17  1  0  0  0  0
 13 14  1  0  0  0  0
 13 32  1  0  0  0  0
 14 15  1  0  0  0  0
 14 33  1  0  0  0  0
 14 34  1  0  0  0  0
 15 16  1  0  0  0  0
 15 35  1  0  0  0  0
 15 36  1  0  0  0  0
 16 17  1  0  0  0  0
 17 18  1  0  0  0  0
 17 37  1  0  0  0  0
 18 38  1  0  0  0  0
 18 39  1  0  0  0  0
 18 40  1  0  0  0  0
M  END
> <s_m_source_file>
AV-unprocessed.smi

> <i_m_source_file_index>
2340

> <i_lp_mmshare_version>
43012

> <i_f3d_flags>
0

> <s_epik_input>
W0NIM11jMVtjSF1zYyhuMSlbQ0BIXShbQ0gzXSlbQ0gyXVtOSF1DKD1PKVtOSF1bQ0BASF0yW0NIMl1bQ0gyXU9bQ0BIXTJbQ0gzXQ==

> <s_epik_cmdline>
J2VwaWtfcHl0aG9uJywgJy1waCcsICc3LjAnLCAnLXRuJywgJzgnLCAnLW1hJywgJzIwMCcsICctbWV0YWxfYmluZGluZycsICctaW1hZScsICc8aW5maWxlLm1hZT4nLCAnLW9tYWUnLCAnPG91dGZpbGUubWFlPic=

> <r_epik_Ionization_Penalty>
0.00156622

> <r_epik_Ionization_Penalty_Charging>
0

> <r_epik_Ionization_Penalty_Neutral>
0.00156622

> <r_epik_State_Penalty>
0.00101902

> <r_epik_Charging_Adjusted_Penalty>
0.00101902

> <i_epik_Tot_Q>
0

> <i_epik_Tot_abs_Q>
0

> <r_epik_Metal_State_Penalty>
-0

> <b_epik_Metal_Only>
0

> <s_lp_Force_Field>
OPLS_2005

> <r_lp_Energy>
6.07196

> <b_lp_Chiralities_Consistent>
1

> <s_lp_Variant>
AV-unprocessed.smi:2340-5

> <Gold.Version>
5.8.1

> <Gold.Id.Protein>
6NUR|6NUR_protein|mol2

> <Gold.PLP.Fitness>
43.2738

> <Gold.PLP.PLP>
-41.7848

> <Gold.PLP.part.hbond>
-0.7541

> <Gold.PLP.part.metal>
0.0000

> <Gold.PLP.part.buried>
-4.0618

> <Gold.PLP.part.nonpolar>
-37.7866

> <Gold.PLP.part.repulsive>
0.3535

> <Gold.PLP.ligand.clash>
0.0000

> <Gold.PLP.ligand.torsion>
0.7873

> <Gold.PLP.Chemscore.Hbond>
0.9920

> <Gold.PLP.Chemscore.CHOScore>
0.0000

> <Gold.PLP.Chemscore.Metal>
0.0000

> <Gold.Chemscore.Hbonds>
donor molecule, donor type, donor heavy atom, donor atom, acceptor molecule, acceptor atom, score
      P1  H  7997  8008       L1    11  0.69

> <Gold.PLP.Chemscore.Internal.Correction>
0.0876

> <Gold.Rescore>
     Score         DG    S(hbond)    S(metal)    S(lipo)     H(rot)  DE(clash)    DE(int)     intcor
     16.35     -18.42       0.88        0.00     119.00       1.53       0.14       1.92       ----

> <Gold.Chemscore.Fitness>
16.3539

> <Gold.Chemscore.DG>
-18.4153

> <Gold.Chemscore.ZeroCoef>
-5.4800

> <Gold.Chemscore.Hbond>
0.8788

> <Gold.Chemscore.Metal>
0.0000

> <Gold.Chemscore.Lipo>
119.0046

> <Gold.Chemscore.Internal_Hbond>
0.0000

> <Gold.Chemscore.DEClash>
0.1449

> <Gold.Chemscore.DEInternal>
1.9165

> <Gold.Chemscore.Rot>
1.5325

> <Gold.Chemscore.Internal.Correction>
   9.000000E+99

> <Gold.Chemscore.Hbonds>
donor molecule, donor type, donor heavy atom, donor atom, acceptor molecule, acceptor atom, score
      P1  H  7997  8008       L1    11  0.67

> <Gold.Chemscore.Hbond.Weighted>
-2.9351

> <Gold.Chemscore.Metal.Weighted>
-0.0000

> <Gold.Chemscore.Lipo.Weighted>
-13.9235

> <Gold.Chemscore.Internal_Hbond.Weighted>
0.0000

> <Gold.Chemscore.DEClash.Weighted>
0.1449

> <Gold.Chemscore.DEInternal.Weighted>
1.9165

> <Gold.Chemscore.Rot.Weighted>
3.9233

> <Gold.Chemscore.Internal.Correction.Weighted>
   9.000000E+99

> <Gold.Protein.RotatedTorsions>
[ 6907 6896 6895 6894 ] final   51.95 input  -60.11 | X-H torsion
[ 7974 7965 7964 7962 ] final   80.82 input  175.53 | X-H torsion
[ 8008 7997 7996 7995 ] final  -89.17 input   59.86 | X-H torsion
[ 10167 10162 10161 10158 ] final   86.68 input  -65.29 | X-H torsion
[ 10718 10713 10712 10709 ] final  -54.73 input   66.30 | X-H torsion
[ 10763 10752 10751 10750 ] final  178.44 input  -60.55 | X-H torsion
[ 11005 11000 10999 10996 ] final  -20.24 input  -57.11 | X-H torsion

> <Gold.Protein.ActiveResidues>
 VAL166  LYS551  ARG553  GLY616  TRP617  ASP618  TYR619  PRO620  LYS621  CYS622 
 ASP623  PHE694  ASN695  SER759  ASP760  ASP761  ALA762  ILE779  LEU786  VAL792 
 PHE793  MET794  SER795  GLU796  ALA797  LYS798  CYS799  TRP800  GLU811  SER814 

> <Gold.Protein.RotatedAtoms>
  152.3181  134.7414  160.0320 H   0  0  0  0  0  0  0  0  0  0  0  0  # atno 6907 bound_to 6896
  151.7872  133.3350  159.3496 H   0  0  0  0  0  0  0  0  0  0  0  0  # atno 6908 bound_to 6896
  150.7355  134.5807  159.5981 H   0  0  0  0  0  0  0  0  0  0  0  0  # atno 6909 bound_to 6896
  145.6463  139.2437  143.2002 H   0  0  0  0  0  0  0  0  0  0  0  0  # atno 7974 bound_to 7965
  154.6834  140.0545  157.0289 H   0  0  0  0  0  0  0  0  0  0  0  0  # atno 8008 bound_to 7997
  155.0919  140.3220  155.4552 H   0  0  0  0  0  0  0  0  0  0  0  0  # atno 8009 bound_to 7997
  156.2702  140.2046  156.6046 H   0  0  0  0  0  0  0  0  0  0  0  0  # atno 8010 bound_to 7997
  139.8850  144.6418  150.8800 H   0  0  0  0  0  0  0  0  0  0  0  0  # atno 10167 bound_to 10162
  156.1427  130.4154  150.0076 H   0  0  0  0  0  0  0  0  0  0  0  0  # atno 10718 bound_to 10713
  154.5077  135.2787  155.1368 H   0  0  0  0  0  0  0  0  0  0  0  0  # atno 10763 bound_to 10752
  154.2976  135.6254  153.5415 H   0  0  0  0  0  0  0  0  0  0  0  0  # atno 10764 bound_to 10752
  152.9913  135.5689  154.5535 H   0  0  0  0  0  0  0  0  0  0  0  0  # atno 10765 bound_to 10752
  140.8445  133.7901  155.9898 H   0  0  0  0  0  0  0  0  0  0  0  0  # atno 11005 bound_to 11000
  146.1240  140.7272  142.9444 LP  0  0  0  0  0  0  0  0  0  0  0  0  # atno 17320 bound_to 7965
  144.7139  140.4139  143.7059 LP  0  0  0  0  0  0  0  0  0  0  0  0  # atno 17321 bound_to 7965
  140.7737  143.3555  151.1930 LP  0  0  0  0  0  0  0  0  0  0  0  0  # atno 17342 bound_to 10162
  139.7161  143.9298  152.2967 LP  0  0  0  0  0  0  0  0  0  0  0  0  # atno 17343 bound_to 10162
  156.7957  130.9272  151.3646 LP  0  0  0  0  0  0  0  0  0  0  0  0  # atno 17370 bound_to 10713
  157.6589  130.8949  149.9788 LP  0  0  0  0  0  0  0  0  0  0  0  0  # atno 17371 bound_to 10713
  140.8858  134.2556  157.5120 LP  0  0  0  0  0  0  0  0  0  0  0  0  # atno 17394 bound_to 11000
  139.8703  134.9637  156.4472 LP  0  0  0  0  0  0  0  0  0  0  0  0  # atno 17395 bound_to 11000

$$$$
