AV-unprocessed.smi:3011|AV-procd|sdf|11460|dock1
  -GOLD-   2272016393D 1   1.00000     0.00000
 Structure written by MMmdl.
 47 49  0  0  0  0  0  0  0  0  2 V2000
  147.9482  137.6622  164.1750 C   0  0  0  0  0  0  0  0  0  0  0  0
  147.6954  137.5231  162.7848 O   0  0  0  0  0  0  0  0  0  0  0  0
  147.5965  136.2506  162.2612 C   0  0  0  0  0  0  0  0  0  0  0  0
  147.3386  135.0973  163.0449 C   0  0  0  0  0  0  0  0  0  0  0  0
  147.2423  133.8305  162.4414 C   0  0  0  0  0  0  0  0  0  0  0  0
  147.3996  133.7012  161.0512 C   0  0  0  0  0  0  0  0  0  0  0  0
  147.6570  134.8382  160.2641 C   0  0  0  0  0  0  0  0  0  0  0  0
  147.7606  136.1195  160.8626 C   0  0  0  0  0  0  0  0  0  0  0  0
  148.0196  137.2746  160.1551 O   0  0  0  0  0  0  0  0  0  0  0  0
  147.9258  137.2401  158.7376 C   0  0  0  0  0  0  0  0  0  0  0  0
  149.3385  137.3204  158.1442 C   0  0  0  0  0  0  0  0  0  0  0  0
  149.3188  137.6558  156.7120 N   0  0  0  0  0  0  0  0  0  0  0  0
  149.2226  136.8560  155.6083 C   0  0  0  0  0  0  0  0  0  0  0  0
  149.1262  135.3581  155.5755 C   0  0  1  0  0  0  0  0  0  0  0  0
  147.8897  134.8688  156.3443 C   0  0  0  0  0  0  0  0  0  0  0  0
  149.0785  134.8541  154.2087 N   0  0  0  0  0  0  0  0  0  0  0  0
  149.1484  133.5587  153.8784 C   0  0  0  0  0  0  0  0  0  0  0  0
  149.2591  132.6601  154.7082 O   0  0  0  0  0  0  0  0  0  0  0  0
  149.2643  137.6746  154.5177 N   0  3  0  0  0  0  0  0  0  0  0  0
  149.3592  139.0050  154.9240 C   0  0  0  0  0  0  0  0  0  0  0  0
  149.4178  140.1818  154.1838 C   0  0  0  0  0  0  0  0  0  0  0  0
  149.5054  141.3849  154.9144 C   0  0  0  0  0  0  0  0  0  0  0  0
  149.5324  141.3871  156.3241 C   0  0  0  0  0  0  0  0  0  0  0  0
  149.4753  140.1870  157.0632 C   0  0  0  0  0  0  0  0  0  0  0  0
  149.3898  139.0016  156.3329 C   0  0  0  0  0  0  0  0  0  0  0  0
  147.9893  138.7215  164.4276 H   0  0  0  0  0  0  0  0  0  0  0  0
  148.9061  137.2203  164.4518 H   0  0  0  0  0  0  0  0  0  0  0  0
  147.1544  137.2118  164.7724 H   0  0  0  0  0  0  0  0  0  0  0  0
  147.2093  135.1571  164.1147 H   0  0  0  0  0  0  0  0  0  0  0  0
  147.0457  132.9574  163.0460 H   0  0  0  0  0  0  0  0  0  0  0  0
  147.3242  132.7286  160.5878 H   0  0  0  0  0  0  0  0  0  0  0  0
  147.7735  134.6988  159.2004 H   0  0  0  0  0  0  0  0  0  0  0  0
  147.4422  136.3197  158.4071 H   0  0  0  0  0  0  0  0  0  0  0  0
  147.3312  138.0825  158.3816 H   0  0  0  0  0  0  0  0  0  0  0  0
  149.9425  138.0575  158.6734 H   0  0  0  0  0  0  0  0  0  0  0  0
  149.8522  136.3671  158.2642 H   0  0  0  0  0  0  0  0  0  0  0  0
  150.0040  134.9380  156.0685 H   0  0  0  0  0  0  0  0  0  0  0  0
  147.9011  135.2288  157.3733 H   0  0  0  0  0  0  0  0  0  0  0  0
  147.8552  133.7794  156.3773 H   0  0  0  0  0  0  0  0  0  0  0  0
  146.9640  135.2149  155.8834 H   0  0  0  0  0  0  0  0  0  0  0  0
  148.9858  135.5323  153.4663 H   0  0  0  0  0  0  0  0  0  0  0  0
  149.0930  133.4068  152.7893 H   0  0  0  0  0  0  0  0  0  0  0  0
  149.3954  140.1824  153.1039 H   0  0  0  0  0  0  0  0  0  0  0  0
  149.5511  142.3245  154.3829 H   0  0  0  0  0  0  0  0  0  0  0  0
  149.5980  142.3289  156.8496 H   0  0  0  0  0  0  0  0  0  0  0  0
  149.4947  140.2012  158.1429 H   0  0  0  0  0  0  0  0  0  0  0  0
  149.2222  137.3417  153.5633 H   0  0  0  0  0  0  0  0  0  0  0  0
  1  2  1  0  0  0  0
  1 26  1  0  0  0  0
  1 27  1  0  0  0  0
  1 28  1  0  0  0  0
  2  3  1  0  0  0  0
  3  8  1  0  0  0  0
  3  4  2  0  0  0  0
  4  5  1  0  0  0  0
  4 29  1  0  0  0  0
  5  6  2  0  0  0  0
  5 30  1  0  0  0  0
  6  7  1  0  0  0  0
  6 31  1  0  0  0  0
  7  8  2  0  0  0  0
  7 32  1  0  0  0  0
  8  9  1  0  0  0  0
  9 10  1  0  0  0  0
 10 11  1  0  0  0  0
 10 33  1  0  0  0  0
 10 34  1  0  0  0  0
 11 12  1  0  0  0  0
 11 35  1  0  0  0  0
 11 36  1  0  0  0  0
 12 25  1  0  0  0  0
 12 13  1  0  0  0  0
 13 14  1  0  0  0  0
 13 19  2  0  0  0  0
 14 15  1  0  0  0  0
 14 16  1  0  0  0  0
 14 37  1  0  0  0  0
 15 38  1  0  0  0  0
 15 39  1  0  0  0  0
 15 40  1  0  0  0  0
 16 17  1  0  0  0  0
 16 41  1  0  0  0  0
 17 18  2  0  0  0  0
 17 42  1  0  0  0  0
 19 20  1  0  0  0  0
 19 47  1  0  0  0  0
 20 25  2  0  0  0  0
 20 21  1  0  0  0  0
 21 22  2  0  0  0  0
 21 43  1  0  0  0  0
 22 23  1  0  0  0  0
 22 44  1  0  0  0  0
 23 24  2  0  0  0  0
 23 45  1  0  0  0  0
 24 25  1  0  0  0  0
 24 46  1  0  0  0  0
M  CHG  1  19   1
M  END
> <s_m_source_file>
AV-unprocessed.smi

> <i_m_source_file_index>
3011

> <i_lp_mmshare_version>
43012

> <i_f3d_flags>
0

> <s_epik_input>
W0NIM11PYzFbY0hdW2NIXVtjSF1bY0hdYzFPW0NIMl1bQ0gyXW4oYyhuMilbQ0BIXShbQ0gzXSlbTkhdW0NIXT1PKWMoYzIzKVtjSF1bY0hdW2NIXVtjSF0z

> <s_epik_cmdline>
J2VwaWtfcHl0aG9uJywgJy1waCcsICc3LjAnLCAnLXRuJywgJzgnLCAnLW1hJywgJzIwMCcsICctbWV0YWxfYmluZGluZycsICctaW1hZScsICc8aW5maWxlLm1hZT4nLCAnLW9tYWUnLCAnPG91dGZpbGUubWFlPic=

> <r_lp_tautomer_probability>
1

> <r_epik_Ionization_Penalty>
1.14644

> <r_epik_Ionization_Penalty_Charging>
1.14644

> <r_epik_Ionization_Penalty_Neutral>
5.5802e-08

> <r_epik_State_Penalty>
1.20743

> <r_epik_Charging_Adjusted_Penalty>
2.35387

> <i_epik_Tot_Q>
1

> <i_epik_Tot_abs_Q>
1

> <r_epik_Metal_State_Penalty>
1.28856

> <b_epik_Metal_Only>
0

> <s_lp_Force_Field>
OPLS_2005

> <r_lp_Energy>
19.9928

> <b_lp_Chiralities_Consistent>
1

> <s_lp_Variant>
AV-unprocessed.smi:3011-4

> <Gold.Version>
5.8.1

> <Gold.Id.Protein>
6NUR|6NUR_protein|mol2

> <Gold.PLP.Fitness>
50.9185

> <Gold.PLP.PLP>
-40.4977

> <Gold.PLP.part.hbond>
-5.8240

> <Gold.PLP.part.metal>
0.0000

> <Gold.PLP.part.buried>
-0.2903

> <Gold.PLP.part.nonpolar>
-33.9881

> <Gold.PLP.part.repulsive>
0.0427

> <Gold.PLP.ligand.clash>
0.0000

> <Gold.PLP.ligand.torsion>
1.2272

> <Gold.PLP.Chemscore.Hbond>
4.1914

> <Gold.PLP.Chemscore.CHOScore>
0.0000

> <Gold.PLP.Chemscore.Metal>
0.0000

> <Gold.Chemscore.Hbonds>
donor molecule, donor type, donor heavy atom, donor atom, acceptor molecule, acceptor atom, score
      L1  H    16    41       P1  7948  1.00
      L1  H    19    47       P1  7948  2.00
      P1  H  6931  6943       L1     2  0.59
      P1  H  6934  6947       L1     9  0.63

> <Gold.PLP.Chemscore.Internal.Correction>
0.3008

> <Gold.Rescore>
     Score         DG    S(hbond)    S(metal)    S(lipo)     H(rot)  DE(clash)    DE(int)     intcor
     17.45     -19.50       2.68        0.00     101.61       2.66       1.07       0.98       ----

> <Gold.Chemscore.Fitness>
17.4545

> <Gold.Chemscore.DG>
-19.4986

> <Gold.Chemscore.ZeroCoef>
-5.4800

> <Gold.Chemscore.Hbond>
2.6769

> <Gold.Chemscore.Metal>
0.0000

> <Gold.Chemscore.Lipo>
101.6115

> <Gold.Chemscore.Internal_Hbond>
0.0000

> <Gold.Chemscore.DEClash>
1.0675

> <Gold.Chemscore.DEInternal>
0.9766

> <Gold.Chemscore.Rot>
2.6604

> <Gold.Chemscore.Internal.Correction>
   9.000000E+99

> <Gold.Chemscore.Hbonds>
donor molecule, donor type, donor heavy atom, donor atom, acceptor molecule, acceptor atom, score
      L1  H    16    41       P1  7948  0.74
      L1  H    19    47       P1  7948  0.93
      P1  H  6931  6943       L1     2  0.20
      P1  H  6934  6947       L1     9  0.46

> <Gold.Chemscore.Hbond.Weighted>
-8.9407

> <Gold.Chemscore.Metal.Weighted>
-0.0000

> <Gold.Chemscore.Lipo.Weighted>
-11.8885

> <Gold.Chemscore.Internal_Hbond.Weighted>
0.0000

> <Gold.Chemscore.DEClash.Weighted>
1.0675

> <Gold.Chemscore.DEInternal.Weighted>
0.9766

> <Gold.Chemscore.Rot.Weighted>
6.8106

> <Gold.Chemscore.Internal.Correction.Weighted>
   9.000000E+99

> <Gold.Protein.RotatedTorsions>
[ 6907 6896 6895 6894 ] final    1.71 input  -60.11 | X-H torsion
[ 7974 7965 7964 7962 ] final -100.16 input  175.53 | X-H torsion
[ 8008 7997 7996 7995 ] final -123.32 input   59.86 | X-H torsion
[ 10167 10162 10161 10158 ] final  179.13 input  -65.29 | X-H torsion
[ 10718 10713 10712 10709 ] final  165.04 input   66.30 | X-H torsion
[ 10763 10752 10751 10750 ] final  -34.94 input  -60.55 | X-H torsion
[ 11005 11000 10999 10996 ] final -127.55 input  -57.11 | X-H torsion

> <Gold.Protein.ActiveResidues>
 VAL166  LYS551  ARG553  GLY616  TRP617  ASP618  TYR619  PRO620  LYS621  CYS622 
 ASP623  PHE694  ASN695  SER759  ASP760  ASP761  ALA762  ILE779  LEU786  VAL792 
 PHE793  MET794  SER795  GLU796  ALA797  LYS798  CYS799  TRP800  GLU811  SER814 

> <Gold.Protein.RotatedAtoms>
  151.5970  135.1050  160.0051 H   0  0  0  0  0  0  0  0  0  0  0  0  # atno 6907 bound_to 6896
  152.4277  133.7220  159.6549 H   0  0  0  0  0  0  0  0  0  0  0  0  # atno 6908 bound_to 6896
  150.8167  133.8253  159.3179 H   0  0  0  0  0  0  0  0  0  0  0  0  # atno 6909 bound_to 6896
  145.2981  140.9370  143.2839 H   0  0  0  0  0  0  0  0  0  0  0  0  # atno 7974 bound_to 7965
  155.1786  140.0410  157.2877 H   0  0  0  0  0  0  0  0  0  0  0  0  # atno 8008 bound_to 7997
  154.6219  140.2503  155.7511 H   0  0  0  0  0  0  0  0  0  0  0  0  # atno 8009 bound_to 7997
  156.2438  140.2893  156.0531 H   0  0  0  0  0  0  0  0  0  0  0  0  # atno 8010 bound_to 7997
  139.5323  144.2598  152.0716 H   0  0  0  0  0  0  0  0  0  0  0  0  # atno 10167 bound_to 10162
  157.0858  131.0404  151.2557 H   0  0  0  0  0  0  0  0  0  0  0  0  # atno 10718 bound_to 10713
  153.8551  135.6845  153.4788 H   0  0  0  0  0  0  0  0  0  0  0  0  # atno 10763 bound_to 10752
  153.1374  135.4672  154.9442 H   0  0  0  0  0  0  0  0  0  0  0  0  # atno 10764 bound_to 10752
  154.7784  135.3261  154.7990 H   0  0  0  0  0  0  0  0  0  0  0  0  # atno 10765 bound_to 10752
  140.9590  134.0962  157.3987 H   0  0  0  0  0  0  0  0  0  0  0  0  # atno 11005 bound_to 11000
  144.9116  139.4522  143.6584 LP  0  0  0  0  0  0  0  0  0  0  0  0  # atno 17320 bound_to 7965
  146.3161  139.7927  142.8982 LP  0  0  0  0  0  0  0  0  0  0  0  0  # atno 17321 bound_to 7965
  140.2063  144.4607  150.6407 LP  0  0  0  0  0  0  0  0  0  0  0  0  # atno 17342 bound_to 10162
  140.6509  143.2225  151.6079 LP  0  0  0  0  0  0  0  0  0  0  0  0  # atno 17343 bound_to 10162
  157.4763  130.7738  149.7371 LP  0  0  0  0  0  0  0  0  0  0  0  0  # atno 17370 bound_to 10713
  155.9911  130.3940  150.2998 LP  0  0  0  0  0  0  0  0  0  0  0  0  # atno 17371 bound_to 10713
  139.8872  135.0087  156.6543 LP  0  0  0  0  0  0  0  0  0  0  0  0  # atno 17394 bound_to 11000
  140.7495  133.8909  155.8336 LP  0  0  0  0  0  0  0  0  0  0  0  0  # atno 17395 bound_to 11000

$$$$
