AV-unprocessed.smi:3133|AV-procd|sdf|11939|dock8
  -GOLD-   2272017333D 1   1.00000     0.00000
 Structure written by MMmdl.
 32 33  0  0  0  0  0  0  0  0  1 V2000
  150.8647  137.8243  154.4362 C   0  0  0  0  0  0  0  0  0  0  0  0
  151.0982  139.3277  154.6901 C   0  0  2  0  0  0  0  0  0  0  0  0
  151.8237  139.6087  156.0174 C   0  0  0  0  0  0  0  0  0  0  0  0
  152.9570  139.1711  156.2214 O   0  0  0  0  0  0  0  0  0  0  0  0
  151.1572  140.3586  156.9102 N   0  0  0  0  0  0  0  0  0  0  0  0
  151.6694  140.7785  158.2092 C   0  0  0  0  0  0  0  0  0  0  0  0
  151.1975  142.1985  158.5600 C   0  0  1  0  0  0  0  0  0  0  0  0
  152.0389  142.8770  159.6386 C   0  0  0  0  0  0  0  0  0  0  0  0
  151.7541  144.3367  159.3689 C   0  0  0  0  0  0  0  0  0  0  0  0
  151.7015  144.3694  157.8436 C   0  0  0  0  0  0  0  0  0  0  0  0
  151.2949  143.0660  157.4331 O   0  0  0  0  0  0  0  0  0  0  0  0
  149.8596  140.0930  154.6076 N   0  0  0  0  0  0  0  0  0  0  0  0
  148.6072  139.6785  154.4033 C   0  0  0  0  0  0  0  0  0  0  0  0
  147.7172  140.6591  154.3466 N   0  0  0  0  0  0  0  0  0  0  0  0
  148.5463  141.7299  154.5269 C   0  0  0  0  0  0  0  0  0  0  0  0
  149.8402  141.4477  154.6781 N   0  0  0  0  0  0  0  0  0  0  0  0
  151.8066  137.2746  154.4327 H   0  0  0  0  0  0  0  0  0  0  0  0
  150.3910  137.6639  153.4675 H   0  0  0  0  0  0  0  0  0  0  0  0
  150.2230  137.3762  155.1959 H   0  0  0  0  0  0  0  0  0  0  0  0
  151.7501  139.6896  153.8934 H   0  0  0  0  0  0  0  0  0  0  0  0
  150.2320  140.6779  156.6628 H   0  0  0  0  0  0  0  0  0  0  0  0
  151.2943  140.0753  158.9533 H   0  0  0  0  0  0  0  0  0  0  0  0
  152.7581  140.7122  158.2458 H   0  0  0  0  0  0  0  0  0  0  0  0
  150.1550  142.1813  158.8829 H   0  0  0  0  0  0  0  0  0  0  0  0
  151.7679  142.5667  160.6481 H   0  0  0  0  0  0  0  0  0  0  0  0
  153.0997  142.6700  159.4887 H   0  0  0  0  0  0  0  0  0  0  0  0
  150.7835  144.6107  159.7851 H   0  0  0  0  0  0  0  0  0  0  0  0
  152.5067  145.0070  159.7848 H   0  0  0  0  0  0  0  0  0  0  0  0
  151.0195  145.1339  157.4702 H   0  0  0  0  0  0  0  0  0  0  0  0
  152.6911  144.5676  157.4303 H   0  0  0  0  0  0  0  0  0  0  0  0
  148.3414  138.6375  154.2908 H   0  0  0  0  0  0  0  0  0  0  0  0
  148.1858  142.7479  154.5417 H   0  0  0  0  0  0  0  0  0  0  0  0
  1  2  1  0  0  0  0
  1 17  1  0  0  0  0
  1 18  1  0  0  0  0
  1 19  1  0  0  0  0
  2  3  1  0  0  0  0
  2 12  1  0  0  0  0
  2 20  1  0  0  0  0
  3  4  2  0  0  0  0
  3  5  1  0  0  0  0
  5  6  1  0  0  0  0
  5 21  1  0  0  0  0
  6  7  1  0  0  0  0
  6 22  1  0  0  0  0
  6 23  1  0  0  0  0
  7 11  1  0  0  0  0
  7  8  1  0  0  0  0
  7 24  1  0  0  0  0
  8  9  1  0  0  0  0
  8 25  1  0  0  0  0
  8 26  1  0  0  0  0
  9 10  1  0  0  0  0
  9 27  1  0  0  0  0
  9 28  1  0  0  0  0
 10 11  1  0  0  0  0
 10 29  1  0  0  0  0
 10 30  1  0  0  0  0
 12 16  1  0  0  0  0
 12 13  1  0  0  0  0
 13 14  2  0  0  0  0
 13 31  1  0  0  0  0
 14 15  1  0  0  0  0
 15 16  2  0  0  0  0
 15 32  1  0  0  0  0
M  END
> <s_m_source_file>
AV-unprocessed.smi

> <i_m_source_file_index>
3133

> <i_lp_mmshare_version>
43012

> <i_f3d_flags>
0

> <s_epik_input>
bjFbY0hdbltjSF1uMVtDQEhdKFtDSDNdKUMoPU8pW05IXVtDSDJdW0NAQEhdMltDSDJdW0NIMl1bQ0gyXU8y

> <s_epik_cmdline>
J2VwaWtfcHl0aG9uJywgJy1waCcsICc3LjAnLCAnLXRuJywgJzgnLCAnLW1hJywgJzIwMCcsICctbWV0YWxfYmluZGluZycsICctaW1hZScsICc8aW5maWxlLm1hZT4nLCAnLW9tYWUnLCAnPG91dGZpbGUubWFlPic=

> <r_lp_tautomer_probability>
1

> <r_epik_Ionization_Penalty>
1.2027e-05

> <r_epik_Ionization_Penalty_Charging>
0

> <r_epik_Ionization_Penalty_Neutral>
1.2027e-05

> <r_epik_State_Penalty>
-0

> <r_epik_Charging_Adjusted_Penalty>
0

> <i_epik_Tot_Q>
0

> <i_epik_Tot_abs_Q>
0

> <r_epik_Metal_State_Penalty>
-0

> <b_epik_Metal_Only>
0

> <s_lp_Force_Field>
OPLS_2005

> <r_lp_Energy>
23.186

> <b_lp_Chiralities_Consistent>
1

> <s_lp_Variant>
AV-unprocessed.smi:3133-3

> <Gold.Version>
5.8.1

> <Gold.Id.Protein>
6NUR|6NUR_protein|mol2

> <Gold.PLP.Fitness>
40.2538

> <Gold.PLP.PLP>
-34.9633

> <Gold.PLP.part.hbond>
-2.3562

> <Gold.PLP.part.metal>
0.0000

> <Gold.PLP.part.buried>
-1.4891

> <Gold.PLP.part.nonpolar>
-30.9946

> <Gold.PLP.part.repulsive>
0.4738

> <Gold.PLP.ligand.clash>
0.0000

> <Gold.PLP.ligand.torsion>
0.4099

> <Gold.PLP.Chemscore.Hbond>
1.0000

> <Gold.PLP.Chemscore.CHOScore>
1.0000

> <Gold.PLP.Chemscore.Metal>
0.0000

> <Gold.Chemscore.Hbonds>
donor molecule, donor type, donor heavy atom, donor atom, acceptor molecule, acceptor atom, score
      P1  H  7997  8009       L1     4  1.00
      L1  C    15    32       P1  8028  1.00

> <Gold.PLP.Chemscore.Internal.Correction>
0.1103

> <Gold.Rescore>
     Score         DG    S(hbond)    S(metal)    S(lipo)     H(rot)  DE(clash)    DE(int)     intcor
      9.45     -11.27       1.00        0.00      70.34       2.26       0.10       1.73       ----

> <Gold.Chemscore.Fitness>
9.4501

> <Gold.Chemscore.DG>
-11.2744

> <Gold.Chemscore.ZeroCoef>
-5.4800

> <Gold.Chemscore.Hbond>
0.9999

> <Gold.Chemscore.Metal>
0.0000

> <Gold.Chemscore.Lipo>
70.3386

> <Gold.Chemscore.Internal_Hbond>
0.0000

> <Gold.Chemscore.DEClash>
0.0959

> <Gold.Chemscore.DEInternal>
1.7284

> <Gold.Chemscore.Rot>
2.2558

> <Gold.Chemscore.Internal.Correction>
   9.000000E+99

> <Gold.Chemscore.Hbonds>
donor molecule, donor type, donor heavy atom, donor atom, acceptor molecule, acceptor atom, score
      P1  H  7997  8009       L1     4  0.99

> <Gold.Chemscore.Hbond.Weighted>
-3.3395

> <Gold.Chemscore.Metal.Weighted>
-0.0000

> <Gold.Chemscore.Lipo.Weighted>
-8.2296

> <Gold.Chemscore.Internal_Hbond.Weighted>
0.0000

> <Gold.Chemscore.DEClash.Weighted>
0.0959

> <Gold.Chemscore.DEInternal.Weighted>
1.7284

> <Gold.Chemscore.Rot.Weighted>
5.7747

> <Gold.Chemscore.Internal.Correction.Weighted>
   9.000000E+99

> <Gold.Protein.RotatedTorsions>
[ 6907 6896 6895 6894 ] final   17.85 input  -60.11 | X-H torsion
[ 7974 7965 7964 7962 ] final -130.54 input  175.53 | X-H torsion
[ 8008 7997 7996 7995 ] final -158.95 input   59.86 | X-H torsion
[ 10167 10162 10161 10158 ] final  -14.54 input  -65.29 | X-H torsion
[ 10718 10713 10712 10709 ] final  110.98 input   66.30 | X-H torsion
[ 10763 10752 10751 10750 ] final  -71.86 input  -60.55 | X-H torsion
[ 11005 11000 10999 10996 ] final   93.59 input  -57.11 | X-H torsion

> <Gold.Protein.ActiveResidues>
 VAL166  LYS551  ARG553  GLY616  TRP617  ASP618  TYR619  PRO620  LYS621  CYS622 
 ASP623  PHE694  ASN695  SER759  ASP760  ASP761  ALA762  ILE779  LEU786  VAL792 
 PHE793  MET794  SER795  GLU796  ALA797  LYS798  CYS799  TRP800  GLU811  SER814 

> <Gold.Protein.RotatedAtoms>
  151.8560  135.0541  160.0463 H   0  0  0  0  0  0  0  0  0  0  0  0  # atno 6907 bound_to 6896
  152.2699  133.5369  159.5441 H   0  0  0  0  0  0  0  0  0  0  0  0  # atno 6908 bound_to 6896
  150.7148  134.0628  159.3879 H   0  0  0  0  0  0  0  0  0  0  0  0  # atno 6909 bound_to 6896
  144.9465  140.7297  143.4814 H   0  0  0  0  0  0  0  0  0  0  0  0  # atno 7974 bound_to 7965
  155.7553  140.0832  157.2181 H   0  0  0  0  0  0  0  0  0  0  0  0  # atno 8008 bound_to 7997
  154.4008  140.1553  156.2826 H   0  0  0  0  0  0  0  0  0  0  0  0  # atno 8009 bound_to 7997
  155.8892  140.3416  155.5946 H   0  0  0  0  0  0  0  0  0  0  0  0  # atno 8010 bound_to 7997
  140.7203  143.5311  150.9519 H   0  0  0  0  0  0  0  0  0  0  0  0  # atno 10167 bound_to 10162
  157.6467  131.0942  150.6682 H   0  0  0  0  0  0  0  0  0  0  0  0  # atno 10718 bound_to 10713
  154.4377  135.5948  153.6109 H   0  0  0  0  0  0  0  0  0  0  0  0  # atno 10763 bound_to 10752
  152.9803  135.5990  154.3761 H   0  0  0  0  0  0  0  0  0  0  0  0  # atno 10764 bound_to 10752
  154.3607  135.2841  155.2300 H   0  0  0  0  0  0  0  0  0  0  0  0  # atno 10765 bound_to 10752
  139.8808  134.8798  156.3740 H   0  0  0  0  0  0  0  0  0  0  0  0  # atno 11005 bound_to 11000
  145.2910  139.1884  143.4740 LP  0  0  0  0  0  0  0  0  0  0  0  0  # atno 17320 bound_to 7965
  146.3305  140.2886  142.8614 LP  0  0  0  0  0  0  0  0  0  0  0  0  # atno 17321 bound_to 7965
  139.9031  143.6811  152.3128 LP  0  0  0  0  0  0  0  0  0  0  0  0  # atno 17342 bound_to 10162
  139.7168  144.7610  151.1021 LP  0  0  0  0  0  0  0  0  0  0  0  0  # atno 17343 bound_to 10162
  156.6998  130.4620  149.5576 LP  0  0  0  0  0  0  0  0  0  0  0  0  # atno 17370 bound_to 10713
  156.1803  130.6494  151.0943 LP  0  0  0  0  0  0  0  0  0  0  0  0  # atno 17371 bound_to 10713
  140.9445  133.7492  156.0189 LP  0  0  0  0  0  0  0  0  0  0  0  0  # atno 17394 bound_to 11000
  140.8180  134.3322  157.5391 LP  0  0  0  0  0  0  0  0  0  0  0  0  # atno 17395 bound_to 11000

$$$$
