AV-unprocessed.smi:694|AV-procd|sdf|3379|dock5
  -GOLD-   22720 0363D 1   1.00000     0.00000
 Structure written by MMmdl.
 43 44  0  0  0  0  0  0  0  0  2 V2000
  151.6541  144.2324  157.3704 C   0  0  0  0  0  0  0  0  0  0  0  0
  151.6309  142.7988  157.6387 N   0  0  0  0  0  0  0  0  0  0  0  0
  152.2217  142.2688  158.8607 C   0  0  0  0  0  0  0  0  0  0  0  0
  151.0234  141.9219  156.7141 C   0  0  0  0  0  0  0  0  0  0  0  0
  151.3508  140.5473  156.6164 C   0  0  0  0  0  0  0  0  0  0  0  0
  150.6975  139.7362  155.6657 C   0  0  0  0  0  0  0  0  0  0  0  0
  149.7159  140.2942  154.8206 C   0  0  0  0  0  0  0  0  0  0  0  0
  149.0943  139.4371  153.8717 N   0  0  0  0  0  0  0  0  0  0  0  0
  147.8600  139.5205  153.3456 C   0  0  0  0  0  0  0  0  0  0  0  0
  147.0233  140.3777  153.6282 O   0  0  0  0  0  0  0  0  0  0  0  0
  147.6358  138.5258  152.4749 N   0  0  0  0  0  0  0  0  0  0  0  0
  146.3902  138.3041  151.7455 C   0  0  0  0  0  0  0  0  0  0  0  0
  145.5456  137.1817  152.3808 C   0  0  1  0  0  0  0  0  0  0  0  0
  144.1715  137.6320  152.8993 C   0  0  0  0  0  0  0  0  0  0  0  0
  143.2727  136.3866  152.8718 C   0  0  0  0  0  0  0  0  0  0  0  0
  144.0480  135.3094  152.1019 C   0  0  0  0  0  0  0  0  0  0  0  0
  145.1933  136.0514  151.4088 C   0  0  2  0  0  0  0  0  0  0  0  0
  146.2895  135.1951  151.1633 O   0  0  0  0  0  0  0  0  0  0  0  0
  149.4315  141.6747  154.9496 C   0  0  0  0  0  0  0  0  0  0  0  0
  150.0817  142.4148  155.8730 N   0  3  0  0  0  0  0  0  0  0  0  0
  152.2044  144.4408  156.4523 H   0  0  0  0  0  0  0  0  0  0  0  0
  152.1362  144.7809  158.1800 H   0  0  0  0  0  0  0  0  0  0  0  0
  150.6404  144.6196  157.2637 H   0  0  0  0  0  0  0  0  0  0  0  0
  151.4676  141.7597  159.4616 H   0  0  0  0  0  0  0  0  0  0  0  0
  152.6521  143.0635  159.4703 H   0  0  0  0  0  0  0  0  0  0  0  0
  153.0177  141.5616  158.6261 H   0  0  0  0  0  0  0  0  0  0  0  0
  152.0952  140.0982  157.2568 H   0  0  0  0  0  0  0  0  0  0  0  0
  150.9494  138.6883  155.5924 H   0  0  0  0  0  0  0  0  0  0  0  0
  149.6404  138.6363  153.5890 H   0  0  0  0  0  0  0  0  0  0  0  0
  148.3793  137.8637  152.3072 H   0  0  0  0  0  0  0  0  0  0  0  0
  145.8098  139.2251  151.6698 H   0  0  0  0  0  0  0  0  0  0  0  0
  146.6521  138.0284  150.7236 H   0  0  0  0  0  0  0  0  0  0  0  0
  146.0971  136.7534  153.2204 H   0  0  0  0  0  0  0  0  0  0  0  0
  144.2335  138.0737  153.8943 H   0  0  0  0  0  0  0  0  0  0  0  0
  143.7511  138.3873  152.2342 H   0  0  0  0  0  0  0  0  0  0  0  0
  143.0401  136.0433  153.8803 H   0  0  0  0  0  0  0  0  0  0  0  0
  142.3268  136.6148  152.3794 H   0  0  0  0  0  0  0  0  0  0  0  0
  144.4482  134.5848  152.8130 H   0  0  0  0  0  0  0  0  0  0  0  0
  143.4193  134.7639  151.3973 H   0  0  0  0  0  0  0  0  0  0  0  0
  144.8406  136.4680  150.4640 H   0  0  0  0  0  0  0  0  0  0  0  0
  147.0650  135.5863  151.5359 H   0  0  0  0  0  0  0  0  0  0  0  0
  148.7217  142.2253  154.3510 H   0  0  0  0  0  0  0  0  0  0  0  0
  149.8500  143.4061  155.9390 H   0  0  0  0  0  0  0  0  0  0  0  0
  1  2  1  0  0  0  0
  1 21  1  0  0  0  0
  1 22  1  0  0  0  0
  1 23  1  0  0  0  0
  2  3  1  0  0  0  0
  2  4  1  0  0  0  0
  3 24  1  0  0  0  0
  3 25  1  0  0  0  0
  3 26  1  0  0  0  0
  4 20  1  0  0  0  0
  4  5  2  0  0  0  0
  5  6  1  0  0  0  0
  5 27  1  0  0  0  0
  6  7  2  0  0  0  0
  6 28  1  0  0  0  0
  7  8  1  0  0  0  0
  7 19  1  0  0  0  0
  8  9  1  0  0  0  0
  8 29  1  0  0  0  0
  9 10  2  0  0  0  0
  9 11  1  0  0  0  0
 11 12  1  0  0  0  0
 11 30  1  0  0  0  0
 12 13  1  0  0  0  0
 12 31  1  0  0  0  0
 12 32  1  0  0  0  0
 13 17  1  0  0  0  0
 13 14  1  0  0  0  0
 13 33  1  0  0  0  0
 14 15  1  0  0  0  0
 14 34  1  0  0  0  0
 14 35  1  0  0  0  0
 15 16  1  0  0  0  0
 15 36  1  0  0  0  0
 15 37  1  0  0  0  0
 16 17  1  0  0  0  0
 16 38  1  0  0  0  0
 16 39  1  0  0  0  0
 17 18  1  0  0  0  0
 17 40  1  0  0  0  0
 18 41  1  0  0  0  0
 19 20  2  0  0  0  0
 19 42  1  0  0  0  0
 20 43  1  0  0  0  0
M  CHG  1  20   1
M  END
> <s_m_source_file>
AV-unprocessed.smi

> <i_m_source_file_index>
694

> <i_lp_mmshare_version>
43012

> <i_f3d_flags>
0

> <s_epik_input>
W0NIM11OKFtDSDNdKWMxW2NIXVtjSF1jKFtjSF1uMSlbTkhdQyg9TylbTkhdW0NIMl1bQ0BASF0yW0NIMl1bQ0gyXVtDSDJdW0NASF0yW09IXQ==

> <s_epik_cmdline>
J2VwaWtfcHl0aG9uJywgJy1waCcsICc3LjAnLCAnLXRuJywgJzgnLCAnLW1hJywgJzIwMCcsICctbWV0YWxfYmluZGluZycsICctaW1hZScsICc8aW5maWxlLm1hZT4nLCAnLW9tYWUnLCAnPG91dGZpbGUubWFlPic=

> <r_lp_tautomer_probability>
0.999994

> <r_epik_Ionization_Penalty>
0.266135

> <r_epik_Ionization_Penalty_Charging>
0.266113

> <r_epik_Ionization_Penalty_Neutral>
2.14137e-05

> <r_epik_State_Penalty>
0.258052

> <r_epik_Charging_Adjusted_Penalty>
0.524165

> <i_epik_Tot_Q>
1

> <i_epik_Tot_abs_Q>
1

> <r_epik_Metal_State_Penalty>
0.544313

> <b_epik_Metal_Only>
0

> <s_lp_Force_Field>
OPLS_2005

> <r_lp_Energy>
30.8894

> <b_lp_Chiralities_Consistent>
1

> <s_lp_Variant>
AV-unprocessed.smi:694-4

> <Gold.Version>
5.8.1

> <Gold.Id.Protein>
6NUR|6NUR_protein|mol2

> <Gold.PLP.Fitness>
48.0842

> <Gold.PLP.PLP>
-38.6554

> <Gold.PLP.part.hbond>
-5.0000

> <Gold.PLP.part.metal>
0.0000

> <Gold.PLP.part.buried>
1.2696

> <Gold.PLP.part.nonpolar>
-35.3638

> <Gold.PLP.part.repulsive>
0.4673

> <Gold.PLP.ligand.clash>
0.0000

> <Gold.PLP.ligand.torsion>
1.2941

> <Gold.PLP.Chemscore.Hbond>
4.0000

> <Gold.PLP.Chemscore.CHOScore>
0.0000

> <Gold.PLP.Chemscore.Metal>
0.0000

> <Gold.Chemscore.Hbonds>
donor molecule, donor type, donor heavy atom, donor atom, acceptor molecule, acceptor atom, score
      L1  H    11    30       P1  7948  1.00
      L1  H    18    41       P1  7948  1.00
      L1  H    20    43       P1  8028  2.00

> <Gold.PLP.Chemscore.Internal.Correction>
0.0170

> <Gold.Rescore>
     Score         DG    S(hbond)    S(metal)    S(lipo)     H(rot)  DE(clash)    DE(int)     intcor
     17.56     -19.88       2.87        0.00      79.35       1.75       0.23       2.09       ----

> <Gold.Chemscore.Fitness>
17.5568

> <Gold.Chemscore.DG>
-19.8777

> <Gold.Chemscore.ZeroCoef>
-5.4800

> <Gold.Chemscore.Hbond>
2.8711

> <Gold.Chemscore.Metal>
0.0000

> <Gold.Chemscore.Lipo>
79.3541

> <Gold.Chemscore.Internal_Hbond>
0.0000

> <Gold.Chemscore.DEClash>
0.2304

> <Gold.Chemscore.DEInternal>
2.0905

> <Gold.Chemscore.Rot>
1.7485

> <Gold.Chemscore.Internal.Correction>
   9.000000E+99

> <Gold.Chemscore.Hbonds>
donor molecule, donor type, donor heavy atom, donor atom, acceptor molecule, acceptor atom, score
      L1  H    11    30       P1  7948  0.96
      L1  H    18    41       P1  7948  0.97
      L1  H    20    43       P1  8028  0.97

> <Gold.Chemscore.Hbond.Weighted>
-9.5894

> <Gold.Chemscore.Metal.Weighted>
-0.0000

> <Gold.Chemscore.Lipo.Weighted>
-9.2844

> <Gold.Chemscore.Internal_Hbond.Weighted>
0.0000

> <Gold.Chemscore.DEClash.Weighted>
0.2304

> <Gold.Chemscore.DEInternal.Weighted>
2.0905

> <Gold.Chemscore.Rot.Weighted>
4.4762

> <Gold.Chemscore.Internal.Correction.Weighted>
   9.000000E+99

> <Gold.Protein.RotatedTorsions>
[ 6907 6896 6895 6894 ] final  175.90 input  -60.11 | X-H torsion
[ 7974 7965 7964 7962 ] final   84.91 input  175.53 | X-H torsion
[ 8008 7997 7996 7995 ] final  -93.35 input   59.86 | X-H torsion
[ 10167 10162 10161 10158 ] final -120.72 input  -65.29 | X-H torsion
[ 10718 10713 10712 10709 ] final   42.74 input   66.30 | X-H torsion
[ 10763 10752 10751 10750 ] final  -58.40 input  -60.55 | X-H torsion
[ 11005 11000 10999 10996 ] final   16.17 input  -57.11 | X-H torsion

> <Gold.Protein.ActiveResidues>
 VAL166  LYS551  ARG553  GLY616  TRP617  ASP618  TYR619  PRO620  LYS621  CYS622 
 ASP623  PHE694  ASN695  SER759  ASP760  ASP761  ALA762  ILE779  LEU786  VAL792 
 PHE793  MET794  SER795  GLU796  ALA797  LYS798  CYS799  TRP800  GLU811  SER814 

> <Gold.Protein.RotatedAtoms>
  151.7288  133.3317  159.3334 H   0  0  0  0  0  0  0  0  0  0  0  0  # atno 6907 bound_to 6896
  150.7621  134.6382  159.6232 H   0  0  0  0  0  0  0  0  0  0  0  0  # atno 6908 bound_to 6896
  152.3605  134.6881  160.0260 H   0  0  0  0  0  0  0  0  0  0  0  0  # atno 6909 bound_to 6896
  145.5925  139.2340  143.2291 H   0  0  0  0  0  0  0  0  0  0  0  0  # atno 7974 bound_to 7965
  154.7345  140.0500  157.0756 H   0  0  0  0  0  0  0  0  0  0  0  0  # atno 8008 bound_to 7997
  155.0258  140.3152  155.4757 H   0  0  0  0  0  0  0  0  0  0  0  0  # atno 8009 bound_to 7997
  156.2849  140.2159  156.5378 H   0  0  0  0  0  0  0  0  0  0  0  0  # atno 8010 bound_to 7997
  140.0328  143.5231  152.2168 H   0  0  0  0  0  0  0  0  0  0  0  0  # atno 10167 bound_to 10162
  157.4082  130.7899  149.7407 H   0  0  0  0  0  0  0  0  0  0  0  0  # atno 10718 bound_to 10713
  154.2375  135.6349  153.5196 H   0  0  0  0  0  0  0  0  0  0  0  0  # atno 10763 bound_to 10752
  152.9936  135.5534  154.5946 H   0  0  0  0  0  0  0  0  0  0  0  0  # atno 10764 bound_to 10752
  154.5444  135.2897  155.1041 H   0  0  0  0  0  0  0  0  0  0  0  0  # atno 10765 bound_to 10752
  140.4501  134.1233  155.7701 H   0  0  0  0  0  0  0  0  0  0  0  0  # atno 11005 bound_to 11000
  146.1636  140.6751  142.9266 LP  0  0  0  0  0  0  0  0  0  0  0  0  # atno 17320 bound_to 7965
  144.7345  140.4769  143.6913 LP  0  0  0  0  0  0  0  0  0  0  0  0  # atno 17321 bound_to 7965
  139.6065  144.7597  151.3051 LP  0  0  0  0  0  0  0  0  0  0  0  0  # atno 17342 bound_to 10162
  140.7294  143.6907  150.7924 LP  0  0  0  0  0  0  0  0  0  0  0  0  # atno 17343 bound_to 10162
  155.9843  130.3993  150.3320 LP  0  0  0  0  0  0  0  0  0  0  0  0  # atno 17370 bound_to 10713
  157.1455  131.0307  151.2908 LP  0  0  0  0  0  0  0  0  0  0  0  0  # atno 17371 bound_to 10713
  141.1668  133.8688  157.1692 LP  0  0  0  0  0  0  0  0  0  0  0  0  # atno 17394 bound_to 11000
  140.0012  135.0027  157.0194 LP  0  0  0  0  0  0  0  0  0  0  0  0  # atno 17395 bound_to 11000

$$$$
