AV-unprocessed.smi:3297|AV-procd|sdf|12639|dock1
  -GOLD-   2272018573D 1   1.00000     0.00000
 Structure written by MMmdl.
 34 35  0  0  0  0  0  0  0  0  1 V2000
  148.9674  137.0195  161.8283 O   0  0  0  0  0  0  0  0  0  0  0  0
  149.2273  136.1897  160.7159 C   0  0  0  0  0  0  0  0  0  0  0  0
  149.8386  137.0115  159.5747 C   0  0  0  0  0  0  0  0  0  0  0  0
  151.2545  136.9722  159.6839 O   0  0  0  0  0  0  0  0  0  0  0  0
  151.9368  137.8513  158.7995 C   0  0  1  0  0  0  0  0  0  0  0  0
  151.5680  137.4415  157.3639 C   0  0  0  0  0  0  0  0  0  0  0  0
  152.1933  138.4149  156.3537 C   0  0  0  0  0  0  0  0  0  0  0  0
  151.7844  139.8638  156.6648 C   0  0  0  0  0  0  0  0  0  0  0  0
  152.1043  140.2108  158.0492 N   0  0  0  0  0  0  0  0  0  0  0  0
  152.0716  141.5942  158.3193 C   0  0  0  0  0  0  0  0  0  0  0  0
  151.1348  142.3473  157.6901 N   0  0  0  0  0  0  0  0  0  0  0  0
  151.1005  143.6759  157.9262 C   0  0  0  0  0  0  0  0  0  0  0  0
  151.9921  144.3279  158.7988 C   0  0  0  0  0  0  0  0  0  0  0  0
  152.9620  143.5522  159.4598 C   0  0  0  0  0  0  0  0  0  0  0  0
  153.0042  142.1648  159.2207 C   0  0  0  0  0  0  0  0  0  0  0  0
  153.9176  141.3990  159.8657 F   0  0  0  0  0  0  0  0  0  0  0  0
  151.5311  139.3180  159.0587 C   0  0  0  0  0  0  0  0  0  0  0  0
  148.5043  136.5138  162.4784 H   0  0  0  0  0  0  0  0  0  0  0  0
  149.9317  135.4215  161.0358 H   0  0  0  0  0  0  0  0  0  0  0  0
  148.3168  135.6815  160.3968 H   0  0  0  0  0  0  0  0  0  0  0  0
  149.4873  136.6529  158.6067 H   0  0  0  0  0  0  0  0  0  0  0  0
  149.5142  138.0487  159.6718 H   0  0  0  0  0  0  0  0  0  0  0  0
  153.0158  137.7391  158.9215 H   0  0  0  0  0  0  0  0  0  0  0  0
  151.9053  136.4241  157.1634 H   0  0  0  0  0  0  0  0  0  0  0  0
  150.4834  137.4406  157.2467 H   0  0  0  0  0  0  0  0  0  0  0  0
  153.2803  138.3272  156.3839 H   0  0  0  0  0  0  0  0  0  0  0  0
  151.8887  138.1509  155.3407 H   0  0  0  0  0  0  0  0  0  0  0  0
  152.2751  140.5361  155.9617 H   0  0  0  0  0  0  0  0  0  0  0  0
  150.7111  139.9868  156.5144 H   0  0  0  0  0  0  0  0  0  0  0  0
  150.3395  144.2357  157.4030 H   0  0  0  0  0  0  0  0  0  0  0  0
  151.9306  145.3941  158.9592 H   0  0  0  0  0  0  0  0  0  0  0  0
  153.6606  144.0127  160.1426 H   0  0  0  0  0  0  0  0  0  0  0  0
  150.4440  139.4094  159.0432 H   0  0  0  0  0  0  0  0  0  0  0  0
  151.8668  139.6303  160.0479 H   0  0  0  0  0  0  0  0  0  0  0  0
  1  2  1  0  0  0  0
  1 18  1  0  0  0  0
  2  3  1  0  0  0  0
  2 19  1  0  0  0  0
  2 20  1  0  0  0  0
  3  4  1  0  0  0  0
  3 21  1  0  0  0  0
  3 22  1  0  0  0  0
  4  5  1  0  0  0  0
  5 17  1  0  0  0  0
  5  6  1  0  0  0  0
  5 23  1  0  0  0  0
  6  7  1  0  0  0  0
  6 24  1  0  0  0  0
  6 25  1  0  0  0  0
  7  8  1  0  0  0  0
  7 26  1  0  0  0  0
  7 27  1  0  0  0  0
  8  9  1  0  0  0  0
  8 28  1  0  0  0  0
  8 29  1  0  0  0  0
  9 10  1  0  0  0  0
  9 17  1  0  0  0  0
 10 15  1  0  0  0  0
 10 11  2  0  0  0  0
 11 12  1  0  0  0  0
 12 13  2  0  0  0  0
 12 30  1  0  0  0  0
 13 14  1  0  0  0  0
 13 31  1  0  0  0  0
 14 15  2  0  0  0  0
 14 32  1  0  0  0  0
 15 16  1  0  0  0  0
 17 33  1  0  0  0  0
 17 34  1  0  0  0  0
M  END
> <s_m_source_file>
AV-unprocessed.smi

> <i_m_source_file_index>
3297

> <i_lp_mmshare_version>
43012

> <i_f3d_flags>
0

> <s_epik_input>
W09IXVtDSDJdW0NIMl1PW0NAQEhdMVtDSDJdW0NIMl1bQ0gyXU4oW0NIMl0xKWMybltjSF1bY0hdW2NIXWMyRg==

> <s_epik_cmdline>
J2VwaWtfcHl0aG9uJywgJy1waCcsICc3LjAnLCAnLXRuJywgJzgnLCAnLW1hJywgJzIwMCcsICctbWV0YWxfYmluZGluZycsICctaW1hZScsICc8aW5maWxlLm1hZT4nLCAnLW9tYWUnLCAnPG91dGZpbGUubWFlPic=

> <r_lp_tautomer_probability>
1

> <r_epik_Ionization_Penalty>
0.00104501

> <r_epik_Ionization_Penalty_Charging>
0

> <r_epik_Ionization_Penalty_Neutral>
0.00104501

> <r_epik_State_Penalty>
0.000654582

> <r_epik_Charging_Adjusted_Penalty>
0.000654582

> <i_epik_Tot_Q>
0

> <i_epik_Tot_abs_Q>
0

> <r_epik_Metal_State_Penalty>
-0

> <b_epik_Metal_Only>
0

> <s_lp_Force_Field>
OPLS_2005

> <r_lp_Energy>
21.7067

> <b_lp_Chiralities_Consistent>
1

> <s_lp_Variant>
AV-unprocessed.smi:3297-2

> <Gold.Version>
5.8.1

> <Gold.Id.Protein>
6NUR|6NUR_protein|mol2

> <Gold.PLP.Fitness>
44.1069

> <Gold.PLP.PLP>
-34.3430

> <Gold.PLP.part.hbond>
-3.0000

> <Gold.PLP.part.metal>
0.0000

> <Gold.PLP.part.buried>
-3.5208

> <Gold.PLP.part.nonpolar>
-28.1926

> <Gold.PLP.part.repulsive>
0.0607

> <Gold.PLP.ligand.clash>
0.0000

> <Gold.PLP.ligand.torsion>
0.7963

> <Gold.PLP.Chemscore.Hbond>
2.6713

> <Gold.PLP.Chemscore.CHOScore>
1.0000

> <Gold.PLP.Chemscore.Metal>
0.0000

> <Gold.Chemscore.Hbonds>
donor molecule, donor type, donor heavy atom, donor atom, acceptor molecule, acceptor atom, score
      P1  H  6896  6907       L1     4  0.34
      P1  H  6931  6943       L1     1  0.23
      L1  C    12    30       P1  8028  1.00

> <Gold.PLP.Chemscore.Internal.Correction>
0.3428

> <Gold.Rescore>
     Score         DG    S(hbond)    S(metal)    S(lipo)     H(rot)  DE(clash)    DE(int)     intcor
     16.50     -17.07       2.46        0.00      78.15       2.25       0.01       0.55       ----

> <Gold.Chemscore.Fitness>
16.5030

> <Gold.Chemscore.DG>
-17.0652

> <Gold.Chemscore.ZeroCoef>
-5.4800

> <Gold.Chemscore.Hbond>
2.4574

> <Gold.Chemscore.Metal>
0.0000

> <Gold.Chemscore.Lipo>
78.1508

> <Gold.Chemscore.Internal_Hbond>
0.0000

> <Gold.Chemscore.DEClash>
0.0073

> <Gold.Chemscore.DEInternal>
0.5549

> <Gold.Chemscore.Rot>
2.2524

> <Gold.Chemscore.Internal.Correction>
   9.000000E+99

> <Gold.Chemscore.Hbonds>
donor molecule, donor type, donor heavy atom, donor atom, acceptor molecule, acceptor atom, score
      P1  H  6896  6907       L1     4  0.01
      P1  H  6931  6943       L1     1  0.23

> <Gold.Chemscore.Hbond.Weighted>
-8.2077

> <Gold.Chemscore.Metal.Weighted>
-0.0000

> <Gold.Chemscore.Lipo.Weighted>
-9.1436

> <Gold.Chemscore.Internal_Hbond.Weighted>
0.0000

> <Gold.Chemscore.DEClash.Weighted>
0.0073

> <Gold.Chemscore.DEInternal.Weighted>
0.5549

> <Gold.Chemscore.Rot.Weighted>
5.7661

> <Gold.Chemscore.Internal.Correction.Weighted>
   9.000000E+99

> <Gold.Protein.RotatedTorsions>
[ 6907 6896 6895 6894 ] final  -31.13 input  -60.11 | X-H torsion
[ 7974 7965 7964 7962 ] final  -85.53 input  175.53 | X-H torsion
[ 8008 7997 7996 7995 ] final  -82.45 input   59.86 | X-H torsion
[ 10167 10162 10161 10158 ] final  158.42 input  -65.29 | X-H torsion
[ 10718 10713 10712 10709 ] final   15.94 input   66.30 | X-H torsion
[ 10763 10752 10751 10750 ] final  119.45 input  -60.55 | X-H torsion
[ 11005 11000 10999 10996 ] final  109.44 input  -57.11 | X-H torsion

> <Gold.Protein.ActiveResidues>
 VAL166  LYS551  ARG553  GLY616  TRP617  ASP618  TYR619  PRO620  LYS621  CYS622 
 ASP623  PHE694  ASN695  SER759  ASP760  ASP761  ALA762  ILE779  LEU786  VAL792 
 PHE793  MET794  SER795  GLU796  ALA797  LYS798  CYS799  TRP800  GLU811  SER814 

> <Gold.Protein.RotatedAtoms>
  151.0962  134.9945  159.8426 H   0  0  0  0  0  0  0  0  0  0  0  0  # atno 6907 bound_to 6896
  152.5433  134.2005  159.8720 H   0  0  0  0  0  0  0  0  0  0  0  0  # atno 6908 bound_to 6896
  151.2045  133.4547  159.2630 H   0  0  0  0  0  0  0  0  0  0  0  0  # atno 6909 bound_to 6896
  145.4920  140.9552  143.1806 H   0  0  0  0  0  0  0  0  0  0  0  0  # atno 7974 bound_to 7965
  154.6088  140.0633  156.9466 H   0  0  0  0  0  0  0  0  0  0  0  0  # atno 8008 bound_to 7997
  155.2008  140.3315  155.4325 H   0  0  0  0  0  0  0  0  0  0  0  0  # atno 8009 bound_to 7997
  156.2364  140.1865  156.7091 H   0  0  0  0  0  0  0  0  0  0  0  0  # atno 8010 bound_to 7997
  139.4827  144.4826  151.8422 H   0  0  0  0  0  0  0  0  0  0  0  0  # atno 10167 bound_to 10162
  157.0608  130.6308  149.5785 H   0  0  0  0  0  0  0  0  0  0  0  0  # atno 10718 bound_to 10713
  153.5833  135.3480  155.2883 H   0  0  0  0  0  0  0  0  0  0  0  0  # atno 10763 bound_to 10752
  154.8664  135.4187  154.2596 H   0  0  0  0  0  0  0  0  0  0  0  0  # atno 10764 bound_to 10752
  153.3387  135.7048  153.6955 H   0  0  0  0  0  0  0  0  0  0  0  0  # atno 10765 bound_to 10752
  139.8862  134.9458  156.6126 H   0  0  0  0  0  0  0  0  0  0  0  0  # atno 11005 bound_to 11000
  144.7828  139.6489  143.7147 LP  0  0  0  0  0  0  0  0  0  0  0  0  # atno 17320 bound_to 7965
  146.2278  139.5756  142.9575 LP  0  0  0  0  0  0  0  0  0  0  0  0  # atno 17321 bound_to 7965
  140.4304  144.2124  150.5888 LP  0  0  0  0  0  0  0  0  0  0  0  0  # atno 17342 bound_to 10162
  140.4785  143.2387  151.8988 LP  0  0  0  0  0  0  0  0  0  0  0  0  # atno 17343 bound_to 10162
  155.9979  130.5052  150.7551 LP  0  0  0  0  0  0  0  0  0  0  0  0  # atno 17370 bound_to 10713
  157.4956  131.0914  151.0375 LP  0  0  0  0  0  0  0  0  0  0  0  0  # atno 17371 bound_to 10713
  140.7800  133.8668  155.8560 LP  0  0  0  0  0  0  0  0  0  0  0  0  # atno 17394 bound_to 11000
  140.9769  134.1457  157.4529 LP  0  0  0  0  0  0  0  0  0  0  0  0  # atno 17395 bound_to 11000

$$$$
