AV-unprocessed.smi:439|AV-procd|sdf|2579|dock1
  -GOLD-   2262022563D 1   1.00000     0.00000
 Structure written by MMmdl.
 46 47  0  0  0  0  0  0  0  0  1 V2000
  145.1980  131.6259  151.5429 C   0  0  0  0  0  0  0  0  0  0  0  0
  146.3752  132.6037  151.6564 C   0  0  0  0  0  0  0  0  0  0  0  0
  147.2360  132.3904  152.9114 C   0  0  0  0  0  0  0  0  0  0  0  0
  148.5750  133.1493  152.8716 C   0  0  0  0  0  0  0  0  0  0  0  0
  149.2407  133.1694  154.1590 N   0  0  0  0  0  0  0  0  0  0  0  0
  149.4979  134.3407  154.8781 C   0  0  0  0  0  0  0  0  0  0  0  0
  149.0961  135.5439  154.3198 N   0  0  0  0  0  0  0  0  0  0  0  0
  150.1088  134.3150  156.1008 C   0  0  0  0  0  0  0  0  0  0  0  0
  150.3930  135.4975  156.8201 N   0  0  0  0  0  0  0  0  0  0  0  0
  149.2196  136.2642  157.2788 C   0  0  0  0  0  0  0  0  0  0  0  0
  148.3912  135.5377  158.3543 C   0  0  0  0  0  0  0  0  0  0  0  0
  151.6456  136.0355  156.9258 C   0  0  0  0  0  0  0  0  0  0  0  0
  152.6496  135.3586  156.6934 O   0  0  0  0  0  0  0  0  0  0  0  0
  151.7331  137.4524  157.2948 C   0  0  0  0  0  0  0  0  0  0  0  0
  152.4514  138.2859  156.5074 C   0  0  0  0  0  0  0  0  0  0  0  0
  152.5589  139.6374  156.7206 O   0  0  0  0  0  0  0  0  0  0  0  0
  151.6556  140.1619  157.6861 C   0  0  0  0  0  0  0  0  0  0  0  0
  151.5231  139.2001  158.8746 C   0  0  0  0  0  0  0  0  0  0  0  0
  151.0929  137.9235  158.4193 O   0  0  0  0  0  0  0  0  0  0  0  0
  150.5607  133.0399  156.6793 C   0  0  0  0  0  0  0  0  0  0  0  0
  151.1385  132.9035  157.7569 O   0  0  0  0  0  0  0  0  0  0  0  0
  150.2996  131.9159  155.9008 N   0  0  0  0  0  0  0  0  0  0  0  0
  149.6672  131.9177  154.6632 C   0  0  0  0  0  0  0  0  0  0  0  0
  149.5106  130.8529  154.0648 O   0  0  0  0  0  0  0  0  0  0  0  0
  150.6031  131.0234  156.2626 H   0  0  0  0  0  0  0  0  0  0  0  0
  144.5863  131.8583  150.6710 H   0  0  0  0  0  0  0  0  0  0  0  0
  144.5557  131.6790  152.4222 H   0  0  0  0  0  0  0  0  0  0  0  0
  145.5391  130.5964  151.4366 H   0  0  0  0  0  0  0  0  0  0  0  0
  146.9987  132.5361  150.7643 H   0  0  0  0  0  0  0  0  0  0  0  0
  145.9800  133.6199  151.6729 H   0  0  0  0  0  0  0  0  0  0  0  0
  146.6663  132.7192  153.7814 H   0  0  0  0  0  0  0  0  0  0  0  0
  147.4154  131.3243  153.0544 H   0  0  0  0  0  0  0  0  0  0  0  0
  149.2749  132.7047  152.1657 H   0  0  0  0  0  0  0  0  0  0  0  0
  148.4535  134.1790  152.5315 H   0  0  0  0  0  0  0  0  0  0  0  0
  148.6320  135.5848  153.4236 H   0  0  0  0  0  0  0  0  0  0  0  0
  149.2638  136.4277  154.7789 H   0  0  0  0  0  0  0  0  0  0  0  0
  149.5449  137.2346  157.6575 H   0  0  0  0  0  0  0  0  0  0  0  0
  148.5687  136.4900  156.4324 H   0  0  0  0  0  0  0  0  0  0  0  0
  147.5229  136.1353  158.6324 H   0  0  0  0  0  0  0  0  0  0  0  0
  148.9658  135.3610  159.2633 H   0  0  0  0  0  0  0  0  0  0  0  0
  148.0230  134.5755  158.0019 H   0  0  0  0  0  0  0  0  0  0  0  0
  152.9840  137.9832  155.6170 H   0  0  0  0  0  0  0  0  0  0  0  0
  152.0158  141.1348  158.0203 H   0  0  0  0  0  0  0  0  0  0  0  0
  150.6840  140.3219  157.2170 H   0  0  0  0  0  0  0  0  0  0  0  0
  152.4773  139.0945  159.3931 H   0  0  0  0  0  0  0  0  0  0  0  0
  150.8036  139.5821  159.5988 H   0  0  0  0  0  0  0  0  0  0  0  0
  1  2  1  0  0  0  0
  1 26  1  0  0  0  0
  1 27  1  0  0  0  0
  1 28  1  0  0  0  0
  2  3  1  0  0  0  0
  2 29  1  0  0  0  0
  2 30  1  0  0  0  0
  3  4  1  0  0  0  0
  3 31  1  0  0  0  0
  3 32  1  0  0  0  0
  4  5  1  0  0  0  0
  4 33  1  0  0  0  0
  4 34  1  0  0  0  0
  5 23  1  0  0  0  0
  5  6  1  0  0  0  0
  6  7  1  0  0  0  0
  6  8  2  0  0  0  0
  7 35  1  0  0  0  0
  7 36  1  0  0  0  0
  8  9  1  0  0  0  0
  8 20  1  0  0  0  0
  9 10  1  0  0  0  0
  9 12  1  0  0  0  0
 10 11  1  0  0  0  0
 10 37  1  0  0  0  0
 10 38  1  0  0  0  0
 11 39  1  0  0  0  0
 11 40  1  0  0  0  0
 11 41  1  0  0  0  0
 12 13  2  0  0  0  0
 12 14  1  0  0  0  0
 14 19  1  0  0  0  0
 14 15  2  0  0  0  0
 15 16  1  0  0  0  0
 15 42  1  0  0  0  0
 16 17  1  0  0  0  0
 17 18  1  0  0  0  0
 17 43  1  0  0  0  0
 17 44  1  0  0  0  0
 18 19  1  0  0  0  0
 18 45  1  0  0  0  0
 18 46  1  0  0  0  0
 20 21  2  0  0  0  0
 20 22  1  0  0  0  0
 22 25  1  0  0  0  0
 22 23  1  0  0  0  0
 23 24  2  0  0  0  0
M  END
> <s_m_source_file>
AV-unprocessed.smi

> <i_m_source_file_index>
439

> <i_lp_mmshare_version>
43012

> <i_f3d_flags>
0

> <s_epik_input>
W0NIM11bQ0gyXVtDSDJdW0NIMl1uMWMoW05IMl0pYyhjKD1PKVtuSF1jMT1PKU4oW0NIMl1bQ0gzXSlDKD1PKUMyPVtDSF1PW0NIMl1bQ0gyXU8y

> <s_epik_cmdline>
J2VwaWtfcHl0aG9uJywgJy1waCcsICc3LjAnLCAnLXRuJywgJzgnLCAnLW1hJywgJzIwMCcsICctbWV0YWxfYmluZGluZycsICctaW1hZScsICc8aW5maWxlLm1hZT4nLCAnLW9tYWUnLCAnPG91dGZpbGUubWFlPic=

> <r_lp_tautomer_probability>
1

> <r_epik_Ionization_Penalty>
3.16361e-05

> <r_epik_Ionization_Penalty_Charging>
2.29435e-05

> <r_epik_Ionization_Penalty_Neutral>
8.69256e-06

> <r_epik_State_Penalty>
-0

> <r_epik_Charging_Adjusted_Penalty>
2.29435e-05

> <i_epik_Tot_Q>
0

> <i_epik_Tot_abs_Q>
0

> <r_epik_Metal_State_Penalty>
0.0222995

> <b_epik_Metal_Only>
0

> <s_epik_Chemistry_Notes>
This compound has an imine and may undergo hydrolysis.

> <s_lp_Force_Field>
OPLS_2005

> <r_lp_Energy>
28.4658

> <b_lp_Chiralities_Consistent>
1

> <s_lp_Variant>
AV-unprocessed.smi:439-1

> <Gold.Version>
5.8.1

> <Gold.Id.Protein>
6NUR|6NUR_protein|mol2

> <Gold.PLP.Fitness>
42.4680

> <Gold.PLP.PLP>
-32.2555

> <Gold.PLP.part.hbond>
-3.7815

> <Gold.PLP.part.metal>
0.0000

> <Gold.PLP.part.buried>
-4.4193

> <Gold.PLP.part.nonpolar>
-24.6684

> <Gold.PLP.part.repulsive>
0.1129

> <Gold.PLP.ligand.clash>
0.0000

> <Gold.PLP.ligand.torsion>
2.4654

> <Gold.PLP.Chemscore.Hbond>
3.7600

> <Gold.PLP.Chemscore.CHOScore>
0.0000

> <Gold.PLP.Chemscore.Metal>
0.0000

> <Gold.Chemscore.Hbonds>
donor molecule, donor type, donor heavy atom, donor atom, acceptor molecule, acceptor atom, score
      L1  H     7    35       P1  7948  0.74
      P1  H  6896  6908       L1    21  1.00
      P1  H  7997  8008       L1    16  1.00
      P1  H 10752 10763       L1    13  1.00

> <Gold.PLP.Chemscore.Internal.Correction>
3.8632

> <Gold.Rescore>
     Score         DG    S(hbond)    S(metal)    S(lipo)     H(rot)  DE(clash)    DE(int)     intcor
     16.42     -20.46       3.82        0.00      55.25       1.66       0.07       3.97       ----

> <Gold.Chemscore.Fitness>
16.4152

> <Gold.Chemscore.DG>
-20.4569

> <Gold.Chemscore.ZeroCoef>
-5.4800

> <Gold.Chemscore.Hbond>
3.8179

> <Gold.Chemscore.Metal>
0.0000

> <Gold.Chemscore.Lipo>
55.2546

> <Gold.Chemscore.Internal_Hbond>
0.0000

> <Gold.Chemscore.DEClash>
0.0727

> <Gold.Chemscore.DEInternal>
3.9690

> <Gold.Chemscore.Rot>
1.6562

> <Gold.Chemscore.Internal.Correction>
   9.000000E+99

> <Gold.Chemscore.Hbonds>
donor molecule, donor type, donor heavy atom, donor atom, acceptor molecule, acceptor atom, score
      L1  H     7    35       P1  7948  0.72
      P1  H  6896  6908       L1    21  0.91
      P1  H  7997  8008       L1    16  0.65
      P1  H 10752 10763       L1    13  0.98

> <Gold.Chemscore.Hbond.Weighted>
-12.7519

> <Gold.Chemscore.Metal.Weighted>
-0.0000

> <Gold.Chemscore.Lipo.Weighted>
-6.4648

> <Gold.Chemscore.Internal_Hbond.Weighted>
0.0000

> <Gold.Chemscore.DEClash.Weighted>
0.0727

> <Gold.Chemscore.DEInternal.Weighted>
3.9690

> <Gold.Chemscore.Rot.Weighted>
4.2398

> <Gold.Chemscore.Internal.Correction.Weighted>
   9.000000E+99

> <Gold.Protein.RotatedTorsions>
[ 6907 6896 6895 6894 ] final   90.79 input  -60.11 | X-H torsion
[ 7974 7965 7964 7962 ] final   83.87 input  175.53 | X-H torsion
[ 8008 7997 7996 7995 ] final  -60.22 input   59.86 | X-H torsion
[ 10167 10162 10161 10158 ] final -141.37 input  -65.29 | X-H torsion
[ 10718 10713 10712 10709 ] final   44.93 input   66.30 | X-H torsion
[ 10763 10752 10751 10750 ] final  114.93 input  -60.55 | X-H torsion
[ 11005 11000 10999 10996 ] final  -85.89 input  -57.11 | X-H torsion

> <Gold.Protein.ActiveResidues>
 VAL166  LYS551  ARG553  GLY616  TRP617  ASP618  TYR619  PRO620  LYS621  CYS622 
 ASP623  PHE694  ASN695  SER759  ASP760  ASP761  ALA762  ILE779  LEU786  VAL792 
 PHE793  MET794  SER795  GLU796  ALA797  LYS798  CYS799  TRP800  GLU811  SER814 

> <Gold.Protein.RotatedAtoms>
  152.5446  134.1757  159.8614 H   0  0  0  0  0  0  0  0  0  0  0  0  # atno 6907 bound_to 6896
  151.1763  133.4745  159.2601 H   0  0  0  0  0  0  0  0  0  0  0  0  # atno 6908 bound_to 6896
  151.1223  135.0097  159.8599 H   0  0  0  0  0  0  0  0  0  0  0  0  # atno 6909 bound_to 6896
  145.6062  139.2360  143.2218 H   0  0  0  0  0  0  0  0  0  0  0  0  # atno 7974 bound_to 7965
  154.4389  140.1044  156.6240 H   0  0  0  0  0  0  0  0  0  0  0  0  # atno 8008 bound_to 7997
  155.5677  140.3488  155.4488 H   0  0  0  0  0  0  0  0  0  0  0  0  # atno 8009 bound_to 7997
  156.0413  140.1282  157.0142 H   0  0  0  0  0  0  0  0  0  0  0  0  # atno 8010 bound_to 7997
  139.8191  143.7598  152.2665 H   0  0  0  0  0  0  0  0  0  0  0  0  # atno 10167 bound_to 10162
  157.4321  130.8031  149.7613 H   0  0  0  0  0  0  0  0  0  0  0  0  # atno 10718 bound_to 10713
  153.5146  135.3610  155.2603 H   0  0  0  0  0  0  0  0  0  0  0  0  # atno 10763 bound_to 10752
  154.8739  135.4031  154.3330 H   0  0  0  0  0  0  0  0  0  0  0  0  # atno 10764 bound_to 10752
  153.3989  135.7074  153.6507 H   0  0  0  0  0  0  0  0  0  0  0  0  # atno 10765 bound_to 10752
  141.1636  133.7424  156.9082 H   0  0  0  0  0  0  0  0  0  0  0  0  # atno 11005 bound_to 11000
  146.1539  140.6886  142.9309 LP  0  0  0  0  0  0  0  0  0  0  0  0  # atno 17320 bound_to 7965
  144.7289  140.4611  143.6952 LP  0  0  0  0  0  0  0  0  0  0  0  0  # atno 17321 bound_to 7965
  139.7771  144.7457  151.0141 LP  0  0  0  0  0  0  0  0  0  0  0  0  # atno 17342 bound_to 10162
  140.7814  143.4582  151.0315 LP  0  0  0  0  0  0  0  0  0  0  0  0  # atno 17343 bound_to 10162
  155.9917  130.3936  150.2974 LP  0  0  0  0  0  0  0  0  0  0  0  0  # atno 17370 bound_to 10713
  157.1131  131.0227  151.3040 LP  0  0  0  0  0  0  0  0  0  0  0  0  # atno 17371 bound_to 10713
  140.1535  134.9214  157.2624 LP  0  0  0  0  0  0  0  0  0  0  0  0  # atno 17394 bound_to 11000
  140.2694  134.3477  155.7378 LP  0  0  0  0  0  0  0  0  0  0  0  0  # atno 17395 bound_to 11000

$$$$
