AV-unprocessed.smi:1624|AV-procd|sdf|6503|dock5
  -GOLD-   22720 7173D 1   1.00000     0.00000
 Structure written by MMmdl.
 36 37  0  0  0  0  0  0  0  0  1 V2000
  146.7081  137.2391  153.6020 O   0  0  0  0  0  0  0  0  0  0  0  0
  145.8960  138.0716  153.1971 C   0  0  0  0  0  0  0  0  0  0  0  0
  144.7850  137.7507  152.5187 N   0  0  0  0  0  0  0  0  0  0  0  0
  144.3812  136.3945  152.1704 C   0  0  0  0  0  0  0  0  0  0  0  0
  145.5853  135.5366  151.7395 C   0  0  0  0  0  0  0  0  0  0  0  0
  145.2459  134.1086  151.7522 N   0  0  0  0  0  0  0  0  0  0  0  0
  143.9743  133.7363  151.1102 C   0  0  0  0  0  0  0  0  0  0  0  0
  144.1508  132.9666  149.7802 C   0  0  0  0  0  0  0  0  0  0  0  0
  145.4214  132.1030  149.6531 C   0  0  0  0  0  0  0  0  0  0  0  0
  145.6550  131.1116  150.8123 C   0  0  0  0  0  0  0  0  0  0  0  0
  145.6605  131.7085  152.2400 C   0  0  0  0  0  0  0  0  0  0  0  0
  146.0736  133.1878  152.3049 C   0  0  0  0  0  0  0  0  0  0  0  0
  147.1398  133.4819  152.8462 O   0  0  0  0  0  0  0  0  0  0  0  0
  145.9933  139.4017  153.3672 N   0  0  0  0  0  0  0  0  0  0  0  0
  147.0151  140.1336  154.0278 C   0  0  0  0  0  0  0  0  0  0  0  0
  147.8224  139.6085  154.9627 N   0  0  0  0  0  0  0  0  0  0  0  0
  148.7336  140.5396  155.4445 N   0  0  0  0  0  0  0  0  0  0  0  0
  148.5779  141.7283  154.8547 C   0  0  0  0  0  0  0  0  0  0  0  0
  147.3032  141.8265  153.6526 S   0  0  0  0  0  0  0  0  0  0  0  0
  144.1726  138.4967  152.2231 H   0  0  0  0  0  0  0  0  0  0  0  0
  143.8630  135.9314  153.0121 H   0  0  0  0  0  0  0  0  0  0  0  0
  143.6550  136.4608  151.3600 H   0  0  0  0  0  0  0  0  0  0  0  0
  145.9172  135.8340  150.7432 H   0  0  0  0  0  0  0  0  0  0  0  0
  146.4381  135.7338  152.3899 H   0  0  0  0  0  0  0  0  0  0  0  0
  143.3832  133.1406  151.8060 H   0  0  0  0  0  0  0  0  0  0  0  0
  143.3542  134.6132  150.9222 H   0  0  0  0  0  0  0  0  0  0  0  0
  143.2693  132.3471  149.6130 H   0  0  0  0  0  0  0  0  0  0  0  0
  144.1607  133.6889  148.9631 H   0  0  0  0  0  0  0  0  0  0  0  0
  145.3746  131.5460  148.7170 H   0  0  0  0  0  0  0  0  0  0  0  0
  146.2914  132.7530  149.5491 H   0  0  0  0  0  0  0  0  0  0  0  0
  144.8966  130.3294  150.7671 H   0  0  0  0  0  0  0  0  0  0  0  0
  146.6058  130.6058  150.6406 H   0  0  0  0  0  0  0  0  0  0  0  0
  144.6782  131.5953  152.6981 H   0  0  0  0  0  0  0  0  0  0  0  0
  146.3304  131.1221  152.8702 H   0  0  0  0  0  0  0  0  0  0  0  0
  145.2457  139.9577  152.9793 H   0  0  0  0  0  0  0  0  0  0  0  0
  149.2185  142.5531  155.1290 H   0  0  0  0  0  0  0  0  0  0  0  0
  1  2  2  0  0  0  0
  2  3  1  0  0  0  0
  2 14  1  0  0  0  0
  3  4  1  0  0  0  0
  3 20  1  0  0  0  0
  4  5  1  0  0  0  0
  4 21  1  0  0  0  0
  4 22  1  0  0  0  0
  5  6  1  0  0  0  0
  5 23  1  0  0  0  0
  5 24  1  0  0  0  0
  6 12  1  0  0  0  0
  6  7  1  0  0  0  0
  7  8  1  0  0  0  0
  7 25  1  0  0  0  0
  7 26  1  0  0  0  0
  8  9  1  0  0  0  0
  8 27  1  0  0  0  0
  8 28  1  0  0  0  0
  9 10  1  0  0  0  0
  9 29  1  0  0  0  0
  9 30  1  0  0  0  0
 10 11  1  0  0  0  0
 10 31  1  0  0  0  0
 10 32  1  0  0  0  0
 11 12  1  0  0  0  0
 11 33  1  0  0  0  0
 11 34  1  0  0  0  0
 12 13  2  0  0  0  0
 14 15  1  0  0  0  0
 14 35  1  0  0  0  0
 15 19  1  0  0  0  0
 15 16  2  0  0  0  0
 16 17  1  0  0  0  0
 17 18  2  0  0  0  0
 18 19  1  0  0  0  0
 18 36  1  0  0  0  0
M  END
> <s_m_source_file>
AV-unprocessed.smi

> <i_m_source_file_index>
1624

> <i_lp_mmshare_version>
43012

> <i_f3d_flags>
0

> <s_epik_input>
czFbY0hdbm5jMVtOSF1DKD1PKVtOSF1bQ0gyXVtDSDJdTjJbQ0gyXVtDSDJdW0NIMl1bQ0gyXVtDSDJdQzI9Tw==

> <s_epik_cmdline>
J2VwaWtfcHl0aG9uJywgJy1waCcsICc3LjAnLCAnLXRuJywgJzgnLCAnLW1hJywgJzIwMCcsICctbWV0YWxfYmluZGluZycsICctaW1hZScsICc8aW5maWxlLm1hZT4nLCAnLW9tYWUnLCAnPG91dGZpbGUubWFlPic=

> <r_lp_tautomer_probability>
1

> <r_epik_Ionization_Penalty>
0.00222419

> <r_epik_Ionization_Penalty_Charging>
0

> <r_epik_Ionization_Penalty_Neutral>
0.00222419

> <r_epik_State_Penalty>
-0

> <r_epik_Charging_Adjusted_Penalty>
0

> <i_epik_Tot_Q>
0

> <i_epik_Tot_abs_Q>
0

> <r_epik_Metal_State_Penalty>
0.3454

> <b_epik_Metal_Only>
0

> <s_lp_Force_Field>
OPLS_2005

> <r_lp_Energy>
20.1162

> <b_lp_Chiralities_Consistent>
1

> <s_lp_Variant>
AV-unprocessed.smi:1624-1

> <Gold.Version>
5.8.1

> <Gold.Id.Protein>
6NUR|6NUR_protein|mol2

> <Gold.PLP.Fitness>
39.4076

> <Gold.PLP.PLP>
-31.4257

> <Gold.PLP.part.hbond>
-3.0000

> <Gold.PLP.part.metal>
0.0000

> <Gold.PLP.part.buried>
-5.6016

> <Gold.PLP.part.nonpolar>
-24.5766

> <Gold.PLP.part.repulsive>
0.9990

> <Gold.PLP.ligand.clash>
0.0000

> <Gold.PLP.ligand.torsion>
0.4785

> <Gold.PLP.Chemscore.Hbond>
1.9760

> <Gold.PLP.Chemscore.CHOScore>
1.0000

> <Gold.PLP.Chemscore.Metal>
0.0000

> <Gold.Chemscore.Hbonds>
donor molecule, donor type, donor heavy atom, donor atom, acceptor molecule, acceptor atom, score
      L1  H     3    20       P1 10175  0.94
      L1  H    14    35       P1 10175  1.00
      L1  C    18    36       P1  8028  1.00

> <Gold.PLP.Chemscore.Internal.Correction>
0.0109

> <Gold.Rescore>
     Score         DG    S(hbond)    S(metal)    S(lipo)     H(rot)  DE(clash)    DE(int)     intcor
     12.43     -15.44       1.97        0.00      67.33       1.76       0.10       2.91       ----

> <Gold.Chemscore.Fitness>
12.4299

> <Gold.Chemscore.DG>
-15.4365

> <Gold.Chemscore.ZeroCoef>
-5.4800

> <Gold.Chemscore.Hbond>
1.9724

> <Gold.Chemscore.Metal>
0.0000

> <Gold.Chemscore.Lipo>
67.3342

> <Gold.Chemscore.Internal_Hbond>
0.0000

> <Gold.Chemscore.DEClash>
0.0998

> <Gold.Chemscore.DEInternal>
2.9068

> <Gold.Chemscore.Rot>
1.7615

> <Gold.Chemscore.Internal.Correction>
   9.000000E+99

> <Gold.Chemscore.Hbonds>
donor molecule, donor type, donor heavy atom, donor atom, acceptor molecule, acceptor atom, score
      L1  H     3    20       P1 10175  0.86
      L1  H    14    35       P1 10175  1.00

> <Gold.Chemscore.Hbond.Weighted>
-6.5878

> <Gold.Chemscore.Metal.Weighted>
-0.0000

> <Gold.Chemscore.Lipo.Weighted>
-7.8781

> <Gold.Chemscore.Internal_Hbond.Weighted>
0.0000

> <Gold.Chemscore.DEClash.Weighted>
0.0998

> <Gold.Chemscore.DEInternal.Weighted>
2.9068

> <Gold.Chemscore.Rot.Weighted>
4.5095

> <Gold.Chemscore.Internal.Correction.Weighted>
   9.000000E+99

> <Gold.Protein.RotatedTorsions>
[ 6907 6896 6895 6894 ] final -125.09 input  -60.11 | X-H torsion
[ 7974 7965 7964 7962 ] final -113.88 input  175.53 | X-H torsion
[ 8008 7997 7996 7995 ] final  101.02 input   59.86 | X-H torsion
[ 10167 10162 10161 10158 ] final  168.07 input  -65.29 | X-H torsion
[ 10718 10713 10712 10709 ] final   -4.65 input   66.30 | X-H torsion
[ 10763 10752 10751 10750 ] final -144.43 input  -60.55 | X-H torsion
[ 11005 11000 10999 10996 ] final  111.41 input  -57.11 | X-H torsion

> <Gold.Protein.ActiveResidues>
 VAL166  LYS551  ARG553  GLY616  TRP617  ASP618  TYR619  PRO620  LYS621  CYS622 
 ASP623  PHE694  ASN695  SER759  ASP760  ASP761  ALA762  ILE779  LEU786  VAL792 
 PHE793  MET794  SER795  GLU796  ALA797  LYS798  CYS799  TRP800  GLU811  SER814 

> <Gold.Protein.RotatedAtoms>
  150.8832  133.7343  159.2925 H   0  0  0  0  0  0  0  0  0  0  0  0  # atno 6907 bound_to 6896
  151.4917  135.1056  159.9815 H   0  0  0  0  0  0  0  0  0  0  0  0  # atno 6908 bound_to 6896
  152.4773  133.8124  159.7066 H   0  0  0  0  0  0  0  0  0  0  0  0  # atno 6909 bound_to 6896
  145.1267  140.8701  143.3782 H   0  0  0  0  0  0  0  0  0  0  0  0  # atno 7974 bound_to 7965
  156.1259  140.3204  155.8277 H   0  0  0  0  0  0  0  0  0  0  0  0  # atno 8008 bound_to 7997
  155.4420  140.0526  157.3026 H   0  0  0  0  0  0  0  0  0  0  0  0  # atno 8009 bound_to 7997
  154.4862  140.2074  155.9663 H   0  0  0  0  0  0  0  0  0  0  0  0  # atno 8010 bound_to 7997
  139.4959  144.3854  151.9576 H   0  0  0  0  0  0  0  0  0  0  0  0  # atno 10167 bound_to 10162
  156.7582  130.5261  149.5790 H   0  0  0  0  0  0  0  0  0  0  0  0  # atno 10718 bound_to 10713
  154.8428  135.3440  154.6344 H   0  0  0  0  0  0  0  0  0  0  0  0  # atno 10763 bound_to 10752
  153.6954  135.6972  153.5082 H   0  0  0  0  0  0  0  0  0  0  0  0  # atno 10764 bound_to 10752
  153.2563  135.4337  155.0804 H   0  0  0  0  0  0  0  0  0  0  0  0  # atno 10765 bound_to 10752
  139.8903  134.9507  156.6427 H   0  0  0  0  0  0  0  0  0  0  0  0  # atno 11005 bound_to 11000
  145.0680  139.3053  143.5846 LP  0  0  0  0  0  0  0  0  0  0  0  0  # atno 17320 bound_to 7965
  146.3517  140.0145  142.8664 LP  0  0  0  0  0  0  0  0  0  0  0  0  # atno 17321 bound_to 7965
  140.3291  144.3338  150.5991 LP  0  0  0  0  0  0  0  0  0  0  0  0  # atno 17342 bound_to 10162
  140.5660  143.2186  151.7683 LP  0  0  0  0  0  0  0  0  0  0  0  0  # atno 17343 bound_to 10162
  156.1357  130.6209  151.0396 LP  0  0  0  0  0  0  0  0  0  0  0  0  # atno 17370 bound_to 10713
  157.6747  131.0853  150.7525 LP  0  0  0  0  0  0  0  0  0  0  0  0  # atno 17371 bound_to 10713
  140.7581  133.8841  155.8397 LP  0  0  0  0  0  0  0  0  0  0  0  0  # atno 17394 bound_to 11000
  140.9945  134.1234  157.4377 LP  0  0  0  0  0  0  0  0  0  0  0  0  # atno 17395 bound_to 11000

$$$$
