AV-unprocessed.smi:3079|AV-procd|sdf|11737|dock7
  -GOLD-   2272017133D 1   1.00000     0.00000
 Structure written by MMmdl.
 24 25  0  0  0  0  0  0  0  0  2 V2000
  148.9270  138.7363  153.4030 N   0  3  0  0  0  0  0  0  0  0  0  0
  149.7882  139.1568  154.5205 C   0  0  0  0  0  0  0  0  0  0  0  0
  149.7427  140.6772  154.7211 C   0  0  0  0  0  0  0  0  0  0  0  0
  150.4797  141.1111  155.9433 C   0  0  0  0  0  0  0  0  0  0  0  0
  150.5786  142.3860  156.3274 N   0  0  0  0  0  0  0  0  0  0  0  0
  151.2893  142.5350  157.5218 C   0  0  0  0  0  0  0  0  0  0  0  0
  151.5095  143.9046  158.0865 C   0  0  0  0  0  0  0  0  0  0  0  0
  152.8786  144.5449  158.0705 C   0  0  0  0  0  0  0  0  0  0  0  0
  152.2721  144.0932  159.3769 C   0  0  0  0  0  0  0  0  0  0  0  0
  151.7234  141.3427  158.0457 C   0  0  0  0  0  0  0  0  0  0  0  0
  151.2446  139.9876  157.0612 S   0  0  0  0  0  0  0  0  0  0  0  0
  149.0790  139.3473  152.6131 H   0  0  0  0  0  0  0  0  0  0  0  0
  147.9584  138.7867  153.6848 H   0  0  0  0  0  0  0  0  0  0  0  0
  149.4605  138.6448  155.4259 H   0  0  0  0  0  0  0  0  0  0  0  0
  150.8091  138.8317  154.3172 H   0  0  0  0  0  0  0  0  0  0  0  0
  150.1754  141.1854  153.8586 H   0  0  0  0  0  0  0  0  0  0  0  0
  148.7090  141.0174  154.7979 H   0  0  0  0  0  0  0  0  0  0  0  0
  150.6541  144.5542  157.9127 H   0  0  0  0  0  0  0  0  0  0  0  0
  153.7113  143.9630  157.6798 H   0  0  0  0  0  0  0  0  0  0  0  0
  152.9292  145.6154  157.8829 H   0  0  0  0  0  0  0  0  0  0  0  0
  151.9183  144.8623  160.0603 H   0  0  0  0  0  0  0  0  0  0  0  0
  152.6983  143.2097  159.8483 H   0  0  0  0  0  0  0  0  0  0  0  0
  152.2907  141.1798  158.9503 H   0  0  0  0  0  0  0  0  0  0  0  0
  149.1532  137.7873  153.1411 H   0  0  0  0  0  0  0  0  0  0  0  0
  1  2  1  0  0  0  0
  1 12  1  0  0  0  0
  1 13  1  0  0  0  0
  1 24  1  0  0  0  0
  2  3  1  0  0  0  0
  2 14  1  0  0  0  0
  2 15  1  0  0  0  0
  3  4  1  0  0  0  0
  3 16  1  0  0  0  0
  3 17  1  0  0  0  0
  4 11  1  0  0  0  0
  4  5  2  0  0  0  0
  5  6  1  0  0  0  0
  6  7  1  0  0  0  0
  6 10  2  0  0  0  0
  7  9  1  0  0  0  0
  7  8  1  0  0  0  0
  7 18  1  0  0  0  0
  8  9  1  0  0  0  0
  8 19  1  0  0  0  0
  8 20  1  0  0  0  0
  9 21  1  0  0  0  0
  9 22  1  0  0  0  0
 10 11  1  0  0  0  0
 10 23  1  0  0  0  0
M  CHG  1   1   1
M  END
> <s_m_source_file>
AV-unprocessed.smi

> <i_m_source_file_index>
3079

> <i_lp_mmshare_version>
43012

> <i_f3d_flags>
0

> <s_epik_input>
W05IMl1bQ0gyXVtDSDJdYzFuYyhbY0hdczEpW0NIXTJbQ0gyXVtDSDJdMg==

> <s_epik_cmdline>
J2VwaWtfcHl0aG9uJywgJy1waCcsICc3LjAnLCAnLXRuJywgJzgnLCAnLW1hJywgJzIwMCcsICctbWV0YWxfYmluZGluZycsICctaW1hZScsICc8aW5maWxlLm1hZT4nLCAnLW9tYWUnLCAnPG91dGZpbGUubWFlPic=

> <r_lp_tautomer_probability>
1

> <r_epik_Ionization_Penalty>
0.00466735

> <r_epik_Ionization_Penalty_Charging>
0.00465044

> <r_epik_Ionization_Penalty_Neutral>
1.6915e-05

> <r_epik_State_Penalty>
-0

> <r_epik_Charging_Adjusted_Penalty>
0.00465044

> <i_epik_Tot_Q>
1

> <i_epik_Tot_abs_Q>
1

> <r_epik_Metal_State_Penalty>
-0

> <b_epik_Metal_Only>
0

> <s_lp_Force_Field>
OPLS_2005

> <r_lp_Energy>
-1.43879

> <b_lp_Chiralities_Consistent>
1

> <s_lp_Variant>
AV-unprocessed.smi:3079-1

> <Gold.Version>
5.8.1

> <Gold.Id.Protein>
6NUR|6NUR_protein|mol2

> <Gold.PLP.Fitness>
37.6173

> <Gold.PLP.PLP>
-28.7324

> <Gold.PLP.part.hbond>
-2.0000

> <Gold.PLP.part.metal>
0.0000

> <Gold.PLP.part.buried>
-2.7568

> <Gold.PLP.part.nonpolar>
-25.5373

> <Gold.PLP.part.repulsive>
1.3725

> <Gold.PLP.ligand.clash>
0.0000

> <Gold.PLP.ligand.torsion>
0.1228

> <Gold.PLP.Chemscore.Hbond>
3.0000

> <Gold.PLP.Chemscore.CHOScore>
0.0000

> <Gold.PLP.Chemscore.Metal>
0.0000

> <Gold.Chemscore.Hbonds>
donor molecule, donor type, donor heavy atom, donor atom, acceptor molecule, acceptor atom, score
      L1  H     1    12       P1  7957  1.00
      L1  H     1    24       P1  7948  1.98

> <Gold.PLP.Chemscore.Internal.Correction>
0.1304

> <Gold.Rescore>
     Score         DG    S(hbond)    S(metal)    S(lipo)     H(rot)  DE(clash)    DE(int)     intcor
     17.65     -18.02       1.97        0.00      83.00       1.47       0.14       0.23       ----

> <Gold.Chemscore.Fitness>
17.6492

> <Gold.Chemscore.DG>
-18.0159

> <Gold.Chemscore.ZeroCoef>
-5.4800

> <Gold.Chemscore.Hbond>
1.9737

> <Gold.Chemscore.Metal>
0.0000

> <Gold.Chemscore.Lipo>
82.9950

> <Gold.Chemscore.Internal_Hbond>
0.0000

> <Gold.Chemscore.DEClash>
0.1365

> <Gold.Chemscore.DEInternal>
0.2301

> <Gold.Chemscore.Rot>
1.4714

> <Gold.Chemscore.Internal.Correction>
   9.000000E+99

> <Gold.Chemscore.Hbonds>
donor molecule, donor type, donor heavy atom, donor atom, acceptor molecule, acceptor atom, score
      L1  H     1    12       P1  7957  1.00
      L1  H     1    24       P1  7948  0.91

> <Gold.Chemscore.Hbond.Weighted>
-6.5922

> <Gold.Chemscore.Metal.Weighted>
-0.0000

> <Gold.Chemscore.Lipo.Weighted>
-9.7104

> <Gold.Chemscore.Internal_Hbond.Weighted>
0.0000

> <Gold.Chemscore.DEClash.Weighted>
0.1365

> <Gold.Chemscore.DEInternal.Weighted>
0.2301

> <Gold.Chemscore.Rot.Weighted>
3.7668

> <Gold.Chemscore.Internal.Correction.Weighted>
   9.000000E+99

> <Gold.Protein.RotatedTorsions>
[ 6907 6896 6895 6894 ] final -147.43 input  -60.11 | X-H torsion
[ 7974 7965 7964 7962 ] final   45.44 input  175.53 | X-H torsion
[ 8008 7997 7996 7995 ] final  165.51 input   59.86 | X-H torsion
[ 10167 10162 10161 10158 ] final  126.32 input  -65.29 | X-H torsion
[ 10718 10713 10712 10709 ] final  -97.75 input   66.30 | X-H torsion
[ 10763 10752 10751 10750 ] final -138.92 input  -60.55 | X-H torsion
[ 11005 11000 10999 10996 ] final  147.58 input  -57.11 | X-H torsion

> <Gold.Protein.ActiveResidues>
 VAL166  LYS551  ARG553  GLY616  TRP617  ASP618  TYR619  PRO620  LYS621  CYS622 
 ASP623  PHE694  ASN695  SER759  ASP760  ASP761  ALA762  ILE779  LEU786  VAL792 
 PHE793  MET794  SER795  GLU796  ALA797  LYS798  CYS799  TRP800  GLU811  SER814 

> <Gold.Protein.RotatedAtoms>
  151.1555  133.4879  159.2594 H   0  0  0  0  0  0  0  0  0  0  0  0  # atno 6907 bound_to 6896
  151.1509  135.0226  159.8677 H   0  0  0  0  0  0  0  0  0  0  0  0  # atno 6908 bound_to 6896
  152.5463  134.1439  159.8544 H   0  0  0  0  0  0  0  0  0  0  0  0  # atno 6909 bound_to 6896
  146.0480  139.4964  142.9736 H   0  0  0  0  0  0  0  0  0  0  0  0  # atno 7974 bound_to 7965
  156.1795  140.1668  156.8301 H   0  0  0  0  0  0  0  0  0  0  0  0  # atno 8008 bound_to 7997
  154.5344  140.0750  156.8434 H   0  0  0  0  0  0  0  0  0  0  0  0  # atno 8009 bound_to 7997
  155.3342  140.3381  155.4241 H   0  0  0  0  0  0  0  0  0  0  0  0  # atno 8010 bound_to 7997
  139.5638  144.6898  151.3969 H   0  0  0  0  0  0  0  0  0  0  0  0  # atno 10167 bound_to 10162
  156.0091  130.5208  150.6421 H   0  0  0  0  0  0  0  0  0  0  0  0  # atno 10718 bound_to 10713
  154.8624  135.3598  154.5462 H   0  0  0  0  0  0  0  0  0  0  0  0  # atno 10763 bound_to 10752
  153.6082  135.7010  153.5362 H   0  0  0  0  0  0  0  0  0  0  0  0  # atno 10764 bound_to 10752
  153.3232  135.4145  155.1395 H   0  0  0  0  0  0  0  0  0  0  0  0  # atno 10765 bound_to 10752
  140.0888  134.9053  157.1617 H   0  0  0  0  0  0  0  0  0  0  0  0  # atno 11005 bound_to 11000
  145.6773  141.0201  143.1625 LP  0  0  0  0  0  0  0  0  0  0  0  0  # atno 17320 bound_to 7965
  144.7108  139.8380  143.7415 LP  0  0  0  0  0  0  0  0  0  0  0  0  # atno 17321 bound_to 7965
  140.6920  143.7840  150.7269 LP  0  0  0  0  0  0  0  0  0  0  0  0  # atno 17342 bound_to 10162
  140.1325  143.4513  152.2245 LP  0  0  0  0  0  0  0  0  0  0  0  0  # atno 17343 bound_to 10162
  157.4199  131.0835  151.1141 LP  0  0  0  0  0  0  0  0  0  0  0  0  # atno 17370 bound_to 10713
  157.1746  130.6282  149.5652 LP  0  0  0  0  0  0  0  0  0  0  0  0  # atno 17371 bound_to 10713
  140.3382  134.2733  155.7216 LP  0  0  0  0  0  0  0  0  0  0  0  0  # atno 17394 bound_to 11000
  141.2071  133.7815  157.0138 LP  0  0  0  0  0  0  0  0  0  0  0  0  # atno 17395 bound_to 11000

$$$$
