AV-unprocessed.smi:157|AV-procd|sdf|1311|dock3
  -GOLD-   2262019 03D 1   1.00000     0.00000
 Structure written by MMmdl.
 36 38  0  0  0  0  0  0  0  0  2 V2000
  150.1940  136.3097  158.3966 O   0  0  0  0  0  0  0  0  0  0  0  0
  150.6631  137.6278  158.2112 C   0  0  0  0  0  0  0  0  0  0  0  0
  151.4977  137.7230  156.9236 C   0  0  1  0  0  0  0  0  0  0  0  0
  150.6431  137.7948  155.7777 O   0  0  0  0  0  0  0  0  0  0  0  0
  151.0745  138.7936  154.8980 C   0  0  1  0  0  0  0  0  0  0  0  0
  150.1645  139.9811  155.0358 N   0  0  0  0  0  0  0  0  0  0  0  0
  150.4769  141.1970  155.5358 C   0  0  0  0  0  0  0  0  0  0  0  0
  149.4717  142.0554  155.5572 N   0  3  0  0  0  0  0  0  0  0  0  0
  148.3765  141.3867  155.0551 C   0  0  0  0  0  0  0  0  0  0  0  0
  148.8251  140.1018  154.7390 C   0  0  0  0  0  0  0  0  0  0  0  0
  148.1187  139.0101  154.2113 N   0  0  0  0  0  0  0  0  0  0  0  0
  146.9631  139.1280  153.6423 C   0  0  0  0  0  0  0  0  0  0  0  0
  146.1630  140.2511  153.5145 N   0  0  0  0  0  0  0  0  0  0  0  0
  145.8810  141.1513  154.6184 C   0  0  0  0  0  0  0  0  0  0  0  0
  147.0515  142.0783  154.9720 C   0  0  2  0  0  0  0  0  0  0  0  0
  147.0607  143.1603  154.0635 O   0  0  0  0  0  0  0  0  0  0  0  0
  152.4906  139.1633  155.3379 C   0  0  0  0  0  0  0  0  0  0  0  0
  152.4047  138.9569  156.8354 C   0  0  2  0  0  0  0  0  0  0  0  0
  153.6875  138.7273  157.3795 O   0  0  0  0  0  0  0  0  0  0  0  0
  152.0926  136.8161  156.7983 H   0  0  0  0  0  0  0  0  0  0  0  0
  150.9857  138.4968  153.8524 H   0  0  0  0  0  0  0  0  0  0  0  0
  146.8439  142.5118  155.9509 H   0  0  0  0  0  0  0  0  0  0  0  0
  151.9416  139.8222  157.3118 H   0  0  0  0  0  0  0  0  0  0  0  0
  149.5125  136.1403  157.7641 H   0  0  0  0  0  0  0  0  0  0  0  0
  149.8000  138.2909  158.1470 H   0  0  0  0  0  0  0  0  0  0  0  0
  151.2413  137.9314  159.0836 H   0  0  0  0  0  0  0  0  0  0  0  0
  151.4584  141.4470  155.8943 H   0  0  0  0  0  0  0  0  0  0  0  0
  146.5059  138.2470  153.1898 H   0  0  0  0  0  0  0  0  0  0  0  0
  145.3988  140.2273  152.8541 H   0  0  0  0  0  0  0  0  0  0  0  0
  144.9811  141.7281  154.4015 H   0  0  0  0  0  0  0  0  0  0  0  0
  145.6430  140.5359  155.4875 H   0  0  0  0  0  0  0  0  0  0  0  0
  147.6234  143.8386  154.4039 H   0  0  0  0  0  0  0  0  0  0  0  0
  153.1854  138.4562  154.8818 H   0  0  0  0  0  0  0  0  0  0  0  0
  152.7740  140.1741  155.0442 H   0  0  0  0  0  0  0  0  0  0  0  0
  153.5991  138.1536  158.1259 H   0  0  0  0  0  0  0  0  0  0  0  0
  149.5027  143.0092  155.8942 H   0  0  0  0  0  0  0  0  0  0  0  0
  1  2  1  0  0  0  0
  1 24  1  0  0  0  0
  2  3  1  0  0  0  0
  2 25  1  0  0  0  0
  2 26  1  0  0  0  0
  3 20  1  0  0  0  0
  3 18  1  0  0  0  0
  3  4  1  0  0  0  0
  4  5  1  0  0  0  0
  5 21  1  0  0  0  0
  5  6  1  0  0  0  0
  5 17  1  0  0  0  0
  6 10  1  0  0  0  0
  6  7  1  0  0  0  0
  7  8  2  0  0  0  0
  7 27  1  0  0  0  0
  8  9  1  0  0  0  0
  8 36  1  0  0  0  0
  9 15  1  0  0  0  0
  9 10  2  0  0  0  0
 10 11  1  0  0  0  0
 11 12  2  0  0  0  0
 12 13  1  0  0  0  0
 12 28  1  0  0  0  0
 13 14  1  0  0  0  0
 13 29  1  0  0  0  0
 14 15  1  0  0  0  0
 14 30  1  0  0  0  0
 14 31  1  0  0  0  0
 15 22  1  0  0  0  0
 15 16  1  0  0  0  0
 16 32  1  0  0  0  0
 17 18  1  0  0  0  0
 17 33  1  0  0  0  0
 17 34  1  0  0  0  0
 18 23  1  0  0  0  0
 18 19  1  0  0  0  0
 19 35  1  0  0  0  0
M  CHG  1   8   1
M  END
> <s_m_source_file>
AV-unprocessed.smi

> <i_m_source_file_index>
157

> <i_lp_mmshare_version>
43012

> <i_f3d_flags>
0

> <s_epik_input>
W09IXVtDSDJdW0NASF0xT1tDQEhdKFtDSDJdW0NAQEhdMVtPSF0pbihbY0hdbjIpYyhjMjMpTj1bQ0hdW05IXVtDSDJdW0NASF0zW09IXQ==

> <s_epik_cmdline>
J2VwaWtfcHl0aG9uJywgJy1waCcsICc3LjAnLCAnLXRuJywgJzgnLCAnLW1hJywgJzIwMCcsICctbWV0YWxfYmluZGluZycsICctaW1hZScsICc8aW5maWxlLm1hZT4nLCAnLW9tYWUnLCAnPG91dGZpbGUubWFlPic=

> <r_epik_Ionization_Penalty>
1.68594

> <r_epik_Ionization_Penalty_Charging>
0

> <r_epik_Ionization_Penalty_Neutral>
1.68594

> <r_epik_State_Penalty>
1.79006

> <r_epik_Charging_Adjusted_Penalty>
1.79006

> <i_epik_Tot_Q>
1

> <i_epik_Tot_abs_Q>
1

> <r_epik_Metal_State_Penalty>
5.85324

> <b_epik_Metal_Only>
0

> <s_epik_Chemistry_Notes>
This compound has an imine and may undergo hydrolysis. This compound contains an acetal/aminal-like group ( X-CH(R)-Y where X, Y are N, S, or O) that may be acid/base labile, releasing an aldehyde.

> <s_lp_Force_Field>
OPLS_2005

> <r_lp_Energy>
51.6948

> <b_lp_Chiralities_Consistent>
1

> <s_lp_Variant>
AV-unprocessed.smi:157-21

> <Gold.Version>
5.8.1

> <Gold.Id.Protein>
6NUR|6NUR_protein|mol2

> <Gold.PLP.Fitness>
44.7891

> <Gold.PLP.PLP>
-27.7158

> <Gold.PLP.part.hbond>
-6.0000

> <Gold.PLP.part.metal>
0.0000

> <Gold.PLP.part.buried>
-0.9865

> <Gold.PLP.part.nonpolar>
-20.8448

> <Gold.PLP.part.repulsive>
0.3500

> <Gold.PLP.ligand.clash>
0.0000

> <Gold.PLP.ligand.torsion>
0.2116

> <Gold.PLP.Chemscore.Hbond>
5.8240

> <Gold.PLP.Chemscore.CHOScore>
0.0000

> <Gold.PLP.Chemscore.Metal>
0.0000

> <Gold.Chemscore.Hbonds>
donor molecule, donor type, donor heavy atom, donor atom, acceptor molecule, acceptor atom, score
      L1  H     8    36       P1  8028  1.82
      L1  H    13    29       P1 10175  1.00
      L1  H    16    32       P1  8028  0.85
      P1  H  6896  6907       L1     1  0.98
      P1  H  7997  8008       L1    19  1.00

> <Gold.PLP.Chemscore.Internal.Correction>
0.0245

> <Gold.Rescore>
     Score         DG    S(hbond)    S(metal)    S(lipo)     H(rot)  DE(clash)    DE(int)     intcor
     12.22     -12.43       3.67        0.00      34.94       3.67       0.03       0.18       ----

> <Gold.Chemscore.Fitness>
12.2235

> <Gold.Chemscore.DG>
-12.4293

> <Gold.Chemscore.ZeroCoef>
-5.4800

> <Gold.Chemscore.Hbond>
3.6667

> <Gold.Chemscore.Metal>
0.0000

> <Gold.Chemscore.Lipo>
34.9356

> <Gold.Chemscore.Internal_Hbond>
0.0000

> <Gold.Chemscore.DEClash>
0.0260

> <Gold.Chemscore.DEInternal>
0.1798

> <Gold.Chemscore.Rot>
3.6659

> <Gold.Chemscore.Internal.Correction>
   9.000000E+99

> <Gold.Chemscore.Hbonds>
donor molecule, donor type, donor heavy atom, donor atom, acceptor molecule, acceptor atom, score
      L1  H     8    36       P1  8028  0.90
      L1  H    13    29       P1 10175  0.91
      L1  H    16    32       P1  8028  0.14
      P1  H  6896  6907       L1     1  0.85
      P1  H  7997  8008       L1    19  0.33

> <Gold.Chemscore.Hbond.Weighted>
-12.2466

> <Gold.Chemscore.Metal.Weighted>
-0.0000

> <Gold.Chemscore.Lipo.Weighted>
-4.0875

> <Gold.Chemscore.Internal_Hbond.Weighted>
0.0000

> <Gold.Chemscore.DEClash.Weighted>
0.0260

> <Gold.Chemscore.DEInternal.Weighted>
0.1798

> <Gold.Chemscore.Rot.Weighted>
9.3848

> <Gold.Chemscore.Internal.Correction.Weighted>
   9.000000E+99

> <Gold.Protein.RotatedTorsions>
[ 6907 6896 6895 6894 ] final  -45.96 input  -60.11 | X-H torsion
[ 7974 7965 7964 7962 ] final  133.68 input  175.53 | X-H torsion
[ 8008 7997 7996 7995 ] final  -75.17 input   59.86 | X-H torsion
[ 10167 10162 10161 10158 ] final  100.41 input  -65.29 | X-H torsion
[ 10718 10713 10712 10709 ] final   84.06 input   66.30 | X-H torsion
[ 10763 10752 10751 10750 ] final   67.23 input  -60.55 | X-H torsion
[ 11005 11000 10999 10996 ] final   89.06 input  -57.11 | X-H torsion

> <Gold.Protein.ActiveResidues>
 VAL166  LYS551  ARG553  GLY616  TRP617  ASP618  TYR619  PRO620  LYS621  CYS622 
 ASP623  PHE694  ASN695  SER759  ASP760  ASP761  ALA762  ILE779  LEU786  VAL792 
 PHE793  MET794  SER795  GLU796  ALA797  LYS798  CYS799  TRP800  GLU811  SER814 

> <Gold.Protein.RotatedAtoms>
  150.9163  134.8581  159.7458 H   0  0  0  0  0  0  0  0  0  0  0  0  # atno 6907 bound_to 6896
  152.4970  134.4284  159.9514 H   0  0  0  0  0  0  0  0  0  0  0  0  # atno 6908 bound_to 6896
  151.4322  133.3627  159.2805 H   0  0  0  0  0  0  0  0  0  0  0  0  # atno 6909 bound_to 6896
  144.9841  139.4474  143.5372 H   0  0  0  0  0  0  0  0  0  0  0  0  # atno 7974 bound_to 7965
  154.5393  140.0749  156.8482 H   0  0  0  0  0  0  0  0  0  0  0  0  # atno 8008 bound_to 7997
  155.3213  140.3396  155.4223 H   0  0  0  0  0  0  0  0  0  0  0  0  # atno 8009 bound_to 7997
  156.1859  140.1668  156.8173 H   0  0  0  0  0  0  0  0  0  0  0  0  # atno 8010 bound_to 7997
  139.7530  144.6978  151.0404 H   0  0  0  0  0  0  0  0  0  0  0  0  # atno 10167 bound_to 10162
  157.6891  131.0117  150.2616 H   0  0  0  0  0  0  0  0  0  0  0  0  # atno 10718 bound_to 10713
  153.0177  135.5291  154.6948 H   0  0  0  0  0  0  0  0  0  0  0  0  # atno 10763 bound_to 10752
  154.6073  135.2874  155.0473 H   0  0  0  0  0  0  0  0  0  0  0  0  # atno 10764 bound_to 10752
  154.1508  135.6563  153.5015 H   0  0  0  0  0  0  0  0  0  0  0  0  # atno 10765 bound_to 10752
  139.8883  134.8528  156.3089 H   0  0  0  0  0  0  0  0  0  0  0  0  # atno 11005 bound_to 11000
  146.3415  139.9131  142.8777 LP  0  0  0  0  0  0  0  0  0  0  0  0  # atno 17320 bound_to 7965
  145.2379  140.9998  143.3953 LP  0  0  0  0  0  0  0  0  0  0  0  0  # atno 17321 bound_to 7965
  140.7800  143.4786  151.0048 LP  0  0  0  0  0  0  0  0  0  0  0  0  # atno 17342 bound_to 10162
  139.8474  143.7484  152.3179 LP  0  0  0  0  0  0  0  0  0  0  0  0  # atno 17343 bound_to 10162
  156.3195  130.3783  149.7588 LP  0  0  0  0  0  0  0  0  0  0  0  0  # atno 17370 bound_to 10713
  156.5163  130.8195  151.3187 LP  0  0  0  0  0  0  0  0  0  0  0  0  # atno 17371 bound_to 10713
  140.9863  133.7236  156.0747 LP  0  0  0  0  0  0  0  0  0  0  0  0  # atno 17394 bound_to 11000
  140.7683  134.3861  157.5512 LP  0  0  0  0  0  0  0  0  0  0  0  0  # atno 17395 bound_to 11000

$$$$
