AV-unprocessed.smi:249|AV-procd|sdf|1912|dock9
  -GOLD-   2262021 03D 1   1.00000     0.00000
 Structure written by MMmdl.
 64 67  0  0  0  0  0  0  0  0  2 V2000
  145.7872  133.9319  151.2299 C   0  0  0  0  0  0  0  0  0  0  0  0
  144.7514  135.0313  150.9415 C   0  0  0  0  0  0  0  0  0  0  0  0
  144.8618  136.2052  151.8555 N   0  3  2  0  0  0  0  0  0  0  0  0
  146.2049  136.8468  151.7687 C   0  0  0  0  0  0  0  0  0  0  0  0
  146.2993  138.1124  152.6345 C   0  0  0  0  0  0  0  0  0  0  0  0
  145.9944  137.8102  154.1163 C   0  0  2  0  0  0  0  0  0  0  0  0
  147.0017  136.9585  154.7705 N   0  0  0  0  0  0  0  0  0  0  0  0
  146.5496  136.0829  155.8473 C   0  0  0  0  0  0  0  0  0  0  0  0
  148.1734  137.5469  155.1022 C   0  0  0  0  0  0  0  0  0  0  0  0
  149.2701  136.7516  155.1521 N   0  0  0  0  0  0  0  0  0  0  0  0
  150.4593  137.2748  155.4653 C   0  0  0  0  0  0  0  0  0  0  0  0
  150.7628  138.5406  155.7603 N   0  0  0  0  0  0  0  0  0  0  0  0
  149.6575  139.3392  155.7261 C   0  0  0  0  0  0  0  0  0  0  0  0
  148.3328  138.9279  155.4083 C   0  0  0  0  0  0  0  0  0  0  0  0
  147.4704  140.0156  155.4685 N   0  0  0  0  0  0  0  0  0  0  0  0
  148.2430  141.0160  155.7937 C   0  0  0  0  0  0  0  0  0  0  0  0
  149.5682  140.6957  155.9875 N   0  0  0  0  0  0  0  0  0  0  0  0
  150.6368  141.6141  156.3416 C   0  0  0  0  0  0  0  0  0  0  0  0
  151.1434  141.4950  157.8035 C   0  0  1  0  0  0  0  0  0  0  0  0
  151.8103  140.1135  157.9986 C   0  0  0  0  0  0  0  0  0  0  0  0
  152.6665  139.7917  156.9210 O   0  0  0  0  0  0  0  0  0  0  0  0
  152.0591  142.6637  158.2720 C   0  0  1  0  0  0  0  0  0  0  0  0
  151.5493  144.0689  157.9899 C   0  0  0  0  0  0  0  0  0  0  0  0
  152.3595  144.9230  158.9590 C   0  0  0  0  0  0  0  0  0  0  0  0
  152.6307  144.0904  160.0788 O   0  0  0  0  0  0  0  0  0  0  0  0
  152.2342  142.7546  159.7932 C   0  0  0  0  0  0  0  0  0  0  0  0
  144.5891  137.1809  154.1505 C   0  0  0  0  0  0  0  0  0  0  0  0
  144.4778  135.9099  153.2753 C   0  0  1  0  0  0  0  0  0  0  0  0
  143.0485  135.3446  153.4114 C   0  0  0  0  0  0  0  0  0  0  0  0
  145.7687  133.1774  150.4430 H   0  0  0  0  0  0  0  0  0  0  0  0
  145.5925  133.4118  152.1670 H   0  0  0  0  0  0  0  0  0  0  0  0
  146.7976  134.3402  151.2682 H   0  0  0  0  0  0  0  0  0  0  0  0
  144.9230  135.3339  149.9114 H   0  0  0  0  0  0  0  0  0  0  0  0
  143.7407  134.6226  150.9806 H   0  0  0  0  0  0  0  0  0  0  0  0
  146.9725  136.1289  152.0612 H   0  0  0  0  0  0  0  0  0  0  0  0
  146.4246  137.1363  150.7426 H   0  0  0  0  0  0  0  0  0  0  0  0
  147.2766  138.5787  152.5104 H   0  0  0  0  0  0  0  0  0  0  0  0
  145.5835  138.8477  152.2648 H   0  0  0  0  0  0  0  0  0  0  0  0
  145.9536  138.7522  154.6637 H   0  0  0  0  0  0  0  0  0  0  0  0
  147.3802  135.6960  156.4406 H   0  0  0  0  0  0  0  0  0  0  0  0
  146.0185  135.2237  155.4378 H   0  0  0  0  0  0  0  0  0  0  0  0
  145.8749  136.6155  156.5185 H   0  0  0  0  0  0  0  0  0  0  0  0
  151.2866  136.5806  155.4814 H   0  0  0  0  0  0  0  0  0  0  0  0
  147.8621  142.0199  155.9138 H   0  0  0  0  0  0  0  0  0  0  0  0
  151.4575  141.4285  155.6477 H   0  0  0  0  0  0  0  0  0  0  0  0
  150.2971  142.6320  156.1457 H   0  0  0  0  0  0  0  0  0  0  0  0
  150.2700  141.4908  158.4557 H   0  0  0  0  0  0  0  0  0  0  0  0
  152.3828  140.0790  158.9253 H   0  0  0  0  0  0  0  0  0  0  0  0
  151.0516  139.3349  158.0840 H   0  0  0  0  0  0  0  0  0  0  0  0
  152.3801  138.9743  156.5429 H   0  0  0  0  0  0  0  0  0  0  0  0
  153.0457  142.5569  157.8178 H   0  0  0  0  0  0  0  0  0  0  0  0
  151.6991  144.3912  156.9613 H   0  0  0  0  0  0  0  0  0  0  0  0
  150.4859  144.1441  158.2224 H   0  0  0  0  0  0  0  0  0  0  0  0
  153.3089  145.2130  158.5074 H   0  0  0  0  0  0  0  0  0  0  0  0
  151.8329  145.8310  159.2535 H   0  0  0  0  0  0  0  0  0  0  0  0
  151.2877  142.5669  160.3021 H   0  0  0  0  0  0  0  0  0  0  0  0
  152.9680  142.0438  160.1737 H   0  0  0  0  0  0  0  0  0  0  0  0
  144.2953  136.9630  155.1775 H   0  0  0  0  0  0  0  0  0  0  0  0
  143.8654  137.9176  153.7981 H   0  0  0  0  0  0  0  0  0  0  0  0
  145.1715  135.1618  153.6629 H   0  0  0  0  0  0  0  0  0  0  0  0
  142.7465  135.2982  154.4583 H   0  0  0  0  0  0  0  0  0  0  0  0
  142.9650  134.3267  153.0323 H   0  0  0  0  0  0  0  0  0  0  0  0
  142.3213  135.9671  152.8890 H   0  0  0  0  0  0  0  0  0  0  0  0
  144.1952  136.8874  151.5233 H   0  0  0  0  0  0  0  0  0  0  0  0
  1  2  1  0  0  0  0
  1 30  1  0  0  0  0
  1 31  1  0  0  0  0
  1 32  1  0  0  0  0
  2  3  1  0  0  0  0
  2 33  1  0  0  0  0
  2 34  1  0  0  0  0
  3 28  1  0  0  0  0
  3  4  1  0  0  0  0
  3 64  1  0  0  0  0
  4  5  1  0  0  0  0
  4 35  1  0  0  0  0
  4 36  1  0  0  0  0
  5  6  1  0  0  0  0
  5 37  1  0  0  0  0
  5 38  1  0  0  0  0
  6  7  1  0  0  0  0
  6 27  1  0  0  0  0
  6 39  1  0  0  0  0
  7  8  1  0  0  0  0
  7  9  1  0  0  0  0
  8 40  1  0  0  0  0
  8 41  1  0  0  0  0
  8 42  1  0  0  0  0
  9 14  1  0  0  0  0
  9 10  2  0  0  0  0
 10 11  1  0  0  0  0
 11 12  2  0  0  0  0
 11 43  1  0  0  0  0
 12 13  1  0  0  0  0
 13 17  1  0  0  0  0
 13 14  2  0  0  0  0
 14 15  1  0  0  0  0
 15 16  2  0  0  0  0
 16 17  1  0  0  0  0
 16 44  1  0  0  0  0
 17 18  1  0  0  0  0
 18 19  1  0  0  0  0
 18 45  1  0  0  0  0
 18 46  1  0  0  0  0
 19 20  1  0  0  0  0
 19 22  1  0  0  0  0
 19 47  1  0  0  0  0
 20 21  1  0  0  0  0
 20 48  1  0  0  0  0
 20 49  1  0  0  0  0
 21 50  1  0  0  0  0
 22 26  1  0  0  0  0
 22 23  1  0  0  0  0
 22 51  1  0  0  0  0
 23 24  1  0  0  0  0
 23 52  1  0  0  0  0
 23 53  1  0  0  0  0
 24 25  1  0  0  0  0
 24 54  1  0  0  0  0
 24 55  1  0  0  0  0
 25 26  1  0  0  0  0
 26 56  1  0  0  0  0
 26 57  1  0  0  0  0
 27 28  1  0  0  0  0
 27 58  1  0  0  0  0
 27 59  1  0  0  0  0
 28 29  1  0  0  0  0
 28 60  1  0  0  0  0
 29 61  1  0  0  0  0
 29 62  1  0  0  0  0
 29 63  1  0  0  0  0
M  CHG  1   3   1
M  END
> <s_m_source_file>
AV-unprocessed.smi

> <i_m_source_file_index>
249

> <i_lp_mmshare_version>
43012

> <i_f3d_flags>
0

> <s_epik_input>
W0NIM11bQ0gyXU4xW0NIMl1bQ0gyXVtDQEhdKFtDSDJdW0NASF0xW0NIM10pTihbQ0gzXSljKG5bY0hdbjIpYyhjMjMpbltjSF1uM1tDSDJdW0NASF0oW0NIMl1bT0hdKVtDQEBIXTRbQ0gyXVtDSDJdT1tDSDJdNA==

> <s_epik_cmdline>
J2VwaWtfcHl0aG9uJywgJy1waCcsICc3LjAnLCAnLXRuJywgJzgnLCAnLW1hJywgJzIwMCcsICctbWV0YWxfYmluZGluZycsICctaW1hZScsICc8aW5maWxlLm1hZT4nLCAnLW9tYWUnLCAnPG91dGZpbGUubWFlPic=

> <r_lp_tautomer_probability>
1

> <r_epik_Ionization_Penalty>
0.00294688

> <r_epik_Ionization_Penalty_Charging>
0.00169971

> <r_epik_Ionization_Penalty_Neutral>
0.00124717

> <r_epik_State_Penalty>
-0

> <r_epik_Charging_Adjusted_Penalty>
0.00169971

> <i_epik_Tot_Q>
1

> <i_epik_Tot_abs_Q>
1

> <r_epik_Metal_State_Penalty>
-0

> <b_epik_Metal_Only>
0

> <s_lp_Force_Field>
OPLS_2005

> <r_lp_Energy>
57.4157

> <b_lp_Chiralities_Consistent>
1

> <s_lp_Variant>
AV-unprocessed.smi:249-15

> <Gold.Version>
5.8.1

> <Gold.Id.Protein>
6NUR|6NUR_protein|mol2

> <Gold.PLP.Fitness>
50.0658

> <Gold.PLP.PLP>
-43.4887

> <Gold.PLP.part.hbond>
-2.0000

> <Gold.PLP.part.metal>
0.0000

> <Gold.PLP.part.buried>
-2.5848

> <Gold.PLP.part.nonpolar>
-40.2271

> <Gold.PLP.part.repulsive>
0.3761

> <Gold.PLP.ligand.clash>
0.0000

> <Gold.PLP.ligand.torsion>
1.5404

> <Gold.PLP.Chemscore.Hbond>
2.0000

> <Gold.PLP.Chemscore.CHOScore>
1.0000

> <Gold.PLP.Chemscore.Metal>
0.0000

> <Gold.Chemscore.Hbonds>
donor molecule, donor type, donor heavy atom, donor atom, acceptor molecule, acceptor atom, score
      P1  H  7997  8009       L1    21  1.00
      L1  C    16    44       P1  8028  0.12

> <Gold.PLP.Chemscore.Internal.Correction>
0.6578

> <Gold.Rescore>
     Score         DG    S(hbond)    S(metal)    S(lipo)     H(rot)  DE(clash)    DE(int)     intcor
     12.49     -16.90       1.97        0.00     104.68       2.90       0.79       3.61       ----

> <Gold.Chemscore.Fitness>
12.4900

> <Gold.Chemscore.DG>
-16.8973

> <Gold.Chemscore.ZeroCoef>
-5.4800

> <Gold.Chemscore.Hbond>
1.9746

> <Gold.Chemscore.Metal>
0.0000

> <Gold.Chemscore.Lipo>
104.6831

> <Gold.Chemscore.Internal_Hbond>
0.0000

> <Gold.Chemscore.DEClash>
0.7929

> <Gold.Chemscore.DEInternal>
3.6144

> <Gold.Chemscore.Rot>
2.9006

> <Gold.Chemscore.Internal.Correction>
   9.000000E+99

> <Gold.Chemscore.Hbonds>
donor molecule, donor type, donor heavy atom, donor atom, acceptor molecule, acceptor atom, score
      L1  H     3    64       P1 10171  0.06
      P1  H  7997  8009       L1    21  0.82

> <Gold.Chemscore.Hbond.Weighted>
-6.5950

> <Gold.Chemscore.Metal.Weighted>
-0.0000

> <Gold.Chemscore.Lipo.Weighted>
-12.2479

> <Gold.Chemscore.Internal_Hbond.Weighted>
0.0000

> <Gold.Chemscore.DEClash.Weighted>
0.7929

> <Gold.Chemscore.DEInternal.Weighted>
3.6144

> <Gold.Chemscore.Rot.Weighted>
7.4256

> <Gold.Chemscore.Internal.Correction.Weighted>
   9.000000E+99

> <Gold.Protein.RotatedTorsions>
[ 6907 6896 6895 6894 ] final   17.20 input  -60.11 | X-H torsion
[ 7974 7965 7964 7962 ] final  119.27 input  175.53 | X-H torsion
[ 8008 7997 7996 7995 ] final -179.42 input   59.86 | X-H torsion
[ 10167 10162 10161 10158 ] final -162.78 input  -65.29 | X-H torsion
[ 10718 10713 10712 10709 ] final  114.46 input   66.30 | X-H torsion
[ 10763 10752 10751 10750 ] final   69.08 input  -60.55 | X-H torsion
[ 11005 11000 10999 10996 ] final  176.86 input  -57.11 | X-H torsion

> <Gold.Protein.ActiveResidues>
 VAL166  LYS551  ARG553  GLY616  TRP617  ASP618  TYR619  PRO620  LYS621  CYS622 
 ASP623  PHE694  ASN695  SER759  ASP760  ASP761  ALA762  ILE779  LEU786  VAL792 
 PHE793  MET794  SER795  GLU796  ALA797  LYS798  CYS799  TRP800  GLU811  SER814 

> <Gold.Protein.RotatedAtoms>
  151.8459  135.0574  160.0453 H   0  0  0  0  0  0  0  0  0  0  0  0  # atno 6907 bound_to 6896
  152.2773  133.5433  159.5484 H   0  0  0  0  0  0  0  0  0  0  0  0  # atno 6908 bound_to 6896
  150.7175  134.0529  159.3847 H   0  0  0  0  0  0  0  0  0  0  0  0  # atno 6909 bound_to 6896
  145.1451  139.3244  143.4595 H   0  0  0  0  0  0  0  0  0  0  0  0  # atno 7974 bound_to 7965
  156.0303  140.1280  157.0265 H   0  0  0  0  0  0  0  0  0  0  0  0  # atno 8008 bound_to 7997
  154.4347  140.1051  156.6160 H   0  0  0  0  0  0  0  0  0  0  0  0  # atno 8009 bound_to 7997
  155.5816  140.3468  155.4544 H   0  0  0  0  0  0  0  0  0  0  0  0  # atno 8010 bound_to 7997
  139.6367  144.0336  152.2060 H   0  0  0  0  0  0  0  0  0  0  0  0  # atno 10167 bound_to 10162
  157.6280  131.0999  150.7189 H   0  0  0  0  0  0  0  0  0  0  0  0  # atno 10718 bound_to 10713
  153.0268  135.5223  154.7234 H   0  0  0  0  0  0  0  0  0  0  0  0  # atno 10763 bound_to 10752
  154.6282  135.2897  155.0249 H   0  0  0  0  0  0  0  0  0  0  0  0  # atno 10764 bound_to 10752
  154.1211  135.6607  153.4955 H   0  0  0  0  0  0  0  0  0  0  0  0  # atno 10765 bound_to 10752
  140.3778  134.6973  157.4432 H   0  0  0  0  0  0  0  0  0  0  0  0  # atno 11005 bound_to 11000
  146.3501  140.1504  142.8592 LP  0  0  0  0  0  0  0  0  0  0  0  0  # atno 17320 bound_to 7965
  145.0490  140.9003  143.5007 LP  0  0  0  0  0  0  0  0  0  0  0  0  # atno 17321 bound_to 7965
  140.0015  144.6290  150.7725 LP  0  0  0  0  0  0  0  0  0  0  0  0  # atno 17342 bound_to 10162
  140.7469  143.2898  151.3362 LP  0  0  0  0  0  0  0  0  0  0  0  0  # atno 17343 bound_to 10162
  156.7533  130.4775  149.5452 LP  0  0  0  0  0  0  0  0  0  0  0  0  # atno 17370 bound_to 10713
  156.1464  130.6280  151.0537 LP  0  0  0  0  0  0  0  0  0  0  0  0  # atno 17371 bound_to 10713
  140.0502  134.6142  155.8871 LP  0  0  0  0  0  0  0  0  0  0  0  0  # atno 17394 bound_to 11000
  141.1933  133.6578  156.5544 LP  0  0  0  0  0  0  0  0  0  0  0  0  # atno 17395 bound_to 11000

$$$$
