AV-unprocessed.smi:812|AV-procd|sdf|3815|dock1
  -GOLD-   22720 1253D 1   1.00000     0.00000
 Structure written by MMmdl.
 38 40  0  0  0  0  0  0  0  0  1 V2000
  151.7946  141.8325  158.5320 C   0  0  0  0  0  0  0  0  0  0  0  0
  151.4788  140.8667  157.4629 N   0  0  0  0  0  0  0  0  0  0  0  0
  150.4959  141.1924  156.5653 C   0  0  0  0  0  0  0  0  0  0  0  0
  149.8466  142.2392  156.5766 O   0  0  0  0  0  0  0  0  0  0  0  0
  150.2583  140.1641  155.5490 C   0  0  0  0  0  0  0  0  0  0  0  0
  150.9494  139.0001  155.4999 C   0  0  0  0  0  0  0  0  0  0  0  0
  150.5264  138.2040  154.4413 N   0  0  0  0  0  0  0  0  0  0  0  0
  149.5709  138.9562  153.8930 C   0  0  0  0  0  0  0  0  0  0  0  0
  149.3469  140.1421  154.4956 N   0  0  0  0  0  0  0  0  0  0  0  0
  148.3667  141.1420  154.1014 C   0  0  0  0  0  0  0  0  0  0  0  0
  146.9147  140.6746  154.3252 C   0  0  2  0  0  0  0  0  0  0  0  0
  146.4650  139.9424  153.2011 O   0  0  0  0  0  0  0  0  0  0  0  0
  146.0042  141.8478  154.6522 C   0  0  0  0  0  0  0  0  0  0  0  0
  145.3648  141.9126  155.9088 C   0  0  0  0  0  0  0  0  0  0  0  0
  144.5278  143.0008  156.2243 C   0  0  0  0  0  0  0  0  0  0  0  0
  144.3278  144.0317  155.2860 C   0  0  0  0  0  0  0  0  0  0  0  0
  143.5238  145.0778  155.5896 F   0  0  0  0  0  0  0  0  0  0  0  0
  144.9662  143.9748  154.0323 C   0  0  0  0  0  0  0  0  0  0  0  0
  145.8031  142.8868  153.7163 C   0  0  0  0  0  0  0  0  0  0  0  0
  151.9482  138.7619  156.4763 N   0  0  0  0  0  0  0  0  0  0  0  0
  152.6755  137.4920  156.3921 C   0  0  0  0  0  0  0  0  0  0  0  0
  152.2097  139.6899  157.4556 C   0  0  0  0  0  0  0  0  0  0  0  0
  153.0759  139.4781  158.3087 O   0  0  0  0  0  0  0  0  0  0  0  0
  151.2228  142.7604  158.4966 H   0  0  0  0  0  0  0  0  0  0  0  0
  152.8469  142.1181  158.4899 H   0  0  0  0  0  0  0  0  0  0  0  0
  151.6070  141.3884  159.5110 H   0  0  0  0  0  0  0  0  0  0  0  0
  149.0120  138.6329  153.0270 H   0  0  0  0  0  0  0  0  0  0  0  0
  148.5650  142.0584  154.6580 H   0  0  0  0  0  0  0  0  0  0  0  0
  148.5258  141.3857  153.0498 H   0  0  0  0  0  0  0  0  0  0  0  0
  146.8906  139.9837  155.1685 H   0  0  0  0  0  0  0  0  0  0  0  0
  145.5720  140.1929  153.0187 H   0  0  0  0  0  0  0  0  0  0  0  0
  145.5156  141.1286  156.6367 H   0  0  0  0  0  0  0  0  0  0  0  0
  144.0403  143.0450  157.1871 H   0  0  0  0  0  0  0  0  0  0  0  0
  144.8155  144.7662  153.3131 H   0  0  0  0  0  0  0  0  0  0  0  0
  146.2920  142.8549  152.7536 H   0  0  0  0  0  0  0  0  0  0  0  0
  153.4301  137.3518  157.1663 H   0  0  0  0  0  0  0  0  0  0  0  0
  153.1818  137.4176  155.4292 H   0  0  0  0  0  0  0  0  0  0  0  0
  151.9765  136.6584  156.4669 H   0  0  0  0  0  0  0  0  0  0  0  0
  1  2  1  0  0  0  0
  1 24  1  0  0  0  0
  1 25  1  0  0  0  0
  1 26  1  0  0  0  0
  2 22  1  0  0  0  0
  2  3  1  0  0  0  0
  3  4  2  0  0  0  0
  3  5  1  0  0  0  0
  5  9  1  0  0  0  0
  5  6  2  0  0  0  0
  6  7  1  0  0  0  0
  6 20  1  0  0  0  0
  7  8  2  0  0  0  0
  8  9  1  0  0  0  0
  8 27  1  0  0  0  0
  9 10  1  0  0  0  0
 10 11  1  0  0  0  0
 10 28  1  0  0  0  0
 10 29  1  0  0  0  0
 11 12  1  0  0  0  0
 11 13  1  0  0  0  0
 11 30  1  0  0  0  0
 12 31  1  0  0  0  0
 13 19  1  0  0  0  0
 13 14  2  0  0  0  0
 14 15  1  0  0  0  0
 14 32  1  0  0  0  0
 15 16  2  0  0  0  0
 15 33  1  0  0  0  0
 16 17  1  0  0  0  0
 16 18  1  0  0  0  0
 18 19  2  0  0  0  0
 18 34  1  0  0  0  0
 19 35  1  0  0  0  0
 20 21  1  0  0  0  0
 20 22  1  0  0  0  0
 21 36  1  0  0  0  0
 21 37  1  0  0  0  0
 21 38  1  0  0  0  0
 22 23  2  0  0  0  0
M  END
> <s_m_source_file>
AV-unprocessed.smi

> <i_m_source_file_index>
812

> <i_lp_mmshare_version>
43012

> <i_f3d_flags>
0

> <s_epik_input>
Tz1jMW4oW0NIM10pYyg9TyluKFtDSDNdKWMoYzEyKW5bY0hdbjJbQ0gyXVtDQEhdKFtPSF0pYzNbY0hdW2NIXWMoRilbY0hdW2NIXTM=

> <s_epik_cmdline>
J2VwaWtfcHl0aG9uJywgJy1waCcsICc3LjAnLCAnLXRuJywgJzgnLCAnLW1hJywgJzIwMCcsICctbWV0YWxfYmluZGluZycsICctaW1hZScsICc8aW5maWxlLm1hZT4nLCAnLW9tYWUnLCAnPG91dGZpbGUubWFlPic=

> <r_lp_tautomer_probability>
1

> <r_epik_Ionization_Penalty>
1.45649e-06

> <r_epik_Ionization_Penalty_Charging>
3.74189e-09

> <r_epik_Ionization_Penalty_Neutral>
1.45275e-06

> <r_epik_State_Penalty>
-0

> <r_epik_Charging_Adjusted_Penalty>
3.74189e-09

> <i_epik_Tot_Q>
0

> <i_epik_Tot_abs_Q>
0

> <r_epik_Metal_State_Penalty>
-0

> <b_epik_Metal_Only>
0

> <s_lp_Force_Field>
OPLS_2005

> <r_lp_Energy>
34.9814

> <b_lp_Chiralities_Consistent>
1

> <s_lp_Variant>
AV-unprocessed.smi:812-1

> <Gold.Version>
5.8.1

> <Gold.Id.Protein>
6NUR|6NUR_protein|mol2

> <Gold.PLP.Fitness>
45.8004

> <Gold.PLP.PLP>
-37.4046

> <Gold.PLP.part.hbond>
-1.8931

> <Gold.PLP.part.metal>
0.0000

> <Gold.PLP.part.buried>
-5.4640

> <Gold.PLP.part.nonpolar>
-33.3028

> <Gold.PLP.part.repulsive>
2.0981

> <Gold.PLP.ligand.clash>
0.0000

> <Gold.PLP.ligand.torsion>
0.4230

> <Gold.PLP.Chemscore.Hbond>
1.7238

> <Gold.PLP.Chemscore.CHOScore>
1.3485

> <Gold.PLP.Chemscore.Metal>
0.0000

> <Gold.Chemscore.Hbonds>
donor molecule, donor type, donor heavy atom, donor atom, acceptor molecule, acceptor atom, score
      L1  H    12    31       P1 10175  1.00
      P1  H  7997  8010       L1    23  0.59
      L1  C     8    27       P1  7948  0.72
      L1  C     8    27       P1  7957  0.58

> <Gold.PLP.Chemscore.Internal.Correction>
0.0249

> <Gold.Rescore>
     Score         DG    S(hbond)    S(metal)    S(lipo)     H(rot)  DE(clash)    DE(int)     intcor
     10.77     -11.61       1.42        0.00      60.76       2.24       0.33       0.51       ----

> <Gold.Chemscore.Fitness>
10.7685

> <Gold.Chemscore.DG>
-11.6109

> <Gold.Chemscore.ZeroCoef>
-5.4800

> <Gold.Chemscore.Hbond>
1.4224

> <Gold.Chemscore.Metal>
0.0000

> <Gold.Chemscore.Lipo>
60.7584

> <Gold.Chemscore.Internal_Hbond>
0.0000

> <Gold.Chemscore.DEClash>
0.3308

> <Gold.Chemscore.DEInternal>
0.5116

> <Gold.Chemscore.Rot>
2.2377

> <Gold.Chemscore.Internal.Correction>
   9.000000E+99

> <Gold.Chemscore.Hbonds>
donor molecule, donor type, donor heavy atom, donor atom, acceptor molecule, acceptor atom, score
      L1  H    12    31       P1 10175  0.95
      P1  H  7997  8010       L1    23  0.20

> <Gold.Chemscore.Hbond.Weighted>
-4.7508

> <Gold.Chemscore.Metal.Weighted>
-0.0000

> <Gold.Chemscore.Lipo.Weighted>
-7.1087

> <Gold.Chemscore.Internal_Hbond.Weighted>
0.0000

> <Gold.Chemscore.DEClash.Weighted>
0.3308

> <Gold.Chemscore.DEInternal.Weighted>
0.5116

> <Gold.Chemscore.Rot.Weighted>
5.7286

> <Gold.Chemscore.Internal.Correction.Weighted>
   9.000000E+99

> <Gold.Protein.RotatedTorsions>
[ 6907 6896 6895 6894 ] final -163.45 input  -60.11 | X-H torsion
[ 7974 7965 7964 7962 ] final  -49.28 input  175.53 | X-H torsion
[ 8008 7997 7996 7995 ] final   11.40 input   59.86 | X-H torsion
[ 10167 10162 10161 10158 ] final   64.18 input  -65.29 | X-H torsion
[ 10718 10713 10712 10709 ] final  149.35 input   66.30 | X-H torsion
[ 10763 10752 10751 10750 ] final   46.68 input  -60.55 | X-H torsion
[ 11005 11000 10999 10996 ] final  123.41 input  -57.11 | X-H torsion

> <Gold.Protein.ActiveResidues>
 VAL166  LYS551  ARG553  GLY616  TRP617  ASP618  TYR619  PRO620  LYS621  CYS622 
 ASP623  PHE694  ASN695  SER759  ASP760  ASP761  ALA762  ILE779  LEU786  VAL792 
 PHE793  MET794  SER795  GLU796  ALA797  LYS798  CYS799  TRP800  GLU811  SER814 

> <Gold.Protein.RotatedAtoms>
  151.3962  133.3772  159.2726 H   0  0  0  0  0  0  0  0  0  0  0  0  # atno 6907 bound_to 6896
  150.9467  134.8873  159.7657 H   0  0  0  0  0  0  0  0  0  0  0  0  # atno 6908 bound_to 6896
  152.5095  134.3916  159.9438 H   0  0  0  0  0  0  0  0  0  0  0  0  # atno 6909 bound_to 6896
  145.9423  140.7651  142.9546 H   0  0  0  0  0  0  0  0  0  0  0  0  # atno 7974 bound_to 7965
  154.8065  140.2861  155.5884 H   0  0  0  0  0  0  0  0  0  0  0  0  # atno 8008 bound_to 7997
  156.2983  140.2576  156.2873 H   0  0  0  0  0  0  0  0  0  0  0  0  # atno 8009 bound_to 7997
  154.9497  140.0379  157.2127 H   0  0  0  0  0  0  0  0  0  0  0  0  # atno 8010 bound_to 7997
  140.1249  144.4697  150.6898 H   0  0  0  0  0  0  0  0  0  0  0  0  # atno 10167 bound_to 10162
  157.2972  131.0864  151.1417 H   0  0  0  0  0  0  0  0  0  0  0  0  # atno 10718 bound_to 10713
  152.9808  135.6000  154.3639 H   0  0  0  0  0  0  0  0  0  0  0  0  # atno 10763 bound_to 10752
  154.3319  135.2768  155.2469 H   0  0  0  0  0  0  0  0  0  0  0  0  # atno 10764 bound_to 10752
  154.4590  135.5971  153.6298 H   0  0  0  0  0  0  0  0  0  0  0  0  # atno 10765 bound_to 10752
  139.9311  134.9641  156.8255 H   0  0  0  0  0  0  0  0  0  0  0  0  # atno 11005 bound_to 11000
  144.6781  140.2300  143.7356 LP  0  0  0  0  0  0  0  0  0  0  0  0  # atno 17320 bound_to 7965
  145.8283  139.2074  143.1897 LP  0  0  0  0  0  0  0  0  0  0  0  0  # atno 17321 bound_to 7965
  140.6850  143.2345  151.5283 LP  0  0  0  0  0  0  0  0  0  0  0  0  # atno 17342 bound_to 10162
  139.5549  144.2300  152.1595 LP  0  0  0  0  0  0  0  0  0  0  0  0  # atno 17343 bound_to 10162
  157.2790  130.6741  149.6057 LP  0  0  0  0  0  0  0  0  0  0  0  0  # atno 17370 bound_to 10713
  155.9670  130.4455  150.5506 LP  0  0  0  0  0  0  0  0  0  0  0  0  # atno 17371 bound_to 10713
  140.6199  134.0003  155.7614 LP  0  0  0  0  0  0  0  0  0  0  0  0  # atno 17394 bound_to 11000
  141.0900  133.9931  157.3252 LP  0  0  0  0  0  0  0  0  0  0  0  0  # atno 17395 bound_to 11000

$$$$
