AV-unprocessed.smi:2589|AV-procd|sdf|10151|dock4
  -GOLD-   2272014163D 1   1.00000     0.00000
 Structure written by MMmdl.
 41 42  0  0  0  0  0  0  0  0  1 V2000
  153.4254  134.6047  164.3111 C   0  0  0  0  0  0  0  0  0  0  0  0
  153.5884  136.0525  163.8626 C   0  0  0  0  0  0  0  0  0  0  0  0
  153.4543  136.9695  164.6722 O   0  0  0  0  0  0  0  0  0  0  0  0
  153.8809  136.2436  162.5670 N   0  0  0  0  0  0  0  0  0  0  0  0
  154.1011  137.5437  161.9388 C   0  0  0  0  0  0  0  0  0  0  0  0
  153.2132  137.7636  160.7085 C   0  0  0  0  0  0  0  0  0  0  0  0
  152.6160  136.8198  160.1890 O   0  0  0  0  0  0  0  0  0  0  0  0
  153.1183  139.0266  160.2669 N   0  0  0  0  0  0  0  0  0  0  0  0
  152.3149  139.4506  159.1259 C   0  0  0  0  0  0  0  0  0  0  0  0
  152.2458  140.9683  158.9696 C   0  0  0  0  0  0  0  0  0  0  0  0
  152.7597  141.7946  159.9932 C   0  0  0  0  0  0  0  0  0  0  0  0
  152.7080  143.1921  159.8441 C   0  0  0  0  0  0  0  0  0  0  0  0
  152.1441  143.7156  158.6669 C   0  0  0  0  0  0  0  0  0  0  0  0
  151.6516  142.9425  157.6777 N   0  0  0  0  0  0  0  0  0  0  0  0
  151.6988  141.5952  157.8186 C   0  0  0  0  0  0  0  0  0  0  0  0
  151.1566  140.8262  156.7769 N   0  0  0  0  0  0  0  0  0  0  0  0
  152.0903  139.9054  156.1408 C   0  0  0  0  0  0  0  0  0  0  0  0
  151.3378  139.0131  155.1388 C   0  0  0  0  0  0  0  0  0  0  0  0
  150.6509  139.8296  154.1936 O   0  0  0  0  0  0  0  0  0  0  0  0
  149.6931  140.6825  154.8155 C   0  0  0  0  0  0  0  0  0  0  0  0
  150.4026  141.6151  155.8118 C   0  0  0  0  0  0  0  0  0  0  0  0
  154.3757  134.0759  164.2359 H   0  0  0  0  0  0  0  0  0  0  0  0
  152.6928  134.0906  163.6886 H   0  0  0  0  0  0  0  0  0  0  0  0
  153.0877  134.5550  165.3466 H   0  0  0  0  0  0  0  0  0  0  0  0
  153.9806  135.4301  161.9774 H   0  0  0  0  0  0  0  0  0  0  0  0
  153.8754  138.3200  162.6698 H   0  0  0  0  0  0  0  0  0  0  0  0
  155.1534  137.6601  161.6729 H   0  0  0  0  0  0  0  0  0  0  0  0
  153.6401  139.7423  160.7518 H   0  0  0  0  0  0  0  0  0  0  0  0
  152.7738  139.0430  158.2251 H   0  0  0  0  0  0  0  0  0  0  0  0
  151.3285  138.9907  159.1896 H   0  0  0  0  0  0  0  0  0  0  0  0
  153.1923  141.3635  160.8843 H   0  0  0  0  0  0  0  0  0  0  0  0
  153.0932  143.8463  160.6122 H   0  0  0  0  0  0  0  0  0  0  0  0
  152.0872  144.7833  158.5150 H   0  0  0  0  0  0  0  0  0  0  0  0
  152.8705  140.4654  155.6233 H   0  0  0  0  0  0  0  0  0  0  0  0
  152.5790  139.2923  156.8989 H   0  0  0  0  0  0  0  0  0  0  0  0
  152.0383  138.3676  154.6091 H   0  0  0  0  0  0  0  0  0  0  0  0
  150.6296  138.3618  155.6539 H   0  0  0  0  0  0  0  0  0  0  0  0
  149.1861  141.2678  154.0484 H   0  0  0  0  0  0  0  0  0  0  0  0
  148.9302  140.0859  155.3185 H   0  0  0  0  0  0  0  0  0  0  0  0
  149.6727  142.2395  156.3274 H   0  0  0  0  0  0  0  0  0  0  0  0
  151.0788  142.2843  155.2781 H   0  0  0  0  0  0  0  0  0  0  0  0
  1  2  1  0  0  0  0
  1 22  1  0  0  0  0
  1 23  1  0  0  0  0
  1 24  1  0  0  0  0
  2  3  2  0  0  0  0
  2  4  1  0  0  0  0
  4  5  1  0  0  0  0
  4 25  1  0  0  0  0
  5  6  1  0  0  0  0
  5 26  1  0  0  0  0
  5 27  1  0  0  0  0
  6  7  2  0  0  0  0
  6  8  1  0  0  0  0
  8  9  1  0  0  0  0
  8 28  1  0  0  0  0
  9 10  1  0  0  0  0
  9 29  1  0  0  0  0
  9 30  1  0  0  0  0
 10 15  1  0  0  0  0
 10 11  2  0  0  0  0
 11 12  1  0  0  0  0
 11 31  1  0  0  0  0
 12 13  2  0  0  0  0
 12 32  1  0  0  0  0
 13 14  1  0  0  0  0
 13 33  1  0  0  0  0
 14 15  2  0  0  0  0
 15 16  1  0  0  0  0
 16 21  1  0  0  0  0
 16 17  1  0  0  0  0
 17 18  1  0  0  0  0
 17 34  1  0  0  0  0
 17 35  1  0  0  0  0
 18 19  1  0  0  0  0
 18 36  1  0  0  0  0
 18 37  1  0  0  0  0
 19 20  1  0  0  0  0
 20 21  1  0  0  0  0
 20 38  1  0  0  0  0
 20 39  1  0  0  0  0
 21 40  1  0  0  0  0
 21 41  1  0  0  0  0
M  END
> <s_m_source_file>
AV-unprocessed.smi

> <i_m_source_file_index>
2589

> <i_lp_mmshare_version>
43012

> <i_f3d_flags>
0

> <s_epik_input>
W0NIM11DKD1PKVtOSF1bQ0gyXUMoPU8pW05IXVtDSDJdYzFbY0hdW2NIXVtjSF1uYzFOMltDSDJdW0NIMl1PW0NIMl1bQ0gyXTI=

> <s_epik_cmdline>
J2VwaWtfcHl0aG9uJywgJy1waCcsICc3LjAnLCAnLXRuJywgJzgnLCAnLW1hJywgJzIwMCcsICctbWV0YWxfYmluZGluZycsICctaW1hZScsICc8aW5maWxlLm1hZT4nLCAnLW9tYWUnLCAnPG91dGZpbGUubWFlPic=

> <r_lp_tautomer_probability>
1

> <r_epik_Ionization_Penalty>
0.00462917

> <r_epik_Ionization_Penalty_Charging>
0

> <r_epik_Ionization_Penalty_Neutral>
0.00462917

> <r_epik_State_Penalty>
0.00334737

> <r_epik_Charging_Adjusted_Penalty>
0.00334737

> <i_epik_Tot_Q>
0

> <i_epik_Tot_abs_Q>
0

> <r_epik_Metal_State_Penalty>
-0

> <b_epik_Metal_Only>
0

> <s_lp_Force_Field>
OPLS_2005

> <r_lp_Energy>
14.0488

> <b_lp_Chiralities_Consistent>
1

> <s_lp_Variant>
AV-unprocessed.smi:2589-1

> <Gold.Version>
5.8.1

> <Gold.Id.Protein>
6NUR|6NUR_protein|mol2

> <Gold.PLP.Fitness>
46.9654

> <Gold.PLP.PLP>
-41.6674

> <Gold.PLP.part.hbond>
-2.0000

> <Gold.PLP.part.metal>
0.0000

> <Gold.PLP.part.buried>
-5.8321

> <Gold.PLP.part.nonpolar>
-33.8338

> <Gold.PLP.part.repulsive>
0.4016

> <Gold.PLP.ligand.clash>
0.0000

> <Gold.PLP.ligand.torsion>
0.4325

> <Gold.PLP.Chemscore.Hbond>
2.0000

> <Gold.PLP.Chemscore.CHOScore>
0.0000

> <Gold.PLP.Chemscore.Metal>
0.0000

> <Gold.Chemscore.Hbonds>
donor molecule, donor type, donor heavy atom, donor atom, acceptor molecule, acceptor atom, score
      P1  H  6896  6908       L1     7  1.00
      P1  H  7989  7998       L1    19  1.00

> <Gold.PLP.Chemscore.Internal.Correction>
0.1630

> <Gold.Rescore>
     Score         DG    S(hbond)    S(metal)    S(lipo)     H(rot)  DE(clash)    DE(int)     intcor
     14.54     -15.75       1.71        0.00      88.61       2.28       0.11       1.09       ----

> <Gold.Chemscore.Fitness>
14.5405

> <Gold.Chemscore.DG>
-15.7454

> <Gold.Chemscore.ZeroCoef>
-5.4800

> <Gold.Chemscore.Hbond>
1.7145

> <Gold.Chemscore.Metal>
0.0000

> <Gold.Chemscore.Lipo>
88.6069

> <Gold.Chemscore.Internal_Hbond>
0.0000

> <Gold.Chemscore.DEClash>
0.1107

> <Gold.Chemscore.DEInternal>
1.0942

> <Gold.Chemscore.Rot>
2.2766

> <Gold.Chemscore.Internal.Correction>
   9.000000E+99

> <Gold.Chemscore.Hbonds>
donor molecule, donor type, donor heavy atom, donor atom, acceptor molecule, acceptor atom, score
      P1  H  6896  6908       L1     7  1.00
      P1  H  7989  7998       L1    19  0.32

> <Gold.Chemscore.Hbond.Weighted>
-5.7265

> <Gold.Chemscore.Metal.Weighted>
-0.0000

> <Gold.Chemscore.Lipo.Weighted>
-10.3670

> <Gold.Chemscore.Internal_Hbond.Weighted>
0.0000

> <Gold.Chemscore.DEClash.Weighted>
0.1107

> <Gold.Chemscore.DEInternal.Weighted>
1.0942

> <Gold.Chemscore.Rot.Weighted>
5.8281

> <Gold.Chemscore.Internal.Correction.Weighted>
   9.000000E+99

> <Gold.Protein.RotatedTorsions>
[ 6907 6896 6895 6894 ] final  -96.64 input  -60.11 | X-H torsion
[ 7974 7965 7964 7962 ] final  172.65 input  175.53 | X-H torsion
[ 8008 7997 7996 7995 ] final -164.69 input   59.86 | X-H torsion
[ 10167 10162 10161 10158 ] final  159.95 input  -65.29 | X-H torsion
[ 10718 10713 10712 10709 ] final   21.11 input   66.30 | X-H torsion
[ 10763 10752 10751 10750 ] final  -54.86 input  -60.55 | X-H torsion
[ 11005 11000 10999 10996 ] final -121.11 input  -57.11 | X-H torsion

> <Gold.Protein.ActiveResidues>
 VAL166  LYS551  ARG553  GLY616  TRP617  ASP618  TYR619  PRO620  LYS621  CYS622 
 ASP623  PHE694  ASN695  SER759  ASP760  ASP761  ALA762  ILE779  LEU786  VAL792 
 PHE793  MET794  SER795  GLU796  ALA797  LYS798  CYS799  TRP800  GLU811  SER814 

> <Gold.Protein.RotatedAtoms>
  150.6994  134.1472  159.4126 H   0  0  0  0  0  0  0  0  0  0  0  0  # atno 6907 bound_to 6896
  151.9456  135.0191  160.0548 H   0  0  0  0  0  0  0  0  0  0  0  0  # atno 6908 bound_to 6896
  152.2056  133.4838  159.5119 H   0  0  0  0  0  0  0  0  0  0  0  0  # atno 6909 bound_to 6896
  144.7263  139.9530  143.6432 H   0  0  0  0  0  0  0  0  0  0  0  0  # atno 7974 bound_to 7965
  155.8392  140.0945  157.1745 H   0  0  0  0  0  0  0  0  0  0  0  0  # atno 8008 bound_to 7997
  154.3981  140.1404  156.3768 H   0  0  0  0  0  0  0  0  0  0  0  0  # atno 8009 bound_to 7997
  155.8083  140.3450  155.5445 H   0  0  0  0  0  0  0  0  0  0  0  0  # atno 8010 bound_to 7997
  139.4836  144.4681  151.8614 H   0  0  0  0  0  0  0  0  0  0  0  0  # atno 10167 bound_to 10162
  157.1338  130.6602  149.5960 H   0  0  0  0  0  0  0  0  0  0  0  0  # atno 10718 bound_to 10713
  154.1816  135.6442  153.5036 H   0  0  0  0  0  0  0  0  0  0  0  0  # atno 10763 bound_to 10752
  153.0057  135.5407  154.6508 H   0  0  0  0  0  0  0  0  0  0  0  0  # atno 10764 bound_to 10752
  154.5873  135.2931  155.0644 H   0  0  0  0  0  0  0  0  0  0  0  0  # atno 10765 bound_to 10752
  141.0094  134.0287  157.3434 H   0  0  0  0  0  0  0  0  0  0  0  0  # atno 11005 bound_to 11000
  146.0697  139.3686  143.0531 LP  0  0  0  0  0  0  0  0  0  0  0  0  # atno 17320 bound_to 7965
  145.7985  140.9782  143.1011 LP  0  0  0  0  0  0  0  0  0  0  0  0  # atno 17321 bound_to 7965
  140.4148  144.2322  150.5888 LP  0  0  0  0  0  0  0  0  0  0  0  0  # atno 17342 bound_to 10162
  140.4931  143.2341  151.8789 LP  0  0  0  0  0  0  0  0  0  0  0  0  # atno 17343 bound_to 10162
  155.9802  130.4801  150.6761 LP  0  0  0  0  0  0  0  0  0  0  0  0  # atno 17370 bound_to 10713
  157.4368  131.0856  151.0983 LP  0  0  0  0  0  0  0  0  0  0  0  0  # atno 17371 bound_to 10713
  139.9081  135.0184  156.7575 LP  0  0  0  0  0  0  0  0  0  0  0  0  # atno 17394 bound_to 11000
  140.6759  133.9518  155.7882 LP  0  0  0  0  0  0  0  0  0  0  0  0  # atno 17395 bound_to 11000

$$$$
