AV-unprocessed.smi:1363|AV-procd|sdf|5564|dock9
  -GOLD-   22720 5153D 1   1.00000     0.00000
 Structure written by MMmdl.
 44 45  0  0  0  0  0  0  0  0  1 V2000
  142.8263  137.6385  152.9511 C   0  0  0  0  0  0  0  0  0  0  0  0
  144.2672  137.9812  153.2645 C   0  0  0  0  0  0  0  0  0  0  0  0
  144.7823  137.9169  154.4482 N   0  0  0  0  0  0  0  0  0  0  0  0
  146.1299  138.2646  154.6161 C   0  0  0  0  0  0  0  0  0  0  0  0
  146.6597  138.1714  156.0369 C   0  0  0  0  0  0  0  0  0  0  0  0
  146.9031  138.6629  153.5634 C   0  0  0  0  0  0  0  0  0  0  0  0
  148.3723  139.0545  153.7171 C   0  0  0  0  0  0  0  0  0  0  0  0
  148.6322  140.4308  154.3346 C   0  0  0  0  0  0  0  0  0  0  0  0
  147.8294  141.3495  154.1680 O   0  0  0  0  0  0  0  0  0  0  0  0
  149.7566  140.5567  155.0553 N   0  0  0  0  0  0  0  0  0  0  0  0
  150.1735  141.7687  155.7502 C   0  0  0  0  0  0  0  0  0  0  0  0
  150.4394  141.4954  157.2438 C   0  0  0  0  0  0  0  0  0  0  0  0
  151.3129  142.5197  157.9613 C   0  0  0  0  0  0  0  0  0  0  0  0
  151.6917  143.7025  157.4310 C   0  0  0  0  0  0  0  0  0  0  0  0
  152.5330  144.7358  158.1602 C   0  0  0  0  0  0  0  0  0  0  0  0
  152.6105  144.4690  159.6720 C   0  0  0  0  0  0  0  0  0  0  0  0
  152.8487  142.9819  159.9555 C   0  0  0  0  0  0  0  0  0  0  0  0
  151.7204  142.1126  159.3727 C   0  0  0  0  0  0  0  0  0  0  0  0
  146.3048  138.7315  152.2161 C   0  0  0  0  0  0  0  0  0  0  0  0
  146.9063  139.0820  151.2021 O   0  0  0  0  0  0  0  0  0  0  0  0
  145.0013  138.3795  152.1484 N   0  0  0  0  0  0  0  0  0  0  0  0
  144.5452  138.4123  151.2482 H   0  0  0  0  0  0  0  0  0  0  0  0
  142.1556  138.2813  153.5218 H   0  0  0  0  0  0  0  0  0  0  0  0
  142.6201  136.6024  153.2200 H   0  0  0  0  0  0  0  0  0  0  0  0
  142.6021  137.7676  151.8913 H   0  0  0  0  0  0  0  0  0  0  0  0
  147.4490  137.4227  156.1030 H   0  0  0  0  0  0  0  0  0  0  0  0
  145.8715  137.8876  156.7353 H   0  0  0  0  0  0  0  0  0  0  0  0
  147.0619  139.1307  156.3626 H   0  0  0  0  0  0  0  0  0  0  0  0
  148.8671  138.2976  154.3268 H   0  0  0  0  0  0  0  0  0  0  0  0
  148.8837  139.0124  152.7550 H   0  0  0  0  0  0  0  0  0  0  0  0
  150.3606  139.7516  155.1385 H   0  0  0  0  0  0  0  0  0  0  0  0
  151.0814  142.1307  155.2670 H   0  0  0  0  0  0  0  0  0  0  0  0
  149.4160  142.5446  155.6254 H   0  0  0  0  0  0  0  0  0  0  0  0
  149.4899  141.4408  157.7777 H   0  0  0  0  0  0  0  0  0  0  0  0
  150.9098  140.5172  157.3510 H   0  0  0  0  0  0  0  0  0  0  0  0
  151.4082  143.9751  156.4261 H   0  0  0  0  0  0  0  0  0  0  0  0
  153.5319  144.7265  157.7232 H   0  0  0  0  0  0  0  0  0  0  0  0
  152.1176  145.7280  157.9812 H   0  0  0  0  0  0  0  0  0  0  0  0
  153.4006  145.0735  160.1179 H   0  0  0  0  0  0  0  0  0  0  0  0
  151.6781  144.7792  160.1460 H   0  0  0  0  0  0  0  0  0  0  0  0
  153.8019  142.6829  159.5175 H   0  0  0  0  0  0  0  0  0  0  0  0
  152.9350  142.8090  161.0285 H   0  0  0  0  0  0  0  0  0  0  0  0
  150.8364  142.1771  160.0079 H   0  0  0  0  0  0  0  0  0  0  0  0
  152.0334  141.0678  159.3759 H   0  0  0  0  0  0  0  0  0  0  0  0
  1  2  1  0  0  0  0
  1 23  1  0  0  0  0
  1 24  1  0  0  0  0
  1 25  1  0  0  0  0
  2 21  1  0  0  0  0
  2  3  2  0  0  0  0
  3  4  1  0  0  0  0
  4  5  1  0  0  0  0
  4  6  2  0  0  0  0
  5 26  1  0  0  0  0
  5 27  1  0  0  0  0
  5 28  1  0  0  0  0
  6  7  1  0  0  0  0
  6 19  1  0  0  0  0
  7  8  1  0  0  0  0
  7 29  1  0  0  0  0
  7 30  1  0  0  0  0
  8  9  2  0  0  0  0
  8 10  1  0  0  0  0
 10 11  1  0  0  0  0
 10 31  1  0  0  0  0
 11 12  1  0  0  0  0
 11 32  1  0  0  0  0
 11 33  1  0  0  0  0
 12 13  1  0  0  0  0
 12 34  1  0  0  0  0
 12 35  1  0  0  0  0
 13 18  1  0  0  0  0
 13 14  2  0  0  0  0
 14 15  1  0  0  0  0
 14 36  1  0  0  0  0
 15 16  1  0  0  0  0
 15 37  1  0  0  0  0
 15 38  1  0  0  0  0
 16 17  1  0  0  0  0
 16 39  1  0  0  0  0
 16 40  1  0  0  0  0
 17 18  1  0  0  0  0
 17 41  1  0  0  0  0
 17 42  1  0  0  0  0
 18 43  1  0  0  0  0
 18 44  1  0  0  0  0
 19 20  2  0  0  0  0
 19 21  1  0  0  0  0
 21 22  1  0  0  0  0
M  END
> <s_m_source_file>
AV-unprocessed.smi

> <i_m_source_file_index>
1363

> <i_lp_mmshare_version>
43012

> <i_f3d_flags>
0

> <s_epik_input>
W0NIM11jMW5jKFtDSDNdKWMoYyg9TylbbkhdMSlbQ0gyXUMoPU8pW05IXVtDSDJdW0NIMl1DMj1bQ0hdW0NIMl1bQ0gyXVtDSDJdW0NIMl0y

> <s_epik_cmdline>
J2VwaWtfcHl0aG9uJywgJy1waCcsICc3LjAnLCAnLXRuJywgJzgnLCAnLW1hJywgJzIwMCcsICctbWV0YWxfYmluZGluZycsICctaW1hZScsICc8aW5maWxlLm1hZT4nLCAnLW9tYWUnLCAnPG91dGZpbGUubWFlPic=

> <r_lp_tautomer_probability>
0.839158

> <r_epik_Ionization_Penalty>
0.000390001

> <r_epik_Ionization_Penalty_Charging>
0.000357609

> <r_epik_Ionization_Penalty_Neutral>
3.23917e-05

> <r_epik_State_Penalty>
0.0470088

> <r_epik_Charging_Adjusted_Penalty>
0.0473664

> <i_epik_Tot_Q>
0

> <i_epik_Tot_abs_Q>
0

> <r_epik_Metal_State_Penalty>
0.223611

> <b_epik_Metal_Only>
0

> <s_lp_Force_Field>
OPLS_2005

> <r_lp_Energy>
9.33337

> <b_lp_Chiralities_Consistent>
1

> <s_lp_Variant>
AV-unprocessed.smi:1363-1

> <Gold.Version>
5.8.1

> <Gold.Id.Protein>
6NUR|6NUR_protein|mol2

> <Gold.PLP.Fitness>
42.6468

> <Gold.PLP.PLP>
-38.1613

> <Gold.PLP.part.hbond>
-3.0000

> <Gold.PLP.part.metal>
0.0000

> <Gold.PLP.part.buried>
-4.8631

> <Gold.PLP.part.nonpolar>
-32.6849

> <Gold.PLP.part.repulsive>
2.1771

> <Gold.PLP.ligand.clash>
0.0000

> <Gold.PLP.ligand.torsion>
0.7615

> <Gold.PLP.Chemscore.Hbond>
2.0000

> <Gold.PLP.Chemscore.CHOScore>
0.0000

> <Gold.PLP.Chemscore.Metal>
0.0000

> <Gold.Chemscore.Hbonds>
donor molecule, donor type, donor heavy atom, donor atom, acceptor molecule, acceptor atom, score
      L1  H    21    22       P1 10171  1.00
      P1  H  7954  7966       L1    20  0.54

> <Gold.PLP.Chemscore.Internal.Correction>
0.0085

> <Gold.Rescore>
     Score         DG    S(hbond)    S(metal)    S(lipo)     H(rot)  DE(clash)    DE(int)     intcor
     16.34     -18.72       1.92        0.00      99.07       1.86       1.54       0.84       ----

> <Gold.Chemscore.Fitness>
16.3396

> <Gold.Chemscore.DG>
-18.7245

> <Gold.Chemscore.ZeroCoef>
-5.4800

> <Gold.Chemscore.Hbond>
1.9231

> <Gold.Chemscore.Metal>
0.0000

> <Gold.Chemscore.Lipo>
99.0694

> <Gold.Chemscore.Internal_Hbond>
0.0000

> <Gold.Chemscore.DEClash>
1.5406

> <Gold.Chemscore.DEInternal>
0.8443

> <Gold.Chemscore.Rot>
1.8631

> <Gold.Chemscore.Internal.Correction>
   9.000000E+99

> <Gold.Chemscore.Hbonds>
donor molecule, donor type, donor heavy atom, donor atom, acceptor molecule, acceptor atom, score
      L1  H    21    22       P1 10171  0.98
      P1  H  7954  7966       L1    20  0.53

> <Gold.Chemscore.Hbond.Weighted>
-6.4231

> <Gold.Chemscore.Metal.Weighted>
-0.0000

> <Gold.Chemscore.Lipo.Weighted>
-11.5911

> <Gold.Chemscore.Internal_Hbond.Weighted>
0.0000

> <Gold.Chemscore.DEClash.Weighted>
1.5406

> <Gold.Chemscore.DEInternal.Weighted>
0.8443

> <Gold.Chemscore.Rot.Weighted>
4.7697

> <Gold.Chemscore.Internal.Correction.Weighted>
   9.000000E+99

> <Gold.Protein.RotatedTorsions>
[ 6907 6896 6895 6894 ] final  -56.72 input  -60.11 | X-H torsion
[ 7974 7965 7964 7962 ] final   47.01 input  175.53 | X-H torsion
[ 8008 7997 7996 7995 ] final  -78.18 input   59.86 | X-H torsion
[ 10167 10162 10161 10158 ] final   79.36 input  -65.29 | X-H torsion
[ 10718 10713 10712 10709 ] final  100.82 input   66.30 | X-H torsion
[ 10763 10752 10751 10750 ] final   69.45 input  -60.55 | X-H torsion
[ 11005 11000 10999 10996 ] final  -25.30 input  -57.11 | X-H torsion

> <Gold.Protein.ActiveResidues>
 VAL166  LYS551  ARG553  GLY616  TRP617  ASP618  TYR619  PRO620  LYS621  CYS622 
 ASP623  PHE694  ASN695  SER759  ASP760  ASP761  ALA762  ILE779  LEU786  VAL792 
 PHE793  MET794  SER795  GLU796  ALA797  LYS798  CYS799  TRP800  GLU811  SER814 

> <Gold.Protein.RotatedAtoms>
  150.8145  134.7318  159.6716 H   0  0  0  0  0  0  0  0  0  0  0  0  # atno 6907 bound_to 6896
  152.4264  134.5858  159.9970 H   0  0  0  0  0  0  0  0  0  0  0  0  # atno 6908 bound_to 6896
  151.6058  133.3314  159.3093 H   0  0  0  0  0  0  0  0  0  0  0  0  # atno 6909 bound_to 6896
  146.0337  139.4795  142.9821 H   0  0  0  0  0  0  0  0  0  0  0  0  # atno 7974 bound_to 7965
  154.5666  140.0698  156.8900 H   0  0  0  0  0  0  0  0  0  0  0  0  # atno 8008 bound_to 7997
  155.2712  140.3365  155.4247 H   0  0  0  0  0  0  0  0  0  0  0  0  # atno 8009 bound_to 7997
  156.2085  140.1749  156.7733 H   0  0  0  0  0  0  0  0  0  0  0  0  # atno 8010 bound_to 7997
  139.9612  144.5960  150.8071 H   0  0  0  0  0  0  0  0  0  0  0  0  # atno 10167 bound_to 10162
  157.6845  131.0709  150.5158 H   0  0  0  0  0  0  0  0  0  0  0  0  # atno 10718 bound_to 10713
  153.0288  135.5210  154.7290 H   0  0  0  0  0  0  0  0  0  0  0  0  # atno 10763 bound_to 10752
  154.6323  135.2902  155.0204 H   0  0  0  0  0  0  0  0  0  0  0  0  # atno 10764 bound_to 10752
  154.1151  135.6616  153.4945 H   0  0  0  0  0  0  0  0  0  0  0  0  # atno 10765 bound_to 10752
  140.8925  133.7579  156.0439 H   0  0  0  0  0  0  0  0  0  0  0  0  # atno 11005 bound_to 11000
  145.6998  141.0139  143.1510 LP  0  0  0  0  0  0  0  0  0  0  0  0  # atno 17320 bound_to 7965
  144.7042  139.8631  143.7435 LP  0  0  0  0  0  0  0  0  0  0  0  0  # atno 17321 bound_to 7965
  140.7552  143.3043  151.3002 LP  0  0  0  0  0  0  0  0  0  0  0  0  # atno 17342 bound_to 10162
  139.6553  144.0288  152.2655 LP  0  0  0  0  0  0  0  0  0  0  0  0  # atno 17343 bound_to 10162
  156.5473  130.4223  149.6125 LP  0  0  0  0  0  0  0  0  0  0  0  0  # atno 17370 bound_to 10713
  156.2933  130.7136  151.1990 LP  0  0  0  0  0  0  0  0  0  0  0  0  # atno 17371 bound_to 10713
  140.8330  134.3156  157.5342 LP  0  0  0  0  0  0  0  0  0  0  0  0  # atno 17394 bound_to 11000
  139.8731  134.9374  156.3685 LP  0  0  0  0  0  0  0  0  0  0  0  0  # atno 17395 bound_to 11000

$$$$
