AV-unprocessed.smi:17|AV-procd|sdf|100|dock2
  -GOLD-   2262015243D 1   1.00000     0.00000
 Structure written by MMmdl.
 57 59  0  0  0  0  0  0  0  0  1 V2000
  147.6632  135.9143  163.0090 C   0  0  0  0  0  0  0  0  0  0  0  0
  147.1719  136.0105  161.5577 C   0  0  0  0  0  0  0  0  0  0  0  0
  147.3742  134.7619  160.8170 N   0  0  0  0  0  0  0  0  0  0  0  0
  148.1890  134.7688  159.7266 C   0  0  0  0  0  0  0  0  0  0  0  0
  148.5234  133.5755  159.1674 N   0  0  0  0  0  0  0  0  0  0  0  0
  149.3006  133.5253  158.0826 C   0  0  0  0  0  0  0  0  0  0  0  0
  149.8532  134.5324  157.4064 N   0  0  0  0  0  0  0  0  0  0  0  0
  149.5417  135.7333  157.9711 C   0  0  0  0  0  0  0  0  0  0  0  0
  148.7313  135.9431  159.1239 C   0  0  0  0  0  0  0  0  0  0  0  0
  148.6735  137.3042  159.4086 N   0  0  0  0  0  0  0  0  0  0  0  0
  149.3810  137.8642  158.4665 C   0  0  0  0  0  0  0  0  0  0  0  0
  149.9308  136.9934  157.5549 N   0  0  0  0  0  0  0  0  0  0  0  0
  150.7550  137.3326  156.4092 C   0  0  0  0  0  0  0  0  0  0  0  0
  150.9983  138.8567  156.2433 C   0  0  1  0  0  0  0  0  0  0  0  0
  152.2536  139.1620  155.3859 C   0  0  0  0  0  0  0  0  0  0  0  0
  153.3814  138.4298  155.8207 O   0  0  0  0  0  0  0  0  0  0  0  0
  149.7395  139.5491  155.6582 C   0  0  2  0  0  0  0  0  0  0  0  0
  149.3037  139.0326  154.2914 C   0  0  0  0  0  0  0  0  0  0  0  0
  148.5848  140.2195  153.6451 C   0  0  0  0  0  0  0  0  0  0  0  0
  148.8203  141.3362  154.4932 O   0  0  0  0  0  0  0  0  0  0  0  0
  149.9097  141.0382  155.3496 C   0  0  0  0  0  0  0  0  0  0  0  0
  146.7038  133.5217  161.2244 C   0  0  2  0  0  0  0  0  0  0  0  0
  147.7247  132.4552  161.6535 C   0  0  0  0  0  0  0  0  0  0  0  0
  145.7322  132.9850  160.1509 C   0  0  0  0  0  0  0  0  0  0  0  0
  144.9979  131.3410  160.5863 S   0  0  0  0  0  0  0  0  0  0  0  0
  143.1955  131.7073  160.6516 C   0  0  0  0  0  0  0  0  0  0  0  0
  145.2215  130.4304  159.4534 O   0  0  0  0  0  0  0  0  0  0  0  0
  145.4374  130.9507  161.9349 O   0  0  0  0  0  0  0  0  0  0  0  0
  147.5315  136.8658  163.5240 H   0  0  0  0  0  0  0  0  0  0  0  0
  148.7221  135.6579  163.0510 H   0  0  0  0  0  0  0  0  0  0  0  0
  147.1121  135.1580  163.5681 H   0  0  0  0  0  0  0  0  0  0  0  0
  146.1212  136.3005  161.5364 H   0  0  0  0  0  0  0  0  0  0  0  0
  147.7092  136.8190  161.0633 H   0  0  0  0  0  0  0  0  0  0  0  0
  149.5075  132.5366  157.7008 H   0  0  0  0  0  0  0  0  0  0  0  0
  149.5162  138.9343  158.4072 H   0  0  0  0  0  0  0  0  0  0  0  0
  151.7067  136.8074  156.4984 H   0  0  0  0  0  0  0  0  0  0  0  0
  150.2576  136.9214  155.5312 H   0  0  0  0  0  0  0  0  0  0  0  0
  151.1603  139.2822  157.2350 H   0  0  0  0  0  0  0  0  0  0  0  0
  152.0647  138.9538  154.3323 H   0  0  0  0  0  0  0  0  0  0  0  0
  152.5319  140.2128  155.4511 H   0  0  0  0  0  0  0  0  0  0  0  0
  153.4324  137.6283  155.3226 H   0  0  0  0  0  0  0  0  0  0  0  0
  148.9060  139.4381  156.3538 H   0  0  0  0  0  0  0  0  0  0  0  0
  150.1727  138.7631  153.6894 H   0  0  0  0  0  0  0  0  0  0  0  0
  148.6607  138.1546  154.3605 H   0  0  0  0  0  0  0  0  0  0  0  0
  148.9753  140.4160  152.6460 H   0  0  0  0  0  0  0  0  0  0  0  0
  147.5116  140.0464  153.5620 H   0  0  0  0  0  0  0  0  0  0  0  0
  149.8791  141.6651  156.2409 H   0  0  0  0  0  0  0  0  0  0  0  0
  150.8476  141.2282  154.8249 H   0  0  0  0  0  0  0  0  0  0  0  0
  146.0832  133.7146  162.0967 H   0  0  0  0  0  0  0  0  0  0  0  0
  147.2236  131.5661  162.0365 H   0  0  0  0  0  0  0  0  0  0  0  0
  148.3737  132.8311  162.4450 H   0  0  0  0  0  0  0  0  0  0  0  0
  148.3580  132.1442  160.8227 H   0  0  0  0  0  0  0  0  0  0  0  0
  144.9291  133.6827  159.9171 H   0  0  0  0  0  0  0  0  0  0  0  0
  146.2856  132.8305  159.2242 H   0  0  0  0  0  0  0  0  0  0  0  0
  142.6474  130.7813  160.8229 H   0  0  0  0  0  0  0  0  0  0  0  0
  142.8752  132.1455  159.7070 H   0  0  0  0  0  0  0  0  0  0  0  0
  142.9824  132.3978  161.4640 H   0  0  0  0  0  0  0  0  0  0  0  0
  1  2  1  0  0  0  0
  1 29  1  0  0  0  0
  1 30  1  0  0  0  0
  1 31  1  0  0  0  0
  2  3  1  0  0  0  0
  2 32  1  0  0  0  0
  2 33  1  0  0  0  0
  3  4  1  0  0  0  0
  3 22  1  0  0  0  0
  4  9  1  0  0  0  0
  4  5  2  0  0  0  0
  5  6  1  0  0  0  0
  6  7  2  0  0  0  0
  6 34  1  0  0  0  0
  7  8  1  0  0  0  0
  8 12  1  0  0  0  0
  8  9  2  0  0  0  0
  9 10  1  0  0  0  0
 10 11  2  0  0  0  0
 11 12  1  0  0  0  0
 11 35  1  0  0  0  0
 12 13  1  0  0  0  0
 13 14  1  0  0  0  0
 13 36  1  0  0  0  0
 13 37  1  0  0  0  0
 14 15  1  0  0  0  0
 14 17  1  0  0  0  0
 14 38  1  0  0  0  0
 15 16  1  0  0  0  0
 15 39  1  0  0  0  0
 15 40  1  0  0  0  0
 16 41  1  0  0  0  0
 17 21  1  0  0  0  0
 17 18  1  0  0  0  0
 17 42  1  0  0  0  0
 18 19  1  0  0  0  0
 18 43  1  0  0  0  0
 18 44  1  0  0  0  0
 19 20  1  0  0  0  0
 19 45  1  0  0  0  0
 19 46  1  0  0  0  0
 20 21  1  0  0  0  0
 21 47  1  0  0  0  0
 21 48  1  0  0  0  0
 22 23  1  0  0  0  0
 22 24  1  0  0  0  0
 22 49  1  0  0  0  0
 23 50  1  0  0  0  0
 23 51  1  0  0  0  0
 23 52  1  0  0  0  0
 24 25  1  0  0  0  0
 24 53  1  0  0  0  0
 24 54  1  0  0  0  0
 25 26  1  0  0  0  0
 25 27  2  0  0  0  0
 25 28  2  0  0  0  0
 26 55  1  0  0  0  0
 26 56  1  0  0  0  0
 26 57  1  0  0  0  0
M  END
> <s_m_source_file>
AV-unprocessed.smi

> <i_m_source_file_index>
17

> <i_lp_mmshare_version>
43012

> <i_f3d_flags>
0

> <s_epik_input>
W0NIM11TKD1PKSg9TylbQ0gyXVtDQEBIXShbQ0gzXSlOKFtDSDJdW0NIM10pYyhuW2NIXW4xKWMoYzEyKW5bY0hdbjJbQ0gyXVtDQEhdKFtDSDJdW09IXSlbQ0BASF0zW0NIMl1bQ0gyXU9bQ0gyXTM=

> <s_epik_cmdline>
J2VwaWtfcHl0aG9uJywgJy1waCcsICc3LjAnLCAnLXRuJywgJzgnLCAnLW1hJywgJzIwMCcsICctbWV0YWxfYmluZGluZycsICctaW1hZScsICc8aW5maWxlLm1hZT4nLCAnLW9tYWUnLCAnPG91dGZpbGUubWFlPic=

> <r_lp_tautomer_probability>
1

> <r_epik_Ionization_Penalty>
0.00119955

> <r_epik_Ionization_Penalty_Charging>
0

> <r_epik_Ionization_Penalty_Neutral>
0.00119955

> <r_epik_State_Penalty>
0.000665399

> <r_epik_Charging_Adjusted_Penalty>
0.000665399

> <i_epik_Tot_Q>
0

> <i_epik_Tot_abs_Q>
0

> <r_epik_Metal_State_Penalty>
-0

> <b_epik_Metal_Only>
0

> <s_lp_Force_Field>
OPLS_2005

> <r_lp_Energy>
33.0306

> <b_lp_Chiralities_Consistent>
1

> <s_lp_Variant>
AV-unprocessed.smi:17-2

> <Gold.Version>
5.8.1

> <Gold.Id.Protein>
6NUR|6NUR_protein|mol2

> <Gold.PLP.Fitness>
38.1793

> <Gold.PLP.PLP>
-35.3284

> <Gold.PLP.part.hbond>
-3.6999

> <Gold.PLP.part.metal>
0.0000

> <Gold.PLP.part.buried>
-3.5624

> <Gold.PLP.part.nonpolar>
-30.1733

> <Gold.PLP.part.repulsive>
0.3286

> <Gold.PLP.ligand.clash>
0.0000

> <Gold.PLP.ligand.torsion>
0.3939

> <Gold.PLP.Chemscore.Hbond>
1.0000

> <Gold.PLP.Chemscore.CHOScore>
0.0000

> <Gold.PLP.Chemscore.Metal>
0.0000

> <Gold.Chemscore.Hbonds>
donor molecule, donor type, donor heavy atom, donor atom, acceptor molecule, acceptor atom, score
      P1  H  7997  8009       L1    16  0.51

> <Gold.PLP.Chemscore.Internal.Correction>
0.6387

> <Gold.Rescore>
     Score         DG    S(hbond)    S(metal)    S(lipo)     H(rot)  DE(clash)    DE(int)     intcor
      4.72      -9.29       0.95        0.00      82.07       3.51       0.28       4.29       ----

> <Gold.Chemscore.Fitness>
4.7209

> <Gold.Chemscore.DG>
-9.2888

> <Gold.Chemscore.ZeroCoef>
-5.4800

> <Gold.Chemscore.Hbond>
0.9525

> <Gold.Chemscore.Metal>
0.0000

> <Gold.Chemscore.Lipo>
82.0734

> <Gold.Chemscore.Internal_Hbond>
0.0000

> <Gold.Chemscore.DEClash>
0.2776

> <Gold.Chemscore.DEInternal>
4.2903

> <Gold.Chemscore.Rot>
3.5059

> <Gold.Chemscore.Internal.Correction>
   9.000000E+99

> <Gold.Chemscore.Hbonds>
donor molecule, donor type, donor heavy atom, donor atom, acceptor molecule, acceptor atom, score
      P1  H  7997  8009       L1    16  0.03

> <Gold.Chemscore.Hbond.Weighted>
-3.1812

> <Gold.Chemscore.Metal.Weighted>
-0.0000

> <Gold.Chemscore.Lipo.Weighted>
-9.6026

> <Gold.Chemscore.Internal_Hbond.Weighted>
0.0000

> <Gold.Chemscore.DEClash.Weighted>
0.2776

> <Gold.Chemscore.DEInternal.Weighted>
4.2903

> <Gold.Chemscore.Rot.Weighted>
8.9750

> <Gold.Chemscore.Internal.Correction.Weighted>
   9.000000E+99

> <Gold.Protein.RotatedTorsions>
[ 6907 6896 6895 6894 ] final  121.75 input  -60.11 | X-H torsion
[ 7974 7965 7964 7962 ] final  117.70 input  175.53 | X-H torsion
[ 8008 7997 7996 7995 ] final -161.98 input   59.86 | X-H torsion
[ 10167 10162 10161 10158 ] final  147.39 input  -65.29 | X-H torsion
[ 10718 10713 10712 10709 ] final  -83.93 input   66.30 | X-H torsion
[ 10763 10752 10751 10750 ] final  -53.04 input  -60.55 | X-H torsion
[ 11005 11000 10999 10996 ] final  119.14 input  -57.11 | X-H torsion

> <Gold.Protein.ActiveResidues>
 VAL166  LYS551  ARG553  GLY616  TRP617  ASP618  TYR619  PRO620  LYS621  CYS622 
 ASP623  PHE694  ASN695  SER759  ASP760  ASP761  ALA762  ILE779  LEU786  VAL792 
 PHE793  MET794  SER795  GLU796  ALA797  LYS798  CYS799  TRP800  GLU811  SER814 

> <Gold.Protein.RotatedAtoms>
  152.4297  133.7257  159.6558 H   0  0  0  0  0  0  0  0  0  0  0  0  # atno 6907 bound_to 6896
  150.8176  133.8299  159.3159 H   0  0  0  0  0  0  0  0  0  0  0  0  # atno 6908 bound_to 6896
  151.5991  135.1050  160.0108 H   0  0  0  0  0  0  0  0  0  0  0  0  # atno 6909 bound_to 6896
  145.1642  139.3138  143.4501 H   0  0  0  0  0  0  0  0  0  0  0  0  # atno 7974 bound_to 7965
  155.8001  140.0890  157.1962 H   0  0  0  0  0  0  0  0  0  0  0  0  # atno 8008 bound_to 7997
  154.3982  140.1474  156.3323 H   0  0  0  0  0  0  0  0  0  0  0  0  # atno 8009 bound_to 7997
  155.8471  140.3436  155.5672 H   0  0  0  0  0  0  0  0  0  0  0  0  # atno 8010 bound_to 7997
  139.4891  144.5759  151.6966 H   0  0  0  0  0  0  0  0  0  0  0  0  # atno 10167 bound_to 10162
  156.0012  130.4681  150.4332 H   0  0  0  0  0  0  0  0  0  0  0  0  # atno 10718 bound_to 10713
  154.1525  135.6488  153.4967 H   0  0  0  0  0  0  0  0  0  0  0  0  # atno 10763 bound_to 10752
  153.0133  135.5341  154.6793 H   0  0  0  0  0  0  0  0  0  0  0  0  # atno 10764 bound_to 10752
  154.6085  135.2951  155.0429 H   0  0  0  0  0  0  0  0  0  0  0  0  # atno 10765 bound_to 10752
  139.9135  134.9626  156.7610 H   0  0  0  0  0  0  0  0  0  0  0  0  # atno 11005 bound_to 11000
  146.3478  140.1764  142.8589 LP  0  0  0  0  0  0  0  0  0  0  0  0  # atno 17320 bound_to 7965
  145.0299  140.8862  143.5116 LP  0  0  0  0  0  0  0  0  0  0  0  0  # atno 17321 bound_to 7965
  140.5355  144.0662  150.6069 LP  0  0  0  0  0  0  0  0  0  0  0  0  # atno 17342 bound_to 10162
  140.3667  143.2877  152.0324 LP  0  0  0  0  0  0  0  0  0  0  0  0  # atno 17343 bound_to 10162
  157.2379  131.0519  151.2454 LP  0  0  0  0  0  0  0  0  0  0  0  0  # atno 17370 bound_to 10713
  157.3648  130.7150  149.6525 LP  0  0  0  0  0  0  0  0  0  0  0  0  # atno 17371 bound_to 10713
  140.6697  133.9570  155.7850 LP  0  0  0  0  0  0  0  0  0  0  0  0  # atno 17394 bound_to 11000
  141.0586  134.0380  157.3689 LP  0  0  0  0  0  0  0  0  0  0  0  0  # atno 17395 bound_to 11000

$$$$
