AV-unprocessed.smi:2475|AV-procd|sdf|9756|dock6
  -GOLD-   2272013393D 1   1.00000     0.00000
 Structure written by MMmdl.
 37 38  0  0  0  0  0  0  0  0  1 V2000
  154.3396  139.8264  160.8544 C   0  0  0  0  0  0  0  0  0  0  0  0
  153.4930  140.6636  159.9197 C   0  0  0  0  0  0  0  0  0  0  0  0
  152.8623  140.1001  158.7905 C   0  0  0  0  0  0  0  0  0  0  0  0
  152.0929  140.9668  157.9826 C   0  0  0  0  0  0  0  0  0  0  0  0
  151.4736  140.3718  156.8534 N   0  0  0  0  0  0  0  0  0  0  0  0
  151.9620  139.4157  156.0398 C   0  0  0  0  0  0  0  0  0  0  0  0
  153.0862  138.9241  156.1457 O   0  0  0  0  0  0  0  0  0  0  0  0
  151.0409  138.9571  154.8937 C   0  0  1  0  0  0  0  0  0  0  0  0
  149.7148  138.3312  155.3753 C   0  0  0  0  0  0  0  0  0  0  0  0
  148.6374  139.2134  154.7670 C   0  0  0  0  0  0  0  0  0  0  0  0
  149.3736  140.5198  154.5120 C   0  0  0  0  0  0  0  0  0  0  0  0
  150.6528  140.0739  154.0899 O   0  0  0  0  0  0  0  0  0  0  0  0
  151.9857  142.2782  158.3088 N   0  0  0  0  0  0  0  0  0  0  0  0
  152.6240  142.7135  159.4001 C   0  0  0  0  0  0  0  0  0  0  0  0
  152.4788  144.1906  159.7425 C   0  0  0  0  0  0  0  0  0  0  0  0
  151.9079  144.3987  161.1538 C   0  0  0  0  0  0  0  0  0  0  0  0
  151.7029  144.9591  158.6614 C   0  0  0  0  0  0  0  0  0  0  0  0
  153.3717  141.9731  160.2230 N   0  0  0  0  0  0  0  0  0  0  0  0
  154.4390  138.8046  160.4874 H   0  0  0  0  0  0  0  0  0  0  0  0
  153.8864  139.7906  161.8454 H   0  0  0  0  0  0  0  0  0  0  0  0
  155.3387  140.2530  160.9475 H   0  0  0  0  0  0  0  0  0  0  0  0
  152.9655  139.0507  158.5554 H   0  0  0  0  0  0  0  0  0  0  0  0
  150.5413  140.6975  156.6436 H   0  0  0  0  0  0  0  0  0  0  0  0
  151.5947  138.2562  154.2684 H   0  0  0  0  0  0  0  0  0  0  0  0
  149.6116  137.2962  155.0482 H   0  0  0  0  0  0  0  0  0  0  0  0
  149.6237  138.3386  156.4626 H   0  0  0  0  0  0  0  0  0  0  0  0
  148.3015  138.7889  153.8200 H   0  0  0  0  0  0  0  0  0  0  0  0
  147.7672  139.3340  155.4130 H   0  0  0  0  0  0  0  0  0  0  0  0
  148.8909  141.1369  153.7540 H   0  0  0  0  0  0  0  0  0  0  0  0
  149.4667  141.1042  155.4287 H   0  0  0  0  0  0  0  0  0  0  0  0
  153.4833  144.6174  159.7551 H   0  0  0  0  0  0  0  0  0  0  0  0
  152.5266  143.9037  161.9028 H   0  0  0  0  0  0  0  0  0  0  0  0
  150.8973  143.9976  161.2379 H   0  0  0  0  0  0  0  0  0  0  0  0
  151.8662  145.4581  161.4071 H   0  0  0  0  0  0  0  0  0  0  0  0
  152.1778  144.8486  157.6861 H   0  0  0  0  0  0  0  0  0  0  0  0
  151.6621  146.0242  158.8902 H   0  0  0  0  0  0  0  0  0  0  0  0
  150.6768  144.5998  158.5756 H   0  0  0  0  0  0  0  0  0  0  0  0
  1  2  1  0  0  0  0
  1 19  1  0  0  0  0
  1 20  1  0  0  0  0
  1 21  1  0  0  0  0
  2 18  1  0  0  0  0
  2  3  2  0  0  0  0
  3  4  1  0  0  0  0
  3 22  1  0  0  0  0
  4  5  1  0  0  0  0
  4 13  2  0  0  0  0
  5  6  1  0  0  0  0
  5 23  1  0  0  0  0
  6  7  2  0  0  0  0
  6  8  1  0  0  0  0
  8 12  1  0  0  0  0
  8  9  1  0  0  0  0
  8 24  1  0  0  0  0
  9 10  1  0  0  0  0
  9 25  1  0  0  0  0
  9 26  1  0  0  0  0
 10 11  1  0  0  0  0
 10 27  1  0  0  0  0
 10 28  1  0  0  0  0
 11 12  1  0  0  0  0
 11 29  1  0  0  0  0
 11 30  1  0  0  0  0
 13 14  1  0  0  0  0
 14 15  1  0  0  0  0
 14 18  2  0  0  0  0
 15 16  1  0  0  0  0
 15 17  1  0  0  0  0
 15 31  1  0  0  0  0
 16 32  1  0  0  0  0
 16 33  1  0  0  0  0
 16 34  1  0  0  0  0
 17 35  1  0  0  0  0
 17 36  1  0  0  0  0
 17 37  1  0  0  0  0
M  END
> <s_m_source_file>
AV-unprocessed.smi

> <i_m_source_file_index>
2475

> <i_lp_mmshare_version>
43012

> <i_f3d_flags>
0

> <s_epik_input>
W0NIM11bQ0hdKFtDSDNdKWMobjEpbmMoW2NIXWMxW0NIM10pW05IXUMoPU8pW0NAQEhdMltDSDJdW0NIMl1bQ0gyXU8y

> <s_epik_cmdline>
J2VwaWtfcHl0aG9uJywgJy1waCcsICc3LjAnLCAnLXRuJywgJzgnLCAnLW1hJywgJzIwMCcsICctbWV0YWxfYmluZGluZycsICctaW1hZScsICc8aW5maWxlLm1hZT4nLCAnLW9tYWUnLCAnPG91dGZpbGUubWFlPic=

> <r_lp_tautomer_probability>
1

> <r_epik_Ionization_Penalty>
1.42804e-05

> <r_epik_Ionization_Penalty_Charging>
0

> <r_epik_Ionization_Penalty_Neutral>
1.42804e-05

> <r_epik_State_Penalty>
-0

> <r_epik_Charging_Adjusted_Penalty>
0

> <i_epik_Tot_Q>
0

> <i_epik_Tot_abs_Q>
0

> <r_epik_Metal_State_Penalty>
-0

> <b_epik_Metal_Only>
0

> <s_lp_Force_Field>
OPLS_2005

> <r_lp_Energy>
11.5588

> <b_lp_Chiralities_Consistent>
1

> <s_lp_Variant>
AV-unprocessed.smi:2475-2

> <Gold.Version>
5.8.1

> <Gold.Id.Protein>
6NUR|6NUR_protein|mol2

> <Gold.PLP.Fitness>
42.3066

> <Gold.PLP.PLP>
-36.8931

> <Gold.PLP.part.hbond>
-1.9306

> <Gold.PLP.part.metal>
0.0000

> <Gold.PLP.part.buried>
-6.0550

> <Gold.PLP.part.nonpolar>
-30.1425

> <Gold.PLP.part.repulsive>
0.2579

> <Gold.PLP.ligand.clash>
0.0000

> <Gold.PLP.ligand.torsion>
0.3313

> <Gold.PLP.Chemscore.Hbond>
2.0000

> <Gold.PLP.Chemscore.CHOScore>
0.0000

> <Gold.PLP.Chemscore.Metal>
0.0000

> <Gold.Chemscore.Hbonds>
donor molecule, donor type, donor heavy atom, donor atom, acceptor molecule, acceptor atom, score
      P1  H  7989  7998       L1    12  0.65
      P1  H  7997  8008       L1     7  1.00

> <Gold.PLP.Chemscore.Internal.Correction>
0.0760

> <Gold.Rescore>
     Score         DG    S(hbond)    S(metal)    S(lipo)     H(rot)  DE(clash)    DE(int)     intcor
     16.72     -18.30       1.91        0.00      80.96       1.18       0.00       1.58       ----

> <Gold.Chemscore.Fitness>
16.7179

> <Gold.Chemscore.DG>
-18.2981

> <Gold.Chemscore.ZeroCoef>
-5.4800

> <Gold.Chemscore.Hbond>
1.9095

> <Gold.Chemscore.Metal>
0.0000

> <Gold.Chemscore.Lipo>
80.9570

> <Gold.Chemscore.Internal_Hbond>
0.0000

> <Gold.Chemscore.DEClash>
0.0000

> <Gold.Chemscore.DEInternal>
1.5802

> <Gold.Chemscore.Rot>
1.1842

> <Gold.Chemscore.Internal.Correction>
   9.000000E+99

> <Gold.Chemscore.Hbonds>
donor molecule, donor type, donor heavy atom, donor atom, acceptor molecule, acceptor atom, score
      P1  H  7989  7998       L1    12  0.63
      P1  H  7997  8008       L1     7  0.89

> <Gold.Chemscore.Hbond.Weighted>
-6.3776

> <Gold.Chemscore.Metal.Weighted>
-0.0000

> <Gold.Chemscore.Lipo.Weighted>
-9.4720

> <Gold.Chemscore.Internal_Hbond.Weighted>
0.0000

> <Gold.Chemscore.DEClash.Weighted>
0.0000

> <Gold.Chemscore.DEInternal.Weighted>
1.5802

> <Gold.Chemscore.Rot.Weighted>
3.0315

> <Gold.Chemscore.Internal.Correction.Weighted>
   9.000000E+99

> <Gold.Protein.RotatedTorsions>
[ 6907 6896 6895 6894 ] final -123.26 input  -60.11 | X-H torsion
[ 7974 7965 7964 7962 ] final  -86.67 input  175.53 | X-H torsion
[ 8008 7997 7996 7995 ] final  -52.08 input   59.86 | X-H torsion
[ 10167 10162 10161 10158 ] final  -82.88 input  -65.29 | X-H torsion
[ 10718 10713 10712 10709 ] final   30.48 input   66.30 | X-H torsion
[ 10763 10752 10751 10750 ] final -112.00 input  -60.55 | X-H torsion
[ 11005 11000 10999 10996 ] final   81.81 input  -57.11 | X-H torsion

> <Gold.Protein.ActiveResidues>
 VAL166  LYS551  ARG553  GLY616  TRP617  ASP618  TYR619  PRO620  LYS621  CYS622 
 ASP623  PHE694  ASN695  SER759  ASP760  ASP761  ALA762  ILE779  LEU786  VAL792 
 PHE793  MET794  SER795  GLU796  ALA797  LYS798  CYS799  TRP800  GLU811  SER814 

> <Gold.Protein.RotatedAtoms>
  150.8654  133.7582  159.2978 H   0  0  0  0  0  0  0  0  0  0  0  0  # atno 6907 bound_to 6896
  151.5211  135.1065  159.9888 H   0  0  0  0  0  0  0  0  0  0  0  0  # atno 6908 bound_to 6896
  152.4657  133.7873  159.6939 H   0  0  0  0  0  0  0  0  0  0  0  0  # atno 6909 bound_to 6896
  145.4767  140.9558  143.1887 H   0  0  0  0  0  0  0  0  0  0  0  0  # atno 7974 bound_to 7965
  154.4098  140.1232  156.4933 H   0  0  0  0  0  0  0  0  0  0  0  0  # atno 8008 bound_to 7997
  155.6968  140.3495  155.4897 H   0  0  0  0  0  0  0  0  0  0  0  0  # atno 8009 bound_to 7997
  155.9420  140.1089  157.1038 H   0  0  0  0  0  0  0  0  0  0  0  0  # atno 8010 bound_to 7997
  140.4279  143.2560  151.8800 H   0  0  0  0  0  0  0  0  0  0  0  0  # atno 10167 bound_to 10162
  157.2601  130.7157  149.6449 H   0  0  0  0  0  0  0  0  0  0  0  0  # atno 10718 bound_to 10713
  154.8328  135.4506  154.1126 H   0  0  0  0  0  0  0  0  0  0  0  0  # atno 10763 bound_to 10752
  153.2384  135.6913  153.7816 H   0  0  0  0  0  0  0  0  0  0  0  0  # atno 10764 bound_to 10752
  153.7173  135.3347  155.3235 H   0  0  0  0  0  0  0  0  0  0  0  0  # atno 10765 bound_to 10752
  139.9085  134.8024  156.2091 H   0  0  0  0  0  0  0  0  0  0  0  0  # atno 11005 bound_to 11000
  144.7913  139.6323  143.7112 LP  0  0  0  0  0  0  0  0  0  0  0  0  # atno 17320 bound_to 7965
  146.2365  139.5915  142.9520 LP  0  0  0  0  0  0  0  0  0  0  0  0  # atno 17321 bound_to 7965
  139.4784  144.5367  151.8588 LP  0  0  0  0  0  0  0  0  0  0  0  0  # atno 17342 bound_to 10162
  140.4461  144.1920  150.5894 LP  0  0  0  0  0  0  0  0  0  0  0  0  # atno 17343 bound_to 10162
  155.9664  130.4400  150.5282 LP  0  0  0  0  0  0  0  0  0  0  0  0  # atno 17370 bound_to 10713
  157.3185  131.0677  151.1949 LP  0  0  0  0  0  0  0  0  0  0  0  0  # atno 17371 bound_to 10713
  141.0477  133.6905  156.1713 LP  0  0  0  0  0  0  0  0  0  0  0  0  # atno 17394 bound_to 11000
  140.6859  134.4718  157.5589 LP  0  0  0  0  0  0  0  0  0  0  0  0  # atno 17395 bound_to 11000

$$$$
