AV-unprocessed.smi:1005|AV-procd|sdf|4364|dock9
  -GOLD-   22720 2263D 1   1.00000     0.00000
 Structure written by MMmdl.
 56 58  0  0  0  0  0  0  0  0  2 V2000
  152.9656  142.6219  160.1883 C   0  0  0  0  0  0  0  0  0  0  0  0
  152.2420  142.1880  158.9259 C   0  0  0  0  0  0  0  0  0  0  0  0
  152.2014  140.8149  158.5946 C   0  0  0  0  0  0  0  0  0  0  0  0
  151.5369  140.3699  157.4309 C   0  0  0  0  0  0  0  0  0  0  0  0
  151.3719  139.0924  156.9237 N   0  0  0  0  0  0  0  0  0  0  0  0
  150.6646  139.3308  155.8234 C   0  0  0  0  0  0  0  0  0  0  0  0
  150.3433  140.6122  155.5617 N   0  0  0  0  0  0  0  0  0  0  0  0
  149.5699  141.1025  154.4348 C   0  0  0  0  0  0  0  0  0  0  0  0
  148.2101  140.3904  154.3099 C   0  0  2  0  0  0  0  0  0  0  0  0
  148.3397  139.3792  153.3327 O   0  0  0  0  0  0  0  0  0  0  0  0
  147.0628  141.3336  153.8815 C   0  0  0  0  0  0  0  0  0  0  0  0
  146.5946  142.2574  154.9150 N   0  0  0  0  0  0  0  0  0  0  0  0
  146.5676  141.6041  156.2190 C   0  0  0  0  0  0  0  0  0  0  0  0
  146.0679  142.5491  157.3237 C   0  0  0  0  0  0  0  0  0  0  0  0
  144.7766  143.0395  156.9785 O   0  0  0  0  0  0  0  0  0  0  0  0
  144.7576  143.7332  155.7332 C   0  0  2  0  0  0  0  0  0  0  0  0
  143.3150  144.1986  155.4684 C   0  0  0  0  0  0  0  0  0  0  0  0
  143.1042  144.6311  154.0636 N   0  3  0  0  0  0  0  0  0  0  0  0
  141.7956  145.2881  153.8418 C   0  0  0  0  0  0  0  0  0  0  0  0
  144.2208  145.4625  153.5627 C   0  0  0  0  0  0  0  0  0  0  0  0
  145.2594  142.7815  154.6283 C   0  0  0  0  0  0  0  0  0  0  0  0
  150.9086  141.3438  156.6007 C   0  0  0  0  0  0  0  0  0  0  0  0
  150.9430  142.7129  156.9192 C   0  0  0  0  0  0  0  0  0  0  0  0
  151.6127  143.1406  158.0848 C   0  0  0  0  0  0  0  0  0  0  0  0
  151.6438  144.6212  158.4194 C   0  0  0  0  0  0  0  0  0  0  0  0
  153.3455  141.7647  160.7451 H   0  0  0  0  0  0  0  0  0  0  0  0
  152.2931  143.1741  160.8449 H   0  0  0  0  0  0  0  0  0  0  0  0
  153.8125  143.2625  159.9410 H   0  0  0  0  0  0  0  0  0  0  0  0
  152.6806  140.0887  159.2346 H   0  0  0  0  0  0  0  0  0  0  0  0
  150.3542  138.5264  155.1726 H   0  0  0  0  0  0  0  0  0  0  0  0
  149.4312  142.1790  154.5416 H   0  0  0  0  0  0  0  0  0  0  0  0
  150.1607  140.9524  153.5301 H   0  0  0  0  0  0  0  0  0  0  0  0
  147.9932  139.9065  155.2611 H   0  0  0  0  0  0  0  0  0  0  0  0
  148.5853  139.7843  152.5148 H   0  0  0  0  0  0  0  0  0  0  0  0
  147.3664  141.9199  153.0142 H   0  0  0  0  0  0  0  0  0  0  0  0
  146.2317  140.7191  153.5315 H   0  0  0  0  0  0  0  0  0  0  0  0
  145.9239  140.7238  156.1793 H   0  0  0  0  0  0  0  0  0  0  0  0
  147.5660  141.2483  156.4762 H   0  0  0  0  0  0  0  0  0  0  0  0
  146.0069  142.0217  158.2757 H   0  0  0  0  0  0  0  0  0  0  0  0
  146.7579  143.3829  157.4619 H   0  0  0  0  0  0  0  0  0  0  0  0
  145.4291  144.5906  155.7878 H   0  0  0  0  0  0  0  0  0  0  0  0
  142.6043  143.4082  155.7151 H   0  0  0  0  0  0  0  0  0  0  0  0
  143.0959  145.0276  156.1434 H   0  0  0  0  0  0  0  0  0  0  0  0
  141.7078  146.1964  154.4395 H   0  0  0  0  0  0  0  0  0  0  0  0
  140.9667  144.6291  154.0978 H   0  0  0  0  0  0  0  0  0  0  0  0
  141.6776  145.5611  152.7926 H   0  0  0  0  0  0  0  0  0  0  0  0
  144.3061  146.3881  154.1336 H   0  0  0  0  0  0  0  0  0  0  0  0
  144.0710  145.7196  152.5136 H   0  0  0  0  0  0  0  0  0  0  0  0
  145.1673  144.9254  153.6361 H   0  0  0  0  0  0  0  0  0  0  0  0
  145.2558  143.3197  153.6819 H   0  0  0  0  0  0  0  0  0  0  0  0
  144.5561  141.9547  154.5155 H   0  0  0  0  0  0  0  0  0  0  0  0
  150.4564  143.4280  156.2726 H   0  0  0  0  0  0  0  0  0  0  0  0
  151.1722  145.2158  157.6365 H   0  0  0  0  0  0  0  0  0  0  0  0
  152.6712  144.9691  158.5281 H   0  0  0  0  0  0  0  0  0  0  0  0
  151.1120  144.8116  159.3518 H   0  0  0  0  0  0  0  0  0  0  0  0
  143.1110  143.7906  153.5023 H   0  0  0  0  0  0  0  0  0  0  0  0
  1  2  1  0  0  0  0
  1 26  1  0  0  0  0
  1 27  1  0  0  0  0
  1 28  1  0  0  0  0
  2 24  1  0  0  0  0
  2  3  2  0  0  0  0
  3  4  1  0  0  0  0
  3 29  1  0  0  0  0
  4 22  2  0  0  0  0
  4  5  1  0  0  0  0
  5  6  2  0  0  0  0
  6  7  1  0  0  0  0
  6 30  1  0  0  0  0
  7  8  1  0  0  0  0
  7 22  1  0  0  0  0
  8  9  1  0  0  0  0
  8 31  1  0  0  0  0
  8 32  1  0  0  0  0
  9 10  1  0  0  0  0
  9 11  1  0  0  0  0
  9 33  1  0  0  0  0
 10 34  1  0  0  0  0
 11 12  1  0  0  0  0
 11 35  1  0  0  0  0
 11 36  1  0  0  0  0
 12 21  1  0  0  0  0
 12 13  1  0  0  0  0
 13 14  1  0  0  0  0
 13 37  1  0  0  0  0
 13 38  1  0  0  0  0
 14 15  1  0  0  0  0
 14 39  1  0  0  0  0
 14 40  1  0  0  0  0
 15 16  1  0  0  0  0
 16 17  1  0  0  0  0
 16 21  1  0  0  0  0
 16 41  1  0  0  0  0
 17 18  1  0  0  0  0
 17 42  1  0  0  0  0
 17 43  1  0  0  0  0
 18 19  1  0  0  0  0
 18 20  1  0  0  0  0
 18 56  1  0  0  0  0
 19 44  1  0  0  0  0
 19 45  1  0  0  0  0
 19 46  1  0  0  0  0
 20 47  1  0  0  0  0
 20 48  1  0  0  0  0
 20 49  1  0  0  0  0
 21 50  1  0  0  0  0
 21 51  1  0  0  0  0
 22 23  1  0  0  0  0
 23 24  2  0  0  0  0
 23 52  1  0  0  0  0
 24 25  1  0  0  0  0
 25 53  1  0  0  0  0
 25 54  1  0  0  0  0
 25 55  1  0  0  0  0
M  CHG  1  18   1
M  END
> <s_m_source_file>
AV-unprocessed.smi

> <i_m_source_file_index>
1005

> <i_lp_mmshare_version>
43012

> <i_f3d_flags>
0

> <s_epik_input>
W0NIM11jKFtjSF0xKWMoW0NIM10pW2NIXWMoYzEyKW4oW2NIXW4yKVtDSDJdW0NASF0oW09IXSlbQ0gyXU4zW0NIMl1bQ0gyXU9bQ0BIXShbQ0gyXTMpW0NIMl1OKFtDSDNdKVtDSDNd

> <s_epik_cmdline>
J2VwaWtfcHl0aG9uJywgJy1waCcsICc3LjAnLCAnLXRuJywgJzgnLCAnLW1hJywgJzIwMCcsICctbWV0YWxfYmluZGluZycsICctaW1hZScsICc8aW5maWxlLm1hZT4nLCAnLW9tYWUnLCAnPG91dGZpbGUubWFlPic=

> <r_epik_Ionization_Penalty>
0.226781

> <r_epik_Ionization_Penalty_Charging>
0.00915946

> <r_epik_Ionization_Penalty_Neutral>
0.217622

> <r_epik_State_Penalty>
0.173018

> <r_epik_Charging_Adjusted_Penalty>
0.182178

> <i_epik_Tot_Q>
1

> <i_epik_Tot_abs_Q>
1

> <r_epik_Metal_State_Penalty>
0.0905268

> <b_epik_Metal_Only>
0

> <s_lp_Force_Field>
OPLS_2005

> <r_lp_Energy>
37.9452

> <b_lp_Chiralities_Consistent>
1

> <s_lp_Variant>
AV-unprocessed.smi:1005-3

> <Gold.Version>
5.8.1

> <Gold.Id.Protein>
6NUR|6NUR_protein|mol2

> <Gold.PLP.Fitness>
54.2745

> <Gold.PLP.PLP>
-47.1039

> <Gold.PLP.part.hbond>
-2.0000

> <Gold.PLP.part.metal>
0.0000

> <Gold.PLP.part.buried>
-4.1182

> <Gold.PLP.part.nonpolar>
-42.0919

> <Gold.PLP.part.repulsive>
0.2679

> <Gold.PLP.ligand.clash>
0.0000

> <Gold.PLP.ligand.torsion>
1.0382

> <Gold.PLP.Chemscore.Hbond>
3.0000

> <Gold.PLP.Chemscore.CHOScore>
0.0000

> <Gold.PLP.Chemscore.Metal>
0.0000

> <Gold.Chemscore.Hbonds>
donor molecule, donor type, donor heavy atom, donor atom, acceptor molecule, acceptor atom, score
      L1  H    10    34       P1  7957  1.00
      L1  H    18    56       P1 10174  2.00

> <Gold.PLP.Chemscore.Internal.Correction>
0.2470

> <Gold.Rescore>
     Score         DG    S(hbond)    S(metal)    S(lipo)     H(rot)  DE(clash)    DE(int)     intcor
     17.23     -21.10       1.98        0.00     129.78       2.41       1.72       2.15       ----

> <Gold.Chemscore.Fitness>
17.2306

> <Gold.Chemscore.DG>
-21.0962

> <Gold.Chemscore.ZeroCoef>
-5.4800

> <Gold.Chemscore.Hbond>
1.9793

> <Gold.Chemscore.Metal>
0.0000

> <Gold.Chemscore.Lipo>
129.7796

> <Gold.Chemscore.Internal_Hbond>
0.0000

> <Gold.Chemscore.DEClash>
1.7175

> <Gold.Chemscore.DEInternal>
2.1481

> <Gold.Chemscore.Rot>
2.4136

> <Gold.Chemscore.Internal.Correction>
   9.000000E+99

> <Gold.Chemscore.Hbonds>
donor molecule, donor type, donor heavy atom, donor atom, acceptor molecule, acceptor atom, score
      L1  H    10    34       P1  7957  0.98
      L1  H    18    56       P1 10174  0.99

> <Gold.Chemscore.Hbond.Weighted>
-6.6107

> <Gold.Chemscore.Metal.Weighted>
-0.0000

> <Gold.Chemscore.Lipo.Weighted>
-15.1842

> <Gold.Chemscore.Internal_Hbond.Weighted>
0.0000

> <Gold.Chemscore.DEClash.Weighted>
1.7175

> <Gold.Chemscore.DEInternal.Weighted>
2.1481

> <Gold.Chemscore.Rot.Weighted>
6.1788

> <Gold.Chemscore.Internal.Correction.Weighted>
   9.000000E+99

> <Gold.Protein.RotatedTorsions>
[ 6907 6896 6895 6894 ] final   51.91 input  -60.11 | X-H torsion
[ 7974 7965 7964 7962 ] final  143.97 input  175.53 | X-H torsion
[ 8008 7997 7996 7995 ] final   28.74 input   59.86 | X-H torsion
[ 10167 10162 10161 10158 ] final  -19.17 input  -65.29 | X-H torsion
[ 10718 10713 10712 10709 ] final   77.08 input   66.30 | X-H torsion
[ 10763 10752 10751 10750 ] final   96.60 input  -60.55 | X-H torsion
[ 11005 11000 10999 10996 ] final  -25.98 input  -57.11 | X-H torsion

> <Gold.Protein.ActiveResidues>
 VAL166  LYS551  ARG553  GLY616  TRP617  ASP618  TYR619  PRO620  LYS621  CYS622 
 ASP623  PHE694  ASN695  SER759  ASP760  ASP761  ALA762  ILE779  LEU786  VAL792 
 PHE793  MET794  SER795  GLU796  ALA797  LYS798  CYS799  TRP800  GLU811  SER814 

> <Gold.Protein.RotatedAtoms>
  152.3176  134.7420  160.0321 H   0  0  0  0  0  0  0  0  0  0  0  0  # atno 6907 bound_to 6896
  151.7879  133.3351  159.3498 H   0  0  0  0  0  0  0  0  0  0  0  0  # atno 6908 bound_to 6896
  150.7353  134.5801  159.5978 H   0  0  0  0  0  0  0  0  0  0  0  0  # atno 6909 bound_to 6896
  144.8875  139.5607  143.5814 H   0  0  0  0  0  0  0  0  0  0  0  0  # atno 7974 bound_to 7965
  155.0634  140.3192  155.4653 H   0  0  0  0  0  0  0  0  0  0  0  0  # atno 8008 bound_to 7997
  156.2808  140.2125  156.5706 H   0  0  0  0  0  0  0  0  0  0  0  0  # atno 8009 bound_to 7997
  154.7113  140.0498  157.0540 H   0  0  0  0  0  0  0  0  0  0  0  0  # atno 8010 bound_to 7997
  140.7266  143.4845  151.0073 H   0  0  0  0  0  0  0  0  0  0  0  0  # atno 10167 bound_to 10162
  157.6697  130.9805  150.1590 H   0  0  0  0  0  0  0  0  0  0  0  0  # atno 10718 bound_to 10713
  153.2669  135.4212  155.0950 H   0  0  0  0  0  0  0  0  0  0  0  0  # atno 10763 bound_to 10752
  154.8441  135.3463  154.6298 H   0  0  0  0  0  0  0  0  0  0  0  0  # atno 10764 bound_to 10752
  153.6718  135.7043  153.5202 H   0  0  0  0  0  0  0  0  0  0  0  0  # atno 10765 bound_to 10752
  140.8987  133.7538  156.0515 H   0  0  0  0  0  0  0  0  0  0  0  0  # atno 11005 bound_to 11000
  146.3033  139.7498  142.9075 LP  0  0  0  0  0  0  0  0  0  0  0  0  # atno 17320 bound_to 7965
  145.3843  141.0363  143.3160 LP  0  0  0  0  0  0  0  0  0  0  0  0  # atno 17321 bound_to 7965
  139.8546  143.7394  152.3176 LP  0  0  0  0  0  0  0  0  0  0  0  0  # atno 17342 bound_to 10162
  139.7588  144.7513  151.0395 LP  0  0  0  0  0  0  0  0  0  0  0  0  # atno 17343 bound_to 10162
  156.2371  130.3687  149.8379 LP  0  0  0  0  0  0  0  0  0  0  0  0  # atno 17370 bound_to 10713
  156.6189  130.8618  151.3471 LP  0  0  0  0  0  0  0  0  0  0  0  0  # atno 17371 bound_to 10713
  140.8257  134.3238  157.5366 LP  0  0  0  0  0  0  0  0  0  0  0  0  # atno 17394 bound_to 11000
  139.8739  134.9334  156.3581 LP  0  0  0  0  0  0  0  0  0  0  0  0  # atno 17395 bound_to 11000

$$$$
