AV-unprocessed.smi:2719|AV-procd|sdf|10496|dock2
  -GOLD-   2272014543D 1   1.00000     0.00000
 Structure written by MMmdl.
 20 20  0  0  0  0  0  0  0  0  2 V2000
  152.1144  144.3497  157.8344 C   0  0  0  0  0  0  0  0  0  0  0  0
  152.4504  143.0905  158.6139 C   0  0  0  0  0  0  0  0  0  0  0  0
  153.3269  143.1713  159.7163 C   0  0  0  0  0  0  0  0  0  0  0  0
  153.6352  142.0033  160.4369 C   0  0  0  0  0  0  0  0  0  0  0  0
  153.0498  140.7925  160.0248 C   0  0  0  0  0  0  0  0  0  0  0  0
  152.2073  140.6988  158.9762 N   0  0  0  0  0  0  0  0  0  0  0  0
  151.9121  141.8202  158.2726 C   0  0  0  0  0  0  0  0  0  0  0  0
  150.9478  141.6386  157.0942 C   0  0  2  0  0  0  0  0  0  0  0  0
  149.6225  141.3297  157.4893 O   0  0  0  0  0  0  0  0  0  0  0  0
  151.4908  140.5258  156.1834 C   0  0  0  0  0  0  0  0  0  0  0  0
  152.4903  139.8953  156.5947 O   0  0  0  0  0  0  0  0  0  0  0  0
  150.9118  140.3229  155.0922 O   0  5  0  0  0  0  0  0  0  0  0  0
  152.6721  145.2076  158.2105 H   0  0  0  0  0  0  0  0  0  0  0  0
  151.0522  144.5796  157.9183 H   0  0  0  0  0  0  0  0  0  0  0  0
  152.3637  144.2297  156.7804 H   0  0  0  0  0  0  0  0  0  0  0  0
  153.7603  144.1163  160.0095 H   0  0  0  0  0  0  0  0  0  0  0  0
  154.3037  142.0347  161.2841 H   0  0  0  0  0  0  0  0  0  0  0  0
  153.2616  139.8745  160.5527 H   0  0  0  0  0  0  0  0  0  0  0  0
  150.8853  142.5670  156.5266 H   0  0  0  0  0  0  0  0  0  0  0  0
  149.6615  140.8502  158.3017 H   0  0  0  0  0  0  0  0  0  0  0  0
  1  2  1  0  0  0  0
  1 13  1  0  0  0  0
  1 14  1  0  0  0  0
  1 15  1  0  0  0  0
  2  7  1  0  0  0  0
  2  3  2  0  0  0  0
  3  4  1  0  0  0  0
  3 16  1  0  0  0  0
  4  5  2  0  0  0  0
  4 17  1  0  0  0  0
  5  6  1  0  0  0  0
  5 18  1  0  0  0  0
  6  7  2  0  0  0  0
  7  8  1  0  0  0  0
  8  9  1  0  0  0  0
  8 10  1  0  0  0  0
  8 19  1  0  0  0  0
  9 20  1  0  0  0  0
 10 11  2  0  0  0  0
 10 12  1  0  0  0  0
M  CHG  1  12  -1
M  END
> <s_m_source_file>
AV-unprocessed.smi

> <i_m_source_file_index>
2719

> <i_lp_mmshare_version>
43012

> <i_f3d_flags>
0

> <s_epik_input>
W0NIM11jMVtjSF1bY0hdW2NIXW5jMVtDQEhdKFtPSF0pQyg9TylbT0hd

> <s_epik_cmdline>
J2VwaWtfcHl0aG9uJywgJy1waCcsICc3LjAnLCAnLXRuJywgJzgnLCAnLW1hJywgJzIwMCcsICctbWV0YWxfYmluZGluZycsICctaW1hZScsICc8aW5maWxlLm1hZT4nLCAnLW9tYWUnLCAnPG91dGZpbGUubWFlPic=

> <r_epik_Ionization_Penalty>
0.910943

> <r_epik_Ionization_Penalty_Charging>
0.000126384

> <r_epik_Ionization_Penalty_Neutral>
0.910816

> <r_epik_State_Penalty>
0.951599

> <r_epik_Charging_Adjusted_Penalty>
0.951725

> <i_epik_Tot_Q>
-1

> <i_epik_Tot_abs_Q>
1

> <r_epik_Metal_State_Penalty>
0.00235542

> <b_epik_Metal_Only>
0

> <s_lp_Force_Field>
OPLS_2005

> <r_lp_Energy>
12.5504

> <b_lp_Chiralities_Consistent>
1

> <s_lp_Variant>
AV-unprocessed.smi:2719-3

> <Gold.Version>
5.8.1

> <Gold.Id.Protein>
6NUR|6NUR_protein|mol2

> <Gold.PLP.Fitness>
37.8391

> <Gold.PLP.PLP>
-29.1691

> <Gold.PLP.part.hbond>
-2.0000

> <Gold.PLP.part.metal>
0.0000

> <Gold.PLP.part.buried>
-3.6886

> <Gold.PLP.part.nonpolar>
-23.3824

> <Gold.PLP.part.repulsive>
0.0482

> <Gold.PLP.ligand.clash>
0.0000

> <Gold.PLP.ligand.torsion>
0.1793

> <Gold.PLP.Chemscore.Hbond>
3.0000

> <Gold.PLP.Chemscore.CHOScore>
0.0000

> <Gold.PLP.Chemscore.Metal>
0.0000

> <Gold.Chemscore.Hbonds>
donor molecule, donor type, donor heavy atom, donor atom, acceptor molecule, acceptor atom, score
      P1  H  7989  7998       L1    12  1.00
      P1  H  7997  8008       L1    11  2.00

> <Gold.PLP.Chemscore.Internal.Correction>
0.0288

> <Gold.Rescore>
     Score         DG    S(hbond)    S(metal)    S(lipo)     H(rot)  DE(clash)    DE(int)     intcor
     13.77     -15.49       1.99        0.00      74.06       2.06       0.04       1.69       ----

> <Gold.Chemscore.Fitness>
13.7693

> <Gold.Chemscore.DG>
-15.4933

> <Gold.Chemscore.ZeroCoef>
-5.4800

> <Gold.Chemscore.Hbond>
1.9852

> <Gold.Chemscore.Metal>
0.0000

> <Gold.Chemscore.Lipo>
74.0592

> <Gold.Chemscore.Internal_Hbond>
0.0000

> <Gold.Chemscore.DEClash>
0.0351

> <Gold.Chemscore.DEInternal>
1.6889

> <Gold.Chemscore.Rot>
2.0633

> <Gold.Chemscore.Internal.Correction>
   9.000000E+99

> <Gold.Chemscore.Hbonds>
donor molecule, donor type, donor heavy atom, donor atom, acceptor molecule, acceptor atom, score
      P1  H  7989  7998       L1    12  0.97
      P1  H  7997  8008       L1    11  0.97

> <Gold.Chemscore.Hbond.Weighted>
-6.6304

> <Gold.Chemscore.Metal.Weighted>
-0.0000

> <Gold.Chemscore.Lipo.Weighted>
-8.6649

> <Gold.Chemscore.Internal_Hbond.Weighted>
0.0000

> <Gold.Chemscore.DEClash.Weighted>
0.0351

> <Gold.Chemscore.DEInternal.Weighted>
1.6889

> <Gold.Chemscore.Rot.Weighted>
5.2820

> <Gold.Chemscore.Internal.Correction.Weighted>
   9.000000E+99

> <Gold.Protein.RotatedTorsions>
[ 6907 6896 6895 6894 ] final  -23.90 input  -60.11 | X-H torsion
[ 7974 7965 7964 7962 ] final  130.95 input  175.53 | X-H torsion
[ 8008 7997 7996 7995 ] final  -34.73 input   59.86 | X-H torsion
[ 10167 10162 10161 10158 ] final  -95.93 input  -65.29 | X-H torsion
[ 10718 10713 10712 10709 ] final -120.27 input   66.30 | X-H torsion
[ 10763 10752 10751 10750 ] final  -73.05 input  -60.55 | X-H torsion
[ 11005 11000 10999 10996 ] final  134.03 input  -57.11 | X-H torsion

> <Gold.Protein.ActiveResidues>
 VAL166  LYS551  ARG553  GLY616  TRP617  ASP618  TYR619  PRO620  LYS621  CYS622 
 ASP623  PHE694  ASN695  SER759  ASP760  ASP761  ALA762  ILE779  LEU786  VAL792 
 PHE793  MET794  SER795  GLU796  ALA797  LYS798  CYS799  TRP800  GLU811  SER814 

> <Gold.Protein.RotatedAtoms>
  151.1973  135.0428  159.8857 H   0  0  0  0  0  0  0  0  0  0  0  0  # atno 6907 bound_to 6896
  152.5435  134.0889  159.8278 H   0  0  0  0  0  0  0  0  0  0  0  0  # atno 6908 bound_to 6896
  151.1025  133.5185  159.2641 H   0  0  0  0  0  0  0  0  0  0  0  0  # atno 6909 bound_to 6896
  145.0125  139.4207  143.5238 H   0  0  0  0  0  0  0  0  0  0  0  0  # atno 7974 bound_to 7965
  154.4113  140.1676  156.2097 H   0  0  0  0  0  0  0  0  0  0  0  0  # atno 8008 bound_to 7997
  155.9454  140.3405  155.6339 H   0  0  0  0  0  0  0  0  0  0  0  0  # atno 8009 bound_to 7997
  155.6936  140.0736  157.2429 H   0  0  0  0  0  0  0  0  0  0  0  0  # atno 8010 bound_to 7997
  140.2990  143.3174  152.0267 H   0  0  0  0  0  0  0  0  0  0  0  0  # atno 10167 bound_to 10162
  156.1245  130.6349  150.9520 H   0  0  0  0  0  0  0  0  0  0  0  0  # atno 10718 bound_to 10713
  154.4542  135.5910  153.6212 H   0  0  0  0  0  0  0  0  0  0  0  0  # atno 10763 bound_to 10752
  152.9816  135.6028  154.3567 H   0  0  0  0  0  0  0  0  0  0  0  0  # atno 10764 bound_to 10752
  154.3432  135.2841  155.2390 H   0  0  0  0  0  0  0  0  0  0  0  0  # atno 10765 bound_to 10752
  139.9889  134.9522  156.9808 H   0  0  0  0  0  0  0  0  0  0  0  0  # atno 11005 bound_to 11000
  146.3472  139.9577  142.8721 LP  0  0  0  0  0  0  0  0  0  0  0  0  # atno 17320 bound_to 7965
  145.2004  140.9852  143.4159 LP  0  0  0  0  0  0  0  0  0  0  0  0  # atno 17321 bound_to 7965
  139.4919  144.6469  151.6758 LP  0  0  0  0  0  0  0  0  0  0  0  0  # atno 17342 bound_to 10162
  140.5667  144.0178  150.6196 LP  0  0  0  0  0  0  0  0  0  0  0  0  # atno 17343 bound_to 10162
  157.6427  131.0908  150.8217 LP  0  0  0  0  0  0  0  0  0  0  0  0  # atno 17370 bound_to 10713
  156.8309  130.5015  149.5332 LP  0  0  0  0  0  0  0  0  0  0  0  0  # atno 17371 bound_to 10713
  140.4948  134.1157  155.7239 LP  0  0  0  0  0  0  0  0  0  0  0  0  # atno 17394 bound_to 11000
  141.1548  133.8902  157.2004 LP  0  0  0  0  0  0  0  0  0  0  0  0  # atno 17395 bound_to 11000

$$$$
