AV-unprocessed.smi:2198|AV-procd|sdf|8914|dock9
  -GOLD-   2272012133D 1   1.00000     0.00000
 Structure written by MMmdl.
 43 44  0  0  0  0  0  0  0  0  1 V2000
  146.8332  140.0642  152.8857 C   0  0  0  0  0  0  0  0  0  0  0  0
  147.5916  140.1707  154.1920 C   0  0  0  0  0  0  0  0  0  0  0  0
  147.0299  140.3799  155.3369 N   0  0  0  0  0  0  0  0  0  0  0  0
  147.8378  140.4641  156.4797 C   0  0  0  0  0  0  0  0  0  0  0  0
  147.1012  140.7147  157.7847 C   0  0  0  0  0  0  0  0  0  0  0  0
  149.1949  140.3285  156.4086 C   0  0  0  0  0  0  0  0  0  0  0  0
  150.1034  140.4179  157.6332 C   0  0  0  0  0  0  0  0  0  0  0  0
  151.0522  141.6171  157.6565 C   0  0  0  0  0  0  0  0  0  0  0  0
  151.0342  142.4331  156.7354 O   0  0  0  0  0  0  0  0  0  0  0  0
  151.8766  141.7083  158.7113 N   0  0  0  0  0  0  0  0  0  0  0  0
  152.8594  142.7665  158.9353 C   0  0  1  0  0  0  0  0  0  0  0  0
  152.2016  144.1614  158.8830 C   0  0  0  0  0  0  0  0  0  0  0  0
  151.2953  144.4204  160.0984 C   0  0  0  0  0  0  0  0  0  0  0  0
  152.0576  144.2157  161.4167 C   0  0  0  0  0  0  0  0  0  0  0  0
  152.6793  142.8085  161.4981 C   0  0  2  0  0  0  0  0  0  0  0  0
  153.4425  142.6091  162.8153 C   0  0  0  0  0  0  0  0  0  0  0  0
  153.5864  142.5461  160.2772 C   0  0  0  0  0  0  0  0  0  0  0  0
  149.8251  140.0858  155.0962 C   0  0  0  0  0  0  0  0  0  0  0  0
  151.0336  139.9420  154.9180 O   0  0  0  0  0  0  0  0  0  0  0  0
  148.9703  140.0231  154.0507 N   0  0  0  0  0  0  0  0  0  0  0  0
  149.3541  139.8595  153.1312 H   0  0  0  0  0  0  0  0  0  0  0  0
  146.1240  139.2374  152.9296 H   0  0  0  0  0  0  0  0  0  0  0  0
  147.5042  139.8949  152.0423 H   0  0  0  0  0  0  0  0  0  0  0  0
  146.2771  140.9832  152.6989 H   0  0  0  0  0  0  0  0  0  0  0  0
  147.4597  141.6261  158.2625 H   0  0  0  0  0  0  0  0  0  0  0  0
  147.2434  139.8805  158.4717 H   0  0  0  0  0  0  0  0  0  0  0  0
  146.0294  140.8284  157.6181 H   0  0  0  0  0  0  0  0  0  0  0  0
  149.5112  140.4399  158.5486 H   0  0  0  0  0  0  0  0  0  0  0  0
  150.6821  139.4967  157.7076 H   0  0  0  0  0  0  0  0  0  0  0  0
  151.8203  140.9878  159.4163 H   0  0  0  0  0  0  0  0  0  0  0  0
  153.6080  142.7075  158.1430 H   0  0  0  0  0  0  0  0  0  0  0  0
  152.9832  144.9214  158.8563 H   0  0  0  0  0  0  0  0  0  0  0  0
  151.6331  144.2818  157.9601 H   0  0  0  0  0  0  0  0  0  0  0  0
  150.8990  145.4353  160.0543 H   0  0  0  0  0  0  0  0  0  0  0  0
  150.4333  143.7531  160.0657 H   0  0  0  0  0  0  0  0  0  0  0  0
  152.8400  144.9709  161.5039 H   0  0  0  0  0  0  0  0  0  0  0  0
  151.3811  144.3748  162.2573 H   0  0  0  0  0  0  0  0  0  0  0  0
  151.8667  142.0807  161.4816 H   0  0  0  0  0  0  0  0  0  0  0  0
  154.2726  143.3107  162.9035 H   0  0  0  0  0  0  0  0  0  0  0  0
  153.8504  141.6004  162.8837 H   0  0  0  0  0  0  0  0  0  0  0  0
  152.7880  142.7589  163.6744 H   0  0  0  0  0  0  0  0  0  0  0  0
  153.9885  141.5328  160.3186 H   0  0  0  0  0  0  0  0  0  0  0  0
  154.4482  143.2132  160.3230 H   0  0  0  0  0  0  0  0  0  0  0  0
  1  2  1  0  0  0  0
  1 22  1  0  0  0  0
  1 23  1  0  0  0  0
  1 24  1  0  0  0  0
  2 20  1  0  0  0  0
  2  3  2  0  0  0  0
  3  4  1  0  0  0  0
  4  5  1  0  0  0  0
  4  6  2  0  0  0  0
  5 25  1  0  0  0  0
  5 26  1  0  0  0  0
  5 27  1  0  0  0  0
  6  7  1  0  0  0  0
  6 18  1  0  0  0  0
  7  8  1  0  0  0  0
  7 28  1  0  0  0  0
  7 29  1  0  0  0  0
  8  9  2  0  0  0  0
  8 10  1  0  0  0  0
 10 11  1  0  0  0  0
 10 30  1  0  0  0  0
 11 17  1  0  0  0  0
 11 12  1  0  0  0  0
 11 31  1  0  0  0  0
 12 13  1  0  0  0  0
 12 32  1  0  0  0  0
 12 33  1  0  0  0  0
 13 14  1  0  0  0  0
 13 34  1  0  0  0  0
 13 35  1  0  0  0  0
 14 15  1  0  0  0  0
 14 36  1  0  0  0  0
 14 37  1  0  0  0  0
 15 16  1  0  0  0  0
 15 17  1  0  0  0  0
 15 38  1  0  0  0  0
 16 39  1  0  0  0  0
 16 40  1  0  0  0  0
 16 41  1  0  0  0  0
 17 42  1  0  0  0  0
 17 43  1  0  0  0  0
 18 19  2  0  0  0  0
 18 20  1  0  0  0  0
 20 21  1  0  0  0  0
M  END
> <s_m_source_file>
AV-unprocessed.smi

> <i_m_source_file_index>
2198

> <i_lp_mmshare_version>
43012

> <i_f3d_flags>
0

> <s_epik_input>
W0NIM11jMW5jKFtDSDNdKWMoYyg9TylbbkhdMSlbQ0gyXUMoPU8pW05IXVtDQEBIXTJbQ0gyXVtDSDJdW0NIMl1bQ0BASF0oW0NIM10pW0NIMl0y

> <s_epik_cmdline>
J2VwaWtfcHl0aG9uJywgJy1waCcsICc3LjAnLCAnLXRuJywgJzgnLCAnLW1hJywgJzIwMCcsICctbWV0YWxfYmluZGluZycsICctaW1hZScsICc8aW5maWxlLm1hZT4nLCAnLW9tYWUnLCAnPG91dGZpbGUubWFlPic=

> <r_lp_tautomer_probability>
0.839158

> <r_epik_Ionization_Penalty>
0.000372587

> <r_epik_Ionization_Penalty_Charging>
0.000337977

> <r_epik_Ionization_Penalty_Neutral>
3.46101e-05

> <r_epik_State_Penalty>
0.09125

> <r_epik_Charging_Adjusted_Penalty>
0.091588

> <i_epik_Tot_Q>
0

> <i_epik_Tot_abs_Q>
0

> <r_epik_Metal_State_Penalty>
0.25197

> <b_epik_Metal_Only>
0

> <s_lp_Force_Field>
OPLS_2005

> <r_lp_Energy>
10.5346

> <b_lp_Chiralities_Consistent>
1

> <s_lp_Variant>
AV-unprocessed.smi:2198-4

> <Gold.Version>
5.8.1

> <Gold.Id.Protein>
6NUR|6NUR_protein|mol2

> <Gold.PLP.Fitness>
48.4079

> <Gold.PLP.PLP>
-42.5122

> <Gold.PLP.part.hbond>
-2.0000

> <Gold.PLP.part.metal>
0.0000

> <Gold.PLP.part.buried>
-4.4720

> <Gold.PLP.part.nonpolar>
-36.6176

> <Gold.PLP.part.repulsive>
0.5121

> <Gold.PLP.ligand.clash>
0.0000

> <Gold.PLP.ligand.torsion>
0.0559

> <Gold.PLP.Chemscore.Hbond>
2.0000

> <Gold.PLP.Chemscore.CHOScore>
0.0000

> <Gold.PLP.Chemscore.Metal>
0.0000

> <Gold.Chemscore.Hbonds>
donor molecule, donor type, donor heavy atom, donor atom, acceptor molecule, acceptor atom, score
      L1  H    20    21       P1  7957  1.00
      P1  H  7989  7998       L1    19  1.00

> <Gold.PLP.Chemscore.Internal.Correction>
0.0075

> <Gold.Rescore>
     Score         DG    S(hbond)    S(metal)    S(lipo)     H(rot)  DE(clash)    DE(int)     intcor
     20.05     -20.36       1.94        0.00     104.16       1.48       0.22       0.09       ----

> <Gold.Chemscore.Fitness>
20.0547

> <Gold.Chemscore.DG>
-20.3631

> <Gold.Chemscore.ZeroCoef>
-5.4800

> <Gold.Chemscore.Hbond>
1.9418

> <Gold.Chemscore.Metal>
0.0000

> <Gold.Chemscore.Lipo>
104.1590

> <Gold.Chemscore.Internal_Hbond>
0.0000

> <Gold.Chemscore.DEClash>
0.2179

> <Gold.Chemscore.DEInternal>
0.0905

> <Gold.Chemscore.Rot>
1.4801

> <Gold.Chemscore.Internal.Correction>
   9.000000E+99

> <Gold.Chemscore.Hbonds>
donor molecule, donor type, donor heavy atom, donor atom, acceptor molecule, acceptor atom, score
      L1  H    20    21       P1  7957  0.96
      P1  H  7989  7998       L1    19  0.85

> <Gold.Chemscore.Hbond.Weighted>
-6.4856

> <Gold.Chemscore.Metal.Weighted>
-0.0000

> <Gold.Chemscore.Lipo.Weighted>
-12.1866

> <Gold.Chemscore.Internal_Hbond.Weighted>
0.0000

> <Gold.Chemscore.DEClash.Weighted>
0.2179

> <Gold.Chemscore.DEInternal.Weighted>
0.0905

> <Gold.Chemscore.Rot.Weighted>
3.7891

> <Gold.Chemscore.Internal.Correction.Weighted>
   9.000000E+99

> <Gold.Protein.RotatedTorsions>
[ 6907 6896 6895 6894 ] final   32.74 input  -60.11 | X-H torsion
[ 7974 7965 7964 7962 ] final -169.06 input  175.53 | X-H torsion
[ 8008 7997 7996 7995 ] final -164.33 input   59.86 | X-H torsion
[ 10167 10162 10161 10158 ] final   90.09 input  -65.29 | X-H torsion
[ 10718 10713 10712 10709 ] final   50.02 input   66.30 | X-H torsion
[ 10763 10752 10751 10750 ] final  -73.14 input  -60.55 | X-H torsion
[ 11005 11000 10999 10996 ] final  -68.75 input  -57.11 | X-H torsion

> <Gold.Protein.ActiveResidues>
 VAL166  LYS551  ARG553  GLY616  TRP617  ASP618  TYR619  PRO620  LYS621  CYS622 
 ASP623  PHE694  ASN695  SER759  ASP760  ASP761  ALA762  ILE779  LEU786  VAL792 
 PHE793  MET794  SER795  GLU796  ALA797  LYS798  CYS799  TRP800  GLU811  SER814 

> <Gold.Protein.RotatedAtoms>
  152.0787  134.9486  160.0573 H   0  0  0  0  0  0  0  0  0  0  0  0  # atno 6907 bound_to 6896
  152.0783  133.4135  159.4498 H   0  0  0  0  0  0  0  0  0  0  0  0  # atno 6908 bound_to 6896
  150.6836  134.2932  159.4718 H   0  0  0  0  0  0  0  0  0  0  0  0  # atno 6909 bound_to 6896
  144.7192  140.2277  143.6308 H   0  0  0  0  0  0  0  0  0  0  0  0  # atno 7974 bound_to 7965
  155.8340  140.0938  157.1775 H   0  0  0  0  0  0  0  0  0  0  0  0  # atno 8008 bound_to 7997
  154.3980  140.1413  156.3709 H   0  0  0  0  0  0  0  0  0  0  0  0  # atno 8009 bound_to 7997
  155.8135  140.3449  155.5474 H   0  0  0  0  0  0  0  0  0  0  0  0  # atno 8010 bound_to 7997
  139.8508  144.6594  150.9172 H   0  0  0  0  0  0  0  0  0  0  0  0  # atno 10167 bound_to 10162
  157.4844  130.8335  149.8130 H   0  0  0  0  0  0  0  0  0  0  0  0  # atno 10718 bound_to 10713
  154.4554  135.5907  153.6220 H   0  0  0  0  0  0  0  0  0  0  0  0  # atno 10763 bound_to 10752
  152.9817  135.6031  154.3552 H   0  0  0  0  0  0  0  0  0  0  0  0  # atno 10764 bound_to 10752
  154.3418  135.2841  155.2397 H   0  0  0  0  0  0  0  0  0  0  0  0  # atno 10765 bound_to 10752
  141.1539  133.6748  156.6493 H   0  0  0  0  0  0  0  0  0  0  0  0  # atno 11005 bound_to 11000
  145.8440  139.2143  143.1811 LP  0  0  0  0  0  0  0  0  0  0  0  0  # atno 17320 bound_to 7965
  146.0321  140.8248  142.9871 LP  0  0  0  0  0  0  0  0  0  0  0  0  # atno 17321 bound_to 7965
  140.7787  143.3829  151.1445 LP  0  0  0  0  0  0  0  0  0  0  0  0  # atno 17342 bound_to 10162
  139.7467  143.8841  152.3065 LP  0  0  0  0  0  0  0  0  0  0  0  0  # atno 17343 bound_to 10162
  156.0139  130.3822  150.2175 LP  0  0  0  0  0  0  0  0  0  0  0  0  # atno 17370 bound_to 10713
  157.0362  131.0022  151.3297 LP  0  0  0  0  0  0  0  0  0  0  0  0  # atno 17371 bound_to 10713
  140.3332  134.7911  157.4342 LP  0  0  0  0  0  0  0  0  0  0  0  0  # atno 17394 bound_to 11000
  140.0999  134.5487  155.8363 LP  0  0  0  0  0  0  0  0  0  0  0  0  # atno 17395 bound_to 11000

$$$$
