AV-unprocessed.smi:1450|AV-procd|sdf|5897|dock6
  -GOLD-   22720 5583D 1   1.00000     0.00000
 Structure written by MMmdl.
 31 32  0  0  0  0  0  0  0  0  1 V2000
  145.3851  138.1320  153.5678 O   0  0  0  0  0  0  0  0  0  0  0  0
  146.3676  137.5994  153.0518 C   0  0  0  0  0  0  0  0  0  0  0  0
  146.3111  136.4476  152.3691 N   0  0  0  0  0  0  0  0  0  0  0  0
  145.1000  135.6660  152.1439 C   0  0  0  0  0  0  0  0  0  0  0  0
  145.2621  134.6812  150.9712 C   0  0  2  0  0  0  0  0  0  0  0  0
  144.1251  133.6904  150.8121 C   0  0  0  0  0  0  0  0  0  0  0  0
  144.7736  132.5989  149.9663 C   0  0  0  0  0  0  0  0  0  0  0  0
  146.1530  132.5966  150.3228 O   0  0  0  0  0  0  0  0  0  0  0  0
  146.4573  133.7397  151.1165 C   0  0  0  0  0  0  0  0  0  0  0  0
  147.6264  138.0667  153.1111 N   0  0  0  0  0  0  0  0  0  0  0  0
  148.0962  139.2642  153.7146 C   0  0  0  0  0  0  0  0  0  0  0  0
  147.2950  140.4101  153.9384 C   0  0  0  0  0  0  0  0  0  0  0  0
  147.8839  141.5463  154.5261 C   0  0  0  0  0  0  0  0  0  0  0  0
  149.2508  141.4982  154.8622 C   0  0  0  0  0  0  0  0  0  0  0  0
  150.0294  140.4179  154.6420 N   0  0  0  0  0  0  0  0  0  0  0  0
  149.4582  139.3327  154.0770 C   0  0  0  0  0  0  0  0  0  0  0  0
  147.1683  136.0796  151.9834 H   0  0  0  0  0  0  0  0  0  0  0  0
  144.8249  135.1280  153.0527 H   0  0  0  0  0  0  0  0  0  0  0  0
  144.2842  136.3601  151.9408 H   0  0  0  0  0  0  0  0  0  0  0  0
  145.3731  135.2366  150.0380 H   0  0  0  0  0  0  0  0  0  0  0  0
  143.8323  133.2868  151.7824 H   0  0  0  0  0  0  0  0  0  0  0  0
  143.2417  134.1214  150.3398 H   0  0  0  0  0  0  0  0  0  0  0  0
  144.3183  131.6215  150.1280 H   0  0  0  0  0  0  0  0  0  0  0  0
  144.6906  132.8403  148.9059 H   0  0  0  0  0  0  0  0  0  0  0  0
  147.3929  134.2036  150.8030 H   0  0  0  0  0  0  0  0  0  0  0  0
  146.5724  133.4152  152.1517 H   0  0  0  0  0  0  0  0  0  0  0  0
  148.3410  137.4699  152.7208 H   0  0  0  0  0  0  0  0  0  0  0  0
  146.2535  140.4463  153.6592 H   0  0  0  0  0  0  0  0  0  0  0  0
  147.3017  142.4370  154.7107 H   0  0  0  0  0  0  0  0  0  0  0  0
  149.7336  142.3525  155.3134 H   0  0  0  0  0  0  0  0  0  0  0  0
  150.1117  138.4883  153.9129 H   0  0  0  0  0  0  0  0  0  0  0  0
  1  2  2  0  0  0  0
  2  3  1  0  0  0  0
  2 10  1  0  0  0  0
  3  4  1  0  0  0  0
  3 17  1  0  0  0  0
  4  5  1  0  0  0  0
  4 18  1  0  0  0  0
  4 19  1  0  0  0  0
  5  9  1  0  0  0  0
  5  6  1  0  0  0  0
  5 20  1  0  0  0  0
  6  7  1  0  0  0  0
  6 21  1  0  0  0  0
  6 22  1  0  0  0  0
  7  8  1  0  0  0  0
  7 23  1  0  0  0  0
  7 24  1  0  0  0  0
  8  9  1  0  0  0  0
  9 25  1  0  0  0  0
  9 26  1  0  0  0  0
 10 11  1  0  0  0  0
 10 27  1  0  0  0  0
 11 16  1  0  0  0  0
 11 12  2  0  0  0  0
 12 13  1  0  0  0  0
 12 28  1  0  0  0  0
 13 14  2  0  0  0  0
 13 29  1  0  0  0  0
 14 15  1  0  0  0  0
 14 30  1  0  0  0  0
 15 16  2  0  0  0  0
 16 31  1  0  0  0  0
M  END
> <s_m_source_file>
AV-unprocessed.smi

> <i_m_source_file_index>
1450

> <i_lp_mmshare_version>
43012

> <i_f3d_flags>
0

> <s_epik_input>
W2NIXTFuW2NIXVtjSF1bY0hdYzFbTkhdQyg9TylbTkhdW0NIMl1bQ0BASF0yW0NIMl1bQ0gyXU9bQ0gyXTI=

> <s_epik_cmdline>
J2VwaWtfcHl0aG9uJywgJy1waCcsICc3LjAnLCAnLXRuJywgJzgnLCAnLW1hJywgJzIwMCcsICctbWV0YWxfYmluZGluZycsICctaW1hZScsICc8aW5maWxlLm1hZT4nLCAnLW9tYWUnLCAnPG91dGZpbGUubWFlPic=

> <r_epik_Ionization_Penalty>
0.00478342

> <r_epik_Ionization_Penalty_Charging>
0

> <r_epik_Ionization_Penalty_Neutral>
0.00478342

> <r_epik_State_Penalty>
0.0034384

> <r_epik_Charging_Adjusted_Penalty>
0.0034384

> <i_epik_Tot_Q>
0

> <i_epik_Tot_abs_Q>
0

> <r_epik_Metal_State_Penalty>
-0

> <b_epik_Metal_Only>
0

> <s_lp_Force_Field>
OPLS_2005

> <r_lp_Energy>
20.8722

> <b_lp_Chiralities_Consistent>
1

> <s_lp_Variant>
AV-unprocessed.smi:1450-1

> <Gold.Version>
5.8.1

> <Gold.Id.Protein>
6NUR|6NUR_protein|mol2

> <Gold.PLP.Fitness>
38.4357

> <Gold.PLP.PLP>
-27.2171

> <Gold.PLP.part.hbond>
-3.0000

> <Gold.PLP.part.metal>
0.0000

> <Gold.PLP.part.buried>
-3.1269

> <Gold.PLP.part.nonpolar>
-22.7439

> <Gold.PLP.part.repulsive>
0.9073

> <Gold.PLP.ligand.clash>
0.0000

> <Gold.PLP.ligand.torsion>
0.2736

> <Gold.PLP.Chemscore.Hbond>
2.9200

> <Gold.PLP.Chemscore.CHOScore>
1.0000

> <Gold.PLP.Chemscore.Metal>
0.0000

> <Gold.Chemscore.Hbonds>
donor molecule, donor type, donor heavy atom, donor atom, acceptor molecule, acceptor atom, score
      L1  H     3    17       P1  7948  0.98
      L1  H    10    27       P1  7948  1.00
      P1  H  7989  7998       L1    15  0.94
      L1  C    14    30       P1  8028  0.99

> <Gold.PLP.Chemscore.Internal.Correction>
0.0058

> <Gold.Rescore>
     Score         DG    S(hbond)    S(metal)    S(lipo)     H(rot)  DE(clash)    DE(int)     intcor
     16.12     -17.74       2.43        0.00      62.48       1.24       0.25       1.36       ----

> <Gold.Chemscore.Fitness>
16.1244

> <Gold.Chemscore.DG>
-17.7382

> <Gold.Chemscore.ZeroCoef>
-5.4800

> <Gold.Chemscore.Hbond>
2.4310

> <Gold.Chemscore.Metal>
0.0000

> <Gold.Chemscore.Lipo>
62.4835

> <Gold.Chemscore.Internal_Hbond>
0.0000

> <Gold.Chemscore.DEClash>
0.2550

> <Gold.Chemscore.DEInternal>
1.3588

> <Gold.Chemscore.Rot>
1.2390

> <Gold.Chemscore.Internal.Correction>
   9.000000E+99

> <Gold.Chemscore.Hbonds>
donor molecule, donor type, donor heavy atom, donor atom, acceptor molecule, acceptor atom, score
      L1  H     3    17       P1  7948  0.92
      L1  H    10    27       P1  7948  0.98
      P1  H  7989  7998       L1    15  0.38

> <Gold.Chemscore.Hbond.Weighted>
-8.1195

> <Gold.Chemscore.Metal.Weighted>
-0.0000

> <Gold.Chemscore.Lipo.Weighted>
-7.3106

> <Gold.Chemscore.Internal_Hbond.Weighted>
0.0000

> <Gold.Chemscore.DEClash.Weighted>
0.2550

> <Gold.Chemscore.DEInternal.Weighted>
1.3588

> <Gold.Chemscore.Rot.Weighted>
3.1718

> <Gold.Chemscore.Internal.Correction.Weighted>
   9.000000E+99

> <Gold.Protein.RotatedTorsions>
[ 6907 6896 6895 6894 ] final   10.80 input  -60.11 | X-H torsion
[ 7974 7965 7964 7962 ] final  142.43 input  175.53 | X-H torsion
[ 8008 7997 7996 7995 ] final -153.56 input   59.86 | X-H torsion
[ 10167 10162 10161 10158 ] final  153.45 input  -65.29 | X-H torsion
[ 10718 10713 10712 10709 ] final -170.48 input   66.30 | X-H torsion
[ 10763 10752 10751 10750 ] final -177.37 input  -60.55 | X-H torsion
[ 11005 11000 10999 10996 ] final  -19.52 input  -57.11 | X-H torsion

> <Gold.Protein.ActiveResidues>
 VAL166  LYS551  ARG553  GLY616  TRP617  ASP618  TYR619  PRO620  LYS621  CYS622 
 ASP623  PHE694  ASN695  SER759  ASP760  ASP761  ALA762  ILE779  LEU786  VAL792 
 PHE793  MET794  SER795  GLU796  ALA797  LYS798  CYS799  TRP800  GLU811  SER814 

> <Gold.Protein.RotatedAtoms>
  151.7441  135.0847  160.0320 H   0  0  0  0  0  0  0  0  0  0  0  0  # atno 6907 bound_to 6896
  152.3460  133.6118  159.5919 H   0  0  0  0  0  0  0  0  0  0  0  0  # atno 6908 bound_to 6896
  150.7509  133.9565  159.3543 H   0  0  0  0  0  0  0  0  0  0  0  0  # atno 6909 bound_to 6896
  144.9008  139.5426  143.5754 H   0  0  0  0  0  0  0  0  0  0  0  0  # atno 7974 bound_to 7965
  155.6728  140.0735  157.2514 H   0  0  0  0  0  0  0  0  0  0  0  0  # atno 8008 bound_to 7997
  154.4120  140.1696  156.1948 H   0  0  0  0  0  0  0  0  0  0  0  0  # atno 8009 bound_to 7997
  155.9602  140.3370  155.6487 H   0  0  0  0  0  0  0  0  0  0  0  0  # atno 8010 bound_to 7997
  139.4827  144.5272  151.7781 H   0  0  0  0  0  0  0  0  0  0  0  0  # atno 10167 bound_to 10162
  156.7269  130.9291  151.3101 H   0  0  0  0  0  0  0  0  0  0  0  0  # atno 10718 bound_to 10713
  154.5609  135.2820  155.0920 H   0  0  0  0  0  0  0  0  0  0  0  0  # atno 10763 bound_to 10752
  154.2329  135.6371  153.5185 H   0  0  0  0  0  0  0  0  0  0  0  0  # atno 10764 bound_to 10752
  153.0029  135.5541  154.6203 H   0  0  0  0  0  0  0  0  0  0  0  0  # atno 10765 bound_to 10752
  140.8374  133.7951  155.9824 H   0  0  0  0  0  0  0  0  0  0  0  0  # atno 11005 bound_to 11000
  146.3107  139.7737  142.9022 LP  0  0  0  0  0  0  0  0  0  0  0  0  # atno 17320 bound_to 7965
  145.3620  141.0327  143.3279 LP  0  0  0  0  0  0  0  0  0  0  0  0  # atno 17321 bound_to 7965
  140.4793  144.1472  150.5930 LP  0  0  0  0  0  0  0  0  0  0  0  0  # atno 17342 bound_to 10162
  140.4295  143.2574  151.9613 LP  0  0  0  0  0  0  0  0  0  0  0  0  # atno 17343 bound_to 10162
  157.6875  130.9200  150.0425 LP  0  0  0  0  0  0  0  0  0  0  0  0  # atno 17370 bound_to 10713
  156.1556  130.3643  149.9374 LP  0  0  0  0  0  0  0  0  0  0  0  0  # atno 17371 bound_to 10713
  140.8932  134.2470  157.5083 LP  0  0  0  0  0  0  0  0  0  0  0  0  # atno 17394 bound_to 11000
  139.8704  134.9671  156.4586 LP  0  0  0  0  0  0  0  0  0  0  0  0  # atno 17395 bound_to 11000

$$$$
