AV-unprocessed.smi:1247|AV-procd|sdf|5243|dock1
  -GOLD-   22720 4353D 1   1.00000     0.00000
 Structure written by MMmdl.
 46 47  0  0  0  0  0  0  0  0  1 V2000
  147.8773  131.6325  160.2680 C   0  0  0  0  0  0  0  0  0  0  0  0
  148.0596  133.1151  160.4083 C   0  0  0  0  0  0  0  0  0  0  0  0
  148.4176  134.0548  159.3985 C   0  0  0  0  0  0  0  0  0  0  0  0
  148.4373  135.2395  160.0827 C   0  0  0  0  0  0  0  0  0  0  0  0
  148.7148  136.4885  159.6225 N   0  0  0  0  0  0  0  0  0  0  0  0
  149.7115  136.8823  158.8105 C   0  0  0  0  0  0  0  0  0  0  0  0
  150.5802  136.1486  158.3382 O   0  0  0  0  0  0  0  0  0  0  0  0
  149.6484  138.1999  158.5697 N   0  0  0  0  0  0  0  0  0  0  0  0
  150.5823  138.9426  157.7317 C   0  0  0  0  0  0  0  0  0  0  0  0
  150.3597  140.4620  157.8531 C   0  0  0  0  0  0  0  0  0  0  0  0
  151.5261  141.2223  158.2987 N   0  0  0  0  0  0  0  0  0  0  0  0
  152.1081  140.6914  159.5289 C   0  0  0  0  0  0  0  0  0  0  0  0
  153.3212  141.5182  159.9975 C   0  0  2  0  0  0  0  0  0  0  0  0
  153.8818  141.0185  161.3331 C   0  0  0  0  0  0  0  0  0  0  0  0
  152.9272  142.8781  160.1582 O   0  0  0  0  0  0  0  0  0  0  0  0
  152.3971  143.4548  158.9681 C   0  0  2  0  0  0  0  0  0  0  0  0
  152.0224  144.9111  159.2634 C   0  0  0  0  0  0  0  0  0  0  0  0
  151.1845  142.6250  158.5061 C   0  0  0  0  0  0  0  0  0  0  0  0
  148.1106  134.9984  161.3987 N   0  0  0  0  0  0  0  0  0  0  0  0
  147.9971  135.9286  162.5051 C   0  0  0  0  0  0  0  0  0  0  0  0
  147.8783  133.6825  161.5954 N   0  0  0  0  0  0  0  0  0  0  0  0
  148.0476  131.3099  159.2405 H   0  0  0  0  0  0  0  0  0  0  0  0
  146.8665  131.3331  160.5461 H   0  0  0  0  0  0  0  0  0  0  0  0
  148.5749  131.0892  160.9059 H   0  0  0  0  0  0  0  0  0  0  0  0
  148.6195  133.8688  158.3544 H   0  0  0  0  0  0  0  0  0  0  0  0
  148.0856  137.2119  159.9378 H   0  0  0  0  0  0  0  0  0  0  0  0
  148.9025  138.7287  158.9976 H   0  0  0  0  0  0  0  0  0  0  0  0
  151.5879  138.6715  158.0513 H   0  0  0  0  0  0  0  0  0  0  0  0
  150.4872  138.6240  156.6923 H   0  0  0  0  0  0  0  0  0  0  0  0
  150.0581  140.8346  156.8731 H   0  0  0  0  0  0  0  0  0  0  0  0
  149.5170  140.6568  158.5183 H   0  0  0  0  0  0  0  0  0  0  0  0
  151.3529  140.6753  160.3164 H   0  0  0  0  0  0  0  0  0  0  0  0
  152.4277  139.6604  159.3806 H   0  0  0  0  0  0  0  0  0  0  0  0
  154.1102  141.4660  159.2450 H   0  0  0  0  0  0  0  0  0  0  0  0
  154.2076  139.9807  161.2584 H   0  0  0  0  0  0  0  0  0  0  0  0
  153.1327  141.0789  162.1229 H   0  0  0  0  0  0  0  0  0  0  0  0
  154.7405  141.6147  161.6423 H   0  0  0  0  0  0  0  0  0  0  0  0
  153.1666  143.4404  158.1942 H   0  0  0  0  0  0  0  0  0  0  0  0
  151.6194  145.4000  158.3761 H   0  0  0  0  0  0  0  0  0  0  0  0
  152.8940  145.4794  159.5891 H   0  0  0  0  0  0  0  0  0  0  0  0
  151.2706  144.9733  160.0507 H   0  0  0  0  0  0  0  0  0  0  0  0
  150.7911  143.0483  157.5811 H   0  0  0  0  0  0  0  0  0  0  0  0
  150.3877  142.7035  159.2477 H   0  0  0  0  0  0  0  0  0  0  0  0
  147.2071  136.6505  162.2961 H   0  0  0  0  0  0  0  0  0  0  0  0
  148.9406  136.4592  162.6360 H   0  0  0  0  0  0  0  0  0  0  0  0
  147.7580  135.3999  163.4291 H   0  0  0  0  0  0  0  0  0  0  0  0
  1  2  1  0  0  0  0
  1 22  1  0  0  0  0
  1 23  1  0  0  0  0
  1 24  1  0  0  0  0
  2 21  2  0  0  0  0
  2  3  1  0  0  0  0
  3  4  2  0  0  0  0
  3 25  1  0  0  0  0
  4  5  1  0  0  0  0
  4 19  1  0  0  0  0
  5  6  1  0  0  0  0
  5 26  1  0  0  0  0
  6  7  2  0  0  0  0
  6  8  1  0  0  0  0
  8  9  1  0  0  0  0
  8 27  1  0  0  0  0
  9 10  1  0  0  0  0
  9 28  1  0  0  0  0
  9 29  1  0  0  0  0
 10 11  1  0  0  0  0
 10 30  1  0  0  0  0
 10 31  1  0  0  0  0
 11 18  1  0  0  0  0
 11 12  1  0  0  0  0
 12 13  1  0  0  0  0
 12 32  1  0  0  0  0
 12 33  1  0  0  0  0
 13 14  1  0  0  0  0
 13 15  1  0  0  0  0
 13 34  1  0  0  0  0
 14 35  1  0  0  0  0
 14 36  1  0  0  0  0
 14 37  1  0  0  0  0
 15 16  1  0  0  0  0
 16 17  1  0  0  0  0
 16 18  1  0  0  0  0
 16 38  1  0  0  0  0
 17 39  1  0  0  0  0
 17 40  1  0  0  0  0
 17 41  1  0  0  0  0
 18 42  1  0  0  0  0
 18 43  1  0  0  0  0
 19 20  1  0  0  0  0
 19 21  1  0  0  0  0
 20 44  1  0  0  0  0
 20 45  1  0  0  0  0
 20 46  1  0  0  0  0
M  END
> <s_m_source_file>
AV-unprocessed.smi

> <i_m_source_file_index>
1247

> <i_lp_mmshare_version>
43012

> <i_f3d_flags>
0

> <s_epik_input>
W0NIM11jMVtjSF1jKG4objEpW0NIM10pW05IXUMoPU8pW05IXVtDSDJdW0NIMl1OMltDSDJdW0NAQEhdKFtDSDNdKU9bQ0BASF0oW0NIM10pW0NIMl0y

> <s_epik_cmdline>
J2VwaWtfcHl0aG9uJywgJy1waCcsICc3LjAnLCAnLXRuJywgJzgnLCAnLW1hJywgJzIwMCcsICctbWV0YWxfYmluZGluZycsICctaW1hZScsICc8aW5maWxlLm1hZT4nLCAnLW9tYWUnLCAnPG91dGZpbGUubWFlPic=

> <r_lp_tautomer_probability>
1

> <r_epik_Ionization_Penalty>
0.233972

> <r_epik_Ionization_Penalty_Charging>
0

> <r_epik_Ionization_Penalty_Neutral>
0.233972

> <r_epik_State_Penalty>
0.224627

> <r_epik_Charging_Adjusted_Penalty>
0.224627

> <i_epik_Tot_Q>
0

> <i_epik_Tot_abs_Q>
0

> <r_epik_Metal_State_Penalty>
0.224624

> <b_epik_Metal_Only>
0

> <s_lp_Force_Field>
OPLS_2005

> <r_lp_Energy>
19.816

> <b_lp_Chiralities_Consistent>
1

> <s_lp_Variant>
AV-unprocessed.smi:1247-1

> <Gold.Version>
5.8.1

> <Gold.Id.Protein>
6NUR|6NUR_protein|mol2

> <Gold.PLP.Fitness>
44.9889

> <Gold.PLP.PLP>
-43.5738

> <Gold.PLP.part.hbond>
-1.0000

> <Gold.PLP.part.metal>
0.0000

> <Gold.PLP.part.buried>
-6.8702

> <Gold.PLP.part.nonpolar>
-36.3049

> <Gold.PLP.part.repulsive>
0.4547

> <Gold.PLP.ligand.clash>
0.0000

> <Gold.PLP.ligand.torsion>
0.8077

> <Gold.PLP.Chemscore.Hbond>
1.0000

> <Gold.PLP.Chemscore.CHOScore>
0.0000

> <Gold.PLP.Chemscore.Metal>
0.0000

> <Gold.Chemscore.Hbonds>
donor molecule, donor type, donor heavy atom, donor atom, acceptor molecule, acceptor atom, score
      P1  H  6896  6907       L1     7  0.77

> <Gold.PLP.Chemscore.Internal.Correction>
0.0305

> <Gold.Rescore>
     Score         DG    S(hbond)    S(metal)    S(lipo)     H(rot)  DE(clash)    DE(int)     intcor
     15.62     -16.58       0.99        0.00      98.97       1.48       0.03       0.93       ----

> <Gold.Chemscore.Fitness>
15.6181

> <Gold.Chemscore.DG>
-16.5834

> <Gold.Chemscore.ZeroCoef>
-5.4800

> <Gold.Chemscore.Hbond>
0.9947

> <Gold.Chemscore.Metal>
0.0000

> <Gold.Chemscore.Lipo>
98.9705

> <Gold.Chemscore.Internal_Hbond>
0.0000

> <Gold.Chemscore.DEClash>
0.0308

> <Gold.Chemscore.DEInternal>
0.9345

> <Gold.Chemscore.Rot>
1.4838

> <Gold.Chemscore.Internal.Correction>
   9.000000E+99

> <Gold.Chemscore.Hbonds>
donor molecule, donor type, donor heavy atom, donor atom, acceptor molecule, acceptor atom, score
      P1  H  6896  6907       L1     7  0.35

> <Gold.Chemscore.Hbond.Weighted>
-3.3224

> <Gold.Chemscore.Metal.Weighted>
-0.0000

> <Gold.Chemscore.Lipo.Weighted>
-11.5795

> <Gold.Chemscore.Internal_Hbond.Weighted>
0.0000

> <Gold.Chemscore.DEClash.Weighted>
0.0308

> <Gold.Chemscore.DEInternal.Weighted>
0.9345

> <Gold.Chemscore.Rot.Weighted>
3.7985

> <Gold.Chemscore.Internal.Correction.Weighted>
   9.000000E+99

> <Gold.Protein.RotatedTorsions>
[ 6907 6896 6895 6894 ] final  -53.44 input  -60.11 | X-H torsion
[ 7974 7965 7964 7962 ] final   -9.16 input  175.53 | X-H torsion
[ 8008 7997 7996 7995 ] final  -45.36 input   59.86 | X-H torsion
[ 10167 10162 10161 10158 ] final -162.76 input  -65.29 | X-H torsion
[ 10718 10713 10712 10709 ] final  106.58 input   66.30 | X-H torsion
[ 10763 10752 10751 10750 ] final  -27.97 input  -60.55 | X-H torsion
[ 11005 11000 10999 10996 ] final -109.84 input  -57.11 | X-H torsion

> <Gold.Protein.ActiveResidues>
 VAL166  LYS551  ARG553  GLY616  TRP617  ASP618  TYR619  PRO620  LYS621  CYS622 
 ASP623  PHE694  ASN695  SER759  ASP760  ASP761  ALA762  ILE779  LEU786  VAL792 
 PHE793  MET794  SER795  GLU796  ALA797  LYS798  CYS799  TRP800  GLU811  SER814 

> <Gold.Protein.RotatedAtoms>
  150.8427  134.7724  159.6944 H   0  0  0  0  0  0  0  0  0  0  0  0  # atno 6907 bound_to 6896
  152.4510  134.5389  159.9843 H   0  0  0  0  0  0  0  0  0  0  0  0  # atno 6908 bound_to 6896
  151.5526  133.3377  159.2991 H   0  0  0  0  0  0  0  0  0  0  0  0  # atno 6909 bound_to 6896
  146.2260  140.2574  142.8350 H   0  0  0  0  0  0  0  0  0  0  0  0  # atno 7974 bound_to 7965
  154.4000  140.1399  156.3835 H   0  0  0  0  0  0  0  0  0  0  0  0  # atno 8008 bound_to 7997
  155.7982  140.3477  155.5367 H   0  0  0  0  0  0  0  0  0  0  0  0  # atno 8009 bound_to 7997
  155.8511  140.0941  157.1665 H   0  0  0  0  0  0  0  0  0  0  0  0  # atno 8010 bound_to 7997
  139.6369  144.0333  152.2061 H   0  0  0  0  0  0  0  0  0  0  0  0  # atno 10167 bound_to 10162
  157.6663  131.0854  150.6027 H   0  0  0  0  0  0  0  0  0  0  0  0  # atno 10718 bound_to 10713
  153.7407  135.6932  153.4967 H   0  0  0  0  0  0  0  0  0  0  0  0  # atno 10763 bound_to 10752
  153.2071  135.4416  155.0335 H   0  0  0  0  0  0  0  0  0  0  0  0  # atno 10764 bound_to 10752
  154.8221  135.3427  154.6932 H   0  0  0  0  0  0  0  0  0  0  0  0  # atno 10765 bound_to 10752
  141.0825  133.9195  157.2257 H   0  0  0  0  0  0  0  0  0  0  0  0  # atno 11005 bound_to 11000
  144.9365  140.8032  143.5657 LP  0  0  0  0  0  0  0  0  0  0  0  0  # atno 17320 bound_to 7965
  145.2522  139.2027  143.4936 LP  0  0  0  0  0  0  0  0  0  0  0  0  # atno 17321 bound_to 7965
  140.0013  144.6291  150.7727 LP  0  0  0  0  0  0  0  0  0  0  0  0  # atno 17342 bound_to 10162
  140.7470  143.2899  151.3359 LP  0  0  0  0  0  0  0  0  0  0  0  0  # atno 17343 bound_to 10162
  156.6328  130.4437  149.5780 LP  0  0  0  0  0  0  0  0  0  0  0  0  # atno 17370 bound_to 10713
  156.2269  130.6771  151.1424 LP  0  0  0  0  0  0  0  0  0  0  0  0  # atno 17371 bound_to 10713
  139.9640  135.0147  156.9337 LP  0  0  0  0  0  0  0  0  0  0  0  0  # atno 17394 bound_to 11000
  140.5436  134.0695  155.7348 LP  0  0  0  0  0  0  0  0  0  0  0  0  # atno 17395 bound_to 11000

$$$$
