AV-unprocessed.smi:2104|AV-procd|sdf|8589|dock8
  -GOLD-   2272011323D 1   1.00000     0.00000
 Structure written by MMmdl.
 42 43  0  0  0  0  0  0  0  0  2 V2000
  151.4167  141.0094  156.0031 C   0  0  0  0  0  0  0  0  0  0  0  0
  151.7685  139.6751  155.4410 C   0  0  0  0  0  0  0  0  0  0  0  0
  151.0563  138.5223  155.2675 C   0  0  0  0  0  0  0  0  0  0  0  0
  152.0054  137.6397  154.6839 C   0  0  0  0  0  0  0  0  0  0  0  0
  151.7828  136.3683  154.3177 N   0  5  0  0  0  0  0  0  0  0  0  0
  150.7991  135.6556  154.9132 C   0  0  0  0  0  0  0  0  0  0  0  0
  150.6631  135.4718  156.1251 O   0  0  0  0  0  0  0  0  0  0  0  0
  149.9331  135.1052  154.0499 N   0  0  0  0  0  0  0  0  0  0  0  0
  148.8539  134.1832  154.3910 C   0  0  0  0  0  0  0  0  0  0  0  0
  148.6567  133.1332  153.2872 C   0  0  0  0  0  0  0  0  0  0  0  0
  147.7808  133.6561  152.3003 O   0  0  0  0  0  0  0  0  0  0  0  0
  146.3955  133.4768  152.5652 C   0  0  2  0  0  0  0  0  0  0  0  0
  146.1696  131.9755  152.8231 C   0  0  0  0  0  0  0  0  0  0  0  0
  146.4394  131.1310  151.5655 C   0  0  0  0  0  0  0  0  0  0  0  0
  145.5997  131.6173  150.3752 C   0  0  0  0  0  0  0  0  0  0  0  0
  145.8270  133.1131  150.1060 C   0  0  0  0  0  0  0  0  0  0  0  0
  145.5497  133.9632  151.3620 C   0  0  2  0  0  0  0  0  0  0  0  0
  145.7164  135.4632  151.0757 C   0  0  0  0  0  0  0  0  0  0  0  0
  153.1844  138.2118  154.5033 N   0  0  0  0  0  0  0  0  0  0  0  0
  153.0425  139.5159  154.9917 O   0  0  0  0  0  0  0  0  0  0  0  0
  151.1427  141.7021  155.2074 H   0  0  0  0  0  0  0  0  0  0  0  0
  152.2581  141.4358  156.5498 H   0  0  0  0  0  0  0  0  0  0  0  0
  150.5733  140.9305  156.6894 H   0  0  0  0  0  0  0  0  0  0  0  0
  150.0239  138.3360  155.5225 H   0  0  0  0  0  0  0  0  0  0  0  0
  150.0803  135.2905  153.0687 H   0  0  0  0  0  0  0  0  0  0  0  0
  149.0317  133.7056  155.3557 H   0  0  0  0  0  0  0  0  0  0  0  0
  147.9422  134.7704  154.5000 H   0  0  0  0  0  0  0  0  0  0  0  0
  149.6124  132.8914  152.8208 H   0  0  0  0  0  0  0  0  0  0  0  0
  148.2637  132.2116  153.7180 H   0  0  0  0  0  0  0  0  0  0  0  0
  146.1007  134.0217  153.4643 H   0  0  0  0  0  0  0  0  0  0  0  0
  146.8072  131.6382  153.6408 H   0  0  0  0  0  0  0  0  0  0  0  0
  145.1415  131.8160  153.1502 H   0  0  0  0  0  0  0  0  0  0  0  0
  147.4985  131.1825  151.3091 H   0  0  0  0  0  0  0  0  0  0  0  0
  146.2227  130.0821  151.7691 H   0  0  0  0  0  0  0  0  0  0  0  0
  145.8474  131.0388  149.4847 H   0  0  0  0  0  0  0  0  0  0  0  0
  144.5427  131.4388  150.5763 H   0  0  0  0  0  0  0  0  0  0  0  0
  146.8519  133.2718  149.7685 H   0  0  0  0  0  0  0  0  0  0  0  0
  145.1844  133.4366  149.2865 H   0  0  0  0  0  0  0  0  0  0  0  0
  144.5022  133.8140  151.6281 H   0  0  0  0  0  0  0  0  0  0  0  0
  146.7275  135.6966  150.7426 H   0  0  0  0  0  0  0  0  0  0  0  0
  145.5085  136.0598  151.9639 H   0  0  0  0  0  0  0  0  0  0  0  0
  145.0322  135.7894  150.2921 H   0  0  0  0  0  0  0  0  0  0  0  0
  1  2  1  0  0  0  0
  1 21  1  0  0  0  0
  1 22  1  0  0  0  0
  1 23  1  0  0  0  0
  2 20  1  0  0  0  0
  2  3  2  0  0  0  0
  3  4  1  0  0  0  0
  3 24  1  0  0  0  0
  4  5  1  0  0  0  0
  4 19  2  0  0  0  0
  5  6  1  0  0  0  0
  6  7  2  0  0  0  0
  6  8  1  0  0  0  0
  8  9  1  0  0  0  0
  8 25  1  0  0  0  0
  9 10  1  0  0  0  0
  9 26  1  0  0  0  0
  9 27  1  0  0  0  0
 10 11  1  0  0  0  0
 10 28  1  0  0  0  0
 10 29  1  0  0  0  0
 11 12  1  0  0  0  0
 12 17  1  0  0  0  0
 12 13  1  0  0  0  0
 12 30  1  0  0  0  0
 13 14  1  0  0  0  0
 13 31  1  0  0  0  0
 13 32  1  0  0  0  0
 14 15  1  0  0  0  0
 14 33  1  0  0  0  0
 14 34  1  0  0  0  0
 15 16  1  0  0  0  0
 15 35  1  0  0  0  0
 15 36  1  0  0  0  0
 16 17  1  0  0  0  0
 16 37  1  0  0  0  0
 16 38  1  0  0  0  0
 17 18  1  0  0  0  0
 17 39  1  0  0  0  0
 18 40  1  0  0  0  0
 18 41  1  0  0  0  0
 18 42  1  0  0  0  0
 19 20  1  0  0  0  0
M  CHG  1   5  -1
M  END
> <s_m_source_file>
AV-unprocessed.smi

> <i_m_source_file_index>
2104

> <i_lp_mmshare_version>
43012

> <i_f3d_flags>
0

> <s_epik_input>
W0NIM11jMVtjSF1jKG5vMSlbTkhdQyg9TylbTkhdW0NIMl1bQ0gyXU9bQ0BASF0yW0NIMl1bQ0gyXVtDSDJdW0NIMl1bQ0BIXTJbQ0gzXQ==

> <s_epik_cmdline>
J2VwaWtfcHl0aG9uJywgJy1waCcsICc3LjAnLCAnLXRuJywgJzgnLCAnLW1hJywgJzIwMCcsICctbWV0YWxfYmluZGluZycsICctaW1hZScsICc8aW5maWxlLm1hZT4nLCAnLW9tYWUnLCAnPG91dGZpbGUubWFlPic=

> <r_lp_tautomer_probability>
1

> <r_epik_Ionization_Penalty>
6.47137

> <r_epik_Ionization_Penalty_Charging>
6.47125

> <r_epik_Ionization_Penalty_Neutral>
0.000118933

> <r_epik_State_Penalty>
6.47124

> <r_epik_Charging_Adjusted_Penalty>
12.9425

> <i_epik_Tot_Q>
-1

> <i_epik_Tot_abs_Q>
1

> <r_epik_Metal_State_Penalty>
2.3995

> <b_epik_Metal_Only>
1

> <s_lp_Force_Field>
OPLS_2005

> <r_lp_Energy>
3.94735

> <b_lp_Chiralities_Consistent>
1

> <s_lp_Variant>
AV-unprocessed.smi:2104-7

> <Gold.Version>
5.8.1

> <Gold.Id.Protein>
6NUR|6NUR_protein|mol2

> <Gold.PLP.Fitness>
43.6609

> <Gold.PLP.PLP>
-36.2497

> <Gold.PLP.part.hbond>
-4.4646

> <Gold.PLP.part.metal>
0.0000

> <Gold.PLP.part.buried>
-5.7286

> <Gold.PLP.part.nonpolar>
-26.9482

> <Gold.PLP.part.repulsive>
1.0163

> <Gold.PLP.ligand.clash>
0.0000

> <Gold.PLP.ligand.torsion>
1.1097

> <Gold.PLP.Chemscore.Hbond>
3.1880

> <Gold.PLP.Chemscore.CHOScore>
0.0000

> <Gold.PLP.Chemscore.Metal>
0.0000

> <Gold.Chemscore.Hbonds>
donor molecule, donor type, donor heavy atom, donor atom, acceptor molecule, acceptor atom, score
      P1  H  7997  8010       L1    20  1.00
      P1  H 10752 10764       L1     5  1.11

> <Gold.PLP.Chemscore.Internal.Correction>
0.0666

> <Gold.Rescore>
     Score         DG    S(hbond)    S(metal)    S(lipo)     H(rot)  DE(clash)    DE(int)     intcor
     13.65     -14.76       1.87        0.00      63.29       1.71       0.00       1.12       ----

> <Gold.Chemscore.Fitness>
13.6450

> <Gold.Chemscore.DG>
-14.7628

> <Gold.Chemscore.ZeroCoef>
-5.4800

> <Gold.Chemscore.Hbond>
1.8732

> <Gold.Chemscore.Metal>
0.0000

> <Gold.Chemscore.Lipo>
63.2883

> <Gold.Chemscore.Internal_Hbond>
0.0000

> <Gold.Chemscore.DEClash>
0.0021

> <Gold.Chemscore.DEInternal>
1.1156

> <Gold.Chemscore.Rot>
1.7103

> <Gold.Chemscore.Internal.Correction>
   9.000000E+99

> <Gold.Chemscore.Hbonds>
donor molecule, donor type, donor heavy atom, donor atom, acceptor molecule, acceptor atom, score
      P1  H  7997  8010       L1    20  0.92
      P1  H 10752 10764       L1     5  0.31

> <Gold.Chemscore.Hbond.Weighted>
-6.2564

> <Gold.Chemscore.Metal.Weighted>
-0.0000

> <Gold.Chemscore.Lipo.Weighted>
-7.4047

> <Gold.Chemscore.Internal_Hbond.Weighted>
0.0000

> <Gold.Chemscore.DEClash.Weighted>
0.0021

> <Gold.Chemscore.DEInternal.Weighted>
1.1156

> <Gold.Chemscore.Rot.Weighted>
4.3784

> <Gold.Chemscore.Internal.Correction.Weighted>
   9.000000E+99

> <Gold.Protein.RotatedTorsions>
[ 6907 6896 6895 6894 ] final -121.04 input  -60.11 | X-H torsion
[ 7974 7965 7964 7962 ] final   -8.59 input  175.53 | X-H torsion
[ 8008 7997 7996 7995 ] final  106.47 input   59.86 | X-H torsion
[ 10167 10162 10161 10158 ] final -123.75 input  -65.29 | X-H torsion
[ 10718 10713 10712 10709 ] final  114.74 input   66.30 | X-H torsion
[ 10763 10752 10751 10750 ] final  -73.46 input  -60.55 | X-H torsion
[ 11005 11000 10999 10996 ] final  -15.51 input  -57.11 | X-H torsion

> <Gold.Protein.ActiveResidues>
 VAL166  LYS551  ARG553  GLY616  TRP617  ASP618  TYR619  PRO620  LYS621  CYS622 
 ASP623  PHE694  ASN695  SER759  ASP760  ASP761  ALA762  ILE779  LEU786  VAL792 
 PHE793  MET794  SER795  GLU796  ALA797  LYS798  CYS799  TRP800  GLU811  SER814 

> <Gold.Protein.RotatedAtoms>
  150.8447  133.7880  159.3047 H   0  0  0  0  0  0  0  0  0  0  0  0  # atno 6907 bound_to 6896
  151.5571  135.1065  159.9973 H   0  0  0  0  0  0  0  0  0  0  0  0  # atno 6908 bound_to 6896
  152.4503  133.7574  159.6784 H   0  0  0  0  0  0  0  0  0  0  0  0  # atno 6909 bound_to 6896
  146.2276  140.2491  142.8346 H   0  0  0  0  0  0  0  0  0  0  0  0  # atno 7974 bound_to 7965
  156.1745  140.3112  155.9034 H   0  0  0  0  0  0  0  0  0  0  0  0  # atno 8008 bound_to 7997
  155.3516  140.0471  157.3063 H   0  0  0  0  0  0  0  0  0  0  0  0  # atno 8009 bound_to 7997
  154.5276  140.2219  155.8872 H   0  0  0  0  0  0  0  0  0  0  0  0  # atno 8010 bound_to 7997
  140.0001  143.5549  152.2307 H   0  0  0  0  0  0  0  0  0  0  0  0  # atno 10167 bound_to 10162
  157.6264  131.1003  150.7229 H   0  0  0  0  0  0  0  0  0  0  0  0  # atno 10718 bound_to 10713
  154.4597  135.5896  153.6247 H   0  0  0  0  0  0  0  0  0  0  0  0  # atno 10763 bound_to 10752
  152.9822  135.6041  154.3501 H   0  0  0  0  0  0  0  0  0  0  0  0  # atno 10764 bound_to 10752
  154.3372  135.2842  155.2420 H   0  0  0  0  0  0  0  0  0  0  0  0  # atno 10765 bound_to 10752
  140.7973  133.8241  155.9437 H   0  0  0  0  0  0  0  0  0  0  0  0  # atno 11005 bound_to 11000
  144.9425  140.8094  143.5621 LP  0  0  0  0  0  0  0  0  0  0  0  0  # atno 17320 bound_to 7965
  145.2444  139.2058  143.4975 LP  0  0  0  0  0  0  0  0  0  0  0  0  # atno 17321 bound_to 7965
  139.6278  144.7640  151.2602 LP  0  0  0  0  0  0  0  0  0  0  0  0  # atno 17342 bound_to 10162
  140.7422  143.6534  150.8228 LP  0  0  0  0  0  0  0  0  0  0  0  0  # atno 17343 bound_to 10162
  156.7576  130.4788  149.5443 LP  0  0  0  0  0  0  0  0  0  0  0  0  # atno 17370 bound_to 10713
  156.1438  130.6263  151.0504 LP  0  0  0  0  0  0  0  0  0  0  0  0  # atno 17371 bound_to 10713
  140.9329  134.1998  157.4851 LP  0  0  0  0  0  0  0  0  0  0  0  0  # atno 17394 bound_to 11000
  139.8725  134.9840  156.5223 LP  0  0  0  0  0  0  0  0  0  0  0  0  # atno 17395 bound_to 11000

$$$$
