AV-unprocessed.smi:2322|AV-procd|sdf|9285|dock3
  -GOLD-   2272012513D 1   1.00000     0.00000
 Structure written by MMmdl.
 38 40  0  0  0  0  0  0  0  0  1 V2000
  146.9778  133.3385  151.4291 C   0  0  0  0  0  0  0  0  0  0  0  0
  145.6961  133.9871  151.6286 N   0  0  0  0  0  0  0  0  0  0  0  0
  144.5400  133.3438  151.3420 N   0  0  0  0  0  0  0  0  0  0  0  0
  143.6148  134.2504  151.6537 C   0  0  0  0  0  0  0  0  0  0  0  0
  144.0821  135.4434  152.1263 N   0  0  0  0  0  0  0  0  0  0  0  0
  145.3909  135.2065  152.0837 C   0  0  0  0  0  0  0  0  0  0  0  0
  146.4376  136.0992  152.4619 N   0  0  0  0  0  0  0  0  0  0  0  0
  146.4076  137.2772  153.1196 C   0  0  0  0  0  0  0  0  0  0  0  0
  145.3448  137.7590  153.5082 O   0  0  0  0  0  0  0  0  0  0  0  0
  147.5932  137.8760  153.3190 N   0  0  0  0  0  0  0  0  0  0  0  0
  147.7974  139.1452  154.0093 C   0  0  2  0  0  0  0  0  0  0  0  0
  147.1099  140.2744  153.2306 C   0  0  0  0  0  0  0  0  0  0  0  0
  147.4137  141.6379  153.8694 C   0  0  0  0  0  0  0  0  0  0  0  0
  148.8220  141.8487  153.9445 O   0  0  0  0  0  0  0  0  0  0  0  0
  149.5441  140.8753  154.7006 C   0  0  1  0  0  0  0  0  0  0  0  0
  149.2598  140.9913  156.1919 C   0  0  0  0  0  0  0  0  0  0  0  0
  150.0631  141.9346  157.0554 C   0  0  0  0  0  0  0  0  0  0  0  0
  150.2323  140.4415  157.2091 C   0  0  0  0  0  0  0  0  0  0  0  0
  149.2981  139.4605  154.1398 C   0  0  0  0  0  0  0  0  0  0  0  0
  147.4600  133.1773  152.3934 H   0  0  0  0  0  0  0  0  0  0  0  0
  147.6168  133.9698  150.8113 H   0  0  0  0  0  0  0  0  0  0  0  0
  146.8480  132.3761  150.9322 H   0  0  0  0  0  0  0  0  0  0  0  0
  142.5611  134.0439  151.5364 H   0  0  0  0  0  0  0  0  0  0  0  0
  147.3598  135.8036  152.1769 H   0  0  0  0  0  0  0  0  0  0  0  0
  148.4183  137.4113  152.9662 H   0  0  0  0  0  0  0  0  0  0  0  0
  147.3479  139.0876  155.0021 H   0  0  0  0  0  0  0  0  0  0  0  0
  147.4575  140.2780  152.1963 H   0  0  0  0  0  0  0  0  0  0  0  0
  146.0323  140.1096  153.1975 H   0  0  0  0  0  0  0  0  0  0  0  0
  146.9774  142.4342  153.2663 H   0  0  0  0  0  0  0  0  0  0  0  0
  146.9592  141.7151  154.8573 H   0  0  0  0  0  0  0  0  0  0  0  0
  150.6001  141.1076  154.5574 H   0  0  0  0  0  0  0  0  0  0  0  0
  148.2091  140.8986  156.4577 H   0  0  0  0  0  0  0  0  0  0  0  0
  150.8739  142.4863  156.5836 H   0  0  0  0  0  0  0  0  0  0  0  0
  149.5342  142.4658  157.8438 H   0  0  0  0  0  0  0  0  0  0  0  0
  149.8154  139.9760  158.0998 H   0  0  0  0  0  0  0  0  0  0  0  0
  151.1569  140.0004  156.8420 H   0  0  0  0  0  0  0  0  0  0  0  0
  149.7946  138.7175  154.7654 H   0  0  0  0  0  0  0  0  0  0  0  0
  149.7646  139.3914  153.1559 H   0  0  0  0  0  0  0  0  0  0  0  0
  1  2  1  0  0  0  0
  1 20  1  0  0  0  0
  1 21  1  0  0  0  0
  1 22  1  0  0  0  0
  2  6  1  0  0  0  0
  2  3  1  0  0  0  0
  3  4  2  0  0  0  0
  4  5  1  0  0  0  0
  4 23  1  0  0  0  0
  5  6  2  0  0  0  0
  6  7  1  0  0  0  0
  7  8  1  0  0  0  0
  7 24  1  0  0  0  0
  8  9  2  0  0  0  0
  8 10  1  0  0  0  0
 10 11  1  0  0  0  0
 10 25  1  0  0  0  0
 11 19  1  0  0  0  0
 11 12  1  0  0  0  0
 11 26  1  0  0  0  0
 12 13  1  0  0  0  0
 12 27  1  0  0  0  0
 12 28  1  0  0  0  0
 13 14  1  0  0  0  0
 13 29  1  0  0  0  0
 13 30  1  0  0  0  0
 14 15  1  0  0  0  0
 15 16  1  0  0  0  0
 15 19  1  0  0  0  0
 15 31  1  0  0  0  0
 16 18  1  0  0  0  0
 16 17  1  0  0  0  0
 16 32  1  0  0  0  0
 17 18  1  0  0  0  0
 17 33  1  0  0  0  0
 17 34  1  0  0  0  0
 18 35  1  0  0  0  0
 18 36  1  0  0  0  0
 19 37  1  0  0  0  0
 19 38  1  0  0  0  0
M  END
> <s_m_source_file>
AV-unprocessed.smi

> <i_m_source_file_index>
2322

> <i_lp_mmshare_version>
43012

> <i_f3d_flags>
0

> <s_epik_input>
W0NIM11uMW5bY0hdbmMxW05IXUMoPU8pW05IXVtDQEBIXTJbQ0gyXVtDSDJdT1tDQEhdKFtDSDJdMilbQ0hdM1tDSDJdW0NIMl0z

> <s_epik_cmdline>
J2VwaWtfcHl0aG9uJywgJy1waCcsICc3LjAnLCAnLXRuJywgJzgnLCAnLW1hJywgJzIwMCcsICctbWV0YWxfYmluZGluZycsICctaW1hZScsICc8aW5maWxlLm1hZT4nLCAnLW9tYWUnLCAnPG91dGZpbGUubWFlPic=

> <r_lp_tautomer_probability>
1

> <r_epik_Ionization_Penalty>
2.16399e-05

> <r_epik_Ionization_Penalty_Charging>
0

> <r_epik_Ionization_Penalty_Neutral>
2.16399e-05

> <r_epik_State_Penalty>
-0

> <r_epik_Charging_Adjusted_Penalty>
0

> <i_epik_Tot_Q>
0

> <i_epik_Tot_abs_Q>
0

> <r_epik_Metal_State_Penalty>
-0

> <b_epik_Metal_Only>
0

> <s_lp_Force_Field>
OPLS_2005

> <r_lp_Energy>
22.5256

> <b_lp_Chiralities_Consistent>
1

> <s_lp_Variant>
AV-unprocessed.smi:2322-1

> <Gold.Version>
5.8.1

> <Gold.Id.Protein>
6NUR|6NUR_protein|mol2

> <Gold.PLP.Fitness>
37.6278

> <Gold.PLP.PLP>
-28.1085

> <Gold.PLP.part.hbond>
-3.0000

> <Gold.PLP.part.metal>
0.0000

> <Gold.PLP.part.buried>
-2.2826

> <Gold.PLP.part.nonpolar>
-22.9951

> <Gold.PLP.part.repulsive>
0.6676

> <Gold.PLP.ligand.clash>
0.0000

> <Gold.PLP.ligand.torsion>
0.5910

> <Gold.PLP.Chemscore.Hbond>
2.3680

> <Gold.PLP.Chemscore.CHOScore>
0.8394

> <Gold.PLP.Chemscore.Metal>
0.0000

> <Gold.Chemscore.Hbonds>
donor molecule, donor type, donor heavy atom, donor atom, acceptor molecule, acceptor atom, score
      L1  H     7    24       P1  7948  0.98
      L1  H    10    25       P1  7948  0.88
      P1  H  8011  8017       L1    14  0.51
      L1  C     4    23       P1 10186  0.81

> <Gold.PLP.Chemscore.Internal.Correction>
1.0789

> <Gold.Rescore>
     Score         DG    S(hbond)    S(metal)    S(lipo)     H(rot)  DE(clash)    DE(int)     intcor
     14.71     -16.55       2.36        0.00      55.89       1.31       0.11       1.74       ----

> <Gold.Chemscore.Fitness>
14.7096

> <Gold.Chemscore.DG>
-16.5541

> <Gold.Chemscore.ZeroCoef>
-5.4800

> <Gold.Chemscore.Hbond>
2.3596

> <Gold.Chemscore.Metal>
0.0000

> <Gold.Chemscore.Lipo>
55.8916

> <Gold.Chemscore.Internal_Hbond>
0.0000

> <Gold.Chemscore.DEClash>
0.1057

> <Gold.Chemscore.DEInternal>
1.7387

> <Gold.Chemscore.Rot>
1.3072

> <Gold.Chemscore.Internal.Correction>
   9.000000E+99

> <Gold.Chemscore.Hbonds>
donor molecule, donor type, donor heavy atom, donor atom, acceptor molecule, acceptor atom, score
      L1  H     7    24       P1  7948  0.93
      L1  H    10    25       P1  7948  0.86
      P1  H  8011  8017       L1    14  0.42

> <Gold.Chemscore.Hbond.Weighted>
-7.8812

> <Gold.Chemscore.Metal.Weighted>
-0.0000

> <Gold.Chemscore.Lipo.Weighted>
-6.5393

> <Gold.Chemscore.Internal_Hbond.Weighted>
0.0000

> <Gold.Chemscore.DEClash.Weighted>
0.1057

> <Gold.Chemscore.DEInternal.Weighted>
1.7387

> <Gold.Chemscore.Rot.Weighted>
3.3464

> <Gold.Chemscore.Internal.Correction.Weighted>
   9.000000E+99

> <Gold.Protein.RotatedTorsions>
[ 6907 6896 6895 6894 ] final  161.49 input  -60.11 | X-H torsion
[ 7974 7965 7964 7962 ] final  110.52 input  175.53 | X-H torsion
[ 8008 7997 7996 7995 ] final   83.40 input   59.86 | X-H torsion
[ 10167 10162 10161 10158 ] final  161.11 input  -65.29 | X-H torsion
[ 10718 10713 10712 10709 ] final  169.35 input   66.30 | X-H torsion
[ 10763 10752 10751 10750 ] final  -33.83 input  -60.55 | X-H torsion
[ 11005 11000 10999 10996 ] final  -65.28 input  -57.11 | X-H torsion

> <Gold.Protein.ActiveResidues>
 VAL166  LYS551  ARG553  GLY616  TRP617  ASP618  TYR619  PRO620  LYS621  CYS622 
 ASP623  PHE694  ASN695  SER759  ASP760  ASP761  ALA762  ILE779  LEU786  VAL792 
 PHE793  MET794  SER795  GLU796  ALA797  LYS798  CYS799  TRP800  GLU811  SER814 

> <Gold.Protein.RotatedAtoms>
  151.9548  133.3677  159.4012 H   0  0  0  0  0  0  0  0  0  0  0  0  # atno 6907 bound_to 6896
  150.6974  134.4303  159.5254 H   0  0  0  0  0  0  0  0  0  0  0  0  # atno 6908 bound_to 6896
  152.1982  134.8612  160.0561 H   0  0  0  0  0  0  0  0  0  0  0  0  # atno 6909 bound_to 6896
  145.2539  139.2729  143.4053 H   0  0  0  0  0  0  0  0  0  0  0  0  # atno 7974 bound_to 7965
  155.9235  140.3419  155.6191 H   0  0  0  0  0  0  0  0  0  0  0  0  # atno 8008 bound_to 7997
  155.7245  140.0787  157.2335 H   0  0  0  0  0  0  0  0  0  0  0  0  # atno 8009 bound_to 7997
  154.4073  140.1599  156.2426 H   0  0  0  0  0  0  0  0  0  0  0  0  # atno 8010 bound_to 7997
  139.4846  144.4569  151.8757 H   0  0  0  0  0  0  0  0  0  0  0  0  # atno 10167 bound_to 10162
  157.0240  131.0240  151.2766 H   0  0  0  0  0  0  0  0  0  0  0  0  # atno 10718 bound_to 10713
  153.8367  135.6861  153.4808 H   0  0  0  0  0  0  0  0  0  0  0  0  # atno 10763 bound_to 10752
  153.1478  135.4630  154.9590 H   0  0  0  0  0  0  0  0  0  0  0  0  # atno 10764 bound_to 10752
  154.7863  135.3286  154.7825 H   0  0  0  0  0  0  0  0  0  0  0  0  # atno 10765 bound_to 10752
  141.1449  133.6679  156.5961 H   0  0  0  0  0  0  0  0  0  0  0  0  # atno 11005 bound_to 11000
  146.3295  140.2937  142.8616 LP  0  0  0  0  0  0  0  0  0  0  0  0  # atno 17320 bound_to 7965
  144.9479  140.8147  143.5590 LP  0  0  0  0  0  0  0  0  0  0  0  0  # atno 17321 bound_to 7965
  140.4029  144.2470  150.5892 LP  0  0  0  0  0  0  0  0  0  0  0  0  # atno 17342 bound_to 10162
  140.5040  143.2309  151.8635 LP  0  0  0  0  0  0  0  0  0  0  0  0  # atno 17343 bound_to 10162
  157.5228  130.8009  149.7828 LP  0  0  0  0  0  0  0  0  0  0  0  0  # atno 17370 bound_to 10713
  156.0092  130.3841  150.2322 LP  0  0  0  0  0  0  0  0  0  0  0  0  # atno 17371 bound_to 10713
  140.3725  134.7594  157.4608 LP  0  0  0  0  0  0  0  0  0  0  0  0  # atno 17394 bound_to 11000
  140.0700  134.5876  155.8653 LP  0  0  0  0  0  0  0  0  0  0  0  0  # atno 17395 bound_to 11000

$$$$
