AV-unprocessed.smi:861|AV-procd|sdf|3974|dock6
  -GOLD-   22720 1453D 1   1.00000     0.00000
 Structure written by MMmdl.
 45 46  0  0  0  0  0  0  0  0  3 V2000
  147.5384  134.6571  154.4317 C   0  0  0  0  0  0  0  0  0  0  0  0
  148.5899  135.6500  154.9557 C   0  0  0  0  0  0  0  0  0  0  0  0
  149.5986  134.9265  155.8616 C   0  0  0  0  0  0  0  0  0  0  0  0
  147.9588  136.8503  155.6917 C   0  0  0  0  0  0  0  0  0  0  0  0
  147.3291  137.9020  154.7569 C   0  0  0  0  0  0  0  0  0  0  0  0
  148.3170  138.4639  153.7967 N   0  3  1  0  0  0  0  0  0  0  0  0
  147.7561  139.4433  152.8309 C   0  0  0  0  0  0  0  0  0  0  0  0
  147.5594  140.8265  153.4794 C   0  0  0  0  0  0  0  0  0  0  0  0
  148.7862  141.2694  154.0474 O   0  0  0  0  0  0  0  0  0  0  0  0
  149.2603  140.4005  155.0716 C   0  0  2  0  0  0  0  0  0  0  0  0
  150.5382  141.0130  155.6644 C   0  0  0  0  0  0  0  0  0  0  0  0
  150.2817  142.3077  156.2778 N   0  0  0  0  0  0  0  0  0  0  0  0
  150.9069  142.6641  157.4802 C   0  0  0  0  0  0  0  0  0  0  0  0
  151.8095  141.8315  158.1818 C   0  0  0  0  0  0  0  0  0  0  0  0
  152.3660  142.3122  159.3793 C   0  0  0  0  0  0  0  0  0  0  0  0
  151.9877  143.5982  159.8038 C   0  0  0  0  0  0  0  0  0  0  0  0
  151.1232  144.3790  159.1184 N   0  0  0  0  0  0  0  0  0  0  0  0
  150.6070  143.8906  157.9769 N   0  3  0  0  0  0  0  0  0  0  0  0
  149.5329  139.0164  154.4446 C   0  0  0  0  0  0  0  0  0  0  0  0
  146.9186  134.2714  155.2418 H   0  0  0  0  0  0  0  0  0  0  0  0
  148.0149  133.8046  153.9468 H   0  0  0  0  0  0  0  0  0  0  0  0
  146.8799  135.1143  153.6939 H   0  0  0  0  0  0  0  0  0  0  0  0
  149.1462  136.0327  154.0989 H   0  0  0  0  0  0  0  0  0  0  0  0
  149.1121  134.5117  156.7453 H   0  0  0  0  0  0  0  0  0  0  0  0
  150.3831  135.6037  156.2005 H   0  0  0  0  0  0  0  0  0  0  0  0
  150.0840  134.1051  155.3335 H   0  0  0  0  0  0  0  0  0  0  0  0
  147.2091  136.4921  156.3986 H   0  0  0  0  0  0  0  0  0  0  0  0
  148.7347  137.3235  156.2926 H   0  0  0  0  0  0  0  0  0  0  0  0
  146.4726  137.4834  154.2285 H   0  0  0  0  0  0  0  0  0  0  0  0
  146.9415  138.7157  155.3692 H   0  0  0  0  0  0  0  0  0  0  0  0
  148.4563  139.5372  151.9997 H   0  0  0  0  0  0  0  0  0  0  0  0
  146.8218  139.0874  152.3988 H   0  0  0  0  0  0  0  0  0  0  0  0
  147.2424  141.5480  152.7263 H   0  0  0  0  0  0  0  0  0  0  0  0
  146.7778  140.8051  154.2396 H   0  0  0  0  0  0  0  0  0  0  0  0
  148.5097  140.3095  155.8591 H   0  0  0  0  0  0  0  0  0  0  0  0
  150.9386  140.3451  156.4280 H   0  0  0  0  0  0  0  0  0  0  0  0
  151.3002  141.1151  154.8906 H   0  0  0  0  0  0  0  0  0  0  0  0
  149.7615  142.9996  155.7570 H   0  0  0  0  0  0  0  0  0  0  0  0
  152.0764  140.8479  157.8248 H   0  0  0  0  0  0  0  0  0  0  0  0
  153.0594  141.7165  159.9546 H   0  0  0  0  0  0  0  0  0  0  0  0
  152.3880  144.0129  160.7173 H   0  0  0  0  0  0  0  0  0  0  0  0
  149.9183  138.3189  155.1892 H   0  0  0  0  0  0  0  0  0  0  0  0
  150.3108  139.1083  153.6851 H   0  0  0  0  0  0  0  0  0  0  0  0
  148.6323  137.6720  153.2541 H   0  0  0  0  0  0  0  0  0  0  0  0
  149.9537  144.4754  157.4552 H   0  0  0  0  0  0  0  0  0  0  0  0
  1  2  1  0  0  0  0
  1 20  1  0  0  0  0
  1 21  1  0  0  0  0
  1 22  1  0  0  0  0
  2  3  1  0  0  0  0
  2  4  1  0  0  0  0
  2 23  1  0  0  0  0
  3 24  1  0  0  0  0
  3 25  1  0  0  0  0
  3 26  1  0  0  0  0
  4  5  1  0  0  0  0
  4 27  1  0  0  0  0
  4 28  1  0  0  0  0
  5  6  1  0  0  0  0
  5 29  1  0  0  0  0
  5 30  1  0  0  0  0
  6 19  1  0  0  0  0
  6  7  1  0  0  0  0
  6 44  1  0  0  0  0
  7  8  1  0  0  0  0
  7 31  1  0  0  0  0
  7 32  1  0  0  0  0
  8  9  1  0  0  0  0
  8 33  1  0  0  0  0
  8 34  1  0  0  0  0
  9 10  1  0  0  0  0
 10 11  1  0  0  0  0
 10 19  1  0  0  0  0
 10 35  1  0  0  0  0
 11 12  1  0  0  0  0
 11 36  1  0  0  0  0
 11 37  1  0  0  0  0
 12 13  1  0  0  0  0
 12 38  1  0  0  0  0
 13 18  1  0  0  0  0
 13 14  2  0  0  0  0
 14 15  1  0  0  0  0
 14 39  1  0  0  0  0
 15 16  2  0  0  0  0
 15 40  1  0  0  0  0
 16 17  1  0  0  0  0
 16 41  1  0  0  0  0
 17 18  2  0  0  0  0
 18 45  1  0  0  0  0
 19 42  1  0  0  0  0
 19 43  1  0  0  0  0
M  CHG  1   6   1
M  CHG  1  18   1
M  END
> <s_m_source_file>
AV-unprocessed.smi

> <i_m_source_file_index>
861

> <i_lp_mmshare_version>
43012

> <i_f3d_flags>
0

> <s_epik_input>
W0NIM11bQ0hdKFtDSDNdKVtDSDJdW0NIMl1OMVtDSDJdW0NIMl1PW0NASF0oW0NIMl0xKVtDSDJdW05IXWMyW2NIXVtjSF1bY0hdbm4y

> <s_epik_cmdline>
J2VwaWtfcHl0aG9uJywgJy1waCcsICc3LjAnLCAnLXRuJywgJzgnLCAnLW1hJywgJzIwMCcsICctbWV0YWxfYmluZGluZycsICctaW1hZScsICc8aW5maWxlLm1hZT4nLCAnLW9tYWUnLCAnPG91dGZpbGUubWFlPic=

> <r_lp_tautomer_probability>
0.966961

> <r_epik_Ionization_Penalty>
2.478

> <r_epik_Ionization_Penalty_Charging>
2.47799

> <r_epik_Ionization_Penalty_Neutral>
3.15286e-06

> <r_epik_State_Penalty>
2.10794

> <r_epik_Charging_Adjusted_Penalty>
4.58594

> <i_epik_Tot_Q>
2

> <i_epik_Tot_abs_Q>
2

> <r_epik_Metal_State_Penalty>
2.11378

> <b_epik_Metal_Only>
0

> <s_lp_Force_Field>
OPLS_2005

> <r_lp_Energy>
35.7333

> <b_lp_Chiralities_Consistent>
1

> <s_lp_Variant>
AV-unprocessed.smi:861-9

> <Gold.Version>
5.8.1

> <Gold.Id.Protein>
6NUR|6NUR_protein|mol2

> <Gold.PLP.Fitness>
47.6328

> <Gold.PLP.PLP>
-29.4979

> <Gold.PLP.part.hbond>
-3.8083

> <Gold.PLP.part.metal>
0.0000

> <Gold.PLP.part.buried>
-0.2624

> <Gold.PLP.part.nonpolar>
-25.3515

> <Gold.PLP.part.repulsive>
0.4023

> <Gold.PLP.ligand.clash>
0.0000

> <Gold.PLP.ligand.torsion>
0.3101

> <Gold.PLP.Chemscore.Hbond>
6.2285

> <Gold.PLP.Chemscore.CHOScore>
0.0000

> <Gold.PLP.Chemscore.Metal>
0.0000

> <Gold.Chemscore.Hbonds>
donor molecule, donor type, donor heavy atom, donor atom, acceptor molecule, acceptor atom, score
      L1  H     6    44       P1  7948  2.00
      L1  H    12    38       P1  8028  2.00
      L1  H    18    45       P1  8028  1.72
      P1  H  8011  8017       L1     9  0.26

> <Gold.PLP.Chemscore.Internal.Correction>
0.0697

> <Gold.Rescore>
     Score         DG    S(hbond)    S(metal)    S(lipo)     H(rot)  DE(clash)    DE(int)     intcor
     16.61     -18.41       2.42        0.00      80.26       1.78       1.59       0.21       ----

> <Gold.Chemscore.Fitness>
16.6062

> <Gold.Chemscore.DG>
-18.4078

> <Gold.Chemscore.ZeroCoef>
-5.4800

> <Gold.Chemscore.Hbond>
2.4203

> <Gold.Chemscore.Metal>
0.0000

> <Gold.Chemscore.Lipo>
80.2580

> <Gold.Chemscore.Internal_Hbond>
0.0000

> <Gold.Chemscore.DEClash>
1.5908

> <Gold.Chemscore.DEInternal>
0.2108

> <Gold.Chemscore.Rot>
1.7759

> <Gold.Chemscore.Internal.Correction>
   9.000000E+99

> <Gold.Chemscore.Hbonds>
donor molecule, donor type, donor heavy atom, donor atom, acceptor molecule, acceptor atom, score
      L1  H     6    44       P1  7948  0.95
      L1  H    12    38       P1  8028  0.95
      L1  H    18    45       P1  8028  0.20
      P1  H  8011  8017       L1     9  0.12

> <Gold.Chemscore.Hbond.Weighted>
-8.0838

> <Gold.Chemscore.Metal.Weighted>
-0.0000

> <Gold.Chemscore.Lipo.Weighted>
-9.3902

> <Gold.Chemscore.Internal_Hbond.Weighted>
0.0000

> <Gold.Chemscore.DEClash.Weighted>
1.5908

> <Gold.Chemscore.DEInternal.Weighted>
0.2108

> <Gold.Chemscore.Rot.Weighted>
4.5462

> <Gold.Chemscore.Internal.Correction.Weighted>
   9.000000E+99

> <Gold.Protein.RotatedTorsions>
[ 6907 6896 6895 6894 ] final   30.29 input  -60.11 | X-H torsion
[ 7974 7965 7964 7962 ] final  113.86 input  175.53 | X-H torsion
[ 8008 7997 7996 7995 ] final   99.28 input   59.86 | X-H torsion
[ 10167 10162 10161 10158 ] final  112.31 input  -65.29 | X-H torsion
[ 10718 10713 10712 10709 ] final   78.33 input   66.30 | X-H torsion
[ 10763 10752 10751 10750 ] final   16.09 input  -60.55 | X-H torsion
[ 11005 11000 10999 10996 ] final  -60.48 input  -57.11 | X-H torsion

> <Gold.Protein.ActiveResidues>
 VAL166  LYS551  ARG553  GLY616  TRP617  ASP618  TYR619  PRO620  LYS621  CYS622 
 ASP623  PHE694  ASN695  SER759  ASP760  ASP761  ALA762  ILE779  LEU786  VAL792 
 PHE793  MET794  SER795  GLU796  ALA797  LYS798  CYS799  TRP800  GLU811  SER814 

> <Gold.Protein.RotatedAtoms>
  152.0439  134.9695  160.0573 H   0  0  0  0  0  0  0  0  0  0  0  0  # atno 6907 bound_to 6896
  152.1123  133.4302  159.4645 H   0  0  0  0  0  0  0  0  0  0  0  0  # atno 6908 bound_to 6896
  150.6844  134.2552  159.4570 H   0  0  0  0  0  0  0  0  0  0  0  0  # atno 6909 bound_to 6896
  145.2117  139.2903  143.4265 H   0  0  0  0  0  0  0  0  0  0  0  0  # atno 7974 bound_to 7965
  156.1089  140.3231  155.8044 H   0  0  0  0  0  0  0  0  0  0  0  0  # atno 8008 bound_to 7997
  155.4708  140.0546  157.2997 H   0  0  0  0  0  0  0  0  0  0  0  0  # atno 8009 bound_to 7997
  154.4746  140.2026  155.9924 H   0  0  0  0  0  0  0  0  0  0  0  0  # atno 8010 bound_to 7997
  139.6545  144.7129  151.1983 H   0  0  0  0  0  0  0  0  0  0  0  0  # atno 10167 bound_to 10162
  157.6741  130.9863  150.1771 H   0  0  0  0  0  0  0  0  0  0  0  0  # atno 10718 bound_to 10713
  153.1464  135.6770  153.8949 H   0  0  0  0  0  0  0  0  0  0  0  0  # atno 10763 bound_to 10752
  153.8389  135.3108  155.3426 H   0  0  0  0  0  0  0  0  0  0  0  0  # atno 10764 bound_to 10752
  154.7828  135.4879  153.9966 H   0  0  0  0  0  0  0  0  0  0  0  0  # atno 10765 bound_to 10752
  141.1288  133.6622  156.5229 H   0  0  0  0  0  0  0  0  0  0  0  0  # atno 11005 bound_to 11000
  146.3396  140.2395  142.8595 LP  0  0  0  0  0  0  0  0  0  0  0  0  # atno 17320 bound_to 7965
  144.9849  140.8494  143.5374 LP  0  0  0  0  0  0  0  0  0  0  0  0  # atno 17321 bound_to 7965
  140.7553  143.6094  150.8620 LP  0  0  0  0  0  0  0  0  0  0  0  0  # atno 17342 bound_to 10162
  139.9746  143.6019  152.2963 LP  0  0  0  0  0  0  0  0  0  0  0  0  # atno 17343 bound_to 10162
  156.2512  130.3701  149.8230 LP  0  0  0  0  0  0  0  0  0  0  0  0  # atno 17370 bound_to 10713
  156.6002  130.8543  151.3430 LP  0  0  0  0  0  0  0  0  0  0  0  0  # atno 17371 bound_to 10713
  140.4277  134.7130  157.4925 LP  0  0  0  0  0  0  0  0  0  0  0  0  # atno 17394 bound_to 11000
  140.0315  134.6399  155.9100 LP  0  0  0  0  0  0  0  0  0  0  0  0  # atno 17395 bound_to 11000

$$$$
