AV-unprocessed.smi:681|AV-procd|sdf|3325|dock3
  -GOLD-   22720 0293D 1   1.00000     0.00000
 Structure written by MMmdl.
 41 42  0  0  0  0  0  0  0  0  1 V2000
  154.7301  145.1102  164.2719 C   0  0  0  0  0  0  0  0  0  0  0  0
  155.2594  143.7622  164.6233 C   0  0  0  0  0  0  0  0  0  0  0  0
  155.8576  143.4883  165.8190 N   0  0  0  0  0  0  0  0  0  0  0  0
  156.1480  142.2029  165.6483 C   0  0  0  0  0  0  0  0  0  0  0  0
  156.8361  141.3527  166.6657 C   0  0  0  0  0  0  0  0  0  0  0  0
  155.7602  141.7360  164.4524 N   0  0  0  0  0  0  0  0  0  0  0  0
  155.8878  140.4166  163.8540 C   0  0  0  0  0  0  0  0  0  0  0  0
  156.0874  140.5141  162.3410 C   0  0  0  0  0  0  0  0  0  0  0  0
  157.1593  140.1767  161.8390 O   0  0  0  0  0  0  0  0  0  0  0  0
  155.0496  140.9804  161.6292 N   0  0  0  0  0  0  0  0  0  0  0  0
  155.0429  141.1702  160.1842 C   0  0  0  0  0  0  0  0  0  0  0  0
  153.6134  141.1106  159.6191 C   0  0  0  0  0  0  0  0  0  0  0  0
  152.8444  142.4048  159.8270 C   0  0  0  0  0  0  0  0  0  0  0  0
  152.4758  143.1883  158.7947 C   0  0  0  0  0  0  0  0  0  0  0  0
  151.6925  144.4812  158.9413 C   0  0  0  0  0  0  0  0  0  0  0  0
  151.0679  144.6322  160.3383 C   0  0  0  0  0  0  0  0  0  0  0  0
  152.0604  144.2279  161.4354 C   0  0  0  0  0  0  0  0  0  0  0  0
  152.5121  142.7656  161.2709 C   0  0  0  0  0  0  0  0  0  0  0  0
  155.1736  142.7469  163.7675 N   0  0  0  0  0  0  0  0  0  0  0  0
  154.8306  145.7965  165.1133 H   0  0  0  0  0  0  0  0  0  0  0  0
  153.6751  145.0448  164.0050 H   0  0  0  0  0  0  0  0  0  0  0  0
  155.2795  145.5209  163.4246 H   0  0  0  0  0  0  0  0  0  0  0  0
  156.9931  141.9133  167.5878 H   0  0  0  0  0  0  0  0  0  0  0  0
  157.8057  141.0274  166.2888 H   0  0  0  0  0  0  0  0  0  0  0  0
  156.2328  140.4743  166.8948 H   0  0  0  0  0  0  0  0  0  0  0  0
  156.7314  139.8971  164.3098 H   0  0  0  0  0  0  0  0  0  0  0  0
  154.9961  139.8282  164.0764 H   0  0  0  0  0  0  0  0  0  0  0  0
  154.2101  141.2384  162.1281 H   0  0  0  0  0  0  0  0  0  0  0  0
  155.5175  142.1190  159.9266 H   0  0  0  0  0  0  0  0  0  0  0  0
  155.6583  140.3856  159.7438 H   0  0  0  0  0  0  0  0  0  0  0  0
  153.6405  140.8867  158.5521 H   0  0  0  0  0  0  0  0  0  0  0  0
  153.0678  140.2911  160.0892 H   0  0  0  0  0  0  0  0  0  0  0  0
  152.7458  142.9108  157.7861 H   0  0  0  0  0  0  0  0  0  0  0  0
  152.3712  145.3105  158.7403 H   0  0  0  0  0  0  0  0  0  0  0  0
  150.9123  144.5173  158.1805 H   0  0  0  0  0  0  0  0  0  0  0  0
  150.7314  145.6586  160.4876 H   0  0  0  0  0  0  0  0  0  0  0  0
  150.1801  144.0023  160.4102 H   0  0  0  0  0  0  0  0  0  0  0  0
  152.9300  144.8850  161.3907 H   0  0  0  0  0  0  0  0  0  0  0  0
  151.6161  144.3712  162.4209 H   0  0  0  0  0  0  0  0  0  0  0  0
  151.7223  142.0978  161.6158 H   0  0  0  0  0  0  0  0  0  0  0  0
  153.3810  142.5806  161.9032 H   0  0  0  0  0  0  0  0  0  0  0  0
  1  2  1  0  0  0  0
  1 20  1  0  0  0  0
  1 21  1  0  0  0  0
  1 22  1  0  0  0  0
  2 19  2  0  0  0  0
  2  3  1  0  0  0  0
  3  4  2  0  0  0  0
  4  5  1  0  0  0  0
  4  6  1  0  0  0  0
  5 23  1  0  0  0  0
  5 24  1  0  0  0  0
  5 25  1  0  0  0  0
  6  7  1  0  0  0  0
  6 19  1  0  0  0  0
  7  8  1  0  0  0  0
  7 26  1  0  0  0  0
  7 27  1  0  0  0  0
  8  9  2  0  0  0  0
  8 10  1  0  0  0  0
 10 11  1  0  0  0  0
 10 28  1  0  0  0  0
 11 12  1  0  0  0  0
 11 29  1  0  0  0  0
 11 30  1  0  0  0  0
 12 13  1  0  0  0  0
 12 31  1  0  0  0  0
 12 32  1  0  0  0  0
 13 18  1  0  0  0  0
 13 14  2  0  0  0  0
 14 15  1  0  0  0  0
 14 33  1  0  0  0  0
 15 16  1  0  0  0  0
 15 34  1  0  0  0  0
 15 35  1  0  0  0  0
 16 17  1  0  0  0  0
 16 36  1  0  0  0  0
 16 37  1  0  0  0  0
 17 18  1  0  0  0  0
 17 38  1  0  0  0  0
 17 39  1  0  0  0  0
 18 40  1  0  0  0  0
 18 41  1  0  0  0  0
M  END
> <s_m_source_file>
AV-unprocessed.smi

> <i_m_source_file_index>
681

> <i_lp_mmshare_version>
43012

> <i_f3d_flags>
0

> <s_epik_input>
W0NIM11jMW5jKFtDSDNdKW4objEpW0NIMl1DKD1PKVtOSF1bQ0gyXVtDSDJdQzI9W0NIXVtDSDJdW0NIMl1bQ0gyXVtDSDJdMg==

> <s_epik_cmdline>
J2VwaWtfcHl0aG9uJywgJy1waCcsICc3LjAnLCAnLXRuJywgJzgnLCAnLW1hJywgJzIwMCcsICctbWV0YWxfYmluZGluZycsICctaW1hZScsICc8aW5maWxlLm1hZT4nLCAnLW9tYWUnLCAnPG91dGZpbGUubWFlPic=

> <r_lp_tautomer_probability>
1

> <r_epik_Ionization_Penalty>
0.000426663

> <r_epik_Ionization_Penalty_Charging>
0

> <r_epik_Ionization_Penalty_Neutral>
0.000426663

> <r_epik_State_Penalty>
0.000262586

> <r_epik_Charging_Adjusted_Penalty>
0.000262586

> <i_epik_Tot_Q>
0

> <i_epik_Tot_abs_Q>
0

> <r_epik_Metal_State_Penalty>
-0

> <b_epik_Metal_Only>
0

> <s_lp_Force_Field>
OPLS_2005

> <r_lp_Energy>
6.45034

> <b_lp_Chiralities_Consistent>
1

> <s_lp_Variant>
AV-unprocessed.smi:681-1

> <Gold.Version>
5.8.1

> <Gold.Id.Protein>
6NUR|6NUR_protein|mol2

> <Gold.PLP.Fitness>
46.0292

> <Gold.PLP.PLP>
-47.4466

> <Gold.PLP.part.hbond>
-2.3742

> <Gold.PLP.part.metal>
0.0000

> <Gold.PLP.part.buried>
-4.5285

> <Gold.PLP.part.nonpolar>
-39.8549

> <Gold.PLP.part.repulsive>
0.0058

> <Gold.PLP.ligand.clash>
0.0000

> <Gold.PLP.ligand.torsion>
0.7199

> <Gold.PLP.Chemscore.Hbond>
0.0000

> <Gold.PLP.Chemscore.CHOScore>
0.0000

> <Gold.PLP.Chemscore.Metal>
0.0000

> <Gold.PLP.Chemscore.Internal.Correction>
0.0224

> <Gold.Rescore>
     Score         DG    S(hbond)    S(metal)    S(lipo)     H(rot)  DE(clash)    DE(int)     intcor
     11.01     -14.17       0.00        0.00     115.34       1.87       1.32       1.85       ----

> <Gold.Chemscore.Fitness>
11.0086

> <Gold.Chemscore.DG>
-14.1743

> <Gold.Chemscore.ZeroCoef>
-5.4800

> <Gold.Chemscore.Hbond>
0.0000

> <Gold.Chemscore.Metal>
0.0000

> <Gold.Chemscore.Lipo>
115.3352

> <Gold.Chemscore.Internal_Hbond>
0.0000

> <Gold.Chemscore.DEClash>
1.3195

> <Gold.Chemscore.DEInternal>
1.8462

> <Gold.Chemscore.Rot>
1.8750

> <Gold.Chemscore.Internal.Correction>
   9.000000E+99

> <Gold.Chemscore.Hbond.Weighted>
-0.0000

> <Gold.Chemscore.Metal.Weighted>
-0.0000

> <Gold.Chemscore.Lipo.Weighted>
-13.4942

> <Gold.Chemscore.Internal_Hbond.Weighted>
0.0000

> <Gold.Chemscore.DEClash.Weighted>
1.3195

> <Gold.Chemscore.DEInternal.Weighted>
1.8462

> <Gold.Chemscore.Rot.Weighted>
4.7999

> <Gold.Chemscore.Internal.Correction.Weighted>
   9.000000E+99

> <Gold.Protein.RotatedTorsions>
[ 6907 6896 6895 6894 ] final   67.08 input  -60.11 | X-H torsion
[ 7974 7965 7964 7962 ] final -162.83 input  175.53 | X-H torsion
[ 8008 7997 7996 7995 ] final  -65.51 input   59.86 | X-H torsion
[ 10167 10162 10161 10158 ] final  -90.12 input  -65.29 | X-H torsion
[ 10718 10713 10712 10709 ] final -170.01 input   66.30 | X-H torsion
[ 10763 10752 10751 10750 ] final  -16.80 input  -60.55 | X-H torsion
[ 11005 11000 10999 10996 ] final -105.12 input  -57.11 | X-H torsion

> <Gold.Protein.ActiveResidues>
 VAL166  LYS551  ARG553  GLY616  TRP617  ASP618  TYR619  PRO620  LYS621  CYS622 
 ASP623  PHE694  ASN695  SER759  ASP760  ASP761  ALA762  ILE779  LEU786  VAL792 
 PHE793  MET794  SER795  GLU796  ALA797  LYS798  CYS799  TRP800  GLU811  SER814 

> <Gold.Protein.RotatedAtoms>
  152.4527  134.5359  159.9824 H   0  0  0  0  0  0  0  0  0  0  0  0  # atno 6907 bound_to 6896
  151.5428  133.3424  159.2946 H   0  0  0  0  0  0  0  0  0  0  0  0  # atno 6908 bound_to 6896
  150.8461  134.7801  159.7034 H   0  0  0  0  0  0  0  0  0  0  0  0  # atno 6909 bound_to 6896
  144.7345  140.3196  143.6173 H   0  0  0  0  0  0  0  0  0  0  0  0  # atno 7974 bound_to 7965
  154.4676  140.0931  156.7062 H   0  0  0  0  0  0  0  0  0  0  0  0  # atno 8008 bound_to 7997
  155.4813  140.3467  155.4322 H   0  0  0  0  0  0  0  0  0  0  0  0  # atno 8009 bound_to 7997
  156.0984  140.1415  156.9488 H   0  0  0  0  0  0  0  0  0  0  0  0  # atno 8010 bound_to 7997
  140.3580  143.2856  151.9648 H   0  0  0  0  0  0  0  0  0  0  0  0  # atno 10167 bound_to 10162
  156.7200  130.9266  151.3096 H   0  0  0  0  0  0  0  0  0  0  0  0  # atno 10718 bound_to 10713
  153.5641  135.7009  153.5534 H   0  0  0  0  0  0  0  0  0  0  0  0  # atno 10763 bound_to 10752
  153.3403  135.4023  155.1566 H   0  0  0  0  0  0  0  0  0  0  0  0  # atno 10764 bound_to 10752
  154.8643  135.3740  154.5160 H   0  0  0  0  0  0  0  0  0  0  0  0  # atno 10765 bound_to 10752
  141.1068  133.8781  157.1695 H   0  0  0  0  0  0  0  0  0  0  0  0  # atno 11005 bound_to 11000
  145.7582  139.1816  143.2282 LP  0  0  0  0  0  0  0  0  0  0  0  0  # atno 17320 bound_to 7965
  146.1007  140.7547  142.9550 LP  0  0  0  0  0  0  0  0  0  0  0  0  # atno 17321 bound_to 7965
  139.4817  144.6017  151.7593 LP  0  0  0  0  0  0  0  0  0  0  0  0  # atno 17342 bound_to 10162
  140.5154  144.0961  150.6007 LP  0  0  0  0  0  0  0  0  0  0  0  0  # atno 17343 bound_to 10162
  157.6902  130.9225  150.0493 LP  0  0  0  0  0  0  0  0  0  0  0  0  # atno 17370 bound_to 10713
  156.1601  130.3644  149.9311 LP  0  0  0  0  0  0  0  0  0  0  0  0  # atno 17371 bound_to 10713
  139.9942  135.0053  157.0045 LP  0  0  0  0  0  0  0  0  0  0  0  0  # atno 17394 bound_to 11000
  140.4880  134.1222  155.7228 LP  0  0  0  0  0  0  0  0  0  0  0  0  # atno 17395 bound_to 11000

$$$$
