AV-unprocessed.smi:1958|AV-procd|sdf|7908|dock7
  -GOLD-   2272010 73D 1   1.00000     0.00000
 Structure written by MMmdl.
 48 49  0  0  0  0  0  0  0  0  2 V2000
  152.9894  141.5663  159.7396 C   0  0  0  0  0  0  0  0  0  0  0  0
  153.3629  140.2943  159.2397 O   0  0  0  0  0  0  0  0  0  0  0  0
  152.4642  139.8123  158.2554 C   0  0  0  0  0  0  0  0  0  0  0  0
  152.9934  138.4765  157.7124 C   0  0  0  0  0  0  0  0  0  0  0  0
  152.1830  137.9936  156.5899 N   0  0  0  0  0  0  0  0  0  0  0  0
  151.5166  136.8065  156.8447 N   0  0  0  0  0  0  0  0  0  0  0  0
  150.7705  136.2715  155.9328 C   0  0  0  0  0  0  0  0  0  0  0  0
  150.0400  134.9948  156.1669 C   0  0  0  0  0  0  0  0  0  0  0  0
  150.1491  134.3639  157.2196 O   0  0  0  0  0  0  0  0  0  0  0  0
  149.2568  134.5853  155.1542 N   0  0  0  0  0  0  0  0  0  0  0  0
  148.4428  133.3757  155.1732 C   0  0  0  0  0  0  0  0  0  0  0  0
  147.8179  133.0645  153.7870 C   0  0  2  0  0  0  0  0  0  0  0  0
  148.8785  132.4358  152.8519 C   0  0  0  0  0  0  0  0  0  0  0  0
  147.1897  134.2619  153.1353 N   0  3  0  0  0  0  0  0  0  0  0  0
  146.3551  133.9035  151.9552 C   0  0  0  0  0  0  0  0  0  0  0  0
  145.7865  135.1575  151.2712 C   0  0  0  0  0  0  0  0  0  0  0  0
  145.0217  135.9011  152.2073 O   0  0  0  0  0  0  0  0  0  0  0  0
  145.8236  136.3519  153.2879 C   0  0  0  0  0  0  0  0  0  0  0  0
  146.4092  135.1472  154.0448 C   0  0  0  0  0  0  0  0  0  0  0  0
  150.6172  136.9010  154.6323 C   0  0  0  0  0  0  0  0  0  0  0  0
  151.2793  138.0548  154.3962 C   0  0  0  0  0  0  0  0  0  0  0  0
  152.1346  138.6782  155.4074 C   0  0  0  0  0  0  0  0  0  0  0  0
  152.7579  139.7209  155.2115 O   0  0  0  0  0  0  0  0  0  0  0  0
  153.7111  141.8925  160.4885 H   0  0  0  0  0  0  0  0  0  0  0  0
  152.0070  141.5312  160.2122 H   0  0  0  0  0  0  0  0  0  0  0  0
  152.9696  142.3124  158.9441 H   0  0  0  0  0  0  0  0  0  0  0  0
  151.4718  139.6805  158.6897 H   0  0  0  0  0  0  0  0  0  0  0  0
  152.3763  140.5381  157.4452 H   0  0  0  0  0  0  0  0  0  0  0  0
  154.0301  138.6007  157.3945 H   0  0  0  0  0  0  0  0  0  0  0  0
  153.0228  137.7332  158.5110 H   0  0  0  0  0  0  0  0  0  0  0  0
  149.2211  135.1553  154.3209 H   0  0  0  0  0  0  0  0  0  0  0  0
  149.1043  132.5709  155.4951 H   0  0  0  0  0  0  0  0  0  0  0  0
  147.6565  133.4759  155.9238 H   0  0  0  0  0  0  0  0  0  0  0  0
  147.0291  132.3286  153.9521 H   0  0  0  0  0  0  0  0  0  0  0  0
  149.3499  131.5603  153.2977 H   0  0  0  0  0  0  0  0  0  0  0  0
  149.6696  133.1499  152.6209 H   0  0  0  0  0  0  0  0  0  0  0  0
  148.4577  132.0909  151.9094 H   0  0  0  0  0  0  0  0  0  0  0  0
  146.9316  133.3494  151.2173 H   0  0  0  0  0  0  0  0  0  0  0  0
  145.5370  133.2544  152.2711 H   0  0  0  0  0  0  0  0  0  0  0  0
  146.5851  135.7749  150.8564 H   0  0  0  0  0  0  0  0  0  0  0  0
  145.1420  134.8713  150.4399 H   0  0  0  0  0  0  0  0  0  0  0  0
  146.6174  137.0047  152.9211 H   0  0  0  0  0  0  0  0  0  0  0  0
  145.2061  136.9506  153.9577 H   0  0  0  0  0  0  0  0  0  0  0  0
  145.6086  134.5749  154.5160 H   0  0  0  0  0  0  0  0  0  0  0  0
  147.0411  135.5449  154.8381 H   0  0  0  0  0  0  0  0  0  0  0  0
  149.9928  136.4631  153.8671 H   0  0  0  0  0  0  0  0  0  0  0  0
  151.1754  138.5334  153.4334 H   0  0  0  0  0  0  0  0  0  0  0  0
  147.9528  134.8282  152.7926 H   0  0  0  0  0  0  0  0  0  0  0  0
  1  2  1  0  0  0  0
  1 24  1  0  0  0  0
  1 25  1  0  0  0  0
  1 26  1  0  0  0  0
  2  3  1  0  0  0  0
  3  4  1  0  0  0  0
  3 27  1  0  0  0  0
  3 28  1  0  0  0  0
  4  5  1  0  0  0  0
  4 29  1  0  0  0  0
  4 30  1  0  0  0  0
  5 22  1  0  0  0  0
  5  6  1  0  0  0  0
  6  7  2  0  0  0  0
  7  8  1  0  0  0  0
  7 20  1  0  0  0  0
  8  9  2  0  0  0  0
  8 10  1  0  0  0  0
 10 11  1  0  0  0  0
 10 31  1  0  0  0  0
 11 12  1  0  0  0  0
 11 32  1  0  0  0  0
 11 33  1  0  0  0  0
 12 13  1  0  0  0  0
 12 14  1  0  0  0  0
 12 34  1  0  0  0  0
 13 35  1  0  0  0  0
 13 36  1  0  0  0  0
 13 37  1  0  0  0  0
 14 19  1  0  0  0  0
 14 15  1  0  0  0  0
 14 48  1  0  0  0  0
 15 16  1  0  0  0  0
 15 38  1  0  0  0  0
 15 39  1  0  0  0  0
 16 17  1  0  0  0  0
 16 40  1  0  0  0  0
 16 41  1  0  0  0  0
 17 18  1  0  0  0  0
 18 19  1  0  0  0  0
 18 42  1  0  0  0  0
 18 43  1  0  0  0  0
 19 44  1  0  0  0  0
 19 45  1  0  0  0  0
 20 21  2  0  0  0  0
 20 46  1  0  0  0  0
 21 22  1  0  0  0  0
 21 47  1  0  0  0  0
 22 23  2  0  0  0  0
M  CHG  1  14   1
M  END
> <s_m_source_file>
AV-unprocessed.smi

> <i_m_source_file_index>
1958

> <i_lp_mmshare_version>
43012

> <i_f3d_flags>
0

> <s_epik_input>
W0NIM11PW0NIMl1bQ0gyXW4xbmMoW2NIXVtjSF1jMT1PKUMoPU8pW05IXVtDSDJdW0NASF0oW0NIM10pTjJbQ0gyXVtDSDJdT1tDSDJdW0NIMl0y

> <s_epik_cmdline>
J2VwaWtfcHl0aG9uJywgJy1waCcsICc3LjAnLCAnLXRuJywgJzgnLCAnLW1hJywgJzIwMCcsICctbWV0YWxfYmluZGluZycsICctaW1hZScsICc8aW5maWxlLm1hZT4nLCAnLW9tYWUnLCAnPG91dGZpbGUubWFlPic=

> <r_lp_tautomer_probability>
1

> <r_epik_Ionization_Penalty>
0.724355

> <r_epik_Ionization_Penalty_Charging>
0.724348

> <r_epik_Ionization_Penalty_Neutral>
6.31911e-06

> <r_epik_State_Penalty>
0.749058

> <r_epik_Charging_Adjusted_Penalty>
1.47341

> <i_epik_Tot_Q>
1

> <i_epik_Tot_abs_Q>
1

> <r_epik_Metal_State_Penalty>
0.750821

> <b_epik_Metal_Only>
0

> <s_lp_Force_Field>
OPLS_2005

> <r_lp_Energy>
41.4704

> <b_lp_Chiralities_Consistent>
1

> <s_lp_Variant>
AV-unprocessed.smi:1958-3

> <Gold.Version>
5.8.1

> <Gold.Id.Protein>
6NUR|6NUR_protein|mol2

> <Gold.PLP.Fitness>
42.3315

> <Gold.PLP.PLP>
-31.2289

> <Gold.PLP.part.hbond>
-4.0000

> <Gold.PLP.part.metal>
0.0000

> <Gold.PLP.part.buried>
-4.1139

> <Gold.PLP.part.nonpolar>
-23.9063

> <Gold.PLP.part.repulsive>
0.1737

> <Gold.PLP.ligand.clash>
0.5097

> <Gold.PLP.ligand.torsion>
0.3772

> <Gold.PLP.Chemscore.Hbond>
4.0507

> <Gold.PLP.Chemscore.CHOScore>
0.0000

> <Gold.PLP.Chemscore.Metal>
0.0000

> <Gold.Chemscore.Hbonds>
donor molecule, donor type, donor heavy atom, donor atom, acceptor molecule, acceptor atom, score
      L1  H    14    48       P1  7948  2.00
      P1  H  6896  6907       L1     9  0.29
      P1  H  7989  7998       L1    23  0.15
      P1  H  7997  8009       L1    23  1.00

> <Gold.PLP.Chemscore.Internal.Correction>
0.2148

> <Gold.Rescore>
     Score         DG    S(hbond)    S(metal)    S(lipo)     H(rot)  DE(clash)    DE(int)     intcor
     16.42     -16.95       2.81        0.00      64.10       2.12       0.11       0.42       ----

> <Gold.Chemscore.Fitness>
16.4206

> <Gold.Chemscore.DG>
-16.9476

> <Gold.Chemscore.ZeroCoef>
-5.4800

> <Gold.Chemscore.Hbond>
2.8145

> <Gold.Chemscore.Metal>
0.0000

> <Gold.Chemscore.Lipo>
64.0996

> <Gold.Chemscore.Internal_Hbond>
0.0000

> <Gold.Chemscore.DEClash>
0.1103

> <Gold.Chemscore.DEInternal>
0.4167

> <Gold.Chemscore.Rot>
2.1221

> <Gold.Chemscore.Internal.Correction>
   9.000000E+99

> <Gold.Chemscore.Hbonds>
donor molecule, donor type, donor heavy atom, donor atom, acceptor molecule, acceptor atom, score
      L1  H    14    48       P1  7948  0.88
      P1  H  6896  6907       L1     9  0.29
      P1  H  7989  7998       L1    23  0.10
      P1  H  7997  8009       L1    23  1.00

> <Gold.Chemscore.Hbond.Weighted>
-9.4004

> <Gold.Chemscore.Metal.Weighted>
-0.0000

> <Gold.Chemscore.Lipo.Weighted>
-7.4997

> <Gold.Chemscore.Internal_Hbond.Weighted>
0.0000

> <Gold.Chemscore.DEClash.Weighted>
0.1103

> <Gold.Chemscore.DEInternal.Weighted>
0.4167

> <Gold.Chemscore.Rot.Weighted>
5.4325

> <Gold.Chemscore.Internal.Correction.Weighted>
   9.000000E+99

> <Gold.Protein.RotatedTorsions>
[ 6907 6896 6895 6894 ] final  -85.87 input  -60.11 | X-H torsion
[ 7974 7965 7964 7962 ] final  -82.06 input  175.53 | X-H torsion
[ 8008 7997 7996 7995 ] final -134.44 input   59.86 | X-H torsion
[ 10167 10162 10161 10158 ] final -167.91 input  -65.29 | X-H torsion
[ 10718 10713 10712 10709 ] final  -73.16 input   66.30 | X-H torsion
[ 10763 10752 10751 10750 ] final   69.63 input  -60.55 | X-H torsion
[ 11005 11000 10999 10996 ] final   81.16 input  -57.11 | X-H torsion

> <Gold.Protein.ActiveResidues>
 VAL166  LYS551  ARG553  GLY616  TRP617  ASP618  TYR619  PRO620  LYS621  CYS622 
 ASP623  PHE694  ASN695  SER759  ASP760  ASP761  ALA762  ILE779  LEU786  VAL792 
 PHE793  MET794  SER795  GLU796  ALA797  LYS798  CYS799  TRP800  GLU811  SER814 

> <Gold.Protein.RotatedAtoms>
  150.6868  134.3138  159.4757 H   0  0  0  0  0  0  0  0  0  0  0  0  # atno 6907 bound_to 6896
  152.1021  134.9332  160.0578 H   0  0  0  0  0  0  0  0  0  0  0  0  # atno 6908 bound_to 6896
  152.0607  133.4026  159.4453 H   0  0  0  0  0  0  0  0  0  0  0  0  # atno 6909 bound_to 6896
  145.5383  140.9513  143.1565 H   0  0  0  0  0  0  0  0  0  0  0  0  # atno 7974 bound_to 7965
  155.3621  140.0483  157.3046 H   0  0  0  0  0  0  0  0  0  0  0  0  # atno 8008 bound_to 7997
  154.5173  140.2213  155.9005 H   0  0  0  0  0  0  0  0  0  0  0  0  # atno 8009 bound_to 7997
  156.1650  140.3108  155.8879 H   0  0  0  0  0  0  0  0  0  0  0  0  # atno 8010 bound_to 7997
  139.6018  144.0994  152.1751 H   0  0  0  0  0  0  0  0  0  0  0  0  # atno 10167 bound_to 10162
  156.0291  130.4388  150.2701 H   0  0  0  0  0  0  0  0  0  0  0  0  # atno 10718 bound_to 10713
  153.0298  135.5203  154.7318 H   0  0  0  0  0  0  0  0  0  0  0  0  # atno 10763 bound_to 10752
  154.6343  135.2904  155.0181 H   0  0  0  0  0  0  0  0  0  0  0  0  # atno 10764 bound_to 10752
  154.1122  135.6620  153.4939 H   0  0  0  0  0  0  0  0  0  0  0  0  # atno 10765 bound_to 10752
  139.9108  134.7975  156.2004 H   0  0  0  0  0  0  0  0  0  0  0  0  # atno 11005 bound_to 11000
  144.7590  139.7003  143.7242 LP  0  0  0  0  0  0  0  0  0  0  0  0  # atno 17320 bound_to 7965
  146.1998  139.5286  142.9750 LP  0  0  0  0  0  0  0  0  0  0  0  0  # atno 17321 bound_to 7965
  140.0592  144.5870  150.7276 LP  0  0  0  0  0  0  0  0  0  0  0  0  # atno 17342 bound_to 10162
  140.7256  143.2632  151.4133 LP  0  0  0  0  0  0  0  0  0  0  0  0  # atno 17343 bound_to 10162
  157.0804  131.0142  151.3158 LP  0  0  0  0  0  0  0  0  0  0  0  0  # atno 17370 bound_to 10713
  157.4932  130.7834  149.7528 LP  0  0  0  0  0  0  0  0  0  0  0  0  # atno 17371 bound_to 10713
  141.0528  133.6880  156.1804 LP  0  0  0  0  0  0  0  0  0  0  0  0  # atno 17394 bound_to 11000
  140.6783  134.4794  157.5588 LP  0  0  0  0  0  0  0  0  0  0  0  0  # atno 17395 bound_to 11000

$$$$
