AV-unprocessed.smi:774|AV-procd|sdf|3693|dock9
  -GOLD-   22720 1113D 1   1.00000     0.00000
 Structure written by MMmdl.
 37 38  0  0  0  0  0  0  0  0  1 V2000
  154.8423  127.7646  154.8969 C   0  0  0  0  0  0  0  0  0  0  0  0
  153.3970  128.0801  155.2910 C   0  0  0  0  0  0  0  0  0  0  0  0
  152.9090  129.7407  154.7486 S   0  0  0  0  0  0  0  0  0  0  0  0
  151.1440  129.7194  155.1762 C   0  0  2  0  0  0  0  0  0  0  0  0
  150.4080  128.4923  154.6413 C   0  0  0  0  0  0  0  0  0  0  0  0
  148.9358  128.9047  154.6540 C   0  0  0  0  0  0  0  0  0  0  0  0
  148.9182  130.4299  154.4279 C   0  0  2  0  0  0  0  0  0  0  0  0
  148.3866  130.7715  153.1108 N   0  0  0  0  0  0  0  0  0  0  0  0
  147.1421  131.2089  152.8723 C   0  0  0  0  0  0  0  0  0  0  0  0
  146.2968  131.3634  153.7537 O   0  0  0  0  0  0  0  0  0  0  0  0
  146.9474  131.4276  151.5605 N   0  0  0  0  0  0  0  0  0  0  0  0
  145.7777  131.9026  150.9081 C   0  0  0  0  0  0  0  0  0  0  0  0
  144.6962  132.3204  151.7107 C   0  0  0  0  0  0  0  0  0  0  0  0
  143.5181  132.7788  151.0910 C   0  0  0  0  0  0  0  0  0  0  0  0
  143.4638  132.7922  149.6838 C   0  0  0  0  0  0  0  0  0  0  0  0
  144.4829  132.3815  148.9001 N   0  0  0  0  0  0  0  0  0  0  0  0
  145.6110  131.9448  149.5012 C   0  0  0  0  0  0  0  0  0  0  0  0
  150.3786  130.8989  154.5690 C   0  0  0  0  0  0  0  0  0  0  0  0
  155.1259  126.7654  155.2279 H   0  0  0  0  0  0  0  0  0  0  0  0
  155.5365  128.4742  155.3477 H   0  0  0  0  0  0  0  0  0  0  0  0
  154.9733  127.8071  153.8153 H   0  0  0  0  0  0  0  0  0  0  0  0
  152.7233  127.3463  154.8485 H   0  0  0  0  0  0  0  0  0  0  0  0
  153.2831  128.0125  156.3732 H   0  0  0  0  0  0  0  0  0  0  0  0
  151.0422  129.7562  156.2617 H   0  0  0  0  0  0  0  0  0  0  0  0
  150.7203  128.2850  153.6168 H   0  0  0  0  0  0  0  0  0  0  0  0
  150.5918  127.5962  155.2345 H   0  0  0  0  0  0  0  0  0  0  0  0
  148.3521  128.3478  153.9196 H   0  0  0  0  0  0  0  0  0  0  0  0
  148.5090  128.6836  155.6332 H   0  0  0  0  0  0  0  0  0  0  0  0
  148.3114  130.9037  155.2022 H   0  0  0  0  0  0  0  0  0  0  0  0
  149.0135  130.6665  152.3264 H   0  0  0  0  0  0  0  0  0  0  0  0
  147.7102  131.1736  150.9502 H   0  0  0  0  0  0  0  0  0  0  0  0
  144.7670  132.2950  152.7886 H   0  0  0  0  0  0  0  0  0  0  0  0
  142.6760  133.1107  151.6798 H   0  0  0  0  0  0  0  0  0  0  0  0
  142.5763  133.1369  149.1740 H   0  0  0  0  0  0  0  0  0  0  0  0
  146.3786  131.6053  148.8236 H   0  0  0  0  0  0  0  0  0  0  0  0
  150.4643  131.7980  155.1803 H   0  0  0  0  0  0  0  0  0  0  0  0
  150.7964  131.1373  153.5890 H   0  0  0  0  0  0  0  0  0  0  0  0
  1  2  1  0  0  0  0
  1 19  1  0  0  0  0
  1 20  1  0  0  0  0
  1 21  1  0  0  0  0
  2  3  1  0  0  0  0
  2 22  1  0  0  0  0
  2 23  1  0  0  0  0
  3  4  1  0  0  0  0
  4 18  1  0  0  0  0
  4  5  1  0  0  0  0
  4 24  1  0  0  0  0
  5  6  1  0  0  0  0
  5 25  1  0  0  0  0
  5 26  1  0  0  0  0
  6  7  1  0  0  0  0
  6 27  1  0  0  0  0
  6 28  1  0  0  0  0
  7  8  1  0  0  0  0
  7 18  1  0  0  0  0
  7 29  1  0  0  0  0
  8  9  1  0  0  0  0
  8 30  1  0  0  0  0
  9 10  2  0  0  0  0
  9 11  1  0  0  0  0
 11 12  1  0  0  0  0
 11 31  1  0  0  0  0
 12 17  1  0  0  0  0
 12 13  2  0  0  0  0
 13 14  1  0  0  0  0
 13 32  1  0  0  0  0
 14 15  2  0  0  0  0
 14 33  1  0  0  0  0
 15 16  1  0  0  0  0
 15 34  1  0  0  0  0
 16 17  2  0  0  0  0
 17 35  1  0  0  0  0
 18 36  1  0  0  0  0
 18 37  1  0  0  0  0
M  END
> <s_m_source_file>
AV-unprocessed.smi

> <i_m_source_file_index>
774

> <i_lp_mmshare_version>
43012

> <i_f3d_flags>
0

> <s_epik_input>
W0NIM11bQ0gyXVNbQ0BASF0xW0NIMl1bQ0gyXVtDQEhdKFtDSDJdMSlbTkhdQyg9TylbTkhdYzJbY0hdW2NIXVtjSF1uW2NIXTI=

> <s_epik_cmdline>
J2VwaWtfcHl0aG9uJywgJy1waCcsICc3LjAnLCAnLXRuJywgJzgnLCAnLW1hJywgJzIwMCcsICctbWV0YWxfYmluZGluZycsICctaW1hZScsICc8aW5maWxlLm1hZT4nLCAnLW9tYWUnLCAnPG91dGZpbGUubWFlPic=

> <r_epik_Ionization_Penalty>
0.00485718

> <r_epik_Ionization_Penalty_Charging>
0

> <r_epik_Ionization_Penalty_Neutral>
0.00485718

> <r_epik_State_Penalty>
0.00349461

> <r_epik_Charging_Adjusted_Penalty>
0.00349461

> <i_epik_Tot_Q>
0

> <i_epik_Tot_abs_Q>
0

> <r_epik_Metal_State_Penalty>
-0

> <b_epik_Metal_Only>
0

> <s_lp_Force_Field>
OPLS_2005

> <r_lp_Energy>
20.2727

> <b_lp_Chiralities_Consistent>
1

> <s_lp_Variant>
AV-unprocessed.smi:774-3

> <Gold.Version>
5.8.1

> <Gold.Id.Protein>
6NUR|6NUR_protein|mol2

> <Gold.PLP.Fitness>
39.2115

> <Gold.PLP.PLP>
-31.8864

> <Gold.PLP.part.hbond>
-2.0996

> <Gold.PLP.part.metal>
0.0000

> <Gold.PLP.part.buried>
-3.5040

> <Gold.PLP.part.nonpolar>
-27.0384

> <Gold.PLP.part.repulsive>
0.4219

> <Gold.PLP.ligand.clash>
0.0000

> <Gold.PLP.ligand.torsion>
0.3566

> <Gold.PLP.Chemscore.Hbond>
1.6773

> <Gold.PLP.Chemscore.CHOScore>
1.0000

> <Gold.PLP.Chemscore.Metal>
0.0000

> <Gold.Chemscore.Hbonds>
donor molecule, donor type, donor heavy atom, donor atom, acceptor molecule, acceptor atom, score
      L1  H     8    30       P1 10747  0.82
      L1  H    11    31       P1 10747  0.84
      L1  C    15    34       P1 10186  1.00

> <Gold.PLP.Chemscore.Internal.Correction>
0.0066

> <Gold.Rescore>
     Score         DG    S(hbond)    S(metal)    S(lipo)     H(rot)  DE(clash)    DE(int)     intcor
     14.10     -15.96       1.21        0.00      83.66       1.30       0.09       1.77       ----

> <Gold.Chemscore.Fitness>
14.1044

> <Gold.Chemscore.DG>
-15.9627

> <Gold.Chemscore.ZeroCoef>
-5.4800

> <Gold.Chemscore.Hbond>
1.2073

> <Gold.Chemscore.Metal>
0.0000

> <Gold.Chemscore.Lipo>
83.6644

> <Gold.Chemscore.Internal_Hbond>
0.0000

> <Gold.Chemscore.DEClash>
0.0890

> <Gold.Chemscore.DEInternal>
1.7694

> <Gold.Chemscore.Rot>
1.3041

> <Gold.Chemscore.Internal.Correction>
   9.000000E+99

> <Gold.Chemscore.Hbonds>
donor molecule, donor type, donor heavy atom, donor atom, acceptor molecule, acceptor atom, score
      L1  H     8    30       P1 10747  0.23
      L1  H    11    31       P1 10747  0.82

> <Gold.Chemscore.Hbond.Weighted>
-4.0324

> <Gold.Chemscore.Metal.Weighted>
-0.0000

> <Gold.Chemscore.Lipo.Weighted>
-9.7887

> <Gold.Chemscore.Internal_Hbond.Weighted>
0.0000

> <Gold.Chemscore.DEClash.Weighted>
0.0890

> <Gold.Chemscore.DEInternal.Weighted>
1.7694

> <Gold.Chemscore.Rot.Weighted>
3.3384

> <Gold.Chemscore.Internal.Correction.Weighted>
   9.000000E+99

> <Gold.Protein.RotatedTorsions>
[ 6907 6896 6895 6894 ] final -160.68 input  -60.11 | X-H torsion
[ 7974 7965 7964 7962 ] final -120.82 input  175.53 | X-H torsion
[ 8008 7997 7996 7995 ] final  -41.84 input   59.86 | X-H torsion
[ 10167 10162 10161 10158 ] final -136.19 input  -65.29 | X-H torsion
[ 10718 10713 10712 10709 ] final -105.58 input   66.30 | X-H torsion
[ 10763 10752 10751 10750 ] final  112.97 input  -60.55 | X-H torsion
[ 11005 11000 10999 10996 ] final -121.21 input  -57.11 | X-H torsion

> <Gold.Protein.ActiveResidues>
 VAL166  LYS551  ARG553  GLY616  TRP617  ASP618  TYR619  PRO620  LYS621  CYS622 
 ASP623  PHE694  ASN695  SER759  ASP760  ASP761  ALA762  ILE779  LEU786  VAL792 
 PHE793  MET794  SER795  GLU796  ALA797  LYS798  CYS799  TRP800  GLU811  SER814 

> <Gold.Protein.RotatedAtoms>
  151.3528  133.3919  159.2681 H   0  0  0  0  0  0  0  0  0  0  0  0  # atno 6907 bound_to 6896
  150.9787  134.9147  159.7842 H   0  0  0  0  0  0  0  0  0  0  0  0  # atno 6908 bound_to 6896
  152.5210  134.3492  159.9297 H   0  0  0  0  0  0  0  0  0  0  0  0  # atno 6909 bound_to 6896
  145.0472  140.8190  143.4231 H   0  0  0  0  0  0  0  0  0  0  0  0  # atno 7974 bound_to 7965
  154.4002  140.1489  156.3256 H   0  0  0  0  0  0  0  0  0  0  0  0  # atno 8008 bound_to 7997
  155.8490  140.3458  155.5659 H   0  0  0  0  0  0  0  0  0  0  0  0  # atno 8009 bound_to 7997
  155.8005  140.0869  157.1950 H   0  0  0  0  0  0  0  0  0  0  0  0  # atno 8010 bound_to 7997
  139.8703  143.6966  152.2640 H   0  0  0  0  0  0  0  0  0  0  0  0  # atno 10167 bound_to 10162
  156.0352  130.5571  150.7559 H   0  0  0  0  0  0  0  0  0  0  0  0  # atno 10718 bound_to 10713
  153.4857  135.3670  155.2465 H   0  0  0  0  0  0  0  0  0  0  0  0  # atno 10763 bound_to 10752
  154.8754  135.3965  154.3648 H   0  0  0  0  0  0  0  0  0  0  0  0  # atno 10764 bound_to 10752
  153.4259  135.7081  153.6328 H   0  0  0  0  0  0  0  0  0  0  0  0  # atno 10765 bound_to 10752
  141.0087  134.0297  157.3443 H   0  0  0  0  0  0  0  0  0  0  0  0  # atno 11005 bound_to 11000
  145.1573  139.2479  143.5410 LP  0  0  0  0  0  0  0  0  0  0  0  0  # atno 17320 bound_to 7965
  146.3515  140.1291  142.8597 LP  0  0  0  0  0  0  0  0  0  0  0  0  # atno 17321 bound_to 7965
  139.7290  144.7586  151.0832 LP  0  0  0  0  0  0  0  0  0  0  0  0  # atno 17342 bound_to 10162
  140.7762  143.5111  150.9651 LP  0  0  0  0  0  0  0  0  0  0  0  0  # atno 17343 bound_to 10162
  157.5091  131.0924  151.0220 LP  0  0  0  0  0  0  0  0  0  0  0  0  # atno 17370 bound_to 10713
  157.0580  130.5814  149.5381 LP  0  0  0  0  0  0  0  0  0  0  0  0  # atno 17371 bound_to 10713
  139.9077  135.0183  156.7559 LP  0  0  0  0  0  0  0  0  0  0  0  0  # atno 17394 bound_to 11000
  140.6770  133.9508  155.7889 LP  0  0  0  0  0  0  0  0  0  0  0  0  # atno 17395 bound_to 11000

$$$$
