AV-unprocessed.smi:657|AV-procd|sdf|3222|dock5
  -GOLD-   22720 0163D 1   1.00000     0.00000
 Structure written by MMmdl.
 47 48  0  0  0  0  0  0  0  0  2 V2000
  146.0616  137.6025  154.4092 C   0  0  0  0  0  0  0  0  0  0  0  0
  147.1709  138.6036  154.0255 C   0  0  0  0  0  0  0  0  0  0  0  0
  146.9244  139.0624  152.5724 C   0  0  0  0  0  0  0  0  0  0  0  0
  148.5542  138.0459  154.2171 N   0  3  2  0  0  0  0  0  0  0  0  0
  148.7562  137.3220  155.5108 C   0  0  0  0  0  0  0  0  0  0  0  0
  150.1235  136.6215  155.5774 C   0  0  0  0  0  0  0  0  0  0  0  0
  151.2717  137.6005  155.3291 C   0  0  0  0  0  0  0  0  0  0  0  0
  151.0505  138.3070  153.9869 C   0  0  0  0  0  0  0  0  0  0  0  0
  149.6721  139.0007  153.8956 C   0  0  2  0  0  0  0  0  0  0  0  0
  149.6460  140.3222  154.6957 C   0  0  0  0  0  0  0  0  0  0  0  0
  149.3417  141.3847  154.1549 O   0  0  0  0  0  0  0  0  0  0  0  0
  149.9618  140.2324  155.9971 N   0  0  0  0  0  0  0  0  0  0  0  0
  149.9945  141.3417  156.9480 C   0  0  0  0  0  0  0  0  0  0  0  0
  151.1446  142.3437  156.7076 C   0  0  0  0  0  0  0  0  0  0  0  0
  151.6068  143.0457  157.9586 C   0  0  0  0  0  0  0  0  0  0  0  0
  151.7630  144.4439  158.1819 C   0  0  0  0  0  0  0  0  0  0  0  0
  152.1743  144.7262  159.4072 N   0  0  0  0  0  0  0  0  0  0  0  0
  152.3067  143.5236  160.0030 N   0  0  0  0  0  0  0  0  0  0  0  0
  152.7528  143.4507  161.3778 C   0  0  0  0  0  0  0  0  0  0  0  0
  151.9767  142.4920  159.1517 C   0  0  0  0  0  0  0  0  0  0  0  0
  145.0771  137.9903  154.1449 H   0  0  0  0  0  0  0  0  0  0  0  0
  146.0275  137.4135  155.4818 H   0  0  0  0  0  0  0  0  0  0  0  0
  146.1875  136.6492  153.8945 H   0  0  0  0  0  0  0  0  0  0  0  0
  147.0540  139.4691  154.6781 H   0  0  0  0  0  0  0  0  0  0  0  0
  145.8831  139.3451  152.4189 H   0  0  0  0  0  0  0  0  0  0  0  0
  147.1546  138.2697  151.8599 H   0  0  0  0  0  0  0  0  0  0  0  0
  147.5144  139.9394  152.3087 H   0  0  0  0  0  0  0  0  0  0  0  0
  148.6312  138.0010  156.3537 H   0  0  0  0  0  0  0  0  0  0  0  0
  148.0091  136.5408  155.6353 H   0  0  0  0  0  0  0  0  0  0  0  0
  150.2483  136.1429  156.5494 H   0  0  0  0  0  0  0  0  0  0  0  0
  150.1595  135.8230  154.8351 H   0  0  0  0  0  0  0  0  0  0  0  0
  151.3321  138.3247  156.1418 H   0  0  0  0  0  0  0  0  0  0  0  0
  152.2226  137.0676  155.3198 H   0  0  0  0  0  0  0  0  0  0  0  0
  151.8518  139.0271  153.8130 H   0  0  0  0  0  0  0  0  0  0  0  0
  151.1330  137.5736  153.1834 H   0  0  0  0  0  0  0  0  0  0  0  0
  149.5737  139.2654  152.8430 H   0  0  0  0  0  0  0  0  0  0  0  0
  150.1950  139.3207  156.3636 H   0  0  0  0  0  0  0  0  0  0  0  0
  149.0337  141.8585  156.9518 H   0  0  0  0  0  0  0  0  0  0  0  0
  150.1084  140.9014  157.9390 H   0  0  0  0  0  0  0  0  0  0  0  0
  151.9793  141.8155  156.2459 H   0  0  0  0  0  0  0  0  0  0  0  0
  150.8238  143.0707  155.9610 H   0  0  0  0  0  0  0  0  0  0  0  0
  151.5807  145.2575  157.4954 H   0  0  0  0  0  0  0  0  0  0  0  0
  152.5293  142.4664  161.7899 H   0  0  0  0  0  0  0  0  0  0  0  0
  152.2450  144.2073  161.9770 H   0  0  0  0  0  0  0  0  0  0  0  0
  153.8289  143.6206  161.4233 H   0  0  0  0  0  0  0  0  0  0  0  0
  152.0244  141.4590  159.4639 H   0  0  0  0  0  0  0  0  0  0  0  0
  148.6350  137.3234  153.5162 H   0  0  0  0  0  0  0  0  0  0  0  0
  1  2  1  0  0  0  0
  1 21  1  0  0  0  0
  1 22  1  0  0  0  0
  1 23  1  0  0  0  0
  2  3  1  0  0  0  0
  2  4  1  0  0  0  0
  2 24  1  0  0  0  0
  3 25  1  0  0  0  0
  3 26  1  0  0  0  0
  3 27  1  0  0  0  0
  4  9  1  0  0  0  0
  4  5  1  0  0  0  0
  4 47  1  0  0  0  0
  5  6  1  0  0  0  0
  5 28  1  0  0  0  0
  5 29  1  0  0  0  0
  6  7  1  0  0  0  0
  6 30  1  0  0  0  0
  6 31  1  0  0  0  0
  7  8  1  0  0  0  0
  7 32  1  0  0  0  0
  7 33  1  0  0  0  0
  8  9  1  0  0  0  0
  8 34  1  0  0  0  0
  8 35  1  0  0  0  0
  9 10  1  0  0  0  0
  9 36  1  0  0  0  0
 10 11  2  0  0  0  0
 10 12  1  0  0  0  0
 12 13  1  0  0  0  0
 12 37  1  0  0  0  0
 13 14  1  0  0  0  0
 13 38  1  0  0  0  0
 13 39  1  0  0  0  0
 14 15  1  0  0  0  0
 14 40  1  0  0  0  0
 14 41  1  0  0  0  0
 15 20  2  0  0  0  0
 15 16  1  0  0  0  0
 16 17  2  0  0  0  0
 16 42  1  0  0  0  0
 17 18  1  0  0  0  0
 18 19  1  0  0  0  0
 18 20  1  0  0  0  0
 19 43  1  0  0  0  0
 19 44  1  0  0  0  0
 19 45  1  0  0  0  0
 20 46  1  0  0  0  0
M  CHG  1   4   1
M  END
> <s_m_source_file>
AV-unprocessed.smi

> <i_m_source_file_index>
657

> <i_lp_mmshare_version>
43012

> <i_f3d_flags>
0

> <s_epik_input>
W0NIM11bQ0hdKFtDSDNdKU4xW0NIMl1bQ0gyXVtDSDJdW0NIMl1bQ0BIXTFDKD1PKVtOSF1bQ0gyXVtDSDJdYzJbY0hdbm4oW0NIM10pW2NIXTI=

> <s_epik_cmdline>
J2VwaWtfcHl0aG9uJywgJy1waCcsICc3LjAnLCAnLXRuJywgJzgnLCAnLW1hJywgJzIwMCcsICctbWV0YWxfYmluZGluZycsICctaW1hZScsICc8aW5maWxlLm1hZT4nLCAnLW9tYWUnLCAnPG91dGZpbGUubWFlPic=

> <r_lp_tautomer_probability>
1

> <r_epik_Ionization_Penalty>
0.0244317

> <r_epik_Ionization_Penalty_Charging>
0.0240236

> <r_epik_Ionization_Penalty_Neutral>
0.00040815

> <r_epik_State_Penalty>
0.0194773

> <r_epik_Charging_Adjusted_Penalty>
0.0435009

> <i_epik_Tot_Q>
1

> <i_epik_Tot_abs_Q>
1

> <r_epik_Metal_State_Penalty>
0.0361957

> <b_epik_Metal_Only>
0

> <s_lp_Force_Field>
OPLS_2005

> <r_lp_Energy>
17.7945

> <b_lp_Chiralities_Consistent>
1

> <s_lp_Variant>
AV-unprocessed.smi:657-3

> <Gold.Version>
5.8.1

> <Gold.Id.Protein>
6NUR|6NUR_protein|mol2

> <Gold.PLP.Fitness>
45.9777

> <Gold.PLP.PLP>
-38.8173

> <Gold.PLP.part.hbond>
-3.0000

> <Gold.PLP.part.metal>
0.0000

> <Gold.PLP.part.buried>
-1.6984

> <Gold.PLP.part.nonpolar>
-32.8353

> <Gold.PLP.part.repulsive>
0.2761

> <Gold.PLP.ligand.clash>
0.0000

> <Gold.PLP.ligand.torsion>
0.5132

> <Gold.PLP.Chemscore.Hbond>
2.6635

> <Gold.PLP.Chemscore.CHOScore>
0.0000

> <Gold.PLP.Chemscore.Metal>
0.0000

> <Gold.Chemscore.Hbonds>
donor molecule, donor type, donor heavy atom, donor atom, acceptor molecule, acceptor atom, score
      L1  H     4    47       P1  7948  2.00
      P1  H  8011  8017       L1    11  0.50

> <Gold.PLP.Chemscore.Internal.Correction>
0.1962

> <Gold.Rescore>
     Score         DG    S(hbond)    S(metal)    S(lipo)     H(rot)  DE(clash)    DE(int)     intcor
     16.01     -19.35       1.72        0.00     104.94       1.63       1.56       1.78       ----

> <Gold.Chemscore.Fitness>
16.0126

> <Gold.Chemscore.DG>
-19.3488

> <Gold.Chemscore.ZeroCoef>
-5.4800

> <Gold.Chemscore.Hbond>
1.7241

> <Gold.Chemscore.Metal>
0.0000

> <Gold.Chemscore.Lipo>
104.9374

> <Gold.Chemscore.Internal_Hbond>
0.0000

> <Gold.Chemscore.DEClash>
1.5553

> <Gold.Chemscore.DEInternal>
1.7809

> <Gold.Chemscore.Rot>
1.6279

> <Gold.Chemscore.Internal.Correction>
   9.000000E+99

> <Gold.Chemscore.Hbonds>
donor molecule, donor type, donor heavy atom, donor atom, acceptor molecule, acceptor atom, score
      L1  H     4    47       P1  7948  0.97
      P1  H  8011  8017       L1    11  0.51

> <Gold.Chemscore.Hbond.Weighted>
-5.7584

> <Gold.Chemscore.Metal.Weighted>
-0.0000

> <Gold.Chemscore.Lipo.Weighted>
-12.2777

> <Gold.Chemscore.Internal_Hbond.Weighted>
0.0000

> <Gold.Chemscore.DEClash.Weighted>
1.5553

> <Gold.Chemscore.DEInternal.Weighted>
1.7809

> <Gold.Chemscore.Rot.Weighted>
4.1673

> <Gold.Chemscore.Internal.Correction.Weighted>
   9.000000E+99

> <Gold.Protein.RotatedTorsions>
[ 6907 6896 6895 6894 ] final   51.42 input  -60.11 | X-H torsion
[ 7974 7965 7964 7962 ] final  164.49 input  175.53 | X-H torsion
[ 8008 7997 7996 7995 ] final  169.95 input   59.86 | X-H torsion
[ 10167 10162 10161 10158 ] final -111.56 input  -65.29 | X-H torsion
[ 10718 10713 10712 10709 ] final  -53.32 input   66.30 | X-H torsion
[ 10763 10752 10751 10750 ] final  -88.95 input  -60.55 | X-H torsion
[ 11005 11000 10999 10996 ] final   39.71 input  -57.11 | X-H torsion

> <Gold.Protein.ActiveResidues>
 VAL166  LYS551  ARG553  GLY616  TRP617  ASP618  TYR619  PRO620  LYS621  CYS622 
 ASP623  PHE694  ASN695  SER759  ASP760  ASP761  ALA762  ILE779  LEU786  VAL792 
 PHE793  MET794  SER795  GLU796  ALA797  LYS798  CYS799  TRP800  GLU811  SER814 

> <Gold.Protein.RotatedAtoms>
  152.3125  134.7480  160.0332 H   0  0  0  0  0  0  0  0  0  0  0  0  # atno 6907 bound_to 6896
  151.7956  133.3359  159.3520 H   0  0  0  0  0  0  0  0  0  0  0  0  # atno 6908 bound_to 6896
  150.7327  134.5732  159.5945 H   0  0  0  0  0  0  0  0  0  0  0  0  # atno 6909 bound_to 6896
  144.7543  139.8333  143.6355 H   0  0  0  0  0  0  0  0  0  0  0  0  # atno 7974 bound_to 7965
  156.1410  140.1550  156.8921 H   0  0  0  0  0  0  0  0  0  0  0  0  # atno 8008 bound_to 7997
  154.4987  140.0831  156.7791 H   0  0  0  0  0  0  0  0  0  0  0  0  # atno 8009 bound_to 7997
  155.4079  140.3417  155.4263 H   0  0  0  0  0  0  0  0  0  0  0  0  # atno 8010 bound_to 7997
  140.1322  143.4350  152.1619 H   0  0  0  0  0  0  0  0  0  0  0  0  # atno 10167 bound_to 10162
  156.1545  130.4150  149.9892 H   0  0  0  0  0  0  0  0  0  0  0  0  # atno 10718 bound_to 10713
  154.6500  135.5358  153.7891 H   0  0  0  0  0  0  0  0  0  0  0  0  # atno 10763 bound_to 10752
  153.0381  135.6480  154.1031 H   0  0  0  0  0  0  0  0  0  0  0  0  # atno 10764 bound_to 10752
  154.0949  135.2937  155.3244 H   0  0  0  0  0  0  0  0  0  0  0  0  # atno 10765 bound_to 10752
  140.2001  134.3881  155.8101 H   0  0  0  0  0  0  0  0  0  0  0  0  # atno 11005 bound_to 11000
  146.1533  139.4623  143.0034 LP  0  0  0  0  0  0  0  0  0  0  0  0  # atno 17320 bound_to 7965
  145.6834  141.0184  143.1594 LP  0  0  0  0  0  0  0  0  0  0  0  0  # atno 17321 bound_to 7965
  139.5514  144.7340  151.4425 LP  0  0  0  0  0  0  0  0  0  0  0  0  # atno 17342 bound_to 10162
  140.6810  143.8082  150.7121 LP  0  0  0  0  0  0  0  0  0  0  0  0  # atno 17343 bound_to 10162
  156.7739  130.9196  151.3645 LP  0  0  0  0  0  0  0  0  0  0  0  0  # atno 17370 bound_to 10713
  157.6684  130.9028  149.9983 LP  0  0  0  0  0  0  0  0  0  0  0  0  # atno 17371 bound_to 10713
  141.2227  133.7089  156.8243 LP  0  0  0  0  0  0  0  0  0  0  0  0  # atno 17394 bound_to 11000
  140.2064  134.8860  157.3226 LP  0  0  0  0  0  0  0  0  0  0  0  0  # atno 17395 bound_to 11000

$$$$
