AV-unprocessed.smi:3202|AV-procd|sdf|12245|dock7
  -GOLD-   2272018 83D 1   1.00000     0.00000
 Structure written by MMmdl.
 43 44  0  0  0  0  0  0  0  0  2 V2000
  152.5246  131.4675  156.7299 C   0  0  0  0  0  0  0  0  0  0  0  0
  151.2748  132.2851  156.5859 C   0  0  0  0  0  0  0  0  0  0  0  0
  150.7115  132.8320  155.3958 C   0  0  0  0  0  0  0  0  0  0  0  0
  149.5866  133.4814  155.8219 C   0  0  0  0  0  0  0  0  0  0  0  0
  148.5520  134.2591  155.0737 C   0  0  0  0  0  0  0  0  0  0  0  0
  147.8859  133.4780  153.9250 C   0  0  2  0  0  0  0  0  0  0  0  0
  148.9090  132.9062  152.9300 C   0  0  0  0  0  0  0  0  0  0  0  0
  146.9380  134.3607  153.2094 N   0  3  0  0  0  0  0  0  0  0  0  0
  145.9163  133.6712  152.3887 C   0  0  2  0  0  0  0  0  0  0  0  0
  146.4953  132.9970  151.1375 C   0  0  0  0  0  0  0  0  0  0  0  0
  145.3326  132.9230  150.1398 C   0  0  0  0  0  0  0  0  0  0  0  0
  144.1924  133.7602  150.7393 C   0  0  0  0  0  0  0  0  0  0  0  0
  144.8144  134.6141  151.8598 C   0  0  0  0  0  0  0  0  0  0  0  0
  143.7769  134.9468  152.9486 C   0  0  0  0  0  0  0  0  0  0  0  0
  145.3799  135.9259  151.2665 C   0  0  0  0  0  0  0  0  0  0  0  0
  149.5302  133.2964  157.1845 N   0  0  0  0  0  0  0  0  0  0  0  0
  150.5577  132.5706  157.6621 N   0  0  0  0  0  0  0  0  0  0  0  0
  148.8089  133.6551  157.7939 H   0  0  0  0  0  0  0  0  0  0  0  0
  152.9618  131.2415  155.7572 H   0  0  0  0  0  0  0  0  0  0  0  0
  152.3200  130.5198  157.2288 H   0  0  0  0  0  0  0  0  0  0  0  0
  153.2752  131.9983  157.3160 H   0  0  0  0  0  0  0  0  0  0  0  0
  151.0801  132.7582  154.3833 H   0  0  0  0  0  0  0  0  0  0  0  0
  148.9985  135.1734  154.6796 H   0  0  0  0  0  0  0  0  0  0  0  0
  147.7856  134.5832  155.7790 H   0  0  0  0  0  0  0  0  0  0  0  0
  147.3403  132.6392  154.3604 H   0  0  0  0  0  0  0  0  0  0  0  0
  149.5882  132.2037  153.4137 H   0  0  0  0  0  0  0  0  0  0  0  0
  149.5123  133.6966  152.4822 H   0  0  0  0  0  0  0  0  0  0  0  0
  148.4121  132.3688  152.1217 H   0  0  0  0  0  0  0  0  0  0  0  0
  146.4542  134.9152  153.9011 H   0  0  0  0  0  0  0  0  0  0  0  0
  145.4427  132.9035  153.0039 H   0  0  0  0  0  0  0  0  0  0  0  0
  147.2981  133.6024  150.7138 H   0  0  0  0  0  0  0  0  0  0  0  0
  146.9116  132.0131  151.3556 H   0  0  0  0  0  0  0  0  0  0  0  0
  145.6407  133.3220  149.1726 H   0  0  0  0  0  0  0  0  0  0  0  0
  145.0100  131.8938  149.9789 H   0  0  0  0  0  0  0  0  0  0  0  0
  143.6806  134.3591  149.9848 H   0  0  0  0  0  0  0  0  0  0  0  0
  143.4477  133.0814  151.1581 H   0  0  0  0  0  0  0  0  0  0  0  0
  142.9609  135.5470  152.5445 H   0  0  0  0  0  0  0  0  0  0  0  0
  144.2274  135.5109  153.7659 H   0  0  0  0  0  0  0  0  0  0  0  0
  143.3382  134.0448  153.3765 H   0  0  0  0  0  0  0  0  0  0  0  0
  144.5885  136.5204  150.8086 H   0  0  0  0  0  0  0  0  0  0  0  0
  146.1291  135.7397  150.4969 H   0  0  0  0  0  0  0  0  0  0  0  0
  145.8422  136.5489  152.0326 H   0  0  0  0  0  0  0  0  0  0  0  0
  147.4605  134.9855  152.6120 H   0  0  0  0  0  0  0  0  0  0  0  0
  1 19  1  0  0  0  0
  1 20  1  0  0  0  0
  1 21  1  0  0  0  0
  1  2  1  0  0  0  0
  2 17  2  0  0  0  0
  2  3  1  0  0  0  0
  3  4  2  0  0  0  0
  3 22  1  0  0  0  0
  4 16  1  0  0  0  0
  4  5  1  0  0  0  0
  5  6  1  0  0  0  0
  5 23  1  0  0  0  0
  5 24  1  0  0  0  0
  6  7  1  0  0  0  0
  6  8  1  0  0  0  0
  6 25  1  0  0  0  0
  7 26  1  0  0  0  0
  7 27  1  0  0  0  0
  7 28  1  0  0  0  0
  8  9  1  0  0  0  0
  8 29  1  0  0  0  0
  8 43  1  0  0  0  0
  9 13  1  0  0  0  0
  9 10  1  0  0  0  0
  9 30  1  0  0  0  0
 10 11  1  0  0  0  0
 10 31  1  0  0  0  0
 10 32  1  0  0  0  0
 11 12  1  0  0  0  0
 11 33  1  0  0  0  0
 11 34  1  0  0  0  0
 12 13  1  0  0  0  0
 12 35  1  0  0  0  0
 12 36  1  0  0  0  0
 13 14  1  0  0  0  0
 13 15  1  0  0  0  0
 14 37  1  0  0  0  0
 14 38  1  0  0  0  0
 14 39  1  0  0  0  0
 15 40  1  0  0  0  0
 15 41  1  0  0  0  0
 15 42  1  0  0  0  0
 16 17  1  0  0  0  0
 16 18  1  0  0  0  0
M  CHG  1   8   1
M  END
> <s_m_source_file>
AV-unprocessed.smi

> <i_m_source_file_index>
3202

> <i_lp_mmshare_version>
43012

> <i_f3d_flags>
0

> <s_epik_input>
W0NIM11jMVtjSF1jKG5bbkhdMSlbQ0gyXVtDQEhdKFtDSDNdKVtOSF1bQ0BASF0oQzIoW0NIM10pW0NIM10pW0NIMl1bQ0gyXVtDSDJdMg==

> <s_epik_cmdline>
J2VwaWtfcHl0aG9uJywgJy1waCcsICc3LjAnLCAnLXRuJywgJzgnLCAnLW1hJywgJzIwMCcsICctbWV0YWxfYmluZGluZycsICctaW1hZScsICc8aW5maWxlLm1hZT4nLCAnLW9tYWUnLCAnPG91dGZpbGUubWFlPic=

> <r_lp_tautomer_probability>
0.5

> <r_epik_Ionization_Penalty>
0.000449684

> <r_epik_Ionization_Penalty_Charging>
0.000404963

> <r_epik_Ionization_Penalty_Neutral>
4.47208e-05

> <r_epik_State_Penalty>
0.41068

> <r_epik_Charging_Adjusted_Penalty>
0.411085

> <i_epik_Tot_Q>
1

> <i_epik_Tot_abs_Q>
1

> <r_epik_Metal_State_Penalty>
0.410687

> <b_epik_Metal_Only>
0

> <s_lp_Force_Field>
OPLS_2005

> <r_lp_Energy>
32.3092

> <b_lp_Chiralities_Consistent>
1

> <s_lp_Variant>
AV-unprocessed.smi:3202-5

> <Gold.Version>
5.8.1

> <Gold.Id.Protein>
6NUR|6NUR_protein|mol2

> <Gold.PLP.Fitness>
38.7628

> <Gold.PLP.PLP>
-30.1965

> <Gold.PLP.part.hbond>
-2.0000

> <Gold.PLP.part.metal>
0.0000

> <Gold.PLP.part.buried>
-4.9056

> <Gold.PLP.part.nonpolar>
-23.5594

> <Gold.PLP.part.repulsive>
0.0827

> <Gold.PLP.ligand.clash>
0.0000

> <Gold.PLP.ligand.torsion>
0.2220

> <Gold.PLP.Chemscore.Hbond>
3.0000

> <Gold.PLP.Chemscore.CHOScore>
0.0000

> <Gold.PLP.Chemscore.Metal>
0.0000

> <Gold.Chemscore.Hbonds>
donor molecule, donor type, donor heavy atom, donor atom, acceptor molecule, acceptor atom, score
      L1  H     8    43       P1  7948  1.89
      P1  H  6896  6908       L1    17  1.00

> <Gold.PLP.Chemscore.Internal.Correction>
0.0102

> <Gold.Rescore>
     Score         DG    S(hbond)    S(metal)    S(lipo)     H(rot)  DE(clash)    DE(int)     intcor
     16.74     -17.10       1.89        0.00      77.15       1.46       0.03       0.34       ----

> <Gold.Chemscore.Fitness>
16.7356

> <Gold.Chemscore.DG>
-17.0988

> <Gold.Chemscore.ZeroCoef>
-5.4800

> <Gold.Chemscore.Hbond>
1.8950

> <Gold.Chemscore.Metal>
0.0000

> <Gold.Chemscore.Lipo>
77.1459

> <Gold.Chemscore.Internal_Hbond>
0.0000

> <Gold.Chemscore.DEClash>
0.0263

> <Gold.Chemscore.DEInternal>
0.3369

> <Gold.Chemscore.Rot>
1.4596

> <Gold.Chemscore.Internal.Correction>
   9.000000E+99

> <Gold.Chemscore.Hbonds>
donor molecule, donor type, donor heavy atom, donor atom, acceptor molecule, acceptor atom, score
      L1  H     8    43       P1  7948  0.89
      P1  H  6896  6908       L1    17  0.65

> <Gold.Chemscore.Hbond.Weighted>
-6.3293

> <Gold.Chemscore.Metal.Weighted>
-0.0000

> <Gold.Chemscore.Lipo.Weighted>
-9.0261

> <Gold.Chemscore.Internal_Hbond.Weighted>
0.0000

> <Gold.Chemscore.DEClash.Weighted>
0.0263

> <Gold.Chemscore.DEInternal.Weighted>
0.3369

> <Gold.Chemscore.Rot.Weighted>
3.7365

> <Gold.Chemscore.Internal.Correction.Weighted>
   9.000000E+99

> <Gold.Protein.RotatedTorsions>
[ 6907 6896 6895 6894 ] final   88.48 input  -60.11 | X-H torsion
[ 7974 7965 7964 7962 ] final   63.04 input  175.53 | X-H torsion
[ 8008 7997 7996 7995 ] final   81.68 input   59.86 | X-H torsion
[ 10167 10162 10161 10158 ] final  -55.24 input  -65.29 | X-H torsion
[ 10718 10713 10712 10709 ] final  -63.06 input   66.30 | X-H torsion
[ 10763 10752 10751 10750 ] final  153.38 input  -60.55 | X-H torsion
[ 11005 11000 10999 10996 ] final  -65.15 input  -57.11 | X-H torsion

> <Gold.Protein.ActiveResidues>
 VAL166  LYS551  ARG553  GLY616  TRP617  ASP618  TYR619  PRO620  LYS621  CYS622 
 ASP623  PHE694  ASN695  SER759  ASP760  ASP761  ALA762  ILE779  LEU786  VAL792 
 PHE793  MET794  SER795  GLU796  ALA797  LYS798  CYS799  TRP800  GLU811  SER814 

> <Gold.Protein.RotatedAtoms>
  152.5425  134.2114  159.8751 H   0  0  0  0  0  0  0  0  0  0  0  0  # atno 6907 bound_to 6896
  151.2097  133.4556  159.2605 H   0  0  0  0  0  0  0  0  0  0  0  0  # atno 6908 bound_to 6896
  151.0909  134.9928  159.8458 H   0  0  0  0  0  0  0  0  0  0  0  0  # atno 6909 bound_to 6896
  145.8664  139.3349  143.0788 H   0  0  0  0  0  0  0  0  0  0  0  0  # atno 7974 bound_to 7965
  155.9004  140.3433  155.6022 H   0  0  0  0  0  0  0  0  0  0  0  0  # atno 8008 bound_to 7997
  155.7507  140.0819  157.2221 H   0  0  0  0  0  0  0  0  0  0  0  0  # atno 8009 bound_to 7997
  154.4043  140.1554  156.2707 H   0  0  0  0  0  0  0  0  0  0  0  0  # atno 8010 bound_to 7997
  140.6386  143.2495  151.5051 H   0  0  0  0  0  0  0  0  0  0  0  0  # atno 10167 bound_to 10162
  156.0815  130.4216  150.1223 H   0  0  0  0  0  0  0  0  0  0  0  0  # atno 10718 bound_to 10713
  154.1352  135.2824  155.3175 H   0  0  0  0  0  0  0  0  0  0  0  0  # atno 10763 bound_to 10752
  154.6326  135.5430  153.7701 H   0  0  0  0  0  0  0  0  0  0  0  0  # atno 10764 bound_to 10752
  153.0268  135.6466  154.1501 H   0  0  0  0  0  0  0  0  0  0  0  0  # atno 10765 bound_to 10752
  141.1446  133.6677  156.5942 H   0  0  0  0  0  0  0  0  0  0  0  0  # atno 11005 bound_to 11000
  145.9188  140.9129  143.0416 LP  0  0  0  0  0  0  0  0  0  0  0  0  # atno 17320 bound_to 7965
  144.6726  140.1260  143.7447 LP  0  0  0  0  0  0  0  0  0  0  0  0  # atno 17321 bound_to 7965
  139.5595  144.2191  152.1668 LP  0  0  0  0  0  0  0  0  0  0  0  0  # atno 17342 bound_to 10162
  140.1455  144.5163  150.6718 LP  0  0  0  0  0  0  0  0  0  0  0  0  # atno 17343 bound_to 10162
  156.9253  130.9696  151.3542 LP  0  0  0  0  0  0  0  0  0  0  0  0  # atno 17370 bound_to 10713
  157.5934  130.8460  149.8692 LP  0  0  0  0  0  0  0  0  0  0  0  0  # atno 17371 bound_to 10713
  140.3739  134.7582  157.4617 LP  0  0  0  0  0  0  0  0  0  0  0  0  # atno 17394 bound_to 11000
  140.0689  134.5890  155.8664 LP  0  0  0  0  0  0  0  0  0  0  0  0  # atno 17395 bound_to 11000

$$$$
