AV-unprocessed.smi:1047|AV-procd|sdf|4576|dock8
  -GOLD-   22720 3 43D 1   1.00000     0.00000
 Structure written by MMmdl.
 56 58  0  0  0  0  0  0  0  0  2 V2000
  145.5908  134.0949  151.0000 C   0  0  0  0  0  0  0  0  0  0  0  0
  144.8779  135.3229  150.4164 C   0  0  0  0  0  0  0  0  0  0  0  0
  144.7584  136.4308  151.3968 N   0  3  1  0  0  0  0  0  0  0  0  0
  143.8843  136.1095  152.5519 C   0  0  0  0  0  0  0  0  0  0  0  0
  143.7709  137.3202  153.4934 C   0  0  0  0  0  0  0  0  0  0  0  0
  145.0652  137.7185  153.9279 O   0  0  0  0  0  0  0  0  0  0  0  0
  145.9065  138.0957  152.8425 C   0  0  1  0  0  0  0  0  0  0  0  0
  147.2322  138.6400  153.4011 C   0  0  0  0  0  0  0  0  0  0  0  0
  147.6222  139.8955  152.7645 N   0  0  0  0  0  0  0  0  0  0  0  0
  148.0705  140.9086  153.7150 C   0  0  0  0  0  0  0  0  0  0  0  0
  149.2357  140.3880  154.5790 C   0  0  1  0  0  0  0  0  0  0  0  0
  150.1447  139.7094  153.7378 O   0  0  0  0  0  0  0  0  0  0  0  0
  150.0205  141.5047  155.2951 C   0  0  0  0  0  0  0  0  0  0  0  0
  150.7825  141.0135  156.4291 N   0  0  0  0  0  0  0  0  0  0  0  0
  151.1919  139.7480  156.6401 C   0  0  0  0  0  0  0  0  0  0  0  0
  151.8780  139.5076  157.7534 N   0  0  0  0  0  0  0  0  0  0  0  0
  151.9239  140.7652  158.3300 C   0  0  0  0  0  0  0  0  0  0  0  0
  152.5108  141.1983  159.5391 C   0  0  0  0  0  0  0  0  0  0  0  0
  152.4325  142.5514  159.9390 C   0  0  0  0  0  0  0  0  0  0  0  0
  153.0780  142.9730  161.2470 C   0  0  0  0  0  0  0  0  0  0  0  0
  151.7583  143.4956  159.1236 C   0  0  0  0  0  0  0  0  0  0  0  0
  151.6626  144.9551  159.5317 C   0  0  0  0  0  0  0  0  0  0  0  0
  151.1651  143.0794  157.9133 C   0  0  0  0  0  0  0  0  0  0  0  0
  151.2502  141.7303  157.5256 C   0  0  0  0  0  0  0  0  0  0  0  0
  146.0788  136.9106  151.8690 C   0  0  0  0  0  0  0  0  0  0  0  0
  145.5796  133.2707  150.2865 H   0  0  0  0  0  0  0  0  0  0  0  0
  145.0993  133.7491  151.9097 H   0  0  0  0  0  0  0  0  0  0  0  0
  146.6341  134.3010  151.2367 H   0  0  0  0  0  0  0  0  0  0  0  0
  145.3859  135.6715  149.5161 H   0  0  0  0  0  0  0  0  0  0  0  0
  143.8790  135.0123  150.1073 H   0  0  0  0  0  0  0  0  0  0  0  0
  142.8889  135.8277  152.2111 H   0  0  0  0  0  0  0  0  0  0  0  0
  144.2916  135.2540  153.0935 H   0  0  0  0  0  0  0  0  0  0  0  0
  143.2682  138.1522  152.9979 H   0  0  0  0  0  0  0  0  0  0  0  0
  143.1712  137.0615  154.3661 H   0  0  0  0  0  0  0  0  0  0  0  0
  145.4219  138.9156  152.3089 H   0  0  0  0  0  0  0  0  0  0  0  0
  147.1380  138.7861  154.4779 H   0  0  0  0  0  0  0  0  0  0  0  0
  148.0137  137.8928  153.2584 H   0  0  0  0  0  0  0  0  0  0  0  0
  148.3565  139.7182  152.0861 H   0  0  0  0  0  0  0  0  0  0  0  0
  148.3558  141.8272  153.2003 H   0  0  0  0  0  0  0  0  0  0  0  0
  147.2294  141.1681  154.3574 H   0  0  0  0  0  0  0  0  0  0  0  0
  148.8628  139.6858  155.3261 H   0  0  0  0  0  0  0  0  0  0  0  0
  149.7595  139.6394  152.8776 H   0  0  0  0  0  0  0  0  0  0  0  0
  150.7157  141.9810  154.6022 H   0  0  0  0  0  0  0  0  0  0  0  0
  149.3431  142.2866  155.6409 H   0  0  0  0  0  0  0  0  0  0  0  0
  150.9688  138.9577  155.9381 H   0  0  0  0  0  0  0  0  0  0  0  0
  153.0238  140.4787  160.1601 H   0  0  0  0  0  0  0  0  0  0  0  0
  153.8469  143.7249  161.0685 H   0  0  0  0  0  0  0  0  0  0  0  0
  153.5479  142.1273  161.7502 H   0  0  0  0  0  0  0  0  0  0  0  0
  152.3329  143.3926  161.9233 H   0  0  0  0  0  0  0  0  0  0  0  0
  151.1269  145.5425  158.7856 H   0  0  0  0  0  0  0  0  0  0  0  0
  152.6574  145.3868  159.6446 H   0  0  0  0  0  0  0  0  0  0  0  0
  151.1321  145.0531  160.4791 H   0  0  0  0  0  0  0  0  0  0  0  0
  150.6460  143.7880  157.2848 H   0  0  0  0  0  0  0  0  0  0  0  0
  146.6045  136.0858  152.3525 H   0  0  0  0  0  0  0  0  0  0  0  0
  146.6849  137.2220  151.0173 H   0  0  0  0  0  0  0  0  0  0  0  0
  144.3328  137.2055  150.9081 H   0  0  0  0  0  0  0  0  0  0  0  0
  1  2  1  0  0  0  0
  1 26  1  0  0  0  0
  1 27  1  0  0  0  0
  1 28  1  0  0  0  0
  2  3  1  0  0  0  0
  2 29  1  0  0  0  0
  2 30  1  0  0  0  0
  3 25  1  0  0  0  0
  3  4  1  0  0  0  0
  3 56  1  0  0  0  0
  4  5  1  0  0  0  0
  4 31  1  0  0  0  0
  4 32  1  0  0  0  0
  5  6  1  0  0  0  0
  5 33  1  0  0  0  0
  5 34  1  0  0  0  0
  6  7  1  0  0  0  0
  7  8  1  0  0  0  0
  7 25  1  0  0  0  0
  7 35  1  0  0  0  0
  8  9  1  0  0  0  0
  8 36  1  0  0  0  0
  8 37  1  0  0  0  0
  9 10  1  0  0  0  0
  9 38  1  0  0  0  0
 10 11  1  0  0  0  0
 10 39  1  0  0  0  0
 10 40  1  0  0  0  0
 11 12  1  0  0  0  0
 11 13  1  0  0  0  0
 11 41  1  0  0  0  0
 12 42  1  0  0  0  0
 13 14  1  0  0  0  0
 13 43  1  0  0  0  0
 13 44  1  0  0  0  0
 14 24  1  0  0  0  0
 14 15  1  0  0  0  0
 15 16  2  0  0  0  0
 15 45  1  0  0  0  0
 16 17  1  0  0  0  0
 17 24  2  0  0  0  0
 17 18  1  0  0  0  0
 18 19  2  0  0  0  0
 18 46  1  0  0  0  0
 19 20  1  0  0  0  0
 19 21  1  0  0  0  0
 20 47  1  0  0  0  0
 20 48  1  0  0  0  0
 20 49  1  0  0  0  0
 21 22  1  0  0  0  0
 21 23  2  0  0  0  0
 22 50  1  0  0  0  0
 22 51  1  0  0  0  0
 22 52  1  0  0  0  0
 23 24  1  0  0  0  0
 23 53  1  0  0  0  0
 25 54  1  0  0  0  0
 25 55  1  0  0  0  0
M  CHG  1   3   1
M  END
> <s_m_source_file>
AV-unprocessed.smi

> <i_m_source_file_index>
1047

> <i_lp_mmshare_version>
43012

> <i_f3d_flags>
0

> <s_epik_input>
W0NIM11bQ0gyXU4xW0NIMl1bQ0gyXU9bQ0BIXShbQ0gyXTEpW0NIMl1bTkhdW0NIMl1bQ0BIXShbT0hdKVtDSDJdbihbY0hdbjIpYyhjMjMpW2NIXWMoW0NIM10pYyhbY0hdMylbQ0gzXQ==

> <s_epik_cmdline>
J2VwaWtfcHl0aG9uJywgJy1waCcsICc3LjAnLCAnLXRuJywgJzgnLCAnLW1hJywgJzIwMCcsICctbWV0YWxfYmluZGluZycsICctaW1hZScsICc8aW5maWxlLm1hZT4nLCAnLW9tYWUnLCAnPG91dGZpbGUubWFlPic=

> <r_epik_Ionization_Penalty>
1.19246

> <r_epik_Ionization_Penalty_Charging>
0.210041

> <r_epik_Ionization_Penalty_Neutral>
0.982415

> <r_epik_State_Penalty>
1.57595

> <r_epik_Charging_Adjusted_Penalty>
1.78599

> <i_epik_Tot_Q>
1

> <i_epik_Tot_abs_Q>
1

> <r_epik_Metal_State_Penalty>
1.46172

> <b_epik_Metal_Only>
0

> <s_lp_Force_Field>
OPLS_2005

> <r_lp_Energy>
33.3203

> <b_lp_Chiralities_Consistent>
1

> <s_lp_Variant>
AV-unprocessed.smi:1047-17

> <Gold.Version>
5.8.1

> <Gold.Id.Protein>
6NUR|6NUR_protein|mol2

> <Gold.PLP.Fitness>
60.9362

> <Gold.PLP.PLP>
-52.3700

> <Gold.PLP.part.hbond>
-4.0000

> <Gold.PLP.part.metal>
0.0000

> <Gold.PLP.part.buried>
-4.2660

> <Gold.PLP.part.nonpolar>
-44.1951

> <Gold.PLP.part.repulsive>
0.1591

> <Gold.PLP.ligand.clash>
0.0000

> <Gold.PLP.ligand.torsion>
1.6186

> <Gold.PLP.Chemscore.Hbond>
3.8960

> <Gold.PLP.Chemscore.CHOScore>
0.0000

> <Gold.PLP.Chemscore.Metal>
0.0000

> <Gold.Chemscore.Hbonds>
donor molecule, donor type, donor heavy atom, donor atom, acceptor molecule, acceptor atom, score
      L1  H     3    56       P1 10171  1.00
      L1  H     9    38       P1  7957  1.00
      L1  H    12    42       P1  7957  1.00
      P1  H  7989  7998       L1    12  0.90

> <Gold.PLP.Chemscore.Internal.Correction>
0.1153

> <Gold.Rescore>
     Score         DG    S(hbond)    S(metal)    S(lipo)     H(rot)  DE(clash)    DE(int)     intcor
     24.35     -26.35       3.40        0.00     138.81       2.62       0.39       1.61       ----

> <Gold.Chemscore.Fitness>
24.3543

> <Gold.Chemscore.DG>
-26.3524

> <Gold.Chemscore.ZeroCoef>
-5.4800

> <Gold.Chemscore.Hbond>
3.3955

> <Gold.Chemscore.Metal>
0.0000

> <Gold.Chemscore.Lipo>
138.8134

> <Gold.Chemscore.Internal_Hbond>
0.0000

> <Gold.Chemscore.DEClash>
0.3854

> <Gold.Chemscore.DEInternal>
1.6127

> <Gold.Chemscore.Rot>
2.6209

> <Gold.Chemscore.Internal.Correction>
   9.000000E+99

> <Gold.Chemscore.Hbonds>
donor molecule, donor type, donor heavy atom, donor atom, acceptor molecule, acceptor atom, score
      L1  H     3    56       P1 10171  1.00
      L1  H     9    38       P1  7957  0.97
      L1  H    12    42       P1  7957  0.98
      P1  H  7989  7998       L1    12  0.21

> <Gold.Chemscore.Hbond.Weighted>
-11.3408

> <Gold.Chemscore.Metal.Weighted>
-0.0000

> <Gold.Chemscore.Lipo.Weighted>
-16.2412

> <Gold.Chemscore.Internal_Hbond.Weighted>
0.0000

> <Gold.Chemscore.DEClash.Weighted>
0.3854

> <Gold.Chemscore.DEInternal.Weighted>
1.6127

> <Gold.Chemscore.Rot.Weighted>
6.7096

> <Gold.Chemscore.Internal.Correction.Weighted>
   9.000000E+99

> <Gold.Protein.RotatedTorsions>
[ 6907 6896 6895 6894 ] final -160.04 input  -60.11 | X-H torsion
[ 7974 7965 7964 7962 ] final -119.85 input  175.53 | X-H torsion
[ 8008 7997 7996 7995 ] final -174.19 input   59.86 | X-H torsion
[ 10167 10162 10161 10158 ] final  146.16 input  -65.29 | X-H torsion
[ 10718 10713 10712 10709 ] final -100.90 input   66.30 | X-H torsion
[ 10763 10752 10751 10750 ] final -179.31 input  -60.55 | X-H torsion
[ 11005 11000 10999 10996 ] final   10.76 input  -57.11 | X-H torsion

> <Gold.Protein.ActiveResidues>
 VAL166  LYS551  ARG553  GLY616  TRP617  ASP618  TYR619  PRO620  LYS621  CYS622 
 ASP623  PHE694  ASN695  SER759  ASP760  ASP761  ALA762  ILE779  LEU786  VAL792 
 PHE793  MET794  SER795  GLU796  ALA797  LYS798  CYS799  TRP800  GLU811  SER814 

> <Gold.Protein.RotatedAtoms>
  151.3428  133.3955  159.2672 H   0  0  0  0  0  0  0  0  0  0  0  0  # atno 6907 bound_to 6896
  150.9864  134.9209  159.7884 H   0  0  0  0  0  0  0  0  0  0  0  0  # atno 6908 bound_to 6896
  152.5233  134.3393  159.9263 H   0  0  0  0  0  0  0  0  0  0  0  0  # atno 6909 bound_to 6896
  145.0580  140.8268  143.4169 H   0  0  0  0  0  0  0  0  0  0  0  0  # atno 7974 bound_to 7965
  155.9670  140.1155  157.0846 H   0  0  0  0  0  0  0  0  0  0  0  0  # atno 8008 bound_to 7997
  154.4146  140.1170  156.5323 H   0  0  0  0  0  0  0  0  0  0  0  0  # atno 8009 bound_to 7997
  155.6646  140.3473  155.4797 H   0  0  0  0  0  0  0  0  0  0  0  0  # atno 8010 bound_to 7997
  139.4912  144.5850  151.6797 H   0  0  0  0  0  0  0  0  0  0  0  0  # atno 10167 bound_to 10162
  156.0177  130.5349  150.6884 H   0  0  0  0  0  0  0  0  0  0  0  0  # atno 10718 bound_to 10713
  154.5367  135.2803  155.1132 H   0  0  0  0  0  0  0  0  0  0  0  0  # atno 10763 bound_to 10752
  154.2631  135.6318  153.5286 H   0  0  0  0  0  0  0  0  0  0  0  0  # atno 10764 bound_to 10752
  152.9969  135.5610  154.5895 H   0  0  0  0  0  0  0  0  0  0  0  0  # atno 10765 bound_to 10752
  140.5108  134.0654  155.7818 H   0  0  0  0  0  0  0  0  0  0  0  0  # atno 11005 bound_to 11000
  145.1445  139.2552  143.5473 LP  0  0  0  0  0  0  0  0  0  0  0  0  # atno 17320 bound_to 7965
  146.3522  140.1130  142.8603 LP  0  0  0  0  0  0  0  0  0  0  0  0  # atno 17321 bound_to 7965
  140.5464  144.0496  150.6109 LP  0  0  0  0  0  0  0  0  0  0  0  0  # atno 17342 bound_to 10162
  140.3536  143.2949  152.0460 LP  0  0  0  0  0  0  0  0  0  0  0  0  # atno 17343 bound_to 10162
  157.4571  131.0879  151.0785 LP  0  0  0  0  0  0  0  0  0  0  0  0  # atno 17370 bound_to 10713
  157.1283  130.6091  149.5523 LP  0  0  0  0  0  0  0  0  0  0  0  0  # atno 17371 bound_to 10713
  141.1386  133.9177  157.2377 LP  0  0  0  0  0  0  0  0  0  0  0  0  # atno 17394 bound_to 11000
  139.9660  135.0142  156.9387 LP  0  0  0  0  0  0  0  0  0  0  0  0  # atno 17395 bound_to 11000

$$$$
