AV-unprocessed.smi:1669|AV-procd|sdf|6685|dock4
  -GOLD-   22720 7403D 1   1.00000     0.00000
 Structure written by MMmdl.
 48 50  0  0  0  0  0  0  0  0  2 V2000
  148.1891  135.9075  155.1891 C   0  0  0  0  0  0  0  0  0  0  0  0
  147.7726  137.0220  154.3076 N   0  3  1  0  0  0  0  0  0  0  0  0
  146.3178  136.9862  154.0168 C   0  0  0  0  0  0  0  0  0  0  0  0
  146.0027  136.1063  152.8190 C   0  0  0  0  0  0  0  0  0  0  0  0
  146.3035  134.7284  152.8595 C   0  0  0  0  0  0  0  0  0  0  0  0
  146.0286  133.9104  151.7464 C   0  0  0  0  0  0  0  0  0  0  0  0
  145.4476  134.4658  150.5903 C   0  0  0  0  0  0  0  0  0  0  0  0
  145.1404  135.8393  150.5480 C   0  0  0  0  0  0  0  0  0  0  0  0
  145.4163  136.6584  151.6601 C   0  0  0  0  0  0  0  0  0  0  0  0
  148.2546  138.3441  154.7877 C   0  0  0  0  0  0  0  0  0  0  0  0
  149.7114  138.6079  154.3656 C   0  0  1  0  0  0  0  0  0  0  0  0
  149.8286  138.3565  152.9780 O   0  0  0  0  0  0  0  0  0  0  0  0
  150.1405  140.0578  154.6643 C   0  0  0  0  0  0  0  0  0  0  0  0
  151.0463  140.1470  155.8022 N   0  0  0  0  0  0  0  0  0  0  0  0
  152.2036  139.4713  156.0196 C   0  0  0  0  0  0  0  0  0  0  0  0
  152.7473  138.4751  155.0416 C   0  0  0  0  0  0  0  0  0  0  0  0
  154.0224  137.9944  155.4087 O   0  0  0  0  0  0  0  0  0  0  0  0
  152.8309  139.7500  157.1627 N   0  0  0  0  0  0  0  0  0  0  0  0
  152.0086  140.6982  157.7390 C   0  0  0  0  0  0  0  0  0  0  0  0
  152.1234  141.3911  158.9653 C   0  0  0  0  0  0  0  0  0  0  0  0
  151.1432  142.3299  159.3486 C   0  0  0  0  0  0  0  0  0  0  0  0
  150.0366  142.5882  158.5139 C   0  0  0  0  0  0  0  0  0  0  0  0
  149.9025  141.9078  157.2885 C   0  0  0  0  0  0  0  0  0  0  0  0
  150.8834  140.9715  156.9110 C   0  0  0  0  0  0  0  0  0  0  0  0
  147.7080  135.9815  156.1652 H   0  0  0  0  0  0  0  0  0  0  0  0
  149.2684  135.9048  155.3405 H   0  0  0  0  0  0  0  0  0  0  0  0
  147.9194  134.9471  154.7488 H   0  0  0  0  0  0  0  0  0  0  0  0
  145.7787  136.5783  154.8733 H   0  0  0  0  0  0  0  0  0  0  0  0
  145.9413  137.9989  153.8644 H   0  0  0  0  0  0  0  0  0  0  0  0
  146.7518  134.2958  153.7421 H   0  0  0  0  0  0  0  0  0  0  0  0
  146.2641  132.8568  151.7792 H   0  0  0  0  0  0  0  0  0  0  0  0
  145.2367  133.8387  149.7367 H   0  0  0  0  0  0  0  0  0  0  0  0
  144.6939  136.2647  149.6613 H   0  0  0  0  0  0  0  0  0  0  0  0
  145.1800  137.7115  151.6176 H   0  0  0  0  0  0  0  0  0  0  0  0
  147.6346  139.1510  154.3970 H   0  0  0  0  0  0  0  0  0  0  0  0
  148.1531  138.3946  155.8730 H   0  0  0  0  0  0  0  0  0  0  0  0
  150.3825  137.9268  154.8892 H   0  0  0  0  0  0  0  0  0  0  0  0
  149.9401  139.1826  152.5313 H   0  0  0  0  0  0  0  0  0  0  0  0
  150.6052  140.5085  153.7876 H   0  0  0  0  0  0  0  0  0  0  0  0
  149.2629  140.6668  154.8844 H   0  0  0  0  0  0  0  0  0  0  0  0
  152.0638  137.6280  154.9729 H   0  0  0  0  0  0  0  0  0  0  0  0
  152.7958  138.9169  154.0465 H   0  0  0  0  0  0  0  0  0  0  0  0
  154.6404  138.2392  154.7375 H   0  0  0  0  0  0  0  0  0  0  0  0
  152.9675  141.2006  159.6116 H   0  0  0  0  0  0  0  0  0  0  0  0
  151.2412  142.8544  160.2877 H   0  0  0  0  0  0  0  0  0  0  0  0
  149.2909  143.3092  158.8154 H   0  0  0  0  0  0  0  0  0  0  0  0
  149.0560  142.1042  156.6476 H   0  0  0  0  0  0  0  0  0  0  0  0
  148.2262  136.8689  153.4177 H   0  0  0  0  0  0  0  0  0  0  0  0
  1  2  1  0  0  0  0
  1 25  1  0  0  0  0
  1 26  1  0  0  0  0
  1 27  1  0  0  0  0
  2  3  1  0  0  0  0
  2 10  1  0  0  0  0
  2 48  1  0  0  0  0
  3  4  1  0  0  0  0
  3 28  1  0  0  0  0
  3 29  1  0  0  0  0
  4  9  1  0  0  0  0
  4  5  2  0  0  0  0
  5  6  1  0  0  0  0
  5 30  1  0  0  0  0
  6  7  2  0  0  0  0
  6 31  1  0  0  0  0
  7  8  1  0  0  0  0
  7 32  1  0  0  0  0
  8  9  2  0  0  0  0
  8 33  1  0  0  0  0
  9 34  1  0  0  0  0
 10 11  1  0  0  0  0
 10 35  1  0  0  0  0
 10 36  1  0  0  0  0
 11 12  1  0  0  0  0
 11 13  1  0  0  0  0
 11 37  1  0  0  0  0
 12 38  1  0  0  0  0
 13 14  1  0  0  0  0
 13 39  1  0  0  0  0
 13 40  1  0  0  0  0
 14 24  1  0  0  0  0
 14 15  1  0  0  0  0
 15 16  1  0  0  0  0
 15 18  2  0  0  0  0
 16 17  1  0  0  0  0
 16 41  1  0  0  0  0
 16 42  1  0  0  0  0
 17 43  1  0  0  0  0
 18 19  1  0  0  0  0
 19 24  2  0  0  0  0
 19 20  1  0  0  0  0
 20 21  2  0  0  0  0
 20 44  1  0  0  0  0
 21 22  1  0  0  0  0
 21 45  1  0  0  0  0
 22 23  2  0  0  0  0
 22 46  1  0  0  0  0
 23 24  1  0  0  0  0
 23 47  1  0  0  0  0
M  CHG  1   2   1
M  END
> <s_m_source_file>
AV-unprocessed.smi

> <i_m_source_file_index>
1669

> <i_lp_mmshare_version>
43012

> <i_f3d_flags>
0

> <s_epik_input>
W2NIXTFbY0hdW2NIXVtjSF1bY0hdYzFbQ0gyXU4oW0NIM10pW0NIMl1bQ0BIXShbT0hdKVtDSDJdbihjKG4yKVtDSDJdW09IXSljKGMyMylbY0hdW2NIXVtjSF1bY0hdMw==

> <s_epik_cmdline>
J2VwaWtfcHl0aG9uJywgJy1waCcsICc3LjAnLCAnLXRuJywgJzgnLCAnLW1hJywgJzIwMCcsICctbWV0YWxfYmluZGluZycsICctaW1hZScsICc8aW5maWxlLm1hZT4nLCAnLW9tYWUnLCAnPG91dGZpbGUubWFlPic=

> <r_epik_Ionization_Penalty>
0.0949884

> <r_epik_Ionization_Penalty_Charging>
0.0475377

> <r_epik_Ionization_Penalty_Neutral>
0.0474507

> <r_epik_State_Penalty>
0.078247

> <r_epik_Charging_Adjusted_Penalty>
0.125785

> <i_epik_Tot_Q>
1

> <i_epik_Tot_abs_Q>
1

> <r_epik_Metal_State_Penalty>
0.0403451

> <b_epik_Metal_Only>
0

> <s_lp_Force_Field>
OPLS_2005

> <r_lp_Energy>
15.7652

> <b_lp_Chiralities_Consistent>
1

> <s_lp_Variant>
AV-unprocessed.smi:1669-3

> <Gold.Version>
5.8.1

> <Gold.Id.Protein>
6NUR|6NUR_protein|mol2

> <Gold.PLP.Fitness>
50.0942

> <Gold.PLP.PLP>
-40.5411

> <Gold.PLP.part.hbond>
-6.3334

> <Gold.PLP.part.metal>
0.0000

> <Gold.PLP.part.buried>
1.1127

> <Gold.PLP.part.nonpolar>
-34.1038

> <Gold.PLP.part.repulsive>
0.0000

> <Gold.PLP.ligand.clash>
0.0000

> <Gold.PLP.ligand.torsion>
1.5142

> <Gold.PLP.Chemscore.Hbond>
4.0000

> <Gold.PLP.Chemscore.CHOScore>
0.0000

> <Gold.PLP.Chemscore.Metal>
0.0000

> <Gold.Chemscore.Hbonds>
donor molecule, donor type, donor heavy atom, donor atom, acceptor molecule, acceptor atom, score
      L1  H     2    48       P1  7948  2.00
      L1  H    12    38       P1  7957  0.90
      P1  H  7997  8010       L1    18  1.00

> <Gold.PLP.Chemscore.Internal.Correction>
0.5815

> <Gold.Rescore>
     Score         DG    S(hbond)    S(metal)    S(lipo)     H(rot)  DE(clash)    DE(int)     intcor
     15.97     -18.00       2.81        0.00      96.25       3.17       0.44       1.58       ----

> <Gold.Chemscore.Fitness>
15.9737

> <Gold.Chemscore.DG>
-17.9997

> <Gold.Chemscore.ZeroCoef>
-5.4800

> <Gold.Chemscore.Hbond>
2.8087

> <Gold.Chemscore.Metal>
0.0000

> <Gold.Chemscore.Lipo>
96.2535

> <Gold.Chemscore.Internal_Hbond>
0.0000

> <Gold.Chemscore.DEClash>
0.4427

> <Gold.Chemscore.DEInternal>
1.5833

> <Gold.Chemscore.Rot>
3.1731

> <Gold.Chemscore.Internal.Correction>
   9.000000E+99

> <Gold.Chemscore.Hbonds>
donor molecule, donor type, donor heavy atom, donor atom, acceptor molecule, acceptor atom, score
      L1  H     2    48       P1  7948  1.00
      L1  H    12    38       P1  7957  0.69
      P1  H  7997  8010       L1    18  0.39

> <Gold.Chemscore.Hbond.Weighted>
-9.3811

> <Gold.Chemscore.Metal.Weighted>
-0.0000

> <Gold.Chemscore.Lipo.Weighted>
-11.2617

> <Gold.Chemscore.Internal_Hbond.Weighted>
0.0000

> <Gold.Chemscore.DEClash.Weighted>
0.4427

> <Gold.Chemscore.DEInternal.Weighted>
1.5833

> <Gold.Chemscore.Rot.Weighted>
8.1230

> <Gold.Chemscore.Internal.Correction.Weighted>
   9.000000E+99

> <Gold.Protein.RotatedTorsions>
[ 6907 6896 6895 6894 ] final   94.31 input  -60.11 | X-H torsion
[ 7974 7965 7964 7962 ] final   90.15 input  175.53 | X-H torsion
[ 8008 7997 7996 7995 ] final   58.18 input   59.86 | X-H torsion
[ 10167 10162 10161 10158 ] final -106.06 input  -65.29 | X-H torsion
[ 10718 10713 10712 10709 ] final   78.64 input   66.30 | X-H torsion
[ 10763 10752 10751 10750 ] final   52.25 input  -60.55 | X-H torsion
[ 11005 11000 10999 10996 ] final   69.52 input  -57.11 | X-H torsion

> <Gold.Protein.ActiveResidues>
 VAL166  LYS551  ARG553  GLY616  TRP617  ASP618  TYR619  PRO620  LYS621  CYS622 
 ASP623  PHE694  ASN695  SER759  ASP760  ASP761  ALA762  ILE779  LEU786  VAL792 
 PHE793  MET794  SER795  GLU796  ALA797  LYS798  CYS799  TRP800  GLU811  SER814 

> <Gold.Protein.RotatedAtoms>
  152.5450  134.1214  159.8400 H   0  0  0  0  0  0  0  0  0  0  0  0  # atno 6907 bound_to 6896
  151.1269  133.5057  159.2607 H   0  0  0  0  0  0  0  0  0  0  0  0  # atno 6908 bound_to 6896
  151.1717  135.0331  159.8809 H   0  0  0  0  0  0  0  0  0  0  0  0  # atno 6909 bound_to 6896
  145.5228  139.2280  143.2662 H   0  0  0  0  0  0  0  0  0  0  0  0  # atno 7974 bound_to 7965
  155.5459  140.3485  155.4457 H   0  0  0  0  0  0  0  0  0  0  0  0  # atno 8008 bound_to 7997
  156.0618  140.1342  156.9958 H   0  0  0  0  0  0  0  0  0  0  0  0  # atno 8009 bound_to 7997
  154.4483  140.0983  156.6513 H   0  0  0  0  0  0  0  0  0  0  0  0  # atno 8010 bound_to 7997
  140.1919  143.3885  152.1200 H   0  0  0  0  0  0  0  0  0  0  0  0  # atno 10167 bound_to 10162
  157.6751  130.9877  150.1816 H   0  0  0  0  0  0  0  0  0  0  0  0  # atno 10718 bound_to 10713
  152.9788  135.5819  154.4547 H   0  0  0  0  0  0  0  0  0  0  0  0  # atno 10763 bound_to 10752
  154.4131  135.2770  155.2026 H   0  0  0  0  0  0  0  0  0  0  0  0  # atno 10764 bound_to 10752
  154.3807  135.6147  153.5843 H   0  0  0  0  0  0  0  0  0  0  0  0  # atno 10765 bound_to 10752
  139.9649  134.6998  156.0566 H   0  0  0  0  0  0  0  0  0  0  0  0  # atno 11005 bound_to 11000
  146.2095  140.6041  142.9066 LP  0  0  0  0  0  0  0  0  0  0  0  0  # atno 17320 bound_to 7965
  144.7667  140.5545  143.6698 LP  0  0  0  0  0  0  0  0  0  0  0  0  # atno 17321 bound_to 7965
  139.5252  144.7093  151.5255 LP  0  0  0  0  0  0  0  0  0  0  0  0  # atno 17342 bound_to 10162
  140.6450  143.8813  150.6728 LP  0  0  0  0  0  0  0  0  0  0  0  0  # atno 17343 bound_to 10162
  156.2547  130.3704  149.8194 LP  0  0  0  0  0  0  0  0  0  0  0  0  # atno 17370 bound_to 10713
  156.5956  130.8525  151.3419 LP  0  0  0  0  0  0  0  0  0  0  0  0  # atno 17371 bound_to 10713
  141.1328  133.6582  156.3512 LP  0  0  0  0  0  0  0  0  0  0  0  0  # atno 17394 bound_to 11000
  140.5418  134.6113  157.5382 LP  0  0  0  0  0  0  0  0  0  0  0  0  # atno 17395 bound_to 11000

$$$$
