AV-unprocessed.smi:2143|AV-procd|sdf|8723|dock10
  -GOLD-   2272011493D 1   1.00000     0.00000
 Structure written by MMmdl.
 44 45  0  0  0  0  0  0  0  0  1 V2000
  152.0865  144.4020  160.1483 C   0  0  0  0  0  0  0  0  0  0  0  0
  152.1145  143.3499  159.0270 C   0  0  1  0  0  0  0  0  0  0  0  0
  152.5241  141.9610  159.5573 C   0  0  0  0  0  0  0  0  0  0  0  0
  152.6506  140.9387  158.4170 C   0  0  0  0  0  0  0  0  0  0  0  0
  151.3639  140.8637  157.5816 C   0  0  0  0  0  0  0  0  0  0  0  0
  150.9607  142.2529  157.0513 C   0  0  1  0  0  0  0  0  0  0  0  0
  149.7529  142.1391  156.2370 N   0  0  0  0  0  0  0  0  0  0  0  0
  149.5729  141.2713  155.2300 C   0  0  0  0  0  0  0  0  0  0  0  0
  150.4133  140.4337  154.8997 O   0  0  0  0  0  0  0  0  0  0  0  0
  148.2282  141.3607  154.4970 C   0  0  0  0  0  0  0  0  0  0  0  0
  147.4344  140.1306  154.6131 N   0  0  0  0  0  0  0  0  0  0  0  0
  147.2276  139.3398  153.4973 C   0  0  0  0  0  0  0  0  0  0  0  0
  146.5099  138.1956  153.5178 C   0  0  0  0  0  0  0  0  0  0  0  0
  145.8931  137.7224  154.7509 C   0  0  0  0  0  0  0  0  0  0  0  0
  145.2483  136.6755  154.8244 O   0  0  0  0  0  0  0  0  0  0  0  0
  146.1037  138.5578  155.8728 N   0  0  0  0  0  0  0  0  0  0  0  0
  145.5278  138.1342  157.1325 C   0  0  0  0  0  0  0  0  0  0  0  0
  146.8724  139.7445  155.8499 C   0  0  0  0  0  0  0  0  0  0  0  0
  147.0610  140.4261  156.8607 O   0  0  0  0  0  0  0  0  0  0  0  0
  150.8001  143.2832  158.2042 C   0  0  1  0  0  0  0  0  0  0  0  0
  149.5410  143.0397  159.0692 C   0  0  0  0  0  0  0  0  0  0  0  0
  151.4065  144.1203  160.9522 H   0  0  0  0  0  0  0  0  0  0  0  0
  151.7751  145.3752  159.7680 H   0  0  0  0  0  0  0  0  0  0  0  0
  153.0759  144.5238  160.5898 H   0  0  0  0  0  0  0  0  0  0  0  0
  152.8979  143.6684  158.3373 H   0  0  0  0  0  0  0  0  0  0  0  0
  153.4762  142.0314  160.0845 H   0  0  0  0  0  0  0  0  0  0  0  0
  151.7977  141.6079  160.2900 H   0  0  0  0  0  0  0  0  0  0  0  0
  153.4854  141.2160  157.7721 H   0  0  0  0  0  0  0  0  0  0  0  0
  152.8888  139.9553  158.8233 H   0  0  0  0  0  0  0  0  0  0  0  0
  151.5142  140.1765  156.7481 H   0  0  0  0  0  0  0  0  0  0  0  0
  150.5598  140.4403  158.1846 H   0  0  0  0  0  0  0  0  0  0  0  0
  151.7687  142.5937  156.4008 H   0  0  0  0  0  0  0  0  0  0  0  0
  149.0053  142.7862  156.4418 H   0  0  0  0  0  0  0  0  0  0  0  0
  147.6733  142.2055  154.9068 H   0  0  0  0  0  0  0  0  0  0  0  0
  148.3925  141.5988  153.4444 H   0  0  0  0  0  0  0  0  0  0  0  0
  147.6618  139.6501  152.5580 H   0  0  0  0  0  0  0  0  0  0  0  0
  146.3907  137.6221  152.6103 H   0  0  0  0  0  0  0  0  0  0  0  0
  145.3975  138.9897  157.7957 H   0  0  0  0  0  0  0  0  0  0  0  0
  146.2108  137.4000  157.5617 H   0  0  0  0  0  0  0  0  0  0  0  0
  144.5438  137.7023  156.9422 H   0  0  0  0  0  0  0  0  0  0  0  0
  150.6657  144.2633  157.7437 H   0  0  0  0  0  0  0  0  0  0  0  0
  149.5848  142.0892  159.5996 H   0  0  0  0  0  0  0  0  0  0  0  0
  148.6335  143.0369  158.4655 H   0  0  0  0  0  0  0  0  0  0  0  0
  149.4088  143.8256  159.8121 H   0  0  0  0  0  0  0  0  0  0  0  0
  1  2  1  0  0  0  0
  1 22  1  0  0  0  0
  1 23  1  0  0  0  0
  1 24  1  0  0  0  0
  2 20  1  0  0  0  0
  2  3  1  0  0  0  0
  2 25  1  0  0  0  0
  3  4  1  0  0  0  0
  3 26  1  0  0  0  0
  3 27  1  0  0  0  0
  4  5  1  0  0  0  0
  4 28  1  0  0  0  0
  4 29  1  0  0  0  0
  5  6  1  0  0  0  0
  5 30  1  0  0  0  0
  5 31  1  0  0  0  0
  6  7  1  0  0  0  0
  6 20  1  0  0  0  0
  6 32  1  0  0  0  0
  7  8  1  0  0  0  0
  7 33  1  0  0  0  0
  8  9  2  0  0  0  0
  8 10  1  0  0  0  0
 10 11  1  0  0  0  0
 10 34  1  0  0  0  0
 10 35  1  0  0  0  0
 11 18  1  0  0  0  0
 11 12  1  0  0  0  0
 12 13  2  0  0  0  0
 12 36  1  0  0  0  0
 13 14  1  0  0  0  0
 13 37  1  0  0  0  0
 14 15  2  0  0  0  0
 14 16  1  0  0  0  0
 16 17  1  0  0  0  0
 16 18  1  0  0  0  0
 17 38  1  0  0  0  0
 17 39  1  0  0  0  0
 17 40  1  0  0  0  0
 18 19  2  0  0  0  0
 20 21  1  0  0  0  0
 20 41  1  0  0  0  0
 21 42  1  0  0  0  0
 21 43  1  0  0  0  0
 21 44  1  0  0  0  0
M  END
> <s_m_source_file>
AV-unprocessed.smi

> <i_m_source_file_index>
2143

> <i_lp_mmshare_version>
43012

> <i_f3d_flags>
0

> <s_epik_input>
W0NIM11bQ0BASF0xW0NIMl1bQ0gyXVtDSDJdW0NASF0oW0NASF0xW0NIM10pW05IXUMoPU8pW0NIMl1uMltjSF1bY0hdYyg9TyluKFtDSDNdKWMyPU8=

> <s_epik_cmdline>
J2VwaWtfcHl0aG9uJywgJy1waCcsICc3LjAnLCAnLXRuJywgJzgnLCAnLW1hJywgJzIwMCcsICctbWV0YWxfYmluZGluZycsICctaW1hZScsICc8aW5maWxlLm1hZT4nLCAnLW9tYWUnLCAnPG91dGZpbGUubWFlPic=

> <r_lp_tautomer_probability>
1

> <r_epik_Ionization_Penalty>
3.18445e-08

> <r_epik_Ionization_Penalty_Charging>
1.27977e-08

> <r_epik_Ionization_Penalty_Neutral>
1.90469e-08

> <r_epik_State_Penalty>
-0

> <r_epik_Charging_Adjusted_Penalty>
1.27977e-08

> <i_epik_Tot_Q>
0

> <i_epik_Tot_abs_Q>
0

> <r_epik_Metal_State_Penalty>
-0

> <b_epik_Metal_Only>
0

> <s_lp_Force_Field>
OPLS_2005

> <r_lp_Energy>
21.6223

> <b_lp_Chiralities_Consistent>
1

> <s_lp_Variant>
AV-unprocessed.smi:2143-2

> <Gold.Version>
5.8.1

> <Gold.Id.Protein>
6NUR|6NUR_protein|mol2

> <Gold.PLP.Fitness>
43.2677

> <Gold.PLP.PLP>
-34.5131

> <Gold.PLP.part.hbond>
-2.0000

> <Gold.PLP.part.metal>
0.0000

> <Gold.PLP.part.buried>
-2.2833

> <Gold.PLP.part.nonpolar>
-30.1983

> <Gold.PLP.part.repulsive>
0.3128

> <Gold.PLP.ligand.clash>
0.0000

> <Gold.PLP.ligand.torsion>
0.1294

> <Gold.PLP.Chemscore.Hbond>
2.0000

> <Gold.PLP.Chemscore.CHOScore>
1.0000

> <Gold.PLP.Chemscore.Metal>
0.0000

> <Gold.Chemscore.Hbonds>
donor molecule, donor type, donor heavy atom, donor atom, acceptor molecule, acceptor atom, score
      L1  H     7    33       P1  8028  0.43
      P1  H  7989  7998       L1     9  1.00
      L1  C    12    36       P1  7957  1.00

> <Gold.PLP.Chemscore.Internal.Correction>
0.0136

> <Gold.Rescore>
     Score         DG    S(hbond)    S(metal)    S(lipo)     H(rot)  DE(clash)    DE(int)     intcor
     17.00     -18.30       1.67        0.00      94.95       1.51       0.04       1.26       ----

> <Gold.Chemscore.Fitness>
16.9986

> <Gold.Chemscore.DG>
-18.3006

> <Gold.Chemscore.ZeroCoef>
-5.4800

> <Gold.Chemscore.Hbond>
1.6721

> <Gold.Chemscore.Metal>
0.0000

> <Gold.Chemscore.Lipo>
94.9505

> <Gold.Chemscore.Internal_Hbond>
0.0000

> <Gold.Chemscore.DEClash>
0.0410

> <Gold.Chemscore.DEInternal>
1.2610

> <Gold.Chemscore.Rot>
1.5131

> <Gold.Chemscore.Internal.Correction>
   9.000000E+99

> <Gold.Chemscore.Hbonds>
donor molecule, donor type, donor heavy atom, donor atom, acceptor molecule, acceptor atom, score
      L1  H     7    33       P1  8028  0.42
      P1  H  7989  7998       L1     9  0.92

> <Gold.Chemscore.Hbond.Weighted>
-5.5848

> <Gold.Chemscore.Metal.Weighted>
-0.0000

> <Gold.Chemscore.Lipo.Weighted>
-11.1092

> <Gold.Chemscore.Internal_Hbond.Weighted>
0.0000

> <Gold.Chemscore.DEClash.Weighted>
0.0410

> <Gold.Chemscore.DEInternal.Weighted>
1.2610

> <Gold.Chemscore.Rot.Weighted>
3.8734

> <Gold.Chemscore.Internal.Correction.Weighted>
   9.000000E+99

> <Gold.Protein.RotatedTorsions>
[ 6907 6896 6895 6894 ] final  -64.55 input  -60.11 | X-H torsion
[ 7974 7965 7964 7962 ] final   14.91 input  175.53 | X-H torsion
[ 8008 7997 7996 7995 ] final -123.68 input   59.86 | X-H torsion
[ 10167 10162 10161 10158 ] final  -18.40 input  -65.29 | X-H torsion
[ 10718 10713 10712 10709 ] final  141.18 input   66.30 | X-H torsion
[ 10763 10752 10751 10750 ] final  -54.02 input  -60.55 | X-H torsion
[ 11005 11000 10999 10996 ] final -115.28 input  -57.11 | X-H torsion

> <Gold.Protein.ActiveResidues>
 VAL166  LYS551  ARG553  GLY616  TRP617  ASP618  TYR619  PRO620  LYS621  CYS622 
 ASP623  PHE694  ASN695  SER759  ASP760  ASP761  ALA762  ILE779  LEU786  VAL792 
 PHE793  MET794  SER795  GLU796  ALA797  LYS798  CYS799  TRP800  GLU811  SER814 

> <Gold.Protein.RotatedAtoms>
  150.7578  134.6283  159.6172 H   0  0  0  0  0  0  0  0  0  0  0  0  # atno 6907 bound_to 6896
  152.3568  134.6925  160.0228 H   0  0  0  0  0  0  0  0  0  0  0  0  # atno 6908 bound_to 6896
  151.7328  133.3282  159.3381 H   0  0  0  0  0  0  0  0  0  0  0  0  # atno 6909 bound_to 6896
  146.2293  139.8972  142.8545 H   0  0  0  0  0  0  0  0  0  0  0  0  # atno 7974 bound_to 7965
  155.1845  140.0411  157.2888 H   0  0  0  0  0  0  0  0  0  0  0  0  # atno 8008 bound_to 7997
  154.6180  140.2493  155.7556 H   0  0  0  0  0  0  0  0  0  0  0  0  # atno 8009 bound_to 7997
  156.2418  140.2901  156.0475 H   0  0  0  0  0  0  0  0  0  0  0  0  # atno 8010 bound_to 7997
  140.7258  143.4920  150.9979 H   0  0  0  0  0  0  0  0  0  0  0  0  # atno 10167 bound_to 10162
  157.3949  131.1009  151.0610 H   0  0  0  0  0  0  0  0  0  0  0  0  # atno 10718 bound_to 10713
  154.1681  135.6463  153.5002 H   0  0  0  0  0  0  0  0  0  0  0  0  # atno 10763 bound_to 10752
  153.0092  135.5377  154.6641 H   0  0  0  0  0  0  0  0  0  0  0  0  # atno 10764 bound_to 10752
  154.5973  135.2940  155.0545 H   0  0  0  0  0  0  0  0  0  0  0  0  # atno 10765 bound_to 10752
  141.0498  133.9705  157.2856 H   0  0  0  0  0  0  0  0  0  0  0  0  # atno 11005 bound_to 11000
  145.2359  140.9991  143.3964 LP  0  0  0  0  0  0  0  0  0  0  0  0  # atno 17320 bound_to 7965
  144.9492  139.4102  143.6411 LP  0  0  0  0  0  0  0  0  0  0  0  0  # atno 17321 bound_to 7965
  139.8625  143.7296  152.3172 LP  0  0  0  0  0  0  0  0  0  0  0  0  # atno 17342 bound_to 10162
  139.7516  144.7532  151.0497 LP  0  0  0  0  0  0  0  0  0  0  0  0  # atno 17343 bound_to 10162
  157.1630  130.6234  149.5616 LP  0  0  0  0  0  0  0  0  0  0  0  0  # atno 17370 bound_to 10713
  155.9808  130.4810  150.6791 LP  0  0  0  0  0  0  0  0  0  0  0  0  # atno 17371 bound_to 10713
  139.9341  135.0198  156.8498 LP  0  0  0  0  0  0  0  0  0  0  0  0  # atno 17394 bound_to 11000
  140.6077  134.0112  155.7563 LP  0  0  0  0  0  0  0  0  0  0  0  0  # atno 17395 bound_to 11000

$$$$
