AV-unprocessed.smi:2730|AV-procd|sdf|10528|dock7
  -GOLD-   2272014573D 1   1.00000     0.00000
 Structure written by MMmdl.
 43 44  0  0  0  0  0  0  0  0  1 V2000
  154.5944  143.5834  169.1678 C   0  0  0  0  0  0  0  0  0  0  0  0
  155.0619  142.7468  167.9676 C   0  0  0  0  0  0  0  0  0  0  0  0
  153.9477  141.8868  167.3372 C   0  0  2  0  0  0  0  0  0  0  0  0
  153.4664  140.7688  168.2804 C   0  0  0  0  0  0  0  0  0  0  0  0
  154.5214  139.8125  168.6511 C   0  0  0  0  0  0  0  0  0  0  0  0
  155.3513  139.0608  168.9422 N   0  0  0  0  0  0  0  0  0  0  0  0
  154.4123  141.3077  166.0789 N   0  0  0  0  0  0  0  0  0  0  0  0
  153.9466  141.6250  164.8623 C   0  0  0  0  0  0  0  0  0  0  0  0
  153.0507  142.4480  164.6723 O   0  0  0  0  0  0  0  0  0  0  0  0
  154.5831  140.9313  163.9027 N   0  0  0  0  0  0  0  0  0  0  0  0
  154.3773  140.9829  162.4998 C   0  0  0  0  0  0  0  0  0  0  0  0
  154.9631  140.1327  161.6019 N   0  0  0  0  0  0  0  0  0  0  0  0
  154.4398  140.6150  160.4825 C   0  0  0  0  0  0  0  0  0  0  0  0
  153.6190  141.6529  160.6683 N   0  0  0  0  0  0  0  0  0  0  0  0
  152.8671  142.4388  159.7020 C   0  0  0  0  0  0  0  0  0  0  0  0
  152.1380  143.6198  160.3760 C   0  0  0  0  0  0  0  0  0  0  0  0
  151.3544  144.4516  159.3476 C   0  0  0  0  0  0  0  0  0  0  0  0
  150.3714  143.5754  158.5545 C   0  0  0  0  0  0  0  0  0  0  0  0
  151.0936  142.3975  157.8806 C   0  0  0  0  0  0  0  0  0  0  0  0
  151.8761  141.5626  158.9076 C   0  0  0  0  0  0  0  0  0  0  0  0
  153.5650  141.9112  161.9990 N   0  0  0  0  0  0  0  0  0  0  0  0
  155.4291  144.1328  169.6036 H   0  0  0  0  0  0  0  0  0  0  0  0
  154.1720  142.9491  169.9474 H   0  0  0  0  0  0  0  0  0  0  0  0
  153.8365  144.3124  168.8807 H   0  0  0  0  0  0  0  0  0  0  0  0
  155.4885  143.4070  167.2115 H   0  0  0  0  0  0  0  0  0  0  0  0
  155.8759  142.1018  168.2986 H   0  0  0  0  0  0  0  0  0  0  0  0
  153.1007  142.5430  167.1267 H   0  0  0  0  0  0  0  0  0  0  0  0
  153.0741  141.1902  169.2064 H   0  0  0  0  0  0  0  0  0  0  0  0
  152.6566  140.2034  167.8184 H   0  0  0  0  0  0  0  0  0  0  0  0
  155.1497  140.6211  166.1411 H   0  0  0  0  0  0  0  0  0  0  0  0
  155.3000  140.2911  164.2104 H   0  0  0  0  0  0  0  0  0  0  0  0
  154.6595  140.2035  159.5083 H   0  0  0  0  0  0  0  0  0  0  0  0
  153.5911  142.8502  158.9964 H   0  0  0  0  0  0  0  0  0  0  0  0
  151.4489  143.2507  161.1369 H   0  0  0  0  0  0  0  0  0  0  0  0
  152.8566  144.2570  160.8930 H   0  0  0  0  0  0  0  0  0  0  0  0
  150.8139  145.2528  159.8524 H   0  0  0  0  0  0  0  0  0  0  0  0
  152.0509  144.9335  158.6602 H   0  0  0  0  0  0  0  0  0  0  0  0
  149.5991  143.1948  159.2242 H   0  0  0  0  0  0  0  0  0  0  0  0
  149.8598  144.1771  157.8027 H   0  0  0  0  0  0  0  0  0  0  0  0
  150.3713  141.7669  157.3617 H   0  0  0  0  0  0  0  0  0  0  0  0
  151.7775  142.7752  157.1193 H   0  0  0  0  0  0  0  0  0  0  0  0
  152.4116  140.7609  158.3977 H   0  0  0  0  0  0  0  0  0  0  0  0
  151.1723  141.0803  159.5878 H   0  0  0  0  0  0  0  0  0  0  0  0
  1  2  1  0  0  0  0
  1 22  1  0  0  0  0
  1 23  1  0  0  0  0
  1 24  1  0  0  0  0
  2  3  1  0  0  0  0
  2 25  1  0  0  0  0
  2 26  1  0  0  0  0
  3  4  1  0  0  0  0
  3  7  1  0  0  0  0
  3 27  1  0  0  0  0
  4  5  1  0  0  0  0
  4 28  1  0  0  0  0
  4 29  1  0  0  0  0
  5  6  3  0  0  0  0
  7  8  1  0  0  0  0
  7 30  1  0  0  0  0
  8  9  2  0  0  0  0
  8 10  1  0  0  0  0
 10 11  1  0  0  0  0
 10 31  1  0  0  0  0
 11 21  2  0  0  0  0
 11 12  1  0  0  0  0
 12 13  2  0  0  0  0
 13 14  1  0  0  0  0
 13 32  1  0  0  0  0
 14 15  1  0  0  0  0
 14 21  1  0  0  0  0
 15 20  1  0  0  0  0
 15 16  1  0  0  0  0
 15 33  1  0  0  0  0
 16 17  1  0  0  0  0
 16 34  1  0  0  0  0
 16 35  1  0  0  0  0
 17 18  1  0  0  0  0
 17 36  1  0  0  0  0
 17 37  1  0  0  0  0
 18 19  1  0  0  0  0
 18 38  1  0  0  0  0
 18 39  1  0  0  0  0
 19 20  1  0  0  0  0
 19 40  1  0  0  0  0
 19 41  1  0  0  0  0
 20 42  1  0  0  0  0
 20 43  1  0  0  0  0
M  END
> <s_m_source_file>
AV-unprocessed.smi

> <i_m_source_file_index>
2730

> <i_lp_mmshare_version>
43012

> <i_f3d_flags>
0

> <s_epik_input>
TiNDW0NIMl1bQ0BASF0oW0NIMl1bQ0gzXSlbTkhdQyg9TylbTkhdYzFuW2NIXW4objEpW0NIXTJbQ0gyXVtDSDJdW0NIMl1bQ0gyXVtDSDJdMg==

> <s_epik_cmdline>
J2VwaWtfcHl0aG9uJywgJy1waCcsICc3LjAnLCAnLXRuJywgJzgnLCAnLW1hJywgJzIwMCcsICctbWV0YWxfYmluZGluZycsICctaW1hZScsICc8aW5maWxlLm1hZT4nLCAnLW9tYWUnLCAnPG91dGZpbGUubWFlPic=

> <r_lp_tautomer_probability>
1

> <r_epik_Ionization_Penalty>
7.18854e-05

> <r_epik_Ionization_Penalty_Charging>
0

> <r_epik_Ionization_Penalty_Neutral>
7.18854e-05

> <r_epik_State_Penalty>
-0

> <r_epik_Charging_Adjusted_Penalty>
0

> <i_epik_Tot_Q>
0

> <i_epik_Tot_abs_Q>
0

> <r_epik_Metal_State_Penalty>
-0

> <b_epik_Metal_Only>
0

> <s_lp_Force_Field>
OPLS_2005

> <r_lp_Energy>
15.2848

> <b_lp_Chiralities_Consistent>
1

> <s_lp_Variant>
AV-unprocessed.smi:2730-1

> <Gold.Version>
5.8.1

> <Gold.Id.Protein>
6NUR|6NUR_protein|mol2

> <Gold.PLP.Fitness>
43.8886

> <Gold.PLP.PLP>
-44.0417

> <Gold.PLP.part.hbond>
-3.6803

> <Gold.PLP.part.metal>
0.0000

> <Gold.PLP.part.buried>
-3.3726

> <Gold.PLP.part.nonpolar>
-36.3187

> <Gold.PLP.part.repulsive>
0.1952

> <Gold.PLP.ligand.clash>
0.0000

> <Gold.PLP.ligand.torsion>
0.1061

> <Gold.PLP.Chemscore.Hbond>
0.0000

> <Gold.PLP.Chemscore.CHOScore>
0.0000

> <Gold.PLP.Chemscore.Metal>
0.0000

> <Gold.PLP.Chemscore.Internal.Correction>
0.0591

> <Gold.Rescore>
     Score         DG    S(hbond)    S(metal)    S(lipo)     H(rot)  DE(clash)    DE(int)     intcor
      8.75     -10.51       0.00        0.00      82.94       1.82       0.05       1.71       ----

> <Gold.Chemscore.Fitness>
8.7472

> <Gold.Chemscore.DG>
-10.5122

> <Gold.Chemscore.ZeroCoef>
-5.4800

> <Gold.Chemscore.Hbond>
0.0000

> <Gold.Chemscore.Metal>
0.0000

> <Gold.Chemscore.Lipo>
82.9398

> <Gold.Chemscore.Internal_Hbond>
0.0000

> <Gold.Chemscore.DEClash>
0.0503

> <Gold.Chemscore.DEInternal>
1.7147

> <Gold.Chemscore.Rot>
1.8249

> <Gold.Chemscore.Internal.Correction>
   9.000000E+99

> <Gold.Chemscore.Hbond.Weighted>
-0.0000

> <Gold.Chemscore.Metal.Weighted>
-0.0000

> <Gold.Chemscore.Lipo.Weighted>
-9.7040

> <Gold.Chemscore.Internal_Hbond.Weighted>
0.0000

> <Gold.Chemscore.DEClash.Weighted>
0.0503

> <Gold.Chemscore.DEInternal.Weighted>
1.7147

> <Gold.Chemscore.Rot.Weighted>
4.6718

> <Gold.Chemscore.Internal.Correction.Weighted>
   9.000000E+99

> <Gold.Protein.RotatedTorsions>
[ 6907 6896 6895 6894 ] final  169.13 input  -60.11 | X-H torsion
[ 7974 7965 7964 7962 ] final  117.64 input  175.53 | X-H torsion
[ 8008 7997 7996 7995 ] final  137.48 input   59.86 | X-H torsion
[ 10167 10162 10161 10158 ] final   -5.16 input  -65.29 | X-H torsion
[ 10718 10713 10712 10709 ] final  112.32 input   66.30 | X-H torsion
[ 10763 10752 10751 10750 ] final -104.75 input  -60.55 | X-H torsion
[ 11005 11000 10999 10996 ] final  -97.61 input  -57.11 | X-H torsion

> <Gold.Protein.ActiveResidues>
 VAL166  LYS551  ARG553  GLY616  TRP617  ASP618  TYR619  PRO620  LYS621  CYS622 
 ASP623  PHE694  ASN695  SER759  ASP760  ASP761  ALA762  ILE779  LEU786  VAL792 
 PHE793  MET794  SER795  GLU796  ALA797  LYS798  CYS799  TRP800  GLU811  SER814 

> <Gold.Protein.RotatedAtoms>
  151.8368  133.3417  159.3630 H   0  0  0  0  0  0  0  0  0  0  0  0  # atno 6907 bound_to 6896
  150.7247  134.5430  159.5766 H   0  0  0  0  0  0  0  0  0  0  0  0  # atno 6908 bound_to 6896
  152.2895  134.7738  160.0432 H   0  0  0  0  0  0  0  0  0  0  0  0  # atno 6909 bound_to 6896
  145.1650  139.3134  143.4497 H   0  0  0  0  0  0  0  0  0  0  0  0  # atno 7974 bound_to 7965
  156.3002  140.2418  156.3917 H   0  0  0  0  0  0  0  0  0  0  0  0  # atno 8008 bound_to 7997
  154.8608  140.0420  157.1684 H   0  0  0  0  0  0  0  0  0  0  0  0  # atno 8009 bound_to 7997
  154.8898  140.2961  155.5381 H   0  0  0  0  0  0  0  0  0  0  0  0  # atno 8010 bound_to 7997
  140.6953  143.6341  150.8496 H   0  0  0  0  0  0  0  0  0  0  0  0  # atno 10167 bound_to 10162
  157.6399  131.0965  150.6878 H   0  0  0  0  0  0  0  0  0  0  0  0  # atno 10718 bound_to 10713
  154.7900  135.4774  154.0031 H   0  0  0  0  0  0  0  0  0  0  0  0  # atno 10763 bound_to 10752
  153.1616  135.6809  153.8741 H   0  0  0  0  0  0  0  0  0  0  0  0  # atno 10764 bound_to 10752
  153.8353  135.3186  155.3400 H   0  0  0  0  0  0  0  0  0  0  0  0  # atno 10765 bound_to 10752
  141.1373  133.8183  157.0729 H   0  0  0  0  0  0  0  0  0  0  0  0  # atno 11005 bound_to 11000
  146.3477  140.1774  142.8589 LP  0  0  0  0  0  0  0  0  0  0  0  0  # atno 17320 bound_to 7965
  145.0292  140.8857  143.5120 LP  0  0  0  0  0  0  0  0  0  0  0  0  # atno 17321 bound_to 7965
  140.0058  143.5695  152.2858 LP  0  0  0  0  0  0  0  0  0  0  0  0  # atno 17342 bound_to 10162
  139.6401  144.7654  151.2356 LP  0  0  0  0  0  0  0  0  0  0  0  0  # atno 17343 bound_to 10162
  156.7203  130.4678  149.5524 LP  0  0  0  0  0  0  0  0  0  0  0  0  # atno 17370 bound_to 10713
  156.1670  130.6412  151.0790 LP  0  0  0  0  0  0  0  0  0  0  0  0  # atno 17371 bound_to 10713
  140.0500  134.9810  157.1119 LP  0  0  0  0  0  0  0  0  0  0  0  0  # atno 17394 bound_to 11000
  140.4004  134.2088  155.7163 LP  0  0  0  0  0  0  0  0  0  0  0  0  # atno 17395 bound_to 11000

$$$$
