AV-unprocessed.smi:1024|AV-procd|sdf|4464|dock7
  -GOLD-   22720 2443D 1   1.00000     0.00000
 Structure written by MMmdl.
 48 50  0  0  0  0  0  0  0  0  2 V2000
  155.1173  138.9731  158.6840 O   0  0  0  0  0  0  0  0  0  0  0  0
  154.2994  138.7920  159.5877 C   0  0  0  0  0  0  0  0  0  0  0  0
  153.4206  139.7422  159.9502 N   0  0  0  0  0  0  0  0  0  0  0  0
  153.3359  141.0725  159.3602 C   0  0  0  0  0  0  0  0  0  0  0  0
  152.3056  141.9481  160.0926 C   0  0  0  0  0  0  0  0  0  0  0  0
  151.9555  143.1356  159.3130 N   0  0  0  0  0  0  0  0  0  0  0  0
  152.3757  144.4242  159.5206 C   0  0  0  0  0  0  0  0  0  0  0  0
  151.7847  145.1885  158.5474 C   0  0  0  0  0  0  0  0  0  0  0  0
  151.0296  144.3345  157.7883 N   0  3  0  0  0  0  0  0  0  0  0  0
  151.1342  143.0865  158.2564 C   0  0  0  0  0  0  0  0  0  0  0  0
  154.1962  137.6271  160.2765 N   0  0  0  0  0  0  0  0  0  0  0  0
  153.1415  137.2740  161.2391 C   0  0  0  0  0  0  0  0  0  0  0  0
  153.7232  137.3663  162.6630 C   0  0  0  0  0  0  0  0  0  0  0  0
  154.9722  136.4643  162.8726 C   0  0  0  0  0  0  0  0  0  0  0  0
  155.6336  136.8589  164.2190 C   0  0  0  0  0  0  0  0  0  0  0  0
  156.7750  135.9174  164.6423 C   0  0  0  0  0  0  0  0  0  0  0  0
  156.2920  134.4635  164.7235 C   0  0  0  0  0  0  0  0  0  0  0  0
  155.6584  134.0183  163.3989 C   0  0  0  0  0  0  0  0  0  0  0  0
  154.5318  134.9746  162.9652 C   0  0  0  0  0  0  0  0  0  0  0  0
  155.9635  136.7049  161.6947 C   0  0  0  0  0  0  0  0  0  0  0  0
  155.2861  136.6471  160.3117 C   0  0  0  0  0  0  0  0  0  0  0  0
  152.7686  139.5250  160.6901 H   0  0  0  0  0  0  0  0  0  0  0  0
  154.3197  141.5452  159.3708 H   0  0  0  0  0  0  0  0  0  0  0  0
  153.0552  140.9647  158.3121 H   0  0  0  0  0  0  0  0  0  0  0  0
  151.3895  141.3883  160.2858 H   0  0  0  0  0  0  0  0  0  0  0  0
  152.6870  142.2815  161.0590 H   0  0  0  0  0  0  0  0  0  0  0  0
  153.0451  144.6946  160.3245 H   0  0  0  0  0  0  0  0  0  0  0  0
  151.8428  146.2478  158.3440 H   0  0  0  0  0  0  0  0  0  0  0  0
  150.6492  142.2117  157.8606 H   0  0  0  0  0  0  0  0  0  0  0  0
  152.2524  137.9001  161.1685 H   0  0  0  0  0  0  0  0  0  0  0  0
  152.7896  136.2629  161.0336 H   0  0  0  0  0  0  0  0  0  0  0  0
  153.9900  138.4069  162.8546 H   0  0  0  0  0  0  0  0  0  0  0  0
  152.9505  137.1208  163.3926 H   0  0  0  0  0  0  0  0  0  0  0  0
  156.0083  137.8820  164.1702 H   0  0  0  0  0  0  0  0  0  0  0  0
  154.8780  136.8578  165.0062 H   0  0  0  0  0  0  0  0  0  0  0  0
  157.6060  135.9937  163.9411 H   0  0  0  0  0  0  0  0  0  0  0  0
  157.1667  136.2280  165.6109 H   0  0  0  0  0  0  0  0  0  0  0  0
  157.1243  133.8073  164.9797 H   0  0  0  0  0  0  0  0  0  0  0  0
  155.5617  134.3665  165.5277 H   0  0  0  0  0  0  0  0  0  0  0  0
  156.4227  133.9574  162.6245 H   0  0  0  0  0  0  0  0  0  0  0  0
  155.2603  133.0088  163.5061 H   0  0  0  0  0  0  0  0  0  0  0  0
  153.7200  134.8867  163.6885 H   0  0  0  0  0  0  0  0  0  0  0  0
  154.1170  134.6276  162.0199 H   0  0  0  0  0  0  0  0  0  0  0  0
  156.4214  137.6887  161.8061 H   0  0  0  0  0  0  0  0  0  0  0  0
  156.7902  135.9967  161.7200 H   0  0  0  0  0  0  0  0  0  0  0  0
  154.8898  135.6509  160.1144 H   0  0  0  0  0  0  0  0  0  0  0  0
  156.0289  136.8192  159.5319 H   0  0  0  0  0  0  0  0  0  0  0  0
  150.4712  144.6053  156.9885 H   0  0  0  0  0  0  0  0  0  0  0  0
  1  2  2  0  0  0  0
  2  3  1  0  0  0  0
  2 11  1  0  0  0  0
  3  4  1  0  0  0  0
  3 22  1  0  0  0  0
  4  5  1  0  0  0  0
  4 23  1  0  0  0  0
  4 24  1  0  0  0  0
  5  6  1  0  0  0  0
  5 25  1  0  0  0  0
  5 26  1  0  0  0  0
  6 10  1  0  0  0  0
  6  7  1  0  0  0  0
  7  8  2  0  0  0  0
  7 27  1  0  0  0  0
  8  9  1  0  0  0  0
  8 28  1  0  0  0  0
  9 10  2  0  0  0  0
  9 48  1  0  0  0  0
 10 29  1  0  0  0  0
 11 21  1  0  0  0  0
 11 12  1  0  0  0  0
 12 13  1  0  0  0  0
 12 30  1  0  0  0  0
 12 31  1  0  0  0  0
 13 14  1  0  0  0  0
 13 32  1  0  0  0  0
 13 33  1  0  0  0  0
 14 19  1  0  0  0  0
 14 15  1  0  0  0  0
 14 20  1  0  0  0  0
 15 16  1  0  0  0  0
 15 34  1  0  0  0  0
 15 35  1  0  0  0  0
 16 17  1  0  0  0  0
 16 36  1  0  0  0  0
 16 37  1  0  0  0  0
 17 18  1  0  0  0  0
 17 38  1  0  0  0  0
 17 39  1  0  0  0  0
 18 19  1  0  0  0  0
 18 40  1  0  0  0  0
 18 41  1  0  0  0  0
 19 42  1  0  0  0  0
 19 43  1  0  0  0  0
 20 21  1  0  0  0  0
 20 44  1  0  0  0  0
 20 45  1  0  0  0  0
 21 46  1  0  0  0  0
 21 47  1  0  0  0  0
M  CHG  1   9   1
M  END
> <s_m_source_file>
AV-unprocessed.smi

> <i_m_source_file_index>
1024

> <i_lp_mmshare_version>
43012

> <i_f3d_flags>
0

> <s_epik_input>
W2NIXTFuW2NIXVtjSF1uMVtDSDJdW0NIMl1bTkhdQyg9TylOKFtDSDJdW0NIMl0yKVtDSDJdW0NIMl1DMjNbQ0gyXVtDSDJdW0NIMl1bQ0gyXVtDSDJdMw==

> <s_epik_cmdline>
J2VwaWtfcHl0aG9uJywgJy1waCcsICc3LjAnLCAnLXRuJywgJzgnLCAnLW1hJywgJzIwMCcsICctbWV0YWxfYmluZGluZycsICctaW1hZScsICc8aW5maWxlLm1hZT4nLCAnLW9tYWUnLCAnPG91dGZpbGUubWFlPic=

> <r_lp_tautomer_probability>
1

> <r_epik_Ionization_Penalty>
0.249817

> <r_epik_Ionization_Penalty_Charging>
0

> <r_epik_Ionization_Penalty_Neutral>
0.249817

> <r_epik_State_Penalty>
0.241048

> <r_epik_Charging_Adjusted_Penalty>
0.241048

> <i_epik_Tot_Q>
1

> <i_epik_Tot_abs_Q>
1

> <r_epik_Metal_State_Penalty>
0.532587

> <b_epik_Metal_Only>
0

> <s_lp_Force_Field>
OPLS_2005

> <r_lp_Energy>
44.4362

> <b_lp_Chiralities_Consistent>
1

> <s_lp_Variant>
AV-unprocessed.smi:1024-1

> <Gold.Version>
5.8.1

> <Gold.Id.Protein>
6NUR|6NUR_protein|mol2

> <Gold.PLP.Fitness>
44.2623

> <Gold.PLP.PLP>
-35.9779

> <Gold.PLP.part.hbond>
-2.0000

> <Gold.PLP.part.metal>
0.0000

> <Gold.PLP.part.buried>
-5.2693

> <Gold.PLP.part.nonpolar>
-29.3706

> <Gold.PLP.part.repulsive>
0.1116

> <Gold.PLP.ligand.clash>
0.0000

> <Gold.PLP.ligand.torsion>
0.3752

> <Gold.PLP.Chemscore.Hbond>
3.0000

> <Gold.PLP.Chemscore.CHOScore>
0.0000

> <Gold.PLP.Chemscore.Metal>
0.0000

> <Gold.Chemscore.Hbonds>
donor molecule, donor type, donor heavy atom, donor atom, acceptor molecule, acceptor atom, score
      L1  H     9    48       P1  8028  1.98
      P1  H  7997  8008       L1     1  1.00

> <Gold.PLP.Chemscore.Internal.Correction>
0.0348

> <Gold.Rescore>
     Score         DG    S(hbond)    S(metal)    S(lipo)     H(rot)  DE(clash)    DE(int)     intcor
     19.45     -19.92       1.97        0.00     101.69       1.57       0.04       0.43       ----

> <Gold.Chemscore.Fitness>
19.4514

> <Gold.Chemscore.DG>
-19.9249

> <Gold.Chemscore.ZeroCoef>
-5.4800

> <Gold.Chemscore.Hbond>
1.9696

> <Gold.Chemscore.Metal>
0.0000

> <Gold.Chemscore.Lipo>
101.6904

> <Gold.Chemscore.Internal_Hbond>
0.0000

> <Gold.Chemscore.DEClash>
0.0401

> <Gold.Chemscore.DEInternal>
0.4334

> <Gold.Chemscore.Rot>
1.5747

> <Gold.Chemscore.Internal.Correction>
   9.000000E+99

> <Gold.Chemscore.Hbonds>
donor molecule, donor type, donor heavy atom, donor atom, acceptor molecule, acceptor atom, score
      L1  H     9    48       P1  8028  0.72
      P1  H  7997  8008       L1     1  1.00

> <Gold.Chemscore.Hbond.Weighted>
-6.5784

> <Gold.Chemscore.Metal.Weighted>
-0.0000

> <Gold.Chemscore.Lipo.Weighted>
-11.8978

> <Gold.Chemscore.Internal_Hbond.Weighted>
0.0000

> <Gold.Chemscore.DEClash.Weighted>
0.0401

> <Gold.Chemscore.DEInternal.Weighted>
0.4334

> <Gold.Chemscore.Rot.Weighted>
4.0313

> <Gold.Chemscore.Internal.Correction.Weighted>
   9.000000E+99

> <Gold.Protein.RotatedTorsions>
[ 6907 6896 6895 6894 ] final  -78.19 input  -60.11 | X-H torsion
[ 7974 7965 7964 7962 ] final    6.25 input  175.53 | X-H torsion
[ 8008 7997 7996 7995 ] final -119.95 input   59.86 | X-H torsion
[ 10167 10162 10161 10158 ] final   60.38 input  -65.29 | X-H torsion
[ 10718 10713 10712 10709 ] final   24.56 input   66.30 | X-H torsion
[ 10763 10752 10751 10750 ] final  -78.35 input  -60.55 | X-H torsion
[ 11005 11000 10999 10996 ] final -149.94 input  -57.11 | X-H torsion

> <Gold.Protein.ActiveResidues>
 VAL166  LYS551  ARG553  GLY616  TRP617  ASP618  TYR619  PRO620  LYS621  CYS622 
 ASP623  PHE694  ASN695  SER759  ASP760  ASP761  ALA762  ILE779  LEU786  VAL792 
 PHE793  MET794  SER795  GLU796  ALA797  LYS798  CYS799  TRP800  GLU811  SER814 

> <Gold.Protein.RotatedAtoms>
  150.6979  134.4310  159.5247 H   0  0  0  0  0  0  0  0  0  0  0  0  # atno 6907 bound_to 6896
  152.2036  134.8562  160.0514 H   0  0  0  0  0  0  0  0  0  0  0  0  # atno 6908 bound_to 6896
  151.9473  133.3620  159.4024 H   0  0  0  0  0  0  0  0  0  0  0  0  # atno 6909 bound_to 6896
  146.2436  140.0262  142.8393 H   0  0  0  0  0  0  0  0  0  0  0  0  # atno 7974 bound_to 7965
  155.1239  140.0399  157.2757 H   0  0  0  0  0  0  0  0  0  0  0  0  # atno 8008 bound_to 7997
  154.6593  140.2587  155.7101 H   0  0  0  0  0  0  0  0  0  0  0  0  # atno 8009 bound_to 7997
  156.2612  140.2820  156.1058 H   0  0  0  0  0  0  0  0  0  0  0  0  # atno 8010 bound_to 7997
  140.1662  144.4322  150.6684 H   0  0  0  0  0  0  0  0  0  0  0  0  # atno 10167 bound_to 10162
  157.1814  130.6804  149.6115 H   0  0  0  0  0  0  0  0  0  0  0  0  # atno 10718 bound_to 10713
  154.5248  135.5733  153.6710 H   0  0  0  0  0  0  0  0  0  0  0  0  # atno 10763 bound_to 10752
  152.9925  135.6190  154.2707 H   0  0  0  0  0  0  0  0  0  0  0  0  # atno 10764 bound_to 10752
  154.2630  135.2855  155.2750 H   0  0  0  0  0  0  0  0  0  0  0  0  # atno 10765 bound_to 10752
  140.7454  134.3467  157.5138 H   0  0  0  0  0  0  0  0  0  0  0  0  # atno 11005 bound_to 11000
  145.1196  140.9454  143.4608 LP  0  0  0  0  0  0  0  0  0  0  0  0  # atno 17320 bound_to 7965
  145.0494  139.3194  143.5936 LP  0  0  0  0  0  0  0  0  0  0  0  0  # atno 17321 bound_to 7965
  140.6611  143.2252  151.5853 LP  0  0  0  0  0  0  0  0  0  0  0  0  # atno 17342 bound_to 10162
  139.5358  144.2784  152.1249 LP  0  0  0  0  0  0  0  0  0  0  0  0  # atno 17343 bound_to 10162
  155.9724  130.4645  150.6221 LP  0  0  0  0  0  0  0  0  0  0  0  0  # atno 17370 bound_to 10713
  157.3948  131.0801  151.1361 LP  0  0  0  0  0  0  0  0  0  0  0  0  # atno 17371 bound_to 10713
  139.8798  134.9108  156.3021 LP  0  0  0  0  0  0  0  0  0  0  0  0  # atno 17394 bound_to 11000
  140.9799  133.7274  156.0657 LP  0  0  0  0  0  0  0  0  0  0  0  0  # atno 17395 bound_to 11000

$$$$
