AV-unprocessed.smi:1176|AV-procd|sdf|4952|dock9
  -GOLD-   22720 3543D 1   1.00000     0.00000
 Structure written by MMmdl.
 50 51  0  0  0  0  0  0  0  0  2 V2000
  146.7722  133.4287  151.1299 C   0  0  0  0  0  0  0  0  0  0  0  0
  145.5163  134.0854  151.7223 C   0  0  0  0  0  0  0  0  0  0  0  0
  144.3184  133.1246  151.6382 C   0  0  0  0  0  0  0  0  0  0  0  0
  145.2264  135.4301  151.0205 C   0  0  0  0  0  0  0  0  0  0  0  0
  146.0661  136.5473  151.5262 N   0  3  2  0  0  0  0  0  0  0  0  0
  145.9053  136.7506  152.9895 C   0  0  0  0  0  0  0  0  0  0  0  0
  146.8787  137.8179  153.5171 C   0  0  0  0  0  0  0  0  0  0  0  0
  146.7019  139.1491  152.7651 C   0  0  1  0  0  0  0  0  0  0  0  0
  147.6832  140.1360  153.2051 N   0  0  0  0  0  0  0  0  0  0  0  0
  147.7452  140.6657  154.4363 C   0  0  0  0  0  0  0  0  0  0  0  0
  146.9820  140.3424  155.3475 O   0  0  0  0  0  0  0  0  0  0  0  0
  148.8535  141.7014  154.6702 C   0  0  0  0  0  0  0  0  0  0  0  0
  149.9051  141.2217  155.5762 N   0  0  0  0  0  0  0  0  0  0  0  0
  150.1246  141.8720  156.7769 C   0  0  0  0  0  0  0  0  0  0  0  0
  151.0843  141.5095  157.6558 C   0  0  0  0  0  0  0  0  0  0  0  0
  151.9628  140.3791  157.3807 C   0  0  0  0  0  0  0  0  0  0  0  0
  152.8654  140.0287  158.1419 O   0  0  0  0  0  0  0  0  0  0  0  0
  151.7051  139.7197  156.1550 N   0  0  0  0  0  0  0  0  0  0  0  0
  152.5470  138.5985  155.7924 C   0  0  0  0  0  0  0  0  0  0  0  0
  150.7119  140.1159  155.2308 C   0  0  0  0  0  0  0  0  0  0  0  0
  150.5496  139.5341  154.1552 O   0  0  0  0  0  0  0  0  0  0  0  0
  146.8464  138.9038  151.2554 C   0  0  0  0  0  0  0  0  0  0  0  0
  145.8708  137.8164  150.7750 C   0  0  0  0  0  0  0  0  0  0  0  0
  146.6414  133.2035  150.0708 H   0  0  0  0  0  0  0  0  0  0  0  0
  147.0071  132.4949  151.6417 H   0  0  0  0  0  0  0  0  0  0  0  0
  147.6407  134.0807  151.2262 H   0  0  0  0  0  0  0  0  0  0  0  0
  145.7267  134.2662  152.7760 H   0  0  0  0  0  0  0  0  0  0  0  0
  144.0606  132.9013  150.6024 H   0  0  0  0  0  0  0  0  0  0  0  0
  143.4343  133.5438  152.1191 H   0  0  0  0  0  0  0  0  0  0  0  0
  144.5391  132.1793  152.1350 H   0  0  0  0  0  0  0  0  0  0  0  0
  145.3639  135.3403  149.9416 H   0  0  0  0  0  0  0  0  0  0  0  0
  144.1722  135.6691  151.1700 H   0  0  0  0  0  0  0  0  0  0  0  0
  144.8756  137.0390  153.2072 H   0  0  0  0  0  0  0  0  0  0  0  0
  146.0899  135.8125  153.5146 H   0  0  0  0  0  0  0  0  0  0  0  0
  146.7163  137.9619  154.5859 H   0  0  0  0  0  0  0  0  0  0  0  0
  147.9039  137.4612  153.4060 H   0  0  0  0  0  0  0  0  0  0  0  0
  145.6989  139.5371  152.9546 H   0  0  0  0  0  0  0  0  0  0  0  0
  148.3528  140.4545  152.5194 H   0  0  0  0  0  0  0  0  0  0  0  0
  149.2852  141.9622  153.7030 H   0  0  0  0  0  0  0  0  0  0  0  0
  148.4207  142.6256  155.0580 H   0  0  0  0  0  0  0  0  0  0  0  0
  149.5031  142.7201  157.0251 H   0  0  0  0  0  0  0  0  0  0  0  0
  151.2071  142.0660  158.5734 H   0  0  0  0  0  0  0  0  0  0  0  0
  151.9506  137.8641  155.2487 H   0  0  0  0  0  0  0  0  0  0  0  0
  152.9342  138.1167  156.6908 H   0  0  0  0  0  0  0  0  0  0  0  0
  153.3535  138.9955  155.1745 H   0  0  0  0  0  0  0  0  0  0  0  0
  146.6646  139.8288  150.7066 H   0  0  0  0  0  0  0  0  0  0  0  0
  147.8688  138.6013  151.0226 H   0  0  0  0  0  0  0  0  0  0  0  0
  146.0244  137.6557  149.7088 H   0  0  0  0  0  0  0  0  0  0  0  0
  144.8416  138.1584  150.8965 H   0  0  0  0  0  0  0  0  0  0  0  0
  147.0261  136.2655  151.3875 H   0  0  0  0  0  0  0  0  0  0  0  0
  1  2  1  0  0  0  0
  1 24  1  0  0  0  0
  1 25  1  0  0  0  0
  1 26  1  0  0  0  0
  2  3  1  0  0  0  0
  2  4  1  0  0  0  0
  2 27  1  0  0  0  0
  3 28  1  0  0  0  0
  3 29  1  0  0  0  0
  3 30  1  0  0  0  0
  4  5  1  0  0  0  0
  4 31  1  0  0  0  0
  4 32  1  0  0  0  0
  5 23  1  0  0  0  0
  5  6  1  0  0  0  0
  5 50  1  0  0  0  0
  6  7  1  0  0  0  0
  6 33  1  0  0  0  0
  6 34  1  0  0  0  0
  7  8  1  0  0  0  0
  7 35  1  0  0  0  0
  7 36  1  0  0  0  0
  8  9  1  0  0  0  0
  8 22  1  0  0  0  0
  8 37  1  0  0  0  0
  9 10  1  0  0  0  0
  9 38  1  0  0  0  0
 10 11  2  0  0  0  0
 10 12  1  0  0  0  0
 12 13  1  0  0  0  0
 12 39  1  0  0  0  0
 12 40  1  0  0  0  0
 13 20  1  0  0  0  0
 13 14  1  0  0  0  0
 14 15  2  0  0  0  0
 14 41  1  0  0  0  0
 15 16  1  0  0  0  0
 15 42  1  0  0  0  0
 16 17  2  0  0  0  0
 16 18  1  0  0  0  0
 18 19  1  0  0  0  0
 18 20  1  0  0  0  0
 19 43  1  0  0  0  0
 19 44  1  0  0  0  0
 19 45  1  0  0  0  0
 20 21  2  0  0  0  0
 22 23  1  0  0  0  0
 22 46  1  0  0  0  0
 22 47  1  0  0  0  0
 23 48  1  0  0  0  0
 23 49  1  0  0  0  0
M  CHG  1   5   1
M  END
> <s_m_source_file>
AV-unprocessed.smi

> <i_m_source_file_index>
1176

> <i_lp_mmshare_version>
43012

> <i_f3d_flags>
0

> <s_epik_input>
W0NIM11bQ0hdKFtDSDNdKVtDSDJdTjFbQ0gyXVtDSDJdW0NIXShbQ0gyXVtDSDJdMSlbTkhdQyg9TylbQ0gyXW4yW2NIXVtjSF1jKD1PKW4oW0NIM10pYzI9Tw==

> <s_epik_cmdline>
J2VwaWtfcHl0aG9uJywgJy1waCcsICc3LjAnLCAnLXRuJywgJzgnLCAnLW1hJywgJzIwMCcsICctbWV0YWxfYmluZGluZycsICctaW1hZScsICc8aW5maWxlLm1hZT4nLCAnLW9tYWUnLCAnPG91dGZpbGUubWFlPic=

> <r_lp_tautomer_probability>
1

> <r_epik_Ionization_Penalty>
0.00401429

> <r_epik_Ionization_Penalty_Charging>
0.00401425

> <r_epik_Ionization_Penalty_Neutral>
4.29561e-08

> <r_epik_State_Penalty>
0.00287487

> <r_epik_Charging_Adjusted_Penalty>
0.00688912

> <i_epik_Tot_Q>
1

> <i_epik_Tot_abs_Q>
1

> <r_epik_Metal_State_Penalty>
-0

> <b_epik_Metal_Only>
0

> <s_lp_Force_Field>
OPLS_2005

> <r_lp_Energy>
26.9025

> <b_lp_Chiralities_Consistent>
1

> <s_lp_Variant>
AV-unprocessed.smi:1176-1

> <Gold.Version>
5.8.1

> <Gold.Id.Protein>
6NUR|6NUR_protein|mol2

> <Gold.PLP.Fitness>
54.0466

> <Gold.PLP.PLP>
-39.1054

> <Gold.PLP.part.hbond>
-4.0000

> <Gold.PLP.part.metal>
0.0000

> <Gold.PLP.part.buried>
6.8470

> <Gold.PLP.part.nonpolar>
-42.5045

> <Gold.PLP.part.repulsive>
0.3682

> <Gold.PLP.ligand.clash>
0.0000

> <Gold.PLP.ligand.torsion>
0.3379

> <Gold.PLP.Chemscore.Hbond>
4.1920

> <Gold.PLP.Chemscore.CHOScore>
1.0000

> <Gold.PLP.Chemscore.Metal>
0.0000

> <Gold.Chemscore.Hbonds>
donor molecule, donor type, donor heavy atom, donor atom, acceptor molecule, acceptor atom, score
      L1  H     5    50       P1  7948  2.00
      L1  H     9    38       P1  7957  0.99
      P1  H  7989  7998       L1    21  0.25
      P1  H  7997  8010       L1    17  0.88
      L1  C    14    41       P1  8028  1.00

> <Gold.PLP.Chemscore.Internal.Correction>
0.0411

> <Gold.Rescore>
     Score         DG    S(hbond)    S(metal)    S(lipo)     H(rot)  DE(clash)    DE(int)     intcor
     14.40     -19.26       2.48        0.00      88.86       1.92       3.55       1.30       ----

> <Gold.Chemscore.Fitness>
14.3994

> <Gold.Chemscore.DG>
-19.2589

> <Gold.Chemscore.ZeroCoef>
-5.4800

> <Gold.Chemscore.Hbond>
2.4840

> <Gold.Chemscore.Metal>
0.0000

> <Gold.Chemscore.Lipo>
88.8620

> <Gold.Chemscore.Internal_Hbond>
0.0000

> <Gold.Chemscore.DEClash>
3.5550

> <Gold.Chemscore.DEInternal>
1.3045

> <Gold.Chemscore.Rot>
1.9198

> <Gold.Chemscore.Internal.Correction>
   9.000000E+99

> <Gold.Chemscore.Hbonds>
donor molecule, donor type, donor heavy atom, donor atom, acceptor molecule, acceptor atom, score
      L1  H     5    50       P1  7948  0.97
      L1  H     9    38       P1  7957  0.93
      P1  H  7997  8010       L1    17  0.18

> <Gold.Chemscore.Hbond.Weighted>
-8.2967

> <Gold.Chemscore.Metal.Weighted>
-0.0000

> <Gold.Chemscore.Lipo.Weighted>
-10.3969

> <Gold.Chemscore.Internal_Hbond.Weighted>
0.0000

> <Gold.Chemscore.DEClash.Weighted>
3.5550

> <Gold.Chemscore.DEInternal.Weighted>
1.3045

> <Gold.Chemscore.Rot.Weighted>
4.9147

> <Gold.Chemscore.Internal.Correction.Weighted>
   9.000000E+99

> <Gold.Protein.RotatedTorsions>
[ 6907 6896 6895 6894 ] final  135.83 input  -60.11 | X-H torsion
[ 7974 7965 7964 7962 ] final  167.52 input  175.53 | X-H torsion
[ 8008 7997 7996 7995 ] final   49.21 input   59.86 | X-H torsion
[ 10167 10162 10161 10158 ] final   60.92 input  -65.29 | X-H torsion
[ 10718 10713 10712 10709 ] final  164.22 input   66.30 | X-H torsion
[ 10763 10752 10751 10750 ] final  -32.37 input  -60.55 | X-H torsion
[ 11005 11000 10999 10996 ] final  -74.43 input  -57.11 | X-H torsion

> <Gold.Protein.ActiveResidues>
 VAL166  LYS551  ARG553  GLY616  TRP617  ASP618  TYR619  PRO620  LYS621  CYS622 
 ASP623  PHE694  ASN695  SER759  ASP760  ASP761  ALA762  ILE779  LEU786  VAL792 
 PHE793  MET794  SER795  GLU796  ALA797  LYS798  CYS799  TRP800  GLU811  SER814 

> <Gold.Protein.RotatedAtoms>
  152.2961  133.5609  159.5588 H   0  0  0  0  0  0  0  0  0  0  0  0  # atno 6907 bound_to 6896
  150.7256  134.0359  159.3758 H   0  0  0  0  0  0  0  0  0  0  0  0  # atno 6908 bound_to 6896
  151.8262  135.0636  160.0482 H   0  0  0  0  0  0  0  0  0  0  0  0  # atno 6909 bound_to 6896
  144.7421  139.8773  143.6393 H   0  0  0  0  0  0  0  0  0  0  0  0  # atno 7974 bound_to 7965
  155.3984  140.3436  155.4255 H   0  0  0  0  0  0  0  0  0  0  0  0  # atno 8008 bound_to 7997
  156.1517  140.1573  156.8790 H   0  0  0  0  0  0  0  0  0  0  0  0  # atno 8009 bound_to 7997
  154.5059  140.0802  156.7874 H   0  0  0  0  0  0  0  0  0  0  0  0  # atno 8010 bound_to 7997
  140.1604  144.4376  150.6712 H   0  0  0  0  0  0  0  0  0  0  0  0  # atno 10167 bound_to 10162
  157.0974  131.0434  151.2512 H   0  0  0  0  0  0  0  0  0  0  0  0  # atno 10718 bound_to 10713
  153.8127  135.6881  153.4838 H   0  0  0  0  0  0  0  0  0  0  0  0  # atno 10763 bound_to 10752
  153.1618  135.4577  154.9781 H   0  0  0  0  0  0  0  0  0  0  0  0  # atno 10764 bound_to 10752
  154.7961  135.3319  154.7606 H   0  0  0  0  0  0  0  0  0  0  0  0  # atno 10765 bound_to 10752
  141.1635  133.6911  156.7364 H   0  0  0  0  0  0  0  0  0  0  0  0  # atno 11005 bound_to 11000
  146.1237  139.4259  143.0212 LP  0  0  0  0  0  0  0  0  0  0  0  0  # atno 17320 bound_to 7965
  145.7267  141.0056  143.1374 LP  0  0  0  0  0  0  0  0  0  0  0  0  # atno 17321 bound_to 7965
  140.6647  143.2264  151.5772 LP  0  0  0  0  0  0  0  0  0  0  0  0  # atno 17342 bound_to 10162
  139.5384  144.2716  152.1300 LP  0  0  0  0  0  0  0  0  0  0  0  0  # atno 17343 bound_to 10162
  157.4670  130.7686  149.7288 LP  0  0  0  0  0  0  0  0  0  0  0  0  # atno 17370 bound_to 10713
  155.9882  130.3961  150.3128 LP  0  0  0  0  0  0  0  0  0  0  0  0  # atno 17371 bound_to 10713
  140.2707  134.8394  157.3844 LP  0  0  0  0  0  0  0  0  0  0  0  0  # atno 17394 bound_to 11000
  140.1524  134.4833  155.7952 LP  0  0  0  0  0  0  0  0  0  0  0  0  # atno 17395 bound_to 11000

$$$$
