AV-unprocessed.smi:414|AV-procd|sdf|2514|dock6
  -GOLD-   2262022463D 1   1.00000     0.00000
 Structure written by MMmdl.
 38 39  0  0  0  0  0  0  0  0  1 V2000
  151.5496  145.3868  160.0454 C   0  0  0  0  0  0  0  0  0  0  0  0
  152.4929  144.1812  160.1625 C   0  0  2  0  0  0  0  0  0  0  0  0
  152.2058  143.1325  159.0710 C   0  0  0  0  0  0  0  0  0  0  0  0
  153.1471  141.9227  159.1873 C   0  0  0  0  0  0  0  0  0  0  0  0
  153.0684  141.2797  160.5837 C   0  0  1  0  0  0  0  0  0  0  0  0
  154.0168  140.1732  160.6672 N   0  0  0  0  0  0  0  0  0  0  0  0
  153.8056  138.9326  160.2012 C   0  0  0  0  0  0  0  0  0  0  0  0
  152.7562  138.5861  159.6570 O   0  0  0  0  0  0  0  0  0  0  0  0
  154.9517  137.9316  160.4068 C   0  0  0  0  0  0  0  0  0  0  0  0
  154.7635  137.0762  161.5877 N   0  0  0  0  0  0  0  0  0  0  0  0
  154.7944  137.6246  162.8620 C   0  0  0  0  0  0  0  0  0  0  0  0
  154.6171  136.8981  163.9909 C   0  0  0  0  0  0  0  0  0  0  0  0
  154.3778  135.4609  163.9144 C   0  0  0  0  0  0  0  0  0  0  0  0
  154.2071  134.7179  164.8784 O   0  0  0  0  0  0  0  0  0  0  0  0
  154.3515  134.9470  162.6151 N   0  0  0  0  0  0  0  0  0  0  0  0
  154.5319  135.6903  161.4475 C   0  0  0  0  0  0  0  0  0  0  0  0
  154.4854  135.1375  160.3491 O   0  0  0  0  0  0  0  0  0  0  0  0
  153.3529  142.3259  161.6801 C   0  0  0  0  0  0  0  0  0  0  0  0
  152.4127  143.5362  161.5593 C   0  0  0  0  0  0  0  0  0  0  0  0
  154.1858  133.9563  162.5124 H   0  0  0  0  0  0  0  0  0  0  0  0
  150.5086  145.0905  160.1788 H   0  0  0  0  0  0  0  0  0  0  0  0
  151.6383  145.8615  159.0676 H   0  0  0  0  0  0  0  0  0  0  0  0
  151.7804  146.1406  160.7988 H   0  0  0  0  0  0  0  0  0  0  0  0
  153.5111  144.5462  160.0190 H   0  0  0  0  0  0  0  0  0  0  0  0
  151.1710  142.7951  159.1462 H   0  0  0  0  0  0  0  0  0  0  0  0
  152.3119  143.5829  158.0834 H   0  0  0  0  0  0  0  0  0  0  0  0
  152.8938  141.1873  158.4225 H   0  0  0  0  0  0  0  0  0  0  0  0
  154.1704  142.2412  158.9824 H   0  0  0  0  0  0  0  0  0  0  0  0
  152.0570  140.8910  160.7199 H   0  0  0  0  0  0  0  0  0  0  0  0
  154.9049  140.3683  161.1061 H   0  0  0  0  0  0  0  0  0  0  0  0
  155.0705  137.3161  159.5125 H   0  0  0  0  0  0  0  0  0  0  0  0
  155.8816  138.4956  160.4930 H   0  0  0  0  0  0  0  0  0  0  0  0
  154.9642  138.6868  162.9668 H   0  0  0  0  0  0  0  0  0  0  0  0
  154.6512  137.3832  164.9556 H   0  0  0  0  0  0  0  0  0  0  0  0
  153.2416  141.8774  162.6681 H   0  0  0  0  0  0  0  0  0  0  0  0
  154.3879  142.6636  161.6095 H   0  0  0  0  0  0  0  0  0  0  0  0
  152.6647  144.2707  162.3249 H   0  0  0  0  0  0  0  0  0  0  0  0
  151.3885  143.2197  161.7614 H   0  0  0  0  0  0  0  0  0  0  0  0
  1  2  1  0  0  0  0
  1 21  1  0  0  0  0
  1 22  1  0  0  0  0
  1 23  1  0  0  0  0
  2 19  1  0  0  0  0
  2  3  1  0  0  0  0
  2 24  1  0  0  0  0
  3  4  1  0  0  0  0
  3 25  1  0  0  0  0
  3 26  1  0  0  0  0
  4  5  1  0  0  0  0
  4 27  1  0  0  0  0
  4 28  1  0  0  0  0
  5  6  1  0  0  0  0
  5 18  1  0  0  0  0
  5 29  1  0  0  0  0
  6  7  1  0  0  0  0
  6 30  1  0  0  0  0
  7  8  2  0  0  0  0
  7  9  1  0  0  0  0
  9 10  1  0  0  0  0
  9 31  1  0  0  0  0
  9 32  1  0  0  0  0
 10 16  1  0  0  0  0
 10 11  1  0  0  0  0
 11 12  2  0  0  0  0
 11 33  1  0  0  0  0
 12 13  1  0  0  0  0
 12 34  1  0  0  0  0
 13 14  2  0  0  0  0
 13 15  1  0  0  0  0
 15 20  1  0  0  0  0
 15 16  1  0  0  0  0
 16 17  2  0  0  0  0
 18 19  1  0  0  0  0
 18 35  1  0  0  0  0
 18 36  1  0  0  0  0
 19 37  1  0  0  0  0
 19 38  1  0  0  0  0
M  END
> <s_m_source_file>
AV-unprocessed.smi

> <i_m_source_file_index>
414

> <i_lp_mmshare_version>
43012

> <i_f3d_flags>
0

> <s_epik_input>
W0NIM11bQ0BASF0xW0NIMl1bQ0gyXVtDQEhdKFtDSDJdW0NIMl0xKVtOSF1DKD1PKVtDSDJdbjJbY0hdW2NIXWMoPU8pW25IXWMyPU8=

> <s_epik_cmdline>
J2VwaWtfcHl0aG9uJywgJy1waCcsICc3LjAnLCAnLXRuJywgJzgnLCAnLW1hJywgJzIwMCcsICctbWV0YWxfYmluZGluZycsICctaW1hZScsICc8aW5maWxlLm1hZT4nLCAnLW9tYWUnLCAnPG91dGZpbGUubWFlPic=

> <r_lp_tautomer_probability>
0.999537

> <r_epik_Ionization_Penalty>
0.00309124

> <r_epik_Ionization_Penalty_Charging>
0.00309122

> <r_epik_Ionization_Penalty_Neutral>
1.90469e-08

> <r_epik_State_Penalty>
0.00217484

> <r_epik_Charging_Adjusted_Penalty>
0.00526606

> <i_epik_Tot_Q>
0

> <i_epik_Tot_abs_Q>
0

> <r_epik_Metal_State_Penalty>
0.362537

> <b_epik_Metal_Only>
0

> <s_lp_Force_Field>
OPLS_2005

> <r_lp_Energy>
8.30971

> <b_lp_Chiralities_Consistent>
1

> <s_lp_Variant>
AV-unprocessed.smi:414-1

> <Gold.Version>
5.8.1

> <Gold.Id.Protein>
6NUR|6NUR_protein|mol2

> <Gold.PLP.Fitness>
41.3653

> <Gold.PLP.PLP>
-40.1399

> <Gold.PLP.part.hbond>
-0.8203

> <Gold.PLP.part.metal>
0.0000

> <Gold.PLP.part.buried>
-5.4447

> <Gold.PLP.part.nonpolar>
-33.9330

> <Gold.PLP.part.repulsive>
0.2013

> <Gold.PLP.ligand.clash>
0.0000

> <Gold.PLP.ligand.torsion>
0.6815

> <Gold.PLP.Chemscore.Hbond>
0.8613

> <Gold.PLP.Chemscore.CHOScore>
0.0000

> <Gold.PLP.Chemscore.Metal>
0.0000

> <Gold.Chemscore.Hbonds>
donor molecule, donor type, donor heavy atom, donor atom, acceptor molecule, acceptor atom, score
      P1  H  6896  6907       L1    17  0.86

> <Gold.PLP.Chemscore.Internal.Correction>
0.0047

> <Gold.Rescore>
     Score         DG    S(hbond)    S(metal)    S(lipo)     H(rot)  DE(clash)    DE(int)     intcor
     14.63     -15.57       0.95        0.00      96.21       1.69       0.14       0.80       ----

> <Gold.Chemscore.Fitness>
14.6319

> <Gold.Chemscore.DG>
-15.5730

> <Gold.Chemscore.ZeroCoef>
-5.4800

> <Gold.Chemscore.Hbond>
0.9450

> <Gold.Chemscore.Metal>
0.0000

> <Gold.Chemscore.Lipo>
96.2088

> <Gold.Chemscore.Internal_Hbond>
0.0000

> <Gold.Chemscore.DEClash>
0.1388

> <Gold.Chemscore.DEInternal>
0.8023

> <Gold.Chemscore.Rot>
1.6874

> <Gold.Chemscore.Internal.Correction>
   9.000000E+99

> <Gold.Chemscore.Hbonds>
donor molecule, donor type, donor heavy atom, donor atom, acceptor molecule, acceptor atom, score
      P1  H  6896  6907       L1    17  0.55

> <Gold.Chemscore.Hbond.Weighted>
-3.1564

> <Gold.Chemscore.Metal.Weighted>
-0.0000

> <Gold.Chemscore.Lipo.Weighted>
-11.2564

> <Gold.Chemscore.Internal_Hbond.Weighted>
0.0000

> <Gold.Chemscore.DEClash.Weighted>
0.1388

> <Gold.Chemscore.DEInternal.Weighted>
0.8023

> <Gold.Chemscore.Rot.Weighted>
4.3198

> <Gold.Chemscore.Internal.Correction.Weighted>
   9.000000E+99

> <Gold.Protein.RotatedTorsions>
[ 6907 6896 6895 6894 ] final   66.06 input  -60.11 | X-H torsion
[ 7974 7965 7964 7962 ] final  178.83 input  175.53 | X-H torsion
[ 8008 7997 7996 7995 ] final  115.80 input   59.86 | X-H torsion
[ 10167 10162 10161 10158 ] final  113.99 input  -65.29 | X-H torsion
[ 10718 10713 10712 10709 ] final -158.25 input   66.30 | X-H torsion
[ 10763 10752 10751 10750 ] final  137.42 input  -60.55 | X-H torsion
[ 11005 11000 10999 10996 ] final  123.20 input  -57.11 | X-H torsion

> <Gold.Protein.ActiveResidues>
 VAL166  LYS551  ARG553  GLY616  TRP617  ASP618  TYR619  PRO620  LYS621  CYS622 
 ASP623  PHE694  ASN695  SER759  ASP760  ASP761  ALA762  ILE779  LEU786  VAL792 
 PHE793  MET794  SER795  GLU796  ALA797  LYS798  CYS799  TRP800  GLU811  SER814 

> <Gold.Protein.RotatedAtoms>
  152.4453  134.5507  159.9865 H   0  0  0  0  0  0  0  0  0  0  0  0  # atno 6907 bound_to 6896
  151.5593  133.3400  159.2976 H   0  0  0  0  0  0  0  0  0  0  0  0  # atno 6908 bound_to 6896
  150.8368  134.7677  159.6963 H   0  0  0  0  0  0  0  0  0  0  0  0  # atno 6909 bound_to 6896
  144.7152  140.0456  143.6436 H   0  0  0  0  0  0  0  0  0  0  0  0  # atno 7974 bound_to 7965
  156.2403  140.2931  156.0425 H   0  0  0  0  0  0  0  0  0  0  0  0  # atno 8008 bound_to 7997
  155.1971  140.0408  157.2928 H   0  0  0  0  0  0  0  0  0  0  0  0  # atno 8009 bound_to 7997
  154.6155  140.2462  155.7622 H   0  0  0  0  0  0  0  0  0  0  0  0  # atno 8010 bound_to 7997
  139.6421  144.7124  151.2217 H   0  0  0  0  0  0  0  0  0  0  0  0  # atno 10167 bound_to 10162
  156.5515  130.8607  151.2781 H   0  0  0  0  0  0  0  0  0  0  0  0  # atno 10718 bound_to 10713
  153.8728  135.3053  155.3442 H   0  0  0  0  0  0  0  0  0  0  0  0  # atno 10763 bound_to 10752
  154.7797  135.4842  153.9822 H   0  0  0  0  0  0  0  0  0  0  0  0  # atno 10764 bound_to 10752
  153.1396  135.6821  153.9144 H   0  0  0  0  0  0  0  0  0  0  0  0  # atno 10765 bound_to 10752
  139.9302  134.9641  156.8223 H   0  0  0  0  0  0  0  0  0  0  0  0  # atno 11005 bound_to 11000
  145.9987  139.3073  143.0941 LP  0  0  0  0  0  0  0  0  0  0  0  0  # atno 17320 bound_to 7965
  145.8819  140.9357  143.0597 LP  0  0  0  0  0  0  0  0  0  0  0  0  # atno 17321 bound_to 7965
  140.7496  143.6294  150.8437 LP  0  0  0  0  0  0  0  0  0  0  0  0  # atno 17342 bound_to 10162
  139.9933  143.5823  152.2902 LP  0  0  0  0  0  0  0  0  0  0  0  0  # atno 17343 bound_to 10162
  157.7386  130.9817  150.2265 LP  0  0  0  0  0  0  0  0  0  0  0  0  # atno 17370 bound_to 10713
  156.2880  130.3742  149.7869 LP  0  0  0  0  0  0  0  0  0  0  0  0  # atno 17371 bound_to 10713
  140.6224  133.9982  155.7624 LP  0  0  0  0  0  0  0  0  0  0  0  0  # atno 17394 bound_to 11000
  141.0885  133.9953  157.3274 LP  0  0  0  0  0  0  0  0  0  0  0  0  # atno 17395 bound_to 11000

$$$$
