AV-unprocessed.smi:1803|AV-procd|sdf|7281|dock5
  -GOLD-   22720 8543D 1   1.00000     0.00000
 Structure written by MMmdl.
 36 38  0  0  0  0  0  0  0  0  2 V2000
  145.4112  136.9959  154.3735 O   0  0  0  0  0  0  0  0  0  0  0  0
  146.4571  136.8673  153.7402 C   0  0  0  0  0  0  0  0  0  0  0  0
  147.2815  137.9175  153.5375 N   0  0  0  0  0  0  0  0  0  0  0  0
  147.1933  139.2838  153.9369 C   0  0  0  0  0  0  0  0  0  0  0  0
  146.0519  139.9083  154.2710 N   0  0  0  0  0  0  0  0  0  0  0  0
  146.2648  141.2326  154.6290 N   0  0  0  0  0  0  0  0  0  0  0  0
  147.5587  141.5566  154.5586 C   0  0  0  0  0  0  0  0  0  0  0  0
  148.6421  140.2745  154.0467 S   0  0  0  0  0  0  0  0  0  0  0  0
  146.8466  135.6929  153.2177 N   0  0  0  0  0  0  0  0  0  0  0  0
  146.1096  134.4365  153.3041 C   0  0  2  0  0  0  0  0  0  0  0  0
  146.9194  133.3155  153.9793 C   0  0  0  0  0  0  0  0  0  0  0  0
  146.5695  132.0316  153.2012 C   0  0  0  0  0  0  0  0  0  0  0  0
  145.5370  132.4341  152.2276 N   0  3  2  0  0  0  0  0  0  0  0  0
  145.3959  131.6022  151.0127 C   0  0  0  0  0  0  0  0  0  0  0  0
  144.2185  132.1311  150.1691 C   0  0  0  0  0  0  0  0  0  0  0  0
  144.3595  133.6378  149.8714 C   0  0  0  0  0  0  0  0  0  0  0  0
  144.5985  134.4408  151.1645 C   0  0  0  0  0  0  0  0  0  0  0  0
  145.7977  133.8494  151.9251 C   0  0  1  0  0  0  0  0  0  0  0  0
  148.1269  137.6890  153.0344 H   0  0  0  0  0  0  0  0  0  0  0  0
  147.8775  142.5572  154.8109 H   0  0  0  0  0  0  0  0  0  0  0  0
  147.7226  135.6738  152.7145 H   0  0  0  0  0  0  0  0  0  0  0  0
  145.1806  134.5727  153.8620 H   0  0  0  0  0  0  0  0  0  0  0  0
  147.9923  133.5034  153.9149 H   0  0  0  0  0  0  0  0  0  0  0  0
  146.6655  133.2315  155.0365 H   0  0  0  0  0  0  0  0  0  0  0  0
  147.4523  131.6589  152.6793 H   0  0  0  0  0  0  0  0  0  0  0  0
  146.1999  131.2382  153.8514 H   0  0  0  0  0  0  0  0  0  0  0  0
  146.3216  131.6262  150.4355 H   0  0  0  0  0  0  0  0  0  0  0  0
  145.2190  130.5646  151.2973 H   0  0  0  0  0  0  0  0  0  0  0  0
  144.1447  131.5706  149.2367 H   0  0  0  0  0  0  0  0  0  0  0  0
  143.2847  131.9581  150.7062 H   0  0  0  0  0  0  0  0  0  0  0  0
  145.1947  133.7951  149.1876 H   0  0  0  0  0  0  0  0  0  0  0  0
  143.4688  134.0049  149.3604 H   0  0  0  0  0  0  0  0  0  0  0  0
  144.7805  135.4879  150.9216 H   0  0  0  0  0  0  0  0  0  0  0  0
  143.7053  134.4141  151.7903 H   0  0  0  0  0  0  0  0  0  0  0  0
  146.6913  133.9118  151.2992 H   0  0  0  0  0  0  0  0  0  0  0  0
  144.6539  132.4055  152.7170 H   0  0  0  0  0  0  0  0  0  0  0  0
  1  2  2  0  0  0  0
  2  3  1  0  0  0  0
  2  9  1  0  0  0  0
  3  4  1  0  0  0  0
  3 19  1  0  0  0  0
  4  8  1  0  0  0  0
  4  5  2  0  0  0  0
  5  6  1  0  0  0  0
  6  7  2  0  0  0  0
  7  8  1  0  0  0  0
  7 20  1  0  0  0  0
  9 10  1  0  0  0  0
  9 21  1  0  0  0  0
 10 18  1  0  0  0  0
 10 11  1  0  0  0  0
 10 22  1  0  0  0  0
 11 12  1  0  0  0  0
 11 23  1  0  0  0  0
 11 24  1  0  0  0  0
 12 13  1  0  0  0  0
 12 25  1  0  0  0  0
 12 26  1  0  0  0  0
 13 18  1  0  0  0  0
 13 14  1  0  0  0  0
 13 36  1  0  0  0  0
 14 15  1  0  0  0  0
 14 27  1  0  0  0  0
 14 28  1  0  0  0  0
 15 16  1  0  0  0  0
 15 29  1  0  0  0  0
 15 30  1  0  0  0  0
 16 17  1  0  0  0  0
 16 31  1  0  0  0  0
 16 32  1  0  0  0  0
 17 18  1  0  0  0  0
 17 33  1  0  0  0  0
 17 34  1  0  0  0  0
 18 35  1  0  0  0  0
M  CHG  1  13   1
M  END
> <s_m_source_file>
AV-unprocessed.smi

> <i_m_source_file_index>
1803

> <i_lp_mmshare_version>
43012

> <i_f3d_flags>
0

> <s_epik_input>
czFbY0hdbm5jMVtOSF1DKD1PKVtOSF1bQ0BIXShbQ0gyXVtDSDJdMilbQ0BASF0oTjIzKVtDSDJdW0NIMl1bQ0gyXVtDSDJdMw==

> <s_epik_cmdline>
J2VwaWtfcHl0aG9uJywgJy1waCcsICc3LjAnLCAnLXRuJywgJzgnLCAnLW1hJywgJzIwMCcsICctbWV0YWxfYmluZGluZycsICctaW1hZScsICc8aW5maWxlLm1hZT4nLCAnLW9tYWUnLCAnPG91dGZpbGUubWFlPic=

> <r_lp_tautomer_probability>
1

> <r_epik_Ionization_Penalty>
0.00213286

> <r_epik_Ionization_Penalty_Charging>
0.00107044

> <r_epik_Ionization_Penalty_Neutral>
0.00106242

> <r_epik_State_Penalty>
-0

> <r_epik_Charging_Adjusted_Penalty>
0.00107044

> <i_epik_Tot_Q>
1

> <i_epik_Tot_abs_Q>
1

> <r_epik_Metal_State_Penalty>
0.292783

> <b_epik_Metal_Only>
0

> <s_lp_Force_Field>
OPLS_2005

> <r_lp_Energy>
35.8307

> <b_lp_Chiralities_Consistent>
1

> <s_lp_Variant>
AV-unprocessed.smi:1803-3

> <Gold.Version>
5.8.1

> <Gold.Id.Protein>
6NUR|6NUR_protein|mol2

> <Gold.PLP.Fitness>
31.6014

> <Gold.PLP.PLP>
-23.2684

> <Gold.PLP.part.hbond>
-1.9394

> <Gold.PLP.part.metal>
0.0000

> <Gold.PLP.part.buried>
-2.2522

> <Gold.PLP.part.nonpolar>
-19.4137

> <Gold.PLP.part.repulsive>
0.2984

> <Gold.PLP.ligand.clash>
0.0000

> <Gold.PLP.ligand.torsion>
0.1103

> <Gold.PLP.Chemscore.Hbond>
1.8480

> <Gold.PLP.Chemscore.CHOScore>
1.0000

> <Gold.PLP.Chemscore.Metal>
0.0000

> <Gold.Chemscore.Hbonds>
donor molecule, donor type, donor heavy atom, donor atom, acceptor molecule, acceptor atom, score
      L1  H     3    19       P1  7948  0.84
      L1  H     9    21       P1  7948  1.00
      L1  C     7    20       P1  8028  1.00

> <Gold.PLP.Chemscore.Internal.Correction>
0.0096

> <Gold.Rescore>
     Score         DG    S(hbond)    S(metal)    S(lipo)     H(rot)  DE(clash)    DE(int)     intcor
     15.04     -16.28       1.85        0.00      61.48       1.00       0.01       1.23       ----

> <Gold.Chemscore.Fitness>
15.0423

> <Gold.Chemscore.DG>
-16.2814

> <Gold.Chemscore.ZeroCoef>
-5.4800

> <Gold.Chemscore.Hbond>
1.8469

> <Gold.Chemscore.Metal>
0.0000

> <Gold.Chemscore.Lipo>
61.4758

> <Gold.Chemscore.Internal_Hbond>
0.0000

> <Gold.Chemscore.DEClash>
0.0067

> <Gold.Chemscore.DEInternal>
1.2324

> <Gold.Chemscore.Rot>
1.0000

> <Gold.Chemscore.Internal.Correction>
   9.000000E+99

> <Gold.Chemscore.Hbonds>
donor molecule, donor type, donor heavy atom, donor atom, acceptor molecule, acceptor atom, score
      L1  H     3    19       P1  7948  0.78
      L1  H     9    21       P1  7948  0.97

> <Gold.Chemscore.Hbond.Weighted>
-6.1687

> <Gold.Chemscore.Metal.Weighted>
-0.0000

> <Gold.Chemscore.Lipo.Weighted>
-7.1927

> <Gold.Chemscore.Internal_Hbond.Weighted>
0.0000

> <Gold.Chemscore.DEClash.Weighted>
0.0067

> <Gold.Chemscore.DEInternal.Weighted>
1.2324

> <Gold.Chemscore.Rot.Weighted>
2.5600

> <Gold.Chemscore.Internal.Correction.Weighted>
   9.000000E+99

> <Gold.Protein.RotatedTorsions>
[ 6907 6896 6895 6894 ] final  -28.77 input  -60.11 | X-H torsion
[ 7974 7965 7964 7962 ] final  109.64 input  175.53 | X-H torsion
[ 8008 7997 7996 7995 ] final  149.91 input   59.86 | X-H torsion
[ 10167 10162 10161 10158 ] final   83.29 input  -65.29 | X-H torsion
[ 10718 10713 10712 10709 ] final  167.40 input   66.30 | X-H torsion
[ 10763 10752 10751 10750 ] final    5.35 input  -60.55 | X-H torsion
[ 11005 11000 10999 10996 ] final  -20.04 input  -57.11 | X-H torsion

> <Gold.Protein.ActiveResidues>
 VAL166  LYS551  ARG553  GLY616  TRP617  ASP618  TYR619  PRO620  LYS621  CYS622 
 ASP623  PHE694  ASN695  SER759  ASP760  ASP761  ALA762  ILE779  LEU786  VAL792 
 PHE793  MET794  SER795  GLU796  ALA797  LYS798  CYS799  TRP800  GLU811  SER814 

> <Gold.Protein.RotatedAtoms>
  151.1284  135.0117  159.8570 H   0  0  0  0  0  0  0  0  0  0  0  0  # atno 6907 bound_to 6896
  152.5450  134.1640  159.8579 H   0  0  0  0  0  0  0  0  0  0  0  0  # atno 6908 bound_to 6896
  151.1704  133.4743  159.2627 H   0  0  0  0  0  0  0  0  0  0  0  0  # atno 6909 bound_to 6896
  145.2652  139.2687  143.3996 H   0  0  0  0  0  0  0  0  0  0  0  0  # atno 7974 bound_to 7965
  156.2736  140.2089  156.5933 H   0  0  0  0  0  0  0  0  0  0  0  0  # atno 8008 bound_to 7997
  154.6965  140.0525  157.0439 H   0  0  0  0  0  0  0  0  0  0  0  0  # atno 8009 bound_to 7997
  155.0794  140.3185  155.4609 H   0  0  0  0  0  0  0  0  0  0  0  0  # atno 8010 bound_to 7997
  139.9199  144.6219  150.8450 H   0  0  0  0  0  0  0  0  0  0  0  0  # atno 10167 bound_to 10162
  157.0521  131.0316  151.2677 H   0  0  0  0  0  0  0  0  0  0  0  0  # atno 10718 bound_to 10713
  153.2604  135.6922  153.7584 H   0  0  0  0  0  0  0  0  0  0  0  0  # atno 10763 bound_to 10752
  153.6645  135.3354  155.3137 H   0  0  0  0  0  0  0  0  0  0  0  0  # atno 10764 bound_to 10752
  154.8428  135.4485  154.1593 H   0  0  0  0  0  0  0  0  0  0  0  0  # atno 10765 bound_to 10752
  140.8425  133.7915  155.9877 H   0  0  0  0  0  0  0  0  0  0  0  0  # atno 11005 bound_to 11000
  146.3263  140.3079  142.8625 LP  0  0  0  0  0  0  0  0  0  0  0  0  # atno 17320 bound_to 7965
  144.9383  140.8051  143.5646 LP  0  0  0  0  0  0  0  0  0  0  0  0  # atno 17321 bound_to 7965
  140.7665  143.3304  151.2422 LP  0  0  0  0  0  0  0  0  0  0  0  0  # atno 17342 bound_to 10162
  139.6870  143.9756  152.2839 LP  0  0  0  0  0  0  0  0  0  0  0  0  # atno 17343 bound_to 10162
  157.5022  130.7887  149.7616 LP  0  0  0  0  0  0  0  0  0  0  0  0  # atno 17370 bound_to 10713
  156.0004  130.3883  150.2627 LP  0  0  0  0  0  0  0  0  0  0  0  0  # atno 17371 bound_to 10713
  140.8879  134.2531  157.5110 LP  0  0  0  0  0  0  0  0  0  0  0  0  # atno 17394 bound_to 11000
  139.8703  134.9647  156.4504 LP  0  0  0  0  0  0  0  0  0  0  0  0  # atno 17395 bound_to 11000

$$$$
