AV-unprocessed.smi:94|AV-procd|sdf|853|dock4
  -GOLD-   2262017293D 1   1.00000     0.00000
 Structure written by MMmdl.
 53 55  0  0  0  0  0  0  0  0  1 V2000
  149.1218  141.2176  154.2883 C   0  0  0  0  0  0  0  0  0  0  0  0
  150.2544  140.5050  154.7642 O   0  0  0  0  0  0  0  0  0  0  0  0
  150.8771  140.9495  155.9135 C   0  0  0  0  0  0  0  0  0  0  0  0
  150.7403  142.2710  156.4110 C   0  0  0  0  0  0  0  0  0  0  0  0
  151.3922  142.6665  157.5939 C   0  0  0  0  0  0  0  0  0  0  0  0
  152.1871  141.7476  158.3032 C   0  0  0  0  0  0  0  0  0  0  0  0
  152.8870  142.1572  159.5825 C   0  0  0  0  0  0  0  0  0  0  0  0
  152.3266  140.4343  157.8202 C   0  0  0  0  0  0  0  0  0  0  0  0
  151.6879  140.0285  156.6233 C   0  0  0  0  0  0  0  0  0  0  0  0
  151.8554  138.5970  156.1106 C   0  0  2  0  0  0  0  0  0  0  0  0
  152.3634  138.5924  154.6590 C   0  0  0  0  0  0  0  0  0  0  0  0
  150.6075  137.8496  156.2157 N   0  0  0  0  0  0  0  0  0  0  0  0
  150.3153  136.6553  155.6775 C   0  0  0  0  0  0  0  0  0  0  0  0
  151.1040  136.0233  154.9765 O   0  0  0  0  0  0  0  0  0  0  0  0
  148.9213  136.0702  155.9748 C   0  0  0  0  0  0  0  0  0  0  0  0
  148.6039  134.8365  155.2138 N   0  0  0  0  0  0  0  0  0  0  0  0
  149.4461  133.7080  155.3746 C   0  0  0  0  0  0  0  0  0  0  0  0
  150.4340  133.7469  156.1092 O   0  0  0  0  0  0  0  0  0  0  0  0
  149.0541  132.5181  154.6284 C   0  0  0  0  0  0  0  0  0  0  0  0
  149.8090  131.4087  154.6986 F   0  0  0  0  0  0  0  0  0  0  0  0
  147.9389  132.5107  153.8702 C   0  0  0  0  0  0  0  0  0  0  0  0
  147.1025  133.6034  153.7533 N   0  0  0  0  0  0  0  0  0  0  0  0
  145.8734  133.4934  152.8785 C   0  0  1  0  0  0  0  0  0  0  0  0
  145.8853  134.4570  151.6825 C   0  0  0  0  0  0  0  0  0  0  0  0
  145.1921  133.6236  150.6266 C   0  0  0  0  0  0  0  0  0  0  0  0
  145.6758  132.2169  150.9626 C   0  0  0  0  0  0  0  0  0  0  0  0
  145.7717  132.1888  152.3847 O   0  0  0  0  0  0  0  0  0  0  0  0
  147.4415  134.8123  154.4047 C   0  0  0  0  0  0  0  0  0  0  0  0
  146.7385  135.8169  154.2912 O   0  0  0  0  0  0  0  0  0  0  0  0
  148.7550  140.7421  153.3786 H   0  0  0  0  0  0  0  0  0  0  0  0
  149.3753  142.2494  154.0413 H   0  0  0  0  0  0  0  0  0  0  0  0
  148.3088  141.2074  155.0153 H   0  0  0  0  0  0  0  0  0  0  0  0
  150.1362  143.0066  155.9023 H   0  0  0  0  0  0  0  0  0  0  0  0
  151.2742  143.6774  157.9556 H   0  0  0  0  0  0  0  0  0  0  0  0
  152.3888  141.7085  160.4423 H   0  0  0  0  0  0  0  0  0  0  0  0
  152.8808  143.2405  159.7091 H   0  0  0  0  0  0  0  0  0  0  0  0
  153.9251  141.8221  159.5735 H   0  0  0  0  0  0  0  0  0  0  0  0
  152.9304  139.7396  158.3860 H   0  0  0  0  0  0  0  0  0  0  0  0
  152.5871  138.0901  156.7419 H   0  0  0  0  0  0  0  0  0  0  0  0
  153.3163  139.1160  154.5770 H   0  0  0  0  0  0  0  0  0  0  0  0
  151.6555  139.0842  153.9908 H   0  0  0  0  0  0  0  0  0  0  0  0
  152.5179  137.5774  154.2921 H   0  0  0  0  0  0  0  0  0  0  0  0
  149.8867  138.2820  156.7746 H   0  0  0  0  0  0  0  0  0  0  0  0
  148.8540  135.8878  157.0483 H   0  0  0  0  0  0  0  0  0  0  0  0
  148.1774  136.8478  155.7957 H   0  0  0  0  0  0  0  0  0  0  0  0
  147.6928  131.6019  153.3405 H   0  0  0  0  0  0  0  0  0  0  0  0
  145.0195  133.6718  153.5334 H   0  0  0  0  0  0  0  0  0  0  0  0
  145.3609  135.3822  151.9217 H   0  0  0  0  0  0  0  0  0  0  0  0
  146.9007  134.7016  151.3732 H   0  0  0  0  0  0  0  0  0  0  0  0
  144.1102  133.6867  150.7505 H   0  0  0  0  0  0  0  0  0  0  0  0
  145.4393  133.9283  149.6093 H   0  0  0  0  0  0  0  0  0  0  0  0
  145.0008  131.4440  150.5949 H   0  0  0  0  0  0  0  0  0  0  0  0
  146.6591  132.0366  150.5278 H   0  0  0  0  0  0  0  0  0  0  0  0
  1  2  1  0  0  0  0
  1 30  1  0  0  0  0
  1 31  1  0  0  0  0
  1 32  1  0  0  0  0
  2  3  1  0  0  0  0
  3  9  1  0  0  0  0
  3  4  2  0  0  0  0
  4  5  1  0  0  0  0
  4 33  1  0  0  0  0
  5  6  2  0  0  0  0
  5 34  1  0  0  0  0
  6  7  1  0  0  0  0
  6  8  1  0  0  0  0
  7 35  1  0  0  0  0
  7 36  1  0  0  0  0
  7 37  1  0  0  0  0
  8  9  2  0  0  0  0
  8 38  1  0  0  0  0
  9 10  1  0  0  0  0
 10 11  1  0  0  0  0
 10 12  1  0  0  0  0
 10 39  1  0  0  0  0
 11 40  1  0  0  0  0
 11 41  1  0  0  0  0
 11 42  1  0  0  0  0
 12 13  1  0  0  0  0
 12 43  1  0  0  0  0
 13 14  2  0  0  0  0
 13 15  1  0  0  0  0
 15 16  1  0  0  0  0
 15 44  1  0  0  0  0
 15 45  1  0  0  0  0
 16 28  1  0  0  0  0
 16 17  1  0  0  0  0
 17 18  2  0  0  0  0
 17 19  1  0  0  0  0
 19 20  1  0  0  0  0
 19 21  2  0  0  0  0
 21 22  1  0  0  0  0
 21 46  1  0  0  0  0
 22 23  1  0  0  0  0
 22 28  1  0  0  0  0
 23 27  1  0  0  0  0
 23 24  1  0  0  0  0
 23 47  1  0  0  0  0
 24 25  1  0  0  0  0
 24 48  1  0  0  0  0
 24 49  1  0  0  0  0
 25 26  1  0  0  0  0
 25 50  1  0  0  0  0
 25 51  1  0  0  0  0
 26 27  1  0  0  0  0
 26 52  1  0  0  0  0
 26 53  1  0  0  0  0
 28 29  2  0  0  0  0
M  END
> <s_m_source_file>
AV-unprocessed.smi

> <i_m_source_file_index>
94

> <i_lp_mmshare_version>
43012

> <i_f3d_flags>
0

> <s_epik_input>
W0NIM11PYzFbY0hdW2NIXWMoW0NIM10pW2NIXWMxW0NASF0oW0NIM10pW05IXUMoPU8pW0NIMl1uMmMoPU8pYyhGKVtjSF1uKGMyPU8pW0NAQEhdM1tDSDJdW0NIMl1bQ0gyXU8z

> <s_epik_cmdline>
J2VwaWtfcHl0aG9uJywgJy1waCcsICc3LjAnLCAnLXRuJywgJzgnLCAnLW1hJywgJzIwMCcsICctbWV0YWxfYmluZGluZycsICctaW1hZScsICc8aW5maWxlLm1hZT4nLCAnLW9tYWUnLCAnPG91dGZpbGUubWFlPic=

> <r_lp_tautomer_probability>
1

> <r_epik_Ionization_Penalty>
3.37009e-08

> <r_epik_Ionization_Penalty_Charging>
3.59856e-09

> <r_epik_Ionization_Penalty_Neutral>
3.01024e-08

> <r_epik_State_Penalty>
-0

> <r_epik_Charging_Adjusted_Penalty>
3.59856e-09

> <i_epik_Tot_Q>
0

> <i_epik_Tot_abs_Q>
0

> <r_epik_Metal_State_Penalty>
-0

> <b_epik_Metal_Only>
0

> <s_epik_Chemistry_Notes>
This compound contains an acetal/aminal-like group ( X-CH(R)-Y where X, Y are N, S, or O) that may be acid/base labile, releasing an aldehyde.

> <s_lp_Force_Field>
OPLS_2005

> <r_lp_Energy>
25.2965

> <b_lp_Chiralities_Consistent>
1

> <s_lp_Variant>
AV-unprocessed.smi:94-3

> <Gold.Version>
5.8.1

> <Gold.Id.Protein>
6NUR|6NUR_protein|mol2

> <Gold.PLP.Fitness>
54.0203

> <Gold.PLP.PLP>
-49.1443

> <Gold.PLP.part.hbond>
-2.0000

> <Gold.PLP.part.metal>
0.0000

> <Gold.PLP.part.buried>
-4.6858

> <Gold.PLP.part.nonpolar>
-42.4341

> <Gold.PLP.part.repulsive>
0.4798

> <Gold.PLP.ligand.clash>
0.0000

> <Gold.PLP.ligand.torsion>
0.6125

> <Gold.PLP.Chemscore.Hbond>
1.9920

> <Gold.PLP.Chemscore.CHOScore>
0.0000

> <Gold.PLP.Chemscore.Metal>
0.0000

> <Gold.Chemscore.Hbonds>
donor molecule, donor type, donor heavy atom, donor atom, acceptor molecule, acceptor atom, score
      P1  H  7989  7998       L1     2  0.96
      P1  H 10752 10763       L1    14  1.00

> <Gold.PLP.Chemscore.Internal.Correction>
0.1249

> <Gold.Rescore>
     Score         DG    S(hbond)    S(metal)    S(lipo)     H(rot)  DE(clash)    DE(int)     intcor
      9.77     -17.06       1.20        0.00     115.85       2.34       0.07       7.23       ----

> <Gold.Chemscore.Fitness>
9.7697

> <Gold.Chemscore.DG>
-17.0648

> <Gold.Chemscore.ZeroCoef>
-5.4800

> <Gold.Chemscore.Hbond>
1.2015

> <Gold.Chemscore.Metal>
0.0000

> <Gold.Chemscore.Lipo>
115.8495

> <Gold.Chemscore.Internal_Hbond>
0.0000

> <Gold.Chemscore.DEClash>
0.0679

> <Gold.Chemscore.DEInternal>
7.2272

> <Gold.Chemscore.Rot>
2.3370

> <Gold.Chemscore.Internal.Correction>
   9.000000E+99

> <Gold.Chemscore.Hbonds>
donor molecule, donor type, donor heavy atom, donor atom, acceptor molecule, acceptor atom, score
      P1  H  7989  7998       L1     2  0.11
      P1  H 10752 10763       L1    14  0.99

> <Gold.Chemscore.Hbond.Weighted>
-4.0130

> <Gold.Chemscore.Metal.Weighted>
-0.0000

> <Gold.Chemscore.Lipo.Weighted>
-13.5544

> <Gold.Chemscore.Internal_Hbond.Weighted>
0.0000

> <Gold.Chemscore.DEClash.Weighted>
0.0679

> <Gold.Chemscore.DEInternal.Weighted>
7.2272

> <Gold.Chemscore.Rot.Weighted>
5.9827

> <Gold.Chemscore.Internal.Correction.Weighted>
   9.000000E+99

> <Gold.Protein.RotatedTorsions>
[ 6907 6896 6895 6894 ] final -132.81 input  -60.11 | X-H torsion
[ 7974 7965 7964 7962 ] final   15.58 input  175.53 | X-H torsion
[ 8008 7997 7996 7995 ] final  141.12 input   59.86 | X-H torsion
[ 10167 10162 10161 10158 ] final  157.74 input  -65.29 | X-H torsion
[ 10718 10713 10712 10709 ] final   69.99 input   66.30 | X-H torsion
[ 10763 10752 10751 10750 ] final   69.59 input  -60.55 | X-H torsion
[ 11005 11000 10999 10996 ] final   89.19 input  -57.11 | X-H torsion

> <Gold.Protein.ActiveResidues>
 VAL166  LYS551  ARG553  GLY616  TRP617  ASP618  TYR619  PRO620  LYS621  CYS622 
 ASP623  PHE694  ASN695  SER759  ASP760  ASP761  ALA762  ILE779  LEU786  VAL792 
 PHE793  MET794  SER795  GLU796  ALA797  LYS798  CYS799  TRP800  GLU811  SER814 

> <Gold.Protein.RotatedAtoms>
  150.9667  133.6387  159.2744 H   0  0  0  0  0  0  0  0  0  0  0  0  # atno 6907 bound_to 6896
  151.3690  135.0918  159.9469 H   0  0  0  0  0  0  0  0  0  0  0  0  # atno 6908 bound_to 6896
  152.5168  133.9225  159.7596 H   0  0  0  0  0  0  0  0  0  0  0  0  # atno 6909 bound_to 6896
  146.2274  139.8873  142.8560 H   0  0  0  0  0  0  0  0  0  0  0  0  # atno 7974 bound_to 7965
  156.2970  140.2323  156.4512 H   0  0  0  0  0  0  0  0  0  0  0  0  # atno 8008 bound_to 7997
  154.8100  140.0443  157.1356 H   0  0  0  0  0  0  0  0  0  0  0  0  # atno 8009 bound_to 7997
  154.9434  140.3032  155.5113 H   0  0  0  0  0  0  0  0  0  0  0  0  # atno 8010 bound_to 7997
  139.4824  144.4889  151.8337 H   0  0  0  0  0  0  0  0  0  0  0  0  # atno 10167 bound_to 10162
  157.6376  130.9454  150.0589 H   0  0  0  0  0  0  0  0  0  0  0  0  # atno 10718 bound_to 10713
  153.0295  135.5205  154.7311 H   0  0  0  0  0  0  0  0  0  0  0  0  # atno 10763 bound_to 10752
  154.6339  135.2903  155.0187 H   0  0  0  0  0  0  0  0  0  0  0  0  # atno 10764 bound_to 10752
  154.1129  135.6619  153.4941 H   0  0  0  0  0  0  0  0  0  0  0  0  # atno 10765 bound_to 10752
  139.8880  134.8535  156.3106 H   0  0  0  0  0  0  0  0  0  0  0  0  # atno 11005 bound_to 11000
  145.2453  141.0024  143.3912 LP  0  0  0  0  0  0  0  0  0  0  0  0  # atno 17320 bound_to 7965
  144.9419  139.4180  143.6445 LP  0  0  0  0  0  0  0  0  0  0  0  0  # atno 17321 bound_to 7965
  140.4371  144.2036  150.5890 LP  0  0  0  0  0  0  0  0  0  0  0  0  # atno 17342 bound_to 10162
  140.4720  143.2409  151.9075 LP  0  0  0  0  0  0  0  0  0  0  0  0  # atno 17343 bound_to 10162
  156.1628  130.3644  149.9275 LP  0  0  0  0  0  0  0  0  0  0  0  0  # atno 17370 bound_to 10713
  156.7269  130.9028  151.3623 LP  0  0  0  0  0  0  0  0  0  0  0  0  # atno 17371 bound_to 10713
  140.9852  133.7242  156.0732 LP  0  0  0  0  0  0  0  0  0  0  0  0  # atno 17394 bound_to 11000
  140.7697  134.3847  157.5510 LP  0  0  0  0  0  0  0  0  0  0  0  0  # atno 17395 bound_to 11000

$$$$
