AV-unprocessed.smi:527|AV-procd|sdf|2816|dock3
  -GOLD-   2262023293D 1   1.00000     0.00000
 Structure written by MMmdl.
 42 43  0  0  0  0  0  0  0  0  1 V2000
  149.6946  141.2295  156.2288 C   0  0  0  0  0  0  0  0  0  0  0  0
  148.5343  140.6706  155.3886 C   0  0  1  0  0  0  0  0  0  0  0  0
  148.2067  141.5819  154.1882 C   0  0  0  0  0  0  0  0  0  0  0  0
  146.9848  141.0701  153.4089 C   0  0  0  0  0  0  0  0  0  0  0  0
  147.1616  139.6068  152.9761 C   0  0  0  0  0  0  0  0  0  0  0  0
  147.4806  138.7049  154.1837 C   0  0  1  0  0  0  0  0  0  0  0  0
  147.6055  137.3157  153.7478 N   0  0  0  0  0  0  0  0  0  0  0  0
  146.7435  136.3300  154.0378 C   0  0  0  0  0  0  0  0  0  0  0  0
  145.9148  136.4002  154.9480 O   0  0  0  0  0  0  0  0  0  0  0  0
  146.9176  135.2802  153.2126 N   0  0  0  0  0  0  0  0  0  0  0  0
  146.1717  134.1584  153.1403 C   0  0  0  0  0  0  0  0  0  0  0  0
  145.1746  133.9214  153.8248 O   0  0  0  0  0  0  0  0  0  0  0  0
  146.6371  133.1217  152.1170 C   0  0  0  0  0  0  0  0  0  0  0  0
  145.5312  132.6789  151.2894 N   0  0  0  0  0  0  0  0  0  0  0  0
  144.2035  133.0774  151.3802 C   0  0  0  0  0  0  0  0  0  0  0  0
  143.5187  132.3889  150.4045 C   0  0  0  0  0  0  0  0  0  0  0  0
  144.3991  131.5662  149.7055 N   0  0  0  0  0  0  0  0  0  0  0  0
  145.5707  131.7917  150.2852 C   0  0  0  0  0  0  0  0  0  0  0  0
  148.7399  139.1962  154.9491 C   0  0  1  0  0  0  0  0  0  0  0  0
  150.0555  138.9607  154.1708 C   0  0  0  0  0  0  0  0  0  0  0  0
  150.5993  141.3597  155.6352 H   0  0  0  0  0  0  0  0  0  0  0  0
  149.9305  140.5691  157.0635 H   0  0  0  0  0  0  0  0  0  0  0  0
  149.4378  142.2042  156.6444 H   0  0  0  0  0  0  0  0  0  0  0  0
  147.6597  140.6822  156.0412 H   0  0  0  0  0  0  0  0  0  0  0  0
  148.0114  142.5968  154.5360 H   0  0  0  0  0  0  0  0  0  0  0  0
  149.0668  141.6508  153.5215 H   0  0  0  0  0  0  0  0  0  0  0  0
  146.0949  141.1573  154.0335 H   0  0  0  0  0  0  0  0  0  0  0  0
  146.8100  141.6989  152.5356 H   0  0  0  0  0  0  0  0  0  0  0  0
  146.2506  139.2628  152.4850 H   0  0  0  0  0  0  0  0  0  0  0  0
  147.9541  139.5376  152.2303 H   0  0  0  0  0  0  0  0  0  0  0  0
  146.6264  138.7683  154.8611 H   0  0  0  0  0  0  0  0  0  0  0  0
  148.4170  137.0896  153.1917 H   0  0  0  0  0  0  0  0  0  0  0  0
  147.7014  135.3346  152.5793 H   0  0  0  0  0  0  0  0  0  0  0  0
  147.4106  133.5483  151.4768 H   0  0  0  0  0  0  0  0  0  0  0  0
  147.0757  132.2591  152.6208 H   0  0  0  0  0  0  0  0  0  0  0  0
  143.8652  133.7952  152.1132 H   0  0  0  0  0  0  0  0  0  0  0  0
  142.4684  132.4211  150.1551 H   0  0  0  0  0  0  0  0  0  0  0  0
  146.4793  131.2963  149.9752 H   0  0  0  0  0  0  0  0  0  0  0  0
  148.8149  138.6009  155.8605 H   0  0  0  0  0  0  0  0  0  0  0  0
  150.0933  139.5339  153.2452 H   0  0  0  0  0  0  0  0  0  0  0  0
  150.1851  137.9101  153.9109 H   0  0  0  0  0  0  0  0  0  0  0  0
  150.9259  139.2374  154.7646 H   0  0  0  0  0  0  0  0  0  0  0  0
  1  2  1  0  0  0  0
  1 21  1  0  0  0  0
  1 22  1  0  0  0  0
  1 23  1  0  0  0  0
  2 19  1  0  0  0  0
  2  3  1  0  0  0  0
  2 24  1  0  0  0  0
  3  4  1  0  0  0  0
  3 25  1  0  0  0  0
  3 26  1  0  0  0  0
  4  5  1  0  0  0  0
  4 27  1  0  0  0  0
  4 28  1  0  0  0  0
  5  6  1  0  0  0  0
  5 29  1  0  0  0  0
  5 30  1  0  0  0  0
  6  7  1  0  0  0  0
  6 19  1  0  0  0  0
  6 31  1  0  0  0  0
  7  8  1  0  0  0  0
  7 32  1  0  0  0  0
  8  9  2  0  0  0  0
  8 10  1  0  0  0  0
 10 11  1  0  0  0  0
 10 33  1  0  0  0  0
 11 12  2  0  0  0  0
 11 13  1  0  0  0  0
 13 14  1  0  0  0  0
 13 34  1  0  0  0  0
 13 35  1  0  0  0  0
 14 18  1  0  0  0  0
 14 15  1  0  0  0  0
 15 16  2  0  0  0  0
 15 36  1  0  0  0  0
 16 17  1  0  0  0  0
 16 37  1  0  0  0  0
 17 18  2  0  0  0  0
 18 38  1  0  0  0  0
 19 20  1  0  0  0  0
 19 39  1  0  0  0  0
 20 40  1  0  0  0  0
 20 41  1  0  0  0  0
 20 42  1  0  0  0  0
M  END
> <s_m_source_file>
AV-unprocessed.smi

> <i_m_source_file_index>
527

> <i_lp_mmshare_version>
43012

> <i_f3d_flags>
0

> <s_epik_input>
W0NIM11bQ0BASF0xW0NIMl1bQ0gyXVtDSDJdW0NASF0oW0NASF0xW0NIM10pW05IXUMoPU8pW05IXUMoPU8pW0NIMl1uMltjSF1bY0hdbltjSF0y

> <s_epik_cmdline>
J2VwaWtfcHl0aG9uJywgJy1waCcsICc3LjAnLCAnLXRuJywgJzgnLCAnLW1hJywgJzIwMCcsICctbWV0YWxfYmluZGluZycsICctaW1hZScsICc8aW5maWxlLm1hZT4nLCAnLW9tYWUnLCAnPG91dGZpbGUubWFlPic=

> <r_lp_tautomer_probability>
1

> <r_epik_Ionization_Penalty>
0.172132

> <r_epik_Ionization_Penalty_Charging>
0.172105

> <r_epik_Ionization_Penalty_Neutral>
2.71747e-05

> <r_epik_State_Penalty>
0.161503

> <r_epik_Charging_Adjusted_Penalty>
0.333607

> <i_epik_Tot_Q>
0

> <i_epik_Tot_abs_Q>
0

> <r_epik_Metal_State_Penalty>
0.124763

> <b_epik_Metal_Only>
0

> <s_lp_Force_Field>
OPLS_2005

> <r_lp_Energy>
16.646

> <b_lp_Chiralities_Consistent>
1

> <s_lp_Variant>
AV-unprocessed.smi:527-2

> <Gold.Version>
5.8.1

> <Gold.Id.Protein>
6NUR|6NUR_protein|mol2

> <Gold.PLP.Fitness>
45.4665

> <Gold.PLP.PLP>
-31.3749

> <Gold.PLP.part.hbond>
-2.9998

> <Gold.PLP.part.metal>
0.0000

> <Gold.PLP.part.buried>
-1.4237

> <Gold.PLP.part.nonpolar>
-27.5487

> <Gold.PLP.part.repulsive>
0.2860

> <Gold.PLP.ligand.clash>
0.0000

> <Gold.PLP.ligand.torsion>
0.2373

> <Gold.PLP.Chemscore.Hbond>
2.3696

> <Gold.PLP.Chemscore.CHOScore>
2.4780

> <Gold.PLP.Chemscore.Metal>
0.0000

> <Gold.Chemscore.Hbonds>
donor molecule, donor type, donor heavy atom, donor atom, acceptor molecule, acceptor atom, score
      L1  H     7    32       P1  7948  0.90
      L1  H    10    33       P1  7948  1.00
      P1  H 10785 10796       L1    17  0.44
      L1  C    16    37       P1 10186  0.97
      L1  C    16    37       P1 10952  0.56
      L1  C    18    38       P1 10747  0.98

> <Gold.PLP.Chemscore.Internal.Correction>
0.0233

> <Gold.Rescore>
     Score         DG    S(hbond)    S(metal)    S(lipo)     H(rot)  DE(clash)    DE(int)     intcor
     14.78     -17.74       2.62        0.00      66.29       1.66       0.05       2.91       ----

> <Gold.Chemscore.Fitness>
14.7792

> <Gold.Chemscore.DG>
-17.7390

> <Gold.Chemscore.ZeroCoef>
-5.4800

> <Gold.Chemscore.Hbond>
2.6229

> <Gold.Chemscore.Metal>
0.0000

> <Gold.Chemscore.Lipo>
66.2873

> <Gold.Chemscore.Internal_Hbond>
0.0000

> <Gold.Chemscore.DEClash>
0.0512

> <Gold.Chemscore.DEInternal>
2.9087

> <Gold.Chemscore.Rot>
1.6629

> <Gold.Chemscore.Internal.Correction>
   9.000000E+99

> <Gold.Chemscore.Hbonds>
donor molecule, donor type, donor heavy atom, donor atom, acceptor molecule, acceptor atom, score
      L1  H     7    32       P1  7948  0.88
      L1  H    10    33       P1  7948  0.96
      P1  H 10785 10796       L1    17  0.25

> <Gold.Chemscore.Hbond.Weighted>
-8.7604

> <Gold.Chemscore.Metal.Weighted>
-0.0000

> <Gold.Chemscore.Lipo.Weighted>
-7.7556

> <Gold.Chemscore.Internal_Hbond.Weighted>
0.0000

> <Gold.Chemscore.DEClash.Weighted>
0.0512

> <Gold.Chemscore.DEInternal.Weighted>
2.9087

> <Gold.Chemscore.Rot.Weighted>
4.2569

> <Gold.Chemscore.Internal.Correction.Weighted>
   9.000000E+99

> <Gold.Protein.RotatedTorsions>
[ 6907 6896 6895 6894 ] final -111.19 input  -60.11 | X-H torsion
[ 7974 7965 7964 7962 ] final  -48.75 input  175.53 | X-H torsion
[ 8008 7997 7996 7995 ] final  -22.00 input   59.86 | X-H torsion
[ 10167 10162 10161 10158 ] final  158.22 input  -65.29 | X-H torsion
[ 10718 10713 10712 10709 ] final   31.58 input   66.30 | X-H torsion
[ 10763 10752 10751 10750 ] final -175.61 input  -60.55 | X-H torsion
[ 11005 11000 10999 10996 ] final  -37.51 input  -57.11 | X-H torsion

> <Gold.Protein.ActiveResidues>
 VAL166  LYS551  ARG553  GLY616  TRP617  ASP618  TYR619  PRO620  LYS621  CYS622 
 ASP623  PHE694  ASN695  SER759  ASP760  ASP761  ALA762  ILE779  LEU786  VAL792 
 PHE793  MET794  SER795  GLU796  ALA797  LYS798  CYS799  TRP800  GLU811  SER814 

> <Gold.Protein.RotatedAtoms>
  150.7674  133.9272  159.3415 H   0  0  0  0  0  0  0  0  0  0  0  0  # atno 6907 bound_to 6896
  151.7166  135.0900  160.0286 H   0  0  0  0  0  0  0  0  0  0  0  0  # atno 6908 bound_to 6896
  152.3676  133.6339  159.6098 H   0  0  0  0  0  0  0  0  0  0  0  0  # atno 6909 bound_to 6896
  145.9479  140.7600  142.9519 H   0  0  0  0  0  0  0  0  0  0  0  0  # atno 7974 bound_to 7965
  154.4671  140.2019  156.0090 H   0  0  0  0  0  0  0  0  0  0  0  0  # atno 8008 bound_to 7997
  156.0946  140.3253  155.7831 H   0  0  0  0  0  0  0  0  0  0  0  0  # atno 8009 bound_to 7997
  155.4900  140.0545  157.2946 H   0  0  0  0  0  0  0  0  0  0  0  0  # atno 8010 bound_to 7997
  139.4826  144.4845  151.8397 H   0  0  0  0  0  0  0  0  0  0  0  0  # atno 10167 bound_to 10162
  157.2743  130.7223  149.6521 H   0  0  0  0  0  0  0  0  0  0  0  0  # atno 10718 bound_to 10713
  154.5824  135.2837  155.0719 H   0  0  0  0  0  0  0  0  0  0  0  0  # atno 10763 bound_to 10752
  154.2051  135.6418  153.5102 H   0  0  0  0  0  0  0  0  0  0  0  0  # atno 10764 bound_to 10752
  153.0092  135.5478  154.6482 H   0  0  0  0  0  0  0  0  0  0  0  0  # atno 10765 bound_to 10752
  140.9957  133.6981  156.1930 H   0  0  0  0  0  0  0  0  0  0  0  0  # atno 11005 bound_to 11000
  144.6790  140.2386  143.7346 LP  0  0  0  0  0  0  0  0  0  0  0  0  # atno 17320 bound_to 7965
  145.8211  139.2044  143.1937 LP  0  0  0  0  0  0  0  0  0  0  0  0  # atno 17321 bound_to 7965
  140.4323  144.2098  150.5888 LP  0  0  0  0  0  0  0  0  0  0  0  0  # atno 17342 bound_to 10162
  140.4766  143.2394  151.9014 LP  0  0  0  0  0  0  0  0  0  0  0  0  # atno 17343 bound_to 10162
  155.9663  130.4358  150.5106 LP  0  0  0  0  0  0  0  0  0  0  0  0  # atno 17370 bound_to 10713
  157.3037  131.0650  151.2050 LP  0  0  0  0  0  0  0  0  0  0  0  0  # atno 17371 bound_to 10713
  140.6969  134.4605  157.5587 LP  0  0  0  0  0  0  0  0  0  0  0  0  # atno 17394 bound_to 11000
  139.9013  134.8548  156.1883 LP  0  0  0  0  0  0  0  0  0  0  0  0  # atno 17395 bound_to 11000

$$$$
