AV-unprocessed.smi:244|AV-procd|sdf|1872|dock6
  -GOLD-   2262020513D 1   1.00000     0.00000
 Structure written by MMmdl.
 56 60  0  0  0  0  0  0  0  0  1 V2000
  154.7103  139.8705  161.5610 C   0  0  0  0  0  0  0  0  0  0  0  0
  153.6102  140.6199  160.9707 N   0  0  0  0  0  0  0  0  0  0  0  0
  154.0350  142.0034  160.7477 C   0  0  0  0  0  0  0  0  0  0  0  0
  152.8825  142.8294  160.1500 C   0  0  0  0  0  0  0  0  0  0  0  0
  152.4082  142.1952  158.8392 C   0  0  2  0  0  0  0  0  0  0  0  0
  151.3030  142.9186  158.3113 O   0  0  0  0  0  0  0  0  0  0  0  0
  150.8968  142.3932  157.0523 C   0  0  0  0  0  0  0  0  0  0  0  0
  150.4559  140.9302  157.2224 C   0  0  0  0  0  0  0  0  0  0  0  0
  151.5080  140.1375  157.8547 N   0  0  0  0  0  0  0  0  0  0  0  0
  151.1676  138.8257  157.8634 C   0  0  0  0  0  0  0  0  0  0  0  0
  150.8355  138.2044  159.0266 N   0  0  0  0  0  0  0  0  0  0  0  0
  150.4764  136.9169  159.0203 C   0  0  0  0  0  0  0  0  0  0  0  0
  150.3737  136.0837  157.9824 N   0  0  0  0  0  0  0  0  0  0  0  0
  150.6941  136.7083  156.8128 C   0  0  0  0  0  0  0  0  0  0  0  0
  151.0959  138.0650  156.6659 C   0  0  0  0  0  0  0  0  0  0  0  0
  151.3373  138.3498  155.3281 N   0  0  0  0  0  0  0  0  0  0  0  0
  151.0912  137.2232  154.7165 C   0  0  0  0  0  0  0  0  0  0  0  0
  150.7041  136.1834  155.5322 N   0  0  0  0  0  0  0  0  0  0  0  0
  150.3692  134.8302  155.1166 C   0  0  0  0  0  0  0  0  0  0  0  0
  148.8548  134.5993  154.8912 C   0  0  0  0  0  0  0  0  0  0  0  0
  148.3506  135.7168  154.1793 O   0  0  0  0  0  0  0  0  0  0  0  0
  148.5635  133.3238  154.0703 C   0  0  0  0  0  0  0  0  0  0  0  0
  147.0608  132.9940  154.0280 C   0  0  0  0  0  0  0  0  0  0  0  0
  146.5445  132.8923  155.3496 O   0  0  0  0  0  0  0  0  0  0  0  0
  146.6402  134.1131  156.0732 C   0  0  0  0  0  0  0  0  0  0  0  0
  148.1173  134.5108  156.2425 C   0  0  0  0  0  0  0  0  0  0  0  0
  151.9980  140.7323  159.1030 C   0  0  1  0  0  0  0  0  0  0  0  0
  153.2123  139.9872  159.7106 C   0  0  0  0  0  0  0  0  0  0  0  0
  155.0143  140.3175  162.5081 H   0  0  0  0  0  0  0  0  0  0  0  0
  155.5775  139.8489  160.8990 H   0  0  0  0  0  0  0  0  0  0  0  0
  154.4088  138.8422  161.7625 H   0  0  0  0  0  0  0  0  0  0  0  0
  154.3475  142.4467  161.6940 H   0  0  0  0  0  0  0  0  0  0  0  0
  154.8989  142.0273  160.0813 H   0  0  0  0  0  0  0  0  0  0  0  0
  152.0563  142.8846  160.8601 H   0  0  0  0  0  0  0  0  0  0  0  0
  153.2113  143.8535  159.9721 H   0  0  0  0  0  0  0  0  0  0  0  0
  153.2301  142.2289  158.1204 H   0  0  0  0  0  0  0  0  0  0  0  0
  150.0714  142.9916  156.6669 H   0  0  0  0  0  0  0  0  0  0  0  0
  151.7110  142.4722  156.3299 H   0  0  0  0  0  0  0  0  0  0  0  0
  149.5558  140.8859  157.8374 H   0  0  0  0  0  0  0  0  0  0  0  0
  150.1974  140.5136  156.2479 H   0  0  0  0  0  0  0  0  0  0  0  0
  150.2338  136.4956  159.9847 H   0  0  0  0  0  0  0  0  0  0  0  0
  151.1891  137.1169  153.6459 H   0  0  0  0  0  0  0  0  0  0  0  0
  150.9208  134.6116  154.2014 H   0  0  0  0  0  0  0  0  0  0  0  0
  150.7498  134.1393  155.8704 H   0  0  0  0  0  0  0  0  0  0  0  0
  148.8261  135.7944  153.3662 H   0  0  0  0  0  0  0  0  0  0  0  0
  148.9461  133.4181  153.0534 H   0  0  0  0  0  0  0  0  0  0  0  0
  149.0902  132.4806  154.5189 H   0  0  0  0  0  0  0  0  0  0  0  0
  146.5080  133.7488  153.4664 H   0  0  0  0  0  0  0  0  0  0  0  0
  146.9034  132.0443  153.5165 H   0  0  0  0  0  0  0  0  0  0  0  0
  146.0764  134.8968  155.5648 H   0  0  0  0  0  0  0  0  0  0  0  0
  146.1779  133.9769  157.0509 H   0  0  0  0  0  0  0  0  0  0  0  0
  148.6042  133.7631  156.8702 H   0  0  0  0  0  0  0  0  0  0  0  0
  148.1905  135.4561  156.7823 H   0  0  0  0  0  0  0  0  0  0  0  0
  151.1795  140.7246  159.8254 H   0  0  0  0  0  0  0  0  0  0  0  0
  154.0480  139.9833  159.0084 H   0  0  0  0  0  0  0  0  0  0  0  0
  152.9623  138.9458  159.9128 H   0  0  0  0  0  0  0  0  0  0  0  0
  1  2  1  0  0  0  0
  1 29  1  0  0  0  0
  1 30  1  0  0  0  0
  1 31  1  0  0  0  0
  2 28  1  0  0  0  0
  2  3  1  0  0  0  0
  3  4  1  0  0  0  0
  3 32  1  0  0  0  0
  3 33  1  0  0  0  0
  4  5  1  0  0  0  0
  4 34  1  0  0  0  0
  4 35  1  0  0  0  0
  5 27  1  0  0  0  0
  5  6  1  0  0  0  0
  5 36  1  0  0  0  0
  6  7  1  0  0  0  0
  7  8  1  0  0  0  0
  7 37  1  0  0  0  0
  7 38  1  0  0  0  0
  8  9  1  0  0  0  0
  8 39  1  0  0  0  0
  8 40  1  0  0  0  0
  9 10  1  0  0  0  0
  9 27  1  0  0  0  0
 10 15  1  0  0  0  0
 10 11  2  0  0  0  0
 11 12  1  0  0  0  0
 12 13  2  0  0  0  0
 12 41  1  0  0  0  0
 13 14  1  0  0  0  0
 14 18  1  0  0  0  0
 14 15  2  0  0  0  0
 15 16  1  0  0  0  0
 16 17  2  0  0  0  0
 17 18  1  0  0  0  0
 17 42  1  0  0  0  0
 18 19  1  0  0  0  0
 19 20  1  0  0  0  0
 19 43  1  0  0  0  0
 19 44  1  0  0  0  0
 20 26  1  0  0  0  0
 20 21  1  0  0  0  0
 20 22  1  0  0  0  0
 21 45  1  0  0  0  0
 22 23  1  0  0  0  0
 22 46  1  0  0  0  0
 22 47  1  0  0  0  0
 23 24  1  0  0  0  0
 23 48  1  0  0  0  0
 23 49  1  0  0  0  0
 24 25  1  0  0  0  0
 25 26  1  0  0  0  0
 25 50  1  0  0  0  0
 25 51  1  0  0  0  0
 26 52  1  0  0  0  0
 26 53  1  0  0  0  0
 27 28  1  0  0  0  0
 27 54  1  0  0  0  0
 28 55  1  0  0  0  0
 28 56  1  0  0  0  0
M  END
> <s_m_source_file>
AV-unprocessed.smi

> <i_m_source_file_index>
244

> <i_lp_mmshare_version>
43012

> <i_f3d_flags>
0

> <s_epik_input>
W0NIMl0xW0NIMl1OKFtDSDNdKVtDSDJdW0NAQEhdKFtDQEhdMTIpTihbQ0gyXVtDSDJdTzIpYyhuW2NIXW4zKWMoYzM0KW5bY0hdbjRbQ0gyXUM1KFtPSF0pW0NIMl1bQ0gyXU9bQ0gyXVtDSDJdNQ==

> <s_epik_cmdline>
J2VwaWtfcHl0aG9uJywgJy1waCcsICc3LjAnLCAnLXRuJywgJzgnLCAnLW1hJywgJzIwMCcsICctbWV0YWxfYmluZGluZycsICctaW1hZScsICc8aW5maWxlLm1hZT4nLCAnLW9tYWUnLCAnPG91dGZpbGUubWFlPic=

> <r_lp_tautomer_probability>
1

> <r_epik_Ionization_Penalty>
2.27765

> <r_epik_Ionization_Penalty_Charging>
0

> <r_epik_Ionization_Penalty_Neutral>
2.27765

> <r_epik_State_Penalty>
2.4114

> <r_epik_Charging_Adjusted_Penalty>
2.4114

> <i_epik_Tot_Q>
0

> <i_epik_Tot_abs_Q>
0

> <r_epik_Metal_State_Penalty>
2.39769

> <b_epik_Metal_Only>
0

> <s_lp_Force_Field>
OPLS_2005

> <r_lp_Energy>
38.8348

> <b_lp_Chiralities_Consistent>
1

> <s_lp_Variant>
AV-unprocessed.smi:244-9

> <Gold.Version>
5.8.1

> <Gold.Id.Protein>
6NUR|6NUR_protein|mol2

> <Gold.PLP.Fitness>
40.5856

> <Gold.PLP.PLP>
-36.0281

> <Gold.PLP.part.hbond>
-1.5822

> <Gold.PLP.part.metal>
0.0000

> <Gold.PLP.part.buried>
-5.7136

> <Gold.PLP.part.nonpolar>
-29.7678

> <Gold.PLP.part.repulsive>
0.1722

> <Gold.PLP.ligand.clash>
0.0000

> <Gold.PLP.ligand.torsion>
0.9309

> <Gold.PLP.Chemscore.Hbond>
1.0899

> <Gold.PLP.Chemscore.CHOScore>
1.0000

> <Gold.PLP.Chemscore.Metal>
0.0000

> <Gold.Chemscore.Hbonds>
donor molecule, donor type, donor heavy atom, donor atom, acceptor molecule, acceptor atom, score
      L1  H    21    45       P1  7948  1.00
      P1  H  6896  6908       L1    13  0.08
      L1  C    17    42       P1  7949  1.00

> <Gold.PLP.Chemscore.Internal.Correction>
0.1497

> <Gold.Rescore>
     Score         DG    S(hbond)    S(metal)    S(lipo)     H(rot)  DE(clash)    DE(int)     intcor
     12.43     -14.12       0.98        0.00      90.92       2.06       0.06       1.64       ----

> <Gold.Chemscore.Fitness>
12.4271

> <Gold.Chemscore.DG>
-14.1221

> <Gold.Chemscore.ZeroCoef>
-5.4800

> <Gold.Chemscore.Hbond>
0.9823

> <Gold.Chemscore.Metal>
0.0000

> <Gold.Chemscore.Lipo>
90.9201

> <Gold.Chemscore.Internal_Hbond>
0.0000

> <Gold.Chemscore.DEClash>
0.0575

> <Gold.Chemscore.DEInternal>
1.6375

> <Gold.Chemscore.Rot>
2.0611

> <Gold.Chemscore.Internal.Correction>
   9.000000E+99

> <Gold.Chemscore.Hbonds>
donor molecule, donor type, donor heavy atom, donor atom, acceptor molecule, acceptor atom, score
      L1  H    21    45       P1  7948  0.90

> <Gold.Chemscore.Hbond.Weighted>
-3.2810

> <Gold.Chemscore.Metal.Weighted>
-0.0000

> <Gold.Chemscore.Lipo.Weighted>
-10.6377

> <Gold.Chemscore.Internal_Hbond.Weighted>
0.0000

> <Gold.Chemscore.DEClash.Weighted>
0.0575

> <Gold.Chemscore.DEInternal.Weighted>
1.6375

> <Gold.Chemscore.Rot.Weighted>
5.2765

> <Gold.Chemscore.Internal.Correction.Weighted>
   9.000000E+99

> <Gold.Protein.RotatedTorsions>
[ 6907 6896 6895 6894 ] final  152.96 input  -60.11 | X-H torsion
[ 7974 7965 7964 7962 ] final -177.31 input  175.53 | X-H torsion
[ 8008 7997 7996 7995 ] final -102.94 input   59.86 | X-H torsion
[ 10167 10162 10161 10158 ] final  -79.30 input  -65.29 | X-H torsion
[ 10718 10713 10712 10709 ] final   43.74 input   66.30 | X-H torsion
[ 10763 10752 10751 10750 ] final  179.77 input  -60.55 | X-H torsion
[ 11005 11000 10999 10996 ] final  -52.24 input  -57.11 | X-H torsion

> <Gold.Protein.ActiveResidues>
 VAL166  LYS551  ARG553  GLY616  TRP617  ASP618  TYR619  PRO620  LYS621  CYS622 
 ASP623  PHE694  ASN695  SER759  ASP760  ASP761  ALA762  ILE779  LEU786  VAL792 
 PHE793  MET794  SER795  GLU796  ALA797  LYS798  CYS799  TRP800  GLU811  SER814 

> <Gold.Protein.RotatedAtoms>
  152.0795  133.4145  159.4494 H   0  0  0  0  0  0  0  0  0  0  0  0  # atno 6907 bound_to 6896
  150.6862  134.2999  159.4711 H   0  0  0  0  0  0  0  0  0  0  0  0  # atno 6908 bound_to 6896
  152.0839  134.9452  160.0623 H   0  0  0  0  0  0  0  0  0  0  0  0  # atno 6909 bound_to 6896
  144.7127  140.1039  143.6415 H   0  0  0  0  0  0  0  0  0  0  0  0  # atno 7974 bound_to 7965
  154.8638  140.0425  157.1682 H   0  0  0  0  0  0  0  0  0  0  0  0  # atno 8008 bound_to 7997
  154.8812  140.2973  155.5404 H   0  0  0  0  0  0  0  0  0  0  0  0  # atno 8009 bound_to 7997
  156.2999  140.2411  156.3814 H   0  0  0  0  0  0  0  0  0  0  0  0  # atno 8010 bound_to 7997
  140.4606  143.2455  151.8355 H   0  0  0  0  0  0  0  0  0  0  0  0  # atno 10167 bound_to 10162
  157.4192  130.7959  149.7499 H   0  0  0  0  0  0  0  0  0  0  0  0  # atno 10718 bound_to 10713
  154.5249  135.2796  155.1230 H   0  0  0  0  0  0  0  0  0  0  0  0  # atno 10763 bound_to 10752
  154.2773  135.6292  153.5337 H   0  0  0  0  0  0  0  0  0  0  0  0  # atno 10764 bound_to 10752
  152.9944  135.5643  154.5747 H   0  0  0  0  0  0  0  0  0  0  0  0  # atno 10765 bound_to 10752
  141.0914  133.6632  156.3995 H   0  0  0  0  0  0  0  0  0  0  0  0  # atno 11005 bound_to 11000
  145.9514  139.2736  143.1210 LP  0  0  0  0  0  0  0  0  0  0  0  0  # atno 17320 bound_to 7965
  145.9319  140.9042  143.0352 LP  0  0  0  0  0  0  0  0  0  0  0  0  # atno 17321 bound_to 7965
  139.4806  144.5012  151.9057 LP  0  0  0  0  0  0  0  0  0  0  0  0  # atno 17342 bound_to 10162
  140.4098  144.2384  150.5889 LP  0  0  0  0  0  0  0  0  0  0  0  0  # atno 17343 bound_to 10162
  155.9875  130.3966  150.3163 LP  0  0  0  0  0  0  0  0  0  0  0  0  # atno 17370 bound_to 10713
  157.1309  131.0271  151.2970 LP  0  0  0  0  0  0  0  0  0  0  0  0  # atno 17371 bound_to 10713
  140.5244  134.6273  157.5329 LP  0  0  0  0  0  0  0  0  0  0  0  0  # atno 17394 bound_to 11000
  139.9740  134.7245  155.9985 LP  0  0  0  0  0  0  0  0  0  0  0  0  # atno 17395 bound_to 11000

$$$$
