AV-unprocessed.smi:1538|AV-procd|sdf|6194|dock6
  -GOLD-   22720 6363D 1   1.00000     0.00000
 Structure written by MMmdl.
 36 37  0  0  0  0  0  0  0  0  1 V2000
  144.9079  140.2114  156.6148 C   0  0  0  0  0  0  0  0  0  0  0  0
  145.8743  140.4575  155.5429 N   0  0  0  0  0  0  0  0  0  0  0  0
  146.4719  141.7985  155.5450 C   0  0  0  0  0  0  0  0  0  0  0  0
  147.0764  142.1903  154.1902 C   0  0  0  0  0  0  0  0  0  0  0  0
  147.9784  141.0817  153.6288 C   0  0  1  0  0  0  0  0  0  0  0  0
  149.3073  140.9669  154.3945 C   0  0  0  0  0  0  0  0  0  0  0  0
  150.0657  140.0187  154.1888 O   0  0  0  0  0  0  0  0  0  0  0  0
  149.5673  141.9331  155.2895 N   0  0  0  0  0  0  0  0  0  0  0  0
  150.7135  141.9544  156.1940 C   0  0  0  0  0  0  0  0  0  0  0  0
  150.2835  142.1661  157.6582 C   0  0  0  0  0  0  0  0  0  0  0  0
  151.1387  143.1036  158.3633 N   0  0  0  0  0  0  0  0  0  0  0  0
  151.3312  144.4474  158.0711 C   0  0  0  0  0  0  0  0  0  0  0  0
  152.2356  144.9241  158.9931 C   0  0  0  0  0  0  0  0  0  0  0  0
  152.6044  143.8998  159.8621 N   0  0  0  0  0  0  0  0  0  0  0  0
  151.9118  142.8544  159.4296 C   0  0  0  0  0  0  0  0  0  0  0  0
  147.2229  139.7350  153.5511 C   0  0  0  0  0  0  0  0  0  0  0  0
  146.1997  139.4704  154.6729 C   0  0  0  0  0  0  0  0  0  0  0  0
  145.6914  138.3501  154.7309 O   0  0  0  0  0  0  0  0  0  0  0  0
  145.1828  139.3270  157.1919 H   0  0  0  0  0  0  0  0  0  0  0  0
  143.9116  140.0532  156.1999 H   0  0  0  0  0  0  0  0  0  0  0  0
  144.8481  141.0451  157.3151 H   0  0  0  0  0  0  0  0  0  0  0  0
  145.7229  142.5419  155.8213 H   0  0  0  0  0  0  0  0  0  0  0  0
  147.2361  141.8309  156.3224 H   0  0  0  0  0  0  0  0  0  0  0  0
  146.2706  142.3859  153.4813 H   0  0  0  0  0  0  0  0  0  0  0  0
  147.6280  143.1267  154.2859 H   0  0  0  0  0  0  0  0  0  0  0  0
  148.2345  141.3611  152.6053 H   0  0  0  0  0  0  0  0  0  0  0  0
  148.8959  142.6810  155.3869 H   0  0  0  0  0  0  0  0  0  0  0  0
  151.3125  141.0474  156.0965 H   0  0  0  0  0  0  0  0  0  0  0  0
  151.3600  142.7768  155.8874 H   0  0  0  0  0  0  0  0  0  0  0  0
  149.2629  142.5484  157.6931 H   0  0  0  0  0  0  0  0  0  0  0  0
  150.2803  141.2166  158.1954 H   0  0  0  0  0  0  0  0  0  0  0  0
  150.8302  144.9366  157.2489 H   0  0  0  0  0  0  0  0  0  0  0  0
  152.6456  145.9178  159.0973 H   0  0  0  0  0  0  0  0  0  0  0  0
  151.9774  141.8808  159.8929 H   0  0  0  0  0  0  0  0  0  0  0  0
  146.6707  139.7017  152.6112 H   0  0  0  0  0  0  0  0  0  0  0  0
  147.9223  138.8985  153.5074 H   0  0  0  0  0  0  0  0  0  0  0  0
  1  2  1  0  0  0  0
  1 19  1  0  0  0  0
  1 20  1  0  0  0  0
  1 21  1  0  0  0  0
  2 17  1  0  0  0  0
  2  3  1  0  0  0  0
  3  4  1  0  0  0  0
  3 22  1  0  0  0  0
  3 23  1  0  0  0  0
  4  5  1  0  0  0  0
  4 24  1  0  0  0  0
  4 25  1  0  0  0  0
  5  6  1  0  0  0  0
  5 16  1  0  0  0  0
  5 26  1  0  0  0  0
  6  7  2  0  0  0  0
  6  8  1  0  0  0  0
  8  9  1  0  0  0  0
  8 27  1  0  0  0  0
  9 10  1  0  0  0  0
  9 28  1  0  0  0  0
  9 29  1  0  0  0  0
 10 11  1  0  0  0  0
 10 30  1  0  0  0  0
 10 31  1  0  0  0  0
 11 15  1  0  0  0  0
 11 12  1  0  0  0  0
 12 13  2  0  0  0  0
 12 32  1  0  0  0  0
 13 14  1  0  0  0  0
 13 33  1  0  0  0  0
 14 15  2  0  0  0  0
 15 34  1  0  0  0  0
 16 17  1  0  0  0  0
 16 35  1  0  0  0  0
 16 36  1  0  0  0  0
 17 18  2  0  0  0  0
M  END
> <s_m_source_file>
AV-unprocessed.smi

> <i_m_source_file_index>
1538

> <i_lp_mmshare_version>
43012

> <i_f3d_flags>
0

> <s_epik_input>
W0NIM11OMVtDSDJdW0NIMl1bQ0BIXShbQ0gyXUMxPU8pQyg9TylbTkhdW0NIMl1bQ0gyXW4yW2NIXVtjSF1uW2NIXTI=

> <s_epik_cmdline>
J2VwaWtfcHl0aG9uJywgJy1waCcsICc3LjAnLCAnLXRuJywgJzgnLCAnLW1hJywgJzIwMCcsICctbWV0YWxfYmluZGluZycsICctaW1hZScsICc8aW5maWxlLm1hZT4nLCAnLW9tYWUnLCAnPG91dGZpbGUubWFlPic=

> <r_lp_tautomer_probability>
1

> <r_epik_Ionization_Penalty>
0.590576

> <r_epik_Ionization_Penalty_Charging>
0.590576

> <r_epik_Ionization_Penalty_Neutral>
2.97775e-08

> <r_epik_State_Penalty>
0.604111

> <r_epik_Charging_Adjusted_Penalty>
1.19469

> <i_epik_Tot_Q>
0

> <i_epik_Tot_abs_Q>
0

> <r_epik_Metal_State_Penalty>
0.298544

> <b_epik_Metal_Only>
0

> <s_lp_Force_Field>
OPLS_2005

> <r_lp_Energy>
13.4422

> <b_lp_Chiralities_Consistent>
1

> <s_lp_Variant>
AV-unprocessed.smi:1538-3

> <Gold.Version>
5.8.1

> <Gold.Id.Protein>
6NUR|6NUR_protein|mol2

> <Gold.PLP.Fitness>
43.2208

> <Gold.PLP.PLP>
-36.4097

> <Gold.PLP.part.hbond>
-2.0000

> <Gold.PLP.part.metal>
0.0000

> <Gold.PLP.part.buried>
-4.9999

> <Gold.PLP.part.nonpolar>
-30.6336

> <Gold.PLP.part.repulsive>
0.5179

> <Gold.PLP.ligand.clash>
0.5525

> <Gold.PLP.ligand.torsion>
0.6126

> <Gold.PLP.Chemscore.Hbond>
1.8480

> <Gold.PLP.Chemscore.CHOScore>
1.0000

> <Gold.PLP.Chemscore.Metal>
0.0000

> <Gold.Chemscore.Hbonds>
donor molecule, donor type, donor heavy atom, donor atom, acceptor molecule, acceptor atom, score
      L1  H     8    27       P1  8028  0.75
      P1  H  7989  7998       L1     7  0.99
      L1  C    12    32       P1  8028  1.00

> <Gold.PLP.Chemscore.Internal.Correction>
0.0448

> <Gold.Rescore>
     Score         DG    S(hbond)    S(metal)    S(lipo)     H(rot)  DE(clash)    DE(int)     intcor
     12.08     -13.08       1.48        0.00      66.04       1.98       0.23       0.77       ----

> <Gold.Chemscore.Fitness>
12.0816

> <Gold.Chemscore.DG>
-13.0755

> <Gold.Chemscore.ZeroCoef>
-5.4800

> <Gold.Chemscore.Hbond>
1.4769

> <Gold.Chemscore.Metal>
0.0000

> <Gold.Chemscore.Lipo>
66.0418

> <Gold.Chemscore.Internal_Hbond>
0.0000

> <Gold.Chemscore.DEClash>
0.2251

> <Gold.Chemscore.DEInternal>
0.7688

> <Gold.Chemscore.Rot>
1.9782

> <Gold.Chemscore.Internal.Correction>
   9.000000E+99

> <Gold.Chemscore.Hbonds>
donor molecule, donor type, donor heavy atom, donor atom, acceptor molecule, acceptor atom, score
      L1  H     8    27       P1  8028  0.70
      P1  H  7989  7998       L1     7  0.33

> <Gold.Chemscore.Hbond.Weighted>
-4.9329

> <Gold.Chemscore.Metal.Weighted>
-0.0000

> <Gold.Chemscore.Lipo.Weighted>
-7.7269

> <Gold.Chemscore.Internal_Hbond.Weighted>
0.0000

> <Gold.Chemscore.DEClash.Weighted>
0.2251

> <Gold.Chemscore.DEInternal.Weighted>
0.7688

> <Gold.Chemscore.Rot.Weighted>
5.0643

> <Gold.Chemscore.Internal.Correction.Weighted>
   9.000000E+99

> <Gold.Protein.RotatedTorsions>
[ 6907 6896 6895 6894 ] final  100.84 input  -60.11 | X-H torsion
[ 7974 7965 7964 7962 ] final -153.98 input  175.53 | X-H torsion
[ 8008 7997 7996 7995 ] final -168.04 input   59.86 | X-H torsion
[ 10167 10162 10161 10158 ] final  174.11 input  -65.29 | X-H torsion
[ 10718 10713 10712 10709 ] final -118.60 input   66.30 | X-H torsion
[ 10763 10752 10751 10750 ] final   46.98 input  -60.55 | X-H torsion
[ 11005 11000 10999 10996 ] final  -20.76 input  -57.11 | X-H torsion

> <Gold.Protein.ActiveResidues>
 VAL166  LYS551  ARG553  GLY616  TRP617  ASP618  TYR619  PRO620  LYS621  CYS622 
 ASP623  PHE694  ASN695  SER759  ASP760  ASP761  ALA762  ILE779  LEU786  VAL792 
 PHE793  MET794  SER795  GLU796  ALA797  LYS798  CYS799  TRP800  GLU811  SER814 

> <Gold.Protein.RotatedAtoms>
  152.5363  134.0217  159.7984 H   0  0  0  0  0  0  0  0  0  0  0  0  # atno 6907 bound_to 6896
  151.0402  133.5705  159.2659 H   0  0  0  0  0  0  0  0  0  0  0  0  # atno 6908 bound_to 6896
  151.2677  135.0682  159.9176 H   0  0  0  0  0  0  0  0  0  0  0  0  # atno 6909 bound_to 6896
  144.7713  140.4452  143.5905 H   0  0  0  0  0  0  0  0  0  0  0  0  # atno 7974 bound_to 7965
  155.8859  140.1017  157.1452 H   0  0  0  0  0  0  0  0  0  0  0  0  # atno 8008 bound_to 7997
  154.4010  140.1320  156.4319 H   0  0  0  0  0  0  0  0  0  0  0  0  # atno 8009 bound_to 7997
  155.7589  140.3463  155.5190 H   0  0  0  0  0  0  0  0  0  0  0  0  # atno 8010 bound_to 7997
  139.5131  144.3184  152.0226 H   0  0  0  0  0  0  0  0  0  0  0  0  # atno 10167 bound_to 10162
  156.1118  130.6255  150.9311 H   0  0  0  0  0  0  0  0  0  0  0  0  # atno 10718 bound_to 10713
  152.9804  135.5991  154.3688 H   0  0  0  0  0  0  0  0  0  0  0  0  # atno 10763 bound_to 10752
  154.3364  135.2768  155.2447 H   0  0  0  0  0  0  0  0  0  0  0  0  # atno 10764 bound_to 10752
  154.4548  135.5980  153.6271 H   0  0  0  0  0  0  0  0  0  0  0  0  # atno 10765 bound_to 10752
  140.8495  133.7867  155.9950 H   0  0  0  0  0  0  0  0  0  0  0  0  # atno 11005 bound_to 11000
  145.6316  139.1537  143.2966 LP  0  0  0  0  0  0  0  0  0  0  0  0  # atno 17320 bound_to 7965
  146.1861  140.6419  142.9167 LP  0  0  0  0  0  0  0  0  0  0  0  0  # atno 17321 bound_to 7965
  140.2626  144.4051  150.6180 LP  0  0  0  0  0  0  0  0  0  0  0  0  # atno 17342 bound_to 10162
  140.6146  143.2171  151.6817 LP  0  0  0  0  0  0  0  0  0  0  0  0  # atno 17343 bound_to 10162
  157.6299  131.0922  150.8461 LP  0  0  0  0  0  0  0  0  0  0  0  0  # atno 17370 bound_to 10713
  156.8570  130.5100  149.5307 LP  0  0  0  0  0  0  0  0  0  0  0  0  # atno 17371 bound_to 10713
  140.8805  134.2616  157.5146 LP  0  0  0  0  0  0  0  0  0  0  0  0  # atno 17394 bound_to 11000
  139.8704  134.9613  156.4391 LP  0  0  0  0  0  0  0  0  0  0  0  0  # atno 17395 bound_to 11000

$$$$
