AV-unprocessed.smi:2650|AV-procd|sdf|10291|dock5
  -GOLD-   2272014303D 1   1.00000     0.00000
 Structure written by MMmdl.
 33 34  0  0  0  0  0  0  0  0  1 V2000
  144.6927  136.8746  152.3486 O   0  0  0  0  0  0  0  0  0  0  0  0
  145.8844  136.6568  152.1270 C   0  0  0  0  0  0  0  0  0  0  0  0
  146.8556  137.5474  152.3755 N   0  0  0  0  0  0  0  0  0  0  0  0
  146.6441  138.8740  152.9411 C   0  0  0  0  0  0  0  0  0  0  0  0
  147.9085  139.7446  152.8198 C   0  0  0  0  0  0  0  0  0  0  0  0
  148.2219  140.4111  154.0867 N   0  0  0  0  0  0  0  0  0  0  0  0
  149.4295  140.3913  154.6677 C   0  0  0  0  0  0  0  0  0  0  0  0
  150.4337  139.8207  154.2425 O   0  0  0  0  0  0  0  0  0  0  0  0
  149.4260  141.1921  155.9629 C   0  0  0  0  0  0  0  0  0  0  0  0
  147.9853  141.7060  156.0484 C   0  0  0  0  0  0  0  0  0  0  0  0
  147.3427  141.1395  154.7894 C   0  0  0  0  0  0  0  0  0  0  0  0
  146.1679  141.3515  154.4913 O   0  0  0  0  0  0  0  0  0  0  0  0
  146.3856  135.5180  151.6168 N   0  0  0  0  0  0  0  0  0  0  0  0
  145.6833  134.3438  151.2351 C   0  0  0  0  0  0  0  0  0  0  0  0
  146.4998  133.2508  150.8657 C   0  0  0  0  0  0  0  0  0  0  0  0
  145.8994  132.0396  150.4710 C   0  0  0  0  0  0  0  0  0  0  0  0
  144.4958  131.9523  150.4558 C   0  0  0  0  0  0  0  0  0  0  0  0
  143.7567  133.0866  150.8385 C   0  0  0  0  0  0  0  0  0  0  0  0
  144.3302  134.2483  151.2169 N   0  0  0  0  0  0  0  0  0  0  0  0
  147.8083  137.2887  152.1639 H   0  0  0  0  0  0  0  0  0  0  0  0
  145.8159  139.3404  152.4071 H   0  0  0  0  0  0  0  0  0  0  0  0
  146.3324  138.7886  153.9837 H   0  0  0  0  0  0  0  0  0  0  0  0
  148.7578  139.1349  152.5059 H   0  0  0  0  0  0  0  0  0  0  0  0
  147.7747  140.4861  152.0302 H   0  0  0  0  0  0  0  0  0  0  0  0
  149.6809  140.5525  156.8086 H   0  0  0  0  0  0  0  0  0  0  0  0
  150.1464  142.0088  155.9083 H   0  0  0  0  0  0  0  0  0  0  0  0
  147.4737  141.3359  156.9374 H   0  0  0  0  0  0  0  0  0  0  0  0
  147.9403  142.7956  156.0434 H   0  0  0  0  0  0  0  0  0  0  0  0
  147.3863  135.4853  151.4906 H   0  0  0  0  0  0  0  0  0  0  0  0
  147.5769  133.3348  150.8836 H   0  0  0  0  0  0  0  0  0  0  0  0
  146.5060  131.1927  150.1858 H   0  0  0  0  0  0  0  0  0  0  0  0
  143.9989  131.0406  150.1591 H   0  0  0  0  0  0  0  0  0  0  0  0
  142.6771  133.0617  150.8415 H   0  0  0  0  0  0  0  0  0  0  0  0
  1  2  2  0  0  0  0
  2  3  1  0  0  0  0
  2 13  1  0  0  0  0
  3  4  1  0  0  0  0
  3 20  1  0  0  0  0
  4  5  1  0  0  0  0
  4 21  1  0  0  0  0
  4 22  1  0  0  0  0
  5  6  1  0  0  0  0
  5 23  1  0  0  0  0
  5 24  1  0  0  0  0
  6 11  1  0  0  0  0
  6  7  1  0  0  0  0
  7  8  2  0  0  0  0
  7  9  1  0  0  0  0
  9 10  1  0  0  0  0
  9 25  1  0  0  0  0
  9 26  1  0  0  0  0
 10 11  1  0  0  0  0
 10 27  1  0  0  0  0
 10 28  1  0  0  0  0
 11 12  2  0  0  0  0
 13 14  1  0  0  0  0
 13 29  1  0  0  0  0
 14 19  1  0  0  0  0
 14 15  2  0  0  0  0
 15 16  1  0  0  0  0
 15 30  1  0  0  0  0
 16 17  2  0  0  0  0
 16 31  1  0  0  0  0
 17 18  1  0  0  0  0
 17 32  1  0  0  0  0
 18 19  2  0  0  0  0
 18 33  1  0  0  0  0
M  END
> <s_m_source_file>
AV-unprocessed.smi

> <i_m_source_file_index>
2650

> <i_lp_mmshare_version>
43012

> <i_f3d_flags>
0

> <s_epik_input>
bjFbY0hdW2NIXVtjSF1bY0hdYzFbTkhdQyg9TylbTkhdW0NIMl1bQ0gyXU4yQyg9TylbQ0gyXVtDSDJdQzI9Tw==

> <s_epik_cmdline>
J2VwaWtfcHl0aG9uJywgJy1waCcsICc3LjAnLCAnLXRuJywgJzgnLCAnLW1hJywgJzIwMCcsICctbWV0YWxfYmluZGluZycsICctaW1hZScsICc8aW5maWxlLm1hZT4nLCAnLW9tYWUnLCAnPG91dGZpbGUubWFlPic=

> <r_lp_tautomer_probability>
1

> <r_epik_Ionization_Penalty>
4.11926e-05

> <r_epik_Ionization_Penalty_Charging>
0

> <r_epik_Ionization_Penalty_Neutral>
4.11926e-05

> <r_epik_State_Penalty>
-0

> <r_epik_Charging_Adjusted_Penalty>
0

> <i_epik_Tot_Q>
0

> <i_epik_Tot_abs_Q>
0

> <r_epik_Metal_State_Penalty>
-0

> <b_epik_Metal_Only>
0

> <s_lp_Force_Field>
OPLS_2005

> <r_lp_Energy>
11.0549

> <b_lp_Chiralities_Consistent>
1

> <s_lp_Variant>
AV-unprocessed.smi:2650-1

> <Gold.Version>
5.8.1

> <Gold.Id.Protein>
6NUR|6NUR_protein|mol2

> <Gold.PLP.Fitness>
41.1138

> <Gold.PLP.PLP>
-30.0867

> <Gold.PLP.part.hbond>
-3.0000

> <Gold.PLP.part.metal>
0.0000

> <Gold.PLP.part.buried>
-0.7809

> <Gold.PLP.part.nonpolar>
-27.8643

> <Gold.PLP.part.repulsive>
0.8678

> <Gold.PLP.ligand.clash>
0.0000

> <Gold.PLP.ligand.torsion>
0.4886

> <Gold.PLP.Chemscore.Hbond>
2.9920

> <Gold.PLP.Chemscore.CHOScore>
1.0000

> <Gold.PLP.Chemscore.Metal>
0.0000

> <Gold.Chemscore.Hbonds>
donor molecule, donor type, donor heavy atom, donor atom, acceptor molecule, acceptor atom, score
      L1  H     3    20       P1  7948  1.00
      L1  H    13    29       P1  7948  0.98
      P1  H  7989  7998       L1     8  1.00
      L1  C    18    33       P1 10186  1.00

> <Gold.PLP.Chemscore.Internal.Correction>
0.0283

> <Gold.Rescore>
     Score         DG    S(hbond)    S(metal)    S(lipo)     H(rot)  DE(clash)    DE(int)     intcor
     12.79     -17.14       2.76        0.00      60.10       1.80       1.74       2.62       ----

> <Gold.Chemscore.Fitness>
12.7855

> <Gold.Chemscore.DG>
-17.1444

> <Gold.Chemscore.ZeroCoef>
-5.4800

> <Gold.Chemscore.Hbond>
2.7642

> <Gold.Chemscore.Metal>
0.0000

> <Gold.Chemscore.Lipo>
60.1013

> <Gold.Chemscore.Internal_Hbond>
0.0000

> <Gold.Chemscore.DEClash>
1.7360

> <Gold.Chemscore.DEInternal>
2.6229

> <Gold.Chemscore.Rot>
1.7968

> <Gold.Chemscore.Internal.Correction>
   9.000000E+99

> <Gold.Chemscore.Hbonds>
donor molecule, donor type, donor heavy atom, donor atom, acceptor molecule, acceptor atom, score
      L1  H     3    20       P1  7948  0.94
      L1  H    13    29       P1  7948  0.88
      P1  H  7989  7998       L1     8  0.90

> <Gold.Chemscore.Hbond.Weighted>
-9.2324

> <Gold.Chemscore.Metal.Weighted>
-0.0000

> <Gold.Chemscore.Lipo.Weighted>
-7.0319

> <Gold.Chemscore.Internal_Hbond.Weighted>
0.0000

> <Gold.Chemscore.DEClash.Weighted>
1.7360

> <Gold.Chemscore.DEInternal.Weighted>
2.6229

> <Gold.Chemscore.Rot.Weighted>
4.5999

> <Gold.Chemscore.Internal.Correction.Weighted>
   9.000000E+99

> <Gold.Protein.RotatedTorsions>
[ 6907 6896 6895 6894 ] final  165.76 input  -60.11 | X-H torsion
[ 7974 7965 7964 7962 ] final   93.10 input  175.53 | X-H torsion
[ 8008 7997 7996 7995 ] final  -10.07 input   59.86 | X-H torsion
[ 10167 10162 10161 10158 ] final  -25.44 input  -65.29 | X-H torsion
[ 10718 10713 10712 10709 ] final -138.41 input   66.30 | X-H torsion
[ 10763 10752 10751 10750 ] final  -12.04 input  -60.55 | X-H torsion
[ 11005 11000 10999 10996 ] final    9.75 input  -57.11 | X-H torsion

> <Gold.Protein.ActiveResidues>
 VAL166  LYS551  ARG553  GLY616  TRP617  ASP618  TYR619  PRO620  LYS621  CYS622 
 ASP623  PHE694  ASN695  SER759  ASP760  ASP761  ALA762  ILE779  LEU786  VAL792 
 PHE793  MET794  SER795  GLU796  ALA797  LYS798  CYS799  TRP800  GLU811  SER814 

> <Gold.Protein.RotatedAtoms>
  151.8893  133.3512  159.3792 H   0  0  0  0  0  0  0  0  0  0  0  0  # atno 6907 bound_to 6896
  150.7107  134.4939  159.5538 H   0  0  0  0  0  0  0  0  0  0  0  0  # atno 6908 bound_to 6896
  152.2506  134.8136  160.0497 H   0  0  0  0  0  0  0  0  0  0  0  0  # atno 6909 bound_to 6896
  145.4834  139.2278  143.2870 H   0  0  0  0  0  0  0  0  0  0  0  0  # atno 7974 bound_to 7965
  154.5588  140.2338  155.8367 H   0  0  0  0  0  0  0  0  0  0  0  0  # atno 8008 bound_to 7997
  156.2012  140.3052  155.9490 H   0  0  0  0  0  0  0  0  0  0  0  0  # atno 8009 bound_to 7997
  155.2928  140.0427  157.3015 H   0  0  0  0  0  0  0  0  0  0  0  0  # atno 8010 bound_to 7997
  140.7286  143.4264  151.0870 H   0  0  0  0  0  0  0  0  0  0  0  0  # atno 10167 bound_to 10162
  156.2991  130.7418  151.1465 H   0  0  0  0  0  0  0  0  0  0  0  0  # atno 10718 bound_to 10713
  153.4926  135.7017  153.5875 H   0  0  0  0  0  0  0  0  0  0  0  0  # atno 10763 bound_to 10752
  153.4041  135.3864  155.2007 H   0  0  0  0  0  0  0  0  0  0  0  0  # atno 10764 bound_to 10752
  154.8716  135.3888  154.4388 H   0  0  0  0  0  0  0  0  0  0  0  0  # atno 10765 bound_to 10752
  140.5222  134.0548  155.7848 H   0  0  0  0  0  0  0  0  0  0  0  0  # atno 11005 bound_to 11000
  146.2327  140.5623  142.8968 LP  0  0  0  0  0  0  0  0  0  0  0  0  # atno 17320 bound_to 7965
  144.7875  140.5966  143.6564 LP  0  0  0  0  0  0  0  0  0  0  0  0  # atno 17321 bound_to 7965
  139.7916  143.8210  152.3152 LP  0  0  0  0  0  0  0  0  0  0  0  0  # atno 17342 bound_to 10162
  139.8196  144.7301  150.9590 LP  0  0  0  0  0  0  0  0  0  0  0  0  # atno 17343 bound_to 10162
  157.7363  131.0563  150.5421 LP  0  0  0  0  0  0  0  0  0  0  0  0  # atno 17370 bound_to 10713
  156.5546  130.4240  149.6091 LP  0  0  0  0  0  0  0  0  0  0  0  0  # atno 17371 bound_to 10713
  141.1328  133.9273  157.2499 LP  0  0  0  0  0  0  0  0  0  0  0  0  # atno 17394 bound_to 11000
  139.9600  135.0156  156.9234 LP  0  0  0  0  0  0  0  0  0  0  0  0  # atno 17395 bound_to 11000

$$$$
