AV-unprocessed.smi:1443|AV-procd|sdf|5879|dock5
  -GOLD-   22720 5553D 1   1.00000     0.00000
 Structure written by MMmdl.
 27 28  0  0  0  0  0  0  0  0  1 V2000
  148.6709  136.3444  156.4139 C   0  0  0  0  0  0  0  0  0  0  0  0
  149.7552  137.3172  155.3356 S   0  0  0  0  0  0  0  0  0  0  0  0
  149.1733  138.9803  155.4220 C   0  0  0  0  0  0  0  0  0  0  0  0
  147.9617  139.3006  154.9330 N   0  0  0  0  0  0  0  0  0  0  0  0
  147.7106  140.9564  155.1568 S   0  0  0  0  0  0  0  0  0  0  0  0
  149.2733  141.1238  155.9006 C   0  0  0  0  0  0  0  0  0  0  0  0
  149.7624  142.3793  156.3641 N   0  0  0  0  0  0  0  0  0  0  0  0
  150.6782  142.6871  157.3071 C   0  0  0  0  0  0  0  0  0  0  0  0
  151.2547  141.8046  157.9406 O   0  0  0  0  0  0  0  0  0  0  0  0
  150.9115  143.9943  157.5021 N   0  0  0  0  0  0  0  0  0  0  0  0
  151.8123  144.5484  158.4608 C   0  0  2  0  0  0  0  0  0  0  0  0
  151.8178  143.9266  159.8406 C   0  0  0  0  0  0  0  0  0  0  0  0
  151.2490  145.3073  159.6484 C   0  0  2  0  0  0  0  0  0  0  0  0
  149.7636  145.5622  159.8097 C   0  0  0  0  0  0  0  0  0  0  0  0
  149.9203  139.9594  155.9642 N   0  0  0  0  0  0  0  0  0  0  0  0
  149.0083  135.3087  156.4503 H   0  0  0  0  0  0  0  0  0  0  0  0
  147.6501  136.3605  156.0337 H   0  0  0  0  0  0  0  0  0  0  0  0
  148.6755  136.7457  157.4274 H   0  0  0  0  0  0  0  0  0  0  0  0
  149.3777  143.1785  155.8817 H   0  0  0  0  0  0  0  0  0  0  0  0
  150.3957  144.6502  156.9328 H   0  0  0  0  0  0  0  0  0  0  0  0
  152.7798  144.8871  158.0926 H   0  0  0  0  0  0  0  0  0  0  0  0
  151.1200  143.1134  160.0332 H   0  0  0  0  0  0  0  0  0  0  0  0
  152.7759  143.8454  160.3499 H   0  0  0  0  0  0  0  0  0  0  0  0
  151.8650  146.1290  160.0090 H   0  0  0  0  0  0  0  0  0  0  0  0
  149.1807  144.6974  159.4947 H   0  0  0  0  0  0  0  0  0  0  0  0
  149.4644  146.4204  159.2081 H   0  0  0  0  0  0  0  0  0  0  0  0
  149.5323  145.7717  160.8541 H   0  0  0  0  0  0  0  0  0  0  0  0
  1  2  1  0  0  0  0
  1 16  1  0  0  0  0
  1 17  1  0  0  0  0
  1 18  1  0  0  0  0
  2  3  1  0  0  0  0
  3 15  1  0  0  0  0
  3  4  2  0  0  0  0
  4  5  1  0  0  0  0
  5  6  1  0  0  0  0
  6  7  1  0  0  0  0
  6 15  2  0  0  0  0
  7  8  1  0  0  0  0
  7 19  1  0  0  0  0
  8  9  2  0  0  0  0
  8 10  1  0  0  0  0
 10 11  1  0  0  0  0
 10 20  1  0  0  0  0
 11 13  1  0  0  0  0
 11 12  1  0  0  0  0
 11 21  1  0  0  0  0
 12 13  1  0  0  0  0
 12 22  1  0  0  0  0
 12 23  1  0  0  0  0
 13 14  1  0  0  0  0
 13 24  1  0  0  0  0
 14 25  1  0  0  0  0
 14 26  1  0  0  0  0
 14 27  1  0  0  0  0
M  END
> <s_m_source_file>
AV-unprocessed.smi

> <i_m_source_file_index>
1443

> <i_lp_mmshare_version>
43012

> <i_f3d_flags>
0

> <s_epik_input>
W0NIM11TYzFuc2MobjEpW05IXUMoPU8pW05IXVtDQEBIXTJbQ0gyXVtDQEhdMltDSDNd

> <s_epik_cmdline>
J2VwaWtfcHl0aG9uJywgJy1waCcsICc3LjAnLCAnLXRuJywgJzgnLCAnLW1hJywgJzIwMCcsICctbWV0YWxfYmluZGluZycsICctaW1hZScsICc8aW5maWxlLm1hZT4nLCAnLW9tYWUnLCAnPG91dGZpbGUubWFlPic=

> <r_lp_tautomer_probability>
1

> <r_epik_Ionization_Penalty>
2.74658e-05

> <r_epik_Ionization_Penalty_Charging>
0

> <r_epik_Ionization_Penalty_Neutral>
2.74658e-05

> <r_epik_State_Penalty>
-0

> <r_epik_Charging_Adjusted_Penalty>
0

> <i_epik_Tot_Q>
0

> <i_epik_Tot_abs_Q>
0

> <r_epik_Metal_State_Penalty>
-0

> <b_epik_Metal_Only>
0

> <s_lp_Force_Field>
OPLS_2005

> <r_lp_Energy>
21.2108

> <b_lp_Chiralities_Consistent>
1

> <s_lp_Variant>
AV-unprocessed.smi:1443-3

> <Gold.Version>
5.8.1

> <Gold.Id.Protein>
6NUR|6NUR_protein|mol2

> <Gold.PLP.Fitness>
39.2559

> <Gold.PLP.PLP>
-33.0148

> <Gold.PLP.part.hbond>
-3.0000

> <Gold.PLP.part.metal>
0.0000

> <Gold.PLP.part.buried>
-3.7018

> <Gold.PLP.part.nonpolar>
-27.7513

> <Gold.PLP.part.repulsive>
0.6439

> <Gold.PLP.ligand.clash>
0.0000

> <Gold.PLP.ligand.torsion>
0.3213

> <Gold.PLP.Chemscore.Hbond>
2.2820

> <Gold.PLP.Chemscore.CHOScore>
0.0000

> <Gold.PLP.Chemscore.Metal>
0.0000

> <Gold.Chemscore.Hbonds>
donor molecule, donor type, donor heavy atom, donor atom, acceptor molecule, acceptor atom, score
      L1  H     7    19       P1  8028  1.00
      L1  H    10    20       P1  8028  0.85

> <Gold.PLP.Chemscore.Internal.Correction>
0.0377

> <Gold.Rescore>
     Score         DG    S(hbond)    S(metal)    S(lipo)     H(rot)  DE(clash)    DE(int)     intcor
     13.24     -14.76       1.57        0.00      62.19       1.27       0.47       1.06       ----

> <Gold.Chemscore.Fitness>
13.2351

> <Gold.Chemscore.DG>
-14.7603

> <Gold.Chemscore.ZeroCoef>
-5.4800

> <Gold.Chemscore.Hbond>
1.5732

> <Gold.Chemscore.Metal>
0.0000

> <Gold.Chemscore.Lipo>
62.1926

> <Gold.Chemscore.Internal_Hbond>
0.0000

> <Gold.Chemscore.DEClash>
0.4695

> <Gold.Chemscore.DEInternal>
1.0557

> <Gold.Chemscore.Rot>
1.2699

> <Gold.Chemscore.Internal.Correction>
   9.000000E+99

> <Gold.Chemscore.Hbonds>
donor molecule, donor type, donor heavy atom, donor atom, acceptor molecule, acceptor atom, score
      L1  H     7    19       P1  8028  0.99
      L1  H    10    20       P1  8028  0.63

> <Gold.Chemscore.Hbond.Weighted>
-5.2546

> <Gold.Chemscore.Metal.Weighted>
-0.0000

> <Gold.Chemscore.Lipo.Weighted>
-7.2765

> <Gold.Chemscore.Internal_Hbond.Weighted>
0.0000

> <Gold.Chemscore.DEClash.Weighted>
0.4695

> <Gold.Chemscore.DEInternal.Weighted>
1.0557

> <Gold.Chemscore.Rot.Weighted>
3.2509

> <Gold.Chemscore.Internal.Correction.Weighted>
   9.000000E+99

> <Gold.Protein.RotatedTorsions>
[ 6907 6896 6895 6894 ] final  -17.78 input  -60.11 | X-H torsion
[ 7974 7965 7964 7962 ] final -148.86 input  175.53 | X-H torsion
[ 8008 7997 7996 7995 ] final -158.43 input   59.86 | X-H torsion
[ 10167 10162 10161 10158 ] final  -61.53 input  -65.29 | X-H torsion
[ 10718 10713 10712 10709 ] final  -71.31 input   66.30 | X-H torsion
[ 10763 10752 10751 10750 ] final  -94.98 input  -60.55 | X-H torsion
[ 11005 11000 10999 10996 ] final  178.23 input  -57.11 | X-H torsion

> <Gold.Protein.ActiveResidues>
 VAL166  LYS551  ARG553  GLY616  TRP617  ASP618  TYR619  PRO620  LYS621  CYS622 
 ASP623  PHE694  ASN695  SER759  ASP760  ASP761  ALA762  ILE779  LEU786  VAL792 
 PHE793  MET794  SER795  GLU796  ALA797  LYS798  CYS799  TRP800  GLU811  SER814 

> <Gold.Protein.RotatedAtoms>
  151.2882  135.0734  159.9194 H   0  0  0  0  0  0  0  0  0  0  0  0  # atno 6907 bound_to 6896
  152.5321  133.9960  159.7883 H   0  0  0  0  0  0  0  0  0  0  0  0  # atno 6908 bound_to 6896
  151.0225  133.5813  159.2700 H   0  0  0  0  0  0  0  0  0  0  0  0  # atno 6909 bound_to 6896
  144.8003  140.5141  143.5712 H   0  0  0  0  0  0  0  0  0  0  0  0  # atno 7974 bound_to 7965
  155.7474  140.0822  157.2217 H   0  0  0  0  0  0  0  0  0  0  0  0  # atno 8008 bound_to 7997
  154.4015  140.1566  156.2741 H   0  0  0  0  0  0  0  0  0  0  0  0  # atno 8009 bound_to 7997
  155.8962  140.3412  155.5995 H   0  0  0  0  0  0  0  0  0  0  0  0  # atno 8010 bound_to 7997
  140.6000  143.2359  151.5951 H   0  0  0  0  0  0  0  0  0  0  0  0  # atno 10167 bound_to 10162
  156.0368  130.4349  150.2425 H   0  0  0  0  0  0  0  0  0  0  0  0  # atno 10718 bound_to 10713
  154.7106  135.5137  153.8661 H   0  0  0  0  0  0  0  0  0  0  0  0  # atno 10763 bound_to 10752
  153.0777  135.6621  154.0119 H   0  0  0  0  0  0  0  0  0  0  0  0  # atno 10764 bound_to 10752
  153.9961  135.3015  155.3387 H   0  0  0  0  0  0  0  0  0  0  0  0  # atno 10765 bound_to 10752
  140.3928  134.6847  157.4517 H   0  0  0  0  0  0  0  0  0  0  0  0  # atno 11005 bound_to 11000
  145.5570  139.1478  143.3362 LP  0  0  0  0  0  0  0  0  0  0  0  0  # atno 17320 bound_to 7965
  146.2282  140.5707  142.8987 LP  0  0  0  0  0  0  0  0  0  0  0  0  # atno 17321 bound_to 7965
  139.5284  144.2989  152.1090 LP  0  0  0  0  0  0  0  0  0  0  0  0  # atno 17342 bound_to 10162
  140.2168  144.4507  150.6360 LP  0  0  0  0  0  0  0  0  0  0  0  0  # atno 17343 bound_to 10162
  157.0524  131.0066  151.3249 LP  0  0  0  0  0  0  0  0  0  0  0  0  # atno 17370 bound_to 10713
  157.5131  130.7951  149.7726 LP  0  0  0  0  0  0  0  0  0  0  0  0  # atno 17371 bound_to 10713
  140.0394  134.6289  155.9001 LP  0  0  0  0  0  0  0  0  0  0  0  0  # atno 17394 bound_to 11000
  141.1885  133.6562  156.5326 LP  0  0  0  0  0  0  0  0  0  0  0  0  # atno 17395 bound_to 11000

$$$$
