AV-unprocessed.smi:283|AV-procd|sdf|2143|dock9
  -GOLD-   2262021473D 1   1.00000     0.00000
 Structure written by MMmdl.
 48 51  0  0  0  0  0  0  0  0  1 V2000
  152.7928  138.8579  159.0631 C   0  0  0  0  0  0  0  0  0  0  0  0
  152.0146  139.8682  158.2100 C   0  0  2  0  0  0  0  0  0  0  0  0
  152.4197  139.7543  156.8095 N   0  0  0  0  0  0  0  0  0  0  0  0
  151.6767  139.0512  155.9255 C   0  0  0  0  0  0  0  0  0  0  0  0
  150.9346  139.6772  154.9750 N   0  0  0  0  0  0  0  0  0  0  0  0
  150.2106  138.9591  154.1119 C   0  0  0  0  0  0  0  0  0  0  0  0
  150.0881  137.6324  154.0279 N   0  0  0  0  0  0  0  0  0  0  0  0
  150.8275  136.9985  154.9836 C   0  0  0  0  0  0  0  0  0  0  0  0
  151.6401  137.6335  155.9637 C   0  0  0  0  0  0  0  0  0  0  0  0
  152.2422  136.6756  156.7689 N   0  0  0  0  0  0  0  0  0  0  0  0
  151.8064  135.5416  156.2897 C   0  0  0  0  0  0  0  0  0  0  0  0
  150.9555  135.6432  155.2113 N   0  0  0  0  0  0  0  0  0  0  0  0
  150.3063  134.5303  154.4557 C   0  0  1  0  0  0  0  0  0  0  0  0
  150.8064  133.3256  154.9444 O   0  0  0  0  0  0  0  0  0  0  0  0
  149.7812  132.3381  154.9628 C   0  0  2  0  0  0  0  0  0  0  0  0
  149.7465  131.6195  153.5995 C   0  0  0  0  0  0  0  0  0  0  0  0
  148.8295  130.5478  153.6441 O   0  0  0  0  0  0  0  0  0  0  0  0
  148.5067  133.1470  155.2426 C   0  0  1  0  0  0  0  0  0  0  0  0
  148.2980  133.2168  156.6390 O   0  0  0  0  0  0  0  0  0  0  0  0
  148.7827  134.5329  154.6626 C   0  0  2  0  0  0  0  0  0  0  0  0
  148.1051  134.6691  153.4293 O   0  0  0  0  0  0  0  0  0  0  0  0
  152.1493  141.2765  158.7943 C   0  0  0  0  0  0  0  0  0  0  0  0
  152.8560  141.4702  160.0043 C   0  0  0  0  0  0  0  0  0  0  0  0
  152.9898  142.7565  160.5597 C   0  0  0  0  0  0  0  0  0  0  0  0
  152.4116  143.8641  159.9141 C   0  0  0  0  0  0  0  0  0  0  0  0
  151.6965  143.6819  158.7160 C   0  0  0  0  0  0  0  0  0  0  0  0
  151.5599  142.3963  158.1546 C   0  0  0  0  0  0  0  0  0  0  0  0
  150.6599  142.2310  156.6874 Cl  0  0  0  0  0  0  0  0  0  0  0  0
  150.6103  134.6771  153.4179 H   0  0  0  0  0  0  0  0  0  0  0  0
  149.9636  131.6084  155.7539 H   0  0  0  0  0  0  0  0  0  0  0  0
  147.6196  132.6794  154.8124 H   0  0  0  0  0  0  0  0  0  0  0  0
  148.4715  135.3357  155.3337 H   0  0  0  0  0  0  0  0  0  0  0  0
  152.4442  138.8683  160.0965 H   0  0  0  0  0  0  0  0  0  0  0  0
  153.8602  139.0814  159.0697 H   0  0  0  0  0  0  0  0  0  0  0  0
  152.6664  137.8429  158.6850 H   0  0  0  0  0  0  0  0  0  0  0  0
  150.9663  139.5733  158.2411 H   0  0  0  0  0  0  0  0  0  0  0  0
  153.1823  140.3524  156.5257 H   0  0  0  0  0  0  0  0  0  0  0  0
  149.6500  139.5287  153.3853 H   0  0  0  0  0  0  0  0  0  0  0  0
  152.1001  134.5914  156.7118 H   0  0  0  0  0  0  0  0  0  0  0  0
  149.4041  132.3031  152.8221 H   0  0  0  0  0  0  0  0  0  0  0  0
  150.7313  131.2604  153.2994 H   0  0  0  0  0  0  0  0  0  0  0  0
  148.9293  130.1026  154.4720 H   0  0  0  0  0  0  0  0  0  0  0  0
  148.8429  132.5650  157.0552 H   0  0  0  0  0  0  0  0  0  0  0  0
  148.7039  135.0358  152.7967 H   0  0  0  0  0  0  0  0  0  0  0  0
  153.3020  140.6297  160.5155 H   0  0  0  0  0  0  0  0  0  0  0  0
  153.5352  142.8927  161.4819 H   0  0  0  0  0  0  0  0  0  0  0  0
  152.5131  144.8520  160.3390 H   0  0  0  0  0  0  0  0  0  0  0  0
  151.2490  144.5344  158.2261 H   0  0  0  0  0  0  0  0  0  0  0  0
  1  2  1  0  0  0  0
  1 33  1  0  0  0  0
  1 34  1  0  0  0  0
  1 35  1  0  0  0  0
  2  3  1  0  0  0  0
  2 22  1  0  0  0  0
  2 36  1  0  0  0  0
  3  4  1  0  0  0  0
  3 37  1  0  0  0  0
  4  9  1  0  0  0  0
  4  5  2  0  0  0  0
  5  6  1  0  0  0  0
  6  7  2  0  0  0  0
  6 38  1  0  0  0  0
  7  8  1  0  0  0  0
  8 12  1  0  0  0  0
  8  9  2  0  0  0  0
  9 10  1  0  0  0  0
 10 11  2  0  0  0  0
 11 12  1  0  0  0  0
 11 39  1  0  0  0  0
 12 13  1  0  0  0  0
 13 29  1  0  0  0  0
 13 20  1  0  0  0  0
 13 14  1  0  0  0  0
 14 15  1  0  0  0  0
 15 30  1  0  0  0  0
 15 16  1  0  0  0  0
 15 18  1  0  0  0  0
 16 17  1  0  0  0  0
 16 40  1  0  0  0  0
 16 41  1  0  0  0  0
 17 42  1  0  0  0  0
 18 31  1  0  0  0  0
 18 19  1  0  0  0  0
 18 20  1  0  0  0  0
 19 43  1  0  0  0  0
 20 32  1  0  0  0  0
 20 21  1  0  0  0  0
 21 44  1  0  0  0  0
 22 27  1  0  0  0  0
 22 23  2  0  0  0  0
 23 24  1  0  0  0  0
 23 45  1  0  0  0  0
 24 25  2  0  0  0  0
 24 46  1  0  0  0  0
 25 26  1  0  0  0  0
 25 47  1  0  0  0  0
 26 27  2  0  0  0  0
 26 48  1  0  0  0  0
 27 28  1  0  0  0  0
M  END
> <s_m_source_file>
AV-unprocessed.smi

> <i_m_source_file_index>
283

> <i_lp_mmshare_version>
43012

> <i_f3d_flags>
0

> <s_epik_input>
Q2xjMVtjSF1bY0hdW2NIXVtjSF1jMVtDQEhdKFtDSDNdKVtOSF1jKG5bY0hdbjIpYyhjMjMpbltjSF1uM1tDQEBIXTRPW0NASF0oW0NIMl1bT0hdKVtDQEBIXShbT0hdKVtDQEhdNFtPSF0=

> <s_epik_cmdline>
J2VwaWtfcHl0aG9uJywgJy1waCcsICc3LjAnLCAnLXRuJywgJzgnLCAnLW1hJywgJzIwMCcsICctbWV0YWxfYmluZGluZycsICctaW1hZScsICc8aW5maWxlLm1hZT4nLCAnLW9tYWUnLCAnPG91dGZpbGUubWFlPic=

> <r_lp_tautomer_probability>
1

> <r_epik_Ionization_Penalty>
0.000266407

> <r_epik_Ionization_Penalty_Charging>
0

> <r_epik_Ionization_Penalty_Neutral>
0.000266407

> <r_epik_State_Penalty>
-0

> <r_epik_Charging_Adjusted_Penalty>
0

> <i_epik_Tot_Q>
0

> <i_epik_Tot_abs_Q>
0

> <r_epik_Metal_State_Penalty>
-0

> <b_epik_Metal_Only>
0

> <s_epik_Chemistry_Notes>
This compound contains an acetal/aminal-like group ( X-CH(R)-Y where X, Y are N, S, or O) that may be acid/base labile, releasing an aldehyde.

> <s_lp_Force_Field>
OPLS_2005

> <r_lp_Energy>
39.2487

> <b_lp_Chiralities_Consistent>
1

> <s_lp_Variant>
AV-unprocessed.smi:283-19

> <Gold.Version>
5.8.1

> <Gold.Id.Protein>
6NUR|6NUR_protein|mol2

> <Gold.PLP.Fitness>
48.5261

> <Gold.PLP.PLP>
-42.6151

> <Gold.PLP.part.hbond>
-1.9793

> <Gold.PLP.part.metal>
0.0000

> <Gold.PLP.part.buried>
-5.6062

> <Gold.PLP.part.nonpolar>
-38.8612

> <Gold.PLP.part.repulsive>
3.2033

> <Gold.PLP.ligand.clash>
0.0000

> <Gold.PLP.ligand.torsion>
1.1240

> <Gold.PLP.Chemscore.Hbond>
1.6920

> <Gold.PLP.Chemscore.CHOScore>
1.0000

> <Gold.PLP.Chemscore.Metal>
0.0000

> <Gold.Chemscore.Hbonds>
donor molecule, donor type, donor heavy atom, donor atom, acceptor molecule, acceptor atom, score
      L1  H    21    44       P1  7948  0.84
      P1  H  7989  7998       L1     5  0.60
      L1  C     6    38       P1  7957  1.00

> <Gold.PLP.Chemscore.Internal.Correction>
0.0829

> <Gold.Rescore>
     Score         DG    S(hbond)    S(metal)    S(lipo)     H(rot)  DE(clash)    DE(int)     intcor
      8.79      -9.84       0.98        0.00      98.82       4.10       0.03       1.02       ----

> <Gold.Chemscore.Fitness>
8.7882

> <Gold.Chemscore.DG>
-9.8414

> <Gold.Chemscore.ZeroCoef>
-5.4800

> <Gold.Chemscore.Hbond>
0.9844

> <Gold.Chemscore.Metal>
0.0000

> <Gold.Chemscore.Lipo>
98.8162

> <Gold.Chemscore.Internal_Hbond>
0.0000

> <Gold.Chemscore.DEClash>
0.0310

> <Gold.Chemscore.DEInternal>
1.0222

> <Gold.Chemscore.Rot>
4.0968

> <Gold.Chemscore.Internal.Correction>
   9.000000E+99

> <Gold.Chemscore.Hbonds>
donor molecule, donor type, donor heavy atom, donor atom, acceptor molecule, acceptor atom, score
      L1  H    21    44       P1  7948  0.24
      P1  H  7989  7998       L1     5  0.04

> <Gold.Chemscore.Hbond.Weighted>
-3.2878

> <Gold.Chemscore.Metal.Weighted>
-0.0000

> <Gold.Chemscore.Lipo.Weighted>
-11.5615

> <Gold.Chemscore.Internal_Hbond.Weighted>
0.0000

> <Gold.Chemscore.DEClash.Weighted>
0.0310

> <Gold.Chemscore.DEInternal.Weighted>
1.0222

> <Gold.Chemscore.Rot.Weighted>
10.4879

> <Gold.Chemscore.Internal.Correction.Weighted>
   9.000000E+99

> <Gold.Protein.RotatedTorsions>
[ 6907 6896 6895 6894 ] final   47.10 input  -60.11 | X-H torsion
[ 7974 7965 7964 7962 ] final -138.43 input  175.53 | X-H torsion
[ 8008 7997 7996 7995 ] final  147.52 input   59.86 | X-H torsion
[ 10167 10162 10161 10158 ] final    2.27 input  -65.29 | X-H torsion
[ 10718 10713 10712 10709 ] final -172.59 input   66.30 | X-H torsion
[ 10763 10752 10751 10750 ] final  168.81 input  -60.55 | X-H torsion
[ 11005 11000 10999 10996 ] final  142.57 input  -57.11 | X-H torsion

> <Gold.Protein.ActiveResidues>
 VAL166  LYS551  ARG553  GLY616  TRP617  ASP618  TYR619  PRO620  LYS621  CYS622 
 ASP623  PHE694  ASN695  SER759  ASP760  ASP761  ALA762  ILE779  LEU786  VAL792 
 PHE793  MET794  SER795  GLU796  ALA797  LYS798  CYS799  TRP800  GLU811  SER814 

> <Gold.Protein.RotatedAtoms>
  152.2642  134.8002  160.0425 H   0  0  0  0  0  0  0  0  0  0  0  0  # atno 6907 bound_to 6896
  151.8638  133.3457  159.3720 H   0  0  0  0  0  0  0  0  0  0  0  0  # atno 6908 bound_to 6896
  150.7127  134.5108  159.5650 H   0  0  0  0  0  0  0  0  0  0  0  0  # atno 6909 bound_to 6896
  144.8759  140.6436  143.5237 H   0  0  0  0  0  0  0  0  0  0  0  0  # atno 7974 bound_to 7965
  156.2822  140.2153  156.5552 H   0  0  0  0  0  0  0  0  0  0  0  0  # atno 8008 bound_to 7997
  154.7258  140.0499  157.0704 H   0  0  0  0  0  0  0  0  0  0  0  0  # atno 8009 bound_to 7997
  155.0418  140.3146  155.4725 H   0  0  0  0  0  0  0  0  0  0  0  0  # atno 8010 bound_to 7997
  140.6643  143.7221  150.7797 H   0  0  0  0  0  0  0  0  0  0  0  0  # atno 10167 bound_to 10162
  156.7579  130.9402  151.3117 H   0  0  0  0  0  0  0  0  0  0  0  0  # atno 10718 bound_to 10713
  154.3739  135.2753  155.2250 H   0  0  0  0  0  0  0  0  0  0  0  0  # atno 10763 bound_to 10752
  154.4386  135.5960  153.6118 H   0  0  0  0  0  0  0  0  0  0  0  0  # atno 10764 bound_to 10752
  152.9837  135.6013  154.3974 H   0  0  0  0  0  0  0  0  0  0  0  0  # atno 10765 bound_to 10752
  140.0487  134.9267  157.0977 H   0  0  0  0  0  0  0  0  0  0  0  0  # atno 11005 bound_to 11000
  145.4044  139.1591  143.4160 LP  0  0  0  0  0  0  0  0  0  0  0  0  # atno 17320 bound_to 7965
  146.2962  140.4143  142.8721 LP  0  0  0  0  0  0  0  0  0  0  0  0  # atno 17321 bound_to 7965
  140.0895  143.4891  152.2486 LP  0  0  0  0  0  0  0  0  0  0  0  0  # atno 17342 bound_to 10162
  139.5887  144.7541  151.3455 LP  0  0  0  0  0  0  0  0  0  0  0  0  # atno 17343 bound_to 10162
  157.6748  130.9084  150.0124 LP  0  0  0  0  0  0  0  0  0  0  0  0  # atno 17370 bound_to 10713
  156.1358  130.3642  149.9659 LP  0  0  0  0  0  0  0  0  0  0  0  0  # atno 17371 bound_to 10713
  140.3952  134.2141  155.7165 LP  0  0  0  0  0  0  0  0  0  0  0  0  # atno 17394 bound_to 11000
  141.1920  133.8184  157.0858 LP  0  0  0  0  0  0  0  0  0  0  0  0  # atno 17395 bound_to 11000

$$$$
