AV-unprocessed.smi:283|AV-procd|sdf|2130|dock6
  -GOLD-   2262021443D 1   1.00000     0.00000
 Structure written by MMmdl.
 48 51  0  0  0  0  0  0  0  0  1 V2000
  152.4285  144.6688  157.9555 C   0  0  0  0  0  0  0  0  0  0  0  0
  151.5597  143.6574  158.7252 C   0  0  1  0  0  0  0  0  0  0  0  0
  151.3839  142.4215  157.9633 N   0  0  0  0  0  0  0  0  0  0  0  0
  150.1801  142.0529  157.4714 C   0  0  0  0  0  0  0  0  0  0  0  0
  149.0285  142.3277  158.1378 N   0  0  0  0  0  0  0  0  0  0  0  0
  147.8537  141.9450  157.6290 C   0  0  0  0  0  0  0  0  0  0  0  0
  147.6107  141.2893  156.4915 N   0  0  0  0  0  0  0  0  0  0  0  0
  148.7651  141.0077  155.8201 C   0  0  0  0  0  0  0  0  0  0  0  0
  150.0791  141.3499  156.2433 C   0  0  0  0  0  0  0  0  0  0  0  0
  151.0044  140.8929  155.3155 N   0  0  0  0  0  0  0  0  0  0  0  0
  150.2748  140.3079  154.4040 C   0  0  0  0  0  0  0  0  0  0  0  0
  148.9104  140.3469  154.6184 N   0  0  0  0  0  0  0  0  0  0  0  0
  147.7867  139.7593  153.8122 C   0  0  2  0  0  0  0  0  0  0  0  0
  147.1019  138.8703  154.6389 O   0  0  0  0  0  0  0  0  0  0  0  0
  147.6109  137.5566  154.4478 C   0  0  1  0  0  0  0  0  0  0  0  0
  146.6442  136.4979  155.0095 C   0  0  0  0  0  0  0  0  0  0  0  0
  145.3881  136.6021  154.3736 O   0  0  0  0  0  0  0  0  0  0  0  0
  147.8363  137.5206  152.9282 C   0  0  1  0  0  0  0  0  0  0  0  0
  146.6388  137.1675  152.2541 O   0  0  0  0  0  0  0  0  0  0  0  0
  148.3007  138.9470  152.6063 C   0  0  1  0  0  0  0  0  0  0  0  0
  147.8045  139.4272  151.3704 O   0  0  0  0  0  0  0  0  0  0  0  0
  152.1530  143.4107  160.1113 C   0  0  0  0  0  0  0  0  0  0  0  0
  151.8226  144.2724  161.1840 C   0  0  0  0  0  0  0  0  0  0  0  0
  152.3546  144.0569  162.4691 C   0  0  0  0  0  0  0  0  0  0  0  0
  153.2193  142.9721  162.6989 C   0  0  0  0  0  0  0  0  0  0  0  0
  153.5451  142.1007  161.6434 C   0  0  0  0  0  0  0  0  0  0  0  0
  153.0146  142.3106  160.3546 C   0  0  0  0  0  0  0  0  0  0  0  0
  153.4351  141.1940  159.1027 Cl  0  0  0  0  0  0  0  0  0  0  0  0
  147.1551  140.6046  153.5376 H   0  0  0  0  0  0  0  0  0  0  0  0
  148.5779  137.4670  154.9442 H   0  0  0  0  0  0  0  0  0  0  0  0
  148.5958  136.7856  152.6599 H   0  0  0  0  0  0  0  0  0  0  0  0
  149.3881  138.9862  152.5585 H   0  0  0  0  0  0  0  0  0  0  0  0
  152.5171  145.6051  158.5069 H   0  0  0  0  0  0  0  0  0  0  0  0
  152.0078  144.9084  156.9794 H   0  0  0  0  0  0  0  0  0  0  0  0
  153.4357  144.2830  157.7950 H   0  0  0  0  0  0  0  0  0  0  0  0
  150.5676  144.0851  158.8640 H   0  0  0  0  0  0  0  0  0  0  0  0
  152.2290  141.8996  157.7815 H   0  0  0  0  0  0  0  0  0  0  0  0
  146.9845  142.2002  158.2171 H   0  0  0  0  0  0  0  0  0  0  0  0
  150.7271  139.8318  153.5468 H   0  0  0  0  0  0  0  0  0  0  0  0
  147.0421  135.4897  154.8905 H   0  0  0  0  0  0  0  0  0  0  0  0
  146.4844  136.6621  156.0755 H   0  0  0  0  0  0  0  0  0  0  0  0
  145.4880  136.3567  153.4665 H   0  0  0  0  0  0  0  0  0  0  0  0
  146.1648  137.9599  152.0528 H   0  0  0  0  0  0  0  0  0  0  0  0
  146.8709  139.2825  151.3446 H   0  0  0  0  0  0  0  0  0  0  0  0
  151.1529  145.1058  161.0311 H   0  0  0  0  0  0  0  0  0  0  0  0
  152.0966  144.7230  163.2793 H   0  0  0  0  0  0  0  0  0  0  0  0
  153.6279  142.8048  163.6846 H   0  0  0  0  0  0  0  0  0  0  0  0
  154.2028  141.2636  161.8256 H   0  0  0  0  0  0  0  0  0  0  0  0
  1  2  1  0  0  0  0
  1 33  1  0  0  0  0
  1 34  1  0  0  0  0
  1 35  1  0  0  0  0
  2  3  1  0  0  0  0
  2 22  1  0  0  0  0
  2 36  1  0  0  0  0
  3  4  1  0  0  0  0
  3 37  1  0  0  0  0
  4  9  1  0  0  0  0
  4  5  2  0  0  0  0
  5  6  1  0  0  0  0
  6  7  2  0  0  0  0
  6 38  1  0  0  0  0
  7  8  1  0  0  0  0
  8 12  1  0  0  0  0
  8  9  2  0  0  0  0
  9 10  1  0  0  0  0
 10 11  2  0  0  0  0
 11 12  1  0  0  0  0
 11 39  1  0  0  0  0
 12 13  1  0  0  0  0
 13 29  1  0  0  0  0
 13 20  1  0  0  0  0
 13 14  1  0  0  0  0
 14 15  1  0  0  0  0
 15 30  1  0  0  0  0
 15 16  1  0  0  0  0
 15 18  1  0  0  0  0
 16 17  1  0  0  0  0
 16 40  1  0  0  0  0
 16 41  1  0  0  0  0
 17 42  1  0  0  0  0
 18 31  1  0  0  0  0
 18 19  1  0  0  0  0
 18 20  1  0  0  0  0
 19 43  1  0  0  0  0
 20 32  1  0  0  0  0
 20 21  1  0  0  0  0
 21 44  1  0  0  0  0
 22 27  1  0  0  0  0
 22 23  2  0  0  0  0
 23 24  1  0  0  0  0
 23 45  1  0  0  0  0
 24 25  2  0  0  0  0
 24 46  1  0  0  0  0
 25 26  1  0  0  0  0
 25 47  1  0  0  0  0
 26 27  2  0  0  0  0
 26 48  1  0  0  0  0
 27 28  1  0  0  0  0
M  END
> <s_m_source_file>
AV-unprocessed.smi

> <i_m_source_file_index>
283

> <i_lp_mmshare_version>
43012

> <i_f3d_flags>
0

> <s_epik_input>
Q2xjMVtjSF1bY0hdW2NIXVtjSF1jMVtDQEhdKFtDSDNdKVtOSF1jKG5bY0hdbjIpYyhjMjMpbltjSF1uM1tDQEBIXTRPW0NASF0oW0NIMl1bT0hdKVtDQEBIXShbT0hdKVtDQEhdNFtPSF0=

> <s_epik_cmdline>
J2VwaWtfcHl0aG9uJywgJy1waCcsICc3LjAnLCAnLXRuJywgJzgnLCAnLW1hJywgJzIwMCcsICctbWV0YWxfYmluZGluZycsICctaW1hZScsICc8aW5maWxlLm1hZT4nLCAnLW9tYWUnLCAnPG91dGZpbGUubWFlPic=

> <r_lp_tautomer_probability>
1

> <r_epik_Ionization_Penalty>
0.000266407

> <r_epik_Ionization_Penalty_Charging>
0

> <r_epik_Ionization_Penalty_Neutral>
0.000266407

> <r_epik_State_Penalty>
-0

> <r_epik_Charging_Adjusted_Penalty>
0

> <i_epik_Tot_Q>
0

> <i_epik_Tot_abs_Q>
0

> <r_epik_Metal_State_Penalty>
-0

> <b_epik_Metal_Only>
0

> <s_epik_Chemistry_Notes>
This compound contains an acetal/aminal-like group ( X-CH(R)-Y where X, Y are N, S, or O) that may be acid/base labile, releasing an aldehyde.

> <s_lp_Force_Field>
OPLS_2005

> <r_lp_Energy>
48.0921

> <b_lp_Chiralities_Consistent>
1

> <s_lp_Variant>
AV-unprocessed.smi:283-6

> <Gold.Version>
5.8.1

> <Gold.Id.Protein>
6NUR|6NUR_protein|mol2

> <Gold.PLP.Fitness>
58.7665

> <Gold.PLP.PLP>
-52.0860

> <Gold.PLP.part.hbond>
-4.0392

> <Gold.PLP.part.metal>
0.0000

> <Gold.PLP.part.buried>
-6.0925

> <Gold.PLP.part.nonpolar>
-43.2613

> <Gold.PLP.part.repulsive>
0.4834

> <Gold.PLP.ligand.clash>
0.0000

> <Gold.PLP.ligand.torsion>
1.0249

> <Gold.PLP.Chemscore.Hbond>
1.8775

> <Gold.PLP.Chemscore.CHOScore>
1.0000

> <Gold.PLP.Chemscore.Metal>
0.0000

> <Gold.Chemscore.Hbonds>
donor molecule, donor type, donor heavy atom, donor atom, acceptor molecule, acceptor atom, score
      P1  H  7954  7966       L1    21  0.24
      L1  C    11    39       P1  7957  0.62

> <Gold.PLP.Chemscore.Internal.Correction>
0.0978

> <Gold.Rescore>
     Score         DG    S(hbond)    S(metal)    S(lipo)     H(rot)  DE(clash)    DE(int)     intcor
     11.65     -15.31       1.84        0.00     121.06       4.10       1.62       2.03       ----

> <Gold.Chemscore.Fitness>
11.6526

> <Gold.Chemscore.DG>
-15.3102

> <Gold.Chemscore.ZeroCoef>
-5.4800

> <Gold.Chemscore.Hbond>
1.8426

> <Gold.Chemscore.Metal>
0.0000

> <Gold.Chemscore.Lipo>
121.0584

> <Gold.Chemscore.Internal_Hbond>
0.0000

> <Gold.Chemscore.DEClash>
1.6239

> <Gold.Chemscore.DEInternal>
2.0338

> <Gold.Chemscore.Rot>
4.0968

> <Gold.Chemscore.Internal.Correction>
   9.000000E+99

> <Gold.Chemscore.Hbonds>
donor molecule, donor type, donor heavy atom, donor atom, acceptor molecule, acceptor atom, score
      P1  H  7954  7966       L1    21  0.01

> <Gold.Chemscore.Hbond.Weighted>
-6.1543

> <Gold.Chemscore.Metal.Weighted>
-0.0000

> <Gold.Chemscore.Lipo.Weighted>
-14.1638

> <Gold.Chemscore.Internal_Hbond.Weighted>
0.0000

> <Gold.Chemscore.DEClash.Weighted>
1.6239

> <Gold.Chemscore.DEInternal.Weighted>
2.0338

> <Gold.Chemscore.Rot.Weighted>
10.4879

> <Gold.Chemscore.Internal.Correction.Weighted>
   9.000000E+99

> <Gold.Protein.RotatedTorsions>
[ 6907 6896 6895 6894 ] final   -8.42 input  -60.11 | X-H torsion
[ 7974 7965 7964 7962 ] final -157.12 input  175.53 | X-H torsion
[ 8008 7997 7996 7995 ] final  -76.70 input   59.86 | X-H torsion
[ 10167 10162 10161 10158 ] final  159.46 input  -65.29 | X-H torsion
[ 10718 10713 10712 10709 ] final   -5.24 input   66.30 | X-H torsion
[ 10763 10752 10751 10750 ] final  -92.44 input  -60.55 | X-H torsion
[ 11005 11000 10999 10996 ] final  -42.24 input  -57.11 | X-H torsion

> <Gold.Protein.ActiveResidues>
 VAL166  LYS551  ARG553  GLY616  TRP617  ASP618  TYR619  PRO620  LYS621  CYS622 
 ASP623  PHE694  ASN695  SER759  ASP760  ASP761  ALA762  ILE779  LEU786  VAL792 
 PHE793  MET794  SER795  GLU796  ALA797  LYS798  CYS799  TRP800  GLU811  SER814 

> <Gold.Protein.RotatedAtoms>
  151.4340  135.1013  159.9650 H   0  0  0  0  0  0  0  0  0  0  0  0  # atno 6907 bound_to 6896
  152.4946  133.8591  159.7251 H   0  0  0  0  0  0  0  0  0  0  0  0  # atno 6908 bound_to 6896
  150.9135  133.6910  159.2876 H   0  0  0  0  0  0  0  0  0  0  0  0  # atno 6909 bound_to 6896
  144.7562  140.4014  143.6010 H   0  0  0  0  0  0  0  0  0  0  0  0  # atno 7974 bound_to 7965
  154.5529  140.0723  156.8696 H   0  0  0  0  0  0  0  0  0  0  0  0  # atno 8008 bound_to 7997
  155.2959  140.3381  155.4232 H   0  0  0  0  0  0  0  0  0  0  0  0  # atno 8009 bound_to 7997
  156.1977  140.1709  156.7951 H   0  0  0  0  0  0  0  0  0  0  0  0  # atno 8010 bound_to 7997
  139.4832  144.4728  151.8553 H   0  0  0  0  0  0  0  0  0  0  0  0  # atno 10167 bound_to 10162
  156.7495  130.5235  149.5807 H   0  0  0  0  0  0  0  0  0  0  0  0  # atno 10718 bound_to 10713
  154.6861  135.5231  153.8328 H   0  0  0  0  0  0  0  0  0  0  0  0  # atno 10763 bound_to 10752
  153.0598  135.6564  154.0499 H   0  0  0  0  0  0  0  0  0  0  0  0  # atno 10764 bound_to 10752
  154.0379  135.2979  155.3339 H   0  0  0  0  0  0  0  0  0  0  0  0  # atno 10765 bound_to 10752
  141.0302  133.6823  156.2568 H   0  0  0  0  0  0  0  0  0  0  0  0  # atno 11005 bound_to 11000
  145.6770  139.1610  143.2722 LP  0  0  0  0  0  0  0  0  0  0  0  0  # atno 17320 bound_to 7965
  146.1575  140.6836  142.9293 LP  0  0  0  0  0  0  0  0  0  0  0  0  # atno 17321 bound_to 7965
  140.4198  144.2258  150.5887 LP  0  0  0  0  0  0  0  0  0  0  0  0  # atno 17342 bound_to 10162
  140.4885  143.2355  151.8853 LP  0  0  0  0  0  0  0  0  0  0  0  0  # atno 17343 bound_to 10162
  156.1411  130.6245  151.0468 LP  0  0  0  0  0  0  0  0  0  0  0  0  # atno 17370 bound_to 10713
  157.6783  131.0844  150.7436 LP  0  0  0  0  0  0  0  0  0  0  0  0  # atno 17371 bound_to 10713
  140.6420  134.5156  157.5570 LP  0  0  0  0  0  0  0  0  0  0  0  0  # atno 17394 bound_to 11000
  139.9203  134.8163  156.1234 LP  0  0  0  0  0  0  0  0  0  0  0  0  # atno 17395 bound_to 11000

$$$$
