AV-unprocessed.smi:1205|AV-procd|sdf|5045|dock4
  -GOLD-   22720 4 73D 1   1.00000     0.00000
 Structure written by MMmdl.
 49 50  0  0  0  0  0  0  0  0  2 V2000
  151.1222  130.5938  155.6494 C   0  0  0  0  0  0  0  0  0  0  0  0
  150.6745  132.0238  155.5728 C   0  0  0  0  0  0  0  0  0  0  0  0
  151.2536  133.1605  156.2083 C   0  0  0  0  0  0  0  0  0  0  0  0
  150.4476  134.1832  155.7886 C   0  0  0  0  0  0  0  0  0  0  0  0
  150.5293  135.5094  156.0769 N   0  0  0  0  0  0  0  0  0  0  0  0
  151.5145  136.1728  156.7067 C   0  0  0  0  0  0  0  0  0  0  0  0
  152.5494  135.6712  157.1464 O   0  0  0  0  0  0  0  0  0  0  0  0
  151.2295  137.4785  156.8120 N   0  0  0  0  0  0  0  0  0  0  0  0
  152.0896  138.4707  157.4494 C   0  0  0  0  0  0  0  0  0  0  0  0
  151.4357  139.8756  157.5048 C   0  0  2  0  0  0  0  0  0  0  0  0
  151.1694  140.4612  156.1048 C   0  0  0  0  0  0  0  0  0  0  0  0
  152.1970  140.8455  158.3455 N   0  3  2  0  0  0  0  0  0  0  0  0
  152.6646  140.3229  159.6583 C   0  0  0  0  0  0  0  0  0  0  0  0
  153.6332  141.3137  160.3225 C   0  0  0  0  0  0  0  0  0  0  0  0
  152.9789  142.6921  160.4847 C   0  0  0  0  0  0  0  0  0  0  0  0
  152.4650  143.2042  159.1278 C   0  0  2  0  0  0  0  0  0  0  0  0
  151.7826  144.5721  159.2665 C   0  0  0  0  0  0  0  0  0  0  0  0
  151.5236  142.1647  158.4860 C   0  0  0  0  0  0  0  0  0  0  0  0
  149.4705  133.6705  154.9643 N   0  0  0  0  0  0  0  0  0  0  0  0
  148.3946  134.3538  154.2728 C   0  0  0  0  0  0  0  0  0  0  0  0
  149.6149  132.3341  154.8342 N   0  0  0  0  0  0  0  0  0  0  0  0
  151.9893  130.4868  156.3015 H   0  0  0  0  0  0  0  0  0  0  0  0
  151.3991  130.2162  154.6649 H   0  0  0  0  0  0  0  0  0  0  0  0
  150.3313  129.9549  156.0425 H   0  0  0  0  0  0  0  0  0  0  0  0
  152.1167  133.1964  156.8557 H   0  0  0  0  0  0  0  0  0  0  0  0
  149.7348  136.0605  155.7871 H   0  0  0  0  0  0  0  0  0  0  0  0
  150.3590  137.8102  156.4222 H   0  0  0  0  0  0  0  0  0  0  0  0
  152.3575  138.1223  158.4478 H   0  0  0  0  0  0  0  0  0  0  0  0
  153.0151  138.5026  156.8750 H   0  0  0  0  0  0  0  0  0  0  0  0
  150.4538  139.7713  157.9687 H   0  0  0  0  0  0  0  0  0  0  0  0
  150.4656  139.8445  155.5455 H   0  0  0  0  0  0  0  0  0  0  0  0
  152.0803  140.5318  155.5108 H   0  0  0  0  0  0  0  0  0  0  0  0
  150.7361  141.4595  156.1732 H   0  0  0  0  0  0  0  0  0  0  0  0
  151.8136  140.1506  160.3186 H   0  0  0  0  0  0  0  0  0  0  0  0
  153.1687  139.3655  159.5311 H   0  0  0  0  0  0  0  0  0  0  0  0
  153.9459  140.9336  161.2954 H   0  0  0  0  0  0  0  0  0  0  0  0
  154.5377  141.4042  159.7195 H   0  0  0  0  0  0  0  0  0  0  0  0
  152.1527  142.6235  161.1939 H   0  0  0  0  0  0  0  0  0  0  0  0
  153.6962  143.3957  160.9089 H   0  0  0  0  0  0  0  0  0  0  0  0
  153.3245  143.3326  158.4680 H   0  0  0  0  0  0  0  0  0  0  0  0
  150.9129  144.5174  159.9222 H   0  0  0  0  0  0  0  0  0  0  0  0
  151.4465  144.9439  158.2981 H   0  0  0  0  0  0  0  0  0  0  0  0
  152.4674  145.3115  159.6828 H   0  0  0  0  0  0  0  0  0  0  0  0
  151.2111  142.5240  157.5045 H   0  0  0  0  0  0  0  0  0  0  0  0
  150.6191  142.0571  159.0862 H   0  0  0  0  0  0  0  0  0  0  0  0
  147.8890  135.0346  154.9580 H   0  0  0  0  0  0  0  0  0  0  0  0
  147.6672  133.6355  153.8920 H   0  0  0  0  0  0  0  0  0  0  0  0
  148.8015  134.9238  153.4373 H   0  0  0  0  0  0  0  0  0  0  0  0
  153.0351  141.0400  157.8164 H   0  0  0  0  0  0  0  0  0  0  0  0
  1  2  1  0  0  0  0
  1 22  1  0  0  0  0
  1 23  1  0  0  0  0
  1 24  1  0  0  0  0
  2 21  2  0  0  0  0
  2  3  1  0  0  0  0
  3  4  2  0  0  0  0
  3 25  1  0  0  0  0
  4  5  1  0  0  0  0
  4 19  1  0  0  0  0
  5  6  1  0  0  0  0
  5 26  1  0  0  0  0
  6  7  2  0  0  0  0
  6  8  1  0  0  0  0
  8  9  1  0  0  0  0
  8 27  1  0  0  0  0
  9 10  1  0  0  0  0
  9 28  1  0  0  0  0
  9 29  1  0  0  0  0
 10 11  1  0  0  0  0
 10 12  1  0  0  0  0
 10 30  1  0  0  0  0
 11 31  1  0  0  0  0
 11 32  1  0  0  0  0
 11 33  1  0  0  0  0
 12 18  1  0  0  0  0
 12 13  1  0  0  0  0
 12 49  1  0  0  0  0
 13 14  1  0  0  0  0
 13 34  1  0  0  0  0
 13 35  1  0  0  0  0
 14 15  1  0  0  0  0
 14 36  1  0  0  0  0
 14 37  1  0  0  0  0
 15 16  1  0  0  0  0
 15 38  1  0  0  0  0
 15 39  1  0  0  0  0
 16 17  1  0  0  0  0
 16 18  1  0  0  0  0
 16 40  1  0  0  0  0
 17 41  1  0  0  0  0
 17 42  1  0  0  0  0
 17 43  1  0  0  0  0
 18 44  1  0  0  0  0
 18 45  1  0  0  0  0
 19 20  1  0  0  0  0
 19 21  1  0  0  0  0
 20 46  1  0  0  0  0
 20 47  1  0  0  0  0
 20 48  1  0  0  0  0
M  CHG  1  12   1
M  END
> <s_m_source_file>
AV-unprocessed.smi

> <i_m_source_file_index>
1205

> <i_lp_mmshare_version>
43012

> <i_f3d_flags>
0

> <s_epik_input>
W0NIM11jMVtjSF1jKG4objEpW0NIM10pW05IXUMoPU8pW05IXVtDSDJdW0NASF0oW0NIM10pTjJbQ0gyXVtDSDJdW0NIMl1bQ0BASF0oW0NIM10pW0NIMl0y

> <s_epik_cmdline>
J2VwaWtfcHl0aG9uJywgJy1waCcsICc3LjAnLCAnLXRuJywgJzgnLCAnLW1hJywgJzIwMCcsICctbWV0YWxfYmluZGluZycsICctaW1hZScsICc8aW5maWxlLm1hZT4nLCAnLW9tYWUnLCAnPG91dGZpbGUubWFlPic=

> <r_lp_tautomer_probability>
1

> <r_epik_Ionization_Penalty>
0.0020309

> <r_epik_Ionization_Penalty_Charging>
0.00195276

> <r_epik_Ionization_Penalty_Neutral>
7.81448e-05

> <r_epik_State_Penalty>
0.00133177

> <r_epik_Charging_Adjusted_Penalty>
0.00328452

> <i_epik_Tot_Q>
1

> <i_epik_Tot_abs_Q>
1

> <r_epik_Metal_State_Penalty>
-0

> <b_epik_Metal_Only>
0

> <s_lp_Force_Field>
OPLS_2005

> <r_lp_Energy>
21.6269

> <b_lp_Chiralities_Consistent>
1

> <s_lp_Variant>
AV-unprocessed.smi:1205-7

> <Gold.Version>
5.8.1

> <Gold.Id.Protein>
6NUR|6NUR_protein|mol2

> <Gold.PLP.Fitness>
41.5644

> <Gold.PLP.PLP>
-38.6918

> <Gold.PLP.part.hbond>
-1.0000

> <Gold.PLP.part.metal>
0.0000

> <Gold.PLP.part.buried>
-4.3702

> <Gold.PLP.part.nonpolar>
-33.4330

> <Gold.PLP.part.repulsive>
0.2594

> <Gold.PLP.ligand.clash>
0.0000

> <Gold.PLP.ligand.torsion>
0.1330

> <Gold.PLP.Chemscore.Hbond>
1.0000

> <Gold.PLP.Chemscore.CHOScore>
0.0000

> <Gold.PLP.Chemscore.Metal>
0.0000

> <Gold.Chemscore.Hbonds>
donor molecule, donor type, donor heavy atom, donor atom, acceptor molecule, acceptor atom, score
      P1  H 10752 10765       L1     7  0.79

> <Gold.PLP.Chemscore.Internal.Correction>
0.1387

> <Gold.Rescore>
     Score         DG    S(hbond)    S(metal)    S(lipo)     H(rot)  DE(clash)    DE(int)     intcor
     15.28     -16.65       0.99        0.00      99.34       1.47       0.09       1.28       ----

> <Gold.Chemscore.Fitness>
15.2834

> <Gold.Chemscore.DG>
-16.6486

> <Gold.Chemscore.ZeroCoef>
-5.4800

> <Gold.Chemscore.Hbond>
0.9874

> <Gold.Chemscore.Metal>
0.0000

> <Gold.Chemscore.Lipo>
99.3427

> <Gold.Chemscore.Internal_Hbond>
0.0000

> <Gold.Chemscore.DEClash>
0.0901

> <Gold.Chemscore.DEInternal>
1.2751

> <Gold.Chemscore.Rot>
1.4658

> <Gold.Chemscore.Internal.Correction>
   9.000000E+99

> <Gold.Chemscore.Hbonds>
donor molecule, donor type, donor heavy atom, donor atom, acceptor molecule, acceptor atom, score
      P1  H 10752 10765       L1     7  0.15

> <Gold.Chemscore.Hbond.Weighted>
-3.2981

> <Gold.Chemscore.Metal.Weighted>
-0.0000

> <Gold.Chemscore.Lipo.Weighted>
-11.6231

> <Gold.Chemscore.Internal_Hbond.Weighted>
0.0000

> <Gold.Chemscore.DEClash.Weighted>
0.0901

> <Gold.Chemscore.DEInternal.Weighted>
1.2751

> <Gold.Chemscore.Rot.Weighted>
3.7526

> <Gold.Chemscore.Internal.Correction.Weighted>
   9.000000E+99

> <Gold.Protein.RotatedTorsions>
[ 6907 6896 6895 6894 ] final -132.38 input  -60.11 | X-H torsion
[ 7974 7965 7964 7962 ] final -149.25 input  175.53 | X-H torsion
[ 8008 7997 7996 7995 ] final  175.72 input   59.86 | X-H torsion
[ 10167 10162 10161 10158 ] final  -22.63 input  -65.29 | X-H torsion
[ 10718 10713 10712 10709 ] final -175.12 input   66.30 | X-H torsion
[ 10763 10752 10751 10750 ] final -122.97 input  -60.55 | X-H torsion
[ 11005 11000 10999 10996 ] final  116.12 input  -57.11 | X-H torsion

> <Gold.Protein.ActiveResidues>
 VAL166  LYS551  ARG553  GLY616  TRP617  ASP618  TYR619  PRO620  LYS621  CYS622 
 ASP623  PHE694  ASN695  SER759  ASP760  ASP761  ALA762  ILE779  LEU786  VAL792 
 PHE793  MET794  SER795  GLU796  ALA797  LYS798  CYS799  TRP800  GLU811  SER814 

> <Gold.Protein.RotatedAtoms>
  150.9617  133.6438  159.2752 H   0  0  0  0  0  0  0  0  0  0  0  0  # atno 6907 bound_to 6896
  151.3758  135.0930  159.9490 H   0  0  0  0  0  0  0  0  0  0  0  0  # atno 6908 bound_to 6896
  152.5150  133.9162  159.7567 H   0  0  0  0  0  0  0  0  0  0  0  0  # atno 6909 bound_to 6896
  144.7979  140.5090  143.5727 H   0  0  0  0  0  0  0  0  0  0  0  0  # atno 7974 bound_to 7965
  156.0841  140.1402  156.9675 H   0  0  0  0  0  0  0  0  0  0  0  0  # atno 8008 bound_to 7997
  154.4602  140.0946  156.6921 H   0  0  0  0  0  0  0  0  0  0  0  0  # atno 8009 bound_to 7997
  155.5027  140.3451  155.4376 H   0  0  0  0  0  0  0  0  0  0  0  0  # atno 8010 bound_to 7997
  140.7286  143.4517  151.0507 H   0  0  0  0  0  0  0  0  0  0  0  0  # atno 10167 bound_to 10162
  156.7951  130.9532  151.3120 H   0  0  0  0  0  0  0  0  0  0  0  0  # atno 10718 bound_to 10713
  154.8699  135.4114  154.2867 H   0  0  0  0  0  0  0  0  0  0  0  0  # atno 10763 bound_to 10752
  153.3750  135.7009  153.6614 H   0  0  0  0  0  0  0  0  0  0  0  0  # atno 10764 bound_to 10752
  153.5460  135.3638  155.2711 H   0  0  0  0  0  0  0  0  0  0  0  0  # atno 10765 bound_to 10752
  139.9031  134.9594  156.7150 H   0  0  0  0  0  0  0  0  0  0  0  0  # atno 11005 bound_to 11000
  145.5627  139.1480  143.3332 LP  0  0  0  0  0  0  0  0  0  0  0  0  # atno 17320 bound_to 7965
  146.2253  140.5762  142.8999 LP  0  0  0  0  0  0  0  0  0  0  0  0  # atno 17321 bound_to 7965
  139.8194  143.7841  152.3176 LP  0  0  0  0  0  0  0  0  0  0  0  0  # atno 17342 bound_to 10162
  139.7918  144.7407  150.9944 LP  0  0  0  0  0  0  0  0  0  0  0  0  # atno 17343 bound_to 10162
  157.6581  130.8942  149.9772 LP  0  0  0  0  0  0  0  0  0  0  0  0  # atno 17370 bound_to 10713
  156.1135  130.3649  150.0008 LP  0  0  0  0  0  0  0  0  0  0  0  0  # atno 17371 bound_to 10713
  140.7046  133.9277  155.8045 LP  0  0  0  0  0  0  0  0  0  0  0  0  # atno 17394 bound_to 11000
  141.0346  134.0707  157.3974 LP  0  0  0  0  0  0  0  0  0  0  0  0  # atno 17395 bound_to 11000

$$$$
