AV-unprocessed.smi:623|AV-procd|sdf|3091|dock3
  -GOLD-   22720 0 13D 1   1.00000     0.00000
 Structure written by MMmdl.
 45 47  0  0  0  0  0  0  0  0  1 V2000
  151.7064  142.6299  161.2567 C   0  0  0  0  0  0  0  0  0  0  0  0
  151.9044  143.7735  160.2226 C   0  0  0  0  0  0  0  0  0  0  0  0
  152.2298  145.0395  161.0644 C   0  0  0  0  0  0  0  0  0  0  0  0
  152.9422  143.4635  159.1251 C   0  0  2  0  0  0  0  0  0  0  0  0
  152.8460  144.6797  158.1773 C   0  0  0  0  0  0  0  0  0  0  0  0
  151.3460  145.0308  158.2342 C   0  0  0  0  0  0  0  0  0  0  0  0
  150.7721  143.9315  159.1709 C   0  0  2  0  0  0  0  0  0  0  0  0
  149.3840  144.2843  159.7332 C   0  0  0  0  0  0  0  0  0  0  0  0
  150.8153  142.5671  158.4110 C   0  0  1  0  0  0  0  0  0  0  0  0
  150.2538  142.6068  157.0604 N   0  0  0  0  0  0  0  0  0  0  0  0
  150.2338  141.5813  156.1961 C   0  0  0  0  0  0  0  0  0  0  0  0
  150.6938  140.4687  156.4577 O   0  0  0  0  0  0  0  0  0  0  0  0
  149.5668  141.8550  154.8411 C   0  0  0  0  0  0  0  0  0  0  0  0
  148.6984  140.7542  154.4000 N   0  0  0  0  0  0  0  0  0  0  0  0
  147.3200  140.9138  154.3842 C   0  0  0  0  0  0  0  0  0  0  0  0
  146.4605  139.9363  154.0105 C   0  0  0  0  0  0  0  0  0  0  0  0
  146.9624  138.6309  153.5947 C   0  0  0  0  0  0  0  0  0  0  0  0
  146.2652  137.6835  153.2383 O   0  0  0  0  0  0  0  0  0  0  0  0
  148.3543  138.5091  153.6257 N   0  0  0  0  0  0  0  0  0  0  0  0
  149.2452  139.5115  154.0120 C   0  0  0  0  0  0  0  0  0  0  0  0
  150.4569  139.2964  154.0087 O   0  0  0  0  0  0  0  0  0  0  0  0
  152.3299  142.2605  158.3743 C   0  0  0  0  0  0  0  0  0  0  0  0
  148.7475  137.6215  153.3485 H   0  0  0  0  0  0  0  0  0  0  0  0
  152.6069  142.4974  161.8571 H   0  0  0  0  0  0  0  0  0  0  0  0
  151.4763  141.6553  160.8331 H   0  0  0  0  0  0  0  0  0  0  0  0
  150.8955  142.8677  161.9456 H   0  0  0  0  0  0  0  0  0  0  0  0
  152.4181  145.9431  160.4890 H   0  0  0  0  0  0  0  0  0  0  0  0
  153.1190  144.8751  161.6736 H   0  0  0  0  0  0  0  0  0  0  0  0
  151.4130  145.2708  161.7486 H   0  0  0  0  0  0  0  0  0  0  0  0
  153.9536  143.2762  159.4870 H   0  0  0  0  0  0  0  0  0  0  0  0
  153.4609  145.5104  158.5244 H   0  0  0  0  0  0  0  0  0  0  0  0
  153.1732  144.4412  157.1647 H   0  0  0  0  0  0  0  0  0  0  0  0
  151.1968  146.0270  158.6509 H   0  0  0  0  0  0  0  0  0  0  0  0
  150.8886  145.0530  157.2456 H   0  0  0  0  0  0  0  0  0  0  0  0
  148.6575  144.4156  158.9312 H   0  0  0  0  0  0  0  0  0  0  0  0
  149.4089  145.2127  160.3035 H   0  0  0  0  0  0  0  0  0  0  0  0
  149.0105  143.4994  160.3907 H   0  0  0  0  0  0  0  0  0  0  0  0
  150.3053  141.7905  158.9829 H   0  0  0  0  0  0  0  0  0  0  0  0
  149.8466  143.4819  156.7643 H   0  0  0  0  0  0  0  0  0  0  0  0
  148.9901  142.7771  154.9281 H   0  0  0  0  0  0  0  0  0  0  0  0
  150.3293  142.0626  154.0875 H   0  0  0  0  0  0  0  0  0  0  0  0
  146.9040  141.8633  154.6905 H   0  0  0  0  0  0  0  0  0  0  0  0
  145.3960  140.1206  154.0212 H   0  0  0  0  0  0  0  0  0  0  0  0
  152.7244  142.1699  157.3609 H   0  0  0  0  0  0  0  0  0  0  0  0
  152.5521  141.3202  158.8791 H   0  0  0  0  0  0  0  0  0  0  0  0
  1  2  1  0  0  0  0
  1 24  1  0  0  0  0
  1 25  1  0  0  0  0
  1 26  1  0  0  0  0
  2  7  1  0  0  0  0
  2  3  1  0  0  0  0
  2  4  1  0  0  0  0
  3 27  1  0  0  0  0
  3 28  1  0  0  0  0
  3 29  1  0  0  0  0
  4 22  1  0  0  0  0
  4  5  1  0  0  0  0
  4 30  1  0  0  0  0
  5  6  1  0  0  0  0
  5 31  1  0  0  0  0
  5 32  1  0  0  0  0
  6  7  1  0  0  0  0
  6 33  1  0  0  0  0
  6 34  1  0  0  0  0
  7  8  1  0  0  0  0
  7  9  1  0  0  0  0
  8 35  1  0  0  0  0
  8 36  1  0  0  0  0
  8 37  1  0  0  0  0
  9 10  1  0  0  0  0
  9 22  1  0  0  0  0
  9 38  1  0  0  0  0
 10 11  1  0  0  0  0
 10 39  1  0  0  0  0
 11 12  2  0  0  0  0
 11 13  1  0  0  0  0
 13 14  1  0  0  0  0
 13 40  1  0  0  0  0
 13 41  1  0  0  0  0
 14 20  1  0  0  0  0
 14 15  1  0  0  0  0
 15 16  2  0  0  0  0
 15 42  1  0  0  0  0
 16 17  1  0  0  0  0
 16 43  1  0  0  0  0
 17 18  2  0  0  0  0
 17 19  1  0  0  0  0
 19 23  1  0  0  0  0
 19 20  1  0  0  0  0
 20 21  2  0  0  0  0
 22 44  1  0  0  0  0
 22 45  1  0  0  0  0
M  END
> <s_m_source_file>
AV-unprocessed.smi

> <i_m_source_file_index>
623

> <i_lp_mmshare_version>
43012

> <i_f3d_flags>
0

> <s_epik_input>
W0NIM11bQ0BdMTJDKFtDSDNdKShbQ0gzXSlbQ0BIXShbQ0gyXVtDSDJdMSlbQ0gyXVtDQEBIXTJbTkhdQyg9TylbQ0gyXW4zW2NIXVtjSF1jKD1PKVtuSF1jMz1P

> <s_epik_cmdline>
J2VwaWtfcHl0aG9uJywgJy1waCcsICc3LjAnLCAnLXRuJywgJzgnLCAnLW1hJywgJzIwMCcsICctbWV0YWxfYmluZGluZycsICctaW1hZScsICc8aW5maWxlLm1hZT4nLCAnLW9tYWUnLCAnPG91dGZpbGUubWFlPic=

> <r_lp_tautomer_probability>
0.999537

> <r_epik_Ionization_Penalty>
0.00303563

> <r_epik_Ionization_Penalty_Charging>
0.00303561

> <r_epik_Ionization_Penalty_Neutral>
2.03238e-08

> <r_epik_State_Penalty>
0.00213308

> <r_epik_Charging_Adjusted_Penalty>
0.00516869

> <i_epik_Tot_Q>
0

> <i_epik_Tot_abs_Q>
0

> <r_epik_Metal_State_Penalty>
0.361714

> <b_epik_Metal_Only>
0

> <s_lp_Force_Field>
OPLS_2005

> <r_lp_Energy>
55.109

> <b_lp_Chiralities_Consistent>
1

> <s_lp_Variant>
AV-unprocessed.smi:623-1

> <Gold.Version>
5.8.1

> <Gold.Id.Protein>
6NUR|6NUR_protein|mol2

> <Gold.PLP.Fitness>
45.0133

> <Gold.PLP.PLP>
-37.2668

> <Gold.PLP.part.hbond>
-3.3096

> <Gold.PLP.part.metal>
0.0000

> <Gold.PLP.part.buried>
0.9814

> <Gold.PLP.part.nonpolar>
-35.8739

> <Gold.PLP.part.repulsive>
0.4272

> <Gold.PLP.ligand.clash>
0.0000

> <Gold.PLP.ligand.torsion>
0.3351

> <Gold.PLP.Chemscore.Hbond>
2.8000

> <Gold.PLP.Chemscore.CHOScore>
0.0000

> <Gold.PLP.Chemscore.Metal>
0.0000

> <Gold.Chemscore.Hbonds>
donor molecule, donor type, donor heavy atom, donor atom, acceptor molecule, acceptor atom, score
      L1  H    10    39       P1  8028  1.00
      L1  H    19    23       P1  7948  0.93
      P1  H  7989  7998       L1    21  1.00

> <Gold.PLP.Chemscore.Internal.Correction>
0.0167

> <Gold.Rescore>
     Score         DG    S(hbond)    S(metal)    S(lipo)     H(rot)  DE(clash)    DE(int)     intcor
     19.55     -24.06       2.41        0.00     126.54       1.66       2.91       1.60       ----

> <Gold.Chemscore.Fitness>
19.5516

> <Gold.Chemscore.DG>
-24.0617

> <Gold.Chemscore.ZeroCoef>
-5.4800

> <Gold.Chemscore.Hbond>
2.4067

> <Gold.Chemscore.Metal>
0.0000

> <Gold.Chemscore.Lipo>
126.5383

> <Gold.Chemscore.Internal_Hbond>
0.0000

> <Gold.Chemscore.DEClash>
2.9106

> <Gold.Chemscore.DEInternal>
1.5996

> <Gold.Chemscore.Rot>
1.6647

> <Gold.Chemscore.Internal.Correction>
   9.000000E+99

> <Gold.Chemscore.Hbonds>
donor molecule, donor type, donor heavy atom, donor atom, acceptor molecule, acceptor atom, score
      L1  H    10    39       P1  8028  0.99
      L1  H    19    23       P1  7948  0.85
      P1  H  7989  7998       L1    21  0.86

> <Gold.Chemscore.Hbond.Weighted>
-8.0384

> <Gold.Chemscore.Metal.Weighted>
-0.0000

> <Gold.Chemscore.Lipo.Weighted>
-14.8050

> <Gold.Chemscore.Internal_Hbond.Weighted>
0.0000

> <Gold.Chemscore.DEClash.Weighted>
2.9106

> <Gold.Chemscore.DEInternal.Weighted>
1.5996

> <Gold.Chemscore.Rot.Weighted>
4.2617

> <Gold.Chemscore.Internal.Correction.Weighted>
   9.000000E+99

> <Gold.Protein.RotatedTorsions>
[ 6907 6896 6895 6894 ] final -123.06 input  -60.11 | X-H torsion
[ 7974 7965 7964 7962 ] final -100.95 input  175.53 | X-H torsion
[ 8008 7997 7996 7995 ] final  162.36 input   59.86 | X-H torsion
[ 10167 10162 10161 10158 ] final   58.81 input  -65.29 | X-H torsion
[ 10718 10713 10712 10709 ] final -152.77 input   66.30 | X-H torsion
[ 10763 10752 10751 10750 ] final   73.11 input  -60.55 | X-H torsion
[ 11005 11000 10999 10996 ] final  143.23 input  -57.11 | X-H torsion

> <Gold.Protein.ActiveResidues>
 VAL166  LYS551  ARG553  GLY616  TRP617  ASP618  TYR619  PRO620  LYS621  CYS622 
 ASP623  PHE694  ASN695  SER759  ASP760  ASP761  ALA762  ILE779  LEU786  VAL792 
 PHE793  MET794  SER795  GLU796  ALA797  LYS798  CYS799  TRP800  GLU811  SER814 

> <Gold.Protein.RotatedAtoms>
  150.8634  133.7609  159.2984 H   0  0  0  0  0  0  0  0  0  0  0  0  # atno 6907 bound_to 6896
  151.5244  135.1066  159.9896 H   0  0  0  0  0  0  0  0  0  0  0  0  # atno 6908 bound_to 6896
  152.4643  133.7845  159.6924 H   0  0  0  0  0  0  0  0  0  0  0  0  # atno 6909 bound_to 6896
  145.2879  140.9344  143.2894 H   0  0  0  0  0  0  0  0  0  0  0  0  # atno 7974 bound_to 7965
  156.2037  140.1752  156.7846 H   0  0  0  0  0  0  0  0  0  0  0  0  # atno 8008 bound_to 7997
  154.5625  140.0697  156.8872 H   0  0  0  0  0  0  0  0  0  0  0  0  # atno 8009 bound_to 7997
  155.2821  140.3349  155.4260 H   0  0  0  0  0  0  0  0  0  0  0  0  # atno 8010 bound_to 7997
  140.1832  144.4161  150.6605 H   0  0  0  0  0  0  0  0  0  0  0  0  # atno 10167 bound_to 10162
  156.4769  130.8285  151.2513 H   0  0  0  0  0  0  0  0  0  0  0  0  # atno 10718 bound_to 10713
  153.0501  135.5075  154.7844 H   0  0  0  0  0  0  0  0  0  0  0  0  # atno 10763 bound_to 10752
  154.6714  135.2953  154.9740 H   0  0  0  0  0  0  0  0  0  0  0  0  # atno 10764 bound_to 10752
  154.0557  135.6698  153.4858 H   0  0  0  0  0  0  0  0  0  0  0  0  # atno 10765 bound_to 10752
  140.0538  134.9241  157.1064 H   0  0  0  0  0  0  0  0  0  0  0  0  # atno 11005 bound_to 11000
  144.9197  139.4426  143.6547 LP  0  0  0  0  0  0  0  0  0  0  0  0  # atno 17320 bound_to 7965
  146.3195  139.8051  142.8957 LP  0  0  0  0  0  0  0  0  0  0  0  0  # atno 17321 bound_to 7965
  140.6505  143.2224  151.6087 LP  0  0  0  0  0  0  0  0  0  0  0  0  # atno 17342 bound_to 10162
  139.5287  144.2981  152.1097 LP  0  0  0  0  0  0  0  0  0  0  0  0  # atno 17343 bound_to 10162
  157.7486  131.0058  150.3126 LP  0  0  0  0  0  0  0  0  0  0  0  0  # atno 17370 bound_to 10713
  156.3561  130.3839  149.7289 LP  0  0  0  0  0  0  0  0  0  0  0  0  # atno 17371 bound_to 10713
  140.3876  134.2220  155.7167 LP  0  0  0  0  0  0  0  0  0  0  0  0  # atno 17394 bound_to 11000
  141.1942  133.8132  157.0765 LP  0  0  0  0  0  0  0  0  0  0  0  0  # atno 17395 bound_to 11000

$$$$
