AV-unprocessed.smi:667|AV-procd|sdf|3255|dock8
  -GOLD-   22720 0203D 1   1.00000     0.00000
 Structure written by MMmdl.
 48 49  0  0  0  0  0  0  0  0  1 V2000
  145.6669  136.2282  151.4721 C   0  0  0  0  0  0  0  0  0  0  0  0
  145.4431  134.7980  151.0715 C   0  0  0  0  0  0  0  0  0  0  0  0
  144.4359  134.5134  150.2635 N   0  0  0  0  0  0  0  0  0  0  0  0
  144.5058  133.1800  150.0809 N   0  0  0  0  0  0  0  0  0  0  0  0
  143.5374  132.5275  149.2216 C   0  0  0  0  0  0  0  0  0  0  0  0
  145.5568  132.6192  150.7789 C   0  0  0  0  0  0  0  0  0  0  0  0
  145.8509  131.1544  150.7310 C   0  0  0  0  0  0  0  0  0  0  0  0
  146.1943  133.6397  151.4332 C   0  0  0  0  0  0  0  0  0  0  0  0
  147.4235  133.5688  152.3054 C   0  0  0  0  0  0  0  0  0  0  0  0
  147.0997  134.2165  153.6502 C   0  0  0  0  0  0  0  0  0  0  0  0
  146.4958  133.5780  154.5116 O   0  0  0  0  0  0  0  0  0  0  0  0
  147.5595  135.4643  153.8305 N   0  0  0  0  0  0  0  0  0  0  0  0
  147.5978  136.1773  155.1036 C   0  0  0  0  0  0  0  0  0  0  0  0
  149.0357  136.5678  155.5131 C   0  0  2  0  0  0  0  0  0  0  0  0
  149.6583  137.6724  154.6776 C   0  0  0  0  0  0  0  0  0  0  0  0
  151.1512  137.5197  154.9748 C   0  0  0  0  0  0  0  0  0  0  0  0
  151.3369  136.1867  155.4457 O   0  0  0  0  0  0  0  0  0  0  0  0
  150.1076  135.4753  155.3688 C   0  0  1  0  0  0  0  0  0  0  0  0
  150.0542  134.3145  156.3860 C   0  0  0  0  0  0  0  0  0  0  0  0
  151.2215  133.3220  156.2459 C   0  0  0  0  0  0  0  0  0  0  0  0
  148.7046  133.5846  156.3060 C   0  0  0  0  0  0  0  0  0  0  0  0
  146.6639  136.3780  151.8854 H   0  0  0  0  0  0  0  0  0  0  0  0
  144.9450  136.5384  152.2275 H   0  0  0  0  0  0  0  0  0  0  0  0
  145.5649  136.8976  150.6170 H   0  0  0  0  0  0  0  0  0  0  0  0
  143.0057  131.7603  149.7848 H   0  0  0  0  0  0  0  0  0  0  0  0
  144.0511  132.0615  148.3804 H   0  0  0  0  0  0  0  0  0  0  0  0
  142.8141  133.2483  148.8374 H   0  0  0  0  0  0  0  0  0  0  0  0
  146.7392  130.9087  151.3124 H   0  0  0  0  0  0  0  0  0  0  0  0
  146.0251  130.8272  149.7060 H   0  0  0  0  0  0  0  0  0  0  0  0
  145.0175  130.5788  151.1336 H   0  0  0  0  0  0  0  0  0  0  0  0
  147.7501  132.5407  152.4644 H   0  0  0  0  0  0  0  0  0  0  0  0
  148.2684  134.0869  151.8509 H   0  0  0  0  0  0  0  0  0  0  0  0
  148.0294  135.9053  153.0532 H   0  0  0  0  0  0  0  0  0  0  0  0
  146.9877  137.0757  155.0085 H   0  0  0  0  0  0  0  0  0  0  0  0
  147.1390  135.5877  155.8987 H   0  0  0  0  0  0  0  0  0  0  0  0
  149.0117  136.9202  156.5443 H   0  0  0  0  0  0  0  0  0  0  0  0
  149.4786  137.5035  153.6156 H   0  0  0  0  0  0  0  0  0  0  0  0
  149.2778  138.6627  154.9290 H   0  0  0  0  0  0  0  0  0  0  0  0
  151.7597  137.7087  154.0897 H   0  0  0  0  0  0  0  0  0  0  0  0
  151.4660  138.2113  155.7566 H   0  0  0  0  0  0  0  0  0  0  0  0
  150.0628  135.0607  154.3614 H   0  0  0  0  0  0  0  0  0  0  0  0
  150.1148  134.7498  157.3841 H   0  0  0  0  0  0  0  0  0  0  0  0
  151.2483  132.8760  155.2514 H   0  0  0  0  0  0  0  0  0  0  0  0
  151.1295  132.5104  156.9679 H   0  0  0  0  0  0  0  0  0  0  0  0
  152.1837  133.7994  156.4259 H   0  0  0  0  0  0  0  0  0  0  0  0
  148.5650  133.1132  155.3329 H   0  0  0  0  0  0  0  0  0  0  0  0
  147.8754  134.2743  156.4623 H   0  0  0  0  0  0  0  0  0  0  0  0
  148.6312  132.8074  157.0670 H   0  0  0  0  0  0  0  0  0  0  0  0
  1  2  1  0  0  0  0
  1 22  1  0  0  0  0
  1 23  1  0  0  0  0
  1 24  1  0  0  0  0
  2  8  1  0  0  0  0
  2  3  2  0  0  0  0
  3  4  1  0  0  0  0
  4  5  1  0  0  0  0
  4  6  1  0  0  0  0
  5 25  1  0  0  0  0
  5 26  1  0  0  0  0
  5 27  1  0  0  0  0
  6  7  1  0  0  0  0
  6  8  2  0  0  0  0
  7 28  1  0  0  0  0
  7 29  1  0  0  0  0
  7 30  1  0  0  0  0
  8  9  1  0  0  0  0
  9 10  1  0  0  0  0
  9 31  1  0  0  0  0
  9 32  1  0  0  0  0
 10 11  2  0  0  0  0
 10 12  1  0  0  0  0
 12 13  1  0  0  0  0
 12 33  1  0  0  0  0
 13 14  1  0  0  0  0
 13 34  1  0  0  0  0
 13 35  1  0  0  0  0
 14 18  1  0  0  0  0
 14 15  1  0  0  0  0
 14 36  1  0  0  0  0
 15 16  1  0  0  0  0
 15 37  1  0  0  0  0
 15 38  1  0  0  0  0
 16 17  1  0  0  0  0
 16 39  1  0  0  0  0
 16 40  1  0  0  0  0
 17 18  1  0  0  0  0
 18 19  1  0  0  0  0
 18 41  1  0  0  0  0
 19 20  1  0  0  0  0
 19 21  1  0  0  0  0
 19 42  1  0  0  0  0
 20 43  1  0  0  0  0
 20 44  1  0  0  0  0
 20 45  1  0  0  0  0
 21 46  1  0  0  0  0
 21 47  1  0  0  0  0
 21 48  1  0  0  0  0
M  END
> <s_m_source_file>
AV-unprocessed.smi

> <i_m_source_file_index>
667

> <i_lp_mmshare_version>
43012

> <i_f3d_flags>
0

> <s_epik_input>
W0NIM11jMW5uKFtDSDNdKWMoW0NIM10pYzFbQ0gyXUMoPU8pW05IXVtDSDJdW0NAQEhdMltDSDJdW0NIMl1PW0NASF0yW0NIXShbQ0gzXSlbQ0gzXQ==

> <s_epik_cmdline>
J2VwaWtfcHl0aG9uJywgJy1waCcsICc3LjAnLCAnLXRuJywgJzgnLCAnLW1hJywgJzIwMCcsICctbWV0YWxfYmluZGluZycsICctaW1hZScsICc8aW5maWxlLm1hZT4nLCAnLW9tYWUnLCAnPG91dGZpbGUubWFlPic=

> <r_lp_tautomer_probability>
1

> <r_epik_Ionization_Penalty>
0.00315488

> <r_epik_Ionization_Penalty_Charging>
0

> <r_epik_Ionization_Penalty_Neutral>
0.00315488

> <r_epik_State_Penalty>
0.00222269

> <r_epik_Charging_Adjusted_Penalty>
0.00222269

> <i_epik_Tot_Q>
0

> <i_epik_Tot_abs_Q>
0

> <r_epik_Metal_State_Penalty>
-0

> <b_epik_Metal_Only>
0

> <s_lp_Force_Field>
OPLS_2005

> <r_lp_Energy>
14.51

> <b_lp_Chiralities_Consistent>
1

> <s_lp_Variant>
AV-unprocessed.smi:667-1

> <Gold.Version>
5.8.1

> <Gold.Id.Protein>
6NUR|6NUR_protein|mol2

> <Gold.PLP.Fitness>
36.5162

> <Gold.PLP.PLP>
-31.2552

> <Gold.PLP.part.hbond>
-1.9987

> <Gold.PLP.part.metal>
0.0000

> <Gold.PLP.part.buried>
-2.3579

> <Gold.PLP.part.nonpolar>
-27.4860

> <Gold.PLP.part.repulsive>
0.3753

> <Gold.PLP.ligand.clash>
0.0000

> <Gold.PLP.ligand.torsion>
0.3950

> <Gold.PLP.Chemscore.Hbond>
2.0000

> <Gold.PLP.Chemscore.CHOScore>
0.0000

> <Gold.PLP.Chemscore.Metal>
0.0000

> <Gold.Chemscore.Hbonds>
donor molecule, donor type, donor heavy atom, donor atom, acceptor molecule, acceptor atom, score
      L1  H    12    33       P1  7948  1.00
      P1  H 10752 10764       L1    17  1.00

> <Gold.PLP.Chemscore.Internal.Correction>
0.0510

> <Gold.Rescore>
     Score         DG    S(hbond)    S(metal)    S(lipo)     H(rot)  DE(clash)    DE(int)     intcor
     15.67     -17.24       1.81        0.00      81.99       1.52       0.25       1.32       ----

> <Gold.Chemscore.Fitness>
15.6674

> <Gold.Chemscore.DG>
-17.2383

> <Gold.Chemscore.ZeroCoef>
-5.4800

> <Gold.Chemscore.Hbond>
1.8144

> <Gold.Chemscore.Metal>
0.0000

> <Gold.Chemscore.Lipo>
81.9893

> <Gold.Chemscore.Internal_Hbond>
0.0000

> <Gold.Chemscore.DEClash>
0.2515

> <Gold.Chemscore.DEInternal>
1.3194

> <Gold.Chemscore.Rot>
1.5213

> <Gold.Chemscore.Internal.Correction>
   9.000000E+99

> <Gold.Chemscore.Hbonds>
donor molecule, donor type, donor heavy atom, donor atom, acceptor molecule, acceptor atom, score
      L1  H    12    33       P1  7948  0.93
      P1  H 10752 10764       L1    17  0.55

> <Gold.Chemscore.Hbond.Weighted>
-6.0601

> <Gold.Chemscore.Metal.Weighted>
-0.0000

> <Gold.Chemscore.Lipo.Weighted>
-9.5927

> <Gold.Chemscore.Internal_Hbond.Weighted>
0.0000

> <Gold.Chemscore.DEClash.Weighted>
0.2515

> <Gold.Chemscore.DEInternal.Weighted>
1.3194

> <Gold.Chemscore.Rot.Weighted>
3.8945

> <Gold.Chemscore.Internal.Correction.Weighted>
   9.000000E+99

> <Gold.Protein.RotatedTorsions>
[ 6907 6896 6895 6894 ] final  152.91 input  -60.11 | X-H torsion
[ 7974 7965 7964 7962 ] final -112.05 input  175.53 | X-H torsion
[ 8008 7997 7996 7995 ] final  126.32 input   59.86 | X-H torsion
[ 10167 10162 10161 10158 ] final   31.23 input  -65.29 | X-H torsion
[ 10718 10713 10712 10709 ] final   38.66 input   66.30 | X-H torsion
[ 10763 10752 10751 10750 ] final  -55.67 input  -60.55 | X-H torsion
[ 11005 11000 10999 10996 ] final  112.91 input  -57.11 | X-H torsion

> <Gold.Protein.ActiveResidues>
 VAL166  LYS551  ARG553  GLY616  TRP617  ASP618  TYR619  PRO620  LYS621  CYS622 
 ASP623  PHE694  ASN695  SER759  ASP760  ASP761  ALA762  ILE779  LEU786  VAL792 
 PHE793  MET794  SER795  GLU796  ALA797  LYS798  CYS799  TRP800  GLU811  SER814 

> <Gold.Protein.RotatedAtoms>
  152.0801  133.4148  159.4497 H   0  0  0  0  0  0  0  0  0  0  0  0  # atno 6907 bound_to 6896
  150.6862  134.2992  159.4708 H   0  0  0  0  0  0  0  0  0  0  0  0  # atno 6908 bound_to 6896
  152.0832  134.9456  160.0624 H   0  0  0  0  0  0  0  0  0  0  0  0  # atno 6909 bound_to 6896
  145.1487  140.8817  143.3659 H   0  0  0  0  0  0  0  0  0  0  0  0  # atno 7974 bound_to 7965
  156.2860  140.2695  156.2092 H   0  0  0  0  0  0  0  0  0  0  0  0  # atno 8008 bound_to 7997
  155.0281  140.0386  157.2481 H   0  0  0  0  0  0  0  0  0  0  0  0  # atno 8009 bound_to 7997
  154.7377  140.2719  155.6405 H   0  0  0  0  0  0  0  0  0  0  0  0  # atno 8010 bound_to 7997
  140.4607  144.0911  150.6212 H   0  0  0  0  0  0  0  0  0  0  0  0  # atno 10167 bound_to 10162
  157.3614  130.7652  149.7050 H   0  0  0  0  0  0  0  0  0  0  0  0  # atno 10718 bound_to 10713
  154.1944  135.6422  153.5069 H   0  0  0  0  0  0  0  0  0  0  0  0  # atno 10763 bound_to 10752
  153.0027  135.5436  154.6381 H   0  0  0  0  0  0  0  0  0  0  0  0  # atno 10764 bound_to 10752
  154.5778  135.2922  155.0736 H   0  0  0  0  0  0  0  0  0  0  0  0  # atno 10765 bound_to 10752
  139.8939  134.9539  156.6657 H   0  0  0  0  0  0  0  0  0  0  0  0  # atno 11005 bound_to 11000
  145.0454  139.3225  143.5955 LP  0  0  0  0  0  0  0  0  0  0  0  0  # atno 17320 bound_to 7965
  146.3497  139.9843  142.8692 LP  0  0  0  0  0  0  0  0  0  0  0  0  # atno 17321 bound_to 7965
  140.4097  143.2663  151.9848 LP  0  0  0  0  0  0  0  0  0  0  0  0  # atno 17342 bound_to 10162
  139.4806  144.5926  151.7745 LP  0  0  0  0  0  0  0  0  0  0  0  0  # atno 17343 bound_to 10162
  155.9738  130.4112  150.3972 LP  0  0  0  0  0  0  0  0  0  0  0  0  # atno 17370 bound_to 10713
  157.2050  131.0447  151.2630 LP  0  0  0  0  0  0  0  0  0  0  0  0  # atno 17371 bound_to 10713
  140.7412  133.8976  155.8279 LP  0  0  0  0  0  0  0  0  0  0  0  0  # atno 17394 bound_to 11000
  141.0076  134.1065  157.4254 LP  0  0  0  0  0  0  0  0  0  0  0  0  # atno 17395 bound_to 11000

$$$$
