AV-unprocessed.smi:3104|AV-procd|sdf|11818|dock7
  -GOLD-   2272017193D 1   1.00000     0.00000
 Structure written by MMmdl.
 37 38  0  0  0  0  0  0  0  0  2 V2000
  153.5921  142.0796  162.3102 C   0  0  0  0  0  0  0  0  0  0  0  0
  152.7894  142.8168  161.2777 C   0  0  0  0  0  0  0  0  0  0  0  0
  152.0617  144.0300  161.4368 C   0  0  0  0  0  0  0  0  0  0  0  0
  151.4593  144.4172  160.3245 N   0  0  0  0  0  0  0  0  0  0  0  0
  151.7807  143.4717  159.4158 N   0  0  0  0  0  0  0  0  0  0  0  0
  151.2715  143.5756  158.0540 C   0  0  1  0  0  0  0  0  0  0  0  0
  152.3514  144.1825  157.1395 C   0  0  0  0  0  0  0  0  0  0  0  0
  150.7286  142.2171  157.5359 C   0  0  1  0  0  0  0  0  0  0  0  0
  149.5423  141.6836  158.3596 C   0  0  0  0  0  0  0  0  0  0  0  0
  150.3104  142.3354  156.1210 N   0  3  0  0  0  0  0  0  0  0  0  0
  149.6758  141.1267  155.5587 C   0  0  0  0  0  0  0  0  0  0  0  0
  148.8570  141.4632  154.3304 C   0  0  0  0  0  0  0  0  0  0  0  0
  147.4092  141.8719  154.4740 C   0  0  0  0  0  0  0  0  0  0  0  0
  147.7574  140.5412  153.8549 C   0  0  0  0  0  0  0  0  0  0  0  0
  152.5811  142.4915  159.9677 C   0  0  0  0  0  0  0  0  0  0  0  0
  153.5843  142.5922  163.2724 H   0  0  0  0  0  0  0  0  0  0  0  0
  154.6351  141.9772  162.0099 H   0  0  0  0  0  0  0  0  0  0  0  0
  153.2049  141.0747  162.4789 H   0  0  0  0  0  0  0  0  0  0  0  0
  151.9540  144.6372  162.3236 H   0  0  0  0  0  0  0  0  0  0  0  0
  150.4366  144.2792  158.0760 H   0  0  0  0  0  0  0  0  0  0  0  0
  151.9563  144.4103  156.1495 H   0  0  0  0  0  0  0  0  0  0  0  0
  153.1963  143.5050  157.0128 H   0  0  0  0  0  0  0  0  0  0  0  0
  152.7339  145.1161  157.5537 H   0  0  0  0  0  0  0  0  0  0  0  0
  151.5250  141.4745  157.6118 H   0  0  0  0  0  0  0  0  0  0  0  0
  149.8256  141.4731  159.3911 H   0  0  0  0  0  0  0  0  0  0  0  0
  149.1620  140.7522  157.9386 H   0  0  0  0  0  0  0  0  0  0  0  0
  148.7199  142.3997  158.3797 H   0  0  0  0  0  0  0  0  0  0  0  0
  149.6508  143.0969  156.0477 H   0  0  0  0  0  0  0  0  0  0  0  0
  150.4330  140.3849  155.3019 H   0  0  0  0  0  0  0  0  0  0  0  0
  149.0220  140.6811  156.3092 H   0  0  0  0  0  0  0  0  0  0  0  0
  149.4129  141.9953  153.5604 H   0  0  0  0  0  0  0  0  0  0  0  0
  146.9757  141.8633  155.4724 H   0  0  0  0  0  0  0  0  0  0  0  0
  147.0383  142.6517  153.8117 H   0  0  0  0  0  0  0  0  0  0  0  0
  147.6195  140.4352  152.7807 H   0  0  0  0  0  0  0  0  0  0  0  0
  147.5538  139.6468  154.4406 H   0  0  0  0  0  0  0  0  0  0  0  0
  152.9341  141.6508  159.3886 H   0  0  0  0  0  0  0  0  0  0  0  0
  151.1240  142.5636  155.5675 H   0  0  0  0  0  0  0  0  0  0  0  0
  1  2  1  0  0  0  0
  1 16  1  0  0  0  0
  1 17  1  0  0  0  0
  1 18  1  0  0  0  0
  2 15  2  0  0  0  0
  2  3  1  0  0  0  0
  3  4  2  0  0  0  0
  3 19  1  0  0  0  0
  4  5  1  0  0  0  0
  5  6  1  0  0  0  0
  5 15  1  0  0  0  0
  6  7  1  0  0  0  0
  6  8  1  0  0  0  0
  6 20  1  0  0  0  0
  7 21  1  0  0  0  0
  7 22  1  0  0  0  0
  7 23  1  0  0  0  0
  8  9  1  0  0  0  0
  8 10  1  0  0  0  0
  8 24  1  0  0  0  0
  9 25  1  0  0  0  0
  9 26  1  0  0  0  0
  9 27  1  0  0  0  0
 10 11  1  0  0  0  0
 10 28  1  0  0  0  0
 10 37  1  0  0  0  0
 11 12  1  0  0  0  0
 11 29  1  0  0  0  0
 11 30  1  0  0  0  0
 12 14  1  0  0  0  0
 12 13  1  0  0  0  0
 12 31  1  0  0  0  0
 13 14  1  0  0  0  0
 13 32  1  0  0  0  0
 13 33  1  0  0  0  0
 14 34  1  0  0  0  0
 14 35  1  0  0  0  0
 15 36  1  0  0  0  0
M  CHG  1  10   1
M  END
> <s_m_source_file>
AV-unprocessed.smi

> <i_m_source_file_index>
3104

> <i_lp_mmshare_version>
43012

> <i_f3d_flags>
0

> <s_epik_input>
W0NIM11jMVtjSF1ubihbY0hdMSlbQ0BIXShbQ0gzXSlbQ0BIXShbQ0gzXSlbTkhdW0NIMl1bQ0hdMltDSDJdW0NIMl0y

> <s_epik_cmdline>
J2VwaWtfcHl0aG9uJywgJy1waCcsICc3LjAnLCAnLXRuJywgJzgnLCAnLW1hJywgJzIwMCcsICctbWV0YWxfYmluZGluZycsICctaW1hZScsICc8aW5maWxlLm1hZT4nLCAnLW9tYWUnLCAnPG91dGZpbGUubWFlPic=

> <r_lp_tautomer_probability>
1

> <r_epik_Ionization_Penalty>
0.00120445

> <r_epik_Ionization_Penalty_Charging>
0.00118273

> <r_epik_Ionization_Penalty_Neutral>
2.17265e-05

> <r_epik_State_Penalty>
-0

> <r_epik_Charging_Adjusted_Penalty>
0.00118273

> <i_epik_Tot_Q>
1

> <i_epik_Tot_abs_Q>
1

> <r_epik_Metal_State_Penalty>
-0

> <b_epik_Metal_Only>
0

> <s_lp_Force_Field>
OPLS_2005

> <r_lp_Energy>
22.3414

> <b_lp_Chiralities_Consistent>
1

> <s_lp_Variant>
AV-unprocessed.smi:3104-4

> <Gold.Version>
5.8.1

> <Gold.Id.Protein>
6NUR|6NUR_protein|mol2

> <Gold.PLP.Fitness>
45.0781

> <Gold.PLP.PLP>
-40.3084

> <Gold.PLP.part.hbond>
-1.0000

> <Gold.PLP.part.metal>
0.0000

> <Gold.PLP.part.buried>
-3.0055

> <Gold.PLP.part.nonpolar>
-36.7870

> <Gold.PLP.part.repulsive>
0.2302

> <Gold.PLP.ligand.clash>
0.0000

> <Gold.PLP.ligand.torsion>
0.9303

> <Gold.PLP.Chemscore.Hbond>
2.0000

> <Gold.PLP.Chemscore.CHOScore>
0.0000

> <Gold.PLP.Chemscore.Metal>
0.0000

> <Gold.Chemscore.Hbonds>
donor molecule, donor type, donor heavy atom, donor atom, acceptor molecule, acceptor atom, score
      L1  H    10    28       P1  8028  2.00

> <Gold.PLP.Chemscore.Internal.Correction>
0.6304

> <Gold.Rescore>
     Score         DG    S(hbond)    S(metal)    S(lipo)     H(rot)  DE(clash)    DE(int)     intcor
     17.05     -17.72       0.96        0.00     109.88       1.49       0.13       0.54       ----

> <Gold.Chemscore.Fitness>
17.0520

> <Gold.Chemscore.DG>
-17.7187

> <Gold.Chemscore.ZeroCoef>
-5.4800

> <Gold.Chemscore.Hbond>
0.9589

> <Gold.Chemscore.Metal>
0.0000

> <Gold.Chemscore.Lipo>
109.8826

> <Gold.Chemscore.Internal_Hbond>
0.0000

> <Gold.Chemscore.DEClash>
0.1290

> <Gold.Chemscore.DEInternal>
0.5378

> <Gold.Chemscore.Rot>
1.4923

> <Gold.Chemscore.Internal.Correction>
   9.000000E+99

> <Gold.Chemscore.Hbonds>
donor molecule, donor type, donor heavy atom, donor atom, acceptor molecule, acceptor atom, score
      L1  H    10    28       P1  8028  1.00

> <Gold.Chemscore.Hbond.Weighted>
-3.2028

> <Gold.Chemscore.Metal.Weighted>
-0.0000

> <Gold.Chemscore.Lipo.Weighted>
-12.8563

> <Gold.Chemscore.Internal_Hbond.Weighted>
0.0000

> <Gold.Chemscore.DEClash.Weighted>
0.1290

> <Gold.Chemscore.DEInternal.Weighted>
0.5378

> <Gold.Chemscore.Rot.Weighted>
3.8204

> <Gold.Chemscore.Internal.Correction.Weighted>
   9.000000E+99

> <Gold.Protein.RotatedTorsions>
[ 6907 6896 6895 6894 ] final   -9.21 input  -60.11 | X-H torsion
[ 7974 7965 7964 7962 ] final  -37.17 input  175.53 | X-H torsion
[ 8008 7997 7996 7995 ] final  -42.40 input   59.86 | X-H torsion
[ 10167 10162 10161 10158 ] final  162.23 input  -65.29 | X-H torsion
[ 10718 10713 10712 10709 ] final -139.30 input   66.30 | X-H torsion
[ 10763 10752 10751 10750 ] final  -44.88 input  -60.55 | X-H torsion
[ 11005 11000 10999 10996 ] final -123.14 input  -57.11 | X-H torsion

> <Gold.Protein.ActiveResidues>
 VAL166  LYS551  ARG553  GLY616  TRP617  ASP618  TYR619  PRO620  LYS621  CYS622 
 ASP623  PHE694  ASN695  SER759  ASP760  ASP761  ALA762  ILE779  LEU786  VAL792 
 PHE793  MET794  SER795  GLU796  ALA797  LYS798  CYS799  TRP800  GLU811  SER814 

> <Gold.Protein.RotatedAtoms>
  151.4214  135.0998  159.9614 H   0  0  0  0  0  0  0  0  0  0  0  0  # atno 6907 bound_to 6896
  152.4987  133.8704  159.7306 H   0  0  0  0  0  0  0  0  0  0  0  0  # atno 6908 bound_to 6896
  150.9220  133.6811  159.2858 H   0  0  0  0  0  0  0  0  0  0  0  0  # atno 6909 bound_to 6896
  146.0598  140.6364  142.9002 H   0  0  0  0  0  0  0  0  0  0  0  0  # atno 7974 bound_to 7965
  154.3999  140.1474  156.3349 H   0  0  0  0  0  0  0  0  0  0  0  0  # atno 8008 bound_to 7997
  155.8410  140.3462  155.5610 H   0  0  0  0  0  0  0  0  0  0  0  0  # atno 8009 bound_to 7997
  155.8087  140.0881  157.1906 H   0  0  0  0  0  0  0  0  0  0  0  0  # atno 8010 bound_to 7997
  139.4858  144.4458  151.8894 H   0  0  0  0  0  0  0  0  0  0  0  0  # atno 10167 bound_to 10162
  156.3091  130.7472  151.1543 H   0  0  0  0  0  0  0  0  0  0  0  0  # atno 10718 bound_to 10713
  154.0194  135.6671  153.4771 H   0  0  0  0  0  0  0  0  0  0  0  0  # atno 10763 bound_to 10752
  153.0586  135.5041  154.8037 H   0  0  0  0  0  0  0  0  0  0  0  0  # atno 10764 bound_to 10752
  154.6946  135.3067  154.9394 H   0  0  0  0  0  0  0  0  0  0  0  0  # atno 10765 bound_to 10752
  140.9941  134.0496  157.3618 H   0  0  0  0  0  0  0  0  0  0  0  0  # atno 11005 bound_to 11000
  144.7168  140.4239  143.7038 LP  0  0  0  0  0  0  0  0  0  0  0  0  # atno 17320 bound_to 7965
  145.6579  139.1576  143.2825 LP  0  0  0  0  0  0  0  0  0  0  0  0  # atno 17321 bound_to 7965
  140.3912  144.2613  150.5899 LP  0  0  0  0  0  0  0  0  0  0  0  0  # atno 17342 bound_to 10162
  140.5144  143.2282  151.8485 LP  0  0  0  0  0  0  0  0  0  0  0  0  # atno 17343 bound_to 10162
  157.7387  131.0538  150.5280 LP  0  0  0  0  0  0  0  0  0  0  0  0  # atno 17370 bound_to 10713
  156.5417  130.4210  149.6150 LP  0  0  0  0  0  0  0  0  0  0  0  0  # atno 17371 bound_to 10713
  139.9006  135.0163  156.7251 LP  0  0  0  0  0  0  0  0  0  0  0  0  # atno 17394 bound_to 11000
  140.6993  133.9320  155.8014 LP  0  0  0  0  0  0  0  0  0  0  0  0  # atno 17395 bound_to 11000

$$$$
