AV-unprocessed.smi:3169|AV-procd|sdf|12105|dock5
  -GOLD-   2272017543D 1   1.00000     0.00000
 Structure written by MMmdl.
 35 36  0  0  0  0  0  0  0  0  1 V2000
  148.3596  132.9598  154.9914 O   0  0  0  0  0  0  0  0  0  0  0  0
  148.5642  133.8551  154.1716 C   0  0  0  0  0  0  0  0  0  0  0  0
  148.0056  133.9000  152.9549 N   0  0  0  0  0  0  0  0  0  0  0  0
  147.0532  132.9247  152.4334 C   0  0  0  0  0  0  0  0  0  0  0  0
  146.8947  133.0228  150.9046 C   0  0  0  0  0  0  0  0  0  0  0  0
  145.5673  132.6357  150.4652 N   0  0  0  0  0  0  0  0  0  0  0  0
  144.6864  133.3865  149.6980 C   0  0  0  0  0  0  0  0  0  0  0  0
  143.5534  132.6208  149.5390 C   0  0  0  0  0  0  0  0  0  0  0  0
  143.7144  131.4026  150.1947 N   0  0  0  0  0  0  0  0  0  0  0  0
  144.9311  131.4834  150.7176 C   0  0  0  0  0  0  0  0  0  0  0  0
  149.3689  134.9048  154.3860 N   0  0  0  0  0  0  0  0  0  0  0  0
  150.1327  135.1487  155.6050 C   0  0  0  0  0  0  0  0  0  0  0  0
  150.6746  136.5867  155.6553 C   0  0  2  0  0  0  0  0  0  0  0  0
  149.6901  137.6678  155.2093 C   0  0  0  0  0  0  0  0  0  0  0  0
  150.6303  138.7862  154.8229 C   0  0  0  0  0  0  0  0  0  0  0  0
  151.7795  138.0194  154.1731 C   0  0  0  0  0  0  0  0  0  0  0  0
  151.7875  136.7274  154.7771 O   0  0  0  0  0  0  0  0  0  0  0  0
  148.2402  134.6746  152.3512 H   0  0  0  0  0  0  0  0  0  0  0  0
  147.3966  131.9273  152.7097 H   0  0  0  0  0  0  0  0  0  0  0  0
  146.0854  133.0607  152.9185 H   0  0  0  0  0  0  0  0  0  0  0  0
  147.0753  134.0476  150.5788 H   0  0  0  0  0  0  0  0  0  0  0  0
  147.6321  132.4006  150.3955 H   0  0  0  0  0  0  0  0  0  0  0  0
  144.9310  134.3761  149.3414 H   0  0  0  0  0  0  0  0  0  0  0  0
  142.6417  132.8517  149.0080 H   0  0  0  0  0  0  0  0  0  0  0  0
  145.3678  130.6884  151.3045 H   0  0  0  0  0  0  0  0  0  0  0  0
  149.4665  135.5862  153.6478 H   0  0  0  0  0  0  0  0  0  0  0  0
  149.4651  134.9835  156.4511 H   0  0  0  0  0  0  0  0  0  0  0  0
  150.9454  134.4285  155.7140 H   0  0  0  0  0  0  0  0  0  0  0  0
  151.0254  136.8160  156.6630 H   0  0  0  0  0  0  0  0  0  0  0  0
  149.1236  137.3375  154.3372 H   0  0  0  0  0  0  0  0  0  0  0  0
  148.9843  137.9521  155.9900 H   0  0  0  0  0  0  0  0  0  0  0  0
  150.1763  139.5211  154.1578 H   0  0  0  0  0  0  0  0  0  0  0  0
  150.9810  139.3034  155.7169 H   0  0  0  0  0  0  0  0  0  0  0  0
  151.6022  137.8985  153.1038 H   0  0  0  0  0  0  0  0  0  0  0  0
  152.7373  138.5241  154.3017 H   0  0  0  0  0  0  0  0  0  0  0  0
  1  2  2  0  0  0  0
  2  3  1  0  0  0  0
  2 11  1  0  0  0  0
  3  4  1  0  0  0  0
  3 18  1  0  0  0  0
  4  5  1  0  0  0  0
  4 19  1  0  0  0  0
  4 20  1  0  0  0  0
  5  6  1  0  0  0  0
  5 21  1  0  0  0  0
  5 22  1  0  0  0  0
  6 10  1  0  0  0  0
  6  7  1  0  0  0  0
  7  8  2  0  0  0  0
  7 23  1  0  0  0  0
  8  9  1  0  0  0  0
  8 24  1  0  0  0  0
  9 10  2  0  0  0  0
 10 25  1  0  0  0  0
 11 12  1  0  0  0  0
 11 26  1  0  0  0  0
 12 13  1  0  0  0  0
 12 27  1  0  0  0  0
 12 28  1  0  0  0  0
 13 17  1  0  0  0  0
 13 14  1  0  0  0  0
 13 29  1  0  0  0  0
 14 15  1  0  0  0  0
 14 30  1  0  0  0  0
 14 31  1  0  0  0  0
 15 16  1  0  0  0  0
 15 32  1  0  0  0  0
 15 33  1  0  0  0  0
 16 17  1  0  0  0  0
 16 34  1  0  0  0  0
 16 35  1  0  0  0  0
M  END
> <s_m_source_file>
AV-unprocessed.smi

> <i_m_source_file_index>
3169

> <i_lp_mmshare_version>
43012

> <i_f3d_flags>
0

> <s_epik_input>
TzFbQ0gyXVtDSDJdW0NIMl1bQ0BIXTFbQ0gyXVtOSF1DKD1PKVtOSF1bQ0gyXVtDSDJdbjJbY0hdW2NIXW5bY0hdMg==

> <s_epik_cmdline>
J2VwaWtfcHl0aG9uJywgJy1waCcsICc3LjAnLCAnLXRuJywgJzgnLCAnLW1hJywgJzIwMCcsICctbWV0YWxfYmluZGluZycsICctaW1hZScsICc8aW5maWxlLm1hZT4nLCAnLW9tYWUnLCAnPG91dGZpbGUubWFlPic=

> <r_lp_tautomer_probability>
1

> <r_epik_Ionization_Penalty>
0.620462

> <r_epik_Ionization_Penalty_Charging>
0.620414

> <r_epik_Ionization_Penalty_Neutral>
4.72016e-05

> <r_epik_State_Penalty>
0.636391

> <r_epik_Charging_Adjusted_Penalty>
1.25681

> <i_epik_Tot_Q>
0

> <i_epik_Tot_abs_Q>
0

> <r_epik_Metal_State_Penalty>
0.306539

> <b_epik_Metal_Only>
0

> <s_lp_Force_Field>
OPLS_2005

> <r_lp_Energy>
16.7898

> <b_lp_Chiralities_Consistent>
1

> <s_lp_Variant>
AV-unprocessed.smi:3169-3

> <Gold.Version>
5.8.1

> <Gold.Id.Protein>
6NUR|6NUR_protein|mol2

> <Gold.PLP.Fitness>
46.1177

> <Gold.PLP.PLP>
-30.0228

> <Gold.PLP.part.hbond>
-4.0000

> <Gold.PLP.part.metal>
0.0000

> <Gold.PLP.part.buried>
-1.1336

> <Gold.PLP.part.nonpolar>
-25.3726

> <Gold.PLP.part.repulsive>
0.3891

> <Gold.PLP.ligand.clash>
0.0000

> <Gold.PLP.ligand.torsion>
0.5258

> <Gold.PLP.Chemscore.Hbond>
3.8326

> <Gold.PLP.Chemscore.CHOScore>
1.8791

> <Gold.PLP.Chemscore.Metal>
0.0000

> <Gold.Chemscore.Hbonds>
donor molecule, donor type, donor heavy atom, donor atom, acceptor molecule, acceptor atom, score
      L1  H     3    18       P1  7948  1.00
      L1  H    11    26       P1  7948  0.99
      P1  H 10752 10765       L1    17  1.00
      P1  H 10785 10796       L1     9  0.80
      L1  C     7    23       P1  7921  0.91
      L1  C     8    24       P1 10186  0.99

> <Gold.PLP.Chemscore.Internal.Correction>
0.0116

> <Gold.Rescore>
     Score         DG    S(hbond)    S(metal)    S(lipo)     H(rot)  DE(clash)    DE(int)     intcor
     14.60     -16.68       3.06        0.00      57.50       2.25       1.71       0.37       ----

> <Gold.Chemscore.Fitness>
14.5978

> <Gold.Chemscore.DG>
-16.6778

> <Gold.Chemscore.ZeroCoef>
-5.4800

> <Gold.Chemscore.Hbond>
3.0609

> <Gold.Chemscore.Metal>
0.0000

> <Gold.Chemscore.Lipo>
57.5003

> <Gold.Chemscore.Internal_Hbond>
0.0000

> <Gold.Chemscore.DEClash>
1.7075

> <Gold.Chemscore.DEInternal>
0.3725

> <Gold.Chemscore.Rot>
2.2474

> <Gold.Chemscore.Internal.Correction>
   9.000000E+99

> <Gold.Chemscore.Hbonds>
donor molecule, donor type, donor heavy atom, donor atom, acceptor molecule, acceptor atom, score
      L1  H     3    18       P1  7948  0.25
      L1  H    11    26       P1  7948  0.24
      P1  H 10752 10765       L1    17  0.93
      P1  H 10785 10796       L1     9  0.23

> <Gold.Chemscore.Hbond.Weighted>
-10.2235

> <Gold.Chemscore.Metal.Weighted>
-0.0000

> <Gold.Chemscore.Lipo.Weighted>
-6.7275

> <Gold.Chemscore.Internal_Hbond.Weighted>
0.0000

> <Gold.Chemscore.DEClash.Weighted>
1.7075

> <Gold.Chemscore.DEInternal.Weighted>
0.3725

> <Gold.Chemscore.Rot.Weighted>
5.7532

> <Gold.Chemscore.Internal.Correction.Weighted>
   9.000000E+99

> <Gold.Protein.RotatedTorsions>
[ 6907 6896 6895 6894 ] final -146.36 input  -60.11 | X-H torsion
[ 7974 7965 7964 7962 ] final  169.49 input  175.53 | X-H torsion
[ 8008 7997 7996 7995 ] final  -87.42 input   59.86 | X-H torsion
[ 10167 10162 10161 10158 ] final   25.67 input  -65.29 | X-H torsion
[ 10718 10713 10712 10709 ] final -147.45 input   66.30 | X-H torsion
[ 10763 10752 10751 10750 ] final  162.25 input  -60.55 | X-H torsion
[ 11005 11000 10999 10996 ] final -165.16 input  -57.11 | X-H torsion

> <Gold.Protein.ActiveResidues>
 VAL166  LYS551  ARG553  GLY616  TRP617  ASP618  TYR619  PRO620  LYS621  CYS622 
 ASP623  PHE694  ASN695  SER759  ASP760  ASP761  ALA762  ILE779  LEU786  VAL792 
 PHE793  MET794  SER795  GLU796  ALA797  LYS798  CYS799  TRP800  GLU811  SER814 

> <Gold.Protein.RotatedAtoms>
  151.1406  133.4974  159.2596 H   0  0  0  0  0  0  0  0  0  0  0  0  # atno 6907 bound_to 6896
  151.1659  135.0295  159.8740 H   0  0  0  0  0  0  0  0  0  0  0  0  # atno 6908 bound_to 6896
  152.5462  134.1275  159.8478 H   0  0  0  0  0  0  0  0  0  0  0  0  # atno 6909 bound_to 6896
  144.7353  139.9062  143.6412 H   0  0  0  0  0  0  0  0  0  0  0  0  # atno 7974 bound_to 7965
  154.6631  140.0566  157.0083 H   0  0  0  0  0  0  0  0  0  0  0  0  # atno 8008 bound_to 7997
  155.1200  140.3246  155.4481 H   0  0  0  0  0  0  0  0  0  0  0  0  # atno 8009 bound_to 7997
  156.2626  140.1999  156.6322 H   0  0  0  0  0  0  0  0  0  0  0  0  # atno 8010 bound_to 7997
  140.5087  144.0196  150.6363 H   0  0  0  0  0  0  0  0  0  0  0  0  # atno 10167 bound_to 10162
  156.4077  130.7966  151.2181 H   0  0  0  0  0  0  0  0  0  0  0  0  # atno 10718 bound_to 10713
  154.2755  135.2764  155.2720 H   0  0  0  0  0  0  0  0  0  0  0  0  # atno 10763 bound_to 10752
  154.5264  135.5742  153.6726 H   0  0  0  0  0  0  0  0  0  0  0  0  # atno 10764 bound_to 10752
  152.9938  135.6217  154.2912 H   0  0  0  0  0  0  0  0  0  0  0  0  # atno 10765 bound_to 10752
  140.5788  134.5163  157.5175 H   0  0  0  0  0  0  0  0  0  0  0  0  # atno 11005 bound_to 11000
  146.1035  139.4032  143.0332 LP  0  0  0  0  0  0  0  0  0  0  0  0  # atno 17320 bound_to 7965
  145.7545  140.9959  143.1233 LP  0  0  0  0  0  0  0  0  0  0  0  0  # atno 17321 bound_to 7965
  140.3513  143.2962  152.0484 LP  0  0  0  0  0  0  0  0  0  0  0  0  # atno 17342 bound_to 10162
  139.4890  144.6372  151.6951 LP  0  0  0  0  0  0  0  0  0  0  0  0  # atno 17343 bound_to 10162
  157.7506  131.0267  150.3974 LP  0  0  0  0  0  0  0  0  0  0  0  0  # atno 17370 bound_to 10713
  156.4266  130.3963  149.6788 LP  0  0  0  0  0  0  0  0  0  0  0  0  # atno 17371 bound_to 10713
  139.9327  134.7933  156.0887 LP  0  0  0  0  0  0  0  0  0  0  0  0  # atno 17394 bound_to 11000
  141.1009  133.6677  156.2753 LP  0  0  0  0  0  0  0  0  0  0  0  0  # atno 17395 bound_to 11000

$$$$
