AV-unprocessed.smi:1166|AV-procd|sdf|4936|dock3
  -GOLD-   22720 3523D 1   1.00000     0.00000
 Structure written by MMmdl.
 46 47  0  0  0  0  0  0  0  0  1 V2000
  150.7690  128.5995  155.5101 C   0  0  0  0  0  0  0  0  0  0  0  0
  149.9772  129.1814  154.4311 N   0  0  0  0  0  0  0  0  0  0  0  0
  149.2448  128.3122  153.5186 C   0  0  0  0  0  0  0  0  0  0  0  0
  149.8489  130.5859  154.3315 C   0  0  0  0  0  0  0  0  0  0  0  0
  148.9928  131.1844  153.3739 C   0  0  0  0  0  0  0  0  0  0  0  0
  148.9013  132.5878  153.3157 C   0  0  0  0  0  0  0  0  0  0  0  0
  149.6679  133.3672  154.2023 C   0  0  0  0  0  0  0  0  0  0  0  0
  149.5392  134.7804  154.1326 N   0  0  0  0  0  0  0  0  0  0  0  0
  149.8628  135.6959  155.0616 C   0  0  0  0  0  0  0  0  0  0  0  0
  150.3650  135.4520  156.1585 O   0  0  0  0  0  0  0  0  0  0  0  0
  149.5878  136.9358  154.6333 N   0  0  0  0  0  0  0  0  0  0  0  0
  149.8502  138.1624  155.3790 C   0  0  2  0  0  0  0  0  0  0  0  0
  149.3199  139.3897  154.6200 C   0  0  0  0  0  0  0  0  0  0  0  0
  149.6554  140.6649  155.4017 C   0  0  0  0  0  0  0  0  0  0  0  0
  151.1659  140.7729  155.6759 C   0  0  0  0  0  0  0  0  0  0  0  0
  151.6912  139.5560  156.3283 N   0  0  0  0  0  0  0  0  0  0  0  0
  151.9992  139.5490  158.0411 S   0  0  0  0  0  0  0  0  0  0  0  0
  151.3395  141.1637  158.6260 C   0  0  0  0  0  0  0  0  0  0  0  0
  151.1865  138.4788  158.6392 O   0  0  0  0  0  0  0  0  0  0  0  0
  153.4573  139.5518  158.2354 O   0  0  0  0  0  0  0  0  0  0  0  0
  151.3641  138.2947  155.6345 C   0  0  0  0  0  0  0  0  0  0  0  0
  150.4867  132.6852  155.1324 C   0  0  0  0  0  0  0  0  0  0  0  0
  150.5759  131.3400  155.1920 N   0  0  0  0  0  0  0  0  0  0  0  0
  151.7963  128.9633  155.4722 H   0  0  0  0  0  0  0  0  0  0  0  0
  150.7997  127.5121  155.4399 H   0  0  0  0  0  0  0  0  0  0  0  0
  150.3441  128.8606  156.4799 H   0  0  0  0  0  0  0  0  0  0  0  0
  148.1725  128.4962  153.5918 H   0  0  0  0  0  0  0  0  0  0  0  0
  149.4175  127.2606  153.7477 H   0  0  0  0  0  0  0  0  0  0  0  0
  149.5605  128.4837  152.4892 H   0  0  0  0  0  0  0  0  0  0  0  0
  148.4057  130.5973  152.6842 H   0  0  0  0  0  0  0  0  0  0  0  0
  148.2506  133.0574  152.5926 H   0  0  0  0  0  0  0  0  0  0  0  0
  149.2137  135.1413  153.2479 H   0  0  0  0  0  0  0  0  0  0  0  0
  149.1780  137.0417  153.7168 H   0  0  0  0  0  0  0  0  0  0  0  0
  149.3402  138.0987  156.3402 H   0  0  0  0  0  0  0  0  0  0  0  0
  149.7653  139.4389  153.6253 H   0  0  0  0  0  0  0  0  0  0  0  0
  148.2409  139.3163  154.4783 H   0  0  0  0  0  0  0  0  0  0  0  0
  149.3201  141.5393  154.8433 H   0  0  0  0  0  0  0  0  0  0  0  0
  149.1023  140.6745  156.3400 H   0  0  0  0  0  0  0  0  0  0  0  0
  151.6977  140.9136  154.7343 H   0  0  0  0  0  0  0  0  0  0  0  0
  151.3789  141.6523  156.2828 H   0  0  0  0  0  0  0  0  0  0  0  0
  151.5161  141.2515  159.6977 H   0  0  0  0  0  0  0  0  0  0  0  0
  150.2681  141.2169  158.4415 H   0  0  0  0  0  0  0  0  0  0  0  0
  151.8481  141.9803  158.1167 H   0  0  0  0  0  0  0  0  0  0  0  0
  151.7295  137.4440  156.2095 H   0  0  0  0  0  0  0  0  0  0  0  0
  151.9026  138.2778  154.6858 H   0  0  0  0  0  0  0  0  0  0  0  0
  151.0758  133.2085  155.8689 H   0  0  0  0  0  0  0  0  0  0  0  0
  1  2  1  0  0  0  0
  1 24  1  0  0  0  0
  1 25  1  0  0  0  0
  1 26  1  0  0  0  0
  2  3  1  0  0  0  0
  2  4  1  0  0  0  0
  3 27  1  0  0  0  0
  3 28  1  0  0  0  0
  3 29  1  0  0  0  0
  4 23  1  0  0  0  0
  4  5  2  0  0  0  0
  5  6  1  0  0  0  0
  5 30  1  0  0  0  0
  6  7  2  0  0  0  0
  6 31  1  0  0  0  0
  7  8  1  0  0  0  0
  7 22  1  0  0  0  0
  8  9  1  0  0  0  0
  8 32  1  0  0  0  0
  9 10  2  0  0  0  0
  9 11  1  0  0  0  0
 11 12  1  0  0  0  0
 11 33  1  0  0  0  0
 12 21  1  0  0  0  0
 12 13  1  0  0  0  0
 12 34  1  0  0  0  0
 13 14  1  0  0  0  0
 13 35  1  0  0  0  0
 13 36  1  0  0  0  0
 14 15  1  0  0  0  0
 14 37  1  0  0  0  0
 14 38  1  0  0  0  0
 15 16  1  0  0  0  0
 15 39  1  0  0  0  0
 15 40  1  0  0  0  0
 16 17  1  0  0  0  0
 16 21  1  0  0  0  0
 17 18  1  0  0  0  0
 17 19  2  0  0  0  0
 17 20  2  0  0  0  0
 18 41  1  0  0  0  0
 18 42  1  0  0  0  0
 18 43  1  0  0  0  0
 21 44  1  0  0  0  0
 21 45  1  0  0  0  0
 22 23  2  0  0  0  0
 22 46  1  0  0  0  0
M  END
> <s_m_source_file>
AV-unprocessed.smi

> <i_m_source_file_index>
1166

> <i_lp_mmshare_version>
43012

> <i_f3d_flags>
0

> <s_epik_input>
W0NIM11OKFtDSDNdKWMxW2NIXVtjSF1jKFtjSF1uMSlbTkhdQyg9TylbTkhdW0NAQEhdMltDSDJdW0NIMl1bQ0gyXU4oW0NIMl0yKVMoPU8pKD1PKVtDSDNd

> <s_epik_cmdline>
J2VwaWtfcHl0aG9uJywgJy1waCcsICc3LjAnLCAnLXRuJywgJzgnLCAnLW1hJywgJzIwMCcsICctbWV0YWxfYmluZGluZycsICctaW1hZScsICc8aW5maWxlLm1hZT4nLCAnLW9tYWUnLCAnPG91dGZpbGUubWFlPic=

> <r_lp_tautomer_probability>
1

> <r_epik_Ionization_Penalty>
0.585334

> <r_epik_Ionization_Penalty_Charging>
0

> <r_epik_Ionization_Penalty_Neutral>
0.585334

> <r_epik_State_Penalty>
0.597345

> <r_epik_Charging_Adjusted_Penalty>
0.597345

> <i_epik_Tot_Q>
0

> <i_epik_Tot_abs_Q>
0

> <r_epik_Metal_State_Penalty>
0.29678

> <b_epik_Metal_Only>
0

> <s_lp_Force_Field>
OPLS_2005

> <r_lp_Energy>
0.833523

> <b_lp_Chiralities_Consistent>
1

> <s_lp_Variant>
AV-unprocessed.smi:1166-3

> <Gold.Version>
5.8.1

> <Gold.Id.Protein>
6NUR|6NUR_protein|mol2

> <Gold.PLP.Fitness>
42.1409

> <Gold.PLP.PLP>
-35.0840

> <Gold.PLP.part.hbond>
-3.0000

> <Gold.PLP.part.metal>
0.0000

> <Gold.PLP.part.buried>
-3.2067

> <Gold.PLP.part.nonpolar>
-29.1145

> <Gold.PLP.part.repulsive>
0.0751

> <Gold.PLP.ligand.clash>
0.0000

> <Gold.PLP.ligand.torsion>
1.2925

> <Gold.PLP.Chemscore.Hbond>
2.5248

> <Gold.PLP.Chemscore.CHOScore>
0.0000

> <Gold.PLP.Chemscore.Metal>
0.0000

> <Gold.Chemscore.Hbonds>
donor molecule, donor type, donor heavy atom, donor atom, acceptor molecule, acceptor atom, score
      L1  H     8    32       P1  7948  0.80
      L1  H    11    33       P1  7948  0.91
      P1  H  7997  8009       L1    20  0.67

> <Gold.PLP.Chemscore.Internal.Correction>
2.0674

> <Gold.Rescore>
     Score         DG    S(hbond)    S(metal)    S(lipo)     H(rot)  DE(clash)    DE(int)     intcor
     14.82     -17.38       2.08        0.00      64.11       1.00       0.06       2.50       ----

> <Gold.Chemscore.Fitness>
14.8173

> <Gold.Chemscore.DG>
-17.3805

> <Gold.Chemscore.ZeroCoef>
-5.4800

> <Gold.Chemscore.Hbond>
2.0837

> <Gold.Chemscore.Metal>
0.0000

> <Gold.Chemscore.Lipo>
64.1100

> <Gold.Chemscore.Internal_Hbond>
0.0000

> <Gold.Chemscore.DEClash>
0.0639

> <Gold.Chemscore.DEInternal>
2.4993

> <Gold.Chemscore.Rot>
1.0000

> <Gold.Chemscore.Internal.Correction>
   9.000000E+99

> <Gold.Chemscore.Hbonds>
donor molecule, donor type, donor heavy atom, donor atom, acceptor molecule, acceptor atom, score
      L1  H     8    32       P1  7948  0.12
      L1  H    11    33       P1  7948  0.83
      P1  H  7997  8009       L1    20  0.68

> <Gold.Chemscore.Hbond.Weighted>
-6.9596

> <Gold.Chemscore.Metal.Weighted>
-0.0000

> <Gold.Chemscore.Lipo.Weighted>
-7.5009

> <Gold.Chemscore.Internal_Hbond.Weighted>
0.0000

> <Gold.Chemscore.DEClash.Weighted>
0.0639

> <Gold.Chemscore.DEInternal.Weighted>
2.4993

> <Gold.Chemscore.Rot.Weighted>
2.5600

> <Gold.Chemscore.Internal.Correction.Weighted>
   9.000000E+99

> <Gold.Protein.RotatedTorsions>
[ 6907 6896 6895 6894 ] final  -47.44 input  -60.11 | X-H torsion
[ 7974 7965 7964 7962 ] final  -12.21 input  175.53 | X-H torsion
[ 8008 7997 7996 7995 ] final  119.73 input   59.86 | X-H torsion
[ 10167 10162 10161 10158 ] final  -31.28 input  -65.29 | X-H torsion
[ 10718 10713 10712 10709 ] final   97.08 input   66.30 | X-H torsion
[ 10763 10752 10751 10750 ] final    6.21 input  -60.55 | X-H torsion
[ 11005 11000 10999 10996 ] final  -49.73 input  -57.11 | X-H torsion

> <Gold.Protein.ActiveResidues>
 VAL166  LYS551  ARG553  GLY616  TRP617  ASP618  TYR619  PRO620  LYS621  CYS622 
 ASP623  PHE694  ASN695  SER759  ASP760  ASP761  ALA762  ILE779  LEU786  VAL792 
 PHE793  MET794  SER795  GLU796  ALA797  LYS798  CYS799  TRP800  GLU811  SER814 

> <Gold.Protein.RotatedAtoms>
  150.9007  134.8419  159.7357 H   0  0  0  0  0  0  0  0  0  0  0  0  # atno 6907 bound_to 6896
  152.4891  134.4507  159.9583 H   0  0  0  0  0  0  0  0  0  0  0  0  # atno 6908 bound_to 6896
  151.4559  133.3566  159.2837 H   0  0  0  0  0  0  0  0  0  0  0  0  # atno 6909 bound_to 6896
  146.2160  140.3024  142.8376 H   0  0  0  0  0  0  0  0  0  0  0  0  # atno 7974 bound_to 7965
  156.2609  140.2846  156.1037 H   0  0  0  0  0  0  0  0  0  0  0  0  # atno 8008 bound_to 7997
  155.1332  140.0394  157.2797 H   0  0  0  0  0  0  0  0  0  0  0  0  # atno 8009 bound_to 7997
  154.6584  140.2561  155.7142 H   0  0  0  0  0  0  0  0  0  0  0  0  # atno 8010 bound_to 7997
  140.7238  143.3783  151.1648 H   0  0  0  0  0  0  0  0  0  0  0  0  # atno 10167 bound_to 10162
  157.6918  131.0598  150.4590 H   0  0  0  0  0  0  0  0  0  0  0  0  # atno 10718 bound_to 10713
  153.2503  135.6913  153.7686 H   0  0  0  0  0  0  0  0  0  0  0  0  # atno 10763 bound_to 10752
  153.6783  135.3333  155.3172 H   0  0  0  0  0  0  0  0  0  0  0  0  # atno 10764 bound_to 10752
  154.8391  135.4516  154.1458 H   0  0  0  0  0  0  0  0  0  0  0  0  # atno 10765 bound_to 10752
  141.0776  133.6662  156.3628 H   0  0  0  0  0  0  0  0  0  0  0  0  # atno 11005 bound_to 11000
  144.9048  140.7686  143.5844 LP  0  0  0  0  0  0  0  0  0  0  0  0  # atno 17320 bound_to 7965
  145.2951  139.1870  143.4719 LP  0  0  0  0  0  0  0  0  0  0  0  0  # atno 17321 bound_to 7965
  139.7367  143.8988  152.3037 LP  0  0  0  0  0  0  0  0  0  0  0  0  # atno 17342 bound_to 10162
  139.8795  144.7025  150.8894 LP  0  0  0  0  0  0  0  0  0  0  0  0  # atno 17343 bound_to 10162
  156.4935  130.4101  149.6393 LP  0  0  0  0  0  0  0  0  0  0  0  0  # atno 17370 bound_to 10713
  156.3394  130.7374  151.2317 LP  0  0  0  0  0  0  0  0  0  0  0  0  # atno 17371 bound_to 10713
  140.5540  134.6000  157.5415 LP  0  0  0  0  0  0  0  0  0  0  0  0  # atno 17394 bound_to 11000
  139.9588  134.7488  156.0281 LP  0  0  0  0  0  0  0  0  0  0  0  0  # atno 17395 bound_to 11000

$$$$
