AV-unprocessed.smi:218|AV-procd|sdf|1662|dock8
  -GOLD-   2262020 63D 1   1.00000     0.00000
 Structure written by MMmdl.
 54 57  0  0  0  0  0  0  0  0  1 V2000
  151.6660  140.1231  159.1529 C   0  0  0  0  0  0  0  0  0  0  0  0
  152.6077  138.9422  158.8883 C   0  0  0  0  0  0  0  0  0  0  0  0
  153.7644  138.9146  159.9023 C   0  0  0  0  0  0  0  0  0  0  0  0
  153.1127  139.1046  157.5613 O   0  0  0  0  0  0  0  0  0  0  0  0
  152.2889  138.8911  156.4728 C   0  0  0  0  0  0  0  0  0  0  0  0
  151.3034  139.8565  156.1818 C   0  0  0  0  0  0  0  0  0  0  0  0
  150.4508  139.6534  155.0776 C   0  0  0  0  0  0  0  0  0  0  0  0
  149.3718  140.6693  154.7506 C   0  0  0  0  0  0  0  0  0  0  0  0
  148.1867  140.0965  154.1251 N   0  0  0  0  0  0  0  0  0  0  0  0
  147.6503  138.9571  154.6114 C   0  0  0  0  0  0  0  0  0  0  0  0
  147.8353  138.5931  155.9077 N   0  0  0  0  0  0  0  0  0  0  0  0
  147.2984  137.4580  156.3666 C   0  0  0  0  0  0  0  0  0  0  0  0
  146.5599  136.5591  155.7112 N   0  0  0  0  0  0  0  0  0  0  0  0
  146.3743  136.9222  154.4092 C   0  0  0  0  0  0  0  0  0  0  0  0
  146.8781  138.0978  153.7882 C   0  0  0  0  0  0  0  0  0  0  0  0
  146.4809  138.1333  152.4578 N   0  0  0  0  0  0  0  0  0  0  0  0
  145.7848  137.0380  152.3062 C   0  0  0  0  0  0  0  0  0  0  0  0
  145.6755  136.2492  153.4320 N   0  0  0  0  0  0  0  0  0  0  0  0
  144.9645  134.9470  153.6097 C   0  0  2  0  0  0  0  0  0  0  0  0
  145.8128  133.9327  153.1551 O   0  0  0  0  0  0  0  0  0  0  0  0
  145.2169  133.2114  152.0777 C   0  0  2  0  0  0  0  0  0  0  0  0
  146.2984  132.7696  151.0799 C   0  0  0  0  0  0  0  0  0  0  0  0
  147.2451  131.9463  151.7261 O   0  0  0  0  0  0  0  0  0  0  0  0
  144.2162  134.2082  151.4923 C   0  0  1  0  0  0  0  0  0  0  0  0
  143.1783  133.5954  150.7517 O   0  0  0  0  0  0  0  0  0  0  0  0
  143.7076  134.9290  152.7317 C   0  0  1  0  0  0  0  0  0  0  0  0
  142.6495  134.2448  153.3786 O   0  0  0  0  0  0  0  0  0  0  0  0
  150.6127  138.4802  154.3106 C   0  0  0  0  0  0  0  0  0  0  0  0
  151.6247  137.5729  154.6786 C   0  0  0  0  0  0  0  0  0  0  0  0
  152.4464  137.7661  155.7317 N   0  0  0  0  0  0  0  0  0  0  0  0
  144.7758  134.8769  154.6819 H   0  0  0  0  0  0  0  0  0  0  0  0
  144.6787  132.3524  152.4831 H   0  0  0  0  0  0  0  0  0  0  0  0
  144.7387  134.9198  150.8510 H   0  0  0  0  0  0  0  0  0  0  0  0
  143.3687  135.9413  152.5062 H   0  0  0  0  0  0  0  0  0  0  0  0
  151.2341  140.0659  160.1524 H   0  0  0  0  0  0  0  0  0  0  0  0
  150.8437  140.1330  158.4371 H   0  0  0  0  0  0  0  0  0  0  0  0
  152.1917  141.0747  159.0693 H   0  0  0  0  0  0  0  0  0  0  0  0
  152.0138  138.0311  158.9747 H   0  0  0  0  0  0  0  0  0  0  0  0
  153.3872  138.8286  160.9215 H   0  0  0  0  0  0  0  0  0  0  0  0
  154.3597  139.8262  159.8442 H   0  0  0  0  0  0  0  0  0  0  0  0
  154.4335  138.0717  159.7313 H   0  0  0  0  0  0  0  0  0  0  0  0
  151.2056  140.7374  156.7994 H   0  0  0  0  0  0  0  0  0  0  0  0
  149.0865  141.1690  155.6773 H   0  0  0  0  0  0  0  0  0  0  0  0
  149.7890  141.4298  154.0890 H   0  0  0  0  0  0  0  0  0  0  0  0
  147.8375  140.5745  153.3067 H   0  0  0  0  0  0  0  0  0  0  0  0
  147.4892  137.2379  157.4067 H   0  0  0  0  0  0  0  0  0  0  0  0
  145.3332  136.7771  151.3606 H   0  0  0  0  0  0  0  0  0  0  0  0
  145.8503  132.1834  150.2769 H   0  0  0  0  0  0  0  0  0  0  0  0
  146.7912  133.6259  150.6191 H   0  0  0  0  0  0  0  0  0  0  0  0
  147.7359  131.4785  151.0679 H   0  0  0  0  0  0  0  0  0  0  0  0
  142.5630  134.2658  150.4949 H   0  0  0  0  0  0  0  0  0  0  0  0
  142.9860  133.4331  153.7266 H   0  0  0  0  0  0  0  0  0  0  0  0
  149.9767  138.2709  153.4630 H   0  0  0  0  0  0  0  0  0  0  0  0
  151.7760  136.6648  154.1137 H   0  0  0  0  0  0  0  0  0  0  0  0
  1  2  1  0  0  0  0
  1 35  1  0  0  0  0
  1 36  1  0  0  0  0
  1 37  1  0  0  0  0
  2  3  1  0  0  0  0
  2  4  1  0  0  0  0
  2 38  1  0  0  0  0
  3 39  1  0  0  0  0
  3 40  1  0  0  0  0
  3 41  1  0  0  0  0
  4  5  1  0  0  0  0
  5 30  1  0  0  0  0
  5  6  2  0  0  0  0
  6  7  1  0  0  0  0
  6 42  1  0  0  0  0
  7  8  1  0  0  0  0
  7 28  2  0  0  0  0
  8  9  1  0  0  0  0
  8 43  1  0  0  0  0
  8 44  1  0  0  0  0
  9 10  1  0  0  0  0
  9 45  1  0  0  0  0
 10 15  1  0  0  0  0
 10 11  2  0  0  0  0
 11 12  1  0  0  0  0
 12 13  2  0  0  0  0
 12 46  1  0  0  0  0
 13 14  1  0  0  0  0
 14 18  1  0  0  0  0
 14 15  2  0  0  0  0
 15 16  1  0  0  0  0
 16 17  2  0  0  0  0
 17 18  1  0  0  0  0
 17 47  1  0  0  0  0
 18 19  1  0  0  0  0
 19 31  1  0  0  0  0
 19 26  1  0  0  0  0
 19 20  1  0  0  0  0
 20 21  1  0  0  0  0
 21 32  1  0  0  0  0
 21 22  1  0  0  0  0
 21 24  1  0  0  0  0
 22 23  1  0  0  0  0
 22 48  1  0  0  0  0
 22 49  1  0  0  0  0
 23 50  1  0  0  0  0
 24 33  1  0  0  0  0
 24 25  1  0  0  0  0
 24 26  1  0  0  0  0
 25 51  1  0  0  0  0
 26 34  1  0  0  0  0
 26 27  1  0  0  0  0
 27 52  1  0  0  0  0
 28 29  1  0  0  0  0
 28 53  1  0  0  0  0
 29 30  2  0  0  0  0
 29 54  1  0  0  0  0
M  END
> <s_m_source_file>
AV-unprocessed.smi

> <i_m_source_file_index>
218

> <i_lp_mmshare_version>
43012

> <i_f3d_flags>
0

> <s_epik_input>
W0NIM11bQ0hdKFtDSDNdKU9jMVtjSF1jKFtjSF1bY0hdbjEpW0NIMl1bTkhdYyhuW2NIXW4yKWMoYzIzKW5bY0hdbjNbQ0BASF00T1tDQEhdKFtDSDJdW09IXSlbQ0BASF0oW09IXSlbQ0BIXTRbT0hd

> <s_epik_cmdline>
J2VwaWtfcHl0aG9uJywgJy1waCcsICc3LjAnLCAnLXRuJywgJzgnLCAnLW1hJywgJzIwMCcsICctbWV0YWxfYmluZGluZycsICctaW1hZScsICc8aW5maWxlLm1hZT4nLCAnLW9tYWUnLCAnPG91dGZpbGUubWFlPic=

> <r_lp_tautomer_probability>
1

> <r_epik_Ionization_Penalty>
0.00457014

> <r_epik_Ionization_Penalty_Charging>
0

> <r_epik_Ionization_Penalty_Neutral>
0.00457014

> <r_epik_State_Penalty>
-0

> <r_epik_Charging_Adjusted_Penalty>
0

> <i_epik_Tot_Q>
0

> <i_epik_Tot_abs_Q>
0

> <r_epik_Metal_State_Penalty>
-0

> <b_epik_Metal_Only>
0

> <s_epik_Chemistry_Notes>
This compound contains an acetal/aminal-like group ( X-CH(R)-Y where X, Y are N, S, or O) that may be acid/base labile, releasing an aldehyde.

> <s_lp_Force_Field>
OPLS_2005

> <r_lp_Energy>
38.2737

> <b_lp_Chiralities_Consistent>
1

> <s_lp_Variant>
AV-unprocessed.smi:218-1

> <Gold.Version>
5.8.1

> <Gold.Id.Protein>
6NUR|6NUR_protein|mol2

> <Gold.PLP.Fitness>
55.1305

> <Gold.PLP.PLP>
-41.5483

> <Gold.PLP.part.hbond>
-5.0000

> <Gold.PLP.part.metal>
0.0000

> <Gold.PLP.part.buried>
-4.8021

> <Gold.PLP.part.nonpolar>
-32.1686

> <Gold.PLP.part.repulsive>
0.5525

> <Gold.PLP.ligand.clash>
0.0000

> <Gold.PLP.ligand.torsion>
1.5368

> <Gold.PLP.Chemscore.Hbond>
4.0000

> <Gold.PLP.Chemscore.CHOScore>
1.4877

> <Gold.PLP.Chemscore.Metal>
0.0000

> <Gold.Chemscore.Hbonds>
donor molecule, donor type, donor heavy atom, donor atom, acceptor molecule, acceptor atom, score
      L1  H    23    50       P1 10747  1.00
      L1  H    25    51       P1 10186  0.80
      L1  H    27    52       P1 10957  0.96
      P1  H  7997  8009       L1     4  1.00
      L1  C    17    47       P1 10171  0.30
      L1  C    29    54       P1  7949  0.40

> <Gold.PLP.Chemscore.Internal.Correction>
0.1927

> <Gold.Rescore>
     Score         DG    S(hbond)    S(metal)    S(lipo)     H(rot)  DE(clash)    DE(int)     intcor
      9.83     -14.78       3.70        0.00      81.27       4.90       0.29       4.66       ----

> <Gold.Chemscore.Fitness>
9.8347

> <Gold.Chemscore.DG>
-14.7811

> <Gold.Chemscore.ZeroCoef>
-5.4800

> <Gold.Chemscore.Hbond>
3.6957

> <Gold.Chemscore.Metal>
0.0000

> <Gold.Chemscore.Lipo>
81.2740

> <Gold.Chemscore.Internal_Hbond>
0.0000

> <Gold.Chemscore.DEClash>
0.2888

> <Gold.Chemscore.DEInternal>
4.6577

> <Gold.Chemscore.Rot>
4.9029

> <Gold.Chemscore.Internal.Correction>
   9.000000E+99

> <Gold.Chemscore.Hbonds>
donor molecule, donor type, donor heavy atom, donor atom, acceptor molecule, acceptor atom, score
      L1  H    23    50       P1 10747  0.98
      L1  H    25    51       P1 10186  0.52
      L1  H    27    52       P1 10957  0.89
      P1  H  7997  8009       L1     4  0.50

> <Gold.Chemscore.Hbond.Weighted>
-12.3436

> <Gold.Chemscore.Metal.Weighted>
-0.0000

> <Gold.Chemscore.Lipo.Weighted>
-9.5091

> <Gold.Chemscore.Internal_Hbond.Weighted>
0.0000

> <Gold.Chemscore.DEClash.Weighted>
0.2888

> <Gold.Chemscore.DEInternal.Weighted>
4.6577

> <Gold.Chemscore.Rot.Weighted>
12.5515

> <Gold.Chemscore.Internal.Correction.Weighted>
   9.000000E+99

> <Gold.Protein.RotatedTorsions>
[ 6907 6896 6895 6894 ] final  170.44 input  -60.11 | X-H torsion
[ 7974 7965 7964 7962 ] final  -41.80 input  175.53 | X-H torsion
[ 8008 7997 7996 7995 ] final  161.68 input   59.86 | X-H torsion
[ 10167 10162 10161 10158 ] final   95.52 input  -65.29 | X-H torsion
[ 10718 10713 10712 10709 ] final   89.58 input   66.30 | X-H torsion
[ 10763 10752 10751 10750 ] final   82.91 input  -60.55 | X-H torsion
[ 11005 11000 10999 10996 ] final  -90.94 input  -57.11 | X-H torsion

> <Gold.Protein.ActiveResidues>
 VAL166  LYS551  ARG553  GLY616  TRP617  ASP618  TYR619  PRO620  LYS621  CYS622 
 ASP623  PHE694  ASN695  SER759  ASP760  ASP761  ALA762  ILE779  LEU786  VAL792 
 PHE793  MET794  SER795  GLU796  ALA797  LYS798  CYS799  TRP800  GLU811  SER814 

> <Gold.Protein.RotatedAtoms>
  151.8160  133.3388  159.3569 H   0  0  0  0  0  0  0  0  0  0  0  0  # atno 6907 bound_to 6896
  150.7310  134.5619  159.5856 H   0  0  0  0  0  0  0  0  0  0  0  0  # atno 6908 bound_to 6896
  152.3041  134.7577  160.0402 H   0  0  0  0  0  0  0  0  0  0  0  0  # atno 6909 bound_to 6896
  146.0177  140.6888  142.9193 H   0  0  0  0  0  0  0  0  0  0  0  0  # atno 7974 bound_to 7965
  156.2085  140.1770  156.7746 H   0  0  0  0  0  0  0  0  0  0  0  0  # atno 8008 bound_to 7997
  154.5689  140.0686  156.8964 H   0  0  0  0  0  0  0  0  0  0  0  0  # atno 8009 bound_to 7997
  155.2709  140.3342  155.4268 H   0  0  0  0  0  0  0  0  0  0  0  0  # atno 8010 bound_to 7997
  139.7980  144.6825  150.9802 H   0  0  0  0  0  0  0  0  0  0  0  0  # atno 10167 bound_to 10162
  157.6956  131.0338  150.3448 H   0  0  0  0  0  0  0  0  0  0  0  0  # atno 10718 bound_to 10713
  153.1244  135.4710  154.9249 H   0  0  0  0  0  0  0  0  0  0  0  0  # atno 10763 bound_to 10752
  154.7606  135.3130  154.8387 H   0  0  0  0  0  0  0  0  0  0  0  0  # atno 10764 bound_to 10752
  153.8944  135.6881  153.4812 H   0  0  0  0  0  0  0  0  0  0  0  0  # atno 10765 bound_to 10752
  141.1555  133.7724  156.9809 H   0  0  0  0  0  0  0  0  0  0  0  0  # atno 11005 bound_to 11000
  144.6977  140.3510  143.7182 LP  0  0  0  0  0  0  0  0  0  0  0  0  # atno 17320 bound_to 7965
  145.7243  139.1718  143.2467 LP  0  0  0  0  0  0  0  0  0  0  0  0  # atno 17321 bound_to 7965
  140.7820  143.4311  151.0694 LP  0  0  0  0  0  0  0  0  0  0  0  0  # atno 17342 bound_to 10162
  139.7984  143.8119  152.3160 LP  0  0  0  0  0  0  0  0  0  0  0  0  # atno 17343 bound_to 10162
  156.3904  130.3897  149.7034 LP  0  0  0  0  0  0  0  0  0  0  0  0  # atno 17370 bound_to 10713
  156.4386  130.7850  151.2871 LP  0  0  0  0  0  0  0  0  0  0  0  0  # atno 17371 bound_to 10713
  140.1066  134.9502  157.2004 LP  0  0  0  0  0  0  0  0  0  0  0  0  # atno 17394 bound_to 11000
  140.3248  134.2876  155.7239 LP  0  0  0  0  0  0  0  0  0  0  0  0  # atno 17395 bound_to 11000

$$$$
