AV-unprocessed.smi:3006|AV-procd|sdf|11444|dock10
  -GOLD-   2272016373D 1   1.00000     0.00000
 Structure written by MMmdl.
 45 46  0  0  0  0  0  0  0  0  2 V2000
  152.6264  143.4006  162.6924 C   0  0  0  0  0  0  0  0  0  0  0  0
  152.2051  143.4806  161.2651 C   0  0  0  0  0  0  0  0  0  0  0  0
  151.9410  142.4105  160.5109 N   0  0  0  0  0  0  0  0  0  0  0  0
  151.5584  142.7503  159.2094 C   0  0  0  0  0  0  0  0  0  0  0  0
  151.2138  141.6738  158.2257 C   0  0  0  0  0  0  0  0  0  0  0  0
  150.9862  142.2332  156.8120 C   0  0  0  0  0  0  0  0  0  0  0  0
  150.6804  141.1729  155.8585 N   0  0  0  0  0  0  0  0  0  0  0  0
  151.4206  140.0682  155.6652 C   0  0  0  0  0  0  0  0  0  0  0  0
  152.4442  139.8435  156.3120 O   0  0  0  0  0  0  0  0  0  0  0  0
  150.9324  139.2130  154.7319 N   0  0  0  0  0  0  0  0  0  0  0  0
  151.5898  138.0042  154.2242 C   0  0  0  0  0  0  0  0  0  0  0  0
  150.9083  136.7684  154.8401 C   0  0  0  0  0  0  0  0  0  0  0  0
  149.4322  136.7472  154.6011 N   0  3  0  0  0  0  0  0  0  0  0  0
  148.7467  135.5770  155.2401 C   0  0  0  0  0  0  0  0  0  0  0  0
  149.3442  134.2280  154.7891 C   0  0  0  0  0  0  0  0  0  0  0  0
  147.2281  135.5580  154.9655 C   0  0  0  0  0  0  0  0  0  0  0  0
  148.7881  138.0576  154.9215 C   0  0  0  0  0  0  0  0  0  0  0  0
  149.5372  139.2480  154.2966 C   0  0  0  0  0  0  0  0  0  0  0  0
  151.5419  144.1047  158.9864 C   0  0  0  0  0  0  0  0  0  0  0  0
  152.0031  145.0028  160.4063 S   0  0  0  0  0  0  0  0  0  0  0  0
  152.7380  142.3613  163.0031 H   0  0  0  0  0  0  0  0  0  0  0  0
  151.8798  143.8769  163.3278 H   0  0  0  0  0  0  0  0  0  0  0  0
  153.5803  143.9103  162.8284 H   0  0  0  0  0  0  0  0  0  0  0  0
  152.0107  140.9294  158.2016 H   0  0  0  0  0  0  0  0  0  0  0  0
  150.3201  141.1426  158.5562 H   0  0  0  0  0  0  0  0  0  0  0  0
  150.1491  142.9319  156.8183 H   0  0  0  0  0  0  0  0  0  0  0  0
  151.8583  142.7994  156.4799 H   0  0  0  0  0  0  0  0  0  0  0  0
  149.8423  141.2862  155.3069 H   0  0  0  0  0  0  0  0  0  0  0  0
  151.4959  137.9764  153.1374 H   0  0  0  0  0  0  0  0  0  0  0  0
  152.6616  137.9696  154.4194 H   0  0  0  0  0  0  0  0  0  0  0  0
  151.3780  135.8866  154.4070 H   0  0  0  0  0  0  0  0  0  0  0  0
  151.1006  136.7402  155.9140 H   0  0  0  0  0  0  0  0  0  0  0  0
  148.8862  135.6572  156.3193 H   0  0  0  0  0  0  0  0  0  0  0  0
  148.7628  133.3916  155.1786 H   0  0  0  0  0  0  0  0  0  0  0  0
  150.3606  134.0825  155.1541 H   0  0  0  0  0  0  0  0  0  0  0  0
  149.3554  134.1413  153.7021 H   0  0  0  0  0  0  0  0  0  0  0  0
  146.7728  134.6428  155.3449 H   0  0  0  0  0  0  0  0  0  0  0  0
  147.0152  135.6117  153.8973 H   0  0  0  0  0  0  0  0  0  0  0  0
  146.7083  136.3786  155.4596 H   0  0  0  0  0  0  0  0  0  0  0  0
  147.7650  138.0835  154.5493 H   0  0  0  0  0  0  0  0  0  0  0  0
  148.7401  138.1801  156.0051 H   0  0  0  0  0  0  0  0  0  0  0  0
  149.0379  140.1823  154.5579 H   0  0  0  0  0  0  0  0  0  0  0  0
  149.4948  139.1887  153.2078 H   0  0  0  0  0  0  0  0  0  0  0  0
  151.2847  144.6268  158.0765 H   0  0  0  0  0  0  0  0  0  0  0  0
  149.3203  136.6288  153.6043 H   0  0  0  0  0  0  0  0  0  0  0  0
  1  2  1  0  0  0  0
  1 21  1  0  0  0  0
  1 22  1  0  0  0  0
  1 23  1  0  0  0  0
  2 20  1  0  0  0  0
  2  3  2  0  0  0  0
  3  4  1  0  0  0  0
  4  5  1  0  0  0  0
  4 19  2  0  0  0  0
  5  6  1  0  0  0  0
  5 24  1  0  0  0  0
  5 25  1  0  0  0  0
  6  7  1  0  0  0  0
  6 26  1  0  0  0  0
  6 27  1  0  0  0  0
  7  8  1  0  0  0  0
  7 28  1  0  0  0  0
  8  9  2  0  0  0  0
  8 10  1  0  0  0  0
 10 18  1  0  0  0  0
 10 11  1  0  0  0  0
 11 12  1  0  0  0  0
 11 29  1  0  0  0  0
 11 30  1  0  0  0  0
 12 13  1  0  0  0  0
 12 31  1  0  0  0  0
 12 32  1  0  0  0  0
 13 14  1  0  0  0  0
 13 17  1  0  0  0  0
 13 45  1  0  0  0  0
 14 15  1  0  0  0  0
 14 16  1  0  0  0  0
 14 33  1  0  0  0  0
 15 34  1  0  0  0  0
 15 35  1  0  0  0  0
 15 36  1  0  0  0  0
 16 37  1  0  0  0  0
 16 38  1  0  0  0  0
 16 39  1  0  0  0  0
 17 18  1  0  0  0  0
 17 40  1  0  0  0  0
 17 41  1  0  0  0  0
 18 42  1  0  0  0  0
 18 43  1  0  0  0  0
 19 20  1  0  0  0  0
 19 44  1  0  0  0  0
M  CHG  1  13   1
M  END
> <s_m_source_file>
AV-unprocessed.smi

> <i_m_source_file_index>
3006

> <i_lp_mmshare_version>
43012

> <i_f3d_flags>
0

> <s_epik_input>
W0NIM11jMW5jKFtjSF1zMSlbQ0gyXVtDSDJdW05IXUMoPU8pTjJbQ0gyXVtDSDJdTihbQ0hdKFtDSDNdKVtDSDNdKVtDSDJdW0NIMl0y

> <s_epik_cmdline>
J2VwaWtfcHl0aG9uJywgJy1waCcsICc3LjAnLCAnLXRuJywgJzgnLCAnLW1hJywgJzIwMCcsICctbWV0YWxfYmluZGluZycsICctaW1hZScsICc8aW5maWxlLm1hZT4nLCAnLW9tYWUnLCAnPG91dGZpbGUubWFlPic=

> <r_epik_Ionization_Penalty>
0.155723

> <r_epik_Ionization_Penalty_Charging>
0.153999

> <r_epik_Ionization_Penalty_Neutral>
0.00172372

> <r_epik_State_Penalty>
0.139716

> <r_epik_Charging_Adjusted_Penalty>
0.293715

> <i_epik_Tot_Q>
1

> <i_epik_Tot_abs_Q>
1

> <r_epik_Metal_State_Penalty>
0.138566

> <b_epik_Metal_Only>
0

> <s_lp_Force_Field>
OPLS_2005

> <r_lp_Energy>
45.5874

> <b_lp_Chiralities_Consistent>
1

> <s_lp_Variant>
AV-unprocessed.smi:3006-1

> <Gold.Version>
5.8.1

> <Gold.Id.Protein>
6NUR|6NUR_protein|mol2

> <Gold.PLP.Fitness>
51.9226

> <Gold.PLP.PLP>
-43.9635

> <Gold.PLP.part.hbond>
-2.1528

> <Gold.PLP.part.metal>
0.0000

> <Gold.PLP.part.buried>
-3.6158

> <Gold.PLP.part.nonpolar>
-36.9691

> <Gold.PLP.part.repulsive>
0.1801

> <Gold.PLP.ligand.clash>
0.7315

> <Gold.PLP.ligand.torsion>
0.2050

> <Gold.PLP.Chemscore.Hbond>
3.0000

> <Gold.PLP.Chemscore.CHOScore>
0.0000

> <Gold.PLP.Chemscore.Metal>
0.0000

> <Gold.Chemscore.Hbonds>
donor molecule, donor type, donor heavy atom, donor atom, acceptor molecule, acceptor atom, score
      L1  H    13    45       P1  7948  2.00
      P1  H  7997  8008       L1     9  1.00

> <Gold.PLP.Chemscore.Internal.Correction>
0.1006

> <Gold.Rescore>
     Score         DG    S(hbond)    S(metal)    S(lipo)     H(rot)  DE(clash)    DE(int)     intcor
     19.24     -20.99       1.98        0.00     107.31       1.42       0.39       1.36       ----

> <Gold.Chemscore.Fitness>
19.2438

> <Gold.Chemscore.DG>
-20.9924

> <Gold.Chemscore.ZeroCoef>
-5.4800

> <Gold.Chemscore.Hbond>
1.9762

> <Gold.Chemscore.Metal>
0.0000

> <Gold.Chemscore.Lipo>
107.3063

> <Gold.Chemscore.Internal_Hbond>
0.0000

> <Gold.Chemscore.DEClash>
0.3897

> <Gold.Chemscore.DEInternal>
1.3589

> <Gold.Chemscore.Rot>
1.4230

> <Gold.Chemscore.Internal.Correction>
   9.000000E+99

> <Gold.Chemscore.Hbonds>
donor molecule, donor type, donor heavy atom, donor atom, acceptor molecule, acceptor atom, score
      L1  H    13    45       P1  7948  0.93
      P1  H  7997  8008       L1     9  0.97

> <Gold.Chemscore.Hbond.Weighted>
-6.6005

> <Gold.Chemscore.Metal.Weighted>
-0.0000

> <Gold.Chemscore.Lipo.Weighted>
-12.5548

> <Gold.Chemscore.Internal_Hbond.Weighted>
0.0000

> <Gold.Chemscore.DEClash.Weighted>
0.3897

> <Gold.Chemscore.DEInternal.Weighted>
1.3589

> <Gold.Chemscore.Rot.Weighted>
3.6430

> <Gold.Chemscore.Internal.Correction.Weighted>
   9.000000E+99

> <Gold.Protein.RotatedTorsions>
[ 6907 6896 6895 6894 ] final  -33.40 input  -60.11 | X-H torsion
[ 7974 7965 7964 7962 ] final -101.41 input  175.53 | X-H torsion
[ 8008 7997 7996 7995 ] final  -30.38 input   59.86 | X-H torsion
[ 10167 10162 10161 10158 ] final   33.55 input  -65.29 | X-H torsion
[ 10718 10713 10712 10709 ] final   71.97 input   66.30 | X-H torsion
[ 10763 10752 10751 10750 ] final  -40.66 input  -60.55 | X-H torsion
[ 11005 11000 10999 10996 ] final   22.76 input  -57.11 | X-H torsion

> <Gold.Protein.ActiveResidues>
 VAL166  LYS551  ARG553  GLY616  TRP617  ASP618  TYR619  PRO620  LYS621  CYS622 
 ASP623  PHE694  ASN695  SER759  ASP760  ASP761  ALA762  ILE779  LEU786  VAL792 
 PHE793  MET794  SER795  GLU796  ALA797  LYS798  CYS799  TRP800  GLU811  SER814 

> <Gold.Protein.RotatedAtoms>
  151.0662  134.9769  159.8285 H   0  0  0  0  0  0  0  0  0  0  0  0  # atno 6907 bound_to 6896
  152.5402  134.2356  159.8852 H   0  0  0  0  0  0  0  0  0  0  0  0  # atno 6908 bound_to 6896
  151.2379  133.4372  159.2640 H   0  0  0  0  0  0  0  0  0  0  0  0  # atno 6909 bound_to 6896
  145.2820  140.9329  143.2926 H   0  0  0  0  0  0  0  0  0  0  0  0  # atno 7974 bound_to 7965
  154.4253  140.1793  156.1398 H   0  0  0  0  0  0  0  0  0  0  0  0  # atno 8008 bound_to 7997
  156.0001  140.3361  155.6812 H   0  0  0  0  0  0  0  0  0  0  0  0  # atno 8009 bound_to 7997
  155.6254  140.0664  157.2656 H   0  0  0  0  0  0  0  0  0  0  0  0  # atno 8010 bound_to 7997
  140.4397  144.1206  150.6172 H   0  0  0  0  0  0  0  0  0  0  0  0  # atno 10167 bound_to 10162
  157.6478  130.9555  150.0863 H   0  0  0  0  0  0  0  0  0  0  0  0  # atno 10718 bound_to 10713
  153.9496  135.6752  153.4744 H   0  0  0  0  0  0  0  0  0  0  0  0  # atno 10763 bound_to 10752
  153.0891  135.4884  154.8651 H   0  0  0  0  0  0  0  0  0  0  0  0  # atno 10764 bound_to 10752
  154.7333  135.3143  154.8814 H   0  0  0  0  0  0  0  0  0  0  0  0  # atno 10765 bound_to 10752
  140.3771  134.1960  155.7664 H   0  0  0  0  0  0  0  0  0  0  0  0  # atno 11005 bound_to 11000
  144.9245  139.4372  143.6525 LP  0  0  0  0  0  0  0  0  0  0  0  0  # atno 17320 bound_to 7965
  146.3213  139.8123  142.8943 LP  0  0  0  0  0  0  0  0  0  0  0  0  # atno 17321 bound_to 7965
  140.4333  143.2558  151.9568 LP  0  0  0  0  0  0  0  0  0  0  0  0  # atno 17342 bound_to 10162
  139.4789  144.5724  151.8067 LP  0  0  0  0  0  0  0  0  0  0  0  0  # atno 17343 bound_to 10162
  156.1825  130.3650  149.9017 LP  0  0  0  0  0  0  0  0  0  0  0  0  # atno 17370 bound_to 10713
  156.6965  130.8916  151.3594 LP  0  0  0  0  0  0  0  0  0  0  0  0  # atno 17371 bound_to 10713
  141.1936  133.8148  157.0793 LP  0  0  0  0  0  0  0  0  0  0  0  0  # atno 17394 bound_to 11000
  140.0507  134.9807  157.1131 LP  0  0  0  0  0  0  0  0  0  0  0  0  # atno 17395 bound_to 11000

$$$$
