AV-unprocessed.smi:149|AV-procd|sdf|1234|dock4
  -GOLD-   2262018443D 1   1.00000     0.00000
 Structure written by MMmdl.
 60 64  0  0  0  0  0  0  0  0  2 V2000
  150.1746  132.0895  154.7613 C   0  0  0  0  0  0  0  0  0  0  0  0
  150.1053  133.5858  154.3984 C   0  0  2  0  0  0  0  0  0  0  0  0
  151.1179  134.3801  155.2453 C   0  0  0  0  0  0  0  0  0  0  0  0
  150.4297  135.5648  155.7276 N   0  0  0  0  0  0  0  0  0  0  0  0
  151.1240  136.6642  156.1253 C   0  0  0  0  0  0  0  0  0  0  0  0
  152.4499  136.5317  156.3958 N   0  0  0  0  0  0  0  0  0  0  0  0
  153.1726  137.5840  156.7878 C   0  0  0  0  0  0  0  0  0  0  0  0
  152.7772  138.8437  156.9680 N   0  0  0  0  0  0  0  0  0  0  0  0
  151.4511  138.9948  156.6889 C   0  0  0  0  0  0  0  0  0  0  0  0
  150.5587  137.9676  156.2633 C   0  0  0  0  0  0  0  0  0  0  0  0
  149.2914  138.5053  156.0668 N   0  0  0  0  0  0  0  0  0  0  0  0
  149.4244  139.7679  156.3656 C   0  0  0  0  0  0  0  0  0  0  0  0
  150.6886  140.1508  156.7516 N   0  0  0  0  0  0  0  0  0  0  0  0
  151.0996  141.4745  157.1304 C   0  0  0  0  0  0  0  0  0  0  0  0
  152.4506  141.7288  157.8044 C   0  0  0  0  0  0  0  0  0  0  0  0
  151.8163  142.8849  158.6141 C   0  0  0  0  0  0  0  0  0  0  0  0
  152.2159  143.0083  160.0981 C   0  0  0  0  0  0  0  0  0  0  0  0
  151.3431  143.8485  160.8272 O   0  0  0  0  0  0  0  0  0  0  0  0
  151.9563  144.2843  157.9862 C   0  0  0  0  0  0  0  0  0  0  0  0
  150.8083  145.0768  158.2143 O   0  0  0  0  0  0  0  0  0  0  0  0
  150.4618  142.1979  158.3200 C   0  0  0  0  0  0  0  0  0  0  0  0
  149.1539  135.6931  155.0503 C   0  0  0  0  0  0  0  0  0  0  0  0
  148.7402  134.2654  154.6704 C   0  0  1  0  0  0  0  0  0  0  0  0
  147.7763  134.2843  153.5246 N   0  3  0  0  0  0  0  0  0  0  0  0
  147.7033  133.0513  152.7007 C   0  0  0  0  0  0  0  0  0  0  0  0
  146.9346  131.9384  153.4370 C   0  0  0  0  0  0  0  0  0  0  0  0
  145.6240  132.4002  153.7422 O   0  0  0  0  0  0  0  0  0  0  0  0
  145.6361  133.5432  154.5898 C   0  0  0  0  0  0  0  0  0  0  0  0
  146.3984  134.6958  153.9048 C   0  0  0  0  0  0  0  0  0  0  0  0
  149.9143  131.9268  155.8078 H   0  0  0  0  0  0  0  0  0  0  0  0
  151.1838  131.7048  154.6121 H   0  0  0  0  0  0  0  0  0  0  0  0
  149.5088  131.4725  154.1629 H   0  0  0  0  0  0  0  0  0  0  0  0
  150.3714  133.7232  153.3493 H   0  0  0  0  0  0  0  0  0  0  0  0
  151.4545  133.8008  156.1060 H   0  0  0  0  0  0  0  0  0  0  0  0
  151.9955  134.6423  154.6527 H   0  0  0  0  0  0  0  0  0  0  0  0
  154.2168  137.3899  156.9843 H   0  0  0  0  0  0  0  0  0  0  0  0
  148.5951  140.4585  156.3104 H   0  0  0  0  0  0  0  0  0  0  0  0
  151.0147  142.0922  156.2345 H   0  0  0  0  0  0  0  0  0  0  0  0
  152.7795  140.8934  158.4233 H   0  0  0  0  0  0  0  0  0  0  0  0
  153.2416  142.0283  157.1161 H   0  0  0  0  0  0  0  0  0  0  0  0
  152.2155  142.0341  160.5876 H   0  0  0  0  0  0  0  0  0  0  0  0
  153.2254  143.4089  160.1960 H   0  0  0  0  0  0  0  0  0  0  0  0
  151.2484  144.6635  160.3588 H   0  0  0  0  0  0  0  0  0  0  0  0
  152.8142  144.8174  158.3967 H   0  0  0  0  0  0  0  0  0  0  0  0
  152.1266  144.2161  156.9113 H   0  0  0  0  0  0  0  0  0  0  0  0
  150.1888  144.9160  157.5188 H   0  0  0  0  0  0  0  0  0  0  0  0
  149.6552  142.8791  158.0471 H   0  0  0  0  0  0  0  0  0  0  0  0
  150.1346  141.5143  159.1037 H   0  0  0  0  0  0  0  0  0  0  0  0
  148.4161  136.1665  155.6992 H   0  0  0  0  0  0  0  0  0  0  0  0
  149.2818  136.3129  154.1612 H   0  0  0  0  0  0  0  0  0  0  0  0
  148.2856  133.7908  155.5406 H   0  0  0  0  0  0  0  0  0  0  0  0
  147.1689  133.2928  151.7809 H   0  0  0  0  0  0  0  0  0  0  0  0
  148.6868  132.7228  152.3731 H   0  0  0  0  0  0  0  0  0  0  0  0
  146.8562  131.0551  152.8032 H   0  0  0  0  0  0  0  0  0  0  0  0
  147.4480  131.6304  154.3486 H   0  0  0  0  0  0  0  0  0  0  0  0
  144.6064  133.8429  154.7858 H   0  0  0  0  0  0  0  0  0  0  0  0
  146.0765  133.2900  155.5548 H   0  0  0  0  0  0  0  0  0  0  0  0
  146.4028  135.5823  154.5376 H   0  0  0  0  0  0  0  0  0  0  0  0
  145.8663  134.9837  152.9970 H   0  0  0  0  0  0  0  0  0  0  0  0
  148.1257  135.0033  152.9070 H   0  0  0  0  0  0  0  0  0  0  0  0
  1  2  1  0  0  0  0
  1 30  1  0  0  0  0
  1 31  1  0  0  0  0
  1 32  1  0  0  0  0
  2 23  1  0  0  0  0
  2  3  1  0  0  0  0
  2 33  1  0  0  0  0
  3  4  1  0  0  0  0
  3 34  1  0  0  0  0
  3 35  1  0  0  0  0
  4  5  1  0  0  0  0
  4 22  1  0  0  0  0
  5 10  1  0  0  0  0
  5  6  2  0  0  0  0
  6  7  1  0  0  0  0
  7  8  2  0  0  0  0
  7 36  1  0  0  0  0
  8  9  1  0  0  0  0
  9 13  1  0  0  0  0
  9 10  2  0  0  0  0
 10 11  1  0  0  0  0
 11 12  2  0  0  0  0
 12 13  1  0  0  0  0
 12 37  1  0  0  0  0
 13 14  1  0  0  0  0
 14 21  1  0  0  0  0
 14 15  1  0  0  0  0
 14 38  1  0  0  0  0
 15 16  1  0  0  0  0
 15 39  1  0  0  0  0
 15 40  1  0  0  0  0
 16 17  1  0  0  0  0
 16 19  1  0  0  0  0
 16 21  1  0  0  0  0
 17 18  1  0  0  0  0
 17 41  1  0  0  0  0
 17 42  1  0  0  0  0
 18 43  1  0  0  0  0
 19 20  1  0  0  0  0
 19 44  1  0  0  0  0
 19 45  1  0  0  0  0
 20 46  1  0  0  0  0
 21 47  1  0  0  0  0
 21 48  1  0  0  0  0
 22 23  1  0  0  0  0
 22 49  1  0  0  0  0
 22 50  1  0  0  0  0
 23 24  1  0  0  0  0
 23 51  1  0  0  0  0
 24 29  1  0  0  0  0
 24 25  1  0  0  0  0
 24 60  1  0  0  0  0
 25 26  1  0  0  0  0
 25 52  1  0  0  0  0
 25 53  1  0  0  0  0
 26 27  1  0  0  0  0
 26 54  1  0  0  0  0
 26 55  1  0  0  0  0
 27 28  1  0  0  0  0
 28 29  1  0  0  0  0
 28 56  1  0  0  0  0
 28 57  1  0  0  0  0
 29 58  1  0  0  0  0
 29 59  1  0  0  0  0
M  CHG  1  24   1
M  END
> <s_m_source_file>
AV-unprocessed.smi

> <i_m_source_file_index>
149

> <i_lp_mmshare_version>
43012

> <i_f3d_flags>
0

> <s_epik_input>
W0NIMl0xW0NIMl1PW0NIMl1bQ0gyXU4xW0NAQEhdMltDSDJdTihbQ0gyXVtDQEhdMltDSDNdKWMobltjSF1uMyljKGMzNCluW2NIXW40W0NIXShbQ0gyXTUpW0NIMl1DNShbQ0gyXVtPSF0pW0NIMl1bT0hd

> <s_epik_cmdline>
J2VwaWtfcHl0aG9uJywgJy1waCcsICc3LjAnLCAnLXRuJywgJzgnLCAnLW1hJywgJzIwMCcsICctbWV0YWxfYmluZGluZycsICctaW1hZScsICc8aW5maWxlLm1hZT4nLCAnLW9tYWUnLCAnPG91dGZpbGUubWFlPic=

> <r_lp_tautomer_probability>
1

> <r_epik_Ionization_Penalty>
0.404847

> <r_epik_Ionization_Penalty_Charging>
0.404623

> <r_epik_Ionization_Penalty_Neutral>
0.000224096

> <r_epik_State_Penalty>
0.238803

> <r_epik_Charging_Adjusted_Penalty>
0.643425

> <i_epik_Tot_Q>
1

> <i_epik_Tot_abs_Q>
1

> <r_epik_Metal_State_Penalty>
0.239083

> <b_epik_Metal_Only>
0

> <s_lp_Force_Field>
OPLS_2005

> <r_lp_Energy>
72.409

> <b_lp_Chiralities_Consistent>
1

> <s_lp_Variant>
AV-unprocessed.smi:149-1

> <Gold.Version>
5.8.1

> <Gold.Id.Protein>
6NUR|6NUR_protein|mol2

> <Gold.PLP.Fitness>
46.2137

> <Gold.PLP.PLP>
-34.8155

> <Gold.PLP.part.hbond>
-4.6019

> <Gold.PLP.part.metal>
0.0000

> <Gold.PLP.part.buried>
-4.1343

> <Gold.PLP.part.nonpolar>
-23.6367

> <Gold.PLP.part.repulsive>
0.1683

> <Gold.PLP.ligand.clash>
0.0000

> <Gold.PLP.ligand.torsion>
1.0763

> <Gold.PLP.Chemscore.Hbond>
4.2742

> <Gold.PLP.Chemscore.CHOScore>
0.0000

> <Gold.PLP.Chemscore.Metal>
0.0000

> <Gold.Chemscore.Hbonds>
donor molecule, donor type, donor heavy atom, donor atom, acceptor molecule, acceptor atom, score
      L1  H    20    46       P1  8028  0.35
      L1  H    24    60       P1  7948  2.00
      P1  H  7997  8010       L1     8  0.89
      P1  H 10752 10765       L1     6  1.00

> <Gold.PLP.Chemscore.Internal.Correction>
0.7281

> <Gold.Rescore>
     Score         DG    S(hbond)    S(metal)    S(lipo)     H(rot)  DE(clash)    DE(int)     intcor
      9.21     -12.76       1.18        0.00      96.20       3.09       0.01       3.54       ----

> <Gold.Chemscore.Fitness>
9.2112

> <Gold.Chemscore.DG>
-12.7638

> <Gold.Chemscore.ZeroCoef>
-5.4800

> <Gold.Chemscore.Hbond>
1.1803

> <Gold.Chemscore.Metal>
0.0000

> <Gold.Chemscore.Lipo>
96.1967

> <Gold.Chemscore.Internal_Hbond>
0.0000

> <Gold.Chemscore.DEClash>
0.0144

> <Gold.Chemscore.DEInternal>
3.5381

> <Gold.Chemscore.Rot>
3.0912

> <Gold.Chemscore.Internal.Correction>
   9.000000E+99

> <Gold.Chemscore.Hbonds>
donor molecule, donor type, donor heavy atom, donor atom, acceptor molecule, acceptor atom, score
      L1  H    20    46       P1  8028  0.04
      L1  H    24    60       P1  7948  0.93
      P1  H  7997  8010       L1     8  0.51
      P1  H 10752 10765       L1     6  0.72

> <Gold.Chemscore.Hbond.Weighted>
-3.9422

> <Gold.Chemscore.Metal.Weighted>
-0.0000

> <Gold.Chemscore.Lipo.Weighted>
-11.2550

> <Gold.Chemscore.Internal_Hbond.Weighted>
0.0000

> <Gold.Chemscore.DEClash.Weighted>
0.0144

> <Gold.Chemscore.DEInternal.Weighted>
3.5381

> <Gold.Chemscore.Rot.Weighted>
7.9135

> <Gold.Chemscore.Internal.Correction.Weighted>
   9.000000E+99

> <Gold.Protein.RotatedTorsions>
[ 6907 6896 6895 6894 ] final  -55.46 input  -60.11 | X-H torsion
[ 7974 7965 7964 7962 ] final  155.07 input  175.53 | X-H torsion
[ 8008 7997 7996 7995 ] final   46.40 input   59.86 | X-H torsion
[ 10167 10162 10161 10158 ] final  -81.05 input  -65.29 | X-H torsion
[ 10718 10713 10712 10709 ] final  162.81 input   66.30 | X-H torsion
[ 10763 10752 10751 10750 ] final -136.13 input  -60.55 | X-H torsion
[ 11005 11000 10999 10996 ] final  101.64 input  -57.11 | X-H torsion

> <Gold.Protein.ActiveResidues>
 VAL166  LYS551  ARG553  GLY616  TRP617  ASP618  TYR619  PRO620  LYS621  CYS622 
 ASP623  PHE694  ASN695  SER759  ASP760  ASP761  ALA762  ILE779  LEU786  VAL792 
 PHE793  MET794  SER795  GLU796  ALA797  LYS798  CYS799  TRP800  GLU811  SER814 

> <Gold.Protein.RotatedAtoms>
  150.8250  134.7476  159.6804 H   0  0  0  0  0  0  0  0  0  0  0  0  # atno 6907 bound_to 6896
  152.4362  134.5679  159.9922 H   0  0  0  0  0  0  0  0  0  0  0  0  # atno 6908 bound_to 6896
  151.5853  133.3335  159.3052 H   0  0  0  0  0  0  0  0  0  0  0  0  # atno 6909 bound_to 6896
  144.8048  139.7018  143.6166 H   0  0  0  0  0  0  0  0  0  0  0  0  # atno 7974 bound_to 7965
  155.3519  140.3414  155.4239 H   0  0  0  0  0  0  0  0  0  0  0  0  # atno 8008 bound_to 7997
  156.1759  140.1647  156.8398 H   0  0  0  0  0  0  0  0  0  0  0  0  # atno 8009 bound_to 7997
  154.5282  140.0751  156.8279 H   0  0  0  0  0  0  0  0  0  0  0  0  # atno 8010 bound_to 7997
  140.4447  143.2503  151.8575 H   0  0  0  0  0  0  0  0  0  0  0  0  # atno 10167 bound_to 10162
  157.1173  131.0483  151.2431 H   0  0  0  0  0  0  0  0  0  0  0  0  # atno 10718 bound_to 10713
  154.8690  135.3682  154.5011 H   0  0  0  0  0  0  0  0  0  0  0  0  # atno 10763 bound_to 10752
  153.5652  135.7022  153.5534 H   0  0  0  0  0  0  0  0  0  0  0  0  # atno 10764 bound_to 10752
  153.3592  135.4051  155.1668 H   0  0  0  0  0  0  0  0  0  0  0  0  # atno 10765 bound_to 10752
  139.8774  134.9191  156.4937 H   0  0  0  0  0  0  0  0  0  0  0  0  # atno 11005 bound_to 11000
  146.2337  139.5864  142.9538 LP  0  0  0  0  0  0  0  0  0  0  0  0  # atno 17320 bound_to 7965
  145.5464  141.0417  143.2302 LP  0  0  0  0  0  0  0  0  0  0  0  0  # atno 17321 bound_to 7965
  139.4792  144.5189  151.8829 LP  0  0  0  0  0  0  0  0  0  0  0  0  # atno 17342 bound_to 10162
  140.4277  144.2157  150.5887 LP  0  0  0  0  0  0  0  0  0  0  0  0  # atno 17343 bound_to 10162
  157.4507  130.7597  149.7149 LP  0  0  0  0  0  0  0  0  0  0  0  0  # atno 17370 bound_to 10713
  155.9836  130.3998  150.3353 LP  0  0  0  0  0  0  0  0  0  0  0  0  # atno 17371 bound_to 10713
  140.8640  133.8038  155.9294 LP  0  0  0  0  0  0  0  0  0  0  0  0  # atno 17394 bound_to 11000
  140.9021  134.2366  157.5036 LP  0  0  0  0  0  0  0  0  0  0  0  0  # atno 17395 bound_to 11000

$$$$
