AV-unprocessed.smi:3308|AV-procd|sdf|12708|dock3
  -GOLD-   2272019 43D 1   1.00000     0.00000
 Structure written by MMmdl.
 41 42  0  0  0  0  0  0  0  0  2 V2000
  153.8244  139.9476  159.7687 C   0  0  0  0  0  0  0  0  0  0  0  0
  152.6914  140.9837  159.6381 C   0  0  2  0  0  0  0  0  0  0  0  0
  152.2525  141.0795  158.2256 N   0  3  0  0  0  0  0  0  0  0  0  0
  152.3635  139.8334  157.4365 C   0  0  0  0  0  0  0  0  0  0  0  0
  151.8133  139.9994  156.0130 C   0  0  0  0  0  0  0  0  0  0  0  0
  152.5713  139.8816  155.0486 O   0  0  0  0  0  0  0  0  0  0  0  0
  150.5006  140.2722  155.8653 N   0  0  0  0  0  0  0  0  0  0  0  0
  149.5711  140.4021  156.9858 C   0  0  0  0  0  0  0  0  0  0  0  0
  148.1756  140.4353  156.3631 C   0  0  0  0  0  0  0  0  0  0  0  0
  148.4089  140.9695  154.9567 C   0  0  0  0  0  0  0  0  0  0  0  0
  149.8075  140.4698  154.5922 C   0  0  0  0  0  0  0  0  0  0  0  0
  153.1101  142.3874  160.1568 C   0  0  2  0  0  0  0  0  0  0  0  0
  153.3596  142.4244  161.6763 C   0  0  0  0  0  0  0  0  0  0  0  0
  152.1335  143.4124  159.8021 N   0  0  0  0  0  0  0  0  0  0  0  0
  151.5654  144.3670  160.6209 C   0  0  0  0  0  0  0  0  0  0  0  0
  150.6960  145.0942  159.8596 C   0  0  0  0  0  0  0  0  0  0  0  0
  150.7896  144.4949  158.5730 C   0  0  0  0  0  0  0  0  0  0  0  0
  151.6463  143.4871  158.5424 N   0  0  0  0  0  0  0  0  0  0  0  0
  154.1155  139.7978  160.8077 H   0  0  0  0  0  0  0  0  0  0  0  0
  154.7113  140.2579  159.2157 H   0  0  0  0  0  0  0  0  0  0  0  0
  153.5238  138.9710  159.3902 H   0  0  0  0  0  0  0  0  0  0  0  0
  151.8433  140.6412  160.2331 H   0  0  0  0  0  0  0  0  0  0  0  0
  151.2734  141.3293  158.2328 H   0  0  0  0  0  0  0  0  0  0  0  0
  153.4072  139.5251  157.3793 H   0  0  0  0  0  0  0  0  0  0  0  0
  151.8082  139.0427  157.9426 H   0  0  0  0  0  0  0  0  0  0  0  0
  149.6670  139.5818  157.6989 H   0  0  0  0  0  0  0  0  0  0  0  0
  149.7783  141.3350  157.5122 H   0  0  0  0  0  0  0  0  0  0  0  0
  147.7762  139.4216  156.3066 H   0  0  0  0  0  0  0  0  0  0  0  0
  147.4716  141.0403  156.9353 H   0  0  0  0  0  0  0  0  0  0  0  0
  147.6458  140.6456  154.2484 H   0  0  0  0  0  0  0  0  0  0  0  0
  148.4041  142.0600  154.9769 H   0  0  0  0  0  0  0  0  0  0  0  0
  150.3196  141.1839  153.9456 H   0  0  0  0  0  0  0  0  0  0  0  0
  149.7447  139.5159  154.0665 H   0  0  0  0  0  0  0  0  0  0  0  0
  154.0443  142.6627  159.6646 H   0  0  0  0  0  0  0  0  0  0  0  0
  154.2032  141.7983  161.9646 H   0  0  0  0  0  0  0  0  0  0  0  0
  152.4852  142.0855  162.2328 H   0  0  0  0  0  0  0  0  0  0  0  0
  153.5900  143.4373  162.0086 H   0  0  0  0  0  0  0  0  0  0  0  0
  151.8247  144.4506  161.6662 H   0  0  0  0  0  0  0  0  0  0  0  0
  150.0811  145.9241  160.1754 H   0  0  0  0  0  0  0  0  0  0  0  0
  150.2629  144.7587  157.6677 H   0  0  0  0  0  0  0  0  0  0  0  0
  152.7640  141.8176  157.7633 H   0  0  0  0  0  0  0  0  0  0  0  0
  1  2  1  0  0  0  0
  1 19  1  0  0  0  0
  1 20  1  0  0  0  0
  1 21  1  0  0  0  0
  2  3  1  0  0  0  0
  2 12  1  0  0  0  0
  2 22  1  0  0  0  0
  3  4  1  0  0  0  0
  3 23  1  0  0  0  0
  3 41  1  0  0  0  0
  4  5  1  0  0  0  0
  4 24  1  0  0  0  0
  4 25  1  0  0  0  0
  5  6  2  0  0  0  0
  5  7  1  0  0  0  0
  7 11  1  0  0  0  0
  7  8  1  0  0  0  0
  8  9  1  0  0  0  0
  8 26  1  0  0  0  0
  8 27  1  0  0  0  0
  9 10  1  0  0  0  0
  9 28  1  0  0  0  0
  9 29  1  0  0  0  0
 10 11  1  0  0  0  0
 10 30  1  0  0  0  0
 10 31  1  0  0  0  0
 11 32  1  0  0  0  0
 11 33  1  0  0  0  0
 12 13  1  0  0  0  0
 12 14  1  0  0  0  0
 12 34  1  0  0  0  0
 13 35  1  0  0  0  0
 13 36  1  0  0  0  0
 13 37  1  0  0  0  0
 14 18  1  0  0  0  0
 14 15  1  0  0  0  0
 15 16  2  0  0  0  0
 15 38  1  0  0  0  0
 16 17  1  0  0  0  0
 16 39  1  0  0  0  0
 17 18  2  0  0  0  0
 17 40  1  0  0  0  0
M  CHG  1   3   1
M  END
> <s_m_source_file>
AV-unprocessed.smi

> <i_m_source_file_index>
3308

> <i_lp_mmshare_version>
43012

> <i_f3d_flags>
0

> <s_epik_input>
bjFbY0hdW2NIXVtjSF1uMVtDQEBIXShbQ0gzXSlbQ0BIXShbQ0gzXSlbTkhdW0NIMl1DKD1PKU4yW0NIMl1bQ0gyXVtDSDJdW0NIMl0y

> <s_epik_cmdline>
J2VwaWtfcHl0aG9uJywgJy1waCcsICc3LjAnLCAnLXRuJywgJzgnLCAnLW1hJywgJzIwMCcsICctbWV0YWxfYmluZGluZycsICctaW1hZScsICc8aW5maWxlLm1hZT4nLCAnLW9tYWUnLCAnPG91dGZpbGUubWFlPic=

> <r_lp_tautomer_probability>
1

> <r_epik_Ionization_Penalty>
0.141739

> <r_epik_Ionization_Penalty_Charging>
0.141731

> <r_epik_Ionization_Penalty_Neutral>
8.82171e-06

> <r_epik_State_Penalty>
0.131043

> <r_epik_Charging_Adjusted_Penalty>
0.272773

> <i_epik_Tot_Q>
1

> <i_epik_Tot_abs_Q>
1

> <r_epik_Metal_State_Penalty>
0.131385

> <b_epik_Metal_Only>
0

> <s_lp_Force_Field>
OPLS_2005

> <r_lp_Energy>
31.7083

> <b_lp_Chiralities_Consistent>
1

> <s_lp_Variant>
AV-unprocessed.smi:3308-1

> <Gold.Version>
5.8.1

> <Gold.Id.Protein>
6NUR|6NUR_protein|mol2

> <Gold.PLP.Fitness>
48.5108

> <Gold.PLP.PLP>
-42.5283

> <Gold.PLP.part.hbond>
-1.7204

> <Gold.PLP.part.metal>
0.0000

> <Gold.PLP.part.buried>
-3.2608

> <Gold.PLP.part.nonpolar>
-38.0453

> <Gold.PLP.part.repulsive>
0.1563

> <Gold.PLP.ligand.clash>
0.0000

> <Gold.PLP.ligand.torsion>
0.5989

> <Gold.PLP.Chemscore.Hbond>
1.3594

> <Gold.PLP.Chemscore.CHOScore>
1.0000

> <Gold.PLP.Chemscore.Metal>
0.0000

> <Gold.Chemscore.Hbonds>
donor molecule, donor type, donor heavy atom, donor atom, acceptor molecule, acceptor atom, score
      P1  H  7989  7998       L1     6  0.57
      P1  H  7997  8010       L1     6  0.88
      L1  C    17    40       P1  8028  0.84
      L1  C    17    40       P1  8029  0.16

> <Gold.PLP.Chemscore.Internal.Correction>
0.1021

> <Gold.Rescore>
     Score         DG    S(hbond)    S(metal)    S(lipo)     H(rot)  DE(clash)    DE(int)     intcor
     12.02     -15.36       0.88        0.00      98.38       1.78       0.05       3.29       ----

> <Gold.Chemscore.Fitness>
12.0229

> <Gold.Chemscore.DG>
-15.3599

> <Gold.Chemscore.ZeroCoef>
-5.4800

> <Gold.Chemscore.Hbond>
0.8789

> <Gold.Chemscore.Metal>
0.0000

> <Gold.Chemscore.Lipo>
98.3804

> <Gold.Chemscore.Internal_Hbond>
0.0000

> <Gold.Chemscore.DEClash>
0.0500

> <Gold.Chemscore.DEInternal>
3.2870

> <Gold.Chemscore.Rot>
1.7836

> <Gold.Chemscore.Internal.Correction>
   9.000000E+99

> <Gold.Chemscore.Hbonds>
donor molecule, donor type, donor heavy atom, donor atom, acceptor molecule, acceptor atom, score
      P1  H  7989  7998       L1     6  0.30
      P1  H  7997  8010       L1     6  0.22

> <Gold.Chemscore.Hbond.Weighted>
-2.9354

> <Gold.Chemscore.Metal.Weighted>
-0.0000

> <Gold.Chemscore.Lipo.Weighted>
-11.5105

> <Gold.Chemscore.Internal_Hbond.Weighted>
0.0000

> <Gold.Chemscore.DEClash.Weighted>
0.0500

> <Gold.Chemscore.DEInternal.Weighted>
3.2870

> <Gold.Chemscore.Rot.Weighted>
4.5660

> <Gold.Chemscore.Internal.Correction.Weighted>
   9.000000E+99

> <Gold.Protein.RotatedTorsions>
[ 6907 6896 6895 6894 ] final -119.08 input  -60.11 | X-H torsion
[ 7974 7965 7964 7962 ] final  -61.37 input  175.53 | X-H torsion
[ 8008 7997 7996 7995 ] final   96.90 input   59.86 | X-H torsion
[ 10167 10162 10161 10158 ] final -162.69 input  -65.29 | X-H torsion
[ 10718 10713 10712 10709 ] final  140.04 input   66.30 | X-H torsion
[ 10763 10752 10751 10750 ] final  100.98 input  -60.55 | X-H torsion
[ 11005 11000 10999 10996 ] final  137.48 input  -57.11 | X-H torsion

> <Gold.Protein.ActiveResidues>
 VAL166  LYS551  ARG553  GLY616  TRP617  ASP618  TYR619  PRO620  LYS621  CYS622 
 ASP623  PHE694  ASN695  SER759  ASP760  ASP761  ALA762  ILE779  LEU786  VAL792 
 PHE793  MET794  SER795  GLU796  ALA797  LYS798  CYS799  TRP800  GLU811  SER814 

> <Gold.Protein.RotatedAtoms>
  150.8274  133.8149  159.3112 H   0  0  0  0  0  0  0  0  0  0  0  0  # atno 6907 bound_to 6896
  151.5889  135.1053  160.0044 H   0  0  0  0  0  0  0  0  0  0  0  0  # atno 6908 bound_to 6896
  152.4357  133.7316  159.6647 H   0  0  0  0  0  0  0  0  0  0  0  0  # atno 6909 bound_to 6896
  145.8043  140.8637  143.0215 H   0  0  0  0  0  0  0  0  0  0  0  0  # atno 7974 bound_to 7965
  156.0845  140.3266  155.7736 H   0  0  0  0  0  0  0  0  0  0  0  0  # atno 8008 bound_to 7997
  155.5098  140.0576  157.2942 H   0  0  0  0  0  0  0  0  0  0  0  0  # atno 8009 bound_to 7997
  154.4601  140.1962  156.0284 H   0  0  0  0  0  0  0  0  0  0  0  0  # atno 8010 bound_to 7997
  139.6374  144.0323  152.2065 H   0  0  0  0  0  0  0  0  0  0  0  0  # atno 10167 bound_to 10162
  157.4077  131.1024  151.0487 H   0  0  0  0  0  0  0  0  0  0  0  0  # atno 10718 bound_to 10713
  153.3209  135.4060  155.1415 H   0  0  0  0  0  0  0  0  0  0  0  0  # atno 10763 bound_to 10752
  154.8600  135.3587  154.5598 H   0  0  0  0  0  0  0  0  0  0  0  0  # atno 10764 bound_to 10752
  153.6032  135.7070  153.5435 H   0  0  0  0  0  0  0  0  0  0  0  0  # atno 10765 bound_to 10752
  140.0117  134.9436  157.0291 H   0  0  0  0  0  0  0  0  0  0  0  0  # atno 11005 bound_to 11000
  144.6765  140.0303  143.7482 LP  0  0  0  0  0  0  0  0  0  0  0  0  # atno 17320 bound_to 7965
  145.9845  139.2967  143.1022 LP  0  0  0  0  0  0  0  0  0  0  0  0  # atno 17321 bound_to 7965
  140.0004  144.6297  150.7735 LP  0  0  0  0  0  0  0  0  0  0  0  0  # atno 17342 bound_to 10162
  140.7473  143.2904  151.3347 LP  0  0  0  0  0  0  0  0  0  0  0  0  # atno 17343 bound_to 10162
  157.1463  130.6165  149.5569 LP  0  0  0  0  0  0  0  0  0  0  0  0  # atno 17370 bound_to 10713
  155.9841  130.4864  150.6967 LP  0  0  0  0  0  0  0  0  0  0  0  0  # atno 17371 bound_to 10713
  140.4543  134.1550  155.7184 LP  0  0  0  0  0  0  0  0  0  0  0  0  # atno 17394 bound_to 11000
  141.1715  133.8598  157.1554 LP  0  0  0  0  0  0  0  0  0  0  0  0  # atno 17395 bound_to 11000

$$$$
