AV-unprocessed.smi:1492|AV-procd|sdf|6039|dock8
  -GOLD-   22720 6143D 1   1.00000     0.00000
 Structure written by MMmdl.
 53 54  0  0  0  0  0  0  0  0  2 V2000
  147.6509  132.2788  156.0992 C   0  0  0  0  0  0  0  0  0  0  0  0
  147.0457  132.7361  154.7596 C   0  0  0  0  0  0  0  0  0  0  0  0
  147.7991  133.8981  154.0413 C   0  0  2  0  0  0  0  0  0  0  0  0
  149.2446  133.4081  153.7632 C   0  0  0  0  0  0  0  0  0  0  0  0
  147.8447  135.1403  154.9848 C   0  0  0  0  0  0  0  0  0  0  0  0
  148.6154  136.2567  154.4407 N   0  0  0  0  0  0  0  0  0  0  0  0
  148.7972  137.4500  155.0270 C   0  0  0  0  0  0  0  0  0  0  0  0
  148.3152  137.7525  156.1179 O   0  0  0  0  0  0  0  0  0  0  0  0
  149.6410  138.4621  154.2514 C   0  0  0  0  0  0  0  0  0  0  0  0
  150.0801  139.6928  155.0427 C   0  0  0  0  0  0  0  0  0  0  0  0
  151.1649  139.6950  155.8714 C   0  0  0  0  0  0  0  0  0  0  0  0
  152.0378  138.4712  156.0878 C   0  0  0  0  0  0  0  0  0  0  0  0
  151.5428  140.8415  156.5841 N   0  0  0  0  0  0  0  0  0  0  0  0
  150.8402  141.9176  156.4484 C   0  0  0  0  0  0  0  0  0  0  0  0
  151.1440  143.2198  157.1590 C   0  0  0  0  0  0  0  0  0  0  0  0
  149.7218  141.9823  155.6189 N   0  0  0  0  0  0  0  0  0  0  0  0
  149.2901  140.9300  154.8888 C   0  0  0  0  0  0  0  0  0  0  0  0
  148.3114  141.0432  154.1519 O   0  0  0  0  0  0  0  0  0  0  0  0
  147.1126  134.2406  152.7423 N   0  3  0  0  0  0  0  0  0  0  0  0
  146.7852  133.0886  151.8547 C   0  0  0  0  0  0  0  0  0  0  0  0
  146.2950  133.5872  150.4862 C   0  0  0  0  0  0  0  0  0  0  0  0
  145.1533  134.4134  150.6644 O   0  0  0  0  0  0  0  0  0  0  0  0
  145.4541  135.5644  151.4409 C   0  0  0  0  0  0  0  0  0  0  0  0
  145.9292  135.1417  152.8419 C   0  0  0  0  0  0  0  0  0  0  0  0
  149.2136  142.8520  155.5497 H   0  0  0  0  0  0  0  0  0  0  0  0
  147.0598  131.4679  156.5251 H   0  0  0  0  0  0  0  0  0  0  0  0
  147.6676  133.0843  156.8327 H   0  0  0  0  0  0  0  0  0  0  0  0
  148.6693  131.9087  155.9817 H   0  0  0  0  0  0  0  0  0  0  0  0
  146.9559  131.8737  154.0996 H   0  0  0  0  0  0  0  0  0  0  0  0
  146.0144  133.0337  154.9534 H   0  0  0  0  0  0  0  0  0  0  0  0
  149.6846  132.9297  154.6388 H   0  0  0  0  0  0  0  0  0  0  0  0
  149.9112  134.2286  153.4971 H   0  0  0  0  0  0  0  0  0  0  0  0
  149.2780  132.6811  152.9514 H   0  0  0  0  0  0  0  0  0  0  0  0
  146.8390  135.4753  155.2405 H   0  0  0  0  0  0  0  0  0  0  0  0
  148.3210  134.8845  155.9305 H   0  0  0  0  0  0  0  0  0  0  0  0
  149.0486  136.1100  153.5398 H   0  0  0  0  0  0  0  0  0  0  0  0
  150.5090  137.9466  153.8378 H   0  0  0  0  0  0  0  0  0  0  0  0
  149.0753  138.7852  153.3772 H   0  0  0  0  0  0  0  0  0  0  0  0
  151.4679  137.6751  156.5672 H   0  0  0  0  0  0  0  0  0  0  0  0
  152.8913  138.7014  156.7266 H   0  0  0  0  0  0  0  0  0  0  0  0
  152.4238  138.0994  155.1387 H   0  0  0  0  0  0  0  0  0  0  0  0
  152.1385  143.5728  156.8856 H   0  0  0  0  0  0  0  0  0  0  0  0
  151.1173  143.0737  158.2391 H   0  0  0  0  0  0  0  0  0  0  0  0
  150.4234  143.9974  156.9018 H   0  0  0  0  0  0  0  0  0  0  0  0
  147.6510  132.4510  151.6881 H   0  0  0  0  0  0  0  0  0  0  0  0
  146.0101  132.4691  152.3063 H   0  0  0  0  0  0  0  0  0  0  0  0
  147.0823  134.1342  149.9647 H   0  0  0  0  0  0  0  0  0  0  0  0
  146.0230  132.7415  149.8543 H   0  0  0  0  0  0  0  0  0  0  0  0
  146.2117  136.1687  150.9391 H   0  0  0  0  0  0  0  0  0  0  0  0
  144.5578  136.1798  151.5187 H   0  0  0  0  0  0  0  0  0  0  0  0
  145.1151  134.6408  153.3662 H   0  0  0  0  0  0  0  0  0  0  0  0
  146.1588  136.0494  153.3970 H   0  0  0  0  0  0  0  0  0  0  0  0
  147.8016  134.7759  152.2338 H   0  0  0  0  0  0  0  0  0  0  0  0
  1  2  1  0  0  0  0
  1 26  1  0  0  0  0
  1 27  1  0  0  0  0
  1 28  1  0  0  0  0
  2  3  1  0  0  0  0
  2 29  1  0  0  0  0
  2 30  1  0  0  0  0
  3  4  1  0  0  0  0
  3  5  1  0  0  0  0
  3 19  1  0  0  0  0
  4 31  1  0  0  0  0
  4 32  1  0  0  0  0
  4 33  1  0  0  0  0
  5  6  1  0  0  0  0
  5 34  1  0  0  0  0
  5 35  1  0  0  0  0
  6  7  1  0  0  0  0
  6 36  1  0  0  0  0
  7  8  2  0  0  0  0
  7  9  1  0  0  0  0
  9 10  1  0  0  0  0
  9 37  1  0  0  0  0
  9 38  1  0  0  0  0
 10 17  1  0  0  0  0
 10 11  2  0  0  0  0
 11 12  1  0  0  0  0
 11 13  1  0  0  0  0
 12 39  1  0  0  0  0
 12 40  1  0  0  0  0
 12 41  1  0  0  0  0
 13 14  2  0  0  0  0
 14 15  1  0  0  0  0
 14 16  1  0  0  0  0
 15 42  1  0  0  0  0
 15 43  1  0  0  0  0
 15 44  1  0  0  0  0
 16 25  1  0  0  0  0
 16 17  1  0  0  0  0
 17 18  2  0  0  0  0
 19 24  1  0  0  0  0
 19 20  1  0  0  0  0
 19 53  1  0  0  0  0
 20 21  1  0  0  0  0
 20 45  1  0  0  0  0
 20 46  1  0  0  0  0
 21 22  1  0  0  0  0
 21 47  1  0  0  0  0
 21 48  1  0  0  0  0
 22 23  1  0  0  0  0
 23 24  1  0  0  0  0
 23 49  1  0  0  0  0
 23 50  1  0  0  0  0
 24 51  1  0  0  0  0
 24 52  1  0  0  0  0
M  CHG  1  19   1
M  END
> <s_m_source_file>
AV-unprocessed.smi

> <i_m_source_file_index>
1492

> <i_lp_mmshare_version>
43012

> <i_f3d_flags>
0

> <s_epik_input>
W0NIMl0xW0NIMl1PW0NIMl1bQ0gyXU4xW0NAQF0oW0NIM10pKFtDSDJdW0NIM10pW0NIMl1bTkhdQyg9TylbQ0gyXWMyYyhbQ0gzXSluYyhbQ0gzXSlbbkhdYzI9Tw==

> <s_epik_cmdline>
J2VwaWtfcHl0aG9uJywgJy1waCcsICc3LjAnLCAnLXRuJywgJzgnLCAnLW1hJywgJzIwMCcsICctbWV0YWxfYmluZGluZycsICctaW1hZScsICc8aW5maWxlLm1hZT4nLCAnLW9tYWUnLCAnPG91dGZpbGUubWFlPic=

> <r_lp_tautomer_probability>
0.839158

> <r_epik_Ionization_Penalty>
0.506959

> <r_epik_Ionization_Penalty_Charging>
0.506936

> <r_epik_Ionization_Penalty_Neutral>
2.27768e-05

> <r_epik_State_Penalty>
0.6046

> <r_epik_Charging_Adjusted_Penalty>
1.11154

> <i_epik_Tot_Q>
1

> <i_epik_Tot_abs_Q>
1

> <r_epik_Metal_State_Penalty>
0.783136

> <b_epik_Metal_Only>
0

> <s_lp_Force_Field>
OPLS_2005

> <r_lp_Energy>
29.7621

> <b_lp_Chiralities_Consistent>
1

> <s_lp_Variant>
AV-unprocessed.smi:1492-4

> <Gold.Version>
5.8.1

> <Gold.Id.Protein>
6NUR|6NUR_protein|mol2

> <Gold.PLP.Fitness>
44.6816

> <Gold.PLP.PLP>
-34.2813

> <Gold.PLP.part.hbond>
-3.0000

> <Gold.PLP.part.metal>
0.0000

> <Gold.PLP.part.buried>
-3.7399

> <Gold.PLP.part.nonpolar>
-27.7166

> <Gold.PLP.part.repulsive>
0.5281

> <Gold.PLP.ligand.clash>
0.0000

> <Gold.PLP.ligand.torsion>
0.8515

> <Gold.PLP.Chemscore.Hbond>
3.9920

> <Gold.PLP.Chemscore.CHOScore>
0.0000

> <Gold.PLP.Chemscore.Metal>
0.0000

> <Gold.Chemscore.Hbonds>
donor molecule, donor type, donor heavy atom, donor atom, acceptor molecule, acceptor atom, score
      L1  H     6    36       P1  7948  1.00
      L1  H    16    25       P1  8028  1.00
      L1  H    19    53       P1  7948  2.00

> <Gold.PLP.Chemscore.Internal.Correction>
0.1274

> <Gold.Rescore>
     Score         DG    S(hbond)    S(metal)    S(lipo)     H(rot)  DE(clash)    DE(int)     intcor
     17.72     -18.47       2.95        0.00      74.95       2.19       0.17       0.58       ----

> <Gold.Chemscore.Fitness>
17.7215

> <Gold.Chemscore.DG>
-18.4739

> <Gold.Chemscore.ZeroCoef>
-5.4800

> <Gold.Chemscore.Hbond>
2.9455

> <Gold.Chemscore.Metal>
0.0000

> <Gold.Chemscore.Lipo>
74.9477

> <Gold.Chemscore.Internal_Hbond>
0.0000

> <Gold.Chemscore.DEClash>
0.1730

> <Gold.Chemscore.DEInternal>
0.5795

> <Gold.Chemscore.Rot>
2.1926

> <Gold.Chemscore.Internal.Correction>
   9.000000E+99

> <Gold.Chemscore.Hbonds>
donor molecule, donor type, donor heavy atom, donor atom, acceptor molecule, acceptor atom, score
      L1  H     6    36       P1  7948  0.90
      L1  H    16    25       P1  8028  0.99
      L1  H    19    53       P1  7948  0.70

> <Gold.Chemscore.Hbond.Weighted>
-9.8380

> <Gold.Chemscore.Metal.Weighted>
-0.0000

> <Gold.Chemscore.Lipo.Weighted>
-8.7689

> <Gold.Chemscore.Internal_Hbond.Weighted>
0.0000

> <Gold.Chemscore.DEClash.Weighted>
0.1730

> <Gold.Chemscore.DEInternal.Weighted>
0.5795

> <Gold.Chemscore.Rot.Weighted>
5.6129

> <Gold.Chemscore.Internal.Correction.Weighted>
   9.000000E+99

> <Gold.Protein.RotatedTorsions>
[ 6907 6896 6895 6894 ] final  153.94 input  -60.11 | X-H torsion
[ 7974 7965 7964 7962 ] final  -20.98 input  175.53 | X-H torsion
[ 8008 7997 7996 7995 ] final   78.03 input   59.86 | X-H torsion
[ 10167 10162 10161 10158 ] final  -27.81 input  -65.29 | X-H torsion
[ 10718 10713 10712 10709 ] final   35.08 input   66.30 | X-H torsion
[ 10763 10752 10751 10750 ] final   66.45 input  -60.55 | X-H torsion
[ 11005 11000 10999 10996 ] final  177.73 input  -57.11 | X-H torsion

> <Gold.Protein.ActiveResidues>
 VAL166  LYS551  ARG553  GLY616  TRP617  ASP618  TYR619  PRO620  LYS621  CYS622 
 ASP623  PHE694  ASN695  SER759  ASP760  ASP761  ALA762  ILE779  LEU786  VAL792 
 PHE793  MET794  SER795  GLU796  ALA797  LYS798  CYS799  TRP800  GLU811  SER814 

> <Gold.Protein.RotatedAtoms>
  152.0656  133.4082  159.4436 H   0  0  0  0  0  0  0  0  0  0  0  0  # atno 6907 bound_to 6896
  150.6865  134.3150  159.4771 H   0  0  0  0  0  0  0  0  0  0  0  0  # atno 6908 bound_to 6896
  152.0976  134.9363  160.0621 H   0  0  0  0  0  0  0  0  0  0  0  0  # atno 6909 bound_to 6896
  146.1758  140.4277  142.8514 H   0  0  0  0  0  0  0  0  0  0  0  0  # atno 7974 bound_to 7965
  155.8499  140.3458  155.5686 H   0  0  0  0  0  0  0  0  0  0  0  0  # atno 8008 bound_to 7997
  155.8049  140.0890  157.1956 H   0  0  0  0  0  0  0  0  0  0  0  0  # atno 8009 bound_to 7997
  154.4007  140.1458  156.3305 H   0  0  0  0  0  0  0  0  0  0  0  0  # atno 8010 bound_to 7997
  140.7274  143.4062  151.1181 H   0  0  0  0  0  0  0  0  0  0  0  0  # atno 10167 bound_to 10162
  157.3183  130.7435  149.6769 H   0  0  0  0  0  0  0  0  0  0  0  0  # atno 10718 bound_to 10713
  153.0140  135.5320  154.6825 H   0  0  0  0  0  0  0  0  0  0  0  0  # atno 10763 bound_to 10752
  154.5981  135.2865  155.0566 H   0  0  0  0  0  0  0  0  0  0  0  0  # atno 10764 bound_to 10752
  154.1634  135.6544  153.5044 H   0  0  0  0  0  0  0  0  0  0  0  0  # atno 10765 bound_to 10752
  140.3873  134.6893  157.4487 H   0  0  0  0  0  0  0  0  0  0  0  0  # atno 11005 bound_to 11000
  144.8234  140.6589  143.6338 LP  0  0  0  0  0  0  0  0  0  0  0  0  # atno 17320 bound_to 7965
  145.4215  139.1563  143.4072 LP  0  0  0  0  0  0  0  0  0  0  0  0  # atno 17321 bound_to 7965
  139.7689  143.8523  152.3116 LP  0  0  0  0  0  0  0  0  0  0  0  0  # atno 17342 bound_to 10162
  139.8435  144.7198  150.9301 LP  0  0  0  0  0  0  0  0  0  0  0  0  # atno 17343 bound_to 10162
  155.9683  130.4230  150.4545 LP  0  0  0  0  0  0  0  0  0  0  0  0  # atno 17370 bound_to 10713
  157.2556  131.0556  151.2352 LP  0  0  0  0  0  0  0  0  0  0  0  0  # atno 17371 bound_to 10713
  140.0433  134.6236  155.8953 LP  0  0  0  0  0  0  0  0  0  0  0  0  # atno 17394 bound_to 11000
  141.1903  133.6568  156.5405 LP  0  0  0  0  0  0  0  0  0  0  0  0  # atno 17395 bound_to 11000

$$$$
