AV-unprocessed.smi:305|AV-procd|sdf|2281|dock3
  -GOLD-   2262022183D 1   1.00000     0.00000
 Structure written by MMmdl.
 46 48  0  0  0  0  0  0  0  0  2 V2000
  149.5031  138.7853  155.6868 C   0  0  0  0  0  0  0  0  0  0  0  0
  150.6900  138.9917  154.7433 C   0  0  0  0  0  0  0  0  0  0  0  0
  151.4775  140.0678  155.2234 O   0  0  0  0  0  0  0  0  0  0  0  0
  152.2016  139.7334  156.3953 C   0  0  0  0  0  0  0  0  0  0  0  0
  151.5039  140.3662  157.6061 C   0  0  0  0  0  0  0  0  0  0  0  0
  152.2661  140.1689  158.8344 N   0  0  0  0  0  0  0  0  0  0  0  0
  152.6913  141.1180  159.7068 C   0  0  0  0  0  0  0  0  0  0  0  0
  152.4230  142.4867  159.4931 N   0  0  0  0  0  0  0  0  0  0  0  0
  152.2270  142.9502  158.2415 N   0  0  0  0  0  0  0  0  0  0  0  0
  152.0077  144.2455  158.3889 C   0  0  0  0  0  0  0  0  0  0  0  0
  151.7348  145.0845  157.1739 C   0  0  0  0  0  0  0  0  0  0  0  0
  152.0749  144.6565  159.7521 C   0  0  0  0  0  0  0  0  0  0  0  0
  151.8887  146.0441  160.3013 C   0  0  0  0  0  0  0  0  0  0  0  0
  152.3411  143.4983  160.4317 C   0  0  0  0  0  0  0  0  0  0  0  0
  152.5224  143.2488  161.8948 C   0  0  0  0  0  0  0  0  0  0  0  0
  153.3546  140.6532  160.7672 N   0  0  0  0  0  0  0  0  0  0  0  0
  153.3646  139.2837  160.5414 C   0  0  0  0  0  0  0  0  0  0  0  0
  152.7187  138.9681  159.3861 C   0  0  0  0  0  0  0  0  0  0  0  0
  152.5649  137.5889  158.8764 C   0  0  0  0  0  0  0  0  0  0  0  0
  151.9746  137.3652  157.8215 O   0  0  0  0  0  0  0  0  0  0  0  0
  153.1458  136.6650  159.7059 N   0  5  0  0  0  0  0  0  0  0  0  0
  153.8089  136.9369  160.8838 C   0  0  0  0  0  0  0  0  0  0  0  0
  154.3056  136.0436  161.5713 O   0  0  0  0  0  0  0  0  0  0  0  0
  153.9276  138.2323  161.3155 N   0  0  0  0  0  0  0  0  0  0  0  0
  154.6297  138.5507  162.5618 C   0  0  0  0  0  0  0  0  0  0  0  0
  148.8721  137.9646  155.3450 H   0  0  0  0  0  0  0  0  0  0  0  0
  148.8860  139.6822  155.7413 H   0  0  0  0  0  0  0  0  0  0  0  0
  149.8424  138.5491  156.6955 H   0  0  0  0  0  0  0  0  0  0  0  0
  151.2880  138.0804  154.6931 H   0  0  0  0  0  0  0  0  0  0  0  0
  150.3307  139.2081  153.7361 H   0  0  0  0  0  0  0  0  0  0  0  0
  152.2508  138.6496  156.5084 H   0  0  0  0  0  0  0  0  0  0  0  0
  153.2257  140.1000  156.3156 H   0  0  0  0  0  0  0  0  0  0  0  0
  151.3599  141.4337  157.4381 H   0  0  0  0  0  0  0  0  0  0  0  0
  150.5036  139.9541  157.7352 H   0  0  0  0  0  0  0  0  0  0  0  0
  151.0267  145.8825  157.3979 H   0  0  0  0  0  0  0  0  0  0  0  0
  151.3126  144.4900  156.3628 H   0  0  0  0  0  0  0  0  0  0  0  0
  152.6512  145.5463  156.8066 H   0  0  0  0  0  0  0  0  0  0  0  0
  152.5167  146.2237  161.1739 H   0  0  0  0  0  0  0  0  0  0  0  0
  150.8564  146.2196  160.6045 H   0  0  0  0  0  0  0  0  0  0  0  0
  152.1424  146.8089  159.5672 H   0  0  0  0  0  0  0  0  0  0  0  0
  152.1961  144.1052  162.4846 H   0  0  0  0  0  0  0  0  0  0  0  0
  153.5705  143.0593  162.1268 H   0  0  0  0  0  0  0  0  0  0  0  0
  151.9422  142.3839  162.2180 H   0  0  0  0  0  0  0  0  0  0  0  0
  155.6718  138.2333  162.5032 H   0  0  0  0  0  0  0  0  0  0  0  0
  154.1637  138.0395  163.4055 H   0  0  0  0  0  0  0  0  0  0  0  0
  154.6257  139.6170  162.7866 H   0  0  0  0  0  0  0  0  0  0  0  0
  1  2  1  0  0  0  0
  1 26  1  0  0  0  0
  1 27  1  0  0  0  0
  1 28  1  0  0  0  0
  2  3  1  0  0  0  0
  2 29  1  0  0  0  0
  2 30  1  0  0  0  0
  3  4  1  0  0  0  0
  4  5  1  0  0  0  0
  4 31  1  0  0  0  0
  4 32  1  0  0  0  0
  5  6  1  0  0  0  0
  5 33  1  0  0  0  0
  5 34  1  0  0  0  0
  6 18  1  0  0  0  0
  6  7  1  0  0  0  0
  7  8  1  0  0  0  0
  7 16  2  0  0  0  0
  8 14  1  0  0  0  0
  8  9  1  0  0  0  0
  9 10  2  0  0  0  0
 10 11  1  0  0  0  0
 10 12  1  0  0  0  0
 11 35  1  0  0  0  0
 11 36  1  0  0  0  0
 11 37  1  0  0  0  0
 12 13  1  0  0  0  0
 12 14  2  0  0  0  0
 13 38  1  0  0  0  0
 13 39  1  0  0  0  0
 13 40  1  0  0  0  0
 14 15  1  0  0  0  0
 15 41  1  0  0  0  0
 15 42  1  0  0  0  0
 15 43  1  0  0  0  0
 16 17  1  0  0  0  0
 17 24  1  0  0  0  0
 17 18  2  0  0  0  0
 18 19  1  0  0  0  0
 19 20  2  0  0  0  0
 19 21  1  0  0  0  0
 21 22  1  0  0  0  0
 22 23  2  0  0  0  0
 22 24  1  0  0  0  0
 24 25  1  0  0  0  0
 25 44  1  0  0  0  0
 25 45  1  0  0  0  0
 25 46  1  0  0  0  0
M  CHG  1  21  -1
M  END
> <s_m_source_file>
AV-unprocessed.smi

> <i_m_source_file_index>
305

> <i_lp_mmshare_version>
43012

> <i_f3d_flags>
0

> <s_epik_input>
W0NIM11uMWMoPU8pW25IXWMoPU8pYyhjMTIpbihbQ0gyXVtDSDJdT1tDSDJdW0NIM10pYyhuMiktbjNuYyhbQ0gzXSljKFtDSDNdKWMzW0NIM10=

> <s_epik_cmdline>
J2VwaWtfcHl0aG9uJywgJy1waCcsICc3LjAnLCAnLXRuJywgJzgnLCAnLW1hJywgJzIwMCcsICctbWV0YWxfYmluZGluZycsICctaW1hZScsICc8aW5maWxlLm1hZT4nLCAnLW9tYWUnLCAnPG91dGZpbGUubWFlPic=

> <r_lp_tautomer_probability>
1

> <r_epik_Ionization_Penalty>
4

> <r_epik_Ionization_Penalty_Charging>
0.0169474

> <r_epik_Ionization_Penalty_Neutral>
3.98305

> <r_epik_State_Penalty>
3.98062

> <r_epik_Charging_Adjusted_Penalty>
3.99756

> <i_epik_Tot_Q>
-1

> <i_epik_Tot_abs_Q>
1

> <r_epik_Metal_State_Penalty>
0.616488

> <b_epik_Metal_Only>
1

> <s_lp_Force_Field>
OPLS_2005

> <r_lp_Energy>
29.8012

> <b_lp_Chiralities_Consistent>
1

> <s_lp_Variant>
AV-unprocessed.smi:305-2

> <Gold.Version>
5.8.1

> <Gold.Id.Protein>
6NUR|6NUR_protein|mol2

> <Gold.PLP.Fitness>
55.8635

> <Gold.PLP.PLP>
-47.5940

> <Gold.PLP.part.hbond>
-2.0000

> <Gold.PLP.part.metal>
0.0000

> <Gold.PLP.part.buried>
-5.1869

> <Gold.PLP.part.nonpolar>
-40.6761

> <Gold.PLP.part.repulsive>
0.0420

> <Gold.PLP.ligand.clash>
0.0000

> <Gold.PLP.ligand.torsion>
0.6521

> <Gold.PLP.Chemscore.Hbond>
3.0000

> <Gold.PLP.Chemscore.CHOScore>
0.0000

> <Gold.PLP.Chemscore.Metal>
0.0000

> <Gold.Chemscore.Hbonds>
donor molecule, donor type, donor heavy atom, donor atom, acceptor molecule, acceptor atom, score
      P1  H  6896  6907       L1    21  1.63
      P1  H  7989  7998       L1     3  0.70

> <Gold.PLP.Chemscore.Internal.Correction>
0.5737

> <Gold.Rescore>
     Score         DG    S(hbond)    S(metal)    S(lipo)     H(rot)  DE(clash)    DE(int)     intcor
     10.29     -16.81       0.85        0.00     107.91       1.62       2.17       4.34       ----

> <Gold.Chemscore.Fitness>
10.2925

> <Gold.Chemscore.DG>
-16.8069

> <Gold.Chemscore.ZeroCoef>
-5.4800

> <Gold.Chemscore.Hbond>
0.8530

> <Gold.Chemscore.Metal>
0.0000

> <Gold.Chemscore.Lipo>
107.9148

> <Gold.Chemscore.Internal_Hbond>
0.0000

> <Gold.Chemscore.DEClash>
2.1732

> <Gold.Chemscore.DEInternal>
4.3412

> <Gold.Chemscore.Rot>
1.6204

> <Gold.Chemscore.Internal.Correction>
   9.000000E+99

> <Gold.Chemscore.Hbonds>
donor molecule, donor type, donor heavy atom, donor atom, acceptor molecule, acceptor atom, score
      P1  H  6896  6907       L1    21  0.30
      P1  H  7989  7998       L1     3  0.07

> <Gold.Chemscore.Hbond.Weighted>
-2.8490

> <Gold.Chemscore.Metal.Weighted>
-0.0000

> <Gold.Chemscore.Lipo.Weighted>
-12.6260

> <Gold.Chemscore.Internal_Hbond.Weighted>
0.0000

> <Gold.Chemscore.DEClash.Weighted>
2.1732

> <Gold.Chemscore.DEInternal.Weighted>
4.3412

> <Gold.Chemscore.Rot.Weighted>
4.1481

> <Gold.Chemscore.Internal.Correction.Weighted>
   9.000000E+99

> <Gold.Protein.RotatedTorsions>
[ 6907 6896 6895 6894 ] final   55.64 input  -60.11 | X-H torsion
[ 7974 7965 7964 7962 ] final -133.83 input  175.53 | X-H torsion
[ 8008 7997 7996 7995 ] final  -78.78 input   59.86 | X-H torsion
[ 10167 10162 10161 10158 ] final   21.27 input  -65.29 | X-H torsion
[ 10718 10713 10712 10709 ] final   73.43 input   66.30 | X-H torsion
[ 10763 10752 10751 10750 ] final   51.61 input  -60.55 | X-H torsion
[ 11005 11000 10999 10996 ] final  121.75 input  -57.11 | X-H torsion

> <Gold.Protein.ActiveResidues>
 VAL166  LYS551  ARG553  GLY616  TRP617  ASP618  TYR619  PRO620  LYS621  CYS622 
 ASP623  PHE694  ASN695  SER759  ASP760  ASP761  ALA762  ILE779  LEU786  VAL792 
 PHE793  MET794  SER795  GLU796  ALA797  LYS798  CYS799  TRP800  GLU811  SER814 

> <Gold.Protein.RotatedAtoms>
  152.3558  134.6941  160.0222 H   0  0  0  0  0  0  0  0  0  0  0  0  # atno 6907 bound_to 6896
  151.7280  133.3311  159.3341 H   0  0  0  0  0  0  0  0  0  0  0  0  # atno 6908 bound_to 6896
  150.7571  134.6322  159.6237 H   0  0  0  0  0  0  0  0  0  0  0  0  # atno 6909 bound_to 6896
  144.9158  140.6952  143.4996 H   0  0  0  0  0  0  0  0  0  0  0  0  # atno 7974 bound_to 7965
  154.5722  140.0689  156.8981 H   0  0  0  0  0  0  0  0  0  0  0  0  # atno 8008 bound_to 7997
  155.2613  140.3358  155.4255 H   0  0  0  0  0  0  0  0  0  0  0  0  # atno 8009 bound_to 7997
  156.2127  140.1766  156.7644 H   0  0  0  0  0  0  0  0  0  0  0  0  # atno 8010 bound_to 7997
  140.5439  143.9628  150.6536 H   0  0  0  0  0  0  0  0  0  0  0  0  # atno 10167 bound_to 10162
  157.6547  130.9628  150.1068 H   0  0  0  0  0  0  0  0  0  0  0  0  # atno 10718 bound_to 10713
  152.9786  135.5840  154.4443 H   0  0  0  0  0  0  0  0  0  0  0  0  # atno 10763 bound_to 10752
  154.4040  135.2769  155.2080 H   0  0  0  0  0  0  0  0  0  0  0  0  # atno 10764 bound_to 10752
  154.3899  135.6127  153.5891 H   0  0  0  0  0  0  0  0  0  0  0  0  # atno 10765 bound_to 10752
  139.9239  134.9639  156.8005 H   0  0  0  0  0  0  0  0  0  0  0  0  # atno 11005 bound_to 11000
  145.3378  139.1741  143.4502 LP  0  0  0  0  0  0  0  0  0  0  0  0  # atno 17320 bound_to 7965
  146.3181  140.3416  142.8648 LP  0  0  0  0  0  0  0  0  0  0  0  0  # atno 17321 bound_to 7965
  140.3036  143.3244  152.0947 LP  0  0  0  0  0  0  0  0  0  0  0  0  # atno 17342 bound_to 10162
  139.4999  144.6681  151.6308 LP  0  0  0  0  0  0  0  0  0  0  0  0  # atno 17343 bound_to 10162
  156.1975  130.3658  149.8830 LP  0  0  0  0  0  0  0  0  0  0  0  0  # atno 17370 bound_to 10713
  156.6743  130.8832  151.3567 LP  0  0  0  0  0  0  0  0  0  0  0  0  # atno 17371 bound_to 10713
  140.6394  133.9832  155.7700 LP  0  0  0  0  0  0  0  0  0  0  0  0  # atno 17394 bound_to 11000
  141.0781  134.0104  157.3427 LP  0  0  0  0  0  0  0  0  0  0  0  0  # atno 17395 bound_to 11000

$$$$
