AV-unprocessed.smi:1157|AV-procd|sdf|4907|dock2
  -GOLD-   22720 3483D 1   1.00000     0.00000
 Structure written by MMmdl.
 55 57  0  0  0  0  0  0  0  0  2 V2000
  146.7886  131.2924  154.8109 C   0  0  0  0  0  0  0  0  0  0  0  0
  146.9978  132.7334  154.2808 C   0  0  0  0  0  0  0  0  0  0  0  0
  146.5332  133.6794  155.4164 C   0  0  0  0  0  0  0  0  0  0  0  0
  148.5038  132.9888  153.9701 C   0  0  0  0  0  0  0  0  0  0  0  0
  148.8415  134.4065  153.8453 N   0  0  0  0  0  0  0  0  0  0  0  0
  149.3239  135.1821  154.8270 C   0  0  0  0  0  0  0  0  0  0  0  0
  149.5253  134.7788  155.9722 O   0  0  0  0  0  0  0  0  0  0  0  0
  149.5250  136.4394  154.3973 N   0  0  0  0  0  0  0  0  0  0  0  0
  150.0203  137.5551  155.1249 C   0  0  0  0  0  0  0  0  0  0  0  0
  150.3789  137.5221  156.4927 C   0  0  0  0  0  0  0  0  0  0  0  0
  150.8764  138.6931  157.0958 C   0  0  0  0  0  0  0  0  0  0  0  0
  151.0142  139.8664  156.3169 C   0  0  0  0  0  0  0  0  0  0  0  0
  151.5026  141.0596  156.8848 N   0  0  0  0  0  0  0  0  0  0  0  0
  152.0720  141.0961  158.2230 C   0  0  0  0  0  0  0  0  0  0  0  0
  152.3349  142.5773  158.4901 C   0  0  0  0  0  0  0  0  0  0  0  0
  151.2145  143.2734  157.7172 C   0  0  0  0  0  0  0  0  0  0  0  0
  150.9709  142.3625  156.5086 C   0  0  0  0  0  0  0  0  0  0  0  0
  150.6762  139.8935  155.0056 N   0  0  0  0  0  0  0  0  0  0  0  0
  150.2015  138.7685  154.4318 C   0  0  0  0  0  0  0  0  0  0  0  0
  146.1418  132.9456  153.0577 N   0  3  0  0  0  0  0  0  0  0  0  0
  146.1093  134.3352  152.5193 C   0  0  0  0  0  0  0  0  0  0  0  0
  145.0645  134.4570  151.3971 C   0  0  0  0  0  0  0  0  0  0  0  0
  145.3554  133.5242  150.3664 O   0  0  0  0  0  0  0  0  0  0  0  0
  145.3018  132.1862  150.8398 C   0  0  0  0  0  0  0  0  0  0  0  0
  146.3575  131.9836  151.9394 C   0  0  0  0  0  0  0  0  0  0  0  0
  147.2129  131.1610  155.8068 H   0  0  0  0  0  0  0  0  0  0  0  0
  147.2662  130.5442  154.1787 H   0  0  0  0  0  0  0  0  0  0  0  0
  145.7289  131.0447  154.8834 H   0  0  0  0  0  0  0  0  0  0  0  0
  146.9901  133.4183  156.3717 H   0  0  0  0  0  0  0  0  0  0  0  0
  145.4527  133.6320  155.5567 H   0  0  0  0  0  0  0  0  0  0  0  0
  146.8033  134.7183  155.2279 H   0  0  0  0  0  0  0  0  0  0  0  0
  149.1439  132.5257  154.7213 H   0  0  0  0  0  0  0  0  0  0  0  0
  148.7790  132.5273  153.0224 H   0  0  0  0  0  0  0  0  0  0  0  0
  148.7021  134.8265  152.9378 H   0  0  0  0  0  0  0  0  0  0  0  0
  149.2375  136.6369  153.4500 H   0  0  0  0  0  0  0  0  0  0  0  0
  150.2958  136.6261  157.0876 H   0  0  0  0  0  0  0  0  0  0  0  0
  151.1413  138.6747  158.1424 H   0  0  0  0  0  0  0  0  0  0  0  0
  151.3499  140.6980  158.9374 H   0  0  0  0  0  0  0  0  0  0  0  0
  152.9866  140.5057  158.2886 H   0  0  0  0  0  0  0  0  0  0  0  0
  152.3389  142.8230  159.5524 H   0  0  0  0  0  0  0  0  0  0  0  0
  153.3017  142.8624  158.0727 H   0  0  0  0  0  0  0  0  0  0  0  0
  150.3157  143.3084  158.3342 H   0  0  0  0  0  0  0  0  0  0  0  0
  151.4642  144.2960  157.4325 H   0  0  0  0  0  0  0  0  0  0  0  0
  151.5134  142.7251  155.6349 H   0  0  0  0  0  0  0  0  0  0  0  0
  149.9097  142.3199  156.2618 H   0  0  0  0  0  0  0  0  0  0  0  0
  149.9537  138.8435  153.3828 H   0  0  0  0  0  0  0  0  0  0  0  0
  145.8514  135.0587  153.2899 H   0  0  0  0  0  0  0  0  0  0  0  0
  147.0890  134.6132  152.1302 H   0  0  0  0  0  0  0  0  0  0  0  0
  144.0571  134.2917  151.7824 H   0  0  0  0  0  0  0  0  0  0  0  0
  145.0821  135.4625  150.9765 H   0  0  0  0  0  0  0  0  0  0  0  0
  144.3018  131.9561  151.2111 H   0  0  0  0  0  0  0  0  0  0  0  0
  145.4944  131.5104  150.0063 H   0  0  0  0  0  0  0  0  0  0  0  0
  147.3506  132.1174  151.5104 H   0  0  0  0  0  0  0  0  0  0  0  0
  146.2896  130.9518  152.2780 H   0  0  0  0  0  0  0  0  0  0  0  0
  145.2000  132.7671  153.3765 H   0  0  0  0  0  0  0  0  0  0  0  0
  1  2  1  0  0  0  0
  1 26  1  0  0  0  0
  1 27  1  0  0  0  0
  1 28  1  0  0  0  0
  2  3  1  0  0  0  0
  2  4  1  0  0  0  0
  2 20  1  0  0  0  0
  3 29  1  0  0  0  0
  3 30  1  0  0  0  0
  3 31  1  0  0  0  0
  4  5  1  0  0  0  0
  4 32  1  0  0  0  0
  4 33  1  0  0  0  0
  5  6  1  0  0  0  0
  5 34  1  0  0  0  0
  6  7  2  0  0  0  0
  6  8  1  0  0  0  0
  8  9  1  0  0  0  0
  8 35  1  0  0  0  0
  9 19  1  0  0  0  0
  9 10  2  0  0  0  0
 10 11  1  0  0  0  0
 10 36  1  0  0  0  0
 11 12  2  0  0  0  0
 11 37  1  0  0  0  0
 12 13  1  0  0  0  0
 12 18  1  0  0  0  0
 13 17  1  0  0  0  0
 13 14  1  0  0  0  0
 14 15  1  0  0  0  0
 14 38  1  0  0  0  0
 14 39  1  0  0  0  0
 15 16  1  0  0  0  0
 15 40  1  0  0  0  0
 15 41  1  0  0  0  0
 16 17  1  0  0  0  0
 16 42  1  0  0  0  0
 16 43  1  0  0  0  0
 17 44  1  0  0  0  0
 17 45  1  0  0  0  0
 18 19  2  0  0  0  0
 19 46  1  0  0  0  0
 20 25  1  0  0  0  0
 20 21  1  0  0  0  0
 20 55  1  0  0  0  0
 21 22  1  0  0  0  0
 21 47  1  0  0  0  0
 21 48  1  0  0  0  0
 22 23  1  0  0  0  0
 22 49  1  0  0  0  0
 22 50  1  0  0  0  0
 23 24  1  0  0  0  0
 24 25  1  0  0  0  0
 24 51  1  0  0  0  0
 24 52  1  0  0  0  0
 25 53  1  0  0  0  0
 25 54  1  0  0  0  0
M  CHG  1  20   1
M  END
> <s_m_source_file>
AV-unprocessed.smi

> <i_m_source_file_index>
1157

> <i_lp_mmshare_version>
43012

> <i_f3d_flags>
0

> <s_epik_input>
W0NIMl0xW0NIMl1PW0NIMl1bQ0gyXU4xQyhbQ0gzXSkoW0NIM10pW0NIMl1bTkhdQyg9TylbTkhdYzJbY0hdW2NIXWMobltjSF0yKU4zW0NIMl1bQ0gyXVtDSDJdW0NIMl0z

> <s_epik_cmdline>
J2VwaWtfcHl0aG9uJywgJy1waCcsICc3LjAnLCAnLXRuJywgJzgnLCAnLW1hJywgJzIwMCcsICctbWV0YWxfYmluZGluZycsICctaW1hZScsICc8aW5maWxlLm1hZT4nLCAnLW9tYWUnLCAnPG91dGZpbGUubWFlPic=

> <r_lp_tautomer_probability>
1

> <r_epik_Ionization_Penalty>
0.687101

> <r_epik_Ionization_Penalty_Charging>
0.602531

> <r_epik_Ionization_Penalty_Neutral>
0.0845707

> <r_epik_State_Penalty>
0.681137

> <r_epik_Charging_Adjusted_Penalty>
1.28367

> <i_epik_Tot_Q>
1

> <i_epik_Tot_abs_Q>
1

> <r_epik_Metal_State_Penalty>
0.680046

> <b_epik_Metal_Only>
0

> <s_lp_Force_Field>
OPLS_2005

> <r_lp_Energy>
50.3969

> <b_lp_Chiralities_Consistent>
1

> <s_lp_Variant>
AV-unprocessed.smi:1157-2

> <Gold.Version>
5.8.1

> <Gold.Id.Protein>
6NUR|6NUR_protein|mol2

> <Gold.PLP.Fitness>
44.9832

> <Gold.PLP.PLP>
-33.9895

> <Gold.PLP.part.hbond>
-3.0000

> <Gold.PLP.part.metal>
0.0000

> <Gold.PLP.part.buried>
-4.6186

> <Gold.PLP.part.nonpolar>
-26.0914

> <Gold.PLP.part.repulsive>
1.0373

> <Gold.PLP.ligand.clash>
0.0000

> <Gold.PLP.ligand.torsion>
0.6849

> <Gold.PLP.Chemscore.Hbond>
3.0000

> <Gold.PLP.Chemscore.CHOScore>
1.0000

> <Gold.PLP.Chemscore.Metal>
0.0000

> <Gold.Chemscore.Hbonds>
donor molecule, donor type, donor heavy atom, donor atom, acceptor molecule, acceptor atom, score
      L1  H     5    34       P1  7948  0.98
      L1  H     8    35       P1  7948  1.00
      P1  H  7989  7998       L1    18  0.99
      L1  C    19    46       P1  7957  0.98

> <Gold.PLP.Chemscore.Internal.Correction>
0.3634

> <Gold.Rescore>
     Score         DG    S(hbond)    S(metal)    S(lipo)     H(rot)  DE(clash)    DE(int)     intcor
     16.85     -19.02       2.00        0.00      89.73       1.42       0.10       2.07       ----

> <Gold.Chemscore.Fitness>
16.8549

> <Gold.Chemscore.DG>
-19.0177

> <Gold.Chemscore.ZeroCoef>
-5.4800

> <Gold.Chemscore.Hbond>
2.0017

> <Gold.Chemscore.Metal>
0.0000

> <Gold.Chemscore.Lipo>
89.7276

> <Gold.Chemscore.Internal_Hbond>
0.0000

> <Gold.Chemscore.DEClash>
0.0976

> <Gold.Chemscore.DEInternal>
2.0653

> <Gold.Chemscore.Rot>
1.4243

> <Gold.Chemscore.Internal.Correction>
   9.000000E+99

> <Gold.Chemscore.Hbonds>
donor molecule, donor type, donor heavy atom, donor atom, acceptor molecule, acceptor atom, score
      L1  H     5    34       P1  7948  0.24
      L1  H     8    35       P1  7948  0.94
      P1  H  7989  7998       L1    18  0.46

> <Gold.Chemscore.Hbond.Weighted>
-6.6858

> <Gold.Chemscore.Metal.Weighted>
-0.0000

> <Gold.Chemscore.Lipo.Weighted>
-10.4981

> <Gold.Chemscore.Internal_Hbond.Weighted>
0.0000

> <Gold.Chemscore.DEClash.Weighted>
0.0976

> <Gold.Chemscore.DEInternal.Weighted>
2.0653

> <Gold.Chemscore.Rot.Weighted>
3.6462

> <Gold.Chemscore.Internal.Correction.Weighted>
   9.000000E+99

> <Gold.Protein.RotatedTorsions>
[ 6907 6896 6895 6894 ] final -168.04 input  -60.11 | X-H torsion
[ 7974 7965 7964 7962 ] final  158.65 input  175.53 | X-H torsion
[ 8008 7997 7996 7995 ] final  155.92 input   59.86 | X-H torsion
[ 10167 10162 10161 10158 ] final  -87.31 input  -65.29 | X-H torsion
[ 10718 10713 10712 10709 ] final -144.59 input   66.30 | X-H torsion
[ 10763 10752 10751 10750 ] final -146.23 input  -60.55 | X-H torsion
[ 11005 11000 10999 10996 ] final -152.65 input  -57.11 | X-H torsion

> <Gold.Protein.ActiveResidues>
 VAL166  LYS551  ARG553  GLY616  TRP617  ASP618  TYR619  PRO620  LYS621  CYS622 
 ASP623  PHE694  ASN695  SER759  ASP760  ASP761  ALA762  ILE779  LEU786  VAL792 
 PHE793  MET794  SER795  GLU796  ALA797  LYS798  CYS799  TRP800  GLU811  SER814 

> <Gold.Protein.RotatedAtoms>
  151.4692  133.3573  159.2820 H   0  0  0  0  0  0  0  0  0  0  0  0  # atno 6907 bound_to 6896
  150.8972  134.8383  159.7346 H   0  0  0  0  0  0  0  0  0  0  0  0  # atno 6908 bound_to 6896
  152.4858  134.4609  159.9656 H   0  0  0  0  0  0  0  0  0  0  0  0  # atno 6909 bound_to 6896
  144.7834  139.7508  143.6251 H   0  0  0  0  0  0  0  0  0  0  0  0  # atno 7974 bound_to 7965
  156.2451  140.1926  156.6876 H   0  0  0  0  0  0  0  0  0  0  0  0  # atno 8008 bound_to 7997
  154.6275  140.0600  156.9718 H   0  0  0  0  0  0  0  0  0  0  0  0  # atno 8009 bound_to 7997
  155.1763  140.3272  155.4386 H   0  0  0  0  0  0  0  0  0  0  0  0  # atno 8010 bound_to 7997
  140.3856  143.2728  151.9328 H   0  0  0  0  0  0  0  0  0  0  0  0  # atno 10167 bound_to 10162
  156.3720  130.7793  151.1975 H   0  0  0  0  0  0  0  0  0  0  0  0  # atno 10718 bound_to 10713
  154.8346  135.3392  154.6628 H   0  0  0  0  0  0  0  0  0  0  0  0  # atno 10763 bound_to 10752
  153.7244  135.6956  153.5009 H   0  0  0  0  0  0  0  0  0  0  0  0  # atno 10764 bound_to 10752
  153.2357  135.4401  155.0597 H   0  0  0  0  0  0  0  0  0  0  0  0  # atno 10765 bound_to 10752
  140.7165  134.3774  157.5190 H   0  0  0  0  0  0  0  0  0  0  0  0  # atno 11005 bound_to 11000
  146.2053  139.5374  142.9716 LP  0  0  0  0  0  0  0  0  0  0  0  0  # atno 17320 bound_to 7965
  145.5988  141.0358  143.2029 LP  0  0  0  0  0  0  0  0  0  0  0  0  # atno 17321 bound_to 7965
  139.4792  144.5776  151.7985 LP  0  0  0  0  0  0  0  0  0  0  0  0  # atno 17342 bound_to 10162
  140.4892  144.1335  150.5947 LP  0  0  0  0  0  0  0  0  0  0  0  0  # atno 17343 bound_to 10162
  157.7485  131.0369  150.4432 LP  0  0  0  0  0  0  0  0  0  0  0  0  # atno 17370 bound_to 10713
  156.4661  130.4042  149.6546 LP  0  0  0  0  0  0  0  0  0  0  0  0  # atno 17371 bound_to 10713
  139.8858  134.8926  156.2619 LP  0  0  0  0  0  0  0  0  0  0  0  0  # atno 17394 bound_to 11000
  141.0040  133.7135  156.1005 LP  0  0  0  0  0  0  0  0  0  0  0  0  # atno 17395 bound_to 11000

$$$$
