AV-unprocessed.smi:2456|AV-procd|sdf|9702|dock1
  -GOLD-   2272013343D 1   1.00000     0.00000
 Structure written by MMmdl.
 33 34  0  0  0  0  0  0  0  0  2 V2000
  152.2571  138.6086  157.7047 C   0  0  0  0  0  0  0  0  0  0  0  0
  151.1178  139.3823  158.3894 C   0  0  2  0  0  0  0  0  0  0  0  0
  149.8658  138.6785  158.1087 N   0  0  0  0  0  0  0  0  0  0  0  0
  149.5242  137.4650  158.5682 C   0  0  0  0  0  0  0  0  0  0  0  0
  150.2998  136.8435  159.2987 O   0  0  0  0  0  0  0  0  0  0  0  0
  148.3074  137.0471  158.1509 N   0  5  0  0  0  0  0  0  0  0  0  0
  147.4421  136.5136  159.0284 C   0  0  0  0  0  0  0  0  0  0  0  0
  146.8099  137.2369  159.9596 N   0  0  0  0  0  0  0  0  0  0  0  0
  145.9499  136.4826  160.7597 C   0  0  0  0  0  0  0  0  0  0  0  0
  145.9190  135.1552  160.4242 C   0  0  0  0  0  0  0  0  0  0  0  0
  146.9765  134.8108  159.0852 S   0  0  0  0  0  0  0  0  0  0  0  0
  151.0897  140.8102  157.7998 C   0  0  0  0  0  0  0  0  0  0  0  0
  150.8224  140.9646  156.6064 O   0  0  0  0  0  0  0  0  0  0  0  0
  151.3828  141.8568  158.6018 N   0  0  0  0  0  0  0  0  0  0  0  0
  151.3798  143.2441  158.1406 C   0  0  0  0  0  0  0  0  0  0  0  0
  151.5129  144.1023  159.3986 C   0  0  0  0  0  0  0  0  0  0  0  0
  152.2165  143.1925  160.3952 C   0  0  0  0  0  0  0  0  0  0  0  0
  151.7441  141.7885  160.0175 C   0  0  0  0  0  0  0  0  0  0  0  0
  153.2230  139.0828  157.8829 H   0  0  0  0  0  0  0  0  0  0  0  0
  152.1121  138.5438  156.6252 H   0  0  0  0  0  0  0  0  0  0  0  0
  152.3204  137.5903  158.0895 H   0  0  0  0  0  0  0  0  0  0  0  0
  151.2785  139.3872  159.4677 H   0  0  0  0  0  0  0  0  0  0  0  0
  149.1973  139.1555  157.5220 H   0  0  0  0  0  0  0  0  0  0  0  0
  145.3968  136.9739  161.5462 H   0  0  0  0  0  0  0  0  0  0  0  0
  145.3423  134.3640  160.8786 H   0  0  0  0  0  0  0  0  0  0  0  0
  152.2331  143.3992  157.4789 H   0  0  0  0  0  0  0  0  0  0  0  0
  150.4723  143.4911  157.5870 H   0  0  0  0  0  0  0  0  0  0  0  0
  152.0517  145.0333  159.2205 H   0  0  0  0  0  0  0  0  0  0  0  0
  150.5210  144.3565  159.7745 H   0  0  0  0  0  0  0  0  0  0  0  0
  153.2959  143.2653  160.2554 H   0  0  0  0  0  0  0  0  0  0  0  0
  151.9961  143.4484  161.4318 H   0  0  0  0  0  0  0  0  0  0  0  0
  150.8598  141.5164  160.5961 H   0  0  0  0  0  0  0  0  0  0  0  0
  152.5225  141.0493  160.2119 H   0  0  0  0  0  0  0  0  0  0  0  0
  1  2  1  0  0  0  0
  1 19  1  0  0  0  0
  1 20  1  0  0  0  0
  1 21  1  0  0  0  0
  2  3  1  0  0  0  0
  2 12  1  0  0  0  0
  2 22  1  0  0  0  0
  3  4  1  0  0  0  0
  3 23  1  0  0  0  0
  4  5  2  0  0  0  0
  4  6  1  0  0  0  0
  6  7  1  0  0  0  0
  7 11  1  0  0  0  0
  7  8  2  0  0  0  0
  8  9  1  0  0  0  0
  9 10  2  0  0  0  0
  9 24  1  0  0  0  0
 10 11  1  0  0  0  0
 10 25  1  0  0  0  0
 12 13  2  0  0  0  0
 12 14  1  0  0  0  0
 14 18  1  0  0  0  0
 14 15  1  0  0  0  0
 15 16  1  0  0  0  0
 15 26  1  0  0  0  0
 15 27  1  0  0  0  0
 16 17  1  0  0  0  0
 16 28  1  0  0  0  0
 16 29  1  0  0  0  0
 17 18  1  0  0  0  0
 17 30  1  0  0  0  0
 17 31  1  0  0  0  0
 18 32  1  0  0  0  0
 18 33  1  0  0  0  0
M  CHG  1   6  -1
M  END
> <s_m_source_file>
AV-unprocessed.smi

> <i_m_source_file_index>
2456

> <i_lp_mmshare_version>
43012

> <i_f3d_flags>
0

> <s_epik_input>
W0NIMl0xW0NIMl1bQ0gyXVtDSDJdTjFDKD1PKVtDQEhdKFtDSDNdKVtOSF1DKD1PKVtOSF1jMm5bY0hdW2NIXXMy

> <s_epik_cmdline>
J2VwaWtfcHl0aG9uJywgJy1waCcsICc3LjAnLCAnLXRuJywgJzgnLCAnLW1hJywgJzIwMCcsICctbWV0YWxfYmluZGluZycsICctaW1hZScsICc8aW5maWxlLm1hZT4nLCAnLW9tYWUnLCAnPG91dGZpbGUubWFlPic=

> <r_lp_tautomer_probability>
1

> <r_epik_Ionization_Penalty>
5.99337

> <r_epik_Ionization_Penalty_Charging>
5.23786

> <r_epik_Ionization_Penalty_Neutral>
0.755512

> <r_epik_State_Penalty>
5.23778

> <r_epik_Charging_Adjusted_Penalty>
10.4756

> <i_epik_Tot_Q>
-1

> <i_epik_Tot_abs_Q>
1

> <r_epik_Metal_State_Penalty>
1.29566

> <b_epik_Metal_Only>
1

> <s_lp_Force_Field>
OPLS_2005

> <r_lp_Energy>
24.4134

> <b_lp_Chiralities_Consistent>
1

> <s_lp_Variant>
AV-unprocessed.smi:2456-3

> <Gold.Version>
5.8.1

> <Gold.Id.Protein>
6NUR|6NUR_protein|mol2

> <Gold.PLP.Fitness>
42.9977

> <Gold.PLP.PLP>
-37.1657

> <Gold.PLP.part.hbond>
-3.0000

> <Gold.PLP.part.metal>
0.0000

> <Gold.PLP.part.buried>
-4.6156

> <Gold.PLP.part.nonpolar>
-29.5846

> <Gold.PLP.part.repulsive>
0.1946

> <Gold.PLP.ligand.clash>
0.0000

> <Gold.PLP.ligand.torsion>
1.1825

> <Gold.PLP.Chemscore.Hbond>
2.6880

> <Gold.PLP.Chemscore.CHOScore>
0.0000

> <Gold.PLP.Chemscore.Metal>
0.0000

> <Gold.Chemscore.Hbonds>
donor molecule, donor type, donor heavy atom, donor atom, acceptor molecule, acceptor atom, score
      P1  H  6896  6907       L1     5  1.00
      P1  H  6934  6947       L1     8  0.93

> <Gold.PLP.Chemscore.Internal.Correction>
0.1330

> <Gold.Rescore>
     Score         DG    S(hbond)    S(metal)    S(lipo)     H(rot)  DE(clash)    DE(int)     intcor
     18.31     -19.33       2.57        0.00      73.98       1.33       0.00       1.02       ----

> <Gold.Chemscore.Fitness>
18.3073

> <Gold.Chemscore.DG>
-19.3313

> <Gold.Chemscore.ZeroCoef>
-5.4800

> <Gold.Chemscore.Hbond>
2.5740

> <Gold.Chemscore.Metal>
0.0000

> <Gold.Chemscore.Lipo>
73.9805

> <Gold.Chemscore.Internal_Hbond>
0.0000

> <Gold.Chemscore.DEClash>
0.0013

> <Gold.Chemscore.DEInternal>
1.0227

> <Gold.Chemscore.Rot>
1.3288

> <Gold.Chemscore.Internal.Correction>
   9.000000E+99

> <Gold.Chemscore.Hbonds>
donor molecule, donor type, donor heavy atom, donor atom, acceptor molecule, acceptor atom, score
      P1  H  6896  6907       L1     5  0.94
      P1  H  6934  6947       L1     8  0.57

> <Gold.Chemscore.Hbond.Weighted>
-8.5973

> <Gold.Chemscore.Metal.Weighted>
-0.0000

> <Gold.Chemscore.Lipo.Weighted>
-8.6557

> <Gold.Chemscore.Internal_Hbond.Weighted>
0.0000

> <Gold.Chemscore.DEClash.Weighted>
0.0013

> <Gold.Chemscore.DEInternal.Weighted>
1.0227

> <Gold.Chemscore.Rot.Weighted>
3.4017

> <Gold.Chemscore.Internal.Correction.Weighted>
   9.000000E+99

> <Gold.Protein.RotatedTorsions>
[ 6907 6896 6895 6894 ] final  -30.45 input  -60.11 | X-H torsion
[ 7974 7965 7964 7962 ] final -161.06 input  175.53 | X-H torsion
[ 8008 7997 7996 7995 ] final  -83.92 input   59.86 | X-H torsion
[ 10167 10162 10161 10158 ] final -122.43 input  -65.29 | X-H torsion
[ 10718 10713 10712 10709 ] final  -22.09 input   66.30 | X-H torsion
[ 10763 10752 10751 10750 ] final -177.71 input  -60.55 | X-H torsion
[ 11005 11000 10999 10996 ] final  -82.76 input  -57.11 | X-H torsion

> <Gold.Protein.ActiveResidues>
 VAL166  LYS551  ARG553  GLY616  TRP617  ASP618  TYR619  PRO620  LYS621  CYS622 
 ASP623  PHE694  ASN695  SER759  ASP760  ASP761  ALA762  ILE779  LEU786  VAL792 
 PHE793  MET794  SER795  GLU796  ALA797  LYS798  CYS799  TRP800  GLU811  SER814 

> <Gold.Protein.RotatedAtoms>
  151.1055  134.9996  159.8468 H   0  0  0  0  0  0  0  0  0  0  0  0  # atno 6907 bound_to 6896
  152.5440  134.1899  159.8680 H   0  0  0  0  0  0  0  0  0  0  0  0  # atno 6908 bound_to 6896
  151.1945  133.4603  159.2628 H   0  0  0  0  0  0  0  0  0  0  0  0  # atno 6909 bound_to 6896
  144.7404  140.3453  143.6126 H   0  0  0  0  0  0  0  0  0  0  0  0  # atno 7974 bound_to 7965
  154.6242  140.0612  156.9653 H   0  0  0  0  0  0  0  0  0  0  0  0  # atno 8008 bound_to 7997
  155.1768  140.3295  155.4364 H   0  0  0  0  0  0  0  0  0  0  0  0  # atno 8009 bound_to 7997
  156.2448  140.1904  156.6867 H   0  0  0  0  0  0  0  0  0  0  0  0  # atno 8010 bound_to 7997
  140.0143  143.5409  152.2249 H   0  0  0  0  0  0  0  0  0  0  0  0  # atno 10167 bound_to 10162
  156.5093  130.4606  149.6657 H   0  0  0  0  0  0  0  0  0  0  0  0  # atno 10718 bound_to 10713
  154.5567  135.2817  155.0958 H   0  0  0  0  0  0  0  0  0  0  0  0  # atno 10763 bound_to 10752
  154.2382  135.6362  153.5202 H   0  0  0  0  0  0  0  0  0  0  0  0  # atno 10764 bound_to 10752
  153.0018  135.5553  154.6149 H   0  0  0  0  0  0  0  0  0  0  0  0  # atno 10765 bound_to 10752
  141.1661  133.7260  156.8619 H   0  0  0  0  0  0  0  0  0  0  0  0  # atno 11005 bound_to 11000
  145.7333  139.1742  143.2418 LP  0  0  0  0  0  0  0  0  0  0  0  0  # atno 17320 bound_to 7965
  146.1190  140.7333  142.9467 LP  0  0  0  0  0  0  0  0  0  0  0  0  # atno 17321 bound_to 7965
  139.6183  144.7624  151.2797 LP  0  0  0  0  0  0  0  0  0  0  0  0  # atno 17342 bound_to 10162
  140.7368  143.6695  150.8094 LP  0  0  0  0  0  0  0  0  0  0  0  0  # atno 17343 bound_to 10162
  156.3256  130.7304  151.2224 LP  0  0  0  0  0  0  0  0  0  0  0  0  # atno 17370 bound_to 10713
  157.7452  131.0444  150.4790 LP  0  0  0  0  0  0  0  0  0  0  0  0  # atno 17371 bound_to 10713
  140.1842  134.9011  157.2985 LP  0  0  0  0  0  0  0  0  0  0  0  0  # atno 17394 bound_to 11000
  140.2361  134.3851  155.7500 LP  0  0  0  0  0  0  0  0  0  0  0  0  # atno 17395 bound_to 11000

$$$$
