AV-unprocessed.smi:121|AV-procd|sdf|1140|dock1
  -GOLD-   2262018273D 1   1.00000     0.00000
 Structure written by MMmdl.
 37 39  0  0  0  0  0  0  0  0  1 V2000
  152.8994  137.7997  160.3686 N   0  0  0  0  0  0  0  0  0  0  0  0
  152.6949  138.8756  159.9953 C   0  0  0  0  0  0  0  0  0  0  0  0
  152.4383  140.2270  159.5262 C   0  0  0  0  0  0  0  0  0  0  0  0
  152.8171  141.3324  160.3145 C   0  0  0  0  0  0  0  0  0  0  0  0
  152.5632  142.6401  159.8592 C   0  0  0  0  0  0  0  0  0  0  0  0
  151.9335  142.8449  158.6167 C   0  0  0  0  0  0  0  0  0  0  0  0
  151.5579  141.7451  157.8170 C   0  0  0  0  0  0  0  0  0  0  0  0
  150.8793  141.9975  156.4749 C   0  0  0  0  0  0  0  0  0  0  0  0
  150.4581  140.8074  155.7515 N   0  0  0  0  0  0  0  0  0  0  0  0
  151.4747  139.9076  155.3473 C   0  0  0  0  0  0  0  0  0  0  0  0
  152.6653  140.1170  155.5879 O   0  0  0  0  0  0  0  0  0  0  0  0
  150.9939  138.7272  154.6384 C   0  0  0  0  0  0  0  0  0  0  0  0
  151.8745  137.8175  154.1881 F   0  0  0  0  0  0  0  0  0  0  0  0
  149.6751  138.5331  154.4231 C   0  0  0  0  0  0  0  0  0  0  0  0
  148.7006  139.4175  154.8533 N   0  0  0  0  0  0  0  0  0  0  0  0
  147.2363  139.1504  154.5882 C   0  0  1  0  0  0  0  0  0  0  0  0
  146.7596  139.9601  153.3766 C   0  0  0  0  0  0  0  0  0  0  0  0
  146.8450  138.9408  152.2609 C   0  0  0  0  0  0  0  0  0  0  0  0
  146.4913  137.6530  152.9946 C   0  0  0  0  0  0  0  0  0  0  0  0
  147.0708  137.7942  154.2879 O   0  0  0  0  0  0  0  0  0  0  0  0
  149.0749  140.6001  155.5290 C   0  0  0  0  0  0  0  0  0  0  0  0
  148.2231  141.4065  155.9096 O   0  0  0  0  0  0  0  0  0  0  0  0
  151.8086  140.4339  158.2817 C   0  0  0  0  0  0  0  0  0  0  0  0
  153.3011  141.1843  161.2693 H   0  0  0  0  0  0  0  0  0  0  0  0
  152.8521  143.4875  160.4634 H   0  0  0  0  0  0  0  0  0  0  0  0
  151.7439  143.8525  158.2765 H   0  0  0  0  0  0  0  0  0  0  0  0
  150.0180  142.6509  156.6144 H   0  0  0  0  0  0  0  0  0  0  0  0
  151.5378  142.5513  155.8026 H   0  0  0  0  0  0  0  0  0  0  0  0
  149.3796  137.6430  153.8876 H   0  0  0  0  0  0  0  0  0  0  0  0
  146.7026  139.3825  155.5107 H   0  0  0  0  0  0  0  0  0  0  0  0
  145.7235  140.2571  153.5428 H   0  0  0  0  0  0  0  0  0  0  0  0
  147.3617  140.8543  153.2100 H   0  0  0  0  0  0  0  0  0  0  0  0
  146.1719  139.1567  151.4306 H   0  0  0  0  0  0  0  0  0  0  0  0
  147.8629  138.8893  151.8722 H   0  0  0  0  0  0  0  0  0  0  0  0
  145.4096  137.5613  153.1022 H   0  0  0  0  0  0  0  0  0  0  0  0
  146.8602  136.7624  152.4854 H   0  0  0  0  0  0  0  0  0  0  0  0
  151.5173  139.5814  157.6856 H   0  0  0  0  0  0  0  0  0  0  0  0
  1  2  3  0  0  0  0
  2  3  1  0  0  0  0
  3 23  1  0  0  0  0
  3  4  2  0  0  0  0
  4  5  1  0  0  0  0
  4 24  1  0  0  0  0
  5  6  2  0  0  0  0
  5 25  1  0  0  0  0
  6  7  1  0  0  0  0
  6 26  1  0  0  0  0
  7  8  1  0  0  0  0
  7 23  2  0  0  0  0
  8  9  1  0  0  0  0
  8 27  1  0  0  0  0
  8 28  1  0  0  0  0
  9 21  1  0  0  0  0
  9 10  1  0  0  0  0
 10 11  2  0  0  0  0
 10 12  1  0  0  0  0
 12 13  1  0  0  0  0
 12 14  2  0  0  0  0
 14 15  1  0  0  0  0
 14 29  1  0  0  0  0
 15 16  1  0  0  0  0
 15 21  1  0  0  0  0
 16 20  1  0  0  0  0
 16 17  1  0  0  0  0
 16 30  1  0  0  0  0
 17 18  1  0  0  0  0
 17 31  1  0  0  0  0
 17 32  1  0  0  0  0
 18 19  1  0  0  0  0
 18 33  1  0  0  0  0
 18 34  1  0  0  0  0
 19 20  1  0  0  0  0
 19 35  1  0  0  0  0
 19 36  1  0  0  0  0
 21 22  2  0  0  0  0
 23 37  1  0  0  0  0
M  END
> <s_m_source_file>
AV-unprocessed.smi

> <i_m_source_file_index>
121

> <i_lp_mmshare_version>
43012

> <i_f3d_flags>
0

> <s_epik_input>
TiNDYzFbY0hdW2NIXVtjSF1jKFtjSF0xKVtDSDJdbjJjKD1PKWMoRilbY0hdbihjMj1PKVtDQEBIXTNbQ0gyXVtDSDJdW0NIMl1PMw==

> <s_epik_cmdline>
J2VwaWtfcHl0aG9uJywgJy1waCcsICc3LjAnLCAnLXRuJywgJzgnLCAnLW1hJywgJzIwMCcsICctbWV0YWxfYmluZGluZycsICctaW1hZScsICc8aW5maWxlLm1hZT4nLCAnLW9tYWUnLCAnPG91dGZpbGUubWFlPic=

> <r_lp_tautomer_probability>
1

> <r_epik_Ionization_Penalty>
1.69864e-08

> <r_epik_Ionization_Penalty_Charging>
1.69802e-08

> <r_epik_Ionization_Penalty_Neutral>
6.20402e-12

> <r_epik_State_Penalty>
-0

> <r_epik_Charging_Adjusted_Penalty>
1.69802e-08

> <i_epik_Tot_Q>
0

> <i_epik_Tot_abs_Q>
0

> <r_epik_Metal_State_Penalty>
-0

> <b_epik_Metal_Only>
0

> <s_epik_Chemistry_Notes>
This compound contains an acetal/aminal-like group ( X-CH(R)-Y where X, Y are N, S, or O) that may be acid/base labile, releasing an aldehyde.

> <s_lp_Force_Field>
OPLS_2005

> <r_lp_Energy>
33.8546

> <b_lp_Chiralities_Consistent>
1

> <s_lp_Variant>
AV-unprocessed.smi:121-2

> <Gold.Version>
5.8.1

> <Gold.Id.Protein>
6NUR|6NUR_protein|mol2

> <Gold.PLP.Fitness>
45.0914

> <Gold.PLP.PLP>
-40.1840

> <Gold.PLP.part.hbond>
-1.9459

> <Gold.PLP.part.metal>
0.0000

> <Gold.PLP.part.buried>
0.7791

> <Gold.PLP.part.nonpolar>
-38.3729

> <Gold.PLP.part.repulsive>
0.2176

> <Gold.PLP.ligand.clash>
0.0073

> <Gold.PLP.ligand.torsion>
0.5474

> <Gold.PLP.Chemscore.Hbond>
1.0000

> <Gold.PLP.Chemscore.CHOScore>
1.0000

> <Gold.PLP.Chemscore.Metal>
0.0000

> <Gold.Chemscore.Hbonds>
donor molecule, donor type, donor heavy atom, donor atom, acceptor molecule, acceptor atom, score
      P1  H  7997  8010       L1    11  0.98
      L1  C    14    29       P1  7948  1.00

> <Gold.PLP.Chemscore.Internal.Correction>
0.0095

> <Gold.Rescore>
     Score         DG    S(hbond)    S(metal)    S(lipo)     H(rot)  DE(clash)    DE(int)     intcor
     13.76     -14.91       1.00        0.00      86.82       1.59       0.44       0.72       ----

> <Gold.Chemscore.Fitness>
13.7580

> <Gold.Chemscore.DG>
-14.9115

> <Gold.Chemscore.ZeroCoef>
-5.4800

> <Gold.Chemscore.Hbond>
0.9997

> <Gold.Chemscore.Metal>
0.0000

> <Gold.Chemscore.Lipo>
86.8221

> <Gold.Chemscore.Internal_Hbond>
0.0000

> <Gold.Chemscore.DEClash>
0.4361

> <Gold.Chemscore.DEInternal>
0.7174

> <Gold.Chemscore.Rot>
1.5882

> <Gold.Chemscore.Internal.Correction>
   9.000000E+99

> <Gold.Chemscore.Hbonds>
donor molecule, donor type, donor heavy atom, donor atom, acceptor molecule, acceptor atom, score
      P1  H  7997  8010       L1    11  0.93

> <Gold.Chemscore.Hbond.Weighted>
-3.3391

> <Gold.Chemscore.Metal.Weighted>
-0.0000

> <Gold.Chemscore.Lipo.Weighted>
-10.1582

> <Gold.Chemscore.Internal_Hbond.Weighted>
0.0000

> <Gold.Chemscore.DEClash.Weighted>
0.4361

> <Gold.Chemscore.DEInternal.Weighted>
0.7174

> <Gold.Chemscore.Rot.Weighted>
4.0657

> <Gold.Chemscore.Internal.Correction.Weighted>
   9.000000E+99

> <Gold.Protein.RotatedTorsions>
[ 6907 6896 6895 6894 ] final -139.89 input  -60.11 | X-H torsion
[ 7974 7965 7964 7962 ] final   32.46 input  175.53 | X-H torsion
[ 8008 7997 7996 7995 ] final  109.63 input   59.86 | X-H torsion
[ 10167 10162 10161 10158 ] final -123.03 input  -65.29 | X-H torsion
[ 10718 10713 10712 10709 ] final  110.23 input   66.30 | X-H torsion
[ 10763 10752 10751 10750 ] final   40.11 input  -60.55 | X-H torsion
[ 11005 11000 10999 10996 ] final   74.79 input  -57.11 | X-H torsion

> <Gold.Protein.ActiveResidues>
 VAL166  LYS551  ARG553  GLY616  TRP617  ASP618  TYR619  PRO620  LYS621  CYS622 
 ASP623  PHE694  ASN695  SER759  ASP760  ASP761  ALA762  ILE779  LEU786  VAL792 
 PHE793  MET794  SER795  GLU796  ALA797  LYS798  CYS799  TRP800  GLU811  SER814 

> <Gold.Protein.RotatedAtoms>
  151.0536  133.5603  159.2639 H   0  0  0  0  0  0  0  0  0  0  0  0  # atno 6907 bound_to 6896
  151.2604  135.0651  159.9106 H   0  0  0  0  0  0  0  0  0  0  0  0  # atno 6908 bound_to 6896
  152.5386  134.0283  159.8067 H   0  0  0  0  0  0  0  0  0  0  0  0  # atno 6909 bound_to 6896
  146.1485  139.6523  142.9115 H   0  0  0  0  0  0  0  0  0  0  0  0  # atno 7974 bound_to 7965
  156.1993  140.3054  155.9493 H   0  0  0  0  0  0  0  0  0  0  0  0  # atno 8008 bound_to 7997
  155.2991  140.0445  157.3045 H   0  0  0  0  0  0  0  0  0  0  0  0  # atno 8009 bound_to 7997
  154.5550  140.2303  155.8433 H   0  0  0  0  0  0  0  0  0  0  0  0  # atno 8010 bound_to 7997
  140.0078  143.5473  152.2276 H   0  0  0  0  0  0  0  0  0  0  0  0  # atno 10167 bound_to 10162
  157.6504  131.0929  150.6571 H   0  0  0  0  0  0  0  0  0  0  0  0  # atno 10718 bound_to 10713
  152.9946  135.6201  154.2573 H   0  0  0  0  0  0  0  0  0  0  0  0  # atno 10763 bound_to 10752
  154.2310  135.2792  155.2891 H   0  0  0  0  0  0  0  0  0  0  0  0  # atno 10764 bound_to 10752
  154.5449  135.5750  153.6930 H   0  0  0  0  0  0  0  0  0  0  0  0  # atno 10765 bound_to 10752
  139.9374  134.7463  156.1192 H   0  0  0  0  0  0  0  0  0  0  0  0  # atno 11005 bound_to 11000
  145.4880  141.0438  143.2609 LP  0  0  0  0  0  0  0  0  0  0  0  0  # atno 17320 bound_to 7965
  144.7875  139.6396  143.7128 LP  0  0  0  0  0  0  0  0  0  0  0  0  # atno 17321 bound_to 7965
  139.6226  144.7632  151.2707 LP  0  0  0  0  0  0  0  0  0  0  0  0  # atno 17342 bound_to 10162
  140.7393  143.6621  150.8155 LP  0  0  0  0  0  0  0  0  0  0  0  0  # atno 17343 bound_to 10162
  156.6883  130.4587  149.5607 LP  0  0  0  0  0  0  0  0  0  0  0  0  # atno 17370 bound_to 10713
  156.1880  130.6541  151.1028 LP  0  0  0  0  0  0  0  0  0  0  0  0  # atno 17371 bound_to 10713
  141.0994  133.6683  156.2719 LP  0  0  0  0  0  0  0  0  0  0  0  0  # atno 17394 bound_to 11000
  140.6040  134.5526  157.5522 LP  0  0  0  0  0  0  0  0  0  0  0  0  # atno 17395 bound_to 11000

$$$$
