AV-unprocessed.smi:1801|AV-procd|sdf|7270|dock9
  -GOLD-   22720 8523D 1   1.00000     0.00000
 Structure written by MMmdl.
 37 38  0  0  0  0  0  0  0  0  3 V2000
  149.5406  135.9796  156.9336 C   0  0  0  0  0  0  0  0  0  0  0  0
  149.3318  135.8717  155.4140 C   0  0  1  0  0  0  0  0  0  0  0  0
  150.5428  136.4729  154.6653 C   0  0  0  0  0  0  0  0  0  0  0  0
  150.5837  137.9313  154.7345 N   0  0  0  0  0  0  0  0  0  0  0  0
  151.5950  138.7132  154.3307 C   0  0  0  0  0  0  0  0  0  0  0  0
  152.5913  138.2102  153.8070 O   0  0  0  0  0  0  0  0  0  0  0  0
  151.3936  140.0277  154.5725 N   0  5  0  0  0  0  0  0  0  0  0  0
  151.4935  140.5029  155.8250 C   0  0  0  0  0  0  0  0  0  0  0  0
  152.4209  140.0602  156.6890 N   0  0  0  0  0  0  0  0  0  0  0  0
  152.3562  140.6850  157.9270 N   0  0  0  0  0  0  0  0  0  0  0  0
  151.3813  141.5931  157.9625 C   0  0  0  0  0  0  0  0  0  0  0  0
  150.4552  141.7690  156.4866 S   0  0  0  0  0  0  0  0  0  0  0  0
  149.0470  134.4120  154.9877 C   0  0  0  0  0  0  0  0  0  0  0  0
  148.1989  134.3338  153.7751 N   0  3  0  0  0  0  0  0  0  0  0  0
  148.3591  133.0939  152.9753 C   0  0  0  0  0  0  0  0  0  0  0  0
  146.9490  132.6124  152.6110 C   0  0  0  0  0  0  0  0  0  0  0  0
  146.0550  133.8200  152.8717 C   0  0  0  0  0  0  0  0  0  0  0  0
  146.7560  134.5110  154.0363 C   0  0  0  0  0  0  0  0  0  0  0  0
  150.4007  135.3936  157.2590 H   0  0  0  0  0  0  0  0  0  0  0  0
  148.6684  135.6251  157.4832 H   0  0  0  0  0  0  0  0  0  0  0  0
  149.7131  137.0142  157.2320 H   0  0  0  0  0  0  0  0  0  0  0  0
  148.4635  136.4828  155.1667 H   0  0  0  0  0  0  0  0  0  0  0  0
  151.4759  136.0695  155.0625 H   0  0  0  0  0  0  0  0  0  0  0  0
  150.5085  136.1888  153.6131 H   0  0  0  0  0  0  0  0  0  0  0  0
  149.7823  138.3907  155.1420 H   0  0  0  0  0  0  0  0  0  0  0  0
  151.2078  142.1642  158.8621 H   0  0  0  0  0  0  0  0  0  0  0  0
  149.9698  133.8651  154.7893 H   0  0  0  0  0  0  0  0  0  0  0  0
  148.5536  133.8884  155.8079 H   0  0  0  0  0  0  0  0  0  0  0  0
  148.9341  133.3314  152.0798 H   0  0  0  0  0  0  0  0  0  0  0  0
  148.9002  132.3163  153.5172 H   0  0  0  0  0  0  0  0  0  0  0  0
  146.8790  132.2491  151.5853 H   0  0  0  0  0  0  0  0  0  0  0  0
  146.6596  131.7952  153.2732 H   0  0  0  0  0  0  0  0  0  0  0  0
  146.0478  134.4748  151.9990 H   0  0  0  0  0  0  0  0  0  0  0  0
  145.0242  133.5454  153.0981 H   0  0  0  0  0  0  0  0  0  0  0  0
  146.4861  134.0150  154.9705 H   0  0  0  0  0  0  0  0  0  0  0  0
  146.4893  135.5644  154.1234 H   0  0  0  0  0  0  0  0  0  0  0  0
  148.4688  135.0975  153.1718 H   0  0  0  0  0  0  0  0  0  0  0  0
  1  2  1  0  0  0  0
  1 19  1  0  0  0  0
  1 20  1  0  0  0  0
  1 21  1  0  0  0  0
  2  3  1  0  0  0  0
  2 13  1  0  0  0  0
  2 22  1  0  0  0  0
  3  4  1  0  0  0  0
  3 23  1  0  0  0  0
  3 24  1  0  0  0  0
  4  5  1  0  0  0  0
  4 25  1  0  0  0  0
  5  6  2  0  0  0  0
  5  7  1  0  0  0  0
  7  8  1  0  0  0  0
  8 12  1  0  0  0  0
  8  9  2  0  0  0  0
  9 10  1  0  0  0  0
 10 11  2  0  0  0  0
 11 12  1  0  0  0  0
 11 26  1  0  0  0  0
 13 14  1  0  0  0  0
 13 27  1  0  0  0  0
 13 28  1  0  0  0  0
 14 18  1  0  0  0  0
 14 15  1  0  0  0  0
 14 37  1  0  0  0  0
 15 16  1  0  0  0  0
 15 29  1  0  0  0  0
 15 30  1  0  0  0  0
 16 17  1  0  0  0  0
 16 31  1  0  0  0  0
 16 32  1  0  0  0  0
 17 18  1  0  0  0  0
 17 33  1  0  0  0  0
 17 34  1  0  0  0  0
 18 35  1  0  0  0  0
 18 36  1  0  0  0  0
M  CHG  1   7  -1
M  CHG  1  14   1
M  END
> <s_m_source_file>
AV-unprocessed.smi

> <i_m_source_file_index>
1801

> <i_lp_mmshare_version>
43012

> <i_f3d_flags>
0

> <s_epik_input>
W0NIMl0xW0NIMl1bQ0gyXVtDSDJdTjFbQ0gyXVtDQEhdKFtDSDNdKVtDSDJdW05IXUMoPU8pW05IXWMybm5bY0hdczI=

> <s_epik_cmdline>
J2VwaWtfcHl0aG9uJywgJy1waCcsICc3LjAnLCAnLXRuJywgJzgnLCAnLW1hJywgJzIwMCcsICctbWV0YWxfYmluZGluZycsICctaW1hZScsICc8aW5maWxlLm1hZT4nLCAnLW9tYWUnLCAnPG91dGZpbGUubWFlPic=

> <r_lp_tautomer_probability>
1

> <r_epik_Ionization_Penalty>
3.29721

> <r_epik_Ionization_Penalty_Charging>
3.25987

> <r_epik_Ionization_Penalty_Neutral>
0.0373399

> <r_epik_State_Penalty>
3.2571

> <r_epik_Charging_Adjusted_Penalty>
6.51697

> <i_epik_Tot_Q>
0

> <i_epik_Tot_abs_Q>
2

> <r_epik_Metal_State_Penalty>
0.477553

> <b_epik_Metal_Only>
1

> <s_lp_Force_Field>
OPLS_2005

> <r_lp_Energy>
22.4804

> <b_lp_Chiralities_Consistent>
1

> <s_lp_Variant>
AV-unprocessed.smi:1801-4

> <Gold.Version>
5.8.1

> <Gold.Id.Protein>
6NUR|6NUR_protein|mol2

> <Gold.PLP.Fitness>
39.6701

> <Gold.PLP.PLP>
-29.7939

> <Gold.PLP.part.hbond>
-4.0000

> <Gold.PLP.part.metal>
0.0000

> <Gold.PLP.part.buried>
-4.0212

> <Gold.PLP.part.nonpolar>
-21.7882

> <Gold.PLP.part.repulsive>
0.2169

> <Gold.PLP.ligand.clash>
0.0000

> <Gold.PLP.ligand.torsion>
1.6956

> <Gold.PLP.Chemscore.Hbond>
4.3965

> <Gold.PLP.Chemscore.CHOScore>
0.0000

> <Gold.PLP.Chemscore.Metal>
0.0000

> <Gold.Chemscore.Hbonds>
donor molecule, donor type, donor heavy atom, donor atom, acceptor molecule, acceptor atom, score
      L1  H    14    37       P1  7948  2.00
      P1  H  7989  7998       L1     7  0.63
      P1  H  7997  8009       L1     9  0.65

> <Gold.PLP.Chemscore.Internal.Correction>
0.0779

> <Gold.Rescore>
     Score         DG    S(hbond)    S(metal)    S(lipo)     H(rot)  DE(clash)    DE(int)     intcor
     13.52     -15.73       2.92        0.00      46.41       1.93       0.03       2.18       ----

> <Gold.Chemscore.Fitness>
13.5235

> <Gold.Chemscore.DG>
-15.7290

> <Gold.Chemscore.ZeroCoef>
-5.4800

> <Gold.Chemscore.Hbond>
2.9196

> <Gold.Chemscore.Metal>
0.0000

> <Gold.Chemscore.Lipo>
46.4054

> <Gold.Chemscore.Internal_Hbond>
0.0000

> <Gold.Chemscore.DEClash>
0.0270

> <Gold.Chemscore.DEInternal>
2.1785

> <Gold.Chemscore.Rot>
1.9266

> <Gold.Chemscore.Internal.Correction>
   9.000000E+99

> <Gold.Chemscore.Hbonds>
donor molecule, donor type, donor heavy atom, donor atom, acceptor molecule, acceptor atom, score
      L1  H    14    37       P1  7948  0.85
      P1  H  7989  7998       L1     7  0.55
      P1  H  7997  8009       L1     9  0.05

> <Gold.Chemscore.Hbond.Weighted>
-9.7516

> <Gold.Chemscore.Metal.Weighted>
-0.0000

> <Gold.Chemscore.Lipo.Weighted>
-5.4294

> <Gold.Chemscore.Internal_Hbond.Weighted>
0.0000

> <Gold.Chemscore.DEClash.Weighted>
0.0270

> <Gold.Chemscore.DEInternal.Weighted>
2.1785

> <Gold.Chemscore.Rot.Weighted>
4.9321

> <Gold.Chemscore.Internal.Correction.Weighted>
   9.000000E+99

> <Gold.Protein.RotatedTorsions>
[ 6907 6896 6895 6894 ] final  -37.64 input  -60.11 | X-H torsion
[ 7974 7965 7964 7962 ] final  -39.92 input  175.53 | X-H torsion
[ 8008 7997 7996 7995 ] final  177.41 input   59.86 | X-H torsion
[ 10167 10162 10161 10158 ] final  118.59 input  -65.29 | X-H torsion
[ 10718 10713 10712 10709 ] final  -88.68 input   66.30 | X-H torsion
[ 10763 10752 10751 10750 ] final   23.28 input  -60.55 | X-H torsion
[ 11005 11000 10999 10996 ] final  122.55 input  -57.11 | X-H torsion

> <Gold.Protein.ActiveResidues>
 VAL166  LYS551  ARG553  GLY616  TRP617  ASP618  TYR619  PRO620  LYS621  CYS622 
 ASP623  PHE694  ASN695  SER759  ASP760  ASP761  ALA762  ILE779  LEU786  VAL792 
 PHE793  MET794  SER795  GLU796  ALA797  LYS798  CYS799  TRP800  GLU811  SER814 

> <Gold.Protein.RotatedAtoms>
  151.0122  134.9405  159.8013 H   0  0  0  0  0  0  0  0  0  0  0  0  # atno 6907 bound_to 6896
  152.5305  134.3013  159.9089 H   0  0  0  0  0  0  0  0  0  0  0  0  # atno 6908 bound_to 6896
  151.3020  133.4076  159.2674 H   0  0  0  0  0  0  0  0  0  0  0  0  # atno 6909 bound_to 6896
  146.0352  140.6681  142.9113 H   0  0  0  0  0  0  0  0  0  0  0  0  # atno 7974 bound_to 7965
  156.0659  140.1359  156.9886 H   0  0  0  0  0  0  0  0  0  0  0  0  # atno 8008 bound_to 7997
  154.4506  140.0982  156.6658 H   0  0  0  0  0  0  0  0  0  0  0  0  # atno 8009 bound_to 7997
  155.5304  140.3458  155.4427 H   0  0  0  0  0  0  0  0  0  0  0  0  # atno 8010 bound_to 7997
  139.6102  144.7080  151.2862 H   0  0  0  0  0  0  0  0  0  0  0  0  # atno 10167 bound_to 10162
  155.9983  130.4844  150.5056 H   0  0  0  0  0  0  0  0  0  0  0  0  # atno 10718 bound_to 10713
  153.0851  135.6630  153.9966 H   0  0  0  0  0  0  0  0  0  0  0  0  # atno 10763 bound_to 10752
  153.9578  135.2977  155.3436 H   0  0  0  0  0  0  0  0  0  0  0  0  # atno 10764 bound_to 10752
  154.7257  135.5145  153.8955 H   0  0  0  0  0  0  0  0  0  0  0  0  # atno 10765 bound_to 10752
  139.9273  134.9641  156.8126 H   0  0  0  0  0  0  0  0  0  0  0  0  # atno 11005 bound_to 11000
  144.7048  140.3807  143.7127 LP  0  0  0  0  0  0  0  0  0  0  0  0  # atno 17320 bound_to 7965
  145.6976  139.1653  143.2611 LP  0  0  0  0  0  0  0  0  0  0  0  0  # atno 17321 bound_to 7965
  140.7313  143.6854  150.7966 LP  0  0  0  0  0  0  0  0  0  0  0  0  # atno 17342 bound_to 10162
  140.0448  143.5310  152.2701 LP  0  0  0  0  0  0  0  0  0  0  0  0  # atno 17343 bound_to 10162
  157.3035  131.0650  151.2052 LP  0  0  0  0  0  0  0  0  0  0  0  0  # atno 17370 bound_to 10713
  157.3023  130.6848  149.6170 LP  0  0  0  0  0  0  0  0  0  0  0  0  # atno 17371 bound_to 10713
  140.6299  133.9915  155.7657 LP  0  0  0  0  0  0  0  0  0  0  0  0  # atno 17394 bound_to 11000
  141.0840  134.0019  157.3343 LP  0  0  0  0  0  0  0  0  0  0  0  0  # atno 17395 bound_to 11000

$$$$
