AV-unprocessed.smi:1977|AV-procd|sdf|7991|dock9
  -GOLD-   2272010173D 1   1.00000     0.00000
 Structure written by MMmdl.
 45 46  0  0  0  0  0  0  0  0  1 V2000
  145.8284  133.3103  151.4307 C   0  0  0  0  0  0  0  0  0  0  0  0
  144.6603  134.2937  151.6204 C   0  0  0  0  0  0  0  0  0  0  0  0
  144.4825  135.1709  150.3727 C   0  0  0  0  0  0  0  0  0  0  0  0
  144.8261  135.1674  152.8822 C   0  0  0  0  0  0  0  0  0  0  0  0
  146.1768  135.7017  153.0230 N   0  0  0  0  0  0  0  0  0  0  0  0
  146.5685  136.5611  153.9738 C   0  0  0  0  0  0  0  0  0  0  0  0
  145.8267  137.0055  154.8499 O   0  0  0  0  0  0  0  0  0  0  0  0
  147.8645  136.8812  153.8489 N   0  0  0  0  0  0  0  0  0  0  0  0
  148.6055  137.7886  154.7217 C   0  0  0  0  0  0  0  0  0  0  0  0
  148.3331  139.2725  154.4625 C   0  0  0  0  0  0  0  0  0  0  0  0
  147.2184  139.6673  153.6864 C   0  0  0  0  0  0  0  0  0  0  0  0
  146.9612  141.0349  153.4857 C   0  0  0  0  0  0  0  0  0  0  0  0
  147.8285  141.9687  154.0777 C   0  0  0  0  0  0  0  0  0  0  0  0
  148.8908  141.6139  154.8277 N   0  0  0  0  0  0  0  0  0  0  0  0
  149.1443  140.2968  155.0252 C   0  0  0  0  0  0  0  0  0  0  0  0
  150.2747  139.9736  155.7970 N   0  0  0  0  0  0  0  0  0  0  0  0
  150.8501  141.0518  156.5950 C   0  0  0  0  0  0  0  0  0  0  0  0
  151.9534  140.4929  157.5097 C   0  0  0  0  0  0  0  0  0  0  0  0
  152.9328  139.8227  156.7206 O   0  0  0  0  0  0  0  0  0  0  0  0
  152.3789  138.7281  155.9951 C   0  0  0  0  0  0  0  0  0  0  0  0
  151.2830  139.2388  155.0436 C   0  0  0  0  0  0  0  0  0  0  0  0
  146.7775  133.8383  151.3337 H   0  0  0  0  0  0  0  0  0  0  0  0
  145.6908  132.7079  150.5324 H   0  0  0  0  0  0  0  0  0  0  0  0
  145.9140  132.6211  152.2710 H   0  0  0  0  0  0  0  0  0  0  0  0
  143.7485  133.7054  151.7321 H   0  0  0  0  0  0  0  0  0  0  0  0
  145.3624  135.7897  150.1942 H   0  0  0  0  0  0  0  0  0  0  0  0
  143.6242  135.8351  150.4781 H   0  0  0  0  0  0  0  0  0  0  0  0
  144.3178  134.5614  149.4835 H   0  0  0  0  0  0  0  0  0  0  0  0
  144.1342  136.0093  152.8440 H   0  0  0  0  0  0  0  0  0  0  0  0
  144.5643  134.5983  153.7760 H   0  0  0  0  0  0  0  0  0  0  0  0
  146.8601  135.3939  152.3466 H   0  0  0  0  0  0  0  0  0  0  0  0
  148.3832  136.4615  153.0914 H   0  0  0  0  0  0  0  0  0  0  0  0
  148.3943  137.5813  155.7718 H   0  0  0  0  0  0  0  0  0  0  0  0
  149.6585  137.5513  154.5809 H   0  0  0  0  0  0  0  0  0  0  0  0
  146.5535  138.9373  153.2501 H   0  0  0  0  0  0  0  0  0  0  0  0
  146.1163  141.3594  152.8965 H   0  0  0  0  0  0  0  0  0  0  0  0
  147.6643  143.0282  153.9482 H   0  0  0  0  0  0  0  0  0  0  0  0
  151.2719  141.8152  155.9396 H   0  0  0  0  0  0  0  0  0  0  0  0
  150.0708  141.5278  157.1911 H   0  0  0  0  0  0  0  0  0  0  0  0
  152.4330  141.3030  158.0591 H   0  0  0  0  0  0  0  0  0  0  0  0
  151.5365  139.8077  158.2496 H   0  0  0  0  0  0  0  0  0  0  0  0
  153.1713  138.2389  155.4286 H   0  0  0  0  0  0  0  0  0  0  0  0
  151.9765  137.9868  156.6874 H   0  0  0  0  0  0  0  0  0  0  0  0
  150.8295  138.4016  154.5121 H   0  0  0  0  0  0  0  0  0  0  0  0
  151.7188  139.8962  154.2897 H   0  0  0  0  0  0  0  0  0  0  0  0
  1  2  1  0  0  0  0
  1 22  1  0  0  0  0
  1 23  1  0  0  0  0
  1 24  1  0  0  0  0
  2  3  1  0  0  0  0
  2  4  1  0  0  0  0
  2 25  1  0  0  0  0
  3 26  1  0  0  0  0
  3 27  1  0  0  0  0
  3 28  1  0  0  0  0
  4  5  1  0  0  0  0
  4 29  1  0  0  0  0
  4 30  1  0  0  0  0
  5  6  1  0  0  0  0
  5 31  1  0  0  0  0
  6  7  2  0  0  0  0
  6  8  1  0  0  0  0
  8  9  1  0  0  0  0
  8 32  1  0  0  0  0
  9 10  1  0  0  0  0
  9 33  1  0  0  0  0
  9 34  1  0  0  0  0
 10 15  1  0  0  0  0
 10 11  2  0  0  0  0
 11 12  1  0  0  0  0
 11 35  1  0  0  0  0
 12 13  2  0  0  0  0
 12 36  1  0  0  0  0
 13 14  1  0  0  0  0
 13 37  1  0  0  0  0
 14 15  2  0  0  0  0
 15 16  1  0  0  0  0
 16 21  1  0  0  0  0
 16 17  1  0  0  0  0
 17 18  1  0  0  0  0
 17 38  1  0  0  0  0
 17 39  1  0  0  0  0
 18 19  1  0  0  0  0
 18 40  1  0  0  0  0
 18 41  1  0  0  0  0
 19 20  1  0  0  0  0
 20 21  1  0  0  0  0
 20 42  1  0  0  0  0
 20 43  1  0  0  0  0
 21 44  1  0  0  0  0
 21 45  1  0  0  0  0
M  END
> <s_m_source_file>
AV-unprocessed.smi

> <i_m_source_file_index>
1977

> <i_lp_mmshare_version>
43012

> <i_f3d_flags>
0

> <s_epik_input>
W0NIM11bQ0hdKFtDSDNdKVtDSDJdW05IXUMoPU8pW05IXVtDSDJdYzFbY0hdW2NIXVtjSF1uYzFOMltDSDJdW0NIMl1PW0NIMl1bQ0gyXTI=

> <s_epik_cmdline>
J2VwaWtfcHl0aG9uJywgJy1waCcsICc3LjAnLCAnLXRuJywgJzgnLCAnLW1hJywgJzIwMCcsICctbWV0YWxfYmluZGluZycsICctaW1hZScsICc8aW5maWxlLm1hZT4nLCAnLW9tYWUnLCAnPG91dGZpbGUubWFlPic=

> <r_lp_tautomer_probability>
1

> <r_epik_Ionization_Penalty>
0.00617532

> <r_epik_Ionization_Penalty_Charging>
0

> <r_epik_Ionization_Penalty_Neutral>
0.00617532

> <r_epik_State_Penalty>
0.00451205

> <r_epik_Charging_Adjusted_Penalty>
0.00451205

> <i_epik_Tot_Q>
0

> <i_epik_Tot_abs_Q>
0

> <r_epik_Metal_State_Penalty>
-0

> <b_epik_Metal_Only>
0

> <s_lp_Force_Field>
OPLS_2005

> <r_lp_Energy>
18.8779

> <b_lp_Chiralities_Consistent>
1

> <s_lp_Variant>
AV-unprocessed.smi:1977-1

> <Gold.Version>
5.8.1

> <Gold.Id.Protein>
6NUR|6NUR_protein|mol2

> <Gold.PLP.Fitness>
37.4865

> <Gold.PLP.PLP>
-30.3830

> <Gold.PLP.part.hbond>
-2.3345

> <Gold.PLP.part.metal>
0.0000

> <Gold.PLP.part.buried>
-3.0174

> <Gold.PLP.part.nonpolar>
-24.5401

> <Gold.PLP.part.repulsive>
0.2025

> <Gold.PLP.ligand.clash>
0.0000

> <Gold.PLP.ligand.torsion>
0.6295

> <Gold.PLP.Chemscore.Hbond>
1.8756

> <Gold.PLP.Chemscore.CHOScore>
0.8507

> <Gold.PLP.Chemscore.Metal>
0.0000

> <Gold.Chemscore.Hbonds>
donor molecule, donor type, donor heavy atom, donor atom, acceptor molecule, acceptor atom, score
      L1  H     5    31       P1  7948  0.23
      L1  H     8    32       P1  7948  0.60
      P1  H  7997  8008       L1    19  0.83
      L1  C    13    37       P1  8028  0.55

> <Gold.PLP.Chemscore.Internal.Correction>
0.1837

> <Gold.Rescore>
     Score         DG    S(hbond)    S(metal)    S(lipo)     H(rot)  DE(clash)    DE(int)     intcor
     15.89     -16.71       2.17        0.00      72.62       1.77       0.05       0.77       ----

> <Gold.Chemscore.Fitness>
15.8887

> <Gold.Chemscore.DG>
-16.7099

> <Gold.Chemscore.ZeroCoef>
-5.4800

> <Gold.Chemscore.Hbond>
2.1721

> <Gold.Chemscore.Metal>
0.0000

> <Gold.Chemscore.Lipo>
72.6184

> <Gold.Chemscore.Internal_Hbond>
0.0000

> <Gold.Chemscore.DEClash>
0.0464

> <Gold.Chemscore.DEInternal>
0.7749

> <Gold.Chemscore.Rot>
1.7662

> <Gold.Chemscore.Internal.Correction>
   9.000000E+99

> <Gold.Chemscore.Hbonds>
donor molecule, donor type, donor heavy atom, donor atom, acceptor molecule, acceptor atom, score
      L1  H     5    31       P1  7948  0.23
      L1  H     8    32       P1  7948  0.60
      P1  H  7997  8008       L1    19  0.75

> <Gold.Chemscore.Hbond.Weighted>
-7.2550

> <Gold.Chemscore.Metal.Weighted>
-0.0000

> <Gold.Chemscore.Lipo.Weighted>
-8.4963

> <Gold.Chemscore.Internal_Hbond.Weighted>
0.0000

> <Gold.Chemscore.DEClash.Weighted>
0.0464

> <Gold.Chemscore.DEInternal.Weighted>
0.7749

> <Gold.Chemscore.Rot.Weighted>
4.5214

> <Gold.Chemscore.Internal.Correction.Weighted>
   9.000000E+99

> <Gold.Protein.RotatedTorsions>
[ 6907 6896 6895 6894 ] final  -71.52 input  -60.11 | X-H torsion
[ 7974 7965 7964 7962 ] final  160.47 input  175.53 | X-H torsion
[ 8008 7997 7996 7995 ] final  -48.47 input   59.86 | X-H torsion
[ 10167 10162 10161 10158 ] final  140.22 input  -65.29 | X-H torsion
[ 10718 10713 10712 10709 ] final   10.18 input   66.30 | X-H torsion
[ 10763 10752 10751 10750 ] final  -35.19 input  -60.55 | X-H torsion
[ 11005 11000 10999 10996 ] final -170.98 input  -57.11 | X-H torsion

> <Gold.Protein.ActiveResidues>
 VAL166  LYS551  ARG553  GLY616  TRP617  ASP618  TYR619  PRO620  LYS621  CYS622 
 ASP623  PHE694  ASN695  SER759  ASP760  ASP761  ALA762  ILE779  LEU786  VAL792 
 PHE793  MET794  SER795  GLU796  ALA797  LYS798  CYS799  TRP800  GLU811  SER814 

> <Gold.Protein.RotatedAtoms>
  150.7209  134.5297  159.5693 H   0  0  0  0  0  0  0  0  0  0  0  0  # atno 6907 bound_to 6896
  152.2833  134.7801  160.0401 H   0  0  0  0  0  0  0  0  0  0  0  0  # atno 6908 bound_to 6896
  151.8440  133.3393  159.3689 H   0  0  0  0  0  0  0  0  0  0  0  0  # atno 6909 bound_to 6896
  144.7735  139.7762  143.6288 H   0  0  0  0  0  0  0  0  0  0  0  0  # atno 7974 bound_to 7965
  154.4029  140.1320  156.4344 H   0  0  0  0  0  0  0  0  0  0  0  0  # atno 8008 bound_to 7997
  155.7519  140.3488  155.5135 H   0  0  0  0  0  0  0  0  0  0  0  0  # atno 8009 bound_to 7997
  155.8941  140.1008  157.1387 H   0  0  0  0  0  0  0  0  0  0  0  0  # atno 8010 bound_to 7997
  139.5055  144.6247  151.5966 H   0  0  0  0  0  0  0  0  0  0  0  0  # atno 10167 bound_to 10162
  156.9773  130.5992  149.5673 H   0  0  0  0  0  0  0  0  0  0  0  0  # atno 10718 bound_to 10713
  153.8591  135.6841  153.4784 H   0  0  0  0  0  0  0  0  0  0  0  0  # atno 10763 bound_to 10752
  153.1352  135.4681  154.9409 H   0  0  0  0  0  0  0  0  0  0  0  0  # atno 10764 bound_to 10752
  154.7767  135.3255  154.8026 H   0  0  0  0  0  0  0  0  0  0  0  0  # atno 10765 bound_to 10752
  140.5133  134.5780  157.5026 H   0  0  0  0  0  0  0  0  0  0  0  0  # atno 11005 bound_to 11000
  146.1898  139.5133  142.9812 LP  0  0  0  0  0  0  0  0  0  0  0  0  # atno 17320 bound_to 7965
  145.6254  141.0314  143.1892 LP  0  0  0  0  0  0  0  0  0  0  0  0  # atno 17321 bound_to 7965
  140.5960  143.9695  150.6355 LP  0  0  0  0  0  0  0  0  0  0  0  0  # atno 17342 bound_to 10162
  140.2891  143.3337  152.1079 LP  0  0  0  0  0  0  0  0  0  0  0  0  # atno 17343 bound_to 10162
  156.0259  130.5352  150.8404 LP  0  0  0  0  0  0  0  0  0  0  0  0  # atno 17370 bound_to 10713
  157.5551  131.0945  150.9640 LP  0  0  0  0  0  0  0  0  0  0  0  0  # atno 17371 bound_to 10713
  139.9646  134.7394  156.0165 LP  0  0  0  0  0  0  0  0  0  0  0  0  # atno 17394 bound_to 11000
  141.1373  133.6572  156.3631 LP  0  0  0  0  0  0  0  0  0  0  0  0  # atno 17395 bound_to 11000

$$$$
