AV-unprocessed.smi:2750|AV-procd|sdf|10591|dock1
  -GOLD-   2272015 43D 1   1.00000     0.00000
 Structure written by MMmdl.
 24 25  0  0  0  0  0  0  0  0  3 V2000
  146.5478  137.4010  160.6430 O   0  0  0  0  0  0  0  0  0  0  0  0
  147.4149  136.7221  161.2357 C   0  0  0  0  0  0  0  0  0  0  0  0
  147.8715  136.9573  162.3757 O   0  5  0  0  0  0  0  0  0  0  0  0
  147.9649  135.4991  160.5024 C   0  0  0  0  0  0  0  0  0  0  0  0
  148.6121  135.8616  159.2548 N   0  0  0  0  0  0  0  0  0  0  0  0
  148.7055  137.1060  158.6666 C   0  0  0  0  0  0  0  0  0  0  0  0
  149.4144  136.8658  157.5245 C   0  0  0  0  0  0  0  0  0  0  0  0
  149.8360  137.8294  156.4558 C   0  0  0  0  0  0  0  0  0  0  0  0
  151.3413  137.7432  156.1323 C   0  0  2  0  0  0  0  0  0  0  0  0
  152.1216  137.4451  157.3144 N   0  0  0  0  0  0  0  0  0  0  0  0
  153.0323  138.3883  157.5461 C   0  0  0  0  0  0  0  0  0  0  0  0
  153.8116  138.3166  158.4936 O   0  0  0  0  0  0  0  0  0  0  0  0
  152.9374  139.3615  156.6193 N   0  5  0  0  0  0  0  0  0  0  0  0
  151.9561  139.0841  155.7341 C   0  0  0  0  0  0  0  0  0  0  0  0
  151.5638  139.7197  154.7567 O   0  0  0  0  0  0  0  0  0  0  0  0
  149.7148  135.5048  157.4629 N   0  0  0  0  0  0  0  0  0  0  0  0
  149.2303  134.9136  158.5099 N   0  0  0  0  0  0  0  0  0  0  0  0
  148.6740  134.9713  161.1422 H   0  0  0  0  0  0  0  0  0  0  0  0
  147.1547  134.8020  160.2846 H   0  0  0  0  0  0  0  0  0  0  0  0
  148.2840  138.0037  159.0942 H   0  0  0  0  0  0  0  0  0  0  0  0
  149.2640  137.6240  155.5500 H   0  0  0  0  0  0  0  0  0  0  0  0
  149.5721  138.8485  156.7431 H   0  0  0  0  0  0  0  0  0  0  0  0
  151.5384  137.0055  155.3529 H   0  0  0  0  0  0  0  0  0  0  0  0
  151.9869  136.6169  157.8758 H   0  0  0  0  0  0  0  0  0  0  0  0
  1  2  2  0  0  0  0
  2  3  1  0  0  0  0
  2  4  1  0  0  0  0
  4  5  1  0  0  0  0
  4 18  1  0  0  0  0
  4 19  1  0  0  0  0
  5 17  1  0  0  0  0
  5  6  1  0  0  0  0
  6  7  2  0  0  0  0
  6 20  1  0  0  0  0
  7  8  1  0  0  0  0
  7 16  1  0  0  0  0
  8  9  1  0  0  0  0
  8 21  1  0  0  0  0
  8 22  1  0  0  0  0
  9 14  1  0  0  0  0
  9 10  1  0  0  0  0
  9 23  1  0  0  0  0
 10 11  1  0  0  0  0
 10 24  1  0  0  0  0
 11 12  2  0  0  0  0
 11 13  1  0  0  0  0
 13 14  1  0  0  0  0
 14 15  2  0  0  0  0
 16 17  2  0  0  0  0
M  CHG  1   3  -1
M  CHG  1  13  -1
M  END
> <s_m_source_file>
AV-unprocessed.smi

> <i_m_source_file_index>
2750

> <i_lp_mmshare_version>
43012

> <i_f3d_flags>
0

> <s_epik_input>
Tz1DKFtPSF0pW0NIMl1uMVtjSF1jKG5uMSlbQ0gyXVtDQEBIXTJbTkhdQyg9TylbTkhdQzI9Tw==

> <s_epik_cmdline>
J2VwaWtfcHl0aG9uJywgJy1waCcsICc3LjAnLCAnLXRuJywgJzgnLCAnLW1hJywgJzIwMCcsICctbWV0YWxfYmluZGluZycsICctaW1hZScsICc8aW5maWxlLm1hZT4nLCAnLW9tYWUnLCAnPG91dGZpbGUubWFlPic=

> <r_lp_tautomer_probability>
1

> <r_epik_Ionization_Penalty>
2.03209

> <r_epik_Ionization_Penalty_Charging>
2.03208

> <r_epik_Ionization_Penalty_Neutral>
1.30912e-05

> <r_epik_State_Penalty>
2.16313

> <r_epik_Charging_Adjusted_Penalty>
4.19521

> <i_epik_Tot_Q>
-2

> <i_epik_Tot_abs_Q>
2

> <r_epik_Metal_State_Penalty>
0.529162

> <b_epik_Metal_Only>
0

> <s_lp_Force_Field>
OPLS_2005

> <r_lp_Energy>
4.69522

> <b_lp_Chiralities_Consistent>
1

> <s_lp_Variant>
AV-unprocessed.smi:2750-3

> <Gold.Version>
5.8.1

> <Gold.Id.Protein>
6NUR|6NUR_protein|mol2

> <Gold.PLP.Fitness>
42.0051

> <Gold.PLP.PLP>
-18.8465

> <Gold.PLP.part.hbond>
-5.3471

> <Gold.PLP.part.metal>
0.0000

> <Gold.PLP.part.buried>
-3.1647

> <Gold.PLP.part.nonpolar>
-9.9449

> <Gold.PLP.part.repulsive>
0.1804

> <Gold.PLP.ligand.clash>
0.0000

> <Gold.PLP.ligand.torsion>
0.4423

> <Gold.PLP.Chemscore.Hbond>
8.0000

> <Gold.PLP.Chemscore.CHOScore>
0.0000

> <Gold.PLP.Chemscore.Metal>
0.0000

> <Gold.Chemscore.Hbonds>
donor molecule, donor type, donor heavy atom, donor atom, acceptor molecule, acceptor atom, score
      P1  H  6896  6909       L1    17  1.00
      P1  H  6931  6943       L1     3  1.90
      P1  H  6934  6947       L1     1  2.00
      P1  H  7989  7998       L1    15  1.00
      P1  H  7997  8009       L1    13  2.00

> <Gold.PLP.Chemscore.Internal.Correction>
0.0433

> <Gold.Rescore>
     Score         DG    S(hbond)    S(metal)    S(lipo)     H(rot)  DE(clash)    DE(int)     intcor
      8.67     -11.55       3.31        0.00      18.49       2.80       0.01       2.87       ----

> <Gold.Chemscore.Fitness>
8.6733

> <Gold.Chemscore.DG>
-11.5529

> <Gold.Chemscore.ZeroCoef>
-5.4800

> <Gold.Chemscore.Hbond>
3.3146

> <Gold.Chemscore.Metal>
0.0000

> <Gold.Chemscore.Lipo>
18.4888

> <Gold.Chemscore.Internal_Hbond>
0.0000

> <Gold.Chemscore.DEClash>
0.0067

> <Gold.Chemscore.DEInternal>
2.8729

> <Gold.Chemscore.Rot>
2.7973

> <Gold.Chemscore.Internal.Correction>
   9.000000E+99

> <Gold.Chemscore.Hbonds>
donor molecule, donor type, donor heavy atom, donor atom, acceptor molecule, acceptor atom, score
      P1  H  6896  6909       L1    17  0.39
      P1  H  6931  6943       L1     3  0.21
      P1  H  6934  6947       L1     1  0.30
      P1  H  7989  7998       L1    15  0.99
      P1  H  7997  8009       L1    13  0.29

> <Gold.Chemscore.Hbond.Weighted>
-11.0709

> <Gold.Chemscore.Metal.Weighted>
-0.0000

> <Gold.Chemscore.Lipo.Weighted>
-2.1632

> <Gold.Chemscore.Internal_Hbond.Weighted>
0.0000

> <Gold.Chemscore.DEClash.Weighted>
0.0067

> <Gold.Chemscore.DEInternal.Weighted>
2.8729

> <Gold.Chemscore.Rot.Weighted>
7.1611

> <Gold.Chemscore.Internal.Correction.Weighted>
   9.000000E+99

> <Gold.Protein.RotatedTorsions>
[ 6907 6896 6895 6894 ] final   30.78 input  -60.11 | X-H torsion
[ 7974 7965 7964 7962 ] final -103.69 input  175.53 | X-H torsion
[ 8008 7997 7996 7995 ] final  171.90 input   59.86 | X-H torsion
[ 10167 10162 10161 10158 ] final   23.02 input  -65.29 | X-H torsion
[ 10718 10713 10712 10709 ] final  151.39 input   66.30 | X-H torsion
[ 10763 10752 10751 10750 ] final   37.66 input  -60.55 | X-H torsion
[ 11005 11000 10999 10996 ] final   11.24 input  -57.11 | X-H torsion

> <Gold.Protein.ActiveResidues>
 VAL166  LYS551  ARG553  GLY616  TRP617  ASP618  TYR619  PRO620  LYS621  CYS622 
 ASP623  PHE694  ASN695  SER759  ASP760  ASP761  ALA762  ILE779  LEU786  VAL792 
 PHE793  MET794  SER795  GLU796  ALA797  LYS798  CYS799  TRP800  GLU811  SER814 

> <Gold.Protein.RotatedAtoms>
  152.0508  134.9654  160.0574 H   0  0  0  0  0  0  0  0  0  0  0  0  # atno 6907 bound_to 6896
  152.1056  133.4268  159.4615 H   0  0  0  0  0  0  0  0  0  0  0  0  # atno 6908 bound_to 6896
  150.6841  134.2628  159.4599 H   0  0  0  0  0  0  0  0  0  0  0  0  # atno 6909 bound_to 6896
  145.2527  140.9243  143.3086 H   0  0  0  0  0  0  0  0  0  0  0  0  # atno 7974 bound_to 7965
  156.1227  140.1500  156.9181 H   0  0  0  0  0  0  0  0  0  0  0  0  # atno 8008 bound_to 7997
  154.4848  140.0868  156.7502 H   0  0  0  0  0  0  0  0  0  0  0  0  # atno 8009 bound_to 7997
  155.4400  140.3430  155.4291 H   0  0  0  0  0  0  0  0  0  0  0  0  # atno 8010 bound_to 7997
  140.5302  143.9855  150.6461 H   0  0  0  0  0  0  0  0  0  0  0  0  # atno 10167 bound_to 10162
  157.2713  131.0817  151.1598 H   0  0  0  0  0  0  0  0  0  0  0  0  # atno 10718 bound_to 10713
  153.0029  135.6271  154.2180 H   0  0  0  0  0  0  0  0  0  0  0  0  # atno 10763 bound_to 10752
  154.1923  135.2808  155.3019 H   0  0  0  0  0  0  0  0  0  0  0  0  # atno 10764 bound_to 10752
  154.5749  135.5665  153.7190 H   0  0  0  0  0  0  0  0  0  0  0  0  # atno 10765 bound_to 10752
  140.5055  134.0704  155.7804 H   0  0  0  0  0  0  0  0  0  0  0  0  # atno 11005 bound_to 11000
  144.9488  139.4106  143.6412 LP  0  0  0  0  0  0  0  0  0  0  0  0  # atno 17320 bound_to 7965
  146.3298  139.8485  142.8877 LP  0  0  0  0  0  0  0  0  0  0  0  0  # atno 17321 bound_to 7965
  140.3227  143.3127  152.0767 LP  0  0  0  0  0  0  0  0  0  0  0  0  # atno 17342 bound_to 10162
  139.4951  144.6562  151.6566 LP  0  0  0  0  0  0  0  0  0  0  0  0  # atno 17343 bound_to 10162
  157.3068  130.6870  149.6194 LP  0  0  0  0  0  0  0  0  0  0  0  0  # atno 17370 bound_to 10713
  155.9663  130.4375  150.5179 LP  0  0  0  0  0  0  0  0  0  0  0  0  # atno 17371 bound_to 10713
  141.1413  133.9133  157.2319 LP  0  0  0  0  0  0  0  0  0  0  0  0  # atno 17394 bound_to 11000
  139.9689  135.0134  156.9459 LP  0  0  0  0  0  0  0  0  0  0  0  0  # atno 17395 bound_to 11000

$$$$
