AV-unprocessed.smi:2525|AV-procd|sdf|9928|dock9
  -GOLD-   2272013573D 1   1.00000     0.00000
 Structure written by MMmdl.
 44 45  0  0  0  0  0  0  0  0  1 V2000
  147.5199  141.6176  157.1797 C   0  0  0  0  0  0  0  0  0  0  0  0
  147.6048  140.4994  156.1241 C   0  0  0  0  0  0  0  0  0  0  0  0
  148.5917  140.7239  154.9410 C   0  0  0  0  0  0  0  0  0  0  0  0
  148.1388  141.9381  154.1072 C   0  0  0  0  0  0  0  0  0  0  0  0
  146.6307  141.9892  153.8166 C   0  0  0  0  0  0  0  0  0  0  0  0
  150.1149  140.6759  155.2517 C   0  0  1  0  0  0  0  0  0  0  0  0
  150.4900  141.0067  156.6219 N   0  0  0  0  0  0  0  0  0  0  0  0
  151.6415  140.6414  157.2034 C   0  0  0  0  0  0  0  0  0  0  0  0
  152.5100  139.9869  156.6245 O   0  0  0  0  0  0  0  0  0  0  0  0
  151.8345  141.1085  158.6509 C   0  0  0  0  0  0  0  0  0  0  0  0
  151.9184  142.5549  158.7650 N   0  0  0  0  0  0  0  0  0  0  0  0
  152.3021  143.3114  159.8535 C   0  0  0  0  0  0  0  0  0  0  0  0
  152.2021  144.5952  159.3987 C   0  0  0  0  0  0  0  0  0  0  0  0
  151.7663  144.5678  158.0750 N   0  0  0  0  0  0  0  0  0  0  0  0
  151.5996  143.3369  157.7053 N   0  0  0  0  0  0  0  0  0  0  0  0
  150.1124  139.1649  154.9960 C   0  0  2  0  0  0  0  0  0  0  0  0
  151.3601  138.5214  154.4053 C   0  0  0  0  0  0  0  0  0  0  0  0
  148.8986  139.4548  154.1000 C   0  0  1  0  0  0  0  0  0  0  0  0
  147.8609  138.4874  154.1597 O   0  0  0  0  0  0  0  0  0  0  0  0
  146.8059  138.7408  153.2494 C   0  0  0  0  0  0  0  0  0  0  0  0
  146.8796  141.3077  158.0058 H   0  0  0  0  0  0  0  0  0  0  0  0
  147.0872  142.5300  156.7705 H   0  0  0  0  0  0  0  0  0  0  0  0
  148.4903  141.8684  157.6018 H   0  0  0  0  0  0  0  0  0  0  0  0
  147.8538  139.5756  156.6460 H   0  0  0  0  0  0  0  0  0  0  0  0
  146.5983  140.3303  155.7413 H   0  0  0  0  0  0  0  0  0  0  0  0
  148.4568  142.8713  154.5713 H   0  0  0  0  0  0  0  0  0  0  0  0
  148.6534  141.9266  153.1457 H   0  0  0  0  0  0  0  0  0  0  0  0
  146.3971  142.8210  153.1518 H   0  0  0  0  0  0  0  0  0  0  0  0
  146.0463  142.1272  154.7259 H   0  0  0  0  0  0  0  0  0  0  0  0
  146.2883  141.0746  153.3322 H   0  0  0  0  0  0  0  0  0  0  0  0
  150.7092  141.1952  154.4951 H   0  0  0  0  0  0  0  0  0  0  0  0
  149.8315  141.5503  157.1609 H   0  0  0  0  0  0  0  0  0  0  0  0
  151.0056  140.7453  159.2603 H   0  0  0  0  0  0  0  0  0  0  0  0
  152.7490  140.6775  159.0611 H   0  0  0  0  0  0  0  0  0  0  0  0
  152.6003  142.8915  160.8027 H   0  0  0  0  0  0  0  0  0  0  0  0
  152.4055  145.5262  159.9071 H   0  0  0  0  0  0  0  0  0  0  0  0
  149.7898  138.6289  155.8905 H   0  0  0  0  0  0  0  0  0  0  0  0
  151.6409  138.9887  153.4612 H   0  0  0  0  0  0  0  0  0  0  0  0
  151.2109  137.4588  154.2163 H   0  0  0  0  0  0  0  0  0  0  0  0
  152.2075  138.6170  155.0843 H   0  0  0  0  0  0  0  0  0  0  0  0
  149.1838  139.7039  153.0747 H   0  0  0  0  0  0  0  0  0  0  0  0
  146.0276  137.9888  153.3776 H   0  0  0  0  0  0  0  0  0  0  0  0
  147.1506  138.6904  152.2172 H   0  0  0  0  0  0  0  0  0  0  0  0
  146.3586  139.7203  153.4243 H   0  0  0  0  0  0  0  0  0  0  0  0
  1  2  1  0  0  0  0
  1 21  1  0  0  0  0
  1 22  1  0  0  0  0
  1 23  1  0  0  0  0
  2  3  1  0  0  0  0
  2 24  1  0  0  0  0
  2 25  1  0  0  0  0
  3 18  1  0  0  0  0
  3  4  1  0  0  0  0
  3  6  1  0  0  0  0
  4  5  1  0  0  0  0
  4 26  1  0  0  0  0
  4 27  1  0  0  0  0
  5 28  1  0  0  0  0
  5 29  1  0  0  0  0
  5 30  1  0  0  0  0
  6  7  1  0  0  0  0
  6 16  1  0  0  0  0
  6 31  1  0  0  0  0
  7  8  1  0  0  0  0
  7 32  1  0  0  0  0
  8  9  2  0  0  0  0
  8 10  1  0  0  0  0
 10 11  1  0  0  0  0
 10 33  1  0  0  0  0
 10 34  1  0  0  0  0
 11 15  1  0  0  0  0
 11 12  1  0  0  0  0
 12 13  2  0  0  0  0
 12 35  1  0  0  0  0
 13 14  1  0  0  0  0
 13 36  1  0  0  0  0
 14 15  2  0  0  0  0
 16 17  1  0  0  0  0
 16 18  1  0  0  0  0
 16 37  1  0  0  0  0
 17 38  1  0  0  0  0
 17 39  1  0  0  0  0
 17 40  1  0  0  0  0
 18 19  1  0  0  0  0
 18 41  1  0  0  0  0
 19 20  1  0  0  0  0
 20 42  1  0  0  0  0
 20 43  1  0  0  0  0
 20 44  1  0  0  0  0
M  END
> <s_m_source_file>
AV-unprocessed.smi

> <i_m_source_file_index>
2525

> <i_lp_mmshare_version>
43012

> <i_f3d_flags>
0

> <s_epik_input>
W0NIM11PW0NAQEhdMVtDQEhdKFtDSDNdKVtDQEBIXShDMShbQ0gyXVtDSDNdKVtDSDJdW0NIM10pW05IXUMoPU8pW0NIMl1uMltjSF1bY0hdbm4y

> <s_epik_cmdline>
J2VwaWtfcHl0aG9uJywgJy1waCcsICc3LjAnLCAnLXRuJywgJzgnLCAnLW1hJywgJzIwMCcsICctbWV0YWxfYmluZGluZycsICctaW1hZScsICc8aW5maWxlLm1hZT4nLCAnLW9tYWUnLCAnPG91dGZpbGUubWFlPic=

> <r_lp_tautomer_probability>
1

> <r_epik_Ionization_Penalty>
1.18045e-06

> <r_epik_Ionization_Penalty_Charging>
0

> <r_epik_Ionization_Penalty_Neutral>
1.18045e-06

> <r_epik_State_Penalty>
-0

> <r_epik_Charging_Adjusted_Penalty>
0

> <i_epik_Tot_Q>
0

> <i_epik_Tot_abs_Q>
0

> <r_epik_Metal_State_Penalty>
-0

> <b_epik_Metal_Only>
0

> <s_lp_Force_Field>
OPLS_2005

> <r_lp_Energy>
27.7257

> <b_lp_Chiralities_Consistent>
1

> <s_lp_Variant>
AV-unprocessed.smi:2525-3

> <Gold.Version>
5.8.1

> <Gold.Id.Protein>
6NUR|6NUR_protein|mol2

> <Gold.PLP.Fitness>
39.6672

> <Gold.PLP.PLP>
-37.5052

> <Gold.PLP.part.hbond>
-1.0000

> <Gold.PLP.part.metal>
0.0000

> <Gold.PLP.part.buried>
-3.0595

> <Gold.PLP.part.nonpolar>
-32.5134

> <Gold.PLP.part.repulsive>
0.4056

> <Gold.PLP.ligand.clash>
0.0000

> <Gold.PLP.ligand.torsion>
0.7203

> <Gold.PLP.Chemscore.Hbond>
1.0000

> <Gold.PLP.Chemscore.CHOScore>
0.0000

> <Gold.PLP.Chemscore.Metal>
0.0000

> <Gold.Chemscore.Hbonds>
donor molecule, donor type, donor heavy atom, donor atom, acceptor molecule, acceptor atom, score
      P1  H  7997  8008       L1     9  1.00

> <Gold.PLP.Chemscore.Internal.Correction>
0.6025

> <Gold.Rescore>
     Score         DG    S(hbond)    S(metal)    S(lipo)     H(rot)  DE(clash)    DE(int)     intcor
     11.13     -14.18       0.99        0.00      89.38       1.98       0.09       2.96       ----

> <Gold.Chemscore.Fitness>
11.1345

> <Gold.Chemscore.DG>
-14.1837

> <Gold.Chemscore.ZeroCoef>
-5.4800

> <Gold.Chemscore.Hbond>
0.9937

> <Gold.Chemscore.Metal>
0.0000

> <Gold.Chemscore.Lipo>
89.3831

> <Gold.Chemscore.Internal_Hbond>
0.0000

> <Gold.Chemscore.DEClash>
0.0900

> <Gold.Chemscore.DEInternal>
2.9592

> <Gold.Chemscore.Rot>
1.9817

> <Gold.Chemscore.Internal.Correction>
   9.000000E+99

> <Gold.Chemscore.Hbonds>
donor molecule, donor type, donor heavy atom, donor atom, acceptor molecule, acceptor atom, score
      P1  H  7997  8008       L1     9  0.98

> <Gold.Chemscore.Hbond.Weighted>
-3.3190

> <Gold.Chemscore.Metal.Weighted>
-0.0000

> <Gold.Chemscore.Lipo.Weighted>
-10.4578

> <Gold.Chemscore.Internal_Hbond.Weighted>
0.0000

> <Gold.Chemscore.DEClash.Weighted>
0.0900

> <Gold.Chemscore.DEInternal.Weighted>
2.9592

> <Gold.Chemscore.Rot.Weighted>
5.0731

> <Gold.Chemscore.Internal.Correction.Weighted>
   9.000000E+99

> <Gold.Protein.RotatedTorsions>
[ 6907 6896 6895 6894 ] final -132.43 input  -60.11 | X-H torsion
[ 7974 7965 7964 7962 ] final  -93.42 input  175.53 | X-H torsion
[ 8008 7997 7996 7995 ] final  -39.17 input   59.86 | X-H torsion
[ 10167 10162 10161 10158 ] final  161.31 input  -65.29 | X-H torsion
[ 10718 10713 10712 10709 ] final   44.13 input   66.30 | X-H torsion
[ 10763 10752 10751 10750 ] final   31.14 input  -60.55 | X-H torsion
[ 11005 11000 10999 10996 ] final  -64.58 input  -57.11 | X-H torsion

> <Gold.Protein.ActiveResidues>
 VAL166  LYS551  ARG553  GLY616  TRP617  ASP618  TYR619  PRO620  LYS621  CYS622 
 ASP623  PHE694  ASN695  SER759  ASP760  ASP761  ALA762  ILE779  LEU786  VAL792 
 PHE793  MET794  SER795  GLU796  ALA797  LYS798  CYS799  TRP800  GLU811  SER814 

> <Gold.Protein.RotatedAtoms>
  150.9624  133.6431  159.2751 H   0  0  0  0  0  0  0  0  0  0  0  0  # atno 6907 bound_to 6896
  151.3749  135.0928  159.9487 H   0  0  0  0  0  0  0  0  0  0  0  0  # atno 6908 bound_to 6896
  152.5152  133.9170  159.7570 H   0  0  0  0  0  0  0  0  0  0  0  0  # atno 6909 bound_to 6896
  145.3868  140.9524  143.2363 H   0  0  0  0  0  0  0  0  0  0  0  0  # atno 7974 bound_to 7965
  154.4026  140.1558  156.2820 H   0  0  0  0  0  0  0  0  0  0  0  0  # atno 8008 bound_to 7997
  155.8861  140.3441  155.5901 H   0  0  0  0  0  0  0  0  0  0  0  0  # atno 8009 bound_to 7997
  155.7611  140.0817  157.2145 H   0  0  0  0  0  0  0  0  0  0  0  0  # atno 8010 bound_to 7997
  139.4848  144.4548  151.8782 H   0  0  0  0  0  0  0  0  0  0  0  0  # atno 10167 bound_to 10162
  157.4235  130.7983  149.7537 H   0  0  0  0  0  0  0  0  0  0  0  0  # atno 10718 bound_to 10713
  153.0332  135.6446  154.1154 H   0  0  0  0  0  0  0  0  0  0  0  0  # atno 10763 bound_to 10752
  154.0873  135.2869  155.3280 H   0  0  0  0  0  0  0  0  0  0  0  0  # atno 10764 bound_to 10752
  154.6489  135.5433  153.7942 H   0  0  0  0  0  0  0  0  0  0  0  0  # atno 10765 bound_to 10752
  141.1429  133.6668  156.5855 H   0  0  0  0  0  0  0  0  0  0  0  0  # atno 11005 bound_to 11000
  144.8468  139.5384  143.6875 LP  0  0  0  0  0  0  0  0  0  0  0  0  # atno 17320 bound_to 7965
  146.2816  139.6893  142.9225 LP  0  0  0  0  0  0  0  0  0  0  0  0  # atno 17321 bound_to 7965
  140.4007  144.2496  150.5893 LP  0  0  0  0  0  0  0  0  0  0  0  0  # atno 17342 bound_to 10162
  140.5059  143.2304  151.8608 LP  0  0  0  0  0  0  0  0  0  0  0  0  # atno 17343 bound_to 10162
  155.9888  130.3956  150.3100 LP  0  0  0  0  0  0  0  0  0  0  0  0  # atno 17370 bound_to 10713
  157.1250  131.0257  151.2993 LP  0  0  0  0  0  0  0  0  0  0  0  0  # atno 17371 bound_to 10713
  140.3804  134.7528  157.4657 LP  0  0  0  0  0  0  0  0  0  0  0  0  # atno 17394 bound_to 11000
  140.0642  134.5953  155.8714 LP  0  0  0  0  0  0  0  0  0  0  0  0  # atno 17395 bound_to 11000

$$$$
