AV-unprocessed.smi:812|AV-procd|sdf|3815|dock9
  -GOLD-   22720 1253D 1   1.00000     0.00000
 Structure written by MMmdl.
 38 40  0  0  0  0  0  0  0  0  1 V2000
  152.2504  144.0777  161.5633 C   0  0  0  0  0  0  0  0  0  0  0  0
  152.5206  142.9137  160.6987 N   0  0  0  0  0  0  0  0  0  0  0  0
  151.8842  142.8450  159.4871 C   0  0  0  0  0  0  0  0  0  0  0  0
  151.0957  143.6866  159.0539 O   0  0  0  0  0  0  0  0  0  0  0  0
  152.2184  141.6487  158.7102 C   0  0  0  0  0  0  0  0  0  0  0  0
  153.0799  140.6997  159.1485 C   0  0  0  0  0  0  0  0  0  0  0  0
  153.2174  139.6730  158.2211 N   0  0  0  0  0  0  0  0  0  0  0  0
  152.4031  140.0719  157.2427 C   0  0  0  0  0  0  0  0  0  0  0  0
  151.7664  141.2416  157.4568 N   0  0  0  0  0  0  0  0  0  0  0  0
  150.8292  141.8947  156.5562 C   0  0  0  0  0  0  0  0  0  0  0  0
  149.9473  140.8931  155.7843 C   0  0  2  0  0  0  0  0  0  0  0  0
  150.6256  140.4460  154.6258 O   0  0  0  0  0  0  0  0  0  0  0  0
  148.5877  141.4932  155.4619 C   0  0  0  0  0  0  0  0  0  0  0  0
  147.7380  141.9117  156.5083 C   0  0  0  0  0  0  0  0  0  0  0  0
  146.4812  142.4782  156.2188 C   0  0  0  0  0  0  0  0  0  0  0  0
  146.0684  142.6320  154.8812 C   0  0  0  0  0  0  0  0  0  0  0  0
  144.8606  143.1770  154.6031 F   0  0  0  0  0  0  0  0  0  0  0  0
  146.9133  142.2202  153.8329 C   0  0  0  0  0  0  0  0  0  0  0  0
  148.1701  141.6535  154.1219 C   0  0  0  0  0  0  0  0  0  0  0  0
  153.6867  140.8680  160.4178 N   0  0  0  0  0  0  0  0  0  0  0  0
  154.6132  139.8214  160.8594 C   0  0  0  0  0  0  0  0  0  0  0  0
  153.4059  141.9688  161.1911 C   0  0  0  0  0  0  0  0  0  0  0  0
  153.9308  142.1106  162.2989 O   0  0  0  0  0  0  0  0  0  0  0  0
  151.5713  144.8178  161.1387 H   0  0  0  0  0  0  0  0  0  0  0  0
  153.1771  144.6066  161.7923 H   0  0  0  0  0  0  0  0  0  0  0  0
  151.8077  143.7540  162.5067 H   0  0  0  0  0  0  0  0  0  0  0  0
  152.2613  139.4926  156.3420 H   0  0  0  0  0  0  0  0  0  0  0  0
  150.2124  142.5806  157.1374 H   0  0  0  0  0  0  0  0  0  0  0  0
  151.3953  142.5135  155.8581 H   0  0  0  0  0  0  0  0  0  0  0  0
  149.7878  140.0101  156.4040 H   0  0  0  0  0  0  0  0  0  0  0  0
  149.9963  140.0412  154.0483 H   0  0  0  0  0  0  0  0  0  0  0  0
  148.0479  141.8017  157.5374 H   0  0  0  0  0  0  0  0  0  0  0  0
  145.8344  142.7960  157.0233 H   0  0  0  0  0  0  0  0  0  0  0  0
  146.5987  142.3402  152.8067 H   0  0  0  0  0  0  0  0  0  0  0  0
  148.8129  141.3453  153.3104 H   0  0  0  0  0  0  0  0  0  0  0  0
  155.0514  139.9920  161.8430 H   0  0  0  0  0  0  0  0  0  0  0  0
  155.4362  139.7308  160.1497 H   0  0  0  0  0  0  0  0  0  0  0  0
  154.0978  138.8612  160.8970 H   0  0  0  0  0  0  0  0  0  0  0  0
  1  2  1  0  0  0  0
  1 24  1  0  0  0  0
  1 25  1  0  0  0  0
  1 26  1  0  0  0  0
  2 22  1  0  0  0  0
  2  3  1  0  0  0  0
  3  4  2  0  0  0  0
  3  5  1  0  0  0  0
  5  9  1  0  0  0  0
  5  6  2  0  0  0  0
  6  7  1  0  0  0  0
  6 20  1  0  0  0  0
  7  8  2  0  0  0  0
  8  9  1  0  0  0  0
  8 27  1  0  0  0  0
  9 10  1  0  0  0  0
 10 11  1  0  0  0  0
 10 28  1  0  0  0  0
 10 29  1  0  0  0  0
 11 12  1  0  0  0  0
 11 13  1  0  0  0  0
 11 30  1  0  0  0  0
 12 31  1  0  0  0  0
 13 19  1  0  0  0  0
 13 14  2  0  0  0  0
 14 15  1  0  0  0  0
 14 32  1  0  0  0  0
 15 16  2  0  0  0  0
 15 33  1  0  0  0  0
 16 17  1  0  0  0  0
 16 18  1  0  0  0  0
 18 19  2  0  0  0  0
 18 34  1  0  0  0  0
 19 35  1  0  0  0  0
 20 21  1  0  0  0  0
 20 22  1  0  0  0  0
 21 36  1  0  0  0  0
 21 37  1  0  0  0  0
 21 38  1  0  0  0  0
 22 23  2  0  0  0  0
M  END
> <s_m_source_file>
AV-unprocessed.smi

> <i_m_source_file_index>
812

> <i_lp_mmshare_version>
43012

> <i_f3d_flags>
0

> <s_epik_input>
Tz1jMW4oW0NIM10pYyg9TyluKFtDSDNdKWMoYzEyKW5bY0hdbjJbQ0gyXVtDQEhdKFtPSF0pYzNbY0hdW2NIXWMoRilbY0hdW2NIXTM=

> <s_epik_cmdline>
J2VwaWtfcHl0aG9uJywgJy1waCcsICc3LjAnLCAnLXRuJywgJzgnLCAnLW1hJywgJzIwMCcsICctbWV0YWxfYmluZGluZycsICctaW1hZScsICc8aW5maWxlLm1hZT4nLCAnLW9tYWUnLCAnPG91dGZpbGUubWFlPic=

> <r_lp_tautomer_probability>
1

> <r_epik_Ionization_Penalty>
1.45649e-06

> <r_epik_Ionization_Penalty_Charging>
3.74189e-09

> <r_epik_Ionization_Penalty_Neutral>
1.45275e-06

> <r_epik_State_Penalty>
-0

> <r_epik_Charging_Adjusted_Penalty>
3.74189e-09

> <i_epik_Tot_Q>
0

> <i_epik_Tot_abs_Q>
0

> <r_epik_Metal_State_Penalty>
-0

> <b_epik_Metal_Only>
0

> <s_lp_Force_Field>
OPLS_2005

> <r_lp_Energy>
34.9814

> <b_lp_Chiralities_Consistent>
1

> <s_lp_Variant>
AV-unprocessed.smi:812-1

> <Gold.Version>
5.8.1

> <Gold.Id.Protein>
6NUR|6NUR_protein|mol2

> <Gold.PLP.Fitness>
54.1151

> <Gold.PLP.PLP>
-49.8547

> <Gold.PLP.part.hbond>
-2.8674

> <Gold.PLP.part.metal>
0.0000

> <Gold.PLP.part.buried>
-4.8093

> <Gold.PLP.part.nonpolar>
-41.3344

> <Gold.PLP.part.repulsive>
0.1090

> <Gold.PLP.ligand.clash>
0.0000

> <Gold.PLP.ligand.torsion>
0.6963

> <Gold.PLP.Chemscore.Hbond>
1.8760

> <Gold.PLP.Chemscore.CHOScore>
0.0000

> <Gold.PLP.Chemscore.Metal>
0.0000

> <Gold.Chemscore.Hbonds>
donor molecule, donor type, donor heavy atom, donor atom, acceptor molecule, acceptor atom, score
      P1  H  7989  7998       L1    12  0.80
      P1  H  7997  8008       L1     7  0.50

> <Gold.PLP.Chemscore.Internal.Correction>
0.0249

> <Gold.Rescore>
     Score         DG    S(hbond)    S(metal)    S(lipo)     H(rot)  DE(clash)    DE(int)     intcor
     10.77     -11.44       0.99        0.00      71.63       2.24       0.06       0.61       ----

> <Gold.Chemscore.Fitness>
10.7682

> <Gold.Chemscore.DG>
-11.4382

> <Gold.Chemscore.ZeroCoef>
-5.4800

> <Gold.Chemscore.Hbond>
0.9900

> <Gold.Chemscore.Metal>
0.0000

> <Gold.Chemscore.Lipo>
71.6265

> <Gold.Chemscore.Internal_Hbond>
0.0000

> <Gold.Chemscore.DEClash>
0.0622

> <Gold.Chemscore.DEInternal>
0.6078

> <Gold.Chemscore.Rot>
2.2377

> <Gold.Chemscore.Internal.Correction>
   9.000000E+99

> <Gold.Chemscore.Hbonds>
donor molecule, donor type, donor heavy atom, donor atom, acceptor molecule, acceptor atom, score
      P1  H  7989  7998       L1    12  0.11
      P1  H  7997  8008       L1     7  0.02

> <Gold.Chemscore.Hbond.Weighted>
-3.3065

> <Gold.Chemscore.Metal.Weighted>
-0.0000

> <Gold.Chemscore.Lipo.Weighted>
-8.3803

> <Gold.Chemscore.Internal_Hbond.Weighted>
0.0000

> <Gold.Chemscore.DEClash.Weighted>
0.0622

> <Gold.Chemscore.DEInternal.Weighted>
0.6078

> <Gold.Chemscore.Rot.Weighted>
5.7286

> <Gold.Chemscore.Internal.Correction.Weighted>
   9.000000E+99

> <Gold.Protein.RotatedTorsions>
[ 6907 6896 6895 6894 ] final  121.94 input  -60.11 | X-H torsion
[ 7974 7965 7964 7962 ] final -119.22 input  175.53 | X-H torsion
[ 8008 7997 7996 7995 ] final  -95.27 input   59.86 | X-H torsion
[ 10167 10162 10161 10158 ] final  176.18 input  -65.29 | X-H torsion
[ 10718 10713 10712 10709 ] final   71.70 input   66.30 | X-H torsion
[ 10763 10752 10751 10750 ] final  166.40 input  -60.55 | X-H torsion
[ 11005 11000 10999 10996 ] final  -73.87 input  -57.11 | X-H torsion

> <Gold.Protein.ActiveResidues>
 VAL166  LYS551  ARG553  GLY616  TRP617  ASP618  TYR619  PRO620  LYS621  CYS622 
 ASP623  PHE694  ASN695  SER759  ASP760  ASP761  ALA762  ILE779  LEU786  VAL792 
 PHE793  MET794  SER795  GLU796  ALA797  LYS798  CYS799  TRP800  GLU811  SER814 

> <Gold.Protein.RotatedAtoms>
  152.4282  133.7232  159.6544 H   0  0  0  0  0  0  0  0  0  0  0  0  # atno 6907 bound_to 6896
  150.8160  133.8326  159.3166 H   0  0  0  0  0  0  0  0  0  0  0  0  # atno 6908 bound_to 6896
  151.6022  135.1048  160.0114 H   0  0  0  0  0  0  0  0  0  0  0  0  # atno 6909 bound_to 6896
  145.0650  140.8318  143.4129 H   0  0  0  0  0  0  0  0  0  0  0  0  # atno 7974 bound_to 7965
  154.7592  140.0481  157.0959 H   0  0  0  0  0  0  0  0  0  0  0  0  # atno 8008 bound_to 7997
  154.9959  140.3119  155.4867 H   0  0  0  0  0  0  0  0  0  0  0  0  # atno 8009 bound_to 7997
  156.2901  140.2210  156.5067 H   0  0  0  0  0  0  0  0  0  0  0  0  # atno 8010 bound_to 7997
  139.5204  144.2945  152.0434 H   0  0  0  0  0  0  0  0  0  0  0  0  # atno 10167 bound_to 10162
  157.6465  130.9542  150.0826 H   0  0  0  0  0  0  0  0  0  0  0  0  # atno 10718 bound_to 10713
  154.3385  135.2754  155.2435 H   0  0  0  0  0  0  0  0  0  0  0  0  # atno 10763 bound_to 10752
  154.4716  135.5881  153.6329 H   0  0  0  0  0  0  0  0  0  0  0  0  # atno 10764 bound_to 10752
  152.9860  135.6089  154.3583 H   0  0  0  0  0  0  0  0  0  0  0  0  # atno 10765 bound_to 10752
  141.1628  133.6892  156.7278 H   0  0  0  0  0  0  0  0  0  0  0  0  # atno 11005 bound_to 11000
  145.1362  139.2601  143.5514 LP  0  0  0  0  0  0  0  0  0  0  0  0  # atno 17320 bound_to 7965
  146.3526  140.1026  142.8607 LP  0  0  0  0  0  0  0  0  0  0  0  0  # atno 17321 bound_to 7965
  140.2395  144.4284  150.6266 LP  0  0  0  0  0  0  0  0  0  0  0  0  # atno 17342 bound_to 10162
  140.6300  143.2186  151.6515 LP  0  0  0  0  0  0  0  0  0  0  0  0  # atno 17343 bound_to 10162
  156.1798  130.3649  149.9051 LP  0  0  0  0  0  0  0  0  0  0  0  0  # atno 17370 bound_to 10713
  156.7006  130.8931  151.3599 LP  0  0  0  0  0  0  0  0  0  0  0  0  # atno 17371 bound_to 10713
  140.2768  134.8349  157.3897 LP  0  0  0  0  0  0  0  0  0  0  0  0  # atno 17394 bound_to 11000
  140.1470  134.4898  155.7989 LP  0  0  0  0  0  0  0  0  0  0  0  0  # atno 17395 bound_to 11000

$$$$
