AV-unprocessed.smi:1491|AV-procd|sdf|6033|dock3
  -GOLD-   22720 6133D 1   1.00000     0.00000
 Structure written by MMmdl.
 39 40  0  0  0  0  0  0  0  0  2 V2000
  144.6795  136.0820  153.0112 O   0  0  0  0  0  0  0  0  0  0  0  0
  145.8617  136.0652  152.6673 C   0  0  0  0  0  0  0  0  0  0  0  0
  146.7406  137.0361  152.9544 N   0  0  0  0  0  0  0  0  0  0  0  0
  146.4387  138.2483  153.7105 C   0  0  0  0  0  0  0  0  0  0  0  0
  146.7273  139.5291  152.9040 C   0  0  0  0  0  0  0  0  0  0  0  0
  147.5052  140.5156  153.6607 N   0  0  0  0  0  0  0  0  0  0  0  0
  148.7362  140.3358  154.2374 C   0  0  0  0  0  0  0  0  0  0  0  0
  149.0731  141.5304  154.8201 C   0  0  0  0  0  0  0  0  0  0  0  0
  148.0315  142.3861  154.5805 N   0  3  0  0  0  0  0  0  0  0  0  0
  147.0769  141.7661  153.8790 C   0  0  0  0  0  0  0  0  0  0  0  0
  146.4291  135.0665  151.9772 N   0  0  0  0  0  0  0  0  0  0  0  0
  145.7470  133.8484  151.5509 C   0  0  2  0  0  0  0  0  0  0  0  0
  146.5717  133.1511  150.4539 C   0  0  0  0  0  0  0  0  0  0  0  0
  145.8702  131.8803  149.9432 C   0  0  0  0  0  0  0  0  0  0  0  0
  144.4328  132.1595  149.4649 C   0  0  2  0  0  0  0  0  0  0  0  0
  144.4595  132.9114  148.2676 O   0  0  0  0  0  0  0  0  0  0  0  0
  143.6125  132.9024  150.5366 C   0  0  0  0  0  0  0  0  0  0  0  0
  144.3258  134.1671  151.0458 C   0  0  0  0  0  0  0  0  0  0  0  0
  147.6888  136.9313  152.6233 H   0  0  0  0  0  0  0  0  0  0  0  0
  145.3784  138.2174  153.9619 H   0  0  0  0  0  0  0  0  0  0  0  0
  146.9739  138.2590  154.6617 H   0  0  0  0  0  0  0  0  0  0  0  0
  147.2554  139.2963  151.9779 H   0  0  0  0  0  0  0  0  0  0  0  0
  145.7897  140.0087  152.6210 H   0  0  0  0  0  0  0  0  0  0  0  0
  149.2707  139.3984  154.1837 H   0  0  0  0  0  0  0  0  0  0  0  0
  149.9533  141.8280  155.3713 H   0  0  0  0  0  0  0  0  0  0  0  0
  146.1494  142.1957  153.5446 H   0  0  0  0  0  0  0  0  0  0  0  0
  147.4064  135.1471  151.7364 H   0  0  0  0  0  0  0  0  0  0  0  0
  145.6740  133.1672  152.4012 H   0  0  0  0  0  0  0  0  0  0  0  0
  146.7352  133.8361  149.6205 H   0  0  0  0  0  0  0  0  0  0  0  0
  147.5596  132.8929  150.8369 H   0  0  0  0  0  0  0  0  0  0  0  0
  146.4541  131.4259  149.1419 H   0  0  0  0  0  0  0  0  0  0  0  0
  145.8396  131.1463  150.7495 H   0  0  0  0  0  0  0  0  0  0  0  0
  143.9440  131.2124  149.2343 H   0  0  0  0  0  0  0  0  0  0  0  0
  145.1969  133.5015  148.3001 H   0  0  0  0  0  0  0  0  0  0  0  0
  142.6259  133.1587  150.1488 H   0  0  0  0  0  0  0  0  0  0  0  0
  143.4416  132.2316  151.3796 H   0  0  0  0  0  0  0  0  0  0  0  0
  143.7347  134.6190  151.8434 H   0  0  0  0  0  0  0  0  0  0  0  0
  144.3747  134.9061  150.2446 H   0  0  0  0  0  0  0  0  0  0  0  0
  147.9885  143.3500  154.8869 H   0  0  0  0  0  0  0  0  0  0  0  0
  1  2  2  0  0  0  0
  2  3  1  0  0  0  0
  2 11  1  0  0  0  0
  3  4  1  0  0  0  0
  3 19  1  0  0  0  0
  4  5  1  0  0  0  0
  4 20  1  0  0  0  0
  4 21  1  0  0  0  0
  5  6  1  0  0  0  0
  5 22  1  0  0  0  0
  5 23  1  0  0  0  0
  6 10  1  0  0  0  0
  6  7  1  0  0  0  0
  7  8  2  0  0  0  0
  7 24  1  0  0  0  0
  8  9  1  0  0  0  0
  8 25  1  0  0  0  0
  9 10  2  0  0  0  0
  9 39  1  0  0  0  0
 10 26  1  0  0  0  0
 11 12  1  0  0  0  0
 11 27  1  0  0  0  0
 12 18  1  0  0  0  0
 12 13  1  0  0  0  0
 12 28  1  0  0  0  0
 13 14  1  0  0  0  0
 13 29  1  0  0  0  0
 13 30  1  0  0  0  0
 14 15  1  0  0  0  0
 14 31  1  0  0  0  0
 14 32  1  0  0  0  0
 15 16  1  0  0  0  0
 15 17  1  0  0  0  0
 15 33  1  0  0  0  0
 16 34  1  0  0  0  0
 17 18  1  0  0  0  0
 17 35  1  0  0  0  0
 17 36  1  0  0  0  0
 18 37  1  0  0  0  0
 18 38  1  0  0  0  0
M  CHG  1   9   1
M  END
> <s_m_source_file>
AV-unprocessed.smi

> <i_m_source_file_index>
1491

> <i_lp_mmshare_version>
43012

> <i_f3d_flags>
0

> <s_epik_input>
W0NIMl0xW0NIMl1bQ0BIXShbT0hdKVtDSDJdW0NIMl1bQ0BIXTFbTkhdQyg9TylbTkhdW0NIMl1bQ0gyXW4yW2NIXVtjSF1uW2NIXTI=

> <s_epik_cmdline>
J2VwaWtfcHl0aG9uJywgJy1waCcsICc3LjAnLCAnLXRuJywgJzgnLCAnLW1hJywgJzIwMCcsICctbWV0YWxfYmluZGluZycsICctaW1hZScsICc8aW5maWxlLm1hZT4nLCAnLW9tYWUnLCAnPG91dGZpbGUubWFlPic=

> <r_lp_tautomer_probability>
1

> <r_epik_Ionization_Penalty>
0.254652

> <r_epik_Ionization_Penalty_Charging>
0

> <r_epik_Ionization_Penalty_Neutral>
0.254652

> <r_epik_State_Penalty>
0.246077

> <r_epik_Charging_Adjusted_Penalty>
0.246077

> <i_epik_Tot_Q>
1

> <i_epik_Tot_abs_Q>
1

> <r_epik_Metal_State_Penalty>
0.536042

> <b_epik_Metal_Only>
0

> <s_lp_Force_Field>
OPLS_2005

> <r_lp_Energy>
9.89821

> <b_lp_Chiralities_Consistent>
1

> <s_lp_Variant>
AV-unprocessed.smi:1491-2

> <Gold.Version>
5.8.1

> <Gold.Id.Protein>
6NUR|6NUR_protein|mol2

> <Gold.PLP.Fitness>
50.5305

> <Gold.PLP.PLP>
-36.9635

> <Gold.PLP.part.hbond>
-5.0000

> <Gold.PLP.part.metal>
0.0000

> <Gold.PLP.part.buried>
-2.2750

> <Gold.PLP.part.nonpolar>
-30.8163

> <Gold.PLP.part.repulsive>
0.3751

> <Gold.PLP.ligand.clash>
0.0000

> <Gold.PLP.ligand.torsion>
0.5926

> <Gold.PLP.Chemscore.Hbond>
4.9120

> <Gold.PLP.Chemscore.CHOScore>
0.0000

> <Gold.PLP.Chemscore.Metal>
0.0000

> <Gold.Chemscore.Hbonds>
donor molecule, donor type, donor heavy atom, donor atom, acceptor molecule, acceptor atom, score
      L1  H     3    19       P1  7948  1.00
      L1  H     9    39       P1  8028  1.92
      L1  H    11    27       P1  7948  0.94
      L1  H    16    34       P1  7921  1.00

> <Gold.PLP.Chemscore.Internal.Correction>
0.0162

> <Gold.Rescore>
     Score         DG    S(hbond)    S(metal)    S(lipo)     H(rot)  DE(clash)    DE(int)     intcor
     17.03     -20.16       3.77        0.00      75.83       2.65       1.19       1.94       ----

> <Gold.Chemscore.Fitness>
17.0278

> <Gold.Chemscore.DG>
-20.1575

> <Gold.Chemscore.ZeroCoef>
-5.4800

> <Gold.Chemscore.Hbond>
3.7720

> <Gold.Chemscore.Metal>
0.0000

> <Gold.Chemscore.Lipo>
75.8331

> <Gold.Chemscore.Internal_Hbond>
0.0000

> <Gold.Chemscore.DEClash>
1.1871

> <Gold.Chemscore.DEInternal>
1.9426

> <Gold.Chemscore.Rot>
2.6536

> <Gold.Chemscore.Internal.Correction>
   9.000000E+99

> <Gold.Chemscore.Hbonds>
donor molecule, donor type, donor heavy atom, donor atom, acceptor molecule, acceptor atom, score
      L1  H     3    19       P1  7948  0.98
      L1  H     9    39       P1  8028  0.76
      L1  H    11    27       P1  7948  0.82
      L1  H    16    34       P1  7921  0.47

> <Gold.Chemscore.Hbond.Weighted>
-12.5983

> <Gold.Chemscore.Metal.Weighted>
-0.0000

> <Gold.Chemscore.Lipo.Weighted>
-8.8725

> <Gold.Chemscore.Internal_Hbond.Weighted>
0.0000

> <Gold.Chemscore.DEClash.Weighted>
1.1871

> <Gold.Chemscore.DEInternal.Weighted>
1.9426

> <Gold.Chemscore.Rot.Weighted>
6.7933

> <Gold.Chemscore.Internal.Correction.Weighted>
   9.000000E+99

> <Gold.Protein.RotatedTorsions>
[ 6907 6896 6895 6894 ] final    9.06 input  -60.11 | X-H torsion
[ 7974 7965 7964 7962 ] final  -96.83 input  175.53 | X-H torsion
[ 8008 7997 7996 7995 ] final  -57.31 input   59.86 | X-H torsion
[ 10167 10162 10161 10158 ] final   44.11 input  -65.29 | X-H torsion
[ 10718 10713 10712 10709 ] final  -11.87 input   66.30 | X-H torsion
[ 10763 10752 10751 10750 ] final  179.33 input  -60.55 | X-H torsion
[ 11005 11000 10999 10996 ] final  -12.33 input  -57.11 | X-H torsion

> <Gold.Protein.ActiveResidues>
 VAL166  LYS551  ARG553  GLY616  TRP617  ASP618  TYR619  PRO620  LYS621  CYS622 
 ASP623  PHE694  ASN695  SER759  ASP760  ASP761  ALA762  ILE779  LEU786  VAL792 
 PHE793  MET794  SER795  GLU796  ALA797  LYS798  CYS799  TRP800  GLU811  SER814 

> <Gold.Protein.RotatedAtoms>
  151.7161  135.0903  160.0275 H   0  0  0  0  0  0  0  0  0  0  0  0  # atno 6907 bound_to 6896
  152.3631  133.6318  159.6038 H   0  0  0  0  0  0  0  0  0  0  0  0  # atno 6908 bound_to 6896
  150.7618  133.9308  159.3468 H   0  0  0  0  0  0  0  0  0  0  0  0  # atno 6909 bound_to 6896
  145.3417  140.9461  143.2604 H   0  0  0  0  0  0  0  0  0  0  0  0  # atno 7974 bound_to 7965
  154.4263  140.1109  156.5778 H   0  0  0  0  0  0  0  0  0  0  0  0  # atno 8008 bound_to 7997
  155.6145  140.3494  155.4613 H   0  0  0  0  0  0  0  0  0  0  0  0  # atno 8009 bound_to 7997
  156.0073  140.1212  157.0478 H   0  0  0  0  0  0  0  0  0  0  0  0  # atno 8010 bound_to 7997
  140.3376  144.2510  150.6159 H   0  0  0  0  0  0  0  0  0  0  0  0  # atno 10167 bound_to 10162
  156.6528  130.4959  149.6056 H   0  0  0  0  0  0  0  0  0  0  0  0  # atno 10718 bound_to 10713
  154.5192  135.2793  155.1277 H   0  0  0  0  0  0  0  0  0  0  0  0  # atno 10763 bound_to 10752
  154.2841  135.6280  153.5362 H   0  0  0  0  0  0  0  0  0  0  0  0  # atno 10764 bound_to 10752
  152.9933  135.5658  154.5677 H   0  0  0  0  0  0  0  0  0  0  0  0  # atno 10765 bound_to 10752
  140.7646  133.8487  155.9154 H   0  0  0  0  0  0  0  0  0  0  0  0  # atno 11005 bound_to 11000
  144.8785  139.4937  143.6734 LP  0  0  0  0  0  0  0  0  0  0  0  0  # atno 17320 bound_to 7965
  146.3005  139.7410  142.9095 LP  0  0  0  0  0  0  0  0  0  0  0  0  # atno 17321 bound_to 7965
  140.5339  143.2237  151.8195 LP  0  0  0  0  0  0  0  0  0  0  0  0  # atno 17342 bound_to 10162
  139.4846  144.4686  151.9453 LP  0  0  0  0  0  0  0  0  0  0  0  0  # atno 17343 bound_to 10162
  156.2071  130.6656  151.1230 LP  0  0  0  0  0  0  0  0  0  0  0  0  # atno 17370 bound_to 10713
  157.7135  131.0722  150.6413 LP  0  0  0  0  0  0  0  0  0  0  0  0  # atno 17371 bound_to 10713
  140.9631  134.1629  157.4638 LP  0  0  0  0  0  0  0  0  0  0  0  0  # atno 17394 bound_to 11000
  139.8765  134.9952  156.5731 LP  0  0  0  0  0  0  0  0  0  0  0  0  # atno 17395 bound_to 11000

$$$$
