AV-unprocessed.smi:1014|AV-procd|sdf|4430|dock2
  -GOLD-   22720 2383D 1   1.00000     0.00000
 Structure written by MMmdl.
 34 34  0  0  0  0  0  0  0  0  2 V2000
  150.8700  139.2861  154.7683 C   0  0  0  0  0  0  0  0  0  0  0  0
  149.3934  139.7079  154.7160 C   0  0  0  0  0  0  0  0  0  0  0  0
  149.1627  141.2057  154.4189 C   0  0  2  0  0  0  0  0  0  0  0  0
  149.6820  142.0094  155.5488 N   0  3  0  0  0  0  0  0  0  0  0  0
  149.2868  141.5418  156.8961 C   0  0  0  0  0  0  0  0  0  0  0  0
  150.5009  141.0565  157.7044 C   0  0  0  0  0  0  0  0  0  0  0  0
  151.2454  142.1552  158.2935 N   0  0  0  0  0  0  0  0  0  0  0  0
  151.0218  143.5094  158.1621 C   0  0  0  0  0  0  0  0  0  0  0  0
  151.9789  144.1570  158.8911 C   0  0  0  0  0  0  0  0  0  0  0  0
  152.1798  145.6334  159.0769 C   0  0  0  0  0  0  0  0  0  0  0  0
  152.7514  143.0948  159.4406 C   0  0  0  0  0  0  0  0  0  0  0  0
  152.3118  141.8998  159.0808 N   0  0  0  0  0  0  0  0  0  0  0  0
  147.6762  141.5066  154.1670 C   0  0  0  0  0  0  0  0  0  0  0  0
  147.1623  142.5899  154.7552 N   0  0  0  0  0  0  0  0  0  0  0  0
  147.0027  140.7739  153.4446 O   0  0  0  0  0  0  0  0  0  0  0  0
  150.9599  138.2364  155.0490 H   0  0  0  0  0  0  0  0  0  0  0  0
  151.4208  139.8730  155.5037 H   0  0  0  0  0  0  0  0  0  0  0  0
  151.3614  139.4070  153.8029 H   0  0  0  0  0  0  0  0  0  0  0  0
  148.8683  139.0952  153.9814 H   0  0  0  0  0  0  0  0  0  0  0  0
  148.9427  139.4667  155.6798 H   0  0  0  0  0  0  0  0  0  0  0  0
  149.7392  141.4677  153.5298 H   0  0  0  0  0  0  0  0  0  0  0  0
  150.6902  142.0376  155.4885 H   0  0  0  0  0  0  0  0  0  0  0  0
  148.7818  142.3459  157.4332 H   0  0  0  0  0  0  0  0  0  0  0  0
  148.5705  140.7257  156.7970 H   0  0  0  0  0  0  0  0  0  0  0  0
  150.1674  140.4032  158.5117 H   0  0  0  0  0  0  0  0  0  0  0  0
  151.1713  140.4627  157.0808 H   0  0  0  0  0  0  0  0  0  0  0  0
  150.2089  143.8978  157.5663 H   0  0  0  0  0  0  0  0  0  0  0  0
  152.6179  145.8623  160.0486 H   0  0  0  0  0  0  0  0  0  0  0  0
  151.2396  146.1819  159.0131 H   0  0  0  0  0  0  0  0  0  0  0  0
  152.8451  146.0463  158.3185 H   0  0  0  0  0  0  0  0  0  0  0  0
  153.6150  143.1571  160.0861 H   0  0  0  0  0  0  0  0  0  0  0  0
  146.1888  142.8254  154.6266 H   0  0  0  0  0  0  0  0  0  0  0  0
  147.7508  143.1696  155.3367 H   0  0  0  0  0  0  0  0  0  0  0  0
  149.3304  142.9510  155.4456 H   0  0  0  0  0  0  0  0  0  0  0  0
  1  2  1  0  0  0  0
  1 16  1  0  0  0  0
  1 17  1  0  0  0  0
  1 18  1  0  0  0  0
  2  3  1  0  0  0  0
  2 19  1  0  0  0  0
  2 20  1  0  0  0  0
  3  4  1  0  0  0  0
  3 13  1  0  0  0  0
  3 21  1  0  0  0  0
  4  5  1  0  0  0  0
  4 22  1  0  0  0  0
  4 34  1  0  0  0  0
  5  6  1  0  0  0  0
  5 23  1  0  0  0  0
  5 24  1  0  0  0  0
  6  7  1  0  0  0  0
  6 25  1  0  0  0  0
  6 26  1  0  0  0  0
  7 12  1  0  0  0  0
  7  8  1  0  0  0  0
  8  9  2  0  0  0  0
  8 27  1  0  0  0  0
  9 10  1  0  0  0  0
  9 11  1  0  0  0  0
 10 28  1  0  0  0  0
 10 29  1  0  0  0  0
 10 30  1  0  0  0  0
 11 12  2  0  0  0  0
 11 31  1  0  0  0  0
 13 14  1  0  0  0  0
 13 15  2  0  0  0  0
 14 32  1  0  0  0  0
 14 33  1  0  0  0  0
M  CHG  1   4   1
M  END
> <s_m_source_file>
AV-unprocessed.smi

> <i_m_source_file_index>
1014

> <i_lp_mmshare_version>
43012

> <i_f3d_flags>
0

> <s_epik_input>
W0NIM11bQ0gyXVtDQEBIXShDKD1PKVtOSDJdKVtOSF1bQ0gyXVtDSDJdbjFbY0hdYyhbQ0gzXSlbY0hdbjE=

> <s_epik_cmdline>
J2VwaWtfcHl0aG9uJywgJy1waCcsICc3LjAnLCAnLXRuJywgJzgnLCAnLW1hJywgJzIwMCcsICctbWV0YWxfYmluZGluZycsICctaW1hZScsICc8aW5maWxlLm1hZT4nLCAnLW9tYWUnLCAnPG91dGZpbGUubWFlPic=

> <r_lp_tautomer_probability>
1

> <r_epik_Ionization_Penalty>
0.19042

> <r_epik_Ionization_Penalty_Charging>
0.190412

> <r_epik_Ionization_Penalty_Neutral>
7.5834e-06

> <r_epik_State_Penalty>
0.180404

> <r_epik_Charging_Adjusted_Penalty>
0.370816

> <i_epik_Tot_Q>
1

> <i_epik_Tot_abs_Q>
1

> <r_epik_Metal_State_Penalty>
0.180563

> <b_epik_Metal_Only>
0

> <s_lp_Force_Field>
OPLS_2005

> <r_lp_Energy>
2.67467

> <b_lp_Chiralities_Consistent>
1

> <s_lp_Variant>
AV-unprocessed.smi:1014-1

> <Gold.Version>
5.8.1

> <Gold.Id.Protein>
6NUR|6NUR_protein|mol2

> <Gold.PLP.Fitness>
44.9625

> <Gold.PLP.PLP>
-34.8178

> <Gold.PLP.part.hbond>
-2.0000

> <Gold.PLP.part.metal>
0.0000

> <Gold.PLP.part.buried>
-4.2586

> <Gold.PLP.part.nonpolar>
-28.3076

> <Gold.PLP.part.repulsive>
0.4676

> <Gold.PLP.ligand.clash>
0.0000

> <Gold.PLP.ligand.torsion>
0.9613

> <Gold.PLP.Chemscore.Hbond>
2.9920

> <Gold.PLP.Chemscore.CHOScore>
1.0000

> <Gold.PLP.Chemscore.Metal>
0.0000

> <Gold.Chemscore.Hbonds>
donor molecule, donor type, donor heavy atom, donor atom, acceptor molecule, acceptor atom, score
      L1  H     4    34       P1  8028  2.00
      L1  H    14    33       P1  8028  1.00
      L1  C     8    27       P1  8028  1.00

> <Gold.PLP.Chemscore.Internal.Correction>
0.0913

> <Gold.Rescore>
     Score         DG    S(hbond)    S(metal)    S(lipo)     H(rot)  DE(clash)    DE(int)     intcor
     12.93     -14.81       1.88        0.00      82.66       2.59       0.54       1.34       ----

> <Gold.Chemscore.Fitness>
12.9285

> <Gold.Chemscore.DG>
-14.8100

> <Gold.Chemscore.ZeroCoef>
-5.4800

> <Gold.Chemscore.Hbond>
1.8812

> <Gold.Chemscore.Metal>
0.0000

> <Gold.Chemscore.Lipo>
82.6618

> <Gold.Chemscore.Internal_Hbond>
0.0000

> <Gold.Chemscore.DEClash>
0.5369

> <Gold.Chemscore.DEInternal>
1.3446

> <Gold.Chemscore.Rot>
2.5878

> <Gold.Chemscore.Internal.Correction>
   9.000000E+99

> <Gold.Chemscore.Hbonds>
donor molecule, donor type, donor heavy atom, donor atom, acceptor molecule, acceptor atom, score
      L1  H     4    34       P1  8028  1.00
      L1  H    14    33       P1  8028  0.48

> <Gold.Chemscore.Hbond.Weighted>
-6.2832

> <Gold.Chemscore.Metal.Weighted>
-0.0000

> <Gold.Chemscore.Lipo.Weighted>
-9.6714

> <Gold.Chemscore.Internal_Hbond.Weighted>
0.0000

> <Gold.Chemscore.DEClash.Weighted>
0.5369

> <Gold.Chemscore.DEInternal.Weighted>
1.3446

> <Gold.Chemscore.Rot.Weighted>
6.6247

> <Gold.Chemscore.Internal.Correction.Weighted>
   9.000000E+99

> <Gold.Protein.RotatedTorsions>
[ 6907 6896 6895 6894 ] final -153.84 input  -60.11 | X-H torsion
[ 7974 7965 7964 7962 ] final   30.19 input  175.53 | X-H torsion
[ 8008 7997 7996 7995 ] final  174.64 input   59.86 | X-H torsion
[ 10167 10162 10161 10158 ] final  112.04 input  -65.29 | X-H torsion
[ 10718 10713 10712 10709 ] final    7.23 input   66.30 | X-H torsion
[ 10763 10752 10751 10750 ] final  172.82 input  -60.55 | X-H torsion
[ 11005 11000 10999 10996 ] final   25.71 input  -57.11 | X-H torsion

> <Gold.Protein.ActiveResidues>
 VAL166  LYS551  ARG553  GLY616  TRP617  ASP618  TYR619  PRO620  LYS621  CYS622 
 ASP623  PHE694  ASN695  SER759  ASP760  ASP761  ALA762  ILE779  LEU786  VAL792 
 PHE793  MET794  SER795  GLU796  ALA797  LYS798  CYS799  TRP800  GLU811  SER814 

> <Gold.Protein.RotatedAtoms>
  151.2485  133.4362  159.2610 H   0  0  0  0  0  0  0  0  0  0  0  0  # atno 6907 bound_to 6896
  151.0639  134.9755  159.8284 H   0  0  0  0  0  0  0  0  0  0  0  0  # atno 6908 bound_to 6896
  152.5402  134.2434  159.8923 H   0  0  0  0  0  0  0  0  0  0  0  0  # atno 6909 bound_to 6896
  146.1627  139.6822  142.9022 H   0  0  0  0  0  0  0  0  0  0  0  0  # atno 7974 bound_to 7965
  156.0953  140.1429  156.9539 H   0  0  0  0  0  0  0  0  0  0  0  0  # atno 8008 bound_to 7997
  154.4667  140.0924  156.7085 H   0  0  0  0  0  0  0  0  0  0  0  0  # atno 8009 bound_to 7997
  155.4852  140.3446  155.4348 H   0  0  0  0  0  0  0  0  0  0  0  0  # atno 8010 bound_to 7997
  139.6566  144.7129  151.1946 H   0  0  0  0  0  0  0  0  0  0  0  0  # atno 10167 bound_to 10162
  156.9339  130.5836  149.5650 H   0  0  0  0  0  0  0  0  0  0  0  0  # atno 10718 bound_to 10713
  154.4314  135.2760  155.1910 H   0  0  0  0  0  0  0  0  0  0  0  0  # atno 10763 bound_to 10752
  154.3814  135.6086  153.5797 H   0  0  0  0  0  0  0  0  0  0  0  0  # atno 10764 bound_to 10752
  152.9836  135.5881  154.4626 H   0  0  0  0  0  0  0  0  0  0  0  0  # atno 10765 bound_to 10752
  140.3449  134.2292  155.7686 H   0  0  0  0  0  0  0  0  0  0  0  0  # atno 11005 bound_to 11000
  145.4547  141.0430  143.2785 LP  0  0  0  0  0  0  0  0  0  0  0  0  # atno 17320 bound_to 7965
  144.8049  139.6070  143.7055 LP  0  0  0  0  0  0  0  0  0  0  0  0  # atno 17321 bound_to 7965
  140.7561  143.6063  150.8650 LP  0  0  0  0  0  0  0  0  0  0  0  0  # atno 17342 bound_to 10162
  139.9716  143.6050  152.2971 LP  0  0  0  0  0  0  0  0  0  0  0  0  # atno 17343 bound_to 10162
  156.0435  130.5514  150.8826 LP  0  0  0  0  0  0  0  0  0  0  0  0  # atno 17370 bound_to 10713
  157.5829  131.0946  150.9242 LP  0  0  0  0  0  0  0  0  0  0  0  0  # atno 17371 bound_to 10713
  141.2028  133.7928  157.0371 LP  0  0  0  0  0  0  0  0  0  0  0  0  # atno 17394 bound_to 11000
  140.0750  134.9680  157.1531 LP  0  0  0  0  0  0  0  0  0  0  0  0  # atno 17395 bound_to 11000

$$$$
