AV-unprocessed.smi:438|AV-procd|sdf|2572|dock1
  -GOLD-   2262022553D 1   1.00000     0.00000
 Structure written by MMmdl.
 47 48  0  0  0  0  0  0  0  0  2 V2000
  143.5953  134.7442  152.7723 C   0  0  0  0  0  0  0  0  0  0  0  0
  144.8338  133.8865  152.9581 C   0  0  0  0  0  0  0  0  0  0  0  0
  145.7419  134.3326  153.9329 N   0  0  0  0  0  0  0  0  0  0  0  0
  146.8024  133.6573  154.1651 C   0  0  0  0  0  0  0  0  0  0  0  0
  147.9802  134.2270  155.4076 S   0  0  0  0  0  0  0  0  0  0  0  0
  147.0617  134.1761  156.9777 C   0  0  0  0  0  0  0  0  0  0  0  0
  147.9557  134.4364  158.1897 C   0  0  0  0  0  0  0  0  0  0  0  0
  149.1230  134.7918  158.0261 O   0  0  0  0  0  0  0  0  0  0  0  0
  147.3947  134.2636  159.3970 N   0  0  0  0  0  0  0  0  0  0  0  0
  148.0265  134.5414  160.6884 C   0  0  1  0  0  0  0  0  0  0  0  0
  147.4456  135.8436  161.2756 C   0  0  0  0  0  0  0  0  0  0  0  0
  145.9955  135.6686  161.7588 C   0  0  0  0  0  0  0  0  0  0  0  0
  145.8761  134.5114  162.7599 C   0  0  0  0  0  0  0  0  0  0  0  0
  146.4207  133.2048  162.1623 C   0  0  0  0  0  0  0  0  0  0  0  0
  147.8799  133.3645  161.6897 C   0  0  1  0  0  0  0  0  0  0  0  0
  148.4519  132.0365  161.1652 C   0  0  0  0  0  0  0  0  0  0  0  0
  147.1213  132.4868  153.5171 N   0  5  0  0  0  0  0  0  0  0  0  0
  146.3036  132.0002  152.5407 C   0  0  0  0  0  0  0  0  0  0  0  0
  146.5624  130.9658  151.9266 O   0  0  0  0  0  0  0  0  0  0  0  0
  145.0751  132.7552  152.2356 C   0  0  0  0  0  0  0  0  0  0  0  0
  144.1317  132.2170  151.1587 C   0  0  0  0  0  0  0  0  0  0  0  0
  143.9531  133.1812  149.9734 C   0  0  0  0  0  0  0  0  0  0  0  0
  142.8989  132.7580  149.1342 O   0  0  0  0  0  0  0  0  0  0  0  0
  143.5739  135.1760  151.7718 H   0  0  0  0  0  0  0  0  0  0  0  0
  143.5735  135.5595  153.4947 H   0  0  0  0  0  0  0  0  0  0  0  0
  142.6912  134.1543  152.9209 H   0  0  0  0  0  0  0  0  0  0  0  0
  146.6324  133.1798  157.0841 H   0  0  0  0  0  0  0  0  0  0  0  0
  146.2212  134.8708  156.9466 H   0  0  0  0  0  0  0  0  0  0  0  0
  146.4283  133.9720  159.4234 H   0  0  0  0  0  0  0  0  0  0  0  0
  149.0915  134.7153  160.5250 H   0  0  0  0  0  0  0  0  0  0  0  0
  148.0632  136.1630  162.1159 H   0  0  0  0  0  0  0  0  0  0  0  0
  147.4990  136.6467  160.5387 H   0  0  0  0  0  0  0  0  0  0  0  0
  145.6411  136.5945  162.2127 H   0  0  0  0  0  0  0  0  0  0  0  0
  145.3434  135.4740  160.9079 H   0  0  0  0  0  0  0  0  0  0  0  0
  146.4249  134.7561  163.6702 H   0  0  0  0  0  0  0  0  0  0  0  0
  144.8341  134.3801  163.0526 H   0  0  0  0  0  0  0  0  0  0  0  0
  146.3558  132.4115  162.9079 H   0  0  0  0  0  0  0  0  0  0  0  0
  145.7910  132.8933  161.3279 H   0  0  0  0  0  0  0  0  0  0  0  0
  148.4715  133.6262  162.5683 H   0  0  0  0  0  0  0  0  0  0  0  0
  147.8763  131.6527  160.3226 H   0  0  0  0  0  0  0  0  0  0  0  0
  148.4416  131.2731  161.9434 H   0  0  0  0  0  0  0  0  0  0  0  0
  149.4850  132.1575  160.8379 H   0  0  0  0  0  0  0  0  0  0  0  0
  143.1559  131.9762  151.5783 H   0  0  0  0  0  0  0  0  0  0  0  0
  144.5232  131.2659  150.7964 H   0  0  0  0  0  0  0  0  0  0  0  0
  143.7528  134.1957  150.3184 H   0  0  0  0  0  0  0  0  0  0  0  0
  144.8689  133.2207  149.3833 H   0  0  0  0  0  0  0  0  0  0  0  0
  142.1045  133.1878  149.4115 H   0  0  0  0  0  0  0  0  0  0  0  0
  1 24  1  0  0  0  0
  1 25  1  0  0  0  0
  1 26  1  0  0  0  0
  1  2  1  0  0  0  0
  2 20  2  0  0  0  0
  2  3  1  0  0  0  0
  3  4  2  0  0  0  0
  4  5  1  0  0  0  0
  4 17  1  0  0  0  0
  5  6  1  0  0  0  0
  6  7  1  0  0  0  0
  6 27  1  0  0  0  0
  6 28  1  0  0  0  0
  7  8  2  0  0  0  0
  7  9  1  0  0  0  0
  9 10  1  0  0  0  0
  9 29  1  0  0  0  0
 10 15  1  0  0  0  0
 10 11  1  0  0  0  0
 10 30  1  0  0  0  0
 11 12  1  0  0  0  0
 11 31  1  0  0  0  0
 11 32  1  0  0  0  0
 12 13  1  0  0  0  0
 12 33  1  0  0  0  0
 12 34  1  0  0  0  0
 13 14  1  0  0  0  0
 13 35  1  0  0  0  0
 13 36  1  0  0  0  0
 14 15  1  0  0  0  0
 14 37  1  0  0  0  0
 14 38  1  0  0  0  0
 15 16  1  0  0  0  0
 15 39  1  0  0  0  0
 16 40  1  0  0  0  0
 16 41  1  0  0  0  0
 16 42  1  0  0  0  0
 17 18  1  0  0  0  0
 18 19  2  0  0  0  0
 18 20  1  0  0  0  0
 20 21  1  0  0  0  0
 21 22  1  0  0  0  0
 21 43  1  0  0  0  0
 21 44  1  0  0  0  0
 22 23  1  0  0  0  0
 22 45  1  0  0  0  0
 22 46  1  0  0  0  0
 23 47  1  0  0  0  0
M  CHG  1  17  -1
M  END
> <s_m_source_file>
AV-unprocessed.smi

> <i_m_source_file_index>
438

> <i_lp_mmshare_version>
43012

> <i_f3d_flags>
0

> <s_epik_input>
W09IXVtDSDJdW0NIMl1jMWMoW09IXSluYyhuYzFbQ0gzXSlTW0NIMl1DKD1PKVtOSF1bQ0BASF0yW0NIMl1bQ0gyXVtDSDJdW0NIMl1bQ0BIXTJbQ0gzXQ==

> <s_epik_cmdline>
J2VwaWtfcHl0aG9uJywgJy1waCcsICc3LjAnLCAnLXRuJywgJzgnLCAnLW1hJywgJzIwMCcsICctbWV0YWxfYmluZGluZycsICctaW1hZScsICc8aW5maWxlLm1hZT4nLCAnLW9tYWUnLCAnPG91dGZpbGUubWFlPic=

> <r_lp_tautomer_probability>
1

> <r_epik_Ionization_Penalty>
3.69231

> <r_epik_Ionization_Penalty_Charging>
0.00434774

> <r_epik_Ionization_Penalty_Neutral>
3.68796

> <r_epik_State_Penalty>
2.13826

> <r_epik_Charging_Adjusted_Penalty>
2.14261

> <i_epik_Tot_Q>
-1

> <i_epik_Tot_abs_Q>
1

> <r_epik_Metal_State_Penalty>
0.260979

> <b_epik_Metal_Only>
0

> <s_lp_Force_Field>
OPLS_2005

> <r_lp_Energy>
18.1923

> <b_lp_Chiralities_Consistent>
1

> <s_lp_Variant>
AV-unprocessed.smi:438-10

> <Gold.Version>
5.8.1

> <Gold.Id.Protein>
6NUR|6NUR_protein|mol2

> <Gold.PLP.Fitness>
42.2311

> <Gold.PLP.PLP>
-34.9141

> <Gold.PLP.part.hbond>
-3.7324

> <Gold.PLP.part.metal>
0.0000

> <Gold.PLP.part.buried>
-7.0586

> <Gold.PLP.part.nonpolar>
-25.0254

> <Gold.PLP.part.repulsive>
0.3807

> <Gold.PLP.ligand.clash>
0.0000

> <Gold.PLP.ligand.torsion>
0.2729

> <Gold.PLP.Chemscore.Hbond>
2.5675

> <Gold.PLP.Chemscore.CHOScore>
0.0000

> <Gold.PLP.Chemscore.Metal>
0.0000

> <Gold.Chemscore.Hbonds>
donor molecule, donor type, donor heavy atom, donor atom, acceptor molecule, acceptor atom, score
      L1  H    23    47       P1 10186  1.00
      P1  H  6896  6909       L1     8  0.70

> <Gold.PLP.Chemscore.Internal.Correction>
0.1603

> <Gold.Rescore>
     Score         DG    S(hbond)    S(metal)    S(lipo)     H(rot)  DE(clash)    DE(int)     intcor
     15.94     -16.34       2.41        0.00      85.17       2.79       0.01       0.39       ----

> <Gold.Chemscore.Fitness>
15.9436

> <Gold.Chemscore.DG>
-16.3433

> <Gold.Chemscore.ZeroCoef>
-5.4800

> <Gold.Chemscore.Hbond>
2.4095

> <Gold.Chemscore.Metal>
0.0000

> <Gold.Chemscore.Lipo>
85.1702

> <Gold.Chemscore.Internal_Hbond>
0.0000

> <Gold.Chemscore.DEClash>
0.0121

> <Gold.Chemscore.DEInternal>
0.3876

> <Gold.Chemscore.Rot>
2.7927

> <Gold.Chemscore.Internal.Correction>
   9.000000E+99

> <Gold.Chemscore.Hbonds>
donor molecule, donor type, donor heavy atom, donor atom, acceptor molecule, acceptor atom, score
      L1  H    23    47       P1 10186  0.99
      P1  H  6896  6909       L1     8  0.66

> <Gold.Chemscore.Hbond.Weighted>
-8.0477

> <Gold.Chemscore.Metal.Weighted>
-0.0000

> <Gold.Chemscore.Lipo.Weighted>
-9.9649

> <Gold.Chemscore.Internal_Hbond.Weighted>
0.0000

> <Gold.Chemscore.DEClash.Weighted>
0.0121

> <Gold.Chemscore.DEInternal.Weighted>
0.3876

> <Gold.Chemscore.Rot.Weighted>
7.1492

> <Gold.Chemscore.Internal.Correction.Weighted>
   9.000000E+99

> <Gold.Protein.RotatedTorsions>
[ 6907 6896 6895 6894 ] final   16.92 input  -60.11 | X-H torsion
[ 7974 7965 7964 7962 ] final  -35.54 input  175.53 | X-H torsion
[ 8008 7997 7996 7995 ] final -162.75 input   59.86 | X-H torsion
[ 10167 10162 10161 10158 ] final   -1.63 input  -65.29 | X-H torsion
[ 10718 10713 10712 10709 ] final   -4.15 input   66.30 | X-H torsion
[ 10763 10752 10751 10750 ] final   81.84 input  -60.55 | X-H torsion
[ 11005 11000 10999 10996 ] final  151.44 input  -57.11 | X-H torsion

> <Gold.Protein.ActiveResidues>
 VAL166  LYS551  ARG553  GLY616  TRP617  ASP618  TYR619  PRO620  LYS621  CYS622 
 ASP623  PHE694  ASN695  SER759  ASP760  ASP761  ALA762  ILE779  LEU786  VAL792 
 PHE793  MET794  SER795  GLU796  ALA797  LYS798  CYS799  TRP800  GLU811  SER814 

> <Gold.Protein.RotatedAtoms>
  151.8415  135.0588  160.0448 H   0  0  0  0  0  0  0  0  0  0  0  0  # atno 6907 bound_to 6896
  152.2805  133.5462  159.5503 H   0  0  0  0  0  0  0  0  0  0  0  0  # atno 6908 bound_to 6896
  150.7188  134.0486  159.3833 H   0  0  0  0  0  0  0  0  0  0  0  0  # atno 6909 bound_to 6896
  146.0738  140.6171  142.8940 H   0  0  0  0  0  0  0  0  0  0  0  0  # atno 7974 bound_to 7965
  155.8113  140.0906  157.1902 H   0  0  0  0  0  0  0  0  0  0  0  0  # atno 8008 bound_to 7997
  154.3980  140.1454  156.3449 H   0  0  0  0  0  0  0  0  0  0  0  0  # atno 8009 bound_to 7997
  155.8362  140.3440  155.5606 H   0  0  0  0  0  0  0  0  0  0  0  0  # atno 8010 bound_to 7997
  140.6818  143.6753  150.8151 H   0  0  0  0  0  0  0  0  0  0  0  0  # atno 10167 bound_to 10162
  156.7655  130.5283  149.5777 H   0  0  0  0  0  0  0  0  0  0  0  0  # atno 10718 bound_to 10713
  153.1151  135.4750  154.9102 H   0  0  0  0  0  0  0  0  0  0  0  0  # atno 10763 bound_to 10752
  154.7520  135.3108  154.8542 H   0  0  0  0  0  0  0  0  0  0  0  0  # atno 10764 bound_to 10752
  153.9120  135.6864  153.4804 H   0  0  0  0  0  0  0  0  0  0  0  0  # atno 10765 bound_to 10752
  140.1219  134.8858  157.2084 H   0  0  0  0  0  0  0  0  0  0  0  0  # atno 11005 bound_to 11000
  144.7248  140.4490  143.6981 LP  0  0  0  0  0  0  0  0  0  0  0  0  # atno 17320 bound_to 7965
  145.6344  139.1541  143.2951 LP  0  0  0  0  0  0  0  0  0  0  0  0  # atno 17321 bound_to 7965
  140.0454  143.5303  152.2698 LP  0  0  0  0  0  0  0  0  0  0  0  0  # atno 17342 bound_to 10162
  139.6146  144.7616  151.2875 LP  0  0  0  0  0  0  0  0  0  0  0  0  # atno 17343 bound_to 10162
  156.1312  130.6179  151.0335 LP  0  0  0  0  0  0  0  0  0  0  0  0  # atno 17370 bound_to 10713
  157.6715  131.0860  150.7600 LP  0  0  0  0  0  0  0  0  0  0  0  0  # atno 17371 bound_to 10713
  140.2953  134.3193  155.7304 LP  0  0  0  0  0  0  0  0  0  0  0  0  # atno 17394 bound_to 11000
  141.2153  133.7559  156.9563 LP  0  0  0  0  0  0  0  0  0  0  0  0  # atno 17395 bound_to 11000

$$$$
