AV-unprocessed.smi:2032|AV-procd|sdf|8253|dock5
  -GOLD-   2272010523D 1   1.00000     0.00000
 Structure written by MMmdl.
 42 43  0  0  0  0  0  0  0  0  3 V2000
  146.3327  132.2174  149.4104 C   0  0  0  0  0  0  0  0  0  0  0  0
  146.4194  133.3819  150.4033 C   0  0  2  0  0  0  0  0  0  0  0  0
  147.0451  132.9504  151.7429 C   0  0  0  0  0  0  0  0  0  0  0  0
  147.0289  134.0701  152.7217 N   0  3  2  0  0  0  0  0  0  0  0  0
  147.6954  133.8073  154.0377 C   0  0  1  0  0  0  0  0  0  0  0  0
  149.1425  133.2722  153.9116 C   0  0  0  0  0  0  0  0  0  0  0  0
  147.6710  135.0943  154.9033 C   0  0  0  0  0  0  0  0  0  0  0  0
  148.8364  135.9465  154.6902 N   0  0  0  0  0  0  0  0  0  0  0  0
  149.9293  135.9807  155.4654 C   0  0  0  0  0  0  0  0  0  0  0  0
  149.9945  135.2639  156.4669 O   0  0  0  0  0  0  0  0  0  0  0  0
  150.8793  136.8359  155.0263 N   0  5  0  0  0  0  0  0  0  0  0  0
  150.8043  138.1400  155.3381 C   0  0  0  0  0  0  0  0  0  0  0  0
  149.6662  138.7381  155.7082 N   0  0  0  0  0  0  0  0  0  0  0  0
  149.8177  140.0992  155.9799 C   0  0  0  0  0  0  0  0  0  0  0  0
  151.0992  140.5495  155.8042 C   0  0  0  0  0  0  0  0  0  0  0  0
  152.1605  139.2700  155.2883 S   0  0  0  0  0  0  0  0  0  0  0  0
  145.6342  134.5614  152.8843 C   0  0  0  0  0  0  0  0  0  0  0  0
  145.0121  134.9597  151.5333 C   0  0  1  0  0  0  0  0  0  0  0  0
  145.5846  136.2657  150.9533 C   0  0  0  0  0  0  0  0  0  0  0  0
  145.0997  133.8701  150.6180 O   0  0  0  0  0  0  0  0  0  0  0  0
  147.3208  131.8104  149.1947 H   0  0  0  0  0  0  0  0  0  0  0  0
  145.8947  132.5419  148.4661 H   0  0  0  0  0  0  0  0  0  0  0  0
  145.7158  131.4083  149.8027 H   0  0  0  0  0  0  0  0  0  0  0  0
  147.0304  134.1635  149.9510 H   0  0  0  0  0  0  0  0  0  0  0  0
  146.5104  132.0942  152.1582 H   0  0  0  0  0  0  0  0  0  0  0  0
  148.0660  132.6311  151.5353 H   0  0  0  0  0  0  0  0  0  0  0  0
  147.1225  133.0281  154.5430 H   0  0  0  0  0  0  0  0  0  0  0  0
  149.5964  133.1086  154.8890 H   0  0  0  0  0  0  0  0  0  0  0  0
  149.7812  133.9698  153.3689 H   0  0  0  0  0  0  0  0  0  0  0  0
  149.1782  132.3071  153.4062 H   0  0  0  0  0  0  0  0  0  0  0  0
  146.7832  135.6804  154.6637 H   0  0  0  0  0  0  0  0  0  0  0  0
  147.6034  134.8712  155.9675 H   0  0  0  0  0  0  0  0  0  0  0  0
  148.8212  136.5533  153.8833 H   0  0  0  0  0  0  0  0  0  0  0  0
  148.9574  140.6725  156.2917 H   0  0  0  0  0  0  0  0  0  0  0  0
  151.4820  141.5492  155.9438 H   0  0  0  0  0  0  0  0  0  0  0  0
  145.0331  133.7721  153.3392 H   0  0  0  0  0  0  0  0  0  0  0  0
  145.5861  135.4111  153.5636 H   0  0  0  0  0  0  0  0  0  0  0  0
  143.9472  135.1286  151.6964 H   0  0  0  0  0  0  0  0  0  0  0  0
  145.3776  137.1052  151.6173 H   0  0  0  0  0  0  0  0  0  0  0  0
  145.1340  136.4923  149.9868 H   0  0  0  0  0  0  0  0  0  0  0  0
  146.6651  136.2216  150.8174 H   0  0  0  0  0  0  0  0  0  0  0  0
  147.5555  134.8167  152.2911 H   0  0  0  0  0  0  0  0  0  0  0  0
  1  2  1  0  0  0  0
  1 21  1  0  0  0  0
  1 22  1  0  0  0  0
  1 23  1  0  0  0  0
  2 20  1  0  0  0  0
  2  3  1  0  0  0  0
  2 24  1  0  0  0  0
  3  4  1  0  0  0  0
  3 25  1  0  0  0  0
  3 26  1  0  0  0  0
  4  5  1  0  0  0  0
  4 17  1  0  0  0  0
  4 42  1  0  0  0  0
  5  6  1  0  0  0  0
  5  7  1  0  0  0  0
  5 27  1  0  0  0  0
  6 28  1  0  0  0  0
  6 29  1  0  0  0  0
  6 30  1  0  0  0  0
  7  8  1  0  0  0  0
  7 31  1  0  0  0  0
  7 32  1  0  0  0  0
  8  9  1  0  0  0  0
  8 33  1  0  0  0  0
  9 10  2  0  0  0  0
  9 11  1  0  0  0  0
 11 12  1  0  0  0  0
 12 16  1  0  0  0  0
 12 13  2  0  0  0  0
 13 14  1  0  0  0  0
 14 15  2  0  0  0  0
 14 34  1  0  0  0  0
 15 16  1  0  0  0  0
 15 35  1  0  0  0  0
 17 18  1  0  0  0  0
 17 36  1  0  0  0  0
 17 37  1  0  0  0  0
 18 19  1  0  0  0  0
 18 20  1  0  0  0  0
 18 38  1  0  0  0  0
 19 39  1  0  0  0  0
 19 40  1  0  0  0  0
 19 41  1  0  0  0  0
M  CHG  1   4   1
M  CHG  1  11  -1
M  END
> <s_m_source_file>
AV-unprocessed.smi

> <i_m_source_file_index>
2032

> <i_lp_mmshare_version>
43012

> <i_f3d_flags>
0

> <s_epik_input>
W0NIM11bQ0BASF0xW0NIMl1OKFtDSDJdW0NASF0oTzEpW0NIM10pW0NASF0oW0NIM10pW0NIMl1bTkhdQyg9TylbTkhdYzJuW2NIXVtjSF1zMg==

> <s_epik_cmdline>
J2VwaWtfcHl0aG9uJywgJy1waCcsICc3LjAnLCAnLXRuJywgJzgnLCAnLW1hJywgJzIwMCcsICctbWV0YWxfYmluZGluZycsICctaW1hZScsICc8aW5maWxlLm1hZT4nLCAnLW9tYWUnLCAnPG91dGZpbGUubWFlPic=

> <r_lp_tautomer_probability>
0.999

> <r_epik_Ionization_Penalty>
6.71699

> <r_epik_Ionization_Penalty_Charging>
5.88592

> <r_epik_Ionization_Penalty_Neutral>
0.831074

> <r_epik_State_Penalty>
6.08365

> <r_epik_Charging_Adjusted_Penalty>
11.9696

> <i_epik_Tot_Q>
0

> <i_epik_Tot_abs_Q>
2

> <r_epik_Metal_State_Penalty>
2.0947

> <b_epik_Metal_Only>
1

> <s_lp_Force_Field>
OPLS_2005

> <r_lp_Energy>
13.0518

> <b_lp_Chiralities_Consistent>
1

> <s_lp_Variant>
AV-unprocessed.smi:2032-23

> <Gold.Version>
5.8.1

> <Gold.Id.Protein>
6NUR|6NUR_protein|mol2

> <Gold.PLP.Fitness>
46.2734

> <Gold.PLP.PLP>
-34.2071

> <Gold.PLP.part.hbond>
-3.0000

> <Gold.PLP.part.metal>
0.0000

> <Gold.PLP.part.buried>
-0.7445

> <Gold.PLP.part.nonpolar>
-31.0274

> <Gold.PLP.part.repulsive>
0.4279

> <Gold.PLP.ligand.clash>
0.0000

> <Gold.PLP.ligand.torsion>
1.3168

> <Gold.PLP.Chemscore.Hbond>
4.8800

> <Gold.PLP.Chemscore.CHOScore>
0.0000

> <Gold.PLP.Chemscore.Metal>
0.0000

> <Gold.Chemscore.Hbonds>
donor molecule, donor type, donor heavy atom, donor atom, acceptor molecule, acceptor atom, score
      L1  H     4    42       P1  7948  2.00
      L1  H     8    33       P1  7948  0.66

> <Gold.PLP.Chemscore.Internal.Correction>
0.0600

> <Gold.Rescore>
     Score         DG    S(hbond)    S(metal)    S(lipo)     H(rot)  DE(clash)    DE(int)     intcor
     16.06     -18.80       2.47        0.00      77.88       1.58       1.44       1.30       ----

> <Gold.Chemscore.Fitness>
16.0582

> <Gold.Chemscore.DG>
-18.8014

> <Gold.Chemscore.ZeroCoef>
-5.4800

> <Gold.Chemscore.Hbond>
2.4707

> <Gold.Chemscore.Metal>
0.0000

> <Gold.Chemscore.Lipo>
77.8786

> <Gold.Chemscore.Internal_Hbond>
0.0000

> <Gold.Chemscore.DEClash>
1.4383

> <Gold.Chemscore.DEInternal>
1.3050

> <Gold.Chemscore.Rot>
1.5791

> <Gold.Chemscore.Internal.Correction>
   9.000000E+99

> <Gold.Chemscore.Hbonds>
donor molecule, donor type, donor heavy atom, donor atom, acceptor molecule, acceptor atom, score
      L1  H     4    42       P1  7948  0.85
      L1  H     8    33       P1  7948  0.63
      P1  H 10752 10764       L1    11  0.02

> <Gold.Chemscore.Hbond.Weighted>
-8.2521

> <Gold.Chemscore.Metal.Weighted>
-0.0000

> <Gold.Chemscore.Lipo.Weighted>
-9.1118

> <Gold.Chemscore.Internal_Hbond.Weighted>
0.0000

> <Gold.Chemscore.DEClash.Weighted>
1.4383

> <Gold.Chemscore.DEInternal.Weighted>
1.3050

> <Gold.Chemscore.Rot.Weighted>
4.0425

> <Gold.Chemscore.Internal.Correction.Weighted>
   9.000000E+99

> <Gold.Protein.RotatedTorsions>
[ 6907 6896 6895 6894 ] final   19.09 input  -60.11 | X-H torsion
[ 7974 7965 7964 7962 ] final -124.56 input  175.53 | X-H torsion
[ 8008 7997 7996 7995 ] final -176.73 input   59.86 | X-H torsion
[ 10167 10162 10161 10158 ] final  108.34 input  -65.29 | X-H torsion
[ 10718 10713 10712 10709 ] final   76.84 input   66.30 | X-H torsion
[ 10763 10752 10751 10750 ] final  -78.96 input  -60.55 | X-H torsion
[ 11005 11000 10999 10996 ] final -153.85 input  -57.11 | X-H torsion

> <Gold.Protein.ActiveResidues>
 VAL166  LYS551  ARG553  GLY616  TRP617  ASP618  TYR619  PRO620  LYS621  CYS622 
 ASP623  PHE694  ASN695  SER759  ASP760  ASP761  ALA762  ILE779  LEU786  VAL792 
 PHE793  MET794  SER795  GLU796  ALA797  LYS798  CYS799  TRP800  GLU811  SER814 

> <Gold.Protein.RotatedAtoms>
  151.8754  135.0473  160.0483 H   0  0  0  0  0  0  0  0  0  0  0  0  # atno 6907 bound_to 6896
  152.2555  133.5247  159.5359 H   0  0  0  0  0  0  0  0  0  0  0  0  # atno 6908 bound_to 6896
  150.7098  134.0818  159.3943 H   0  0  0  0  0  0  0  0  0  0  0  0  # atno 6909 bound_to 6896
  145.0068  140.7870  143.4463 H   0  0  0  0  0  0  0  0  0  0  0  0  # atno 7974 bound_to 7965
  155.9984  140.1215  157.0571 H   0  0  0  0  0  0  0  0  0  0  0  0  # atno 8008 bound_to 7997
  154.4234  140.1111  156.5731 H   0  0  0  0  0  0  0  0  0  0  0  0  # atno 8009 bound_to 7997
  155.6246  140.3472  155.4665 H   0  0  0  0  0  0  0  0  0  0  0  0  # atno 8010 bound_to 7997
  139.6854  144.7114  151.1441 H   0  0  0  0  0  0  0  0  0  0  0  0  # atno 10167 bound_to 10162
  157.6689  130.9793  150.1555 H   0  0  0  0  0  0  0  0  0  0  0  0  # atno 10718 bound_to 10713
  154.5325  135.5712  153.6771 H   0  0  0  0  0  0  0  0  0  0  0  0  # atno 10763 bound_to 10752
  152.9943  135.6208  154.2609 H   0  0  0  0  0  0  0  0  0  0  0  0  # atno 10764 bound_to 10752
  154.2536  135.2858  155.2786 H   0  0  0  0  0  0  0  0  0  0  0  0  # atno 10765 bound_to 10752
  140.7037  134.3909  157.5206 H   0  0  0  0  0  0  0  0  0  0  0  0  # atno 11005 bound_to 11000
  145.2078  139.2220  143.5159 LP  0  0  0  0  0  0  0  0  0  0  0  0  # atno 17320 bound_to 7965
  146.3462  140.1909  142.8589 LP  0  0  0  0  0  0  0  0  0  0  0  0  # atno 17321 bound_to 7965
  140.7666  143.5637  150.9071 LP  0  0  0  0  0  0  0  0  0  0  0  0  # atno 17342 bound_to 10162
  139.9311  143.6492  152.3076 LP  0  0  0  0  0  0  0  0  0  0  0  0  # atno 17343 bound_to 10162
  156.2344  130.3685  149.8408 LP  0  0  0  0  0  0  0  0  0  0  0  0  # atno 17370 bound_to 10713
  156.6225  130.8632  151.3478 LP  0  0  0  0  0  0  0  0  0  0  0  0  # atno 17371 bound_to 10713
  139.8890  134.8842  156.2445 LP  0  0  0  0  0  0  0  0  0  0  0  0  # atno 17394 bound_to 11000
  141.0142  133.7078  156.1162 LP  0  0  0  0  0  0  0  0  0  0  0  0  # atno 17395 bound_to 11000

$$$$
