AV-unprocessed.smi:910|AV-procd|sdf|4133|dock7
  -GOLD-   22720 2 33D 1   1.00000     0.00000
 Structure written by MMmdl.
 45 46  0  0  0  0  0  0  0  0  2 V2000
  146.5866  136.2773  162.2259 C   0  0  0  0  0  0  0  0  0  0  0  0
  147.3567  136.5342  160.9696 C   0  0  0  0  0  0  0  0  0  0  0  0
  148.7422  136.5531  160.9449 N   0  0  0  0  0  0  0  0  0  0  0  0
  149.0803  136.7978  159.6771 C   0  0  0  0  0  0  0  0  0  0  0  0
  150.3295  136.8862  159.1932 N   0  5  0  0  0  0  0  0  0  0  0  0
  150.5959  137.7668  158.2024 C   0  0  0  0  0  0  0  0  0  0  0  0
  150.9696  137.4865  157.0607 O   0  0  0  0  0  0  0  0  0  0  0  0
  150.4459  139.0499  158.5625 N   0  0  0  0  0  0  0  0  0  0  0  0
  150.7936  140.2112  157.7482 C   0  0  0  0  0  0  0  0  0  0  0  0
  150.3951  141.5178  158.4523 C   0  0  0  0  0  0  0  0  0  0  0  0
  151.2800  141.7368  159.5405 O   0  0  0  0  0  0  0  0  0  0  0  0
  152.4607  142.4712  159.2438 C   0  0  1  0  0  0  0  0  0  0  0  0
  152.1241  143.7705  158.4779 C   0  0  0  0  0  0  0  0  0  0  0  0
  151.2645  144.7249  159.3235 C   0  0  0  0  0  0  0  0  0  0  0  0
  151.9373  145.0407  160.6673 C   0  0  0  0  0  0  0  0  0  0  0  0
  152.2904  143.7563  161.4341 C   0  0  0  0  0  0  0  0  0  0  0  0
  153.1567  142.8041  160.5829 C   0  0  1  0  0  0  0  0  0  0  0  0
  153.5465  141.5380  161.3617 C   0  0  0  0  0  0  0  0  0  0  0  0
  147.9885  136.9581  158.8767 O   0  0  0  0  0  0  0  0  0  0  0  0
  146.9096  136.7864  159.7004 C   0  0  0  0  0  0  0  0  0  0  0  0
  145.5488  136.8961  159.1016 C   0  0  0  0  0  0  0  0  0  0  0  0
  146.4136  137.2032  162.7744 H   0  0  0  0  0  0  0  0  0  0  0  0
  147.1225  135.5951  162.8864 H   0  0  0  0  0  0  0  0  0  0  0  0
  145.6150  135.8323  162.0112 H   0  0  0  0  0  0  0  0  0  0  0  0
  150.1305  139.2312  159.5039 H   0  0  0  0  0  0  0  0  0  0  0  0
  151.8557  140.2132  157.4981 H   0  0  0  0  0  0  0  0  0  0  0  0
  150.2545  140.1272  156.8047 H   0  0  0  0  0  0  0  0  0  0  0  0
  150.4656  142.3563  157.7585 H   0  0  0  0  0  0  0  0  0  0  0  0
  149.3579  141.4546  158.7799 H   0  0  0  0  0  0  0  0  0  0  0  0
  153.1300  141.8538  158.6422 H   0  0  0  0  0  0  0  0  0  0  0  0
  153.0524  144.2747  158.2070 H   0  0  0  0  0  0  0  0  0  0  0  0
  151.6203  143.5549  157.5367 H   0  0  0  0  0  0  0  0  0  0  0  0
  151.0831  145.6486  158.7740 H   0  0  0  0  0  0  0  0  0  0  0  0
  150.2865  144.2781  159.5013 H   0  0  0  0  0  0  0  0  0  0  0  0
  152.8434  145.6224  160.4934 H   0  0  0  0  0  0  0  0  0  0  0  0
  151.2789  145.6650  161.2723 H   0  0  0  0  0  0  0  0  0  0  0  0
  152.8150  144.0158  162.3540 H   0  0  0  0  0  0  0  0  0  0  0  0
  151.3720  143.2520  161.7378 H   0  0  0  0  0  0  0  0  0  0  0  0
  154.0846  143.3278  160.3478 H   0  0  0  0  0  0  0  0  0  0  0  0
  152.6671  140.9670  161.6616 H   0  0  0  0  0  0  0  0  0  0  0  0
  154.1007  141.7901  162.2660 H   0  0  0  0  0  0  0  0  0  0  0  0
  154.1782  140.8856  160.7588 H   0  0  0  0  0  0  0  0  0  0  0  0
  145.0479  135.9280  159.1046 H   0  0  0  0  0  0  0  0  0  0  0  0
  145.6013  137.2470  158.0707 H   0  0  0  0  0  0  0  0  0  0  0  0
  144.9346  137.5974  159.6666 H   0  0  0  0  0  0  0  0  0  0  0  0
  1 22  1  0  0  0  0
  1 23  1  0  0  0  0
  1 24  1  0  0  0  0
  1  2  1  0  0  0  0
  2  3  1  0  0  0  0
  2 20  2  0  0  0  0
  3  4  2  0  0  0  0
  4 19  1  0  0  0  0
  4  5  1  0  0  0  0
  5  6  1  0  0  0  0
  6  8  1  0  0  0  0
  6  7  2  0  0  0  0
  8  9  1  0  0  0  0
  8 25  1  0  0  0  0
  9 10  1  0  0  0  0
  9 26  1  0  0  0  0
  9 27  1  0  0  0  0
 10 11  1  0  0  0  0
 10 28  1  0  0  0  0
 10 29  1  0  0  0  0
 11 12  1  0  0  0  0
 12 17  1  0  0  0  0
 12 13  1  0  0  0  0
 12 30  1  0  0  0  0
 13 14  1  0  0  0  0
 13 31  1  0  0  0  0
 13 32  1  0  0  0  0
 14 15  1  0  0  0  0
 14 33  1  0  0  0  0
 14 34  1  0  0  0  0
 15 16  1  0  0  0  0
 15 35  1  0  0  0  0
 15 36  1  0  0  0  0
 16 17  1  0  0  0  0
 16 37  1  0  0  0  0
 16 38  1  0  0  0  0
 17 18  1  0  0  0  0
 17 39  1  0  0  0  0
 18 40  1  0  0  0  0
 18 41  1  0  0  0  0
 18 42  1  0  0  0  0
 19 20  1  0  0  0  0
 20 21  1  0  0  0  0
 21 43  1  0  0  0  0
 21 44  1  0  0  0  0
 21 45  1  0  0  0  0
M  CHG  1   5  -1
M  END
> <s_m_source_file>
AV-unprocessed.smi

> <i_m_source_file_index>
910

> <i_lp_mmshare_version>
43012

> <i_f3d_flags>
0

> <s_epik_input>
W0NIM11jMW5jKG9jMVtDSDNdKVtOSF1DKD1PKVtOSF1bQ0gyXVtDSDJdT1tDQEBIXTJbQ0gyXVtDSDJdW0NIMl1bQ0gyXVtDQEhdMltDSDNd

> <s_epik_cmdline>
J2VwaWtfcHl0aG9uJywgJy1waCcsICc3LjAnLCAnLXRuJywgJzgnLCAnLW1hJywgJzIwMCcsICctbWV0YWxfYmluZGluZycsICctaW1hZScsICc8aW5maWxlLm1hZT4nLCAnLW9tYWUnLCAnPG91dGZpbGUubWFlPic=

> <r_lp_tautomer_probability>
0.107061

> <r_epik_Ionization_Penalty>
10.1763

> <r_epik_Ionization_Penalty_Charging>
7.13067

> <r_epik_Ionization_Penalty_Neutral>
3.04564

> <r_epik_State_Penalty>
5.57927

> <r_epik_Charging_Adjusted_Penalty>
12.7099

> <i_epik_Tot_Q>
-1

> <i_epik_Tot_abs_Q>
1

> <r_epik_Metal_State_Penalty>
1.52303

> <b_epik_Metal_Only>
1

> <s_lp_Force_Field>
OPLS_2005

> <r_lp_Energy>
4.58121

> <b_lp_Chiralities_Consistent>
1

> <s_lp_Variant>
AV-unprocessed.smi:910-18

> <Gold.Version>
5.8.1

> <Gold.Id.Protein>
6NUR|6NUR_protein|mol2

> <Gold.PLP.Fitness>
49.3992

> <Gold.PLP.PLP>
-42.5694

> <Gold.PLP.part.hbond>
-2.5873

> <Gold.PLP.part.metal>
0.0000

> <Gold.PLP.part.buried>
-5.7902

> <Gold.PLP.part.nonpolar>
-34.8931

> <Gold.PLP.part.repulsive>
0.1690

> <Gold.PLP.ligand.clash>
0.0000

> <Gold.PLP.ligand.torsion>
1.1293

> <Gold.PLP.Chemscore.Hbond>
3.0000

> <Gold.PLP.Chemscore.CHOScore>
0.0000

> <Gold.PLP.Chemscore.Metal>
0.0000

> <Gold.Chemscore.Hbonds>
donor molecule, donor type, donor heavy atom, donor atom, acceptor molecule, acceptor atom, score
      P1  H  6896  6909       L1     5  1.58
      P1  H  6931  6943       L1     3  1.00

> <Gold.PLP.Chemscore.Internal.Correction>
0.0885

> <Gold.Rescore>
     Score         DG    S(hbond)    S(metal)    S(lipo)     H(rot)  DE(clash)    DE(int)     intcor
     18.25     -19.65       1.77        0.00     106.00       1.62       0.01       1.39       ----

> <Gold.Chemscore.Fitness>
18.2537

> <Gold.Chemscore.DG>
-19.6517

> <Gold.Chemscore.ZeroCoef>
-5.4800

> <Gold.Chemscore.Hbond>
1.7692

> <Gold.Chemscore.Metal>
0.0000

> <Gold.Chemscore.Lipo>
105.9991

> <Gold.Chemscore.Internal_Hbond>
0.0000

> <Gold.Chemscore.DEClash>
0.0067

> <Gold.Chemscore.DEInternal>
1.3914

> <Gold.Chemscore.Rot>
1.6169

> <Gold.Chemscore.Internal.Correction>
   9.000000E+99

> <Gold.Chemscore.Hbonds>
donor molecule, donor type, donor heavy atom, donor atom, acceptor molecule, acceptor atom, score
      P1  H  6896  6909       L1     5  0.15
      P1  H  6931  6943       L1     3  0.12

> <Gold.Chemscore.Hbond.Weighted>
-5.9091

> <Gold.Chemscore.Metal.Weighted>
-0.0000

> <Gold.Chemscore.Lipo.Weighted>
-12.4019

> <Gold.Chemscore.Internal_Hbond.Weighted>
0.0000

> <Gold.Chemscore.DEClash.Weighted>
0.0067

> <Gold.Chemscore.DEInternal.Weighted>
1.3914

> <Gold.Chemscore.Rot.Weighted>
4.1393

> <Gold.Chemscore.Internal.Correction.Weighted>
   9.000000E+99

> <Gold.Protein.RotatedTorsions>
[ 6907 6896 6895 6894 ] final   82.23 input  -60.11 | X-H torsion
[ 7974 7965 7964 7962 ] final  102.06 input  175.53 | X-H torsion
[ 8008 7997 7996 7995 ] final    7.85 input   59.86 | X-H torsion
[ 10167 10162 10161 10158 ] final   14.46 input  -65.29 | X-H torsion
[ 10718 10713 10712 10709 ] final  -23.99 input   66.30 | X-H torsion
[ 10763 10752 10751 10750 ] final    7.38 input  -60.55 | X-H torsion
[ 11005 11000 10999 10996 ] final  -85.07 input  -57.11 | X-H torsion

> <Gold.Protein.ActiveResidues>
 VAL166  LYS551  ARG553  GLY616  TRP617  ASP618  TYR619  PRO620  LYS621  CYS622 
 ASP623  PHE694  ASN695  SER759  ASP760  ASP761  ALA762  ILE779  LEU786  VAL792 
 PHE793  MET794  SER795  GLU796  ALA797  LYS798  CYS799  TRP800  GLU811  SER814 

> <Gold.Protein.RotatedAtoms>
  152.5293  134.3082  159.9103 H   0  0  0  0  0  0  0  0  0  0  0  0  # atno 6907 bound_to 6896
  151.3031  133.4107  159.2649 H   0  0  0  0  0  0  0  0  0  0  0  0  # atno 6908 bound_to 6896
  151.0102  134.9407  159.8060 H   0  0  0  0  0  0  0  0  0  0  0  0  # atno 6909 bound_to 6896
  145.3641  139.2411  143.3490 H   0  0  0  0  0  0  0  0  0  0  0  0  # atno 7974 bound_to 7965
  154.7592  140.2781  155.6228 H   0  0  0  0  0  0  0  0  0  0  0  0  # atno 8008 bound_to 7997
  156.2912  140.2663  156.2293 H   0  0  0  0  0  0  0  0  0  0  0  0  # atno 8009 bound_to 7997
  155.0039  140.0372  157.2361 H   0  0  0  0  0  0  0  0  0  0  0  0  # atno 8010 bound_to 7997
  140.5934  143.8750  150.6895 H   0  0  0  0  0  0  0  0  0  0  0  0  # atno 10167 bound_to 10162
  156.4836  130.4551  149.6797 H   0  0  0  0  0  0  0  0  0  0  0  0  # atno 10718 bound_to 10713
  153.2369  135.6899  153.7826 H   0  0  0  0  0  0  0  0  0  0  0  0  # atno 10763 bound_to 10752
  153.6970  135.3303  155.3216 H   0  0  0  0  0  0  0  0  0  0  0  0  # atno 10764 bound_to 10752
  154.8339  135.4559  154.1276 H   0  0  0  0  0  0  0  0  0  0  0  0  # atno 10765 bound_to 10752
  141.1645  133.7380  156.8961 H   0  0  0  0  0  0  0  0  0  0  0  0  # atno 11005 bound_to 11000
  146.2914  140.4281  142.8738 LP  0  0  0  0  0  0  0  0  0  0  0  0  # atno 17320 bound_to 7965
  144.8624  140.7159  143.6099 LP  0  0  0  0  0  0  0  0  0  0  0  0  # atno 17321 bound_to 7965
  140.2279  143.3758  152.1590 LP  0  0  0  0  0  0  0  0  0  0  0  0  # atno 17342 bound_to 10162
  139.5242  144.7081  151.5292 LP  0  0  0  0  0  0  0  0  0  0  0  0  # atno 17343 bound_to 10162
  156.3496  130.7425  151.2383 LP  0  0  0  0  0  0  0  0  0  0  0  0  # atno 17370 bound_to 10713
  157.7481  131.0381  150.4485 LP  0  0  0  0  0  0  0  0  0  0  0  0  # atno 17371 bound_to 10713
  140.1615  134.9162  157.2720 LP  0  0  0  0  0  0  0  0  0  0  0  0  # atno 17394 bound_to 11000
  140.2606  134.3575  155.7408 LP  0  0  0  0  0  0  0  0  0  0  0  0  # atno 17395 bound_to 11000

$$$$
