AV-unprocessed.smi:1791|AV-procd|sdf|7220|dock3
  -GOLD-   22720 8463D 1   1.00000     0.00000
 Structure written by MMmdl.
 38 39  0  0  0  0  0  0  0  0  1 V2000
  151.6724  140.1671  155.8113 C   0  0  0  0  0  0  0  0  0  0  0  0
  150.7724  141.1070  155.2347 O   0  0  0  0  0  0  0  0  0  0  0  0
  149.5949  140.6375  154.6895 C   0  0  0  0  0  0  0  0  0  0  0  0
  148.5545  141.5543  154.4399 C   0  0  0  0  0  0  0  0  0  0  0  0
  147.3517  141.0844  153.8785 C   0  0  0  0  0  0  0  0  0  0  0  0
  147.2304  139.7070  153.5766 C   0  0  0  0  0  0  0  0  0  0  0  0
  146.0680  139.1069  153.0214 N   0  0  0  0  0  0  0  0  0  0  0  0
  145.7154  137.8101  153.0176 C   0  0  0  0  0  0  0  0  0  0  0  0
  146.3733  136.8927  153.5073 O   0  0  0  0  0  0  0  0  0  0  0  0
  144.5258  137.6376  152.4239 N   0  0  0  0  0  0  0  0  0  0  0  0
  143.8200  136.3667  152.2627 C   0  0  2  0  0  0  0  0  0  0  0  0
  143.7070  135.6665  153.6244 C   0  0  0  0  0  0  0  0  0  0  0  0
  144.5199  135.4808  151.2118 C   0  0  1  0  0  0  0  0  0  0  0  0
  145.9034  134.9585  151.6083 C   0  0  0  0  0  0  0  0  0  0  0  0
  146.0341  133.7497  150.7105 C   0  0  0  0  0  0  0  0  0  0  0  0
  144.6125  133.1941  150.7272 C   0  0  0  0  0  0  0  0  0  0  0  0
  143.7523  134.3146  150.9184 O   0  0  0  0  0  0  0  0  0  0  0  0
  148.3235  138.8701  153.8811 C   0  0  0  0  0  0  0  0  0  0  0  0
  149.4795  139.3141  154.4180 N   0  0  0  0  0  0  0  0  0  0  0  0
  152.5514  140.6921  156.1849 H   0  0  0  0  0  0  0  0  0  0  0  0
  152.0119  139.4363  155.0757 H   0  0  0  0  0  0  0  0  0  0  0  0
  151.2170  139.6435  156.6533 H   0  0  0  0  0  0  0  0  0  0  0  0
  148.6760  142.6008  154.6777 H   0  0  0  0  0  0  0  0  0  0  0  0
  146.5499  141.7847  153.7043 H   0  0  0  0  0  0  0  0  0  0  0  0
  145.3882  139.7509  152.6442 H   0  0  0  0  0  0  0  0  0  0  0  0
  144.0579  138.4552  152.0605 H   0  0  0  0  0  0  0  0  0  0  0  0
  142.8028  136.5454  151.9102 H   0  0  0  0  0  0  0  0  0  0  0  0
  143.1562  134.7295  153.5383 H   0  0  0  0  0  0  0  0  0  0  0  0
  143.1794  136.2925  154.3447 H   0  0  0  0  0  0  0  0  0  0  0  0
  144.6896  135.4379  154.0385 H   0  0  0  0  0  0  0  0  0  0  0  0
  144.6237  136.0393  150.2800 H   0  0  0  0  0  0  0  0  0  0  0  0
  146.6944  135.6931  151.4547 H   0  0  0  0  0  0  0  0  0  0  0  0
  145.9299  134.6437  152.6519 H   0  0  0  0  0  0  0  0  0  0  0  0
  146.3046  134.0615  149.7007 H   0  0  0  0  0  0  0  0  0  0  0  0
  146.7773  133.0323  151.0595 H   0  0  0  0  0  0  0  0  0  0  0  0
  144.3669  132.6559  149.8116 H   0  0  0  0  0  0  0  0  0  0  0  0
  144.4806  132.5113  151.5675 H   0  0  0  0  0  0  0  0  0  0  0  0
  148.2741  137.8094  153.6820 H   0  0  0  0  0  0  0  0  0  0  0  0
  1  2  1  0  0  0  0
  1 20  1  0  0  0  0
  1 21  1  0  0  0  0
  1 22  1  0  0  0  0
  2  3  1  0  0  0  0
  3 19  1  0  0  0  0
  3  4  2  0  0  0  0
  4  5  1  0  0  0  0
  4 23  1  0  0  0  0
  5  6  2  0  0  0  0
  5 24  1  0  0  0  0
  6  7  1  0  0  0  0
  6 18  1  0  0  0  0
  7  8  1  0  0  0  0
  7 25  1  0  0  0  0
  8  9  2  0  0  0  0
  8 10  1  0  0  0  0
 10 11  1  0  0  0  0
 10 26  1  0  0  0  0
 11 12  1  0  0  0  0
 11 13  1  0  0  0  0
 11 27  1  0  0  0  0
 12 28  1  0  0  0  0
 12 29  1  0  0  0  0
 12 30  1  0  0  0  0
 13 17  1  0  0  0  0
 13 14  1  0  0  0  0
 13 31  1  0  0  0  0
 14 15  1  0  0  0  0
 14 32  1  0  0  0  0
 14 33  1  0  0  0  0
 15 16  1  0  0  0  0
 15 34  1  0  0  0  0
 15 35  1  0  0  0  0
 16 17  1  0  0  0  0
 16 36  1  0  0  0  0
 16 37  1  0  0  0  0
 18 19  2  0  0  0  0
 18 38  1  0  0  0  0
M  END
> <s_m_source_file>
AV-unprocessed.smi

> <i_m_source_file_index>
1791

> <i_lp_mmshare_version>
43012

> <i_f3d_flags>
0

> <s_epik_input>
W0NIM11PYzFbY0hdW2NIXWMoW2NIXW4xKVtOSF1DKD1PKVtOSF1bQ0BIXShbQ0gzXSlbQ0BASF0yW0NIMl1bQ0gyXVtDSDJdTzI=

> <s_epik_cmdline>
J2VwaWtfcHl0aG9uJywgJy1waCcsICc3LjAnLCAnLXRuJywgJzgnLCAnLW1hJywgJzIwMCcsICctbWV0YWxfYmluZGluZycsICctaW1hZScsICc8aW5maWxlLm1hZT4nLCAnLW9tYWUnLCAnPG91dGZpbGUubWFlPic=

> <r_lp_tautomer_probability>
1

> <r_epik_Ionization_Penalty>
9.18737e-05

> <r_epik_Ionization_Penalty_Charging>
0

> <r_epik_Ionization_Penalty_Neutral>
9.18737e-05

> <r_epik_State_Penalty>
-0

> <r_epik_Charging_Adjusted_Penalty>
0

> <i_epik_Tot_Q>
0

> <i_epik_Tot_abs_Q>
0

> <r_epik_Metal_State_Penalty>
-0

> <b_epik_Metal_Only>
0

> <s_lp_Force_Field>
OPLS_2005

> <r_lp_Energy>
21.9226

> <b_lp_Chiralities_Consistent>
1

> <s_lp_Variant>
AV-unprocessed.smi:1791-3

> <Gold.Version>
5.8.1

> <Gold.Id.Protein>
6NUR|6NUR_protein|mol2

> <Gold.PLP.Fitness>
40.3862

> <Gold.PLP.PLP>
-32.2648

> <Gold.PLP.part.hbond>
-4.0000

> <Gold.PLP.part.metal>
0.0000

> <Gold.PLP.part.buried>
-3.4661

> <Gold.PLP.part.nonpolar>
-26.0935

> <Gold.PLP.part.repulsive>
0.9293

> <Gold.PLP.ligand.clash>
0.0000

> <Gold.PLP.ligand.torsion>
0.4186

> <Gold.PLP.Chemscore.Hbond>
1.9773

> <Gold.PLP.Chemscore.CHOScore>
1.0000

> <Gold.PLP.Chemscore.Metal>
0.0000

> <Gold.Chemscore.Hbonds>
donor molecule, donor type, donor heavy atom, donor atom, acceptor molecule, acceptor atom, score
      L1  H     7    25       P1 10175  1.00
      L1  H    10    26       P1 10175  0.83
      P1  H  7989  7998       L1     2  0.18
      L1  C    18    38       P1  7948  1.00

> <Gold.PLP.Chemscore.Internal.Correction>
0.0266

> <Gold.Rescore>
     Score         DG    S(hbond)    S(metal)    S(lipo)     H(rot)  DE(clash)    DE(int)     intcor
     10.91     -15.37       1.89        0.00      62.58       1.47       0.18       4.27       ----

> <Gold.Chemscore.Fitness>
10.9148

> <Gold.Chemscore.DG>
-15.3675

> <Gold.Chemscore.ZeroCoef>
-5.4800

> <Gold.Chemscore.Hbond>
1.8944

> <Gold.Chemscore.Metal>
0.0000

> <Gold.Chemscore.Lipo>
62.5753

> <Gold.Chemscore.Internal_Hbond>
0.0000

> <Gold.Chemscore.DEClash>
0.1831

> <Gold.Chemscore.DEInternal>
4.2695

> <Gold.Chemscore.Rot>
1.4693

> <Gold.Chemscore.Internal.Correction>
   9.000000E+99

> <Gold.Chemscore.Hbonds>
donor molecule, donor type, donor heavy atom, donor atom, acceptor molecule, acceptor atom, score
      L1  H     7    25       P1 10175  0.98
      L1  H    10    26       P1 10175  0.78

> <Gold.Chemscore.Hbond.Weighted>
-6.3274

> <Gold.Chemscore.Metal.Weighted>
-0.0000

> <Gold.Chemscore.Lipo.Weighted>
-7.3213

> <Gold.Chemscore.Internal_Hbond.Weighted>
0.0000

> <Gold.Chemscore.DEClash.Weighted>
0.1831

> <Gold.Chemscore.DEInternal.Weighted>
4.2695

> <Gold.Chemscore.Rot.Weighted>
3.7613

> <Gold.Chemscore.Internal.Correction.Weighted>
   9.000000E+99

> <Gold.Protein.RotatedTorsions>
[ 6907 6896 6895 6894 ] final  137.81 input  -60.11 | X-H torsion
[ 7974 7965 7964 7962 ] final    2.17 input  175.53 | X-H torsion
[ 8008 7997 7996 7995 ] final -167.19 input   59.86 | X-H torsion
[ 10167 10162 10161 10158 ] final  -71.60 input  -65.29 | X-H torsion
[ 10718 10713 10712 10709 ] final  161.87 input   66.30 | X-H torsion
[ 10763 10752 10751 10750 ] final  -73.53 input  -60.55 | X-H torsion
[ 11005 11000 10999 10996 ] final -179.02 input  -57.11 | X-H torsion

> <Gold.Protein.ActiveResidues>
 VAL166  LYS551  ARG553  GLY616  TRP617  ASP618  TYR619  PRO620  LYS621  CYS622 
 ASP623  PHE694  ASN695  SER759  ASP760  ASP761  ALA762  ILE779  LEU786  VAL792 
 PHE793  MET794  SER795  GLU796  ALA797  LYS798  CYS799  TRP800  GLU811  SER814 

> <Gold.Protein.RotatedAtoms>
  152.2738  133.5406  159.5454 H   0  0  0  0  0  0  0  0  0  0  0  0  # atno 6907 bound_to 6896
  150.7169  134.0661  159.3857 H   0  0  0  0  0  0  0  0  0  0  0  0  # atno 6908 bound_to 6896
  151.8574  135.0536  160.0516 H   0  0  0  0  0  0  0  0  0  0  0  0  # atno 6909 bound_to 6896
  146.2443  140.0877  142.8353 H   0  0  0  0  0  0  0  0  0  0  0  0  # atno 7974 bound_to 7965
  155.8743  140.0998  157.1529 H   0  0  0  0  0  0  0  0  0  0  0  0  # atno 8008 bound_to 7997
  154.3999  140.1341  156.4180 H   0  0  0  0  0  0  0  0  0  0  0  0  # atno 8009 bound_to 7997
  155.7715  140.3461  155.5252 H   0  0  0  0  0  0  0  0  0  0  0  0  # atno 8010 bound_to 7997
  140.5260  143.2326  151.7347 H   0  0  0  0  0  0  0  0  0  0  0  0  # atno 10167 bound_to 10162
  157.1304  131.0515  151.2374 H   0  0  0  0  0  0  0  0  0  0  0  0  # atno 10718 bound_to 10713
  154.4607  135.5894  153.6253 H   0  0  0  0  0  0  0  0  0  0  0  0  # atno 10763 bound_to 10752
  152.9823  135.6043  154.3490 H   0  0  0  0  0  0  0  0  0  0  0  0  # atno 10764 bound_to 10752
  154.3361  135.2842  155.2425 H   0  0  0  0  0  0  0  0  0  0  0  0  # atno 10765 bound_to 10752
  140.4233  134.6586  157.4675 H   0  0  0  0  0  0  0  0  0  0  0  0  # atno 11005 bound_to 11000
  145.0678  140.9134  143.4900 LP  0  0  0  0  0  0  0  0  0  0  0  0  # atno 17320 bound_to 7965
  145.1004  139.2826  143.5689 LP  0  0  0  0  0  0  0  0  0  0  0  0  # atno 17321 bound_to 7965
  139.4938  144.4185  152.0003 LP  0  0  0  0  0  0  0  0  0  0  0  0  # atno 17342 bound_to 10162
  140.3284  144.3345  150.5993 LP  0  0  0  0  0  0  0  0  0  0  0  0  # atno 17343 bound_to 10162
  157.4397  130.7537  149.7059 LP  0  0  0  0  0  0  0  0  0  0  0  0  # atno 17370 bound_to 10713
  155.9809  130.4025  150.3502 LP  0  0  0  0  0  0  0  0  0  0  0  0  # atno 17371 bound_to 10713
  140.0185  134.6583  155.9275 LP  0  0  0  0  0  0  0  0  0  0  0  0  # atno 17394 bound_to 11000
  141.1775  133.6542  156.4887 LP  0  0  0  0  0  0  0  0  0  0  0  0  # atno 17395 bound_to 11000

$$$$
