AV-unprocessed.smi:2078|AV-procd|sdf|8471|dock7
  -GOLD-   2272011173D 1   1.00000     0.00000
 Structure written by MMmdl.
 41 42  0  0  0  0  0  0  0  0  3 V2000
  152.8543  143.1042  159.8966 C   0  0  0  0  0  0  0  0  0  0  0  0
  152.0842  142.5497  158.7476 C   0  0  0  0  0  0  0  0  0  0  0  0
  151.2276  143.1125  157.8440 C   0  0  0  0  0  0  0  0  0  0  0  0
  150.8548  142.0126  157.0263 C   0  0  0  0  0  0  0  0  0  0  0  0
  149.9541  142.1901  155.9430 N   0  0  0  0  0  0  0  0  0  0  0  0
  149.7656  141.4071  154.8650 C   0  0  0  0  0  0  0  0  0  0  0  0
  150.4208  140.3672  154.7259 O   0  0  0  0  0  0  0  0  0  0  0  0
  148.8157  141.9066  154.0275 N   0  5  0  0  0  0  0  0  0  0  0  0
  147.7220  141.1258  153.4556 C   0  0  0  0  0  0  0  0  0  0  0  0
  146.6942  140.7945  154.5544 C   0  0  0  0  0  0  0  0  0  0  0  0
  145.5220  141.7096  154.5165 N   0  3  1  0  0  0  0  0  0  0  0  0
  144.7788  141.7420  155.8033 C   0  0  0  0  0  0  0  0  0  0  0  0
  143.4895  142.5697  155.6773 C   0  0  0  0  0  0  0  0  0  0  0  0
  143.7912  143.9902  155.1825 C   0  0  0  0  0  0  0  0  0  0  0  0
  144.5854  143.9396  153.8664 C   0  0  1  0  0  0  0  0  0  0  0  0
  144.9229  145.3483  153.3582 C   0  0  0  0  0  0  0  0  0  0  0  0
  145.8552  143.0843  154.0464 C   0  0  0  0  0  0  0  0  0  0  0  0
  151.4339  140.8804  157.3977 N   0  0  0  0  0  0  0  0  0  0  0  0
  152.2243  141.2188  158.5025 O   0  0  0  0  0  0  0  0  0  0  0  0
  152.6630  144.1708  160.0148 H   0  0  0  0  0  0  0  0  0  0  0  0
  153.9250  142.9669  159.7457 H   0  0  0  0  0  0  0  0  0  0  0  0
  152.5754  142.6055  160.8249 H   0  0  0  0  0  0  0  0  0  0  0  0
  150.9178  144.1448  157.7800 H   0  0  0  0  0  0  0  0  0  0  0  0
  149.3763  143.0160  155.9887 H   0  0  0  0  0  0  0  0  0  0  0  0
  147.2170  141.6621  152.6513 H   0  0  0  0  0  0  0  0  0  0  0  0
  148.0796  140.1946  153.0146 H   0  0  0  0  0  0  0  0  0  0  0  0
  146.3638  139.7653  154.4038 H   0  0  0  0  0  0  0  0  0  0  0  0
  147.1551  140.8194  155.5433 H   0  0  0  0  0  0  0  0  0  0  0  0
  144.5196  140.7266  156.1059 H   0  0  0  0  0  0  0  0  0  0  0  0
  145.4194  142.1540  156.5848 H   0  0  0  0  0  0  0  0  0  0  0  0
  142.8052  142.0775  154.9849 H   0  0  0  0  0  0  0  0  0  0  0  0
  142.9785  142.6117  156.6396 H   0  0  0  0  0  0  0  0  0  0  0  0
  142.8597  144.5398  155.0424 H   0  0  0  0  0  0  0  0  0  0  0  0
  144.3606  144.5290  155.9412 H   0  0  0  0  0  0  0  0  0  0  0  0
  143.9606  143.4597  153.1112 H   0  0  0  0  0  0  0  0  0  0  0  0
  145.5435  145.8903  154.0722 H   0  0  0  0  0  0  0  0  0  0  0  0
  144.0177  145.9331  153.1923 H   0  0  0  0  0  0  0  0  0  0  0  0
  145.4645  145.3057  152.4128 H   0  0  0  0  0  0  0  0  0  0  0  0
  146.5316  143.5574  154.7604 H   0  0  0  0  0  0  0  0  0  0  0  0
  146.3894  143.0337  153.0970 H   0  0  0  0  0  0  0  0  0  0  0  0
  144.8883  141.3114  153.8383 H   0  0  0  0  0  0  0  0  0  0  0  0
  1  2  1  0  0  0  0
  1 20  1  0  0  0  0
  1 21  1  0  0  0  0
  1 22  1  0  0  0  0
  2 19  1  0  0  0  0
  2  3  2  0  0  0  0
  3  4  1  0  0  0  0
  3 23  1  0  0  0  0
  4  5  1  0  0  0  0
  4 18  2  0  0  0  0
  5  6  1  0  0  0  0
  5 24  1  0  0  0  0
  6  7  2  0  0  0  0
  6  8  1  0  0  0  0
  8  9  1  0  0  0  0
  9 10  1  0  0  0  0
  9 25  1  0  0  0  0
  9 26  1  0  0  0  0
 10 11  1  0  0  0  0
 10 27  1  0  0  0  0
 10 28  1  0  0  0  0
 11 17  1  0  0  0  0
 11 12  1  0  0  0  0
 11 41  1  0  0  0  0
 12 13  1  0  0  0  0
 12 29  1  0  0  0  0
 12 30  1  0  0  0  0
 13 14  1  0  0  0  0
 13 31  1  0  0  0  0
 13 32  1  0  0  0  0
 14 15  1  0  0  0  0
 14 33  1  0  0  0  0
 14 34  1  0  0  0  0
 15 16  1  0  0  0  0
 15 17  1  0  0  0  0
 15 35  1  0  0  0  0
 16 36  1  0  0  0  0
 16 37  1  0  0  0  0
 16 38  1  0  0  0  0
 17 39  1  0  0  0  0
 17 40  1  0  0  0  0
 18 19  1  0  0  0  0
M  CHG  1   8  -1
M  CHG  1  11   1
M  END
> <s_m_source_file>
AV-unprocessed.smi

> <i_m_source_file_index>
2078

> <i_lp_mmshare_version>
43012

> <i_f3d_flags>
0

> <s_epik_input>
W0NIM11jMVtjSF1jKG5vMSlbTkhdQyg9TylbTkhdW0NIMl1bQ0gyXU4yW0NIMl1bQ0gyXVtDSDJdW0NAQEhdKFtDSDNdKVtDSDJdMg==

> <s_epik_cmdline>
J2VwaWtfcHl0aG9uJywgJy1waCcsICc3LjAnLCAnLXRuJywgJzgnLCAnLW1hJywgJzIwMCcsICctbWV0YWxfYmluZGluZycsICctaW1hZScsICc8aW5maWxlLm1hZT4nLCAnLW9tYWUnLCAnPG91dGZpbGUubWFlPic=

> <r_epik_Ionization_Penalty>
6.76934

> <r_epik_Ionization_Penalty_Charging>
6.76934

> <r_epik_Ionization_Penalty_Neutral>
5.77849e-06

> <r_epik_State_Penalty>
6.79457

> <r_epik_Charging_Adjusted_Penalty>
13.5639

> <i_epik_Tot_Q>
0

> <i_epik_Tot_abs_Q>
2

> <r_epik_Metal_State_Penalty>
2.72837

> <b_epik_Metal_Only>
1

> <s_lp_Force_Field>
OPLS_2005

> <r_lp_Energy>
13.3019

> <b_lp_Chiralities_Consistent>
1

> <s_lp_Variant>
AV-unprocessed.smi:2078-9

> <Gold.Version>
5.8.1

> <Gold.Id.Protein>
6NUR|6NUR_protein|mol2

> <Gold.PLP.Fitness>
45.6090

> <Gold.PLP.PLP>
-34.4318

> <Gold.PLP.part.hbond>
-3.9908

> <Gold.PLP.part.metal>
0.0000

> <Gold.PLP.part.buried>
-3.6637

> <Gold.PLP.part.nonpolar>
-27.4014

> <Gold.PLP.part.repulsive>
0.4167

> <Gold.PLP.ligand.clash>
0.0000

> <Gold.PLP.ligand.torsion>
1.1011

> <Gold.PLP.Chemscore.Hbond>
4.4460

> <Gold.PLP.Chemscore.CHOScore>
0.0000

> <Gold.PLP.Chemscore.Metal>
0.0000

> <Gold.Chemscore.Hbonds>
donor molecule, donor type, donor heavy atom, donor atom, acceptor molecule, acceptor atom, score
      L1  H     5    24       P1  8028  1.00
      L1  H    11    41       P1 10175  2.00
      P1  H  7989  7998       L1     7  1.00
      P1  H  8011  8017       L1     8  0.46

> <Gold.PLP.Chemscore.Internal.Correction>
0.0415

> <Gold.Rescore>
     Score         DG    S(hbond)    S(metal)    S(lipo)     H(rot)  DE(clash)    DE(int)     intcor
     14.82     -18.19       2.44        0.00      72.76       1.54       1.04       2.33       ----

> <Gold.Chemscore.Fitness>
14.8246

> <Gold.Chemscore.DG>
-18.1892

> <Gold.Chemscore.ZeroCoef>
-5.4800

> <Gold.Chemscore.Hbond>
2.4373

> <Gold.Chemscore.Metal>
0.0000

> <Gold.Chemscore.Lipo>
72.7637

> <Gold.Chemscore.Internal_Hbond>
0.0000

> <Gold.Chemscore.DEClash>
1.0350

> <Gold.Chemscore.DEInternal>
2.3296

> <Gold.Chemscore.Rot>
1.5409

> <Gold.Chemscore.Internal.Correction>
   9.000000E+99

> <Gold.Chemscore.Hbonds>
donor molecule, donor type, donor heavy atom, donor atom, acceptor molecule, acceptor atom, score
      L1  H     5    24       P1  8028  0.99
      L1  H    11    41       P1 10175  0.44
      P1  H  7989  7998       L1     7  0.29
      P1  H  8011  8017       L1     8  0.06

> <Gold.Chemscore.Hbond.Weighted>
-8.1405

> <Gold.Chemscore.Metal.Weighted>
-0.0000

> <Gold.Chemscore.Lipo.Weighted>
-8.5134

> <Gold.Chemscore.Internal_Hbond.Weighted>
0.0000

> <Gold.Chemscore.DEClash.Weighted>
1.0350

> <Gold.Chemscore.DEInternal.Weighted>
2.3296

> <Gold.Chemscore.Rot.Weighted>
3.9446

> <Gold.Chemscore.Internal.Correction.Weighted>
   9.000000E+99

> <Gold.Protein.RotatedTorsions>
[ 6907 6896 6895 6894 ] final -155.52 input  -60.11 | X-H torsion
[ 7974 7965 7964 7962 ] final   10.30 input  175.53 | X-H torsion
[ 8008 7997 7996 7995 ] final   96.38 input   59.86 | X-H torsion
[ 10167 10162 10161 10158 ] final  -61.12 input  -65.29 | X-H torsion
[ 10718 10713 10712 10709 ] final  -66.24 input   66.30 | X-H torsion
[ 10763 10752 10751 10750 ] final   18.61 input  -60.55 | X-H torsion
[ 11005 11000 10999 10996 ] final   22.74 input  -57.11 | X-H torsion

> <Gold.Protein.ActiveResidues>
 VAL166  LYS551  ARG553  GLY616  TRP617  ASP618  TYR619  PRO620  LYS621  CYS622 
 ASP623  PHE694  ASN695  SER759  ASP760  ASP761  ALA762  ILE779  LEU786  VAL792 
 PHE793  MET794  SER795  GLU796  ALA797  LYS798  CYS799  TRP800  GLU811  SER814 

> <Gold.Protein.RotatedAtoms>
  151.2738  133.4242  159.2622 H   0  0  0  0  0  0  0  0  0  0  0  0  # atno 6907 bound_to 6896
  151.0422  134.9615  159.8177 H   0  0  0  0  0  0  0  0  0  0  0  0  # atno 6908 bound_to 6896
  152.5367  134.2695  159.9019 H   0  0  0  0  0  0  0  0  0  0  0  0  # atno 6909 bound_to 6896
  146.2390  139.9655  142.8453 H   0  0  0  0  0  0  0  0  0  0  0  0  # atno 7974 bound_to 7965
  156.0790  140.3273  155.7670 H   0  0  0  0  0  0  0  0  0  0  0  0  # atno 8008 bound_to 7997
  155.5184  140.0583  157.2928 H   0  0  0  0  0  0  0  0  0  0  0  0  # atno 8009 bound_to 7997
  154.4571  140.1948  156.0365 H   0  0  0  0  0  0  0  0  0  0  0  0  # atno 8010 bound_to 7997
  140.6027  143.2365  151.5893 H   0  0  0  0  0  0  0  0  0  0  0  0  # atno 10167 bound_to 10162
  156.0624  130.4259  150.1680 H   0  0  0  0  0  0  0  0  0  0  0  0  # atno 10718 bound_to 10713
  153.1234  135.6724  153.9298 H   0  0  0  0  0  0  0  0  0  0  0  0  # atno 10763 bound_to 10752
  153.8806  135.3058  155.3446 H   0  0  0  0  0  0  0  0  0  0  0  0  # atno 10764 bound_to 10752
  154.7642  135.4972  153.9602 H   0  0  0  0  0  0  0  0  0  0  0  0  # atno 10765 bound_to 10752
  140.3773  134.1958  155.7664 H   0  0  0  0  0  0  0  0  0  0  0  0  # atno 11005 bound_to 11000
  145.1730  140.9730  143.4310 LP  0  0  0  0  0  0  0  0  0  0  0  0  # atno 17320 bound_to 7965
  145.0011  139.3597  143.6167 LP  0  0  0  0  0  0  0  0  0  0  0  0  # atno 17321 bound_to 7965
  139.5302  144.2938  152.1130 LP  0  0  0  0  0  0  0  0  0  0  0  0  # atno 17342 bound_to 10162
  140.2122  144.4551  150.6380 LP  0  0  0  0  0  0  0  0  0  0  0  0  # atno 17343 bound_to 10162
  156.9746  130.9845  151.3451 LP  0  0  0  0  0  0  0  0  0  0  0  0  # atno 17370 bound_to 10713
  157.5641  130.8266  149.8305 LP  0  0  0  0  0  0  0  0  0  0  0  0  # atno 17371 bound_to 10713
  141.1935  133.8149  157.0796 LP  0  0  0  0  0  0  0  0  0  0  0  0  # atno 17394 bound_to 11000
  140.0506  134.9807  157.1128 LP  0  0  0  0  0  0  0  0  0  0  0  0  # atno 17395 bound_to 11000

$$$$
