AV-unprocessed.smi:3274|AV-procd|sdf|12522|dock5
  -GOLD-   2272018433D 1   1.00000     0.00000
 Structure written by MMmdl.
 43 44  0  0  0  0  0  0  0  0  2 V2000
  151.8597  145.7562  159.3529 C   0  0  0  0  0  0  0  0  0  0  0  0
  152.1849  144.4119  159.9826 C   0  0  0  0  0  0  0  0  0  0  0  0
  152.4241  144.3110  161.3052 C   0  0  0  0  0  0  0  0  0  0  0  0
  152.8049  143.0276  162.0220 C   0  0  0  0  0  0  0  0  0  0  0  0
  152.7084  141.7833  161.1240 C   0  0  0  0  0  0  0  0  0  0  0  0
  153.1597  142.0921  159.6863 C   0  0  1  0  0  0  0  0  0  0  0  0
  153.3005  140.8163  158.8383 C   0  0  0  0  0  0  0  0  0  0  0  0
  152.2699  143.1968  159.0481 C   0  0  1  0  0  0  0  0  0  0  0  0
  150.8666  142.6823  158.6348 C   0  0  0  0  0  0  0  0  0  0  0  0
  150.5586  142.9409  157.2121 N   0  3  0  0  0  0  0  0  0  0  0  0
  150.1219  141.7614  156.4330 C   0  0  2  0  0  0  0  0  0  0  0  0
  148.9739  141.0582  157.1767 C   0  0  0  0  0  0  0  0  0  0  0  0
  151.3111  140.8118  156.1562 C   0  0  0  0  0  0  0  0  0  0  0  0
  150.9430  139.6566  155.3581 N   0  0  0  0  0  0  0  0  0  0  0  0
  151.0852  138.3519  155.5985 C   0  0  0  0  0  0  0  0  0  0  0  0
  150.6419  137.5768  154.6189 N   0  0  0  0  0  0  0  0  0  0  0  0
  150.2200  138.5351  153.7410 C   0  0  0  0  0  0  0  0  0  0  0  0
  150.3833  139.7986  154.1337 N   0  0  0  0  0  0  0  0  0  0  0  0
  152.4725  145.9236  158.4668 H   0  0  0  0  0  0  0  0  0  0  0  0
  152.0565  146.5719  160.0494 H   0  0  0  0  0  0  0  0  0  0  0  0
  150.8101  145.8208  159.0706 H   0  0  0  0  0  0  0  0  0  0  0  0
  152.3779  145.1946  161.9252 H   0  0  0  0  0  0  0  0  0  0  0  0
  153.8291  143.1446  162.3773 H   0  0  0  0  0  0  0  0  0  0  0  0
  152.1777  142.9032  162.9053 H   0  0  0  0  0  0  0  0  0  0  0  0
  153.3136  140.9831  161.5516 H   0  0  0  0  0  0  0  0  0  0  0  0
  151.6827  141.4138  161.1172 H   0  0  0  0  0  0  0  0  0  0  0  0
  154.1670  142.5072  159.7569 H   0  0  0  0  0  0  0  0  0  0  0  0
  152.3811  140.2310  158.8224 H   0  0  0  0  0  0  0  0  0  0  0  0
  154.0818  140.1709  159.2409 H   0  0  0  0  0  0  0  0  0  0  0  0
  153.5716  141.0536  157.8092 H   0  0  0  0  0  0  0  0  0  0  0  0
  152.7854  143.5231  158.1434 H   0  0  0  0  0  0  0  0  0  0  0  0
  150.7912  141.6055  158.7788 H   0  0  0  0  0  0  0  0  0  0  0  0
  150.1074  143.1398  159.2680 H   0  0  0  0  0  0  0  0  0  0  0  0
  149.8449  143.6529  157.1508 H   0  0  0  0  0  0  0  0  0  0  0  0
  149.7217  142.1187  155.4827 H   0  0  0  0  0  0  0  0  0  0  0  0
  148.5631  140.2333  156.5940 H   0  0  0  0  0  0  0  0  0  0  0  0
  148.1541  141.7496  157.3746 H   0  0  0  0  0  0  0  0  0  0  0  0
  149.3085  140.6560  158.1336 H   0  0  0  0  0  0  0  0  0  0  0  0
  152.1147  141.3296  155.6326 H   0  0  0  0  0  0  0  0  0  0  0  0
  151.7329  140.4566  157.0978 H   0  0  0  0  0  0  0  0  0  0  0  0
  151.5200  137.9602  156.5064 H   0  0  0  0  0  0  0  0  0  0  0  0
  149.7816  138.2948  152.7835 H   0  0  0  0  0  0  0  0  0  0  0  0
  151.4021  143.2976  156.7859 H   0  0  0  0  0  0  0  0  0  0  0  0
  1  2  1  0  0  0  0
  1 19  1  0  0  0  0
  1 20  1  0  0  0  0
  1 21  1  0  0  0  0
  2  8  1  0  0  0  0
  2  3  2  0  0  0  0
  3  4  1  0  0  0  0
  3 22  1  0  0  0  0
  4  5  1  0  0  0  0
  4 23  1  0  0  0  0
  4 24  1  0  0  0  0
  5  6  1  0  0  0  0
  5 25  1  0  0  0  0
  5 26  1  0  0  0  0
  6  7  1  0  0  0  0
  6  8  1  0  0  0  0
  6 27  1  0  0  0  0
  7 28  1  0  0  0  0
  7 29  1  0  0  0  0
  7 30  1  0  0  0  0
  8  9  1  0  0  0  0
  8 31  1  0  0  0  0
  9 10  1  0  0  0  0
  9 32  1  0  0  0  0
  9 33  1  0  0  0  0
 10 11  1  0  0  0  0
 10 34  1  0  0  0  0
 10 43  1  0  0  0  0
 11 12  1  0  0  0  0
 11 13  1  0  0  0  0
 11 35  1  0  0  0  0
 12 36  1  0  0  0  0
 12 37  1  0  0  0  0
 12 38  1  0  0  0  0
 13 14  1  0  0  0  0
 13 39  1  0  0  0  0
 13 40  1  0  0  0  0
 14 18  1  0  0  0  0
 14 15  1  0  0  0  0
 15 16  2  0  0  0  0
 15 41  1  0  0  0  0
 16 17  1  0  0  0  0
 17 18  2  0  0  0  0
 17 42  1  0  0  0  0
M  CHG  1  10   1
M  END
> <s_m_source_file>
AV-unprocessed.smi

> <i_m_source_file_index>
3274

> <i_lp_mmshare_version>
43012

> <i_f3d_flags>
0

> <s_epik_input>
W0NIM11DMT1bQ0hdW0NIMl1bQ0gyXVtDQEBIXShbQ0gzXSlbQ0BIXTFbQ0gyXVtOSF1bQ0BIXShbQ0gzXSlbQ0gyXW4yW2NIXW5bY0hdbjI=

> <s_epik_cmdline>
J2VwaWtfcHl0aG9uJywgJy1waCcsICc3LjAnLCAnLXRuJywgJzgnLCAnLW1hJywgJzIwMCcsICctbWV0YWxfYmluZGluZycsICctaW1hZScsICc8aW5maWxlLm1hZT4nLCAnLW9tYWUnLCAnPG91dGZpbGUubWFlPic=

> <r_lp_tautomer_probability>
1

> <r_epik_Ionization_Penalty>
0.0017527

> <r_epik_Ionization_Penalty_Charging>
0.00175191

> <r_epik_Ionization_Penalty_Neutral>
7.94565e-07

> <r_epik_State_Penalty>
0.00118605

> <r_epik_Charging_Adjusted_Penalty>
0.00293796

> <i_epik_Tot_Q>
1

> <i_epik_Tot_abs_Q>
1

> <r_epik_Metal_State_Penalty>
-0

> <b_epik_Metal_Only>
0

> <s_lp_Force_Field>
OPLS_2005

> <r_lp_Energy>
17.2811

> <b_lp_Chiralities_Consistent>
1

> <s_lp_Variant>
AV-unprocessed.smi:3274-1

> <Gold.Version>
5.8.1

> <Gold.Id.Protein>
6NUR|6NUR_protein|mol2

> <Gold.PLP.Fitness>
52.1800

> <Gold.PLP.PLP>
-40.7217

> <Gold.PLP.part.hbond>
-2.0000

> <Gold.PLP.part.metal>
0.0000

> <Gold.PLP.part.buried>
-2.1609

> <Gold.PLP.part.nonpolar>
-35.6484

> <Gold.PLP.part.repulsive>
0.3511

> <Gold.PLP.ligand.clash>
0.0000

> <Gold.PLP.ligand.torsion>
1.1544

> <Gold.PLP.Chemscore.Hbond>
2.8240

> <Gold.PLP.Chemscore.CHOScore>
1.7537

> <Gold.PLP.Chemscore.Metal>
0.0000

> <Gold.Chemscore.Hbonds>
donor molecule, donor type, donor heavy atom, donor atom, acceptor molecule, acceptor atom, score
      L1  H    10    34       P1  8028  1.45
      P1  H  7989  7998       L1    18  0.85
      L1  C    17    42       P1  7948  1.00
      L1  C    17    42       P1  7957  0.78

> <Gold.PLP.Chemscore.Internal.Correction>
0.0341

> <Gold.Rescore>
     Score         DG    S(hbond)    S(metal)    S(lipo)     H(rot)  DE(clash)    DE(int)     intcor
     17.01     -19.67       1.88        0.00     119.33       2.36       1.54       1.13       ----

> <Gold.Chemscore.Fitness>
17.0063

> <Gold.Chemscore.DG>
-19.6749

> <Gold.Chemscore.ZeroCoef>
-5.4800

> <Gold.Chemscore.Hbond>
1.8799

> <Gold.Chemscore.Metal>
0.0000

> <Gold.Chemscore.Lipo>
119.3281

> <Gold.Chemscore.Internal_Hbond>
0.0000

> <Gold.Chemscore.DEClash>
1.5379

> <Gold.Chemscore.DEInternal>
1.1307

> <Gold.Chemscore.Rot>
2.3615

> <Gold.Chemscore.Internal.Correction>
   9.000000E+99

> <Gold.Chemscore.Hbonds>
donor molecule, donor type, donor heavy atom, donor atom, acceptor molecule, acceptor atom, score
      L1  H    10    34       P1  8028  0.64
      P1  H  7989  7998       L1    18  0.14

> <Gold.Chemscore.Hbond.Weighted>
-6.2790

> <Gold.Chemscore.Metal.Weighted>
-0.0000

> <Gold.Chemscore.Lipo.Weighted>
-13.9614

> <Gold.Chemscore.Internal_Hbond.Weighted>
0.0000

> <Gold.Chemscore.DEClash.Weighted>
1.5379

> <Gold.Chemscore.DEInternal.Weighted>
1.1307

> <Gold.Chemscore.Rot.Weighted>
6.0454

> <Gold.Chemscore.Internal.Correction.Weighted>
   9.000000E+99

> <Gold.Protein.RotatedTorsions>
[ 6907 6896 6895 6894 ] final  176.70 input  -60.11 | X-H torsion
[ 7974 7965 7964 7962 ] final -164.97 input  175.53 | X-H torsion
[ 8008 7997 7996 7995 ] final   20.27 input   59.86 | X-H torsion
[ 10167 10162 10161 10158 ] final  172.77 input  -65.29 | X-H torsion
[ 10718 10713 10712 10709 ] final   34.68 input   66.30 | X-H torsion
[ 10763 10752 10751 10750 ] final   95.49 input  -60.55 | X-H torsion
[ 11005 11000 10999 10996 ] final   -9.10 input  -57.11 | X-H torsion

> <Gold.Protein.ActiveResidues>
 VAL166  LYS551  ARG553  GLY616  TRP617  ASP618  TYR619  PRO620  LYS621  CYS622 
 ASP623  PHE694  ASN695  SER759  ASP760  ASP761  ALA762  ILE779  LEU786  VAL792 
 PHE793  MET794  SER795  GLU796  ALA797  LYS798  CYS799  TRP800  GLU811  SER814 

> <Gold.Protein.RotatedAtoms>
  151.7159  133.3313  159.3302 H   0  0  0  0  0  0  0  0  0  0  0  0  # atno 6907 bound_to 6896
  150.7674  134.6491  159.6288 H   0  0  0  0  0  0  0  0  0  0  0  0  # atno 6908 bound_to 6896
  152.3682  134.6775  160.0236 H   0  0  0  0  0  0  0  0  0  0  0  0  # atno 6909 bound_to 6896
  144.7282  140.2883  143.6224 H   0  0  0  0  0  0  0  0  0  0  0  0  # atno 7974 bound_to 7965
  154.9332  140.3043  155.5157 H   0  0  0  0  0  0  0  0  0  0  0  0  # atno 8008 bound_to 7997
  156.3002  140.2350  156.4331 H   0  0  0  0  0  0  0  0  0  0  0  0  # atno 8009 bound_to 7997
  154.8217  140.0423  157.1404 H   0  0  0  0  0  0  0  0  0  0  0  0  # atno 8010 bound_to 7997
  139.5087  144.3337  152.0087 H   0  0  0  0  0  0  0  0  0  0  0  0  # atno 10167 bound_to 10162
  157.3134  130.7411  149.6739 H   0  0  0  0  0  0  0  0  0  0  0  0  # atno 10718 bound_to 10713
  153.2538  135.4252  155.0824 H   0  0  0  0  0  0  0  0  0  0  0  0  # atno 10763 bound_to 10752
  154.8392  135.3432  154.6475 H   0  0  0  0  0  0  0  0  0  0  0  0  # atno 10764 bound_to 10752
  153.6896  135.7034  153.5151 H   0  0  0  0  0  0  0  0  0  0  0  0  # atno 10765 bound_to 10752
  140.7305  133.8753  155.8889 H   0  0  0  0  0  0  0  0  0  0  0  0  # atno 11005 bound_to 11000
  145.7880  139.1916  143.2119 LP  0  0  0  0  0  0  0  0  0  0  0  0  # atno 17320 bound_to 7965
  146.0779  140.7797  142.9656 LP  0  0  0  0  0  0  0  0  0  0  0  0  # atno 17321 bound_to 7965
  140.2776  144.3895  150.6130 LP  0  0  0  0  0  0  0  0  0  0  0  0  # atno 17342 bound_to 10162
  140.6042  143.2167  151.7013 LP  0  0  0  0  0  0  0  0  0  0  0  0  # atno 17343 bound_to 10162
  155.9679  130.4244  150.4609 LP  0  0  0  0  0  0  0  0  0  0  0  0  # atno 17370 bound_to 10713
  157.2612  131.0567  151.2319 LP  0  0  0  0  0  0  0  0  0  0  0  0  # atno 17371 bound_to 10713
  140.9925  134.1260  157.4395 LP  0  0  0  0  0  0  0  0  0  0  0  0  # atno 17394 bound_to 11000
  139.8827  135.0044  156.6250 LP  0  0  0  0  0  0  0  0  0  0  0  0  # atno 17395 bound_to 11000

$$$$
