AV-unprocessed.smi:2950|AV-procd|sdf|11289|dock1
  -GOLD-   2272016183D 1   1.00000     0.00000
 Structure written by MMmdl.
 30 31  0  0  0  0  0  0  0  0  2 V2000
  152.3905  138.4523  154.6887 C   0  0  0  0  0  0  0  0  0  0  0  0
  153.0609  139.1135  155.7469 O   0  0  0  0  0  0  0  0  0  0  0  0
  152.4442  138.8910  157.0050 C   0  0  0  0  0  0  0  0  0  0  0  0
  150.9913  139.3858  156.9612 C   0  0  0  0  0  0  0  0  0  0  0  0
  150.9056  140.8517  156.8996 N   0  0  0  0  0  0  0  0  0  0  0  0
  150.2466  141.6640  156.0234 C   0  0  0  0  0  0  0  0  0  0  0  0
  149.4198  141.2426  154.8542 C   0  0  0  0  0  0  0  0  0  0  0  0
  150.1008  140.3347  154.0173 O   0  0  0  0  0  0  0  0  0  0  0  0
  150.4853  142.9495  156.4081 N   0  3  0  0  0  0  0  0  0  0  0  0
  151.2989  142.9604  157.5418 C   0  0  0  0  0  0  0  0  0  0  0  0
  151.8048  144.0179  158.2913 C   0  0  0  0  0  0  0  0  0  0  0  0
  152.6065  143.6798  159.4016 C   0  0  0  0  0  0  0  0  0  0  0  0
  152.8778  142.3353  159.7294 C   0  0  0  0  0  0  0  0  0  0  0  0
  152.3614  141.2716  158.9602 C   0  0  0  0  0  0  0  0  0  0  0  0
  151.5707  141.6151  157.8644 C   0  0  0  0  0  0  0  0  0  0  0  0
  152.9064  138.6470  153.7486 H   0  0  0  0  0  0  0  0  0  0  0  0
  151.3644  138.8085  154.5887 H   0  0  0  0  0  0  0  0  0  0  0  0
  152.3733  137.3731  154.8460 H   0  0  0  0  0  0  0  0  0  0  0  0
  152.4697  137.8280  157.2486 H   0  0  0  0  0  0  0  0  0  0  0  0
  152.9907  139.4174  157.7890 H   0  0  0  0  0  0  0  0  0  0  0  0
  150.4585  138.9639  156.1084 H   0  0  0  0  0  0  0  0  0  0  0  0
  150.4552  139.0572  157.8518 H   0  0  0  0  0  0  0  0  0  0  0  0
  148.4945  140.7844  155.2036 H   0  0  0  0  0  0  0  0  0  0  0  0
  149.1408  142.1218  154.2729 H   0  0  0  0  0  0  0  0  0  0  0  0
  149.6228  140.2572  153.2056 H   0  0  0  0  0  0  0  0  0  0  0  0
  151.5977  145.0482  158.0417 H   0  0  0  0  0  0  0  0  0  0  0  0
  153.0207  144.4673  160.0145 H   0  0  0  0  0  0  0  0  0  0  0  0
  153.4945  142.1144  160.5886 H   0  0  0  0  0  0  0  0  0  0  0  0
  152.5740  140.2449  159.2190 H   0  0  0  0  0  0  0  0  0  0  0  0
  150.1163  143.7591  155.9261 H   0  0  0  0  0  0  0  0  0  0  0  0
  1  2  1  0  0  0  0
  1 16  1  0  0  0  0
  1 17  1  0  0  0  0
  1 18  1  0  0  0  0
  2  3  1  0  0  0  0
  3  4  1  0  0  0  0
  3 19  1  0  0  0  0
  3 20  1  0  0  0  0
  4  5  1  0  0  0  0
  4 21  1  0  0  0  0
  4 22  1  0  0  0  0
  5 15  1  0  0  0  0
  5  6  1  0  0  0  0
  6  7  1  0  0  0  0
  6  9  2  0  0  0  0
  7  8  1  0  0  0  0
  7 23  1  0  0  0  0
  7 24  1  0  0  0  0
  8 25  1  0  0  0  0
  9 10  1  0  0  0  0
  9 30  1  0  0  0  0
 10 15  2  0  0  0  0
 10 11  1  0  0  0  0
 11 12  2  0  0  0  0
 11 26  1  0  0  0  0
 12 13  1  0  0  0  0
 12 27  1  0  0  0  0
 13 14  2  0  0  0  0
 13 28  1  0  0  0  0
 14 15  1  0  0  0  0
 14 29  1  0  0  0  0
M  CHG  1   9   1
M  END
> <s_m_source_file>
AV-unprocessed.smi

> <i_m_source_file_index>
2950

> <i_lp_mmshare_version>
43012

> <i_f3d_flags>
0

> <s_epik_input>
W0NIM11PW0NIMl1bQ0gyXW4oYyhuMSlbQ0gyXVtPSF0pYyhjMTIpW2NIXVtjSF1bY0hdW2NIXTI=

> <s_epik_cmdline>
J2VwaWtfcHl0aG9uJywgJy1waCcsICc3LjAnLCAnLXRuJywgJzgnLCAnLW1hJywgJzIwMCcsICctbWV0YWxfYmluZGluZycsICctaW1hZScsICc8aW5maWxlLm1hZT4nLCAnLW9tYWUnLCAnPG91dGZpbGUubWFlPic=

> <r_epik_Ionization_Penalty>
1.35411

> <r_epik_Ionization_Penalty_Charging>
1.35325

> <r_epik_Ionization_Penalty_Neutral>
0.000855784

> <r_epik_State_Penalty>
1.4315

> <r_epik_Charging_Adjusted_Penalty>
2.78475

> <i_epik_Tot_Q>
1

> <i_epik_Tot_abs_Q>
1

> <r_epik_Metal_State_Penalty>
5.4689

> <b_epik_Metal_Only>
0

> <s_lp_Force_Field>
OPLS_2005

> <r_lp_Energy>
9.95832

> <b_lp_Chiralities_Consistent>
1

> <s_lp_Variant>
AV-unprocessed.smi:2950-2

> <Gold.Version>
5.8.1

> <Gold.Id.Protein>
6NUR|6NUR_protein|mol2

> <Gold.PLP.Fitness>
51.8296

> <Gold.PLP.PLP>
-37.6983

> <Gold.PLP.part.hbond>
-3.7917

> <Gold.PLP.part.metal>
0.0000

> <Gold.PLP.part.buried>
-5.2225

> <Gold.PLP.part.nonpolar>
-29.6322

> <Gold.PLP.part.repulsive>
0.0904

> <Gold.PLP.ligand.clash>
0.0000

> <Gold.PLP.ligand.torsion>
0.1421

> <Gold.PLP.Chemscore.Hbond>
4.8000

> <Gold.PLP.Chemscore.CHOScore>
0.0000

> <Gold.PLP.Chemscore.Metal>
0.0000

> <Gold.Chemscore.Hbonds>
donor molecule, donor type, donor heavy atom, donor atom, acceptor molecule, acceptor atom, score
      L1  H     8    25       P1  7957  0.93
      L1  H     9    30       P1  8028  1.98
      P1  H  7989  7998       L1     8  0.83
      P1  H  7997  8009       L1     2  1.00

> <Gold.PLP.Chemscore.Internal.Correction>
0.0155

> <Gold.Rescore>
     Score         DG    S(hbond)    S(metal)    S(lipo)     H(rot)  DE(clash)    DE(int)     intcor
     19.35     -19.52       2.86        0.00      86.63       2.21       0.03       0.14       ----

> <Gold.Chemscore.Fitness>
19.3495

> <Gold.Chemscore.DG>
-19.5225

> <Gold.Chemscore.ZeroCoef>
-5.4800

> <Gold.Chemscore.Hbond>
2.8631

> <Gold.Chemscore.Metal>
0.0000

> <Gold.Chemscore.Lipo>
86.6267

> <Gold.Chemscore.Internal_Hbond>
0.0000

> <Gold.Chemscore.DEClash>
0.0342

> <Gold.Chemscore.DEInternal>
0.1389

> <Gold.Chemscore.Rot>
2.2092

> <Gold.Chemscore.Internal.Correction>
   9.000000E+99

> <Gold.Chemscore.Hbonds>
donor molecule, donor type, donor heavy atom, donor atom, acceptor molecule, acceptor atom, score
      L1  H     8    25       P1  7957  0.85
      L1  H     9    30       P1  8028  0.91
      P1  H  7989  7998       L1     8  0.22
      P1  H  7997  8009       L1     2  0.72

> <Gold.Chemscore.Hbond.Weighted>
-9.5628

> <Gold.Chemscore.Metal.Weighted>
-0.0000

> <Gold.Chemscore.Lipo.Weighted>
-10.1353

> <Gold.Chemscore.Internal_Hbond.Weighted>
0.0000

> <Gold.Chemscore.DEClash.Weighted>
0.0342

> <Gold.Chemscore.DEInternal.Weighted>
0.1389

> <Gold.Chemscore.Rot.Weighted>
5.6555

> <Gold.Chemscore.Internal.Correction.Weighted>
   9.000000E+99

> <Gold.Protein.RotatedTorsions>
[ 6907 6896 6895 6894 ] final  140.45 input  -60.11 | X-H torsion
[ 7974 7965 7964 7962 ] final   67.59 input  175.53 | X-H torsion
[ 8008 7997 7996 7995 ] final -137.83 input   59.86 | X-H torsion
[ 10167 10162 10161 10158 ] final  165.98 input  -65.29 | X-H torsion
[ 10718 10713 10712 10709 ] final -138.38 input   66.30 | X-H torsion
[ 10763 10752 10751 10750 ] final -151.80 input  -60.55 | X-H torsion
[ 11005 11000 10999 10996 ] final  -70.61 input  -57.11 | X-H torsion

> <Gold.Protein.ActiveResidues>
 VAL166  LYS551  ARG553  GLY616  TRP617  ASP618  TYR619  PRO620  LYS621  CYS622 
 ASP623  PHE694  ASN695  SER759  ASP760  ASP761  ALA762  ILE779  LEU786  VAL792 
 PHE793  MET794  SER795  GLU796  ALA797  LYS798  CYS799  TRP800  GLU811  SER814 

> <Gold.Protein.RotatedAtoms>
  152.2428  133.5150  159.5279 H   0  0  0  0  0  0  0  0  0  0  0  0  # atno 6907 bound_to 6896
  150.7069  134.1065  159.3994 H   0  0  0  0  0  0  0  0  0  0  0  0  # atno 6908 bound_to 6896
  151.8986  135.0387  160.0555 H   0  0  0  0  0  0  0  0  0  0  0  0  # atno 6909 bound_to 6896
  145.8128  139.3041  143.1089 H   0  0  0  0  0  0  0  0  0  0  0  0  # atno 7974 bound_to 7965
  155.4183  140.0517  157.3027 H   0  0  0  0  0  0  0  0  0  0  0  0  # atno 8008 bound_to 7997
  154.4914  140.2121  155.9499 H   0  0  0  0  0  0  0  0  0  0  0  0  # atno 8009 bound_to 7997
  156.1347  140.3165  155.8408 H   0  0  0  0  0  0  0  0  0  0  0  0  # atno 8010 bound_to 7997
  139.4916  144.4076  151.9337 H   0  0  0  0  0  0  0  0  0  0  0  0  # atno 10167 bound_to 10162
  156.2987  130.7416  151.1462 H   0  0  0  0  0  0  0  0  0  0  0  0  # atno 10718 bound_to 10713
  154.8035  135.3251  154.7490 H   0  0  0  0  0  0  0  0  0  0  0  0  # atno 10763 bound_to 10752
  153.8153  135.6892  153.4839 H   0  0  0  0  0  0  0  0  0  0  0  0  # atno 10764 bound_to 10752
  153.1766  135.4602  154.9917 H   0  0  0  0  0  0  0  0  0  0  0  0  # atno 10765 bound_to 10752
  141.1577  133.6795  156.6779 H   0  0  0  0  0  0  0  0  0  0  0  0  # atno 11005 bound_to 11000
  145.9759  140.8722  143.0139 LP  0  0  0  0  0  0  0  0  0  0  0  0  # atno 17320 bound_to 7965
  144.6755  140.2012  143.7387 LP  0  0  0  0  0  0  0  0  0  0  0  0  # atno 17321 bound_to 7965
  140.3516  144.3082  150.5948 LP  0  0  0  0  0  0  0  0  0  0  0  0  # atno 17342 bound_to 10162
  140.5480  143.2211  151.7974 LP  0  0  0  0  0  0  0  0  0  0  0  0  # atno 17343 bound_to 10162
  157.7362  131.0564  150.5426 LP  0  0  0  0  0  0  0  0  0  0  0  0  # atno 17370 bound_to 10713
  156.5551  130.4241  149.6089 LP  0  0  0  0  0  0  0  0  0  0  0  0  # atno 17371 bound_to 10713
  140.3125  134.8075  157.4187 LP  0  0  0  0  0  0  0  0  0  0  0  0  # atno 17394 bound_to 11000
  140.1167  134.5274  155.8219 LP  0  0  0  0  0  0  0  0  0  0  0  0  # atno 17395 bound_to 11000

$$$$
