AV-unprocessed.smi:1410|AV-procd|sdf|5738|dock10
  -GOLD-   22720 5373D 1   1.00000     0.00000
 Structure written by MMmdl.
 40 41  0  0  0  0  0  0  0  0  4 V2000
  142.9340  132.2648  149.2943 N   0  5  0  0  0  0  0  0  0  0  0  0
  144.1415  132.6970  149.7104 C   0  0  0  0  0  0  0  0  0  0  0  0
  145.2384  132.1787  149.5151 O   0  0  0  0  0  0  0  0  0  0  0  0
  144.0500  133.9936  150.5219 C   0  0  0  0  0  0  0  0  0  0  0  0
  144.7414  133.8484  151.8287 N   0  3  2  0  0  0  0  0  0  0  0  0
  144.4092  134.9500  152.7668 C   0  0  0  0  0  0  0  0  0  0  0  0
  145.0124  134.6954  154.1594 C   0  0  0  0  0  0  0  0  0  0  0  0
  146.5373  134.4749  154.0978 C   0  0  2  0  0  0  0  0  0  0  0  0
  147.2546  135.7079  153.7728 N   0  0  0  0  0  0  0  0  0  0  0  0
  147.1126  136.8786  154.4116 C   0  0  0  0  0  0  0  0  0  0  0  0
  146.3400  137.0470  155.3545 O   0  0  0  0  0  0  0  0  0  0  0  0
  147.8983  137.8273  153.8732 N   0  0  0  0  0  0  0  0  0  0  0  0
  148.0286  139.1895  154.2588 C   0  0  0  0  0  0  0  0  0  0  0  0
  146.8638  139.8612  154.6922 C   0  0  0  0  0  0  0  0  0  0  0  0
  146.9425  141.2171  155.0702 C   0  0  0  0  0  0  0  0  0  0  0  0
  148.1251  141.8655  155.0058 N   0  3  0  0  0  0  0  0  0  0  0  0
  149.2617  141.2708  154.5841 C   0  0  0  0  0  0  0  0  0  0  0  0
  149.2448  139.9163  154.1932 C   0  0  0  0  0  0  0  0  0  0  0  0
  146.8588  133.3771  153.0690 C   0  0  0  0  0  0  0  0  0  0  0  0
  146.2114  133.6582  151.7005 C   0  0  0  0  0  0  0  0  0  0  0  0
  142.1264  132.8949  149.3663 H   0  0  0  0  0  0  0  0  0  0  0  0
  144.4697  134.8299  149.9603 H   0  0  0  0  0  0  0  0  0  0  0  0
  142.9933  134.2213  150.6737 H   0  0  0  0  0  0  0  0  0  0  0  0
  144.7693  135.8971  152.3620 H   0  0  0  0  0  0  0  0  0  0  0  0
  143.3260  135.0379  152.8602 H   0  0  0  0  0  0  0  0  0  0  0  0
  144.7671  135.5199  154.8297 H   0  0  0  0  0  0  0  0  0  0  0  0
  144.5426  133.8104  154.5905 H   0  0  0  0  0  0  0  0  0  0  0  0
  146.8835  134.1336  155.0753 H   0  0  0  0  0  0  0  0  0  0  0  0
  147.9152  135.6602  153.0108 H   0  0  0  0  0  0  0  0  0  0  0  0
  148.4171  137.5590  153.0497 H   0  0  0  0  0  0  0  0  0  0  0  0
  145.9164  139.3442  154.7425 H   0  0  0  0  0  0  0  0  0  0  0  0
  146.1008  141.7982  155.4175 H   0  0  0  0  0  0  0  0  0  0  0  0
  150.1443  141.8934  154.5654 H   0  0  0  0  0  0  0  0  0  0  0  0
  150.1606  139.4672  153.8402 H   0  0  0  0  0  0  0  0  0  0  0  0
  147.9381  133.2649  152.9579 H   0  0  0  0  0  0  0  0  0  0  0  0
  146.4929  132.4196  153.4427 H   0  0  0  0  0  0  0  0  0  0  0  0
  146.4266  132.8244  151.0319 H   0  0  0  0  0  0  0  0  0  0  0  0
  146.6561  134.5449  151.2461 H   0  0  0  0  0  0  0  0  0  0  0  0
  144.3684  133.0022  152.2363 H   0  0  0  0  0  0  0  0  0  0  0  0
  148.1609  142.8471  155.2825 H   0  0  0  0  0  0  0  0  0  0  0  0
  1  2  1  0  0  0  0
  1 21  1  0  0  0  0
  2  3  2  0  0  0  0
  2  4  1  0  0  0  0
  4  5  1  0  0  0  0
  4 22  1  0  0  0  0
  4 23  1  0  0  0  0
  5 20  1  0  0  0  0
  5  6  1  0  0  0  0
  5 39  1  0  0  0  0
  6  7  1  0  0  0  0
  6 24  1  0  0  0  0
  6 25  1  0  0  0  0
  7  8  1  0  0  0  0
  7 26  1  0  0  0  0
  7 27  1  0  0  0  0
  8  9  1  0  0  0  0
  8 19  1  0  0  0  0
  8 28  1  0  0  0  0
  9 10  1  0  0  0  0
  9 29  1  0  0  0  0
 10 11  2  0  0  0  0
 10 12  1  0  0  0  0
 12 13  1  0  0  0  0
 12 30  1  0  0  0  0
 13 18  1  0  0  0  0
 13 14  2  0  0  0  0
 14 15  1  0  0  0  0
 14 31  1  0  0  0  0
 15 16  2  0  0  0  0
 15 32  1  0  0  0  0
 16 17  1  0  0  0  0
 16 40  1  0  0  0  0
 17 18  2  0  0  0  0
 17 33  1  0  0  0  0
 18 34  1  0  0  0  0
 19 20  1  0  0  0  0
 19 35  1  0  0  0  0
 19 36  1  0  0  0  0
 20 37  1  0  0  0  0
 20 38  1  0  0  0  0
M  CHG  1   1  -1
M  CHG  1   5   1
M  CHG  1  16   1
M  END
> <s_m_source_file>
AV-unprocessed.smi

> <i_m_source_file_index>
1410

> <i_lp_mmshare_version>
43012

> <i_f3d_flags>
0

> <s_epik_input>
W05IMl1DKD1PKVtDSDJdTjFbQ0gyXVtDSDJdW0NIXShbQ0gyXVtDSDJdMSlbTkhdQyg9TylbTkhdYzJbY0hdW2NIXW5bY0hdW2NIXTI=

> <s_epik_cmdline>
J2VwaWtfcHl0aG9uJywgJy1waCcsICc3LjAnLCAnLXRuJywgJzgnLCAnLW1hJywgJzIwMCcsICctbWV0YWxfYmluZGluZycsICctaW1hZScsICc8aW5maWxlLm1hZT4nLCAnLW9tYWUnLCAnPG91dGZpbGUubWFlPic=

> <r_epik_Ionization_Penalty>
6.84067

> <r_epik_Ionization_Penalty_Charging>
6.84065

> <r_epik_Ionization_Penalty_Neutral>
1.84563e-05

> <r_epik_State_Penalty>
7.68217

> <r_epik_Charging_Adjusted_Penalty>
14.5228

> <i_epik_Tot_Q>
1

> <i_epik_Tot_abs_Q>
3

> <r_epik_Metal_State_Penalty>
3.74331

> <b_epik_Metal_Only>
1

> <s_lp_Force_Field>
OPLS_2005

> <r_lp_Energy>
20.5434

> <b_lp_Chiralities_Consistent>
1

> <s_lp_Variant>
AV-unprocessed.smi:1410-10

> <Gold.Version>
5.8.1

> <Gold.Id.Protein>
6NUR|6NUR_protein|mol2

> <Gold.PLP.Fitness>
44.6695

> <Gold.PLP.PLP>
-27.9396

> <Gold.PLP.part.hbond>
-5.8716

> <Gold.PLP.part.metal>
0.0000

> <Gold.PLP.part.buried>
-4.4255

> <Gold.PLP.part.nonpolar>
-18.4450

> <Gold.PLP.part.repulsive>
0.3205

> <Gold.PLP.ligand.clash>
0.0000

> <Gold.PLP.ligand.torsion>
0.4048

> <Gold.PLP.Chemscore.Hbond>
5.8363

> <Gold.PLP.Chemscore.CHOScore>
0.0000

> <Gold.PLP.Chemscore.Metal>
0.0000

> <Gold.Chemscore.Hbonds>
donor molecule, donor type, donor heavy atom, donor atom, acceptor molecule, acceptor atom, score
      L1  H     1    21       P1 10186  1.00
      L1  H     9    29       P1  7948  1.00
      L1  H    12    30       P1  7948  1.00
      L1  H    16    40       P1  8028  2.00
      P1  H 10785 10796       L1     1  0.55

> <Gold.PLP.Chemscore.Internal.Correction>
0.0307

> <Gold.Rescore>
     Score         DG    S(hbond)    S(metal)    S(lipo)     H(rot)  DE(clash)    DE(int)     intcor
     17.58     -20.88       4.45        0.00      47.60       1.96       0.38       2.92       ----

> <Gold.Chemscore.Fitness>
17.5806

> <Gold.Chemscore.DG>
-20.8759

> <Gold.Chemscore.ZeroCoef>
-5.4800

> <Gold.Chemscore.Hbond>
4.4453

> <Gold.Chemscore.Metal>
0.0000

> <Gold.Chemscore.Lipo>
47.6007

> <Gold.Chemscore.Internal_Hbond>
0.0000

> <Gold.Chemscore.DEClash>
0.3762

> <Gold.Chemscore.DEInternal>
2.9191

> <Gold.Chemscore.Rot>
1.9612

> <Gold.Chemscore.Internal.Correction>
   9.000000E+99

> <Gold.Chemscore.Hbonds>
donor molecule, donor type, donor heavy atom, donor atom, acceptor molecule, acceptor atom, score
      L1  H     1    21       P1 10186  1.00
      L1  H     9    29       P1  7948  0.99
      L1  H    12    30       P1  7948  0.94
      L1  H    16    40       P1  8028  0.91
      P1  H 10785 10796       L1     1  0.31

> <Gold.Chemscore.Hbond.Weighted>
-14.8473

> <Gold.Chemscore.Metal.Weighted>
-0.0000

> <Gold.Chemscore.Lipo.Weighted>
-5.5693

> <Gold.Chemscore.Internal_Hbond.Weighted>
0.0000

> <Gold.Chemscore.DEClash.Weighted>
0.3762

> <Gold.Chemscore.DEInternal.Weighted>
2.9191

> <Gold.Chemscore.Rot.Weighted>
5.0208

> <Gold.Chemscore.Internal.Correction.Weighted>
   9.000000E+99

> <Gold.Protein.RotatedTorsions>
[ 6907 6896 6895 6894 ] final -132.99 input  -60.11 | X-H torsion
[ 7974 7965 7964 7962 ] final   26.14 input  175.53 | X-H torsion
[ 8008 7997 7996 7995 ] final  -41.51 input   59.86 | X-H torsion
[ 10167 10162 10161 10158 ] final -116.95 input  -65.29 | X-H torsion
[ 10718 10713 10712 10709 ] final  -75.93 input   66.30 | X-H torsion
[ 10763 10752 10751 10750 ] final  -34.16 input  -60.55 | X-H torsion
[ 11005 11000 10999 10996 ] final  162.06 input  -57.11 | X-H torsion

> <Gold.Protein.ActiveResidues>
 VAL166  LYS551  ARG553  GLY616  TRP617  ASP618  TYR619  PRO620  LYS621  CYS622 
 ASP623  PHE694  ASN695  SER759  ASP760  ASP761  ALA762  ILE779  LEU786  VAL792 
 PHE793  MET794  SER795  GLU796  ALA797  LYS798  CYS799  TRP800  GLU811  SER814 

> <Gold.Protein.RotatedAtoms>
  150.9688  133.6366  159.2741 H   0  0  0  0  0  0  0  0  0  0  0  0  # atno 6907 bound_to 6896
  151.3662  135.0912  159.9460 H   0  0  0  0  0  0  0  0  0  0  0  0  # atno 6908 bound_to 6896
  152.5175  133.9252  159.7608 H   0  0  0  0  0  0  0  0  0  0  0  0  # atno 6909 bound_to 6896
  146.1853  139.7369  142.8871 H   0  0  0  0  0  0  0  0  0  0  0  0  # atno 7974 bound_to 7965
  154.4004  140.1497  156.3203 H   0  0  0  0  0  0  0  0  0  0  0  0  # atno 8008 bound_to 7997
  155.8536  140.3456  155.5688 H   0  0  0  0  0  0  0  0  0  0  0  0  # atno 8009 bound_to 7997
  155.7957  140.0863  157.1975 H   0  0  0  0  0  0  0  0  0  0  0  0  # atno 8010 bound_to 7997
  140.0736  143.4853  152.1965 H   0  0  0  0  0  0  0  0  0  0  0  0  # atno 10167 bound_to 10162
  156.0191  130.4453  150.3117 H   0  0  0  0  0  0  0  0  0  0  0  0  # atno 10718 bound_to 10713
  153.8421  135.6856  153.4801 H   0  0  0  0  0  0  0  0  0  0  0  0  # atno 10763 bound_to 10752
  153.1447  135.4643  154.9546 H   0  0  0  0  0  0  0  0  0  0  0  0  # atno 10764 bound_to 10752
  154.7840  135.3278  154.7874 H   0  0  0  0  0  0  0  0  0  0  0  0  # atno 10765 bound_to 10752
  140.2220  134.8189  157.3230 H   0  0  0  0  0  0  0  0  0  0  0  0  # atno 11005 bound_to 11000
  145.3957  141.0378  143.3099 LP  0  0  0  0  0  0  0  0  0  0  0  0  # atno 17320 bound_to 7965
  144.8386  139.5509  143.6911 LP  0  0  0  0  0  0  0  0  0  0  0  0  # atno 17321 bound_to 7965
  139.5821  144.7515  151.3614 LP  0  0  0  0  0  0  0  0  0  0  0  0  # atno 17342 bound_to 10162
  140.7113  143.7383  150.7572 LP  0  0  0  0  0  0  0  0  0  0  0  0  # atno 17343 bound_to 10162
  157.1219  131.0249  151.3006 LP  0  0  0  0  0  0  0  0  0  0  0  0  # atno 17370 bound_to 10713
  157.4621  130.7659  149.7246 LP  0  0  0  0  0  0  0  0  0  0  0  0  # atno 17371 bound_to 10713
  140.1840  134.4455  155.7755 LP  0  0  0  0  0  0  0  0  0  0  0  0  # atno 17394 bound_to 11000
  141.2222  133.6996  156.7915 LP  0  0  0  0  0  0  0  0  0  0  0  0  # atno 17395 bound_to 11000

$$$$
