AV-unprocessed.smi:2061|AV-procd|sdf|8384|dock1
  -GOLD-   2272011 63D 1   1.00000     0.00000
 Structure written by MMmdl.
 45 46  0  0  0  0  0  0  0  0  3 V2000
  145.9966  134.2866  162.8650 C   0  0  0  0  0  0  0  0  0  0  0  0
  146.5683  135.3134  161.9476 C   0  0  0  0  0  0  0  0  0  0  0  0
  146.8449  135.3112  160.6098 C   0  0  0  0  0  0  0  0  0  0  0  0
  147.3668  136.6143  160.3838 C   0  0  0  0  0  0  0  0  0  0  0  0
  147.8018  137.0979  159.2098 N   0  5  0  0  0  0  0  0  0  0  0  0
  149.0725  137.5424  159.0831 C   0  0  0  0  0  0  0  0  0  0  0  0
  150.0952  136.9513  159.4375 O   0  0  0  0  0  0  0  0  0  0  0  0
  149.1647  138.7529  158.5148 N   0  0  0  0  0  0  0  0  0  0  0  0
  150.4026  139.4879  158.2746 C   0  0  0  0  0  0  0  0  0  0  0  0
  150.1613  140.9150  157.7163 C   0  0  2  0  0  0  0  0  0  0  0  0
  150.5717  140.9816  156.2250 C   0  0  0  0  0  0  0  0  0  0  0  0
  150.8575  141.9245  158.5782 N   0  3  1  0  0  0  0  0  0  0  0  0
  152.0188  141.4231  159.3612 C   0  0  0  0  0  0  0  0  0  0  0  0
  152.5881  142.5261  160.2736 C   0  0  1  0  0  0  0  0  0  0  0  0
  153.8496  142.0637  161.0109 C   0  0  0  0  0  0  0  0  0  0  0  0
  152.9331  143.6691  159.4987 O   0  0  0  0  0  0  0  0  0  0  0  0
  151.8585  144.2157  158.7382 C   0  0  2  0  0  0  0  0  0  0  0  0
  150.8093  144.9190  159.6183 C   0  0  0  0  0  0  0  0  0  0  0  0
  151.2651  143.1351  157.8154 C   0  0  0  0  0  0  0  0  0  0  0  0
  147.4188  137.3369  161.4901 N   0  0  0  0  0  0  0  0  0  0  0  0
  146.9018  136.5124  162.4964 O   0  0  0  0  0  0  0  0  0  0  0  0
  146.5005  133.3290  162.7343 H   0  0  0  0  0  0  0  0  0  0  0  0
  144.9351  134.1408  162.6653 H   0  0  0  0  0  0  0  0  0  0  0  0
  146.1066  134.5853  163.9078 H   0  0  0  0  0  0  0  0  0  0  0  0
  146.6951  134.5080  159.9043 H   0  0  0  0  0  0  0  0  0  0  0  0
  148.3037  139.1994  158.2338 H   0  0  0  0  0  0  0  0  0  0  0  0
  150.9736  139.5002  159.2023 H   0  0  0  0  0  0  0  0  0  0  0  0
  150.9981  138.9128  157.5650 H   0  0  0  0  0  0  0  0  0  0  0  0
  149.0931  141.1348  157.7542 H   0  0  0  0  0  0  0  0  0  0  0  0
  150.0687  140.2168  155.6337 H   0  0  0  0  0  0  0  0  0  0  0  0
  151.6450  140.8355  156.0996 H   0  0  0  0  0  0  0  0  0  0  0  0
  150.2977  141.9326  155.7678 H   0  0  0  0  0  0  0  0  0  0  0  0
  151.7248  140.5938  160.0036 H   0  0  0  0  0  0  0  0  0  0  0  0
  152.7870  141.0545  158.6793 H   0  0  0  0  0  0  0  0  0  0  0  0
  151.8443  142.8008  161.0219 H   0  0  0  0  0  0  0  0  0  0  0  0
  153.6424  141.1979  161.6403 H   0  0  0  0  0  0  0  0  0  0  0  0
  154.2376  142.8550  161.6530 H   0  0  0  0  0  0  0  0  0  0  0  0
  154.6382  141.7874  160.3103 H   0  0  0  0  0  0  0  0  0  0  0  0
  152.3020  144.9843  158.1044 H   0  0  0  0  0  0  0  0  0  0  0  0
  150.0741  145.4367  159.0018 H   0  0  0  0  0  0  0  0  0  0  0  0
  151.2783  145.6624  160.2634 H   0  0  0  0  0  0  0  0  0  0  0  0
  150.2631  144.2213  160.2528 H   0  0  0  0  0  0  0  0  0  0  0  0
  152.0098  142.8484  157.0710 H   0  0  0  0  0  0  0  0  0  0  0  0
  150.4298  143.5615  157.2628 H   0  0  0  0  0  0  0  0  0  0  0  0
  150.1750  142.2218  159.2608 H   0  0  0  0  0  0  0  0  0  0  0  0
  1  2  1  0  0  0  0
  1 22  1  0  0  0  0
  1 23  1  0  0  0  0
  1 24  1  0  0  0  0
  2 21  1  0  0  0  0
  2  3  2  0  0  0  0
  3  4  1  0  0  0  0
  3 25  1  0  0  0  0
  4  5  1  0  0  0  0
  4 20  2  0  0  0  0
  5  6  1  0  0  0  0
  6  7  2  0  0  0  0
  6  8  1  0  0  0  0
  8  9  1  0  0  0  0
  8 26  1  0  0  0  0
  9 10  1  0  0  0  0
  9 27  1  0  0  0  0
  9 28  1  0  0  0  0
 10 11  1  0  0  0  0
 10 12  1  0  0  0  0
 10 29  1  0  0  0  0
 11 30  1  0  0  0  0
 11 31  1  0  0  0  0
 11 32  1  0  0  0  0
 12 19  1  0  0  0  0
 12 13  1  0  0  0  0
 12 45  1  0  0  0  0
 13 14  1  0  0  0  0
 13 33  1  0  0  0  0
 13 34  1  0  0  0  0
 14 15  1  0  0  0  0
 14 16  1  0  0  0  0
 14 35  1  0  0  0  0
 15 36  1  0  0  0  0
 15 37  1  0  0  0  0
 15 38  1  0  0  0  0
 16 17  1  0  0  0  0
 17 18  1  0  0  0  0
 17 19  1  0  0  0  0
 17 39  1  0  0  0  0
 18 40  1  0  0  0  0
 18 41  1  0  0  0  0
 18 42  1  0  0  0  0
 19 43  1  0  0  0  0
 19 44  1  0  0  0  0
 20 21  1  0  0  0  0
M  CHG  1   5  -1
M  CHG  1  12   1
M  END
> <s_m_source_file>
AV-unprocessed.smi

> <i_m_source_file_index>
2061

> <i_lp_mmshare_version>
43012

> <i_f3d_flags>
0

> <s_epik_input>
W0NIM11jMVtjSF1jKG5vMSlbTkhdQyg9TylbTkhdW0NIMl1bQ0BIXShbQ0gzXSlOMltDSDJdW0NAQEhdKFtDSDNdKU9bQ0BASF0oW0NIM10pW0NIMl0y

> <s_epik_cmdline>
J2VwaWtfcHl0aG9uJywgJy1waCcsICc3LjAnLCAnLXRuJywgJzgnLCAnLW1hJywgJzIwMCcsICctbWV0YWxfYmluZGluZycsICctaW1hZScsICc8aW5maWxlLm1hZT4nLCAnLW9tYWUnLCAnPG91dGZpbGUubWFlPic=

> <r_epik_Ionization_Penalty>
6.73511

> <r_epik_Ionization_Penalty_Charging>
6.73502

> <r_epik_Ionization_Penalty_Neutral>
9.50841e-05

> <r_epik_State_Penalty>
6.93549

> <r_epik_Charging_Adjusted_Penalty>
13.6705

> <i_epik_Tot_Q>
0

> <i_epik_Tot_abs_Q>
2

> <r_epik_Metal_State_Penalty>
2.87211

> <b_epik_Metal_Only>
1

> <s_lp_Force_Field>
OPLS_2005

> <r_lp_Energy>
11.3742

> <b_lp_Chiralities_Consistent>
1

> <s_lp_Variant>
AV-unprocessed.smi:2061-25

> <Gold.Version>
5.8.1

> <Gold.Id.Protein>
6NUR|6NUR_protein|mol2

> <Gold.PLP.Fitness>
44.1296

> <Gold.PLP.PLP>
-40.6958

> <Gold.PLP.part.hbond>
-3.0000

> <Gold.PLP.part.metal>
0.0000

> <Gold.PLP.part.buried>
-8.0570

> <Gold.PLP.part.nonpolar>
-30.6096

> <Gold.PLP.part.repulsive>
0.2849

> <Gold.PLP.ligand.clash>
0.1621

> <Gold.PLP.ligand.torsion>
2.6043

> <Gold.PLP.Chemscore.Hbond>
2.8880

> <Gold.PLP.Chemscore.CHOScore>
0.0000

> <Gold.PLP.Chemscore.Metal>
0.0000

> <Gold.Chemscore.Hbonds>
donor molecule, donor type, donor heavy atom, donor atom, acceptor molecule, acceptor atom, score
      P1  H  6896  6909       L1     7  0.67
      P1  H  6931  6943       L1    20  0.85
      P1  H  6934  6947       L1    20  0.86

> <Gold.PLP.Chemscore.Internal.Correction>
0.1404

> <Gold.Rescore>
     Score         DG    S(hbond)    S(metal)    S(lipo)     H(rot)  DE(clash)    DE(int)     intcor
     19.27     -21.64       2.66        0.00      96.32       1.56       0.01       2.36       ----

> <Gold.Chemscore.Fitness>
19.2723

> <Gold.Chemscore.DG>
-21.6407

> <Gold.Chemscore.ZeroCoef>
-5.4800

> <Gold.Chemscore.Hbond>
2.6564

> <Gold.Chemscore.Metal>
0.0000

> <Gold.Chemscore.Lipo>
96.3186

> <Gold.Chemscore.Internal_Hbond>
0.0000

> <Gold.Chemscore.DEClash>
0.0098

> <Gold.Chemscore.DEInternal>
2.3586

> <Gold.Chemscore.Rot>
1.5550

> <Gold.Chemscore.Internal.Correction>
   9.000000E+99

> <Gold.Chemscore.Hbonds>
donor molecule, donor type, donor heavy atom, donor atom, acceptor molecule, acceptor atom, score
      P1  H  6896  6909       L1     7  0.67
      P1  H  6931  6943       L1    20  0.75
      P1  H  6934  6947       L1    20  0.42

> <Gold.Chemscore.Hbond.Weighted>
-8.8723

> <Gold.Chemscore.Metal.Weighted>
-0.0000

> <Gold.Chemscore.Lipo.Weighted>
-11.2693

> <Gold.Chemscore.Internal_Hbond.Weighted>
0.0000

> <Gold.Chemscore.DEClash.Weighted>
0.0098

> <Gold.Chemscore.DEInternal.Weighted>
2.3586

> <Gold.Chemscore.Rot.Weighted>
3.9809

> <Gold.Chemscore.Internal.Correction.Weighted>
   9.000000E+99

> <Gold.Protein.RotatedTorsions>
[ 6907 6896 6895 6894 ] final   85.11 input  -60.11 | X-H torsion
[ 7974 7965 7964 7962 ] final  -91.76 input  175.53 | X-H torsion
[ 8008 7997 7996 7995 ] final  -40.76 input   59.86 | X-H torsion
[ 10167 10162 10161 10158 ] final  -48.82 input  -65.29 | X-H torsion
[ 10718 10713 10712 10709 ] final  -89.79 input   66.30 | X-H torsion
[ 10763 10752 10751 10750 ] final  -40.15 input  -60.55 | X-H torsion
[ 11005 11000 10999 10996 ] final   49.63 input  -57.11 | X-H torsion

> <Gold.Protein.ActiveResidues>
 VAL166  LYS551  ARG553  GLY616  TRP617  ASP618  TYR619  PRO620  LYS621  CYS622 
 ASP623  PHE694  ASN695  SER759  ASP760  ASP761  ALA762  ILE779  LEU786  VAL792 
 PHE793  MET794  SER795  GLU796  ALA797  LYS798  CYS799  TRP800  GLU811  SER814 

> <Gold.Protein.RotatedAtoms>
  152.5367  134.2637  159.8944 H   0  0  0  0  0  0  0  0  0  0  0  0  # atno 6907 bound_to 6896
  151.2596  133.4302  159.2623 H   0  0  0  0  0  0  0  0  0  0  0  0  # atno 6908 bound_to 6896
  151.0465  134.9658  159.8245 H   0  0  0  0  0  0  0  0  0  0  0  0  # atno 6909 bound_to 6896
  145.4088  140.9543  143.2245 H   0  0  0  0  0  0  0  0  0  0  0  0  # atno 7974 bound_to 7965
  154.4009  140.1517  156.3080 H   0  0  0  0  0  0  0  0  0  0  0  0  # atno 8008 bound_to 7997
  155.8641  140.3452  155.5754 H   0  0  0  0  0  0  0  0  0  0  0  0  # atno 8009 bound_to 7997
  155.7848  140.0848  157.2031 H   0  0  0  0  0  0  0  0  0  0  0  0  # atno 8010 bound_to 7997
  140.6713  143.2723  151.4127 H   0  0  0  0  0  0  0  0  0  0  0  0  # atno 10167 bound_to 10162
  155.9985  130.4885  150.5224 H   0  0  0  0  0  0  0  0  0  0  0  0  # atno 10718 bound_to 10713
  153.9412  135.6761  153.4744 H   0  0  0  0  0  0  0  0  0  0  0  0  # atno 10763 bound_to 10752
  153.0930  135.4865  154.8723 H   0  0  0  0  0  0  0  0  0  0  0  0  # atno 10764 bound_to 10752
  154.7376  135.3153  154.8743 H   0  0  0  0  0  0  0  0  0  0  0  0  # atno 10765 bound_to 10752
  140.1086  134.4984  155.8697 H   0  0  0  0  0  0  0  0  0  0  0  0  # atno 11005 bound_to 11000
  144.8323  139.5608  143.6938 LP  0  0  0  0  0  0  0  0  0  0  0  0  # atno 17320 bound_to 7965
  146.2715  139.6647  142.9293 LP  0  0  0  0  0  0  0  0  0  0  0  0  # atno 17321 bound_to 7965
  139.5983  144.1350  152.2169 LP  0  0  0  0  0  0  0  0  0  0  0  0  # atno 17342 bound_to 10162
  140.0726  144.5767  150.7181 LP  0  0  0  0  0  0  0  0  0  0  0  0  # atno 17343 bound_to 10162
  157.3184  131.0677  151.1950 LP  0  0  0  0  0  0  0  0  0  0  0  0  # atno 17370 bound_to 10713
  157.2872  130.6778  149.6095 LP  0  0  0  0  0  0  0  0  0  0  0  0  # atno 17371 bound_to 10713
  141.2124  133.6720  156.6661 LP  0  0  0  0  0  0  0  0  0  0  0  0  # atno 17394 bound_to 11000
  140.3121  134.8077  157.4185 LP  0  0  0  0  0  0  0  0  0  0  0  0  # atno 17395 bound_to 11000

$$$$
