AV-unprocessed.smi:767|AV-procd|sdf|3661|dock2
  -GOLD-   22720 1 73D 1   1.00000     0.00000
 Structure written by MMmdl.
 47 49  0  0  0  0  0  0  0  0  1 V2000
  151.1572  141.0513  156.1766 C   0  0  0  0  0  0  0  0  0  0  0  0
  151.0999  139.5586  155.9269 C   0  0  0  0  0  0  0  0  0  0  0  0
  151.0737  138.6447  157.0015 C   0  0  0  0  0  0  0  0  0  0  0  0
  151.0217  137.2680  156.7094 C   0  0  0  0  0  0  0  0  0  0  0  0
  150.9984  136.8594  155.3603 C   0  0  0  0  0  0  0  0  0  0  0  0
  150.9350  135.3902  154.9929 C   0  0  0  0  0  0  0  0  0  0  0  0
  149.5409  134.7941  155.2444 C   0  0  0  0  0  0  0  0  0  0  0  0
  148.6954  134.8915  154.0610 N   0  0  0  0  0  0  0  0  0  0  0  0
  147.5854  134.1707  153.8504 C   0  0  0  0  0  0  0  0  0  0  0  0
  147.1447  133.3343  154.6391 O   0  0  0  0  0  0  0  0  0  0  0  0
  147.0105  134.4736  152.6793 N   0  0  0  0  0  0  0  0  0  0  0  0
  145.7929  133.8470  152.1749 C   0  0  2  0  0  0  0  0  0  0  0  0
  145.8365  133.6145  150.6567 C   0  0  1  0  0  0  0  0  0  0  0  0
  145.8416  132.2115  150.1137 C   0  0  0  0  0  0  0  0  0  0  0  0
  144.3610  131.9546  149.8180 C   0  0  0  0  0  0  0  0  0  0  0  0
  143.6620  132.8853  150.6416 O   0  0  0  0  0  0  0  0  0  0  0  0
  144.3975  134.1065  150.6278 C   0  0  1  0  0  0  0  0  0  0  0  0
  144.5949  134.8126  151.9861 C   0  0  0  0  0  0  0  0  0  0  0  0
  143.4485  134.6692  152.9881 C   0  0  0  0  0  0  0  0  0  0  0  0
  144.9022  136.3130  151.8766 C   0  0  0  0  0  0  0  0  0  0  0  0
  151.0269  137.8543  154.3602 C   0  0  0  0  0  0  0  0  0  0  0  0
  151.0766  139.1764  154.6309 N   0  0  0  0  0  0  0  0  0  0  0  0
  151.1588  141.2746  157.2439 H   0  0  0  0  0  0  0  0  0  0  0  0
  150.2952  141.5449  155.7274 H   0  0  0  0  0  0  0  0  0  0  0  0
  152.0625  141.4736  155.7397 H   0  0  0  0  0  0  0  0  0  0  0  0
  151.0923  138.9870  158.0259 H   0  0  0  0  0  0  0  0  0  0  0  0
  150.9980  136.5408  157.5077 H   0  0  0  0  0  0  0  0  0  0  0  0
  151.2126  135.2768  153.9440 H   0  0  0  0  0  0  0  0  0  0  0  0
  151.6851  134.8474  155.5700 H   0  0  0  0  0  0  0  0  0  0  0  0
  149.6295  133.7402  155.5093 H   0  0  0  0  0  0  0  0  0  0  0  0
  149.0596  135.2885  156.0900 H   0  0  0  0  0  0  0  0  0  0  0  0
  148.9767  135.5536  153.3529 H   0  0  0  0  0  0  0  0  0  0  0  0
  147.4443  135.1736  152.0957 H   0  0  0  0  0  0  0  0  0  0  0  0
  145.5106  132.9398  152.7142 H   0  0  0  0  0  0  0  0  0  0  0  0
  146.5065  134.3060  150.1421 H   0  0  0  0  0  0  0  0  0  0  0  0
  146.4536  132.1099  149.2171 H   0  0  0  0  0  0  0  0  0  0  0  0
  146.2173  131.5080  150.8572 H   0  0  0  0  0  0  0  0  0  0  0  0
  144.1364  132.1691  148.7722 H   0  0  0  0  0  0  0  0  0  0  0  0
  144.0612  130.9277  150.0282 H   0  0  0  0  0  0  0  0  0  0  0  0
  144.1626  134.7493  149.7782 H   0  0  0  0  0  0  0  0  0  0  0  0
  142.5478  135.1762  152.6410 H   0  0  0  0  0  0  0  0  0  0  0  0
  143.7118  135.0883  153.9597 H   0  0  0  0  0  0  0  0  0  0  0  0
  143.1864  133.6237  153.1527 H   0  0  0  0  0  0  0  0  0  0  0  0
  144.0338  136.8720  151.5266 H   0  0  0  0  0  0  0  0  0  0  0  0
  145.7120  136.5104  151.1735 H   0  0  0  0  0  0  0  0  0  0  0  0
  145.1965  136.7360  152.8378 H   0  0  0  0  0  0  0  0  0  0  0  0
  151.0069  137.5831  153.3150 H   0  0  0  0  0  0  0  0  0  0  0  0
  1  2  1  0  0  0  0
  1 23  1  0  0  0  0
  1 24  1  0  0  0  0
  1 25  1  0  0  0  0
  2 22  1  0  0  0  0
  2  3  2  0  0  0  0
  3  4  1  0  0  0  0
  3 26  1  0  0  0  0
  4  5  2  0  0  0  0
  4 27  1  0  0  0  0
  5  6  1  0  0  0  0
  5 21  1  0  0  0  0
  6  7  1  0  0  0  0
  6 28  1  0  0  0  0
  6 29  1  0  0  0  0
  7  8  1  0  0  0  0
  7 30  1  0  0  0  0
  7 31  1  0  0  0  0
  8  9  1  0  0  0  0
  8 32  1  0  0  0  0
  9 10  2  0  0  0  0
  9 11  1  0  0  0  0
 11 12  1  0  0  0  0
 11 33  1  0  0  0  0
 12 18  1  0  0  0  0
 12 13  1  0  0  0  0
 12 34  1  0  0  0  0
 13 17  1  0  0  0  0
 13 14  1  0  0  0  0
 13 35  1  0  0  0  0
 14 15  1  0  0  0  0
 14 36  1  0  0  0  0
 14 37  1  0  0  0  0
 15 16  1  0  0  0  0
 15 38  1  0  0  0  0
 15 39  1  0  0  0  0
 16 17  1  0  0  0  0
 17 18  1  0  0  0  0
 17 40  1  0  0  0  0
 18 19  1  0  0  0  0
 18 20  1  0  0  0  0
 19 41  1  0  0  0  0
 19 42  1  0  0  0  0
 19 43  1  0  0  0  0
 20 44  1  0  0  0  0
 20 45  1  0  0  0  0
 20 46  1  0  0  0  0
 21 22  2  0  0  0  0
 21 47  1  0  0  0  0
M  END
> <s_m_source_file>
AV-unprocessed.smi

> <i_m_source_file_index>
767

> <i_lp_mmshare_version>
43012

> <i_f3d_flags>
0

> <s_epik_input>
W0NIM11jMVtjSF1bY0hdYyhbY0hdbjEpW0NIMl1bQ0gyXVtOSF1DKD1PKVtOSF1bQ0BIXTJDKFtDSDNdKShbQ0gzXSlbQ0BIXShbQ0BASF0yMylPW0NIMl1bQ0gyXTM=

> <s_epik_cmdline>
J2VwaWtfcHl0aG9uJywgJy1waCcsICc3LjAnLCAnLXRuJywgJzgnLCAnLW1hJywgJzIwMCcsICctbWV0YWxfYmluZGluZycsICctaW1hZScsICc8aW5maWxlLm1hZT4nLCAnLW9tYWUnLCAnPG91dGZpbGUubWFlPic=

> <r_epik_Ionization_Penalty>
0.0567523

> <r_epik_Ionization_Penalty_Charging>
0

> <r_epik_Ionization_Penalty_Neutral>
0.0567523

> <r_epik_State_Penalty>
0.0489186

> <r_epik_Charging_Adjusted_Penalty>
0.0489186

> <i_epik_Tot_Q>
0

> <i_epik_Tot_abs_Q>
0

> <r_epik_Metal_State_Penalty>
0.044622

> <b_epik_Metal_Only>
0

> <s_lp_Force_Field>
OPLS_2005

> <r_lp_Energy>
31.223

> <b_lp_Chiralities_Consistent>
1

> <s_lp_Variant>
AV-unprocessed.smi:767-5

> <Gold.Version>
5.8.1

> <Gold.Id.Protein>
6NUR|6NUR_protein|mol2

> <Gold.PLP.Fitness>
45.7468

> <Gold.PLP.PLP>
-34.7483

> <Gold.PLP.part.hbond>
-3.0000

> <Gold.PLP.part.metal>
0.0000

> <Gold.PLP.part.buried>
-2.8943

> <Gold.PLP.part.nonpolar>
-28.6692

> <Gold.PLP.part.repulsive>
0.3772

> <Gold.PLP.ligand.clash>
0.0000

> <Gold.PLP.ligand.torsion>
0.6559

> <Gold.PLP.Chemscore.Hbond>
2.9280

> <Gold.PLP.Chemscore.CHOScore>
1.1088

> <Gold.PLP.Chemscore.Metal>
0.0000

> <Gold.Chemscore.Hbonds>
donor molecule, donor type, donor heavy atom, donor atom, acceptor molecule, acceptor atom, score
      L1  H     8    32       P1  7948  1.00
      L1  H    11    33       P1  7948  0.91
      P1  H  7989  7998       L1    22  0.81
      L1  C    21    47       P1  7948  0.08
      L1  C    21    47       P1  7949  1.00

> <Gold.PLP.Chemscore.Internal.Correction>
0.1999

> <Gold.Rescore>
     Score         DG    S(hbond)    S(metal)    S(lipo)     H(rot)  DE(clash)    DE(int)     intcor
     20.81     -21.66       2.65        0.00      94.24       1.45       0.05       0.80       ----

> <Gold.Chemscore.Fitness>
20.8083

> <Gold.Chemscore.DG>
-21.6576

> <Gold.Chemscore.ZeroCoef>
-5.4800

> <Gold.Chemscore.Hbond>
2.6535

> <Gold.Chemscore.Metal>
0.0000

> <Gold.Chemscore.Lipo>
94.2408

> <Gold.Chemscore.Internal_Hbond>
0.0000

> <Gold.Chemscore.DEClash>
0.0451

> <Gold.Chemscore.DEInternal>
0.8042

> <Gold.Chemscore.Rot>
1.4497

> <Gold.Chemscore.Internal.Correction>
   9.000000E+99

> <Gold.Chemscore.Hbonds>
donor molecule, donor type, donor heavy atom, donor atom, acceptor molecule, acceptor atom, score
      L1  H     8    32       P1  7948  0.72
      L1  H    11    33       P1  7948  0.87
      P1  H  7989  7998       L1    22  0.49

> <Gold.Chemscore.Hbond.Weighted>
-8.8626

> <Gold.Chemscore.Metal.Weighted>
-0.0000

> <Gold.Chemscore.Lipo.Weighted>
-11.0262

> <Gold.Chemscore.Internal_Hbond.Weighted>
0.0000

> <Gold.Chemscore.DEClash.Weighted>
0.0451

> <Gold.Chemscore.DEInternal.Weighted>
0.8042

> <Gold.Chemscore.Rot.Weighted>
3.7112

> <Gold.Chemscore.Internal.Correction.Weighted>
   9.000000E+99

> <Gold.Protein.RotatedTorsions>
[ 6907 6896 6895 6894 ] final   -9.20 input  -60.11 | X-H torsion
[ 7974 7965 7964 7962 ] final  -17.10 input  175.53 | X-H torsion
[ 8008 7997 7996 7995 ] final   46.77 input   59.86 | X-H torsion
[ 10167 10162 10161 10158 ] final  162.32 input  -65.29 | X-H torsion
[ 10718 10713 10712 10709 ] final  154.89 input   66.30 | X-H torsion
[ 10763 10752 10751 10750 ] final  144.58 input  -60.55 | X-H torsion
[ 11005 11000 10999 10996 ] final  138.65 input  -57.11 | X-H torsion

> <Gold.Protein.ActiveResidues>
 VAL166  LYS551  ARG553  GLY616  TRP617  ASP618  TYR619  PRO620  LYS621  CYS622 
 ASP623  PHE694  ASN695  SER759  ASP760  ASP761  ALA762  ILE779  LEU786  VAL792 
 PHE793  MET794  SER795  GLU796  ALA797  LYS798  CYS799  TRP800  GLU811  SER814 

> <Gold.Protein.RotatedAtoms>
  151.4215  135.0998  159.9614 H   0  0  0  0  0  0  0  0  0  0  0  0  # atno 6907 bound_to 6896
  152.4987  133.8703  159.7305 H   0  0  0  0  0  0  0  0  0  0  0  0  # atno 6908 bound_to 6896
  150.9220  133.6812  159.2858 H   0  0  0  0  0  0  0  0  0  0  0  0  # atno 6909 bound_to 6896
  146.1957  140.3730  142.8441 H   0  0  0  0  0  0  0  0  0  0  0  0  # atno 7974 bound_to 7965
  155.3579  140.3417  155.4240 H   0  0  0  0  0  0  0  0  0  0  0  0  # atno 8008 bound_to 7997
  156.1729  140.1638  156.8450 H   0  0  0  0  0  0  0  0  0  0  0  0  # atno 8009 bound_to 7997
  154.5252  140.0758  156.8227 H   0  0  0  0  0  0  0  0  0  0  0  0  # atno 8010 bound_to 7997
  139.4859  144.4449  151.8905 H   0  0  0  0  0  0  0  0  0  0  0  0  # atno 10167 bound_to 10162
  157.2256  131.0728  151.1885 H   0  0  0  0  0  0  0  0  0  0  0  0  # atno 10718 bound_to 10713
  153.9913  135.2932  155.3411 H   0  0  0  0  0  0  0  0  0  0  0  0  # atno 10763 bound_to 10752
  154.7213  135.5108  153.8819 H   0  0  0  0  0  0  0  0  0  0  0  0  # atno 10764 bound_to 10752
  153.0808  135.6678  154.0165 H   0  0  0  0  0  0  0  0  0  0  0  0  # atno 10765 bound_to 10752
  140.0198  134.9401  157.0452 H   0  0  0  0  0  0  0  0  0  0  0  0  # atno 11005 bound_to 11000
  144.8575  140.7092  143.6128 LP  0  0  0  0  0  0  0  0  0  0  0  0  # atno 17320 bound_to 7965
  145.3651  139.1672  143.4362 LP  0  0  0  0  0  0  0  0  0  0  0  0  # atno 17321 bound_to 7965
  140.3902  144.2625  150.5900 LP  0  0  0  0  0  0  0  0  0  0  0  0  # atno 17342 bound_to 10162
  140.5153  143.2280  151.8473 LP  0  0  0  0  0  0  0  0  0  0  0  0  # atno 17343 bound_to 10162
  157.3531  130.7092  149.6453 LP  0  0  0  0  0  0  0  0  0  0  0  0  # atno 17370 bound_to 10713
  155.9679  130.4247  150.4619 LP  0  0  0  0  0  0  0  0  0  0  0  0  # atno 17371 bound_to 10713
  140.4406  134.1685  155.7173 LP  0  0  0  0  0  0  0  0  0  0  0  0  # atno 17394 bound_to 11000
  141.1767  133.8500  157.1398 LP  0  0  0  0  0  0  0  0  0  0  0  0  # atno 17395 bound_to 11000

$$$$
