AV-unprocessed.smi:2541|AV-procd|sdf|9990|dock5
  -GOLD-   2272014 43D 1   1.00000     0.00000
 Structure written by MMmdl.
 38 39  0  0  0  0  0  0  0  0  1 V2000
  148.8366  139.7214  154.8262 O   0  0  0  0  0  0  0  0  0  0  0  0
  149.0391  138.7418  154.1086 C   0  0  0  0  0  0  0  0  0  0  0  0
  150.3737  137.9985  154.1860 C   0  0  0  0  0  0  0  0  0  0  0  0
  151.2137  138.5501  155.3079 C   0  0  0  0  0  0  0  0  0  0  0  0
  151.5809  137.9204  156.5299 C   0  0  0  0  0  0  0  0  0  0  0  0
  152.3286  138.8690  157.1659 C   0  0  0  0  0  0  0  0  0  0  0  0
  152.4224  139.9887  156.4056 O   0  0  0  0  0  0  0  0  0  0  0  0
  151.7099  139.7752  155.2202 N   0  0  0  0  0  0  0  0  0  0  0  0
  148.1394  138.2706  153.2305 N   0  0  0  0  0  0  0  0  0  0  0  0
  146.8353  138.8643  152.9573 C   0  0  0  0  0  0  0  0  0  0  0  0
  146.1023  138.1304  151.8136 C   0  0  1  0  0  0  0  0  0  0  0  0
  146.9531  138.0903  150.6831 O   0  0  0  0  0  0  0  0  0  0  0  0
  145.6703  136.6915  152.1916 C   0  0  0  0  0  0  0  0  0  0  0  0
  145.4277  135.7697  150.9724 C   0  0  0  0  0  0  0  0  0  0  0  0
  145.0330  134.3479  151.4041 C   0  0  0  0  0  0  0  0  0  0  0  0
  143.8064  134.3645  152.3284 C   0  0  0  0  0  0  0  0  0  0  0  0
  144.0502  135.2626  153.5502 C   0  0  0  0  0  0  0  0  0  0  0  0
  144.4390  136.6877  153.1246 C   0  0  0  0  0  0  0  0  0  0  0  0
  150.1888  136.9353  154.3426 H   0  0  0  0  0  0  0  0  0  0  0  0
  150.8888  138.0852  153.2280 H   0  0  0  0  0  0  0  0  0  0  0  0
  151.3305  136.9317  156.8845 H   0  0  0  0  0  0  0  0  0  0  0  0
  152.8381  138.8976  158.1177 H   0  0  0  0  0  0  0  0  0  0  0  0
  148.3937  137.4631  152.6799 H   0  0  0  0  0  0  0  0  0  0  0  0
  146.2441  138.8480  153.8733 H   0  0  0  0  0  0  0  0  0  0  0  0
  146.9749  139.9164  152.7029 H   0  0  0  0  0  0  0  0  0  0  0  0
  145.2068  138.6911  151.5421 H   0  0  0  0  0  0  0  0  0  0  0  0
  147.6119  137.4286  150.8277 H   0  0  0  0  0  0  0  0  0  0  0  0
  146.4933  136.2584  152.7623 H   0  0  0  0  0  0  0  0  0  0  0  0
  144.6400  136.1820  150.3407 H   0  0  0  0  0  0  0  0  0  0  0  0
  146.3225  135.7148  150.3527 H   0  0  0  0  0  0  0  0  0  0  0  0
  144.8271  133.7371  150.5248 H   0  0  0  0  0  0  0  0  0  0  0  0
  145.8714  133.8760  151.9178 H   0  0  0  0  0  0  0  0  0  0  0  0
  142.9368  134.7240  151.7766 H   0  0  0  0  0  0  0  0  0  0  0  0
  143.5706  133.3505  152.6524 H   0  0  0  0  0  0  0  0  0  0  0  0
  143.1563  135.2921  154.1737 H   0  0  0  0  0  0  0  0  0  0  0  0
  144.8425  134.8353  154.1662 H   0  0  0  0  0  0  0  0  0  0  0  0
  144.6416  137.2876  154.0125 H   0  0  0  0  0  0  0  0  0  0  0  0
  143.5896  137.1552  152.6251 H   0  0  0  0  0  0  0  0  0  0  0  0
  1  2  2  0  0  0  0
  2  3  1  0  0  0  0
  2  9  1  0  0  0  0
  3  4  1  0  0  0  0
  3 19  1  0  0  0  0
  3 20  1  0  0  0  0
  4  8  2  0  0  0  0
  4  5  1  0  0  0  0
  5  6  2  0  0  0  0
  5 21  1  0  0  0  0
  6  7  1  0  0  0  0
  6 22  1  0  0  0  0
  7  8  1  0  0  0  0
  9 10  1  0  0  0  0
  9 23  1  0  0  0  0
 10 11  1  0  0  0  0
 10 24  1  0  0  0  0
 10 25  1  0  0  0  0
 11 12  1  0  0  0  0
 11 13  1  0  0  0  0
 11 26  1  0  0  0  0
 12 27  1  0  0  0  0
 13 18  1  0  0  0  0
 13 14  1  0  0  0  0
 13 28  1  0  0  0  0
 14 15  1  0  0  0  0
 14 29  1  0  0  0  0
 14 30  1  0  0  0  0
 15 16  1  0  0  0  0
 15 31  1  0  0  0  0
 15 32  1  0  0  0  0
 16 17  1  0  0  0  0
 16 33  1  0  0  0  0
 16 34  1  0  0  0  0
 17 18  1  0  0  0  0
 17 35  1  0  0  0  0
 17 36  1  0  0  0  0
 18 37  1  0  0  0  0
 18 38  1  0  0  0  0
M  END
> <s_m_source_file>
AV-unprocessed.smi

> <i_m_source_file_index>
2541

> <i_lp_mmshare_version>
43012

> <i_f3d_flags>
0

> <s_epik_input>
bjFvW2NIXVtjSF1jMVtDSDJdQyg9TylbTkhdW0NIMl1bQ0BIXShbT0hdKVtDSF0yW0NIMl1bQ0gyXVtDSDJdW0NIMl1bQ0gyXTI=

> <s_epik_cmdline>
J2VwaWtfcHl0aG9uJywgJy1waCcsICc3LjAnLCAnLXRuJywgJzgnLCAnLW1hJywgJzIwMCcsICctbWV0YWxfYmluZGluZycsICctaW1hZScsICc8aW5maWxlLm1hZT4nLCAnLW9tYWUnLCAnPG91dGZpbGUubWFlPic=

> <r_lp_tautomer_probability>
1

> <r_epik_Ionization_Penalty>
2.3322e-07

> <r_epik_Ionization_Penalty_Charging>
0

> <r_epik_Ionization_Penalty_Neutral>
2.3322e-07

> <r_epik_State_Penalty>
-0

> <r_epik_Charging_Adjusted_Penalty>
0

> <i_epik_Tot_Q>
0

> <i_epik_Tot_abs_Q>
0

> <r_epik_Metal_State_Penalty>
-0

> <b_epik_Metal_Only>
0

> <s_lp_Force_Field>
OPLS_2005

> <r_lp_Energy>
13.2063

> <b_lp_Chiralities_Consistent>
1

> <s_lp_Variant>
AV-unprocessed.smi:2541-2

> <Gold.Version>
5.8.1

> <Gold.Id.Protein>
6NUR|6NUR_protein|mol2

> <Gold.PLP.Fitness>
41.0879

> <Gold.PLP.PLP>
-30.0492

> <Gold.PLP.part.hbond>
-6.2250

> <Gold.PLP.part.metal>
0.0000

> <Gold.PLP.part.buried>
-2.7950

> <Gold.PLP.part.nonpolar>
-23.1221

> <Gold.PLP.part.repulsive>
0.1485

> <Gold.PLP.ligand.clash>
0.0000

> <Gold.PLP.ligand.torsion>
0.4937

> <Gold.PLP.Chemscore.Hbond>
3.9913

> <Gold.PLP.Chemscore.CHOScore>
0.0000

> <Gold.PLP.Chemscore.Metal>
0.0000

> <Gold.Chemscore.Hbonds>
donor molecule, donor type, donor heavy atom, donor atom, acceptor molecule, acceptor atom, score
      L1  H     9    23       P1  7948  1.00
      L1  H    12    27       P1  7948  1.00
      P1  H  7989  7998       L1     8  0.99
      P1  H  7997  8009       L1     7  1.00

> <Gold.PLP.Chemscore.Internal.Correction>
0.0524

> <Gold.Rescore>
     Score         DG    S(hbond)    S(metal)    S(lipo)     H(rot)  DE(clash)    DE(int)     intcor
     14.52     -16.44       2.82        0.00      66.07       2.42       0.01       1.91       ----

> <Gold.Chemscore.Fitness>
14.5230

> <Gold.Chemscore.DG>
-16.4426

> <Gold.Chemscore.ZeroCoef>
-5.4800

> <Gold.Chemscore.Hbond>
2.8206

> <Gold.Chemscore.Metal>
0.0000

> <Gold.Chemscore.Lipo>
66.0655

> <Gold.Chemscore.Internal_Hbond>
0.0000

> <Gold.Chemscore.DEClash>
0.0114

> <Gold.Chemscore.DEInternal>
1.9082

> <Gold.Chemscore.Rot>
2.4172

> <Gold.Chemscore.Internal.Correction>
   9.000000E+99

> <Gold.Chemscore.Hbonds>
donor molecule, donor type, donor heavy atom, donor atom, acceptor molecule, acceptor atom, score
      L1  H     9    23       P1  7948  0.97
      L1  H    12    27       P1  7948  0.91
      P1  H  7989  7998       L1     8  0.87
      P1  H  7997  8009       L1     7  0.24

> <Gold.Chemscore.Hbond.Weighted>
-9.4210

> <Gold.Chemscore.Metal.Weighted>
-0.0000

> <Gold.Chemscore.Lipo.Weighted>
-7.7297

> <Gold.Chemscore.Internal_Hbond.Weighted>
0.0000

> <Gold.Chemscore.DEClash.Weighted>
0.0114

> <Gold.Chemscore.DEInternal.Weighted>
1.9082

> <Gold.Chemscore.Rot.Weighted>
6.1880

> <Gold.Chemscore.Internal.Correction.Weighted>
   9.000000E+99

> <Gold.Protein.RotatedTorsions>
[ 6907 6896 6895 6894 ] final   96.53 input  -60.11 | X-H torsion
[ 7974 7965 7964 7962 ] final  123.77 input  175.53 | X-H torsion
[ 8008 7997 7996 7995 ] final -157.97 input   59.86 | X-H torsion
[ 10167 10162 10161 10158 ] final -147.28 input  -65.29 | X-H torsion
[ 10718 10713 10712 10709 ] final   83.66 input   66.30 | X-H torsion
[ 10763 10752 10751 10750 ] final   95.31 input  -60.55 | X-H torsion
[ 11005 11000 10999 10996 ] final   10.92 input  -57.11 | X-H torsion

> <Gold.Protein.ActiveResidues>
 VAL166  LYS551  ARG553  GLY616  TRP617  ASP618  TYR619  PRO620  LYS621  CYS622 
 ASP623  PHE694  ASN695  SER759  ASP760  ASP761  ALA762  ILE779  LEU786  VAL792 
 PHE793  MET794  SER795  GLU796  ALA797  LYS798  CYS799  TRP800  GLU811  SER814 

> <Gold.Protein.RotatedAtoms>
  152.5434  134.0872  159.8260 H   0  0  0  0  0  0  0  0  0  0  0  0  # atno 6907 bound_to 6896
  151.0966  133.5268  159.2619 H   0  0  0  0  0  0  0  0  0  0  0  0  # atno 6908 bound_to 6896
  151.2039  135.0463  159.8938 H   0  0  0  0  0  0  0  0  0  0  0  0  # atno 6909 bound_to 6896
  145.0921  139.3579  143.4855 H   0  0  0  0  0  0  0  0  0  0  0  0  # atno 7974 bound_to 7965
  155.7405  140.0813  157.2248 H   0  0  0  0  0  0  0  0  0  0  0  0  # atno 8008 bound_to 7997
  154.4022  140.1579  156.2665 H   0  0  0  0  0  0  0  0  0  0  0  0  # atno 8009 bound_to 7997
  155.9025  140.3409  155.6040 H   0  0  0  0  0  0  0  0  0  0  0  0  # atno 8010 bound_to 7997
  139.7636  143.8340  152.2612 H   0  0  0  0  0  0  0  0  0  0  0  0  # atno 10167 bound_to 10162
  157.6883  131.0100  150.2556 H   0  0  0  0  0  0  0  0  0  0  0  0  # atno 10718 bound_to 10713
  153.2517  135.4258  155.0804 H   0  0  0  0  0  0  0  0  0  0  0  0  # atno 10763 bound_to 10752
  154.8384  135.3427  154.6504 H   0  0  0  0  0  0  0  0  0  0  0  0  # atno 10764 bound_to 10752
  153.6925  135.7033  153.5143 H   0  0  0  0  0  0  0  0  0  0  0  0  # atno 10765 bound_to 10752
  140.5090  134.0670  155.7813 H   0  0  0  0  0  0  0  0  0  0  0  0  # atno 11005 bound_to 11000
  146.3531  140.0760  142.8620 LP  0  0  0  0  0  0  0  0  0  0  0  0  # atno 17320 bound_to 7965
  145.1054  140.9372  143.4688 LP  0  0  0  0  0  0  0  0  0  0  0  0  # atno 17321 bound_to 7965
  139.8354  144.7235  150.9398 LP  0  0  0  0  0  0  0  0  0  0  0  0  # atno 17342 bound_to 10162
  140.7809  143.4032  151.1115 LP  0  0  0  0  0  0  0  0  0  0  0  0  # atno 17343 bound_to 10162
  156.3145  130.3776  149.7631 LP  0  0  0  0  0  0  0  0  0  0  0  0  # atno 17370 bound_to 10713
  156.5221  130.8220  151.3207 LP  0  0  0  0  0  0  0  0  0  0  0  0  # atno 17371 bound_to 10713
  141.1395  133.9162  157.2357 LP  0  0  0  0  0  0  0  0  0  0  0  0  # atno 17394 bound_to 11000
  139.9669  135.0139  156.9412 LP  0  0  0  0  0  0  0  0  0  0  0  0  # atno 17395 bound_to 11000

$$$$
