AV-unprocessed.smi:1762|AV-procd|sdf|7109|dock4
  -GOLD-   22720 8333D 1   1.00000     0.00000
 Structure written by MMmdl.
 53 54  0  0  0  0  0  0  0  0  2 V2000
  152.2719  139.0552  156.1857 C   0  0  0  0  0  0  0  0  0  0  0  0
  151.7454  138.8241  154.7580 C   0  0  1  0  0  0  0  0  0  0  0  0
  151.1438  137.4202  154.5485 C   0  0  0  0  0  0  0  0  0  0  0  0
  149.8329  137.2439  155.1865 N   0  0  0  0  0  0  0  0  0  0  0  0
  149.2780  135.8730  155.0034 C   0  0  2  0  0  0  0  0  0  0  0  0
  147.7315  135.8379  155.0020 C   0  0  0  0  0  0  0  0  0  0  0  0
  147.1027  135.9773  156.0516 O   0  0  0  0  0  0  0  0  0  0  0  0
  147.1339  135.6836  153.8096 N   0  0  0  0  0  0  0  0  0  0  0  0
  145.6924  135.6614  153.5959 C   0  0  0  0  0  0  0  0  0  0  0  0
  145.3448  135.6688  152.0975 C   0  0  0  0  0  0  0  0  0  0  0  0
  145.2201  134.2684  151.5303 C   0  0  0  0  0  0  0  0  0  0  0  0
  144.1269  133.8797  150.7260 C   0  0  0  0  0  0  0  0  0  0  0  0
  144.0686  132.5587  150.2345 C   0  0  0  0  0  0  0  0  0  0  0  0
  145.1018  131.6553  150.5588 C   0  0  0  0  0  0  0  0  0  0  0  0
  146.1690  132.0962  151.3676 C   0  0  0  0  0  0  0  0  0  0  0  0
  146.1894  133.3698  151.8187 N   0  3  0  0  0  0  0  0  0  0  0  0
  149.8568  134.7889  155.9741 C   0  0  0  0  0  0  0  0  0  0  0  0
  151.3640  134.9563  156.2548 C   0  0  0  0  0  0  0  0  0  0  0  0
  149.5485  133.3398  155.5481 C   0  0  0  0  0  0  0  0  0  0  0  0
  148.9444  138.3267  154.7315 C   0  0  0  0  0  0  0  0  0  0  0  0
  149.5333  139.7267  154.9834 C   0  0  2  0  0  0  0  0  0  0  0  0
  148.6455  140.8395  154.4148 C   0  0  0  0  0  0  0  0  0  0  0  0
  150.8116  139.8271  154.3656 O   0  0  0  0  0  0  0  0  0  0  0  0
  153.0760  138.3571  156.4193 H   0  0  0  0  0  0  0  0  0  0  0  0
  151.4955  138.9167  156.9380 H   0  0  0  0  0  0  0  0  0  0  0  0
  152.6688  140.0645  156.2952 H   0  0  0  0  0  0  0  0  0  0  0  0
  152.5987  138.9255  154.0868 H   0  0  0  0  0  0  0  0  0  0  0  0
  151.0556  137.2303  153.4774 H   0  0  0  0  0  0  0  0  0  0  0  0
  151.8678  136.7030  154.9295 H   0  0  0  0  0  0  0  0  0  0  0  0
  149.5750  135.5524  154.0024 H   0  0  0  0  0  0  0  0  0  0  0  0
  147.7216  135.5801  152.9949 H   0  0  0  0  0  0  0  0  0  0  0  0
  145.2943  134.7632  154.0688 H   0  0  0  0  0  0  0  0  0  0  0  0
  145.2288  136.5106  154.1012 H   0  0  0  0  0  0  0  0  0  0  0  0
  144.4076  136.2009  151.9282 H   0  0  0  0  0  0  0  0  0  0  0  0
  146.1092  136.2110  151.5388 H   0  0  0  0  0  0  0  0  0  0  0  0
  143.3419  134.5832  150.4882 H   0  0  0  0  0  0  0  0  0  0  0  0
  143.2410  132.2424  149.6165 H   0  0  0  0  0  0  0  0  0  0  0  0
  145.0759  130.6394  150.1920 H   0  0  0  0  0  0  0  0  0  0  0  0
  147.0005  131.4737  151.6645 H   0  0  0  0  0  0  0  0  0  0  0  0
  149.3937  134.9364  156.9483 H   0  0  0  0  0  0  0  0  0  0  0  0
  151.9738  134.7184  155.3827 H   0  0  0  0  0  0  0  0  0  0  0  0
  151.6840  134.2951  157.0606 H   0  0  0  0  0  0  0  0  0  0  0  0
  151.5971  135.9770  156.5595 H   0  0  0  0  0  0  0  0  0  0  0  0
  150.0607  133.0683  154.6255 H   0  0  0  0  0  0  0  0  0  0  0  0
  148.4806  133.1848  155.3951 H   0  0  0  0  0  0  0  0  0  0  0  0
  149.8691  132.6348  156.3154 H   0  0  0  0  0  0  0  0  0  0  0  0
  148.7306  138.2034  153.6683 H   0  0  0  0  0  0  0  0  0  0  0  0
  147.9851  138.2994  155.2467 H   0  0  0  0  0  0  0  0  0  0  0  0
  149.6346  139.8896  156.0567 H   0  0  0  0  0  0  0  0  0  0  0  0
  147.6524  140.8189  154.8642 H   0  0  0  0  0  0  0  0  0  0  0  0
  148.5276  140.7386  153.3355 H   0  0  0  0  0  0  0  0  0  0  0  0
  149.0782  141.8204  154.6121 H   0  0  0  0  0  0  0  0  0  0  0  0
  146.9714  133.6674  152.4025 H   0  0  0  0  0  0  0  0  0  0  0  0
  1  2  1  0  0  0  0
  1 24  1  0  0  0  0
  1 25  1  0  0  0  0
  1 26  1  0  0  0  0
  2 23  1  0  0  0  0
  2  3  1  0  0  0  0
  2 27  1  0  0  0  0
  3  4  1  0  0  0  0
  3 28  1  0  0  0  0
  3 29  1  0  0  0  0
  4  5  1  0  0  0  0
  4 20  1  0  0  0  0
  5  6  1  0  0  0  0
  5 17  1  0  0  0  0
  5 30  1  0  0  0  0
  6  7  2  0  0  0  0
  6  8  1  0  0  0  0
  8  9  1  0  0  0  0
  8 31  1  0  0  0  0
  9 10  1  0  0  0  0
  9 32  1  0  0  0  0
  9 33  1  0  0  0  0
 10 11  1  0  0  0  0
 10 34  1  0  0  0  0
 10 35  1  0  0  0  0
 11 16  1  0  0  0  0
 11 12  2  0  0  0  0
 12 13  1  0  0  0  0
 12 36  1  0  0  0  0
 13 14  2  0  0  0  0
 13 37  1  0  0  0  0
 14 15  1  0  0  0  0
 14 38  1  0  0  0  0
 15 16  2  0  0  0  0
 15 39  1  0  0  0  0
 16 53  1  0  0  0  0
 17 18  1  0  0  0  0
 17 19  1  0  0  0  0
 17 40  1  0  0  0  0
 18 41  1  0  0  0  0
 18 42  1  0  0  0  0
 18 43  1  0  0  0  0
 19 44  1  0  0  0  0
 19 45  1  0  0  0  0
 19 46  1  0  0  0  0
 20 21  1  0  0  0  0
 20 47  1  0  0  0  0
 20 48  1  0  0  0  0
 21 22  1  0  0  0  0
 21 23  1  0  0  0  0
 21 49  1  0  0  0  0
 22 50  1  0  0  0  0
 22 51  1  0  0  0  0
 22 52  1  0  0  0  0
M  CHG  1  16   1
M  END
> <s_m_source_file>
AV-unprocessed.smi

> <i_m_source_file_index>
1762

> <i_lp_mmshare_version>
43012

> <i_f3d_flags>
0

> <s_epik_input>
W0NIM11bQ0BASF0xW0NIMl1OKFtDSDJdW0NASF0oTzEpW0NIM10pW0NAQEhdKFtDSF0oW0NIM10pW0NIM10pQyg9TylbTkhdW0NIMl1bQ0gyXWMyW2NIXVtjSF1bY0hdW2NIXW4y

> <s_epik_cmdline>
J2VwaWtfcHl0aG9uJywgJy1waCcsICc3LjAnLCAnLXRuJywgJzgnLCAnLW1hJywgJzIwMCcsICctbWV0YWxfYmluZGluZycsICctaW1hZScsICc8aW5maWxlLm1hZT4nLCAnLW9tYWUnLCAnPG91dGZpbGUubWFlPic=

> <r_epik_Ionization_Penalty>
1.86475

> <r_epik_Ionization_Penalty_Charging>
1.85347

> <r_epik_Ionization_Penalty_Neutral>
0.0112771

> <r_epik_State_Penalty>
1.99714

> <r_epik_Charging_Adjusted_Penalty>
3.85061

> <i_epik_Tot_Q>
1

> <i_epik_Tot_abs_Q>
1

> <r_epik_Metal_State_Penalty>
2.02271

> <b_epik_Metal_Only>
0

> <s_lp_Force_Field>
OPLS_2005

> <r_lp_Energy>
35.2583

> <b_lp_Chiralities_Consistent>
1

> <s_lp_Variant>
AV-unprocessed.smi:1762-11

> <Gold.Version>
5.8.1

> <Gold.Id.Protein>
6NUR|6NUR_protein|mol2

> <Gold.PLP.Fitness>
41.7577

> <Gold.PLP.PLP>
-38.1732

> <Gold.PLP.part.hbond>
-1.8598

> <Gold.PLP.part.metal>
0.0000

> <Gold.PLP.part.buried>
-4.2054

> <Gold.PLP.part.nonpolar>
-33.6401

> <Gold.PLP.part.repulsive>
0.3023

> <Gold.PLP.ligand.clash>
0.0000

> <Gold.PLP.ligand.torsion>
1.4049

> <Gold.PLP.Chemscore.Hbond>
1.9913

> <Gold.PLP.Chemscore.CHOScore>
0.0000

> <Gold.PLP.Chemscore.Metal>
0.0000

> <Gold.Chemscore.Hbonds>
donor molecule, donor type, donor heavy atom, donor atom, acceptor molecule, acceptor atom, score
      L1  H     8    31       P1  7948  1.00
      P1  H  7989  7998       L1    23  1.00

> <Gold.PLP.Chemscore.Internal.Correction>
0.4206

> <Gold.Rescore>
     Score         DG    S(hbond)    S(metal)    S(lipo)     H(rot)  DE(clash)    DE(int)     intcor
     17.60     -19.65       1.88        0.00     105.17       1.72       0.06       1.99       ----

> <Gold.Chemscore.Fitness>
17.6042

> <Gold.Chemscore.DG>
-19.6535

> <Gold.Chemscore.ZeroCoef>
-5.4800

> <Gold.Chemscore.Hbond>
1.8760

> <Gold.Chemscore.Metal>
0.0000

> <Gold.Chemscore.Lipo>
105.1654

> <Gold.Chemscore.Internal_Hbond>
0.0000

> <Gold.Chemscore.DEClash>
0.0588

> <Gold.Chemscore.DEInternal>
1.9905

> <Gold.Chemscore.Rot>
1.7174

> <Gold.Chemscore.Internal.Correction>
   9.000000E+99

> <Gold.Chemscore.Hbonds>
donor molecule, donor type, donor heavy atom, donor atom, acceptor molecule, acceptor atom, score
      L1  H     8    31       P1  7948  0.96
      P1  H  7989  7998       L1    23  0.54

> <Gold.Chemscore.Hbond.Weighted>
-6.2657

> <Gold.Chemscore.Metal.Weighted>
-0.0000

> <Gold.Chemscore.Lipo.Weighted>
-12.3044

> <Gold.Chemscore.Internal_Hbond.Weighted>
0.0000

> <Gold.Chemscore.DEClash.Weighted>
0.0588

> <Gold.Chemscore.DEInternal.Weighted>
1.9905

> <Gold.Chemscore.Rot.Weighted>
4.3966

> <Gold.Chemscore.Internal.Correction.Weighted>
   9.000000E+99

> <Gold.Protein.RotatedTorsions>
[ 6907 6896 6895 6894 ] final  -13.82 input  -60.11 | X-H torsion
[ 7974 7965 7964 7962 ] final  -96.09 input  175.53 | X-H torsion
[ 8008 7997 7996 7995 ] final  139.04 input   59.86 | X-H torsion
[ 10167 10162 10161 10158 ] final -118.90 input  -65.29 | X-H torsion
[ 10718 10713 10712 10709 ] final    0.09 input   66.30 | X-H torsion
[ 10763 10752 10751 10750 ] final   34.14 input  -60.55 | X-H torsion
[ 11005 11000 10999 10996 ] final   84.51 input  -57.11 | X-H torsion

> <Gold.Protein.ActiveResidues>
 VAL166  LYS551  ARG553  GLY616  TRP617  ASP618  TYR619  PRO620  LYS621  CYS622 
 ASP623  PHE694  ASN695  SER759  ASP760  ASP761  ALA762  ILE779  LEU786  VAL792 
 PHE793  MET794  SER795  GLU796  ALA797  LYS798  CYS799  TRP800  GLU811  SER814 

> <Gold.Protein.RotatedAtoms>
  151.3490  135.0880  159.9396 H   0  0  0  0  0  0  0  0  0  0  0  0  # atno 6907 bound_to 6896
  152.5192  133.9371  159.7619 H   0  0  0  0  0  0  0  0  0  0  0  0  # atno 6908 bound_to 6896
  150.9743  133.6258  159.2762 H   0  0  0  0  0  0  0  0  0  0  0  0  # atno 6909 bound_to 6896
  145.3515  140.9477  143.2551 H   0  0  0  0  0  0  0  0  0  0  0  0  # atno 7974 bound_to 7965
  156.2993  140.2378  156.4173 H   0  0  0  0  0  0  0  0  0  0  0  0  # atno 8008 bound_to 7997
  154.8387  140.0429  157.1547 H   0  0  0  0  0  0  0  0  0  0  0  0  # atno 8009 bound_to 7997
  154.9127  140.2992  155.5261 H   0  0  0  0  0  0  0  0  0  0  0  0  # atno 8010 bound_to 7997
  140.0525  143.5046  152.2074 H   0  0  0  0  0  0  0  0  0  0  0  0  # atno 10167 bound_to 10162
  156.8283  130.5480  149.5689 H   0  0  0  0  0  0  0  0  0  0  0  0  # atno 10718 bound_to 10713
  153.0178  135.6368  154.1622 H   0  0  0  0  0  0  0  0  0  0  0  0  # atno 10763 bound_to 10752
  154.1359  135.2837  155.3175 H   0  0  0  0  0  0  0  0  0  0  0  0  # atno 10764 bound_to 10752
  154.6160  135.5540  153.7585 H   0  0  0  0  0  0  0  0  0  0  0  0  # atno 10765 bound_to 10752
  139.8998  134.8222  156.2455 H   0  0  0  0  0  0  0  0  0  0  0  0  # atno 11005 bound_to 11000
  144.8714  139.5033  143.6766 LP  0  0  0  0  0  0  0  0  0  0  0  0  # atno 17320 bound_to 7965
  146.2966  139.7296  142.9122 LP  0  0  0  0  0  0  0  0  0  0  0  0  # atno 17321 bound_to 7965
  139.5944  144.7562  151.3321 LP  0  0  0  0  0  0  0  0  0  0  0  0  # atno 17342 bound_to 10162
  140.7210  143.7135  150.7751 LP  0  0  0  0  0  0  0  0  0  0  0  0  # atno 17343 bound_to 10162
  156.0949  130.5924  150.9796 LP  0  0  0  0  0  0  0  0  0  0  0  0  # atno 17370 bound_to 10713
  157.6420  131.0909  150.8231 LP  0  0  0  0  0  0  0  0  0  0  0  0  # atno 17371 bound_to 10713
  141.0257  133.7016  156.1344 LP  0  0  0  0  0  0  0  0  0  0  0  0  # atno 17394 bound_to 11000
  140.7169  134.4400  157.5578 LP  0  0  0  0  0  0  0  0  0  0  0  0  # atno 17395 bound_to 11000

$$$$
