AV-unprocessed.smi:1788|AV-procd|sdf|7212|dock3
  -GOLD-   22720 8453D 1   1.00000     0.00000
 Structure written by MMmdl.
 55 57  0  0  0  0  0  0  0  0  2 V2000
  145.7152  129.8582  151.3879 C   0  0  0  0  0  0  0  0  0  0  0  0
  145.3121  131.1180  152.1739 C   0  0  2  0  0  0  0  0  0  0  0  0
  144.8140  132.2529  151.2606 C   0  0  0  0  0  0  0  0  0  0  0  0
  145.9799  132.9189  150.5178 C   0  0  0  0  0  0  0  0  0  0  0  0
  147.0618  133.3861  151.5028 C   0  0  0  0  0  0  0  0  0  0  0  0
  147.5463  132.2607  152.3427 N   0  3  1  0  0  0  0  0  0  0  0  0
  148.6920  132.6561  153.2034 C   0  0  0  0  0  0  0  0  0  0  0  0
  148.2969  133.6001  154.3561 C   0  0  0  0  0  0  0  0  0  0  0  0
  148.8509  134.9405  154.1784 N   0  0  0  0  0  0  0  0  0  0  0  0
  149.1493  135.7936  155.1685 C   0  0  0  0  0  0  0  0  0  0  0  0
  148.9566  135.5433  156.3571 O   0  0  0  0  0  0  0  0  0  0  0  0
  149.7093  136.9180  154.6921 N   0  0  0  0  0  0  0  0  0  0  0  0
  150.2034  138.0317  155.4232 C   0  0  0  0  0  0  0  0  0  0  0  0
  150.8757  139.0453  154.7138 C   0  0  0  0  0  0  0  0  0  0  0  0
  151.3595  140.1689  155.4100 C   0  0  0  0  0  0  0  0  0  0  0  0
  151.1483  140.2603  156.8060 C   0  0  0  0  0  0  0  0  0  0  0  0
  151.6180  141.3818  157.5246 N   0  0  0  0  0  0  0  0  0  0  0  0
  151.0463  142.6670  157.1291 C   0  0  0  0  0  0  0  0  0  0  0  0
  151.8351  143.8254  157.7645 C   0  0  0  0  0  0  0  0  0  0  0  0
  151.8895  143.6562  159.1770 O   0  0  0  0  0  0  0  0  0  0  0  0
  152.5549  142.4511  159.5391 C   0  0  0  0  0  0  0  0  0  0  0  0
  151.7878  141.2452  158.9705 C   0  0  0  0  0  0  0  0  0  0  0  0
  150.4958  139.2864  157.4871 N   0  0  0  0  0  0  0  0  0  0  0  0
  150.0328  138.2106  156.8165 C   0  0  0  0  0  0  0  0  0  0  0  0
  146.4380  131.6218  153.1034 C   0  0  0  0  0  0  0  0  0  0  0  0
  146.5842  130.0320  150.7530 H   0  0  0  0  0  0  0  0  0  0  0  0
  144.9000  129.5173  150.7489 H   0  0  0  0  0  0  0  0  0  0  0  0
  145.9599  129.0386  152.0641 H   0  0  0  0  0  0  0  0  0  0  0  0
  144.4746  130.8243  152.8082 H   0  0  0  0  0  0  0  0  0  0  0  0
  144.0751  131.8792  150.5510 H   0  0  0  0  0  0  0  0  0  0  0  0
  144.3029  133.0029  151.8658 H   0  0  0  0  0  0  0  0  0  0  0  0
  146.4119  132.2224  149.7984 H   0  0  0  0  0  0  0  0  0  0  0  0
  145.6138  133.7676  149.9395 H   0  0  0  0  0  0  0  0  0  0  0  0
  147.8932  133.8112  150.9389 H   0  0  0  0  0  0  0  0  0  0  0  0
  146.6732  134.1795  152.1436 H   0  0  0  0  0  0  0  0  0  0  0  0
  149.1279  131.7609  153.6496 H   0  0  0  0  0  0  0  0  0  0  0  0
  149.4789  133.1032  152.5942 H   0  0  0  0  0  0  0  0  0  0  0  0
  147.2109  133.6888  154.3914 H   0  0  0  0  0  0  0  0  0  0  0  0
  148.5882  133.1774  155.3187 H   0  0  0  0  0  0  0  0  0  0  0  0
  149.0344  135.2338  153.2295 H   0  0  0  0  0  0  0  0  0  0  0  0
  149.8693  136.9501  153.6957 H   0  0  0  0  0  0  0  0  0  0  0  0
  151.0287  138.9629  153.6475 H   0  0  0  0  0  0  0  0  0  0  0  0
  151.8936  140.9361  154.8697 H   0  0  0  0  0  0  0  0  0  0  0  0
  151.0441  142.7933  156.0474 H   0  0  0  0  0  0  0  0  0  0  0  0
  150.0056  142.7028  157.4543 H   0  0  0  0  0  0  0  0  0  0  0  0
  152.8453  143.8785  157.3550 H   0  0  0  0  0  0  0  0  0  0  0  0
  151.3509  144.7758  157.5401 H   0  0  0  0  0  0  0  0  0  0  0  0
  153.5835  142.4664  159.1744 H   0  0  0  0  0  0  0  0  0  0  0  0
  152.6039  142.3859  160.6261 H   0  0  0  0  0  0  0  0  0  0  0  0
  150.8076  141.1711  159.4435 H   0  0  0  0  0  0  0  0  0  0  0  0
  152.3332  140.3292  159.2018 H   0  0  0  0  0  0  0  0  0  0  0  0
  149.4981  137.4979  157.4245 H   0  0  0  0  0  0  0  0  0  0  0  0
  146.0308  132.3476  153.8095 H   0  0  0  0  0  0  0  0  0  0  0  0
  146.8156  130.7913  153.6996 H   0  0  0  0  0  0  0  0  0  0  0  0
  147.8996  131.5638  151.7023 H   0  0  0  0  0  0  0  0  0  0  0  0
  1  2  1  0  0  0  0
  1 26  1  0  0  0  0
  1 27  1  0  0  0  0
  1 28  1  0  0  0  0
  2 25  1  0  0  0  0
  2  3  1  0  0  0  0
  2 29  1  0  0  0  0
  3  4  1  0  0  0  0
  3 30  1  0  0  0  0
  3 31  1  0  0  0  0
  4  5  1  0  0  0  0
  4 32  1  0  0  0  0
  4 33  1  0  0  0  0
  5  6  1  0  0  0  0
  5 34  1  0  0  0  0
  5 35  1  0  0  0  0
  6  7  1  0  0  0  0
  6 25  1  0  0  0  0
  6 55  1  0  0  0  0
  7  8  1  0  0  0  0
  7 36  1  0  0  0  0
  7 37  1  0  0  0  0
  8  9  1  0  0  0  0
  8 38  1  0  0  0  0
  8 39  1  0  0  0  0
  9 10  1  0  0  0  0
  9 40  1  0  0  0  0
 10 11  2  0  0  0  0
 10 12  1  0  0  0  0
 12 13  1  0  0  0  0
 12 41  1  0  0  0  0
 13 24  1  0  0  0  0
 13 14  2  0  0  0  0
 14 15  1  0  0  0  0
 14 42  1  0  0  0  0
 15 16  2  0  0  0  0
 15 43  1  0  0  0  0
 16 17  1  0  0  0  0
 16 23  1  0  0  0  0
 17 22  1  0  0  0  0
 17 18  1  0  0  0  0
 18 19  1  0  0  0  0
 18 44  1  0  0  0  0
 18 45  1  0  0  0  0
 19 20  1  0  0  0  0
 19 46  1  0  0  0  0
 19 47  1  0  0  0  0
 20 21  1  0  0  0  0
 21 22  1  0  0  0  0
 21 48  1  0  0  0  0
 21 49  1  0  0  0  0
 22 50  1  0  0  0  0
 22 51  1  0  0  0  0
 23 24  2  0  0  0  0
 24 52  1  0  0  0  0
 25 53  1  0  0  0  0
 25 54  1  0  0  0  0
M  CHG  1   6   1
M  END
> <s_m_source_file>
AV-unprocessed.smi

> <i_m_source_file_index>
1788

> <i_lp_mmshare_version>
43012

> <i_f3d_flags>
0

> <s_epik_input>
W0NIM11bQ0BASF0xW0NIMl1bQ0gyXVtDSDJdTihbQ0gyXTEpW0NIMl1bQ0gyXVtOSF1DKD1PKVtOSF1jMltjSF1bY0hdYyhuW2NIXTIpTjNbQ0gyXVtDSDJdT1tDSDJdW0NIMl0z

> <s_epik_cmdline>
J2VwaWtfcHl0aG9uJywgJy1waCcsICc3LjAnLCAnLXRuJywgJzgnLCAnLW1hJywgJzIwMCcsICctbWV0YWxfYmluZGluZycsICctaW1hZScsICc8aW5maWxlLm1hZT4nLCAnLW9tYWUnLCAnPG91dGZpbGUubWFlPic=

> <r_lp_tautomer_probability>
1

> <r_epik_Ionization_Penalty>
0.00340126

> <r_epik_Ionization_Penalty_Charging>
0.00171832

> <r_epik_Ionization_Penalty_Neutral>
0.00168294

> <r_epik_State_Penalty>
-0

> <r_epik_Charging_Adjusted_Penalty>
0.00171832

> <i_epik_Tot_Q>
1

> <i_epik_Tot_abs_Q>
1

> <r_epik_Metal_State_Penalty>
-0

> <b_epik_Metal_Only>
0

> <s_lp_Force_Field>
OPLS_2005

> <r_lp_Energy>
41.5568

> <b_lp_Chiralities_Consistent>
1

> <s_lp_Variant>
AV-unprocessed.smi:1788-3

> <Gold.Version>
5.8.1

> <Gold.Id.Protein>
6NUR|6NUR_protein|mol2

> <Gold.PLP.Fitness>
50.2879

> <Gold.PLP.PLP>
-43.7215

> <Gold.PLP.part.hbond>
-3.0000

> <Gold.PLP.part.metal>
0.0000

> <Gold.PLP.part.buried>
-5.8654

> <Gold.PLP.part.nonpolar>
-35.9237

> <Gold.PLP.part.repulsive>
0.0752

> <Gold.PLP.ligand.clash>
0.0000

> <Gold.PLP.ligand.torsion>
0.8760

> <Gold.PLP.Chemscore.Hbond>
2.6354

> <Gold.PLP.Chemscore.CHOScore>
0.0000

> <Gold.PLP.Chemscore.Metal>
0.0000

> <Gold.Chemscore.Hbonds>
donor molecule, donor type, donor heavy atom, donor atom, acceptor molecule, acceptor atom, score
      L1  H     6    55       P1 10747  1.00
      L1  H     9    40       P1  7948  1.00
      L1  H    12    41       P1  7948  0.60

> <Gold.PLP.Chemscore.Internal.Correction>
0.4120

> <Gold.Rescore>
     Score         DG    S(hbond)    S(metal)    S(lipo)     H(rot)  DE(clash)    DE(int)     intcor
     19.89     -22.50       2.19        0.00     117.95       1.60       0.47       2.15       ----

> <Gold.Chemscore.Fitness>
19.8873

> <Gold.Chemscore.DG>
-22.5029

> <Gold.Chemscore.ZeroCoef>
-5.4800

> <Gold.Chemscore.Hbond>
2.1896

> <Gold.Chemscore.Metal>
0.0000

> <Gold.Chemscore.Lipo>
117.9457

> <Gold.Chemscore.Internal_Hbond>
0.0000

> <Gold.Chemscore.DEClash>
0.4662

> <Gold.Chemscore.DEInternal>
2.1494

> <Gold.Chemscore.Rot>
1.5976

> <Gold.Chemscore.Internal.Correction>
   9.000000E+99

> <Gold.Chemscore.Hbonds>
donor molecule, donor type, donor heavy atom, donor atom, acceptor molecule, acceptor atom, score
      L1  H     6    55       P1 10747  0.99
      L1  H     9    40       P1  7948  0.34
      L1  H    12    41       P1  7948  0.29

> <Gold.Chemscore.Hbond.Weighted>
-7.3132

> <Gold.Chemscore.Metal.Weighted>
-0.0000

> <Gold.Chemscore.Lipo.Weighted>
-13.7996

> <Gold.Chemscore.Internal_Hbond.Weighted>
0.0000

> <Gold.Chemscore.DEClash.Weighted>
0.4662

> <Gold.Chemscore.DEInternal.Weighted>
2.1494

> <Gold.Chemscore.Rot.Weighted>
4.0899

> <Gold.Chemscore.Internal.Correction.Weighted>
   9.000000E+99

> <Gold.Protein.RotatedTorsions>
[ 6907 6896 6895 6894 ] final   86.67 input  -60.11 | X-H torsion
[ 7974 7965 7964 7962 ] final -105.99 input  175.53 | X-H torsion
[ 8008 7997 7996 7995 ] final  -92.65 input   59.86 | X-H torsion
[ 10167 10162 10161 10158 ] final  103.88 input  -65.29 | X-H torsion
[ 10718 10713 10712 10709 ] final   42.58 input   66.30 | X-H torsion
[ 10763 10752 10751 10750 ] final   25.82 input  -60.55 | X-H torsion
[ 11005 11000 10999 10996 ] final -120.74 input  -57.11 | X-H torsion

> <Gold.Protein.ActiveResidues>
 VAL166  LYS551  ARG553  GLY616  TRP617  ASP618  TYR619  PRO620  LYS621  CYS622 
 ASP623  PHE694  ASN695  SER759  ASP760  ASP761  ALA762  ILE779  LEU786  VAL792 
 PHE793  MET794  SER795  GLU796  ALA797  LYS798  CYS799  TRP800  GLU811  SER814 

> <Gold.Protein.RotatedAtoms>
  152.5398  134.2395  159.8856 H   0  0  0  0  0  0  0  0  0  0  0  0  # atno 6907 bound_to 6896
  151.2363  133.4417  159.2613 H   0  0  0  0  0  0  0  0  0  0  0  0  # atno 6908 bound_to 6896
  151.0668  134.9786  159.8345 H   0  0  0  0  0  0  0  0  0  0  0  0  # atno 6909 bound_to 6896
  145.2234  140.9143  143.3246 H   0  0  0  0  0  0  0  0  0  0  0  0  # atno 7974 bound_to 7965
  154.7258  140.0507  157.0681 H   0  0  0  0  0  0  0  0  0  0  0  0  # atno 8008 bound_to 7997
  155.0367  140.3164  155.4720 H   0  0  0  0  0  0  0  0  0  0  0  0  # atno 8009 bound_to 7997
  156.2828  140.2140  156.5490 H   0  0  0  0  0  0  0  0  0  0  0  0  # atno 8010 bound_to 7997
  139.7225  144.7055  151.0850 H   0  0  0  0  0  0  0  0  0  0  0  0  # atno 10167 bound_to 10162
  157.4064  130.7889  149.7392 H   0  0  0  0  0  0  0  0  0  0  0  0  # atno 10718 bound_to 10713
  153.0665  135.6574  154.0342 H   0  0  0  0  0  0  0  0  0  0  0  0  # atno 10763 bound_to 10752
  153.9998  135.2938  155.3405 H   0  0  0  0  0  0  0  0  0  0  0  0  # atno 10764 bound_to 10752
  154.7025  135.5239  153.8616 H   0  0  0  0  0  0  0  0  0  0  0  0  # atno 10765 bound_to 10752
  141.0121  134.0249  157.3399 H   0  0  0  0  0  0  0  0  0  0  0  0  # atno 11005 bound_to 11000
  144.9744  139.3847  143.6293 LP  0  0  0  0  0  0  0  0  0  0  0  0  # atno 17320 bound_to 7965
  146.3370  139.8856  142.8817 LP  0  0  0  0  0  0  0  0  0  0  0  0  # atno 17321 bound_to 7965
  140.7756  143.5148  150.9608 LP  0  0  0  0  0  0  0  0  0  0  0  0  # atno 17342 bound_to 10162
  139.8835  143.7042  152.3154 LP  0  0  0  0  0  0  0  0  0  0  0  0  # atno 17343 bound_to 10162
  155.9838  130.3997  150.3346 LP  0  0  0  0  0  0  0  0  0  0  0  0  # atno 17370 bound_to 10713
  157.1479  131.0313  151.2898 LP  0  0  0  0  0  0  0  0  0  0  0  0  # atno 17371 bound_to 10713
  139.9096  135.0187  156.7635 LP  0  0  0  0  0  0  0  0  0  0  0  0  # atno 17394 bound_to 11000
  140.6715  133.9555  155.7859 LP  0  0  0  0  0  0  0  0  0  0  0  0  # atno 17395 bound_to 11000

$$$$
