AV-unprocessed.smi:1767|AV-procd|sdf|7141|dock8
  -GOLD-   22720 8383D 1   1.00000     0.00000
 Structure written by MMmdl.
 33 35  0  0  0  0  0  0  0  0  2 V2000
  152.7905  139.4098  157.0068 O   0  0  0  0  0  0  0  0  0  0  0  0
  151.6295  140.1646  157.2860 C   0  0  2  0  0  0  0  0  0  0  0  0
  151.2035  140.8877  155.9920 C   0  0  0  0  0  0  0  0  0  0  0  0
  150.4352  140.0187  155.0888 N   0  0  0  0  0  0  0  0  0  0  0  0
  150.7375  138.7790  154.6160 C   0  0  0  0  0  0  0  0  0  0  0  0
  149.7034  138.3751  153.8276 N   0  3  0  0  0  0  0  0  0  0  0  0
  148.7259  139.3715  153.7937 C   0  0  0  0  0  0  0  0  0  0  0  0
  147.4995  139.4206  153.1381 C   0  0  0  0  0  0  0  0  0  0  0  0
  146.7331  140.5913  153.3156 C   0  0  0  0  0  0  0  0  0  0  0  0
  147.1936  141.6559  154.1170 C   0  0  0  0  0  0  0  0  0  0  0  0
  148.4396  141.5960  154.7745 C   0  0  0  0  0  0  0  0  0  0  0  0
  149.1911  140.4341  154.5975 C   0  0  0  0  0  0  0  0  0  0  0  0
  151.8289  141.1239  158.4519 C   0  0  0  0  0  0  0  0  0  0  0  0
  152.4936  140.6841  159.6170 C   0  0  0  0  0  0  0  0  0  0  0  0
  152.6546  141.5520  160.7142 C   0  0  0  0  0  0  0  0  0  0  0  0
  152.1540  142.8665  160.6522 C   0  0  0  0  0  0  0  0  0  0  0  0
  152.3047  143.6990  161.7091 F   0  0  0  0  0  0  0  0  0  0  0  0
  151.4940  143.3132  159.4915 C   0  0  0  0  0  0  0  0  0  0  0  0
  151.3312  142.4450  158.3944 C   0  0  0  0  0  0  0  0  0  0  0  0
  152.5852  138.7818  156.3308 H   0  0  0  0  0  0  0  0  0  0  0  0
  150.8558  139.4452  157.5584 H   0  0  0  0  0  0  0  0  0  0  0  0
  150.6359  141.7939  156.2046 H   0  0  0  0  0  0  0  0  0  0  0  0
  152.0882  141.2060  155.4383 H   0  0  0  0  0  0  0  0  0  0  0  0
  151.6332  138.2147  154.8329 H   0  0  0  0  0  0  0  0  0  0  0  0
  147.1440  138.6061  152.5242 H   0  0  0  0  0  0  0  0  0  0  0  0
  145.7727  140.6739  152.8277 H   0  0  0  0  0  0  0  0  0  0  0  0
  146.5782  142.5367  154.2311 H   0  0  0  0  0  0  0  0  0  0  0  0
  148.7778  142.4174  155.3883 H   0  0  0  0  0  0  0  0  0  0  0  0
  152.8728  139.6744  159.6776 H   0  0  0  0  0  0  0  0  0  0  0  0
  153.1601  141.2083  161.6047 H   0  0  0  0  0  0  0  0  0  0  0  0
  151.1091  144.3213  159.4436 H   0  0  0  0  0  0  0  0  0  0  0  0
  150.8136  142.7940  157.5131 H   0  0  0  0  0  0  0  0  0  0  0  0
  149.6694  137.4833  153.3501 H   0  0  0  0  0  0  0  0  0  0  0  0
  1  2  1  0  0  0  0
  1 20  1  0  0  0  0
  2  3  1  0  0  0  0
  2 13  1  0  0  0  0
  2 21  1  0  0  0  0
  3  4  1  0  0  0  0
  3 22  1  0  0  0  0
  3 23  1  0  0  0  0
  4 12  1  0  0  0  0
  4  5  1  0  0  0  0
  5  6  2  0  0  0  0
  5 24  1  0  0  0  0
  6  7  1  0  0  0  0
  6 33  1  0  0  0  0
  7 12  2  0  0  0  0
  7  8  1  0  0  0  0
  8  9  2  0  0  0  0
  8 25  1  0  0  0  0
  9 10  1  0  0  0  0
  9 26  1  0  0  0  0
 10 11  2  0  0  0  0
 10 27  1  0  0  0  0
 11 12  1  0  0  0  0
 11 28  1  0  0  0  0
 13 19  1  0  0  0  0
 13 14  2  0  0  0  0
 14 15  1  0  0  0  0
 14 29  1  0  0  0  0
 15 16  2  0  0  0  0
 15 30  1  0  0  0  0
 16 17  1  0  0  0  0
 16 18  1  0  0  0  0
 18 19  2  0  0  0  0
 18 31  1  0  0  0  0
 19 32  1  0  0  0  0
M  CHG  1   6   1
M  END
> <s_m_source_file>
AV-unprocessed.smi

> <i_m_source_file_index>
1767

> <i_lp_mmshare_version>
43012

> <i_f3d_flags>
0

> <s_epik_input>
W2NIXTFbY0hdYyhGKVtjSF1bY0hdYzFbQ0BIXShbT0hdKVtDSDJdbihbY0hdbjIpYyhjMjMpW2NIXVtjSF1bY0hdW2NIXTM=

> <s_epik_cmdline>
J2VwaWtfcHl0aG9uJywgJy1waCcsICc3LjAnLCAnLXRuJywgJzgnLCAnLW1hJywgJzIwMCcsICctbWV0YWxfYmluZGluZycsICctaW1hZScsICc8aW5maWxlLm1hZT4nLCAnLW9tYWUnLCAnPG91dGZpbGUubWFlPic=

> <r_epik_Ionization_Penalty>
1.3029

> <r_epik_Ionization_Penalty_Charging>
1.3029

> <r_epik_Ionization_Penalty_Neutral>
1.79538e-06

> <r_epik_State_Penalty>
1.377

> <r_epik_Charging_Adjusted_Penalty>
2.6799

> <i_epik_Tot_Q>
1

> <i_epik_Tot_abs_Q>
1

> <r_epik_Metal_State_Penalty>
5.40879

> <b_epik_Metal_Only>
0

> <s_lp_Force_Field>
OPLS_2005

> <r_lp_Energy>
17.7516

> <b_lp_Chiralities_Consistent>
1

> <s_lp_Variant>
AV-unprocessed.smi:1767-3

> <Gold.Version>
5.8.1

> <Gold.Id.Protein>
6NUR|6NUR_protein|mol2

> <Gold.PLP.Fitness>
52.1903

> <Gold.PLP.PLP>
-44.6159

> <Gold.PLP.part.hbond>
-2.6860

> <Gold.PLP.part.metal>
0.0000

> <Gold.PLP.part.buried>
2.0614

> <Gold.PLP.part.nonpolar>
-43.4922

> <Gold.PLP.part.repulsive>
0.0565

> <Gold.PLP.ligand.clash>
0.0000

> <Gold.PLP.ligand.torsion>
0.7202

> <Gold.PLP.Chemscore.Hbond>
3.0000

> <Gold.PLP.Chemscore.CHOScore>
0.0000

> <Gold.PLP.Chemscore.Metal>
0.0000

> <Gold.Chemscore.Hbonds>
donor molecule, donor type, donor heavy atom, donor atom, acceptor molecule, acceptor atom, score
      L1  H     6    33       P1  7948  1.98
      P1  H  7997  8009       L1     1  1.00

> <Gold.PLP.Chemscore.Internal.Correction>
0.0148

> <Gold.Rescore>
     Score         DG    S(hbond)    S(metal)    S(lipo)     H(rot)  DE(clash)    DE(int)     intcor
     17.52     -18.91       1.85        0.00     104.96       1.97       1.04       0.34       ----

> <Gold.Chemscore.Fitness>
17.5215

> <Gold.Chemscore.DG>
-18.9094

> <Gold.Chemscore.ZeroCoef>
-5.4800

> <Gold.Chemscore.Hbond>
1.8522

> <Gold.Chemscore.Metal>
0.0000

> <Gold.Chemscore.Lipo>
104.9587

> <Gold.Chemscore.Internal_Hbond>
0.0000

> <Gold.Chemscore.DEClash>
1.0445

> <Gold.Chemscore.DEInternal>
0.3434

> <Gold.Chemscore.Rot>
1.9677

> <Gold.Chemscore.Internal.Correction>
   9.000000E+99

> <Gold.Chemscore.Hbonds>
donor molecule, donor type, donor heavy atom, donor atom, acceptor molecule, acceptor atom, score
      L1  H     6    33       P1  7948  0.70
      P1  H  7997  8009       L1     1  0.34

> <Gold.Chemscore.Hbond.Weighted>
-6.1864

> <Gold.Chemscore.Metal.Weighted>
-0.0000

> <Gold.Chemscore.Lipo.Weighted>
-12.2802

> <Gold.Chemscore.Internal_Hbond.Weighted>
0.0000

> <Gold.Chemscore.DEClash.Weighted>
1.0445

> <Gold.Chemscore.DEInternal.Weighted>
0.3434

> <Gold.Chemscore.Rot.Weighted>
5.0372

> <Gold.Chemscore.Internal.Correction.Weighted>
   9.000000E+99

> <Gold.Protein.RotatedTorsions>
[ 6907 6896 6895 6894 ] final -109.81 input  -60.11 | X-H torsion
[ 7974 7965 7964 7962 ] final  166.63 input  175.53 | X-H torsion
[ 8008 7997 7996 7995 ] final -165.79 input   59.86 | X-H torsion
[ 10167 10162 10161 10158 ] final -149.46 input  -65.29 | X-H torsion
[ 10718 10713 10712 10709 ] final  -39.60 input   66.30 | X-H torsion
[ 10763 10752 10751 10750 ] final   85.90 input  -60.55 | X-H torsion
[ 11005 11000 10999 10996 ] final -160.70 input  -57.11 | X-H torsion

> <Gold.Protein.ActiveResidues>
 VAL166  LYS551  ARG553  GLY616  TRP617  ASP618  TYR619  PRO620  LYS621  CYS622 
 ASP623  PHE694  ASN695  SER759  ASP760  ASP761  ALA762  ILE779  LEU786  VAL792 
 PHE793  MET794  SER795  GLU796  ALA797  LYS798  CYS799  TRP800  GLU811  SER814 

> <Gold.Protein.RotatedAtoms>
  150.7585  133.9474  159.3474 H   0  0  0  0  0  0  0  0  0  0  0  0  # atno 6907 bound_to 6896
  151.7388  135.0857  160.0322 H   0  0  0  0  0  0  0  0  0  0  0  0  # atno 6908 bound_to 6896
  152.3542  133.6179  159.6003 H   0  0  0  0  0  0  0  0  0  0  0  0  # atno 6909 bound_to 6896
  144.7455  139.8643  143.6383 H   0  0  0  0  0  0  0  0  0  0  0  0  # atno 7974 bound_to 7965
  155.8548  140.0969  157.1651 H   0  0  0  0  0  0  0  0  0  0  0  0  # atno 8008 bound_to 7997
  154.3987  140.1376  156.3950 H   0  0  0  0  0  0  0  0  0  0  0  0  # atno 8009 bound_to 7997
  155.7921  140.3455  155.5358 H   0  0  0  0  0  0  0  0  0  0  0  0  # atno 8010 bound_to 7997
  139.7441  143.8618  152.2570 H   0  0  0  0  0  0  0  0  0  0  0  0  # atno 10167 bound_to 10162
  156.2906  130.4228  149.8242 H   0  0  0  0  0  0  0  0  0  0  0  0  # atno 10718 bound_to 10713
  153.1519  135.4600  154.9649 H   0  0  0  0  0  0  0  0  0  0  0  0  # atno 10763 bound_to 10752
  154.7831  135.3195  154.7948 H   0  0  0  0  0  0  0  0  0  0  0  0  # atno 10764 bound_to 10752
  153.8452  135.6926  153.4853 H   0  0  0  0  0  0  0  0  0  0  0  0  # atno 10765 bound_to 10752
  140.6286  134.4675  157.5228 H   0  0  0  0  0  0  0  0  0  0  0  0  # atno 11005 bound_to 11000
  146.1326  139.4364  143.0159 LP  0  0  0  0  0  0  0  0  0  0  0  0  # atno 17320 bound_to 7965
  145.7140  141.0097  143.1438 LP  0  0  0  0  0  0  0  0  0  0  0  0  # atno 17321 bound_to 7965
  139.8577  144.7133  150.9137 LP  0  0  0  0  0  0  0  0  0  0  0  0  # atno 17342 bound_to 10162
  140.7790  143.3844  151.1419 LP  0  0  0  0  0  0  0  0  0  0  0  0  # atno 17343 bound_to 10162
  156.5656  130.8402  151.3342 LP  0  0  0  0  0  0  0  0  0  0  0  0  # atno 17370 bound_to 10713
  157.7341  130.9741  150.2013 LP  0  0  0  0  0  0  0  0  0  0  0  0  # atno 17371 bound_to 10713
  139.9125  134.8315  156.1480 LP  0  0  0  0  0  0  0  0  0  0  0  0  # atno 17394 bound_to 11000
  141.0691  133.6805  156.2104 LP  0  0  0  0  0  0  0  0  0  0  0  0  # atno 17395 bound_to 11000

$$$$
