AV-unprocessed.smi:2142|AV-procd|sdf|8721|dock5
  -GOLD-   2272011493D 1   1.00000     0.00000
 Structure written by MMmdl.
 39 40  0  0  0  0  0  0  0  0  2 V2000
  153.5002  133.2012  165.6776 C   0  0  0  0  0  0  0  0  0  0  0  0
  154.0038  134.1635  164.7678 O   0  0  0  0  0  0  0  0  0  0  0  0
  154.8363  133.5882  163.7744 C   0  0  0  0  0  0  0  0  0  0  0  0
  155.3205  134.6856  162.8219 C   0  0  0  0  0  0  0  0  0  0  0  0
  154.3636  134.8477  161.7791 O   0  0  0  0  0  0  0  0  0  0  0  0
  154.2886  136.0681  161.1389 C   0  0  0  0  0  0  0  0  0  0  0  0
  154.9057  137.1825  161.7383 C   0  0  0  0  0  0  0  0  0  0  0  0
  154.8231  138.4298  161.0910 C   0  0  0  0  0  0  0  0  0  0  0  0
  154.1274  138.5404  159.8670 C   0  0  0  0  0  0  0  0  0  0  0  0
  154.0250  139.7121  159.2199 N   0  5  0  0  0  0  0  0  0  0  0  0
  154.2902  140.8804  159.8644 C   0  0  0  0  0  0  0  0  0  0  0  0
  155.3392  141.1170  160.4687 O   0  0  0  0  0  0  0  0  0  0  0  0
  153.2701  141.9679  159.8716 C   0  0  0  0  0  0  0  0  0  0  0  0
  152.5965  142.2215  158.7933 N   0  0  0  0  0  0  0  0  0  0  0  0
  151.6247  143.1997  158.7453 N   0  0  0  0  0  0  0  0  0  0  0  0
  150.7821  143.1679  157.5518 C   0  0  0  0  0  0  0  0  0  0  0  0
  151.4451  144.1543  159.6912 C   0  0  0  0  0  0  0  0  0  0  0  0
  150.5618  145.0104  159.6406 O   0  0  0  0  0  0  0  0  0  0  0  0
  152.4362  144.1538  160.8576 C   0  0  0  0  0  0  0  0  0  0  0  0
  152.9972  142.7475  161.1459 C   0  0  0  0  0  0  0  0  0  0  0  0
  153.5538  137.3553  159.3527 C   0  0  0  0  0  0  0  0  0  0  0  0
  153.6240  136.1521  159.9613 N   0  0  0  0  0  0  0  0  0  0  0  0
  152.8641  133.6914  166.4145 H   0  0  0  0  0  0  0  0  0  0  0  0
  154.3097  132.7008  166.2108 H   0  0  0  0  0  0  0  0  0  0  0  0
  152.9013  132.4481  165.1636 H   0  0  0  0  0  0  0  0  0  0  0  0
  155.6970  133.1216  164.2556 H   0  0  0  0  0  0  0  0  0  0  0  0
  154.3074  132.8095  163.2226 H   0  0  0  0  0  0  0  0  0  0  0  0
  155.4767  135.6178  163.3671 H   0  0  0  0  0  0  0  0  0  0  0  0
  156.2768  134.3842  162.3913 H   0  0  0  0  0  0  0  0  0  0  0  0
  155.4297  137.0847  162.6772 H   0  0  0  0  0  0  0  0  0  0  0  0
  155.2881  139.2975  161.5362 H   0  0  0  0  0  0  0  0  0  0  0  0
  150.8740  144.0992  156.9912 H   0  0  0  0  0  0  0  0  0  0  0  0
  149.7346  143.0346  157.8253 H   0  0  0  0  0  0  0  0  0  0  0  0
  151.0534  142.3508  156.8813 H   0  0  0  0  0  0  0  0  0  0  0  0
  153.2527  144.8266  160.5926 H   0  0  0  0  0  0  0  0  0  0  0  0
  151.9663  144.5658  161.7512 H   0  0  0  0  0  0  0  0  0  0  0  0
  152.2976  142.1868  161.7667 H   0  0  0  0  0  0  0  0  0  0  0  0
  153.9086  142.8607  161.7340 H   0  0  0  0  0  0  0  0  0  0  0  0
  153.0127  137.3731  158.4177 H   0  0  0  0  0  0  0  0  0  0  0  0
  1  2  1  0  0  0  0
  1 23  1  0  0  0  0
  1 24  1  0  0  0  0
  1 25  1  0  0  0  0
  2  3  1  0  0  0  0
  3  4  1  0  0  0  0
  3 26  1  0  0  0  0
  3 27  1  0  0  0  0
  4  5  1  0  0  0  0
  4 28  1  0  0  0  0
  4 29  1  0  0  0  0
  5  6  1  0  0  0  0
  6 22  1  0  0  0  0
  6  7  2  0  0  0  0
  7  8  1  0  0  0  0
  7 30  1  0  0  0  0
  8  9  2  0  0  0  0
  8 31  1  0  0  0  0
  9 10  1  0  0  0  0
  9 21  1  0  0  0  0
 10 11  1  0  0  0  0
 11 12  2  0  0  0  0
 11 13  1  0  0  0  0
 13 20  1  0  0  0  0
 13 14  2  0  0  0  0
 14 15  1  0  0  0  0
 15 16  1  0  0  0  0
 15 17  1  0  0  0  0
 16 32  1  0  0  0  0
 16 33  1  0  0  0  0
 16 34  1  0  0  0  0
 17 18  2  0  0  0  0
 17 19  1  0  0  0  0
 19 20  1  0  0  0  0
 19 35  1  0  0  0  0
 19 36  1  0  0  0  0
 20 37  1  0  0  0  0
 20 38  1  0  0  0  0
 21 22  2  0  0  0  0
 21 39  1  0  0  0  0
M  CHG  1  10  -1
M  END
> <s_m_source_file>
AV-unprocessed.smi

> <i_m_source_file_index>
2142

> <i_lp_mmshare_version>
43012

> <i_f3d_flags>
0

> <s_epik_input>
W0NIM11PW0NIMl1bQ0gyXU9jMVtjSF1bY0hdYyhbY0hdbjEpW05IXUMoPU8pQzI9Tk4oW0NIM10pQyg9TylbQ0gyXVtDSDJdMg==

> <s_epik_cmdline>
J2VwaWtfcHl0aG9uJywgJy1waCcsICc3LjAnLCAnLXRuJywgJzgnLCAnLW1hJywgJzIwMCcsICctbWV0YWxfYmluZGluZycsICctaW1hZScsICc8aW5maWxlLm1hZT4nLCAnLW9tYWUnLCAnPG91dGZpbGUubWFlPic=

> <r_lp_tautomer_probability>
1

> <r_epik_Ionization_Penalty>
5.98992

> <r_epik_Ionization_Penalty_Charging>
5.98968

> <r_epik_Ionization_Penalty_Neutral>
0.000245408

> <r_epik_State_Penalty>
5.98965

> <r_epik_Charging_Adjusted_Penalty>
11.9793

> <i_epik_Tot_Q>
-1

> <i_epik_Tot_abs_Q>
1

> <r_epik_Metal_State_Penalty>
1.94325

> <b_epik_Metal_Only>
1

> <s_epik_Chemistry_Notes>
This compound has an imine and may undergo hydrolysis.

> <s_lp_Force_Field>
OPLS_2005

> <r_lp_Energy>
19.7207

> <b_lp_Chiralities_Consistent>
1

> <s_lp_Variant>
AV-unprocessed.smi:2142-2

> <Gold.Version>
5.8.1

> <Gold.Id.Protein>
6NUR|6NUR_protein|mol2

> <Gold.PLP.Fitness>
43.1621

> <Gold.PLP.PLP>
-36.7528

> <Gold.PLP.part.hbond>
-3.0000

> <Gold.PLP.part.metal>
0.0000

> <Gold.PLP.part.buried>
-3.3212

> <Gold.PLP.part.nonpolar>
-28.8540

> <Gold.PLP.part.repulsive>
0.2337

> <Gold.PLP.ligand.clash>
0.0000

> <Gold.PLP.ligand.torsion>
1.7101

> <Gold.PLP.Chemscore.Hbond>
3.0000

> <Gold.PLP.Chemscore.CHOScore>
0.0000

> <Gold.PLP.Chemscore.Metal>
0.0000

> <Gold.Chemscore.Hbonds>
donor molecule, donor type, donor heavy atom, donor atom, acceptor molecule, acceptor atom, score
      P1  H  6896  6909       L1    22  1.00
      P1  H  7997  8009       L1    10  1.33

> <Gold.PLP.Chemscore.Internal.Correction>
0.8295

> <Gold.Rescore>
     Score         DG    S(hbond)    S(metal)    S(lipo)     H(rot)  DE(clash)    DE(int)     intcor
     11.23     -14.14       0.90        0.00      85.64       1.71       0.06       2.86       ----

> <Gold.Chemscore.Fitness>
11.2262

> <Gold.Chemscore.DG>
-14.1392

> <Gold.Chemscore.ZeroCoef>
-5.4800

> <Gold.Chemscore.Hbond>
0.9022

> <Gold.Chemscore.Metal>
0.0000

> <Gold.Chemscore.Lipo>
85.6400

> <Gold.Chemscore.Internal_Hbond>
0.0000

> <Gold.Chemscore.DEClash>
0.0579

> <Gold.Chemscore.DEInternal>
2.8551

> <Gold.Chemscore.Rot>
1.7087

> <Gold.Chemscore.Internal.Correction>
   9.000000E+99

> <Gold.Chemscore.Hbonds>
donor molecule, donor type, donor heavy atom, donor atom, acceptor molecule, acceptor atom, score
      P1  H  6896  6909       L1    22  0.50
      P1  H  7997  8009       L1    10  0.23

> <Gold.Chemscore.Hbond.Weighted>
-3.0135

> <Gold.Chemscore.Metal.Weighted>
-0.0000

> <Gold.Chemscore.Lipo.Weighted>
-10.0199

> <Gold.Chemscore.Internal_Hbond.Weighted>
0.0000

> <Gold.Chemscore.DEClash.Weighted>
0.0579

> <Gold.Chemscore.DEInternal.Weighted>
2.8551

> <Gold.Chemscore.Rot.Weighted>
4.3742

> <Gold.Chemscore.Internal.Correction.Weighted>
   9.000000E+99

> <Gold.Protein.RotatedTorsions>
[ 6907 6896 6895 6894 ] final  169.72 input  -60.11 | X-H torsion
[ 7974 7965 7964 7962 ] final  -80.17 input  175.53 | X-H torsion
[ 8008 7997 7996 7995 ] final  128.68 input   59.86 | X-H torsion
[ 10167 10162 10161 10158 ] final  -51.70 input  -65.29 | X-H torsion
[ 10718 10713 10712 10709 ] final   67.69 input   66.30 | X-H torsion
[ 10763 10752 10751 10750 ] final -111.16 input  -60.55 | X-H torsion
[ 11005 11000 10999 10996 ] final   -2.17 input  -57.11 | X-H torsion

> <Gold.Protein.ActiveResidues>
 VAL166  LYS551  ARG553  GLY616  TRP617  ASP618  TYR619  PRO620  LYS621  CYS622 
 ASP623  PHE694  ASN695  SER759  ASP760  ASP761  ALA762  ILE779  LEU786  VAL792 
 PHE793  MET794  SER795  GLU796  ALA797  LYS798  CYS799  TRP800  GLU811  SER814 

> <Gold.Protein.RotatedAtoms>
  151.8275  133.3403  159.3602 H   0  0  0  0  0  0  0  0  0  0  0  0  # atno 6907 bound_to 6896
  150.7275  134.5514  159.5806 H   0  0  0  0  0  0  0  0  0  0  0  0  # atno 6908 bound_to 6896
  152.2960  134.7667  160.0419 H   0  0  0  0  0  0  0  0  0  0  0  0  # atno 6909 bound_to 6896
  145.5634  140.9478  143.1435 H   0  0  0  0  0  0  0  0  0  0  0  0  # atno 7974 bound_to 7965
  156.2920  140.2639  156.2475 H   0  0  0  0  0  0  0  0  0  0  0  0  # atno 8008 bound_to 7997
  154.9916  140.0388  157.2340 H   0  0  0  0  0  0  0  0  0  0  0  0  # atno 8009 bound_to 7997
  154.7681  140.2773  155.6165 H   0  0  0  0  0  0  0  0  0  0  0  0  # atno 8010 bound_to 7997
  140.6575  143.2610  151.4541 H   0  0  0  0  0  0  0  0  0  0  0  0  # atno 10167 bound_to 10162
  157.6245  130.9334  150.0276 H   0  0  0  0  0  0  0  0  0  0  0  0  # atno 10718 bound_to 10713
  154.8286  135.4538  154.0996 H   0  0  0  0  0  0  0  0  0  0  0  0  # atno 10763 bound_to 10752
  153.2289  135.6903  153.7919 H   0  0  0  0  0  0  0  0  0  0  0  0  # atno 10764 bound_to 10752
  153.7309  135.3327  155.3262 H   0  0  0  0  0  0  0  0  0  0  0  0  # atno 10765 bound_to 10752
  140.6554  133.9367  155.8404 H   0  0  0  0  0  0  0  0  0  0  0  0  # atno 11005 bound_to 11000
  144.7472  139.7289  143.7287 LP  0  0  0  0  0  0  0  0  0  0  0  0  # atno 17320 bound_to 7965
  146.1835  139.5039  142.9851 LP  0  0  0  0  0  0  0  0  0  0  0  0  # atno 17321 bound_to 7965
  139.5801  144.1729  152.1956 LP  0  0  0  0  0  0  0  0  0  0  0  0  # atno 17342 bound_to 10162
  140.1052  144.5505  150.6962 LP  0  0  0  0  0  0  0  0  0  0  0  0  # atno 17343 bound_to 10162
  156.1409  130.3642  149.9584 LP  0  0  0  0  0  0  0  0  0  0  0  0  # atno 17370 bound_to 10713
  156.7625  130.9156  151.3642 LP  0  0  0  0  0  0  0  0  0  0  0  0  # atno 17371 bound_to 10713
  141.0505  134.0491  157.3789 LP  0  0  0  0  0  0  0  0  0  0  0  0  # atno 17394 bound_to 11000
  139.9031  135.0171  156.7362 LP  0  0  0  0  0  0  0  0  0  0  0  0  # atno 17395 bound_to 11000

$$$$
