AV-unprocessed.smi:1219|AV-procd|sdf|5112|dock5
  -GOLD-   22720 4163D 1   1.00000     0.00000
 Structure written by MMmdl.
 43 44  0  0  0  0  0  0  0  0  2 V2000
  152.6420  139.9667  157.7851 O   0  0  0  0  0  0  0  0  0  0  0  0
  151.9874  140.6036  156.9595 C   0  0  0  0  0  0  0  0  0  0  0  0
  151.6186  140.1061  155.7704 N   0  0  0  0  0  0  0  0  0  0  0  0
  151.9621  138.7773  155.2744 C   0  0  0  0  0  0  0  0  0  0  0  0
  150.7179  137.9814  154.8266 C   0  0  2  0  0  0  0  0  0  0  0  0
  151.1446  136.8934  154.0302 O   0  0  0  0  0  0  0  0  0  0  0  0
  149.7851  138.8425  153.9499 C   0  0  0  0  0  0  0  0  0  0  0  0
  148.5403  138.1304  153.5609 N   0  3  0  0  0  0  0  0  0  0  0  0
  147.5843  139.0189  152.8498 C   0  0  0  0  0  0  0  0  0  0  0  0
  146.3716  138.2296  152.3291 C   0  0  0  0  0  0  0  0  0  0  0  0
  145.6713  137.4811  153.4702 C   0  0  0  0  0  0  0  0  0  0  0  0
  146.6811  136.5964  154.2124 C   0  0  0  0  0  0  0  0  0  0  0  0
  147.8878  137.4199  154.6937 C   0  0  0  0  0  0  0  0  0  0  0  0
  151.5509  141.8656  157.1169 N   0  0  0  0  0  0  0  0  0  0  0  0
  151.7565  142.7337  158.2223 C   0  0  0  0  0  0  0  0  0  0  0  0
  151.7651  144.1115  157.9077 C   0  0  0  0  0  0  0  0  0  0  0  0
  151.9668  145.0551  158.9336 C   0  0  0  0  0  0  0  0  0  0  0  0
  152.1535  144.5963  160.2495 C   0  0  0  0  0  0  0  0  0  0  0  0
  152.1286  143.2081  160.4774 C   0  0  0  0  0  0  0  0  0  0  0  0
  151.9360  142.3019  159.4957 N   0  0  0  0  0  0  0  0  0  0  0  0
  151.0823  140.6981  155.1530 H   0  0  0  0  0  0  0  0  0  0  0  0
  152.6141  138.9435  154.4166 H   0  0  0  0  0  0  0  0  0  0  0  0
  152.5593  138.2220  156.0004 H   0  0  0  0  0  0  0  0  0  0  0  0
  150.1862  137.6071  155.7010 H   0  0  0  0  0  0  0  0  0  0  0  0
  151.1375  137.1637  153.1231 H   0  0  0  0  0  0  0  0  0  0  0  0
  149.5202  139.7686  154.4625 H   0  0  0  0  0  0  0  0  0  0  0  0
  150.3346  139.1400  153.0550 H   0  0  0  0  0  0  0  0  0  0  0  0
  147.2574  139.8146  153.5213 H   0  0  0  0  0  0  0  0  0  0  0  0
  148.0833  139.4994  152.0074 H   0  0  0  0  0  0  0  0  0  0  0  0
  145.6688  138.9050  151.8405 H   0  0  0  0  0  0  0  0  0  0  0  0
  146.6972  137.5185  151.5686 H   0  0  0  0  0  0  0  0  0  0  0  0
  145.2265  138.1962  154.1635 H   0  0  0  0  0  0  0  0  0  0  0  0
  144.8538  136.8749  153.0786 H   0  0  0  0  0  0  0  0  0  0  0  0
  146.1974  136.1123  155.0613 H   0  0  0  0  0  0  0  0  0  0  0  0
  147.0227  135.7968  153.5537 H   0  0  0  0  0  0  0  0  0  0  0  0
  148.5956  136.7524  155.1836 H   0  0  0  0  0  0  0  0  0  0  0  0
  147.5690  138.1454  155.4439 H   0  0  0  0  0  0  0  0  0  0  0  0
  151.0238  142.2578  156.3510 H   0  0  0  0  0  0  0  0  0  0  0  0
  151.6208  144.4471  156.8910 H   0  0  0  0  0  0  0  0  0  0  0  0
  151.9788  146.1123  158.7135 H   0  0  0  0  0  0  0  0  0  0  0  0
  152.3116  145.2893  161.0626 H   0  0  0  0  0  0  0  0  0  0  0  0
  152.2685  142.8142  161.4732 H   0  0  0  0  0  0  0  0  0  0  0  0
  148.8206  137.4272  152.8913 H   0  0  0  0  0  0  0  0  0  0  0  0
  1  2  2  0  0  0  0
  2  3  1  0  0  0  0
  2 14  1  0  0  0  0
  3  4  1  0  0  0  0
  3 21  1  0  0  0  0
  4  5  1  0  0  0  0
  4 22  1  0  0  0  0
  4 23  1  0  0  0  0
  5  6  1  0  0  0  0
  5  7  1  0  0  0  0
  5 24  1  0  0  0  0
  6 25  1  0  0  0  0
  7  8  1  0  0  0  0
  7 26  1  0  0  0  0
  7 27  1  0  0  0  0
  8 13  1  0  0  0  0
  8  9  1  0  0  0  0
  8 43  1  0  0  0  0
  9 10  1  0  0  0  0
  9 28  1  0  0  0  0
  9 29  1  0  0  0  0
 10 11  1  0  0  0  0
 10 30  1  0  0  0  0
 10 31  1  0  0  0  0
 11 12  1  0  0  0  0
 11 32  1  0  0  0  0
 11 33  1  0  0  0  0
 12 13  1  0  0  0  0
 12 34  1  0  0  0  0
 12 35  1  0  0  0  0
 13 36  1  0  0  0  0
 13 37  1  0  0  0  0
 14 15  1  0  0  0  0
 14 38  1  0  0  0  0
 15 20  1  0  0  0  0
 15 16  2  0  0  0  0
 16 17  1  0  0  0  0
 16 39  1  0  0  0  0
 17 18  2  0  0  0  0
 17 40  1  0  0  0  0
 18 19  1  0  0  0  0
 18 41  1  0  0  0  0
 19 20  2  0  0  0  0
 19 42  1  0  0  0  0
M  CHG  1   8   1
M  END
> <s_m_source_file>
AV-unprocessed.smi

> <i_m_source_file_index>
1219

> <i_lp_mmshare_version>
43012

> <i_f3d_flags>
0

> <s_epik_input>
bjFbY0hdW2NIXVtjSF1bY0hdYzFbTkhdQyg9TylbTkhdW0NIMl1bQ0BIXShbT0hdKVtDSDJdTjJbQ0gyXVtDSDJdW0NIMl1bQ0gyXVtDSDJdMg==

> <s_epik_cmdline>
J2VwaWtfcHl0aG9uJywgJy1waCcsICc3LjAnLCAnLXRuJywgJzgnLCAnLW1hJywgJzIwMCcsICctbWV0YWxfYmluZGluZycsICctaW1hZScsICc8aW5maWxlLm1hZT4nLCAnLW9tYWUnLCAnPG91dGZpbGUubWFlPic=

> <r_epik_Ionization_Penalty>
0.00510026

> <r_epik_Ionization_Penalty_Charging>
0.00506051

> <r_epik_Ionization_Penalty_Neutral>
3.97538e-05

> <r_epik_State_Penalty>
0.00368188

> <r_epik_Charging_Adjusted_Penalty>
0.0087424

> <i_epik_Tot_Q>
1

> <i_epik_Tot_abs_Q>
1

> <r_epik_Metal_State_Penalty>
-0

> <b_epik_Metal_Only>
0

> <s_lp_Force_Field>
OPLS_2005

> <r_lp_Energy>
20.5821

> <b_lp_Chiralities_Consistent>
1

> <s_lp_Variant>
AV-unprocessed.smi:1219-1

> <Gold.Version>
5.8.1

> <Gold.Id.Protein>
6NUR|6NUR_protein|mol2

> <Gold.PLP.Fitness>
49.1605

> <Gold.PLP.PLP>
-36.8053

> <Gold.PLP.part.hbond>
-4.2720

> <Gold.PLP.part.metal>
0.0000

> <Gold.PLP.part.buried>
-3.1745

> <Gold.PLP.part.nonpolar>
-28.9125

> <Gold.PLP.part.repulsive>
0.2536

> <Gold.PLP.ligand.clash>
0.0000

> <Gold.PLP.ligand.torsion>
0.3720

> <Gold.PLP.Chemscore.Hbond>
4.3230

> <Gold.PLP.Chemscore.CHOScore>
0.0000

> <Gold.PLP.Chemscore.Metal>
0.0000

> <Gold.Chemscore.Hbonds>
donor molecule, donor type, donor heavy atom, donor atom, acceptor molecule, acceptor atom, score
      L1  H     6    25       P1  7949  0.56
      L1  H     8    43       P1  7948  2.00
      P1  H  7997  8009       L1     1  0.65
      P1  H 10752 10765       L1     6  0.55

> <Gold.PLP.Chemscore.Internal.Correction>
0.1303

> <Gold.Rescore>
     Score         DG    S(hbond)    S(metal)    S(lipo)     H(rot)  DE(clash)    DE(int)     intcor
     16.63     -18.64       2.77        0.00      86.11       2.41       0.53       1.47       ----

> <Gold.Chemscore.Fitness>
16.6323

> <Gold.Chemscore.DG>
-18.6375

> <Gold.Chemscore.ZeroCoef>
-5.4800

> <Gold.Chemscore.Hbond>
2.7675

> <Gold.Chemscore.Metal>
0.0000

> <Gold.Chemscore.Lipo>
86.1130

> <Gold.Chemscore.Internal_Hbond>
0.0000

> <Gold.Chemscore.DEClash>
0.5318

> <Gold.Chemscore.DEInternal>
1.4734

> <Gold.Chemscore.Rot>
2.4067

> <Gold.Chemscore.Internal.Correction>
   9.000000E+99

> <Gold.Chemscore.Hbonds>
donor molecule, donor type, donor heavy atom, donor atom, acceptor molecule, acceptor atom, score
      L1  H     6    25       P1  7949  0.27
      L1  H     8    43       P1  7948  0.97
      P1  H  7997  8009       L1     1  0.06
      P1  H 10752 10765       L1     6  0.14

> <Gold.Chemscore.Hbond.Weighted>
-9.2435

> <Gold.Chemscore.Metal.Weighted>
-0.0000

> <Gold.Chemscore.Lipo.Weighted>
-10.0752

> <Gold.Chemscore.Internal_Hbond.Weighted>
0.0000

> <Gold.Chemscore.DEClash.Weighted>
0.5318

> <Gold.Chemscore.DEInternal.Weighted>
1.4734

> <Gold.Chemscore.Rot.Weighted>
6.1612

> <Gold.Chemscore.Internal.Correction.Weighted>
   9.000000E+99

> <Gold.Protein.RotatedTorsions>
[ 6907 6896 6895 6894 ] final   40.06 input  -60.11 | X-H torsion
[ 7974 7965 7964 7962 ] final  -75.54 input  175.53 | X-H torsion
[ 8008 7997 7996 7995 ] final  176.90 input   59.86 | X-H torsion
[ 10167 10162 10161 10158 ] final  105.03 input  -65.29 | X-H torsion
[ 10718 10713 10712 10709 ] final -131.02 input   66.30 | X-H torsion
[ 10763 10752 10751 10750 ] final  147.89 input  -60.55 | X-H torsion
[ 11005 11000 10999 10996 ] final  141.01 input  -57.11 | X-H torsion

> <Gold.Protein.ActiveResidues>
 VAL166  LYS551  ARG553  GLY616  TRP617  ASP618  TYR619  PRO620  LYS621  CYS622 
 ASP623  PHE694  ASN695  SER759  ASP760  ASP761  ALA762  ILE779  LEU786  VAL792 
 PHE793  MET794  SER795  GLU796  ALA797  LYS798  CYS799  TRP800  GLU811  SER814 

> <Gold.Protein.RotatedAtoms>
  152.1776  134.8781  160.0528 H   0  0  0  0  0  0  0  0  0  0  0  0  # atno 6907 bound_to 6896
  151.9717  133.3723  159.4082 H   0  0  0  0  0  0  0  0  0  0  0  0  # atno 6908 bound_to 6896
  150.6912  134.4056  159.5182 H   0  0  0  0  0  0  0  0  0  0  0  0  # atno 6909 bound_to 6896
  145.6247  140.9354  143.1119 H   0  0  0  0  0  0  0  0  0  0  0  0  # atno 7974 bound_to 7965
  156.0714  140.1372  156.9823 H   0  0  0  0  0  0  0  0  0  0  0  0  # atno 8008 bound_to 7997
  154.4534  140.0971  156.6737 H   0  0  0  0  0  0  0  0  0  0  0  0  # atno 8009 bound_to 7997
  155.5221  140.3456  155.4411 H   0  0  0  0  0  0  0  0  0  0  0  0  # atno 8010 bound_to 7997
  139.7127  144.7074  151.1001 H   0  0  0  0  0  0  0  0  0  0  0  0  # atno 10167 bound_to 10162
  156.2202  130.6973  151.0747 H   0  0  0  0  0  0  0  0  0  0  0  0  # atno 10718 bound_to 10713
  154.0458  135.2886  155.3348 H   0  0  0  0  0  0  0  0  0  0  0  0  # atno 10763 bound_to 10752
  154.6900  135.5230  153.8383 H   0  0  0  0  0  0  0  0  0  0  0  0  # atno 10764 bound_to 10752
  153.0581  135.6603  154.0658 H   0  0  0  0  0  0  0  0  0  0  0  0  # atno 10765 bound_to 10752
  140.0370  134.9324  157.0771 H   0  0  0  0  0  0  0  0  0  0  0  0  # atno 11005 bound_to 11000
  144.7217  139.8008  143.7379 LP  0  0  0  0  0  0  0  0  0  0  0  0  # atno 17320 bound_to 7965
  146.1404  139.4459  143.0112 LP  0  0  0  0  0  0  0  0  0  0  0  0  # atno 17321 bound_to 7965
  140.7737  143.5272  150.9466 LP  0  0  0  0  0  0  0  0  0  0  0  0  # atno 17342 bound_to 10162
  139.8957  143.6898  152.3139 LP  0  0  0  0  0  0  0  0  0  0  0  0  # atno 17343 bound_to 10162
  157.7083  131.0746  150.6589 LP  0  0  0  0  0  0  0  0  0  0  0  0  # atno 17370 bound_to 10713
  156.6652  130.4523  149.5675 LP  0  0  0  0  0  0  0  0  0  0  0  0  # atno 17371 bound_to 10713
  140.4131  134.1960  155.7163 LP  0  0  0  0  0  0  0  0  0  0  0  0  # atno 17394 bound_to 11000
  141.1862  133.8306  157.1075 LP  0  0  0  0  0  0  0  0  0  0  0  0  # atno 17395 bound_to 11000

$$$$
