AV-unprocessed.smi:375|AV-procd|sdf|2454|dock1
  -GOLD-   2262022393D 1   1.00000     0.00000
 Structure written by MMmdl.
 36 38  0  0  0  0  0  0  0  0  1 V2000
  154.0668  141.3108  161.2565 C   0  0  0  0  0  0  0  0  0  0  0  0
  153.1688  141.3442  160.1085 N   0  0  0  0  0  0  0  0  0  0  0  0
  152.7082  140.2857  159.4010 C   0  0  0  0  0  0  0  0  0  0  0  0
  152.9759  139.1027  159.6108 O   0  0  0  0  0  0  0  0  0  0  0  0
  151.9023  140.7568  158.4202 N   0  0  0  0  0  0  0  0  0  0  0  0
  151.2042  139.9641  157.4100 C   0  0  0  0  0  0  0  0  0  0  0  0
  151.4011  140.5380  155.9930 C   0  0  1  0  0  0  0  0  0  0  0  0
  152.4701  139.8510  155.3713 O   0  0  0  0  0  0  0  0  0  0  0  0
  150.1160  140.4265  155.1823 C   0  0  0  0  0  0  0  0  0  0  0  0
  149.3626  141.5818  154.8734 C   0  0  0  0  0  0  0  0  0  0  0  0
  148.1808  141.4806  154.1144 C   0  0  0  0  0  0  0  0  0  0  0  0
  147.7453  140.2238  153.6542 C   0  0  0  0  0  0  0  0  0  0  0  0
  148.4946  139.0697  153.9504 C   0  0  0  0  0  0  0  0  0  0  0  0
  149.6773  139.1683  154.7093 C   0  0  0  0  0  0  0  0  0  0  0  0
  150.3896  138.0468  154.9756 F   0  0  0  0  0  0  0  0  0  0  0  0
  151.8528  142.1561  158.4984 C   0  0  0  0  0  0  0  0  0  0  0  0
  151.1749  143.1045  157.7129 C   0  0  0  0  0  0  0  0  0  0  0  0
  151.3379  144.4662  158.0604 C   0  0  0  0  0  0  0  0  0  0  0  0
  152.1542  144.8440  159.1583 C   0  0  0  0  0  0  0  0  0  0  0  0
  152.8268  143.8684  159.9310 C   0  0  0  0  0  0  0  0  0  0  0  0
  152.6481  142.5241  159.5627 C   0  0  0  0  0  0  0  0  0  0  0  0
  154.4107  140.3001  161.4797 H   0  0  0  0  0  0  0  0  0  0  0  0
  153.5606  141.6989  162.1406 H   0  0  0  0  0  0  0  0  0  0  0  0
  154.9449  141.9284  161.0662 H   0  0  0  0  0  0  0  0  0  0  0  0
  151.4965  138.9133  157.4541 H   0  0  0  0  0  0  0  0  0  0  0  0
  150.1443  139.9854  157.6663 H   0  0  0  0  0  0  0  0  0  0  0  0
  151.6866  141.5887  156.0539 H   0  0  0  0  0  0  0  0  0  0  0  0
  152.2888  138.9240  155.4020 H   0  0  0  0  0  0  0  0  0  0  0  0
  149.6906  142.5528  155.2147 H   0  0  0  0  0  0  0  0  0  0  0  0
  147.6096  142.3679  153.8838 H   0  0  0  0  0  0  0  0  0  0  0  0
  146.8394  140.1456  153.0713 H   0  0  0  0  0  0  0  0  0  0  0  0
  148.1632  138.1060  153.5925 H   0  0  0  0  0  0  0  0  0  0  0  0
  150.5559  142.8109  156.8781 H   0  0  0  0  0  0  0  0  0  0  0  0
  150.8349  145.2275  157.4824 H   0  0  0  0  0  0  0  0  0  0  0  0
  152.2646  145.8895  159.4065 H   0  0  0  0  0  0  0  0  0  0  0  0
  153.4512  144.1471  160.7669 H   0  0  0  0  0  0  0  0  0  0  0  0
  1  2  1  0  0  0  0
  1 22  1  0  0  0  0
  1 23  1  0  0  0  0
  1 24  1  0  0  0  0
  2 21  1  0  0  0  0
  2  3  1  0  0  0  0
  3  4  2  0  0  0  0
  3  5  1  0  0  0  0
  5  6  1  0  0  0  0
  5 16  1  0  0  0  0
  6  7  1  0  0  0  0
  6 25  1  0  0  0  0
  6 26  1  0  0  0  0
  7  8  1  0  0  0  0
  7  9  1  0  0  0  0
  7 27  1  0  0  0  0
  8 28  1  0  0  0  0
  9 14  1  0  0  0  0
  9 10  2  0  0  0  0
 10 11  1  0  0  0  0
 10 29  1  0  0  0  0
 11 12  2  0  0  0  0
 11 30  1  0  0  0  0
 12 13  1  0  0  0  0
 12 31  1  0  0  0  0
 13 14  2  0  0  0  0
 13 32  1  0  0  0  0
 14 15  1  0  0  0  0
 16 21  2  0  0  0  0
 16 17  1  0  0  0  0
 17 18  2  0  0  0  0
 17 33  1  0  0  0  0
 18 19  1  0  0  0  0
 18 34  1  0  0  0  0
 19 20  2  0  0  0  0
 19 35  1  0  0  0  0
 20 21  1  0  0  0  0
 20 36  1  0  0  0  0
M  END
> <s_m_source_file>
AV-unprocessed.smi

> <i_m_source_file_index>
375

> <i_lp_mmshare_version>
43012

> <i_f3d_flags>
0

> <s_epik_input>
W2NIXTFbY0hdW2NIXVtjSF1jKGMxMiluKFtDSDNdKWMoPU8pbjJbQ0gyXVtDQEhdKFtPSF0pYzNbY0hdW2NIXVtjSF1bY0hdYzNG

> <s_epik_cmdline>
J2VwaWtfcHl0aG9uJywgJy1waCcsICc3LjAnLCAnLXRuJywgJzgnLCAnLW1hJywgJzIwMCcsICctbWV0YWxfYmluZGluZycsICctaW1hZScsICc8aW5maWxlLm1hZT4nLCAnLW9tYWUnLCAnPG91dGZpbGUubWFlPic=

> <r_lp_tautomer_probability>
1

> <r_epik_Ionization_Penalty>
1.34619e-06

> <r_epik_Ionization_Penalty_Charging>
2.57375e-09

> <r_epik_Ionization_Penalty_Neutral>
1.34362e-06

> <r_epik_State_Penalty>
-0

> <r_epik_Charging_Adjusted_Penalty>
2.57375e-09

> <i_epik_Tot_Q>
0

> <i_epik_Tot_abs_Q>
0

> <r_epik_Metal_State_Penalty>
-0

> <b_epik_Metal_Only>
0

> <s_lp_Force_Field>
OPLS_2005

> <r_lp_Energy>
44.2188

> <b_lp_Chiralities_Consistent>
1

> <s_lp_Variant>
AV-unprocessed.smi:375-2

> <Gold.Version>
5.8.1

> <Gold.Id.Protein>
6NUR|6NUR_protein|mol2

> <Gold.PLP.Fitness>
54.3336

> <Gold.PLP.PLP>
-52.9533

> <Gold.PLP.part.hbond>
-1.9908

> <Gold.PLP.part.metal>
0.0000

> <Gold.PLP.part.buried>
-0.8494

> <Gold.PLP.part.nonpolar>
-49.8271

> <Gold.PLP.part.repulsive>
0.0000

> <Gold.PLP.ligand.clash>
0.0000

> <Gold.PLP.ligand.torsion>
0.8885

> <Gold.PLP.Chemscore.Hbond>
1.0460

> <Gold.PLP.Chemscore.CHOScore>
0.0000

> <Gold.PLP.Chemscore.Metal>
0.0000

> <Gold.Chemscore.Hbonds>
donor molecule, donor type, donor heavy atom, donor atom, acceptor molecule, acceptor atom, score
      P1  H  7989  7998       L1     8  0.04
      P1  H  7997  8009       L1     8  0.94

> <Gold.PLP.Chemscore.Internal.Correction>
0.0194

> <Gold.Rescore>
     Score         DG    S(hbond)    S(metal)    S(lipo)     H(rot)  DE(clash)    DE(int)     intcor
     17.02     -19.75       0.94        0.00     135.67       1.85       0.66       2.08       ----

> <Gold.Chemscore.Fitness>
17.0162

> <Gold.Chemscore.DG>
-19.7534

> <Gold.Chemscore.ZeroCoef>
-5.4800

> <Gold.Chemscore.Hbond>
0.9361

> <Gold.Chemscore.Metal>
0.0000

> <Gold.Chemscore.Lipo>
135.6732

> <Gold.Chemscore.Internal_Hbond>
0.0000

> <Gold.Chemscore.DEClash>
0.6579

> <Gold.Chemscore.DEInternal>
2.0793

> <Gold.Chemscore.Rot>
1.8465

> <Gold.Chemscore.Internal.Correction>
   9.000000E+99

> <Gold.Chemscore.Hbonds>
donor molecule, donor type, donor heavy atom, donor atom, acceptor molecule, acceptor atom, score
      P1  H  7997  8009       L1     8  0.61

> <Gold.Chemscore.Hbond.Weighted>
-3.1267

> <Gold.Chemscore.Metal.Weighted>
-0.0000

> <Gold.Chemscore.Lipo.Weighted>
-15.8738

> <Gold.Chemscore.Internal_Hbond.Weighted>
0.0000

> <Gold.Chemscore.DEClash.Weighted>
0.6579

> <Gold.Chemscore.DEInternal.Weighted>
2.0793

> <Gold.Chemscore.Rot.Weighted>
4.7270

> <Gold.Chemscore.Internal.Correction.Weighted>
   9.000000E+99

> <Gold.Protein.RotatedTorsions>
[ 6907 6896 6895 6894 ] final   19.15 input  -60.11 | X-H torsion
[ 7974 7965 7964 7962 ] final  -87.83 input  175.53 | X-H torsion
[ 8008 7997 7996 7995 ] final -144.27 input   59.86 | X-H torsion
[ 10167 10162 10161 10158 ] final -127.27 input  -65.29 | X-H torsion
[ 10718 10713 10712 10709 ] final  103.90 input   66.30 | X-H torsion
[ 10763 10752 10751 10750 ] final   70.95 input  -60.55 | X-H torsion
[ 11005 11000 10999 10996 ] final  137.91 input  -57.11 | X-H torsion

> <Gold.Protein.ActiveResidues>
 VAL166  LYS551  ARG553  GLY616  TRP617  ASP618  TYR619  PRO620  LYS621  CYS622 
 ASP623  PHE694  ASN695  SER759  ASP760  ASP761  ALA762  ILE779  LEU786  VAL792 
 PHE793  MET794  SER795  GLU796  ALA797  LYS798  CYS799  TRP800  GLU811  SER814 

> <Gold.Protein.RotatedAtoms>
  151.8764  135.0470  160.0484 H   0  0  0  0  0  0  0  0  0  0  0  0  # atno 6907 bound_to 6896
  152.2547  133.5241  159.5354 H   0  0  0  0  0  0  0  0  0  0  0  0  # atno 6908 bound_to 6896
  150.7096  134.0828  159.3946 H   0  0  0  0  0  0  0  0  0  0  0  0  # atno 6909 bound_to 6896
  145.4612  140.9561  143.1968 H   0  0  0  0  0  0  0  0  0  0  0  0  # atno 7974 bound_to 7965
  155.5242  140.0594  157.2901 H   0  0  0  0  0  0  0  0  0  0  0  0  # atno 8008 bound_to 7997
  154.4507  140.1947  156.0474 H   0  0  0  0  0  0  0  0  0  0  0  0  # atno 8009 bound_to 7997
  156.0697  140.3261  155.7565 H   0  0  0  0  0  0  0  0  0  0  0  0  # atno 8010 bound_to 7997
  139.9627  143.5932  152.2440 H   0  0  0  0  0  0  0  0  0  0  0  0  # atno 10167 bound_to 10162
  157.6758  131.0790  150.5625 H   0  0  0  0  0  0  0  0  0  0  0  0  # atno 10718 bound_to 10713
  153.0370  135.5155  154.7518 H   0  0  0  0  0  0  0  0  0  0  0  0  # atno 10763 bound_to 10752
  154.6486  135.2922  155.0017 H   0  0  0  0  0  0  0  0  0  0  0  0  # atno 10764 bound_to 10752
  154.0909  135.6650  153.4905 H   0  0  0  0  0  0  0  0  0  0  0  0  # atno 10765 bound_to 10752
  140.0146  134.9424  157.0350 H   0  0  0  0  0  0  0  0  0  0  0  0  # atno 11005 bound_to 11000
  144.8001  139.6157  143.7075 LP  0  0  0  0  0  0  0  0  0  0  0  0  # atno 17320 bound_to 7965
  146.2450  139.6079  142.9466 LP  0  0  0  0  0  0  0  0  0  0  0  0  # atno 17321 bound_to 7965
  139.6542  144.7661  151.2089 LP  0  0  0  0  0  0  0  0  0  0  0  0  # atno 17342 bound_to 10162
  140.7548  143.6113  150.8603 LP  0  0  0  0  0  0  0  0  0  0  0  0  # atno 17343 bound_to 10162
  156.5928  130.4334  149.5929 LP  0  0  0  0  0  0  0  0  0  0  0  0  # atno 17370 bound_to 10713
  156.2569  130.6940  151.1696 LP  0  0  0  0  0  0  0  0  0  0  0  0  # atno 17371 bound_to 10713
  140.4493  134.1599  155.7180 LP  0  0  0  0  0  0  0  0  0  0  0  0  # atno 17394 bound_to 11000
  141.1734  133.8562  157.1498 LP  0  0  0  0  0  0  0  0  0  0  0  0  # atno 17395 bound_to 11000

$$$$
