AV-unprocessed.smi:1990|AV-procd|sdf|8062|dock2
  -GOLD-   2272010263D 1   1.00000     0.00000
 Structure written by MMmdl.
 46 47  0  0  0  0  0  0  0  0  1 V2000
  151.1906  145.0281  158.4669 C   0  0  0  0  0  0  0  0  0  0  0  0
  152.1015  143.8470  158.8162 C   0  0  2  0  0  0  0  0  0  0  0  0
  151.5826  142.5203  158.2289 C   0  0  0  0  0  0  0  0  0  0  0  0
  152.4251  141.4158  158.6688 N   0  0  0  0  0  0  0  0  0  0  0  0
  152.0928  140.1880  158.0790 C   0  0  0  0  0  0  0  0  0  0  0  0
  151.0131  139.4482  158.6030 C   0  0  0  0  0  0  0  0  0  0  0  0
  150.6799  138.2164  158.0076 C   0  0  0  0  0  0  0  0  0  0  0  0
  151.4347  137.7666  156.8980 C   0  0  0  0  0  0  0  0  0  0  0  0
  151.2122  136.5357  156.2247 N   0  0  0  0  0  0  0  0  0  0  0  0
  150.7695  135.3696  156.7314 C   0  0  0  0  0  0  0  0  0  0  0  0
  150.4243  135.2066  157.9015 O   0  0  0  0  0  0  0  0  0  0  0  0
  150.6762  134.2039  155.7368 C   0  0  2  0  0  0  0  0  0  0  0  0
  149.5980  134.4466  154.6677 C   0  0  0  0  0  0  0  0  0  0  0  0
  150.3245  132.6249  156.6430 S   0  0  0  0  0  0  0  0  0  0  0  0
  150.4702  131.3464  155.3243 C   0  0  0  0  0  0  0  0  0  0  0  0
  151.3927  132.3883  157.6264 O   0  0  0  0  0  0  0  0  0  0  0  0
  148.9251  132.6609  157.0945 O   0  0  0  0  0  0  0  0  0  0  0  0
  152.5052  138.5748  156.4623 C   0  0  0  0  0  0  0  0  0  0  0  0
  152.8294  139.7566  157.0277 N   0  0  0  0  0  0  0  0  0  0  0  0
  152.5430  141.3516  160.1200 C   0  0  0  0  0  0  0  0  0  0  0  0
  153.0434  142.7011  160.6701 C   0  0  2  0  0  0  0  0  0  0  0  0
  153.0873  142.7186  162.2016 C   0  0  0  0  0  0  0  0  0  0  0  0
  152.1628  143.7357  160.2366 O   0  0  0  0  0  0  0  0  0  0  0  0
  151.1151  145.1601  157.3875 H   0  0  0  0  0  0  0  0  0  0  0  0
  151.5781  145.9558  158.8890 H   0  0  0  0  0  0  0  0  0  0  0  0
  150.1836  144.8789  158.8581 H   0  0  0  0  0  0  0  0  0  0  0  0
  153.1017  144.0531  158.4309 H   0  0  0  0  0  0  0  0  0  0  0  0
  150.5534  142.3475  158.5474 H   0  0  0  0  0  0  0  0  0  0  0  0
  151.5795  142.5676  157.1390 H   0  0  0  0  0  0  0  0  0  0  0  0
  150.4509  139.8138  159.4499 H   0  0  0  0  0  0  0  0  0  0  0  0
  149.8674  137.6400  158.4215 H   0  0  0  0  0  0  0  0  0  0  0  0
  151.3640  136.5566  155.2266 H   0  0  0  0  0  0  0  0  0  0  0  0
  151.6369  134.0786  155.2359 H   0  0  0  0  0  0  0  0  0  0  0  0
  149.7550  135.3952  154.1530 H   0  0  0  0  0  0  0  0  0  0  0  0
  148.5978  134.4611  155.1024 H   0  0  0  0  0  0  0  0  0  0  0  0
  149.6165  133.6590  153.9144 H   0  0  0  0  0  0  0  0  0  0  0  0
  150.1951  130.3750  155.7345 H   0  0  0  0  0  0  0  0  0  0  0  0
  151.4969  131.3000  154.9619 H   0  0  0  0  0  0  0  0  0  0  0  0
  149.8008  131.5917  154.5004 H   0  0  0  0  0  0  0  0  0  0  0  0
  153.1202  138.2663  155.6293 H   0  0  0  0  0  0  0  0  0  0  0  0
  151.5738  141.1072  160.5573 H   0  0  0  0  0  0  0  0  0  0  0  0
  153.2331  140.5535  160.3968 H   0  0  0  0  0  0  0  0  0  0  0  0
  154.0466  142.9043  160.2909 H   0  0  0  0  0  0  0  0  0  0  0  0
  153.7549  141.9461  162.5840 H   0  0  0  0  0  0  0  0  0  0  0  0
  152.0977  142.5470  162.6262 H   0  0  0  0  0  0  0  0  0  0  0  0
  153.4459  143.6801  162.5697 H   0  0  0  0  0  0  0  0  0  0  0  0
  1  2  1  0  0  0  0
  1 24  1  0  0  0  0
  1 25  1  0  0  0  0
  1 26  1  0  0  0  0
  2 23  1  0  0  0  0
  2  3  1  0  0  0  0
  2 27  1  0  0  0  0
  3  4  1  0  0  0  0
  3 28  1  0  0  0  0
  3 29  1  0  0  0  0
  4  5  1  0  0  0  0
  4 20  1  0  0  0  0
  5 19  1  0  0  0  0
  5  6  2  0  0  0  0
  6  7  1  0  0  0  0
  6 30  1  0  0  0  0
  7  8  2  0  0  0  0
  7 31  1  0  0  0  0
  8  9  1  0  0  0  0
  8 18  1  0  0  0  0
  9 10  1  0  0  0  0
  9 32  1  0  0  0  0
 10 11  2  0  0  0  0
 10 12  1  0  0  0  0
 12 13  1  0  0  0  0
 12 14  1  0  0  0  0
 12 33  1  0  0  0  0
 13 34  1  0  0  0  0
 13 35  1  0  0  0  0
 13 36  1  0  0  0  0
 14 15  1  0  0  0  0
 14 16  2  0  0  0  0
 14 17  2  0  0  0  0
 15 37  1  0  0  0  0
 15 38  1  0  0  0  0
 15 39  1  0  0  0  0
 18 19  2  0  0  0  0
 18 40  1  0  0  0  0
 20 21  1  0  0  0  0
 20 41  1  0  0  0  0
 20 42  1  0  0  0  0
 21 22  1  0  0  0  0
 21 23  1  0  0  0  0
 21 43  1  0  0  0  0
 22 44  1  0  0  0  0
 22 45  1  0  0  0  0
 22 46  1  0  0  0  0
M  END
> <s_m_source_file>
AV-unprocessed.smi

> <i_m_source_file_index>
1990

> <i_lp_mmshare_version>
43012

> <i_f3d_flags>
0

> <s_epik_input>
W0NIM11bQ0BASF0xW0NIMl1OKFtDSDJdW0NASF0oTzEpW0NIM10pYzJbY0hdW2NIXWMoW2NIXW4yKVtOSF1DKD1PKVtDQEhdKFtDSDNdKVMoPU8pKD1PKVtDSDNd

> <s_epik_cmdline>
J2VwaWtfcHl0aG9uJywgJy1waCcsICc3LjAnLCAnLXRuJywgJzgnLCAnLW1hJywgJzIwMCcsICctbWV0YWxfYmluZGluZycsICctaW1hZScsICc8aW5maWxlLm1hZT4nLCAnLW9tYWUnLCAnPG91dGZpbGUubWFlPic=

> <r_lp_tautomer_probability>
1

> <r_epik_Ionization_Penalty>
0.000334888

> <r_epik_Ionization_Penalty_Charging>
0

> <r_epik_Ionization_Penalty_Neutral>
0.000334888

> <r_epik_State_Penalty>
0.000200905

> <r_epik_Charging_Adjusted_Penalty>
0.000200905

> <i_epik_Tot_Q>
0

> <i_epik_Tot_abs_Q>
0

> <r_epik_Metal_State_Penalty>
-0

> <b_epik_Metal_Only>
0

> <s_lp_Force_Field>
OPLS_2005

> <r_lp_Energy>
20.1561

> <b_lp_Chiralities_Consistent>
1

> <s_lp_Variant>
AV-unprocessed.smi:1990-2

> <Gold.Version>
5.8.1

> <Gold.Id.Protein>
6NUR|6NUR_protein|mol2

> <Gold.PLP.Fitness>
43.6807

> <Gold.PLP.PLP>
-39.4948

> <Gold.PLP.part.hbond>
-2.9840

> <Gold.PLP.part.metal>
0.0000

> <Gold.PLP.part.buried>
-6.3682

> <Gold.PLP.part.nonpolar>
-30.8434

> <Gold.PLP.part.repulsive>
0.1549

> <Gold.PLP.ligand.clash>
0.0000

> <Gold.PLP.ligand.torsion>
0.9207

> <Gold.PLP.Chemscore.Hbond>
1.9192

> <Gold.PLP.Chemscore.CHOScore>
0.0000

> <Gold.PLP.Chemscore.Metal>
0.0000

> <Gold.Chemscore.Hbonds>
donor molecule, donor type, donor heavy atom, donor atom, acceptor molecule, acceptor atom, score
      P1  H  6896  6908       L1    16  0.34
      P1  H  6896  6909       L1    11  0.58
      P1  H  7997  8009       L1    19  1.00

> <Gold.PLP.Chemscore.Internal.Correction>
0.2697

> <Gold.Rescore>
     Score         DG    S(hbond)    S(metal)    S(lipo)     H(rot)  DE(clash)    DE(int)     intcor
     16.36     -19.34       1.85        0.00      98.83       1.52       0.01       2.97       ----

> <Gold.Chemscore.Fitness>
16.3601

> <Gold.Chemscore.DG>
-19.3403

> <Gold.Chemscore.ZeroCoef>
-5.4800

> <Gold.Chemscore.Hbond>
1.8510

> <Gold.Chemscore.Metal>
0.0000

> <Gold.Chemscore.Lipo>
98.8293

> <Gold.Chemscore.Internal_Hbond>
0.0000

> <Gold.Chemscore.DEClash>
0.0052

> <Gold.Chemscore.DEInternal>
2.9750

> <Gold.Chemscore.Rot>
1.5177

> <Gold.Chemscore.Internal.Correction>
   9.000000E+99

> <Gold.Chemscore.Hbonds>
donor molecule, donor type, donor heavy atom, donor atom, acceptor molecule, acceptor atom, score
      P1  H  6896  6908       L1    16  0.34
      P1  H  6896  6909       L1    11  0.58
      P1  H  7997  8009       L1    19  0.70

> <Gold.Chemscore.Hbond.Weighted>
-6.1825

> <Gold.Chemscore.Metal.Weighted>
-0.0000

> <Gold.Chemscore.Lipo.Weighted>
-11.5630

> <Gold.Chemscore.Internal_Hbond.Weighted>
0.0000

> <Gold.Chemscore.DEClash.Weighted>
0.0052

> <Gold.Chemscore.DEInternal.Weighted>
2.9750

> <Gold.Chemscore.Rot.Weighted>
3.8853

> <Gold.Chemscore.Internal.Correction.Weighted>
   9.000000E+99

> <Gold.Protein.RotatedTorsions>
[ 6907 6896 6895 6894 ] final   31.61 input  -60.11 | X-H torsion
[ 7974 7965 7964 7962 ] final -124.87 input  175.53 | X-H torsion
[ 8008 7997 7996 7995 ] final  176.56 input   59.86 | X-H torsion
[ 10167 10162 10161 10158 ] final  168.00 input  -65.29 | X-H torsion
[ 10718 10713 10712 10709 ] final   39.24 input   66.30 | X-H torsion
[ 10763 10752 10751 10750 ] final  144.12 input  -60.55 | X-H torsion
[ 11005 11000 10999 10996 ] final   -8.80 input  -57.11 | X-H torsion

> <Gold.Protein.ActiveResidues>
 VAL166  LYS551  ARG553  GLY616  TRP617  ASP618  TYR619  PRO620  LYS621  CYS622 
 ASP623  PHE694  ASN695  SER759  ASP760  ASP761  ALA762  ILE779  LEU786  VAL792 
 PHE793  MET794  SER795  GLU796  ALA797  LYS798  CYS799  TRP800  GLU811  SER814 

> <Gold.Protein.RotatedAtoms>
  152.0628  134.9584  160.0574 H   0  0  0  0  0  0  0  0  0  0  0  0  # atno 6907 bound_to 6896
  152.0940  133.4210  159.4565 H   0  0  0  0  0  0  0  0  0  0  0  0  # atno 6908 bound_to 6896
  150.6837  134.2757  159.4650 H   0  0  0  0  0  0  0  0  0  0  0  0  # atno 6909 bound_to 6896
  145.0035  140.7842  143.4482 H   0  0  0  0  0  0  0  0  0  0  0  0  # atno 7974 bound_to 7965
  156.0752  140.1380  156.9781 H   0  0  0  0  0  0  0  0  0  0  0  0  # atno 8008 bound_to 7997
  154.4553  140.0963  156.6791 H   0  0  0  0  0  0  0  0  0  0  0  0  # atno 8009 bound_to 7997
  155.5165  140.3455  155.4400 H   0  0  0  0  0  0  0  0  0  0  0  0  # atno 8010 bound_to 7997
  139.4958  144.3861  151.9569 H   0  0  0  0  0  0  0  0  0  0  0  0  # atno 10167 bound_to 10162
  157.3682  130.7687  149.7099 H   0  0  0  0  0  0  0  0  0  0  0  0  # atno 10718 bound_to 10713
  153.9836  135.2939  155.3418 H   0  0  0  0  0  0  0  0  0  0  0  0  # atno 10763 bound_to 10752
  154.7255  135.5090  153.8883 H   0  0  0  0  0  0  0  0  0  0  0  0  # atno 10764 bound_to 10752
  153.0843  135.6688  154.0096 H   0  0  0  0  0  0  0  0  0  0  0  0  # atno 10765 bound_to 10752
  140.7273  133.8778  155.8866 H   0  0  0  0  0  0  0  0  0  0  0  0  # atno 11005 bound_to 11000
  145.2120  139.2200  143.5138 LP  0  0  0  0  0  0  0  0  0  0  0  0  # atno 17320 bound_to 7965
  146.3456  140.1960  142.8589 LP  0  0  0  0  0  0  0  0  0  0  0  0  # atno 17321 bound_to 7965
  140.3298  144.3329  150.5990 LP  0  0  0  0  0  0  0  0  0  0  0  0  # atno 17342 bound_to 10162
  140.5654  143.2187  151.7692 LP  0  0  0  0  0  0  0  0  0  0  0  0  # atno 17343 bound_to 10162
  155.9750  130.4095  150.3880 LP  0  0  0  0  0  0  0  0  0  0  0  0  # atno 17370 bound_to 10713
  157.1967  131.0428  151.2672 LP  0  0  0  0  0  0  0  0  0  0  0  0  # atno 17371 bound_to 10713
  140.9951  134.1226  157.4371 LP  0  0  0  0  0  0  0  0  0  0  0  0  # atno 17394 bound_to 11000
  139.8834  135.0052  156.6298 LP  0  0  0  0  0  0  0  0  0  0  0  0  # atno 17395 bound_to 11000

$$$$
