AV-unprocessed.smi:156|AV-procd|sdf|1288|dock6
  -GOLD-   2262018563D 1   1.00000     0.00000
 Structure written by MMmdl.
 51 53  0  0  0  0  0  0  0  0  1 V2000
  150.5802  138.0311  154.9953 C   0  0  0  0  0  0  0  0  0  0  0  0
  150.9841  136.6355  155.5107 C   0  0  1  0  0  0  0  0  0  0  0  0
  151.6664  136.6783  156.9123 C   0  0  2  0  0  0  0  0  0  0  0  0
  150.7712  137.3076  157.9966 C   0  0  0  0  0  0  0  0  0  0  0  0
  153.3144  137.5564  156.8973 S   0  0  0  0  0  0  0  0  0  0  0  0
  153.2274  138.6538  158.3755 C   0  0  0  0  0  0  0  0  0  0  0  0
  154.3688  136.5632  157.1528 O   0  0  0  0  0  0  0  0  0  0  0  0
  153.4085  138.4144  155.7067 O   0  0  0  0  0  0  0  0  0  0  0  0
  149.8135  135.7436  155.4652 N   0  0  0  0  0  0  0  0  0  0  0  0
  148.5605  136.2123  154.8775 C   0  0  0  0  0  0  0  0  0  0  0  0
  150.0098  134.3985  155.5692 C   0  0  0  0  0  0  0  0  0  0  0  0
  150.7922  133.9450  156.5840 N   0  0  0  0  0  0  0  0  0  0  0  0
  151.0071  132.6384  156.7537 C   0  0  0  0  0  0  0  0  0  0  0  0
  150.5437  131.6183  156.0326 N   0  0  0  0  0  0  0  0  0  0  0  0
  149.7611  132.0558  155.0058 C   0  0  0  0  0  0  0  0  0  0  0  0
  149.4407  133.4124  154.7044 C   0  0  0  0  0  0  0  0  0  0  0  0
  148.6176  133.4508  153.5832 N   0  0  0  0  0  0  0  0  0  0  0  0
  148.4510  132.1998  153.2547 C   0  0  0  0  0  0  0  0  0  0  0  0
  149.1167  131.2928  154.0463 N   0  0  0  0  0  0  0  0  0  0  0  0
  149.1099  129.8418  153.9152 C   0  0  0  0  0  0  0  0  0  0  0  0
  147.7301  129.1727  154.1292 C   0  0  0  0  0  0  0  0  0  0  0  0
  146.7770  129.6879  153.0421 C   0  0  0  0  0  0  0  0  0  0  0  0
  147.2226  129.3208  151.7521 O   0  0  0  0  0  0  0  0  0  0  0  0
  147.7461  127.6455  154.3108 C   0  0  0  0  0  0  0  0  0  0  0  0
  147.5750  127.7581  155.7390 O   0  0  0  0  0  0  0  0  0  0  0  0
  147.1673  129.1310  155.5607 C   0  0  0  0  0  0  0  0  0  0  0  0
  151.4483  138.6680  154.8282 H   0  0  0  0  0  0  0  0  0  0  0  0
  149.9201  138.5420  155.6969 H   0  0  0  0  0  0  0  0  0  0  0  0
  150.0572  137.9586  154.0410 H   0  0  0  0  0  0  0  0  0  0  0  0
  151.7418  136.2817  154.8139 H   0  0  0  0  0  0  0  0  0  0  0  0
  151.8784  135.6619  157.2404 H   0  0  0  0  0  0  0  0  0  0  0  0
  149.8970  136.6900  158.2008 H   0  0  0  0  0  0  0  0  0  0  0  0
  150.4174  138.2953  157.7024 H   0  0  0  0  0  0  0  0  0  0  0  0
  151.3041  137.4117  158.9415 H   0  0  0  0  0  0  0  0  0  0  0  0
  154.1503  139.2292  158.4449 H   0  0  0  0  0  0  0  0  0  0  0  0
  153.1161  138.0557  159.2787 H   0  0  0  0  0  0  0  0  0  0  0  0
  152.3894  139.3418  158.2862 H   0  0  0  0  0  0  0  0  0  0  0  0
  147.7192  135.6146  155.2302 H   0  0  0  0  0  0  0  0  0  0  0  0
  148.5996  136.1532  153.7896 H   0  0  0  0  0  0  0  0  0  0  0  0
  148.3487  137.2450  155.1477 H   0  0  0  0  0  0  0  0  0  0  0  0
  151.6397  132.3729  157.5878 H   0  0  0  0  0  0  0  0  0  0  0  0
  147.8334  131.9061  152.4190 H   0  0  0  0  0  0  0  0  0  0  0  0
  149.5083  129.6037  152.9284 H   0  0  0  0  0  0  0  0  0  0  0  0
  149.8342  129.4434  154.6268 H   0  0  0  0  0  0  0  0  0  0  0  0
  145.7667  129.3053  153.1909 H   0  0  0  0  0  0  0  0  0  0  0  0
  146.7042  130.7757  153.0708 H   0  0  0  0  0  0  0  0  0  0  0  0
  148.0475  129.7503  151.5841 H   0  0  0  0  0  0  0  0  0  0  0  0
  146.9018  127.1335  153.8462 H   0  0  0  0  0  0  0  0  0  0  0  0
  148.6809  127.1626  154.0300 H   0  0  0  0  0  0  0  0  0  0  0  0
  147.6451  129.8116  156.2633 H   0  0  0  0  0  0  0  0  0  0  0  0
  146.0820  129.2362  155.6085 H   0  0  0  0  0  0  0  0  0  0  0  0
  1  2  1  0  0  0  0
  1 27  1  0  0  0  0
  1 28  1  0  0  0  0
  1 29  1  0  0  0  0
  2  3  1  0  0  0  0
  2  9  1  0  0  0  0
  2 30  1  0  0  0  0
  3  4  1  0  0  0  0
  3  5  1  0  0  0  0
  3 31  1  0  0  0  0
  4 32  1  0  0  0  0
  4 33  1  0  0  0  0
  4 34  1  0  0  0  0
  5  6  1  0  0  0  0
  5  7  2  0  0  0  0
  5  8  2  0  0  0  0
  6 35  1  0  0  0  0
  6 36  1  0  0  0  0
  6 37  1  0  0  0  0
  9 10  1  0  0  0  0
  9 11  1  0  0  0  0
 10 38  1  0  0  0  0
 10 39  1  0  0  0  0
 10 40  1  0  0  0  0
 11 16  1  0  0  0  0
 11 12  2  0  0  0  0
 12 13  1  0  0  0  0
 13 14  2  0  0  0  0
 13 41  1  0  0  0  0
 14 15  1  0  0  0  0
 15 19  1  0  0  0  0
 15 16  2  0  0  0  0
 16 17  1  0  0  0  0
 17 18  2  0  0  0  0
 18 19  1  0  0  0  0
 18 42  1  0  0  0  0
 19 20  1  0  0  0  0
 20 21  1  0  0  0  0
 20 43  1  0  0  0  0
 20 44  1  0  0  0  0
 21 26  1  0  0  0  0
 21 22  1  0  0  0  0
 21 24  1  0  0  0  0
 22 23  1  0  0  0  0
 22 45  1  0  0  0  0
 22 46  1  0  0  0  0
 23 47  1  0  0  0  0
 24 25  1  0  0  0  0
 24 48  1  0  0  0  0
 24 49  1  0  0  0  0
 25 26  1  0  0  0  0
 26 50  1  0  0  0  0
 26 51  1  0  0  0  0
M  END
> <s_m_source_file>
AV-unprocessed.smi

> <i_m_source_file_index>
156

> <i_lp_mmshare_version>
43012

> <i_f3d_flags>
0

> <s_epik_input>
W0NIM11TKD1PKSg9TylbQ0BASF0oW0NIM10pW0NAQEhdKFtDSDNdKU4oW0NIM10pYyhuW2NIXW4xKWMoYzEyKW5bY0hdbjJbQ0gyXUMzKFtDSDJdW09IXSlbQ0gyXU9bQ0gyXTM=

> <s_epik_cmdline>
J2VwaWtfcHl0aG9uJywgJy1waCcsICc3LjAnLCAnLXRuJywgJzgnLCAnLW1hJywgJzIwMCcsICctbWV0YWxfYmluZGluZycsICctaW1hZScsICc8aW5maWxlLm1hZT4nLCAnLW9tYWUnLCAnPG91dGZpbGUubWFlPic=

> <r_lp_tautomer_probability>
1

> <r_epik_Ionization_Penalty>
0.00107697

> <r_epik_Ionization_Penalty_Charging>
0

> <r_epik_Ionization_Penalty_Neutral>
0.00107697

> <r_epik_State_Penalty>
0.000614712

> <r_epik_Charging_Adjusted_Penalty>
0.000614712

> <i_epik_Tot_Q>
0

> <i_epik_Tot_abs_Q>
0

> <r_epik_Metal_State_Penalty>
-0

> <b_epik_Metal_Only>
0

> <s_lp_Force_Field>
OPLS_2005

> <r_lp_Energy>
29.1467

> <b_lp_Chiralities_Consistent>
1

> <s_lp_Variant>
AV-unprocessed.smi:156-2

> <Gold.Version>
5.8.1

> <Gold.Id.Protein>
6NUR|6NUR_protein|mol2

> <Gold.PLP.Fitness>
40.5484

> <Gold.PLP.PLP>
-32.6083

> <Gold.PLP.part.hbond>
-3.0000

> <Gold.PLP.part.metal>
0.0000

> <Gold.PLP.part.buried>
-5.1886

> <Gold.PLP.part.nonpolar>
-24.0042

> <Gold.PLP.part.repulsive>
0.1891

> <Gold.PLP.ligand.clash>
1.0681

> <Gold.PLP.ligand.torsion>
1.4104

> <Gold.PLP.Chemscore.Hbond>
2.8560

> <Gold.PLP.Chemscore.CHOScore>
0.6528

> <Gold.PLP.Chemscore.Metal>
0.0000

> <Gold.Chemscore.Hbonds>
donor molecule, donor type, donor heavy atom, donor atom, acceptor molecule, acceptor atom, score
      L1  H    23    47       P1 10747  0.86
      P1  H  7997  8009       L1     8  0.83
      P1  H 10752 10764       L1     7  0.62
      L1  C    18    42       P1 10747  0.56

> <Gold.PLP.Chemscore.Internal.Correction>
1.3026

> <Gold.Rescore>
     Score         DG    S(hbond)    S(metal)    S(lipo)     H(rot)  DE(clash)    DE(int)     intcor
      6.91     -11.95       2.58        0.00      51.98       3.21       0.06       4.98       ----

> <Gold.Chemscore.Fitness>
6.9148

> <Gold.Chemscore.DG>
-11.9529

> <Gold.Chemscore.ZeroCoef>
-5.4800

> <Gold.Chemscore.Hbond>
2.5786

> <Gold.Chemscore.Metal>
0.0000

> <Gold.Chemscore.Lipo>
51.9819

> <Gold.Chemscore.Internal_Hbond>
0.0000

> <Gold.Chemscore.DEClash>
0.0621

> <Gold.Chemscore.DEInternal>
4.9759

> <Gold.Chemscore.Rot>
3.2115

> <Gold.Chemscore.Internal.Correction>
   9.000000E+99

> <Gold.Chemscore.Hbonds>
donor molecule, donor type, donor heavy atom, donor atom, acceptor molecule, acceptor atom, score
      L1  H    23    47       P1 10747  0.72
      P1  H  7997  8009       L1     8  0.65
      P1  H 10752 10764       L1     7  0.15

> <Gold.Chemscore.Hbond.Weighted>
-8.6125

> <Gold.Chemscore.Metal.Weighted>
-0.0000

> <Gold.Chemscore.Lipo.Weighted>
-6.0819

> <Gold.Chemscore.Internal_Hbond.Weighted>
0.0000

> <Gold.Chemscore.DEClash.Weighted>
0.0621

> <Gold.Chemscore.DEInternal.Weighted>
4.9759

> <Gold.Chemscore.Rot.Weighted>
8.2215

> <Gold.Chemscore.Internal.Correction.Weighted>
   9.000000E+99

> <Gold.Protein.RotatedTorsions>
[ 6907 6896 6895 6894 ] final   24.80 input  -60.11 | X-H torsion
[ 7974 7965 7964 7962 ] final   90.27 input  175.53 | X-H torsion
[ 8008 7997 7996 7995 ] final -148.44 input   59.86 | X-H torsion
[ 10167 10162 10161 10158 ] final   33.20 input  -65.29 | X-H torsion
[ 10718 10713 10712 10709 ] final   83.77 input   66.30 | X-H torsion
[ 10763 10752 10751 10750 ] final   35.76 input  -60.55 | X-H torsion
[ 11005 11000 10999 10996 ] final  148.77 input  -57.11 | X-H torsion

> <Gold.Protein.ActiveResidues>
 VAL166  LYS551  ARG553  GLY616  TRP617  ASP618  TYR619  PRO620  LYS621  CYS622 
 ASP623  PHE694  ASN695  SER759  ASP760  ASP761  ALA762  ILE779  LEU786  VAL792 
 PHE793  MET794  SER795  GLU796  ALA797  LYS798  CYS799  TRP800  GLU811  SER814 

> <Gold.Protein.RotatedAtoms>
  151.9630  135.0114  160.0548 H   0  0  0  0  0  0  0  0  0  0  0  0  # atno 6907 bound_to 6896
  152.1852  133.4730  159.4987 H   0  0  0  0  0  0  0  0  0  0  0  0  # atno 6908 bound_to 6896
  150.6924  134.1700  159.4251 H   0  0  0  0  0  0  0  0  0  0  0  0  # atno 6909 bound_to 6896
  145.5212  139.2279  143.2670 H   0  0  0  0  0  0  0  0  0  0  0  0  # atno 7974 bound_to 7965
  155.5917  140.0653  157.2757 H   0  0  0  0  0  0  0  0  0  0  0  0  # atno 8008 bound_to 7997
  154.4303  140.1834  156.1128 H   0  0  0  0  0  0  0  0  0  0  0  0  # atno 8009 bound_to 7997
  156.0227  140.3315  155.7059 H   0  0  0  0  0  0  0  0  0  0  0  0  # atno 8010 bound_to 7997
  140.4429  144.1161  150.6177 H   0  0  0  0  0  0  0  0  0  0  0  0  # atno 10167 bound_to 10162
  157.6885  131.0105  150.2573 H   0  0  0  0  0  0  0  0  0  0  0  0  # atno 10718 bound_to 10713
  153.0105  135.6324  154.1878 H   0  0  0  0  0  0  0  0  0  0  0  0  # atno 10763 bound_to 10752
  154.1620  135.2823  155.3107 H   0  0  0  0  0  0  0  0  0  0  0  0  # atno 10764 bound_to 10752
  154.5974  135.5598  153.7400 H   0  0  0  0  0  0  0  0  0  0  0  0  # atno 10765 bound_to 10752
  140.0988  134.8996  157.1763 H   0  0  0  0  0  0  0  0  0  0  0  0  # atno 11005 bound_to 11000
  146.2104  140.6025  142.9062 LP  0  0  0  0  0  0  0  0  0  0  0  0  # atno 17320 bound_to 7965
  144.7675  140.5563  143.6693 LP  0  0  0  0  0  0  0  0  0  0  0  0  # atno 17321 bound_to 7965
  140.4297  143.2573  151.9611 LP  0  0  0  0  0  0  0  0  0  0  0  0  # atno 17342 bound_to 10162
  139.4791  144.5755  151.8019 LP  0  0  0  0  0  0  0  0  0  0  0  0  # atno 17343 bound_to 10162
  156.3159  130.3778  149.7619 LP  0  0  0  0  0  0  0  0  0  0  0  0  # atno 17370 bound_to 10713
  156.5204  130.8212  151.3201 LP  0  0  0  0  0  0  0  0  0  0  0  0  # atno 17371 bound_to 10713
  140.3249  134.2874  155.7239 LP  0  0  0  0  0  0  0  0  0  0  0  0  # atno 17394 bound_to 11000
  141.2099  133.7734  156.9963 LP  0  0  0  0  0  0  0  0  0  0  0  0  # atno 17395 bound_to 11000

$$$$
