AV-unprocessed.smi:2772|AV-procd|sdf|10665|dock2
  -GOLD-   2272015113D 1   1.00000     0.00000
 Structure written by MMmdl.
 55 57  0  0  0  0  0  0  0  0  3 V2000
  147.9583  136.9710  163.5800 C   0  0  0  0  0  0  0  0  0  0  0  0
  147.8308  135.9684  162.4524 C   0  0  0  0  0  0  0  0  0  0  0  0
  147.2844  134.6882  162.6788 C   0  0  0  0  0  0  0  0  0  0  0  0
  147.1899  133.7952  161.5940 C   0  0  0  0  0  0  0  0  0  0  0  0
  147.6528  134.2116  160.3225 C   0  0  0  0  0  0  0  0  0  0  0  0
  147.5921  133.4125  159.1492 N   0  0  0  0  0  0  0  0  0  0  0  0
  148.4416  133.3913  158.1080 C   0  0  0  0  0  0  0  0  0  0  0  0
  149.4282  134.1156  157.9799 O   0  0  0  0  0  0  0  0  0  0  0  0
  148.0650  132.4815  157.1978 N   0  0  0  0  0  0  0  0  0  0  0  0
  148.7521  132.1958  155.9408 C   0  0  2  0  0  0  0  0  0  0  0  0
  148.6610  133.4140  155.0028 C   0  0  0  0  0  0  0  0  0  0  0  0
  149.2140  133.0828  153.6027 C   0  0  0  0  0  0  0  0  0  0  0  0
  148.5193  131.9119  152.9933 N   0  3  2  0  0  0  0  0  0  0  0  0
  147.1032  132.1620  152.5516 C   0  0  2  0  0  0  0  0  0  0  0  0
  146.4822  130.9320  151.8412 C   0  0  0  0  0  0  0  0  0  0  0  0
  145.0633  131.2074  151.3147 C   0  0  0  0  0  0  0  0  0  0  0  0
  145.0485  132.3715  150.3998 N   0  3  1  0  0  0  0  0  0  0  0  0
  143.7229  132.5863  149.7803 C   0  0  0  0  0  0  0  0  0  0  0  0
  145.5640  133.5877  151.0687 C   0  0  0  0  0  0  0  0  0  0  0  0
  146.9956  133.3718  151.5885 C   0  0  0  0  0  0  0  0  0  0  0  0
  148.7157  130.7221  153.8710 C   0  0  0  0  0  0  0  0  0  0  0  0
  148.1352  130.9491  155.2802 C   0  0  0  0  0  0  0  0  0  0  0  0
  148.1681  135.5199  160.2067 C   0  0  0  0  0  0  0  0  0  0  0  0
  148.2629  136.3819  161.2416 N   0  0  0  0  0  0  0  0  0  0  0  0
  147.5912  136.5591  164.5204 H   0  0  0  0  0  0  0  0  0  0  0  0
  147.3835  137.8698  163.3552 H   0  0  0  0  0  0  0  0  0  0  0  0
  149.0017  137.2560  163.7181 H   0  0  0  0  0  0  0  0  0  0  0  0
  146.9393  134.3950  163.6594 H   0  0  0  0  0  0  0  0  0  0  0  0
  146.7533  132.8219  161.7556 H   0  0  0  0  0  0  0  0  0  0  0  0
  146.7769  132.8219  159.0720 H   0  0  0  0  0  0  0  0  0  0  0  0
  147.2351  131.9411  157.3937 H   0  0  0  0  0  0  0  0  0  0  0  0
  149.8088  131.9882  156.1202 H   0  0  0  0  0  0  0  0  0  0  0  0
  147.6283  133.7554  154.9239 H   0  0  0  0  0  0  0  0  0  0  0  0
  149.2216  134.2468  155.4288 H   0  0  0  0  0  0  0  0  0  0  0  0
  149.1922  133.9581  152.9573 H   0  0  0  0  0  0  0  0  0  0  0  0
  150.2735  132.8379  153.6923 H   0  0  0  0  0  0  0  0  0  0  0  0
  146.4949  132.3797  153.4296 H   0  0  0  0  0  0  0  0  0  0  0  0
  147.1224  130.6177  151.0155 H   0  0  0  0  0  0  0  0  0  0  0  0
  146.4057  130.0843  152.5203 H   0  0  0  0  0  0  0  0  0  0  0  0
  144.6937  130.3261  150.7887 H   0  0  0  0  0  0  0  0  0  0  0  0
  144.3815  131.3876  152.1476 H   0  0  0  0  0  0  0  0  0  0  0  0
  142.9704  132.8222  150.5341 H   0  0  0  0  0  0  0  0  0  0  0  0
  143.4004  131.6943  149.2420 H   0  0  0  0  0  0  0  0  0  0  0  0
  143.7607  133.4085  149.0650 H   0  0  0  0  0  0  0  0  0  0  0  0
  145.5549  134.4217  150.3656 H   0  0  0  0  0  0  0  0  0  0  0  0
  144.9021  133.8614  151.8923 H   0  0  0  0  0  0  0  0  0  0  0  0
  147.2933  134.2951  152.0831 H   0  0  0  0  0  0  0  0  0  0  0  0
  147.6728  133.2349  150.7441 H   0  0  0  0  0  0  0  0  0  0  0  0
  148.3210  129.8109  153.4269 H   0  0  0  0  0  0  0  0  0  0  0  0
  149.7877  130.5388  153.9576 H   0  0  0  0  0  0  0  0  0  0  0  0
  148.3282  130.0729  155.9002 H   0  0  0  0  0  0  0  0  0  0  0  0
  147.0503  131.0462  155.2252 H   0  0  0  0  0  0  0  0  0  0  0  0
  148.5208  135.8873  159.2541 H   0  0  0  0  0  0  0  0  0  0  0  0
  149.0279  131.7072  152.1447 H   0  0  0  0  0  0  0  0  0  0  0  0
  145.6846  132.1596  149.6441 H   0  0  0  0  0  0  0  0  0  0  0  0
  1  2  1  0  0  0  0
  1 25  1  0  0  0  0
  1 26  1  0  0  0  0
  1 27  1  0  0  0  0
  2 24  1  0  0  0  0
  2  3  2  0  0  0  0
  3  4  1  0  0  0  0
  3 28  1  0  0  0  0
  4  5  2  0  0  0  0
  4 29  1  0  0  0  0
  5  6  1  0  0  0  0
  5 23  1  0  0  0  0
  6  7  1  0  0  0  0
  6 30  1  0  0  0  0
  7  8  2  0  0  0  0
  7  9  1  0  0  0  0
  9 10  1  0  0  0  0
  9 31  1  0  0  0  0
 10 22  1  0  0  0  0
 10 11  1  0  0  0  0
 10 32  1  0  0  0  0
 11 12  1  0  0  0  0
 11 33  1  0  0  0  0
 11 34  1  0  0  0  0
 12 13  1  0  0  0  0
 12 35  1  0  0  0  0
 12 36  1  0  0  0  0
 13 14  1  0  0  0  0
 13 21  1  0  0  0  0
 13 54  1  0  0  0  0
 14 20  1  0  0  0  0
 14 15  1  0  0  0  0
 14 37  1  0  0  0  0
 15 16  1  0  0  0  0
 15 38  1  0  0  0  0
 15 39  1  0  0  0  0
 16 17  1  0  0  0  0
 16 40  1  0  0  0  0
 16 41  1  0  0  0  0
 17 18  1  0  0  0  0
 17 19  1  0  0  0  0
 17 55  1  0  0  0  0
 18 42  1  0  0  0  0
 18 43  1  0  0  0  0
 18 44  1  0  0  0  0
 19 20  1  0  0  0  0
 19 45  1  0  0  0  0
 19 46  1  0  0  0  0
 20 47  1  0  0  0  0
 20 48  1  0  0  0  0
 21 22  1  0  0  0  0
 21 49  1  0  0  0  0
 21 50  1  0  0  0  0
 22 51  1  0  0  0  0
 22 52  1  0  0  0  0
 23 24  2  0  0  0  0
 23 53  1  0  0  0  0
M  CHG  1  13   1
M  CHG  1  17   1
M  END
> <s_m_source_file>
AV-unprocessed.smi

> <i_m_source_file_index>
2772

> <i_lp_mmshare_version>
43012

> <i_f3d_flags>
0

> <s_epik_input>
W0NIM11jMVtjSF1bY0hdYyhbY0hdbjEpW05IXUMoPU8pW05IXVtDSF0yW0NIMl1bQ0gyXU4oW0NIMl1bQ0gyXTIpW0NIXTNbQ0gyXVtDSDJdTihbQ0gzXSlbQ0gyXVtDSDJdMw==

> <s_epik_cmdline>
J2VwaWtfcHl0aG9uJywgJy1waCcsICc3LjAnLCAnLXRuJywgJzgnLCAnLW1hJywgJzIwMCcsICctbWV0YWxfYmluZGluZycsICctaW1hZScsICc8aW5maWxlLm1hZT4nLCAnLW9tYWUnLCAnPG91dGZpbGUubWFlPic=

> <r_epik_Ionization_Penalty>
0.196786

> <r_epik_Ionization_Penalty_Charging>
0.180787

> <r_epik_Ionization_Penalty_Neutral>
0.0159988

> <r_epik_State_Penalty>
0.163322

> <r_epik_Charging_Adjusted_Penalty>
0.344109

> <i_epik_Tot_Q>
2

> <i_epik_Tot_abs_Q>
2

> <r_epik_Metal_State_Penalty>
0.163596

> <b_epik_Metal_Only>
0

> <s_lp_Force_Field>
OPLS_2005

> <r_lp_Energy>
45.3322

> <b_lp_Chiralities_Consistent>
1

> <s_lp_Variant>
AV-unprocessed.smi:2772-2

> <Gold.Version>
5.8.1

> <Gold.Id.Protein>
6NUR|6NUR_protein|mol2

> <Gold.PLP.Fitness>
50.4785

> <Gold.PLP.PLP>
-43.3359

> <Gold.PLP.part.hbond>
-3.0000

> <Gold.PLP.part.metal>
0.0000

> <Gold.PLP.part.buried>
-2.6699

> <Gold.PLP.part.nonpolar>
-38.4520

> <Gold.PLP.part.repulsive>
0.1435

> <Gold.PLP.ligand.clash>
0.0000

> <Gold.PLP.ligand.torsion>
0.2993

> <Gold.PLP.Chemscore.Hbond>
2.5662

> <Gold.PLP.Chemscore.CHOScore>
0.0000

> <Gold.PLP.Chemscore.Metal>
0.0000

> <Gold.Chemscore.Hbonds>
donor molecule, donor type, donor heavy atom, donor atom, acceptor molecule, acceptor atom, score
      L1  H    13    54       P1 10747  0.96
      P1  H  6896  6908       L1     8  1.00
      P1  H  6931  6943       L1    24  0.61

> <Gold.PLP.Chemscore.Internal.Correction>
0.0428

> <Gold.Rescore>
     Score         DG    S(hbond)    S(metal)    S(lipo)     H(rot)  DE(clash)    DE(int)     intcor
     21.06     -22.67       1.93        0.00     118.33       1.21       0.06       1.55       ----

> <Gold.Chemscore.Fitness>
21.0649

> <Gold.Chemscore.DG>
-22.6727

> <Gold.Chemscore.ZeroCoef>
-5.4800

> <Gold.Chemscore.Hbond>
1.9291

> <Gold.Chemscore.Metal>
0.0000

> <Gold.Chemscore.Lipo>
118.3333

> <Gold.Chemscore.Internal_Hbond>
0.0000

> <Gold.Chemscore.DEClash>
0.0603

> <Gold.Chemscore.DEInternal>
1.5476

> <Gold.Chemscore.Rot>
1.2092

> <Gold.Chemscore.Internal.Correction>
   9.000000E+99

> <Gold.Chemscore.Hbonds>
donor molecule, donor type, donor heavy atom, donor atom, acceptor molecule, acceptor atom, score
      L1  H    13    54       P1 10747  0.64
      P1  H  6896  6908       L1     8  0.90
      P1  H  6931  6943       L1    24  0.09

> <Gold.Chemscore.Hbond.Weighted>
-6.4432

> <Gold.Chemscore.Metal.Weighted>
-0.0000

> <Gold.Chemscore.Lipo.Weighted>
-13.8450

> <Gold.Chemscore.Internal_Hbond.Weighted>
0.0000

> <Gold.Chemscore.DEClash.Weighted>
0.0603

> <Gold.Chemscore.DEInternal.Weighted>
1.5476

> <Gold.Chemscore.Rot.Weighted>
3.0955

> <Gold.Chemscore.Internal.Correction.Weighted>
   9.000000E+99

> <Gold.Protein.RotatedTorsions>
[ 6907 6896 6895 6894 ] final  126.03 input  -60.11 | X-H torsion
[ 7974 7965 7964 7962 ] final  132.70 input  175.53 | X-H torsion
[ 8008 7997 7996 7995 ] final  123.22 input   59.86 | X-H torsion
[ 10167 10162 10161 10158 ] final  -94.58 input  -65.29 | X-H torsion
[ 10718 10713 10712 10709 ] final -161.71 input   66.30 | X-H torsion
[ 10763 10752 10751 10750 ] final   86.28 input  -60.55 | X-H torsion
[ 11005 11000 10999 10996 ] final  127.82 input  -57.11 | X-H torsion

> <Gold.Protein.ActiveResidues>
 VAL166  LYS551  ARG553  GLY616  TRP617  ASP618  TYR619  PRO620  LYS621  CYS622 
 ASP623  PHE694  ASN695  SER759  ASP760  ASP761  ALA762  ILE779  LEU786  VAL792 
 PHE793  MET794  SER795  GLU796  ALA797  LYS798  CYS799  TRP800  GLU811  SER814 

> <Gold.Protein.RotatedAtoms>
  152.3939  133.6719  159.6260 H   0  0  0  0  0  0  0  0  0  0  0  0  # atno 6907 bound_to 6896
  150.7842  133.8907  159.3321 H   0  0  0  0  0  0  0  0  0  0  0  0  # atno 6908 bound_to 6896
  151.6687  135.0980  160.0245 H   0  0  0  0  0  0  0  0  0  0  0  0  # atno 6909 bound_to 6896
  144.9941  139.4377  143.5325 H   0  0  0  0  0  0  0  0  0  0  0  0  # atno 7974 bound_to 7965
  156.2758  140.2768  156.1593 H   0  0  0  0  0  0  0  0  0  0  0  0  # atno 8008 bound_to 7997
  155.0771  140.0387  157.2645 H   0  0  0  0  0  0  0  0  0  0  0  0  # atno 8009 bound_to 7997
  154.6994  140.2646  155.6740 H   0  0  0  0  0  0  0  0  0  0  0  0  # atno 8010 bound_to 7997
  140.3130  143.3094  152.0128 H   0  0  0  0  0  0  0  0  0  0  0  0  # atno 10167 bound_to 10162
  156.6001  130.8807  151.2912 H   0  0  0  0  0  0  0  0  0  0  0  0  # atno 10718 bound_to 10713
  153.1555  135.4586  154.9698 H   0  0  0  0  0  0  0  0  0  0  0  0  # atno 10763 bound_to 10752
  154.7858  135.3203  154.7891 H   0  0  0  0  0  0  0  0  0  0  0  0  # atno 10764 bound_to 10752
  153.8389  135.6932  153.4859 H   0  0  0  0  0  0  0  0  0  0  0  0  # atno 10765 bound_to 10752
  139.9528  134.9619  156.8911 H   0  0  0  0  0  0  0  0  0  0  0  0  # atno 11005 bound_to 11000
  146.3438  139.9290  142.8756 LP  0  0  0  0  0  0  0  0  0  0  0  0  # atno 17320 bound_to 7965
  145.2244  140.9948  143.4026 LP  0  0  0  0  0  0  0  0  0  0  0  0  # atno 17321 bound_to 7965
  139.4890  144.6370  151.6955 LP  0  0  0  0  0  0  0  0  0  0  0  0  # atno 17342 bound_to 10162
  140.5552  144.0360  150.6144 LP  0  0  0  0  0  0  0  0  0  0  0  0  # atno 17343 bound_to 10162
  157.7281  130.9653  150.1730 LP  0  0  0  0  0  0  0  0  0  0  0  0  # atno 17370 bound_to 10713
  156.2476  130.3697  149.8268 LP  0  0  0  0  0  0  0  0  0  0  0  0  # atno 17371 bound_to 10713
  140.5680  134.0471  155.7421 LP  0  0  0  0  0  0  0  0  0  0  0  0  # atno 17394 bound_to 11000
  141.1194  133.9487  157.2760 LP  0  0  0  0  0  0  0  0  0  0  0  0  # atno 17395 bound_to 11000

$$$$
