AV-unprocessed.smi:2451|AV-procd|sdf|9674|dock8
  -GOLD-   2272013313D 1   1.00000     0.00000
 Structure written by MMmdl.
 38 39  0  0  0  0  0  0  0  0  1 V2000
  150.9013  144.8223  159.2874 C   0  0  0  0  0  0  0  0  0  0  0  0
  151.9565  143.7010  159.3004 C   0  0  1  0  0  0  0  0  0  0  0  0
  152.3750  143.4038  160.7542 C   0  0  0  0  0  0  0  0  0  0  0  0
  153.4544  142.3185  160.8241 C   0  0  0  0  0  0  0  0  0  0  0  0
  152.9601  141.0298  160.1622 C   0  0  0  0  0  0  0  0  0  0  0  0
  152.5329  141.2769  158.7050 C   0  0  1  0  0  0  0  0  0  0  0  0
  151.9981  140.0245  158.1610 N   0  0  0  0  0  0  0  0  0  0  0  0
  152.8535  138.5569  158.4573 S   0  0  0  0  0  0  0  0  0  0  0  0
  152.4765  137.6008  157.4044 O   0  0  0  0  0  0  0  0  0  0  0  0
  154.2683  138.9015  158.6637 O   0  0  0  0  0  0  0  0  0  0  0  0
  152.1265  137.9908  160.0518 C   0  0  0  0  0  0  0  0  0  0  0  0
  153.0111  136.9445  160.6659 C   0  0  0  0  0  0  0  0  0  0  0  0
  153.5497  136.9057  161.9819 C   0  0  0  0  0  0  0  0  0  0  0  0
  154.2712  135.7470  161.9966 C   0  0  0  0  0  0  0  0  0  0  0  0
  154.1916  135.1226  160.7945 O   0  0  0  0  0  0  0  0  0  0  0  0
  153.3865  135.8960  159.9504 N   0  0  0  0  0  0  0  0  0  0  0  0
  151.4812  142.4105  158.5734 C   0  0  2  0  0  0  0  0  0  0  0  0
  151.1597  142.6822  157.0873 C   0  0  0  0  0  0  0  0  0  0  0  0
  149.9565  144.4825  159.7127 H   0  0  0  0  0  0  0  0  0  0  0  0
  150.7055  145.1861  158.2793 H   0  0  0  0  0  0  0  0  0  0  0  0
  151.2357  145.6811  159.8699 H   0  0  0  0  0  0  0  0  0  0  0  0
  152.8382  144.0763  158.7785 H   0  0  0  0  0  0  0  0  0  0  0  0
  152.7488  144.3123  161.2283 H   0  0  0  0  0  0  0  0  0  0  0  0
  151.5049  143.0908  161.3333 H   0  0  0  0  0  0  0  0  0  0  0  0
  154.3620  142.6653  160.3283 H   0  0  0  0  0  0  0  0  0  0  0  0
  153.7215  142.1247  161.8634 H   0  0  0  0  0  0  0  0  0  0  0  0
  153.7451  140.2734  160.2000 H   0  0  0  0  0  0  0  0  0  0  0  0
  152.1197  140.6324  160.7332 H   0  0  0  0  0  0  0  0  0  0  0  0
  153.4181  141.5630  158.1350 H   0  0  0  0  0  0  0  0  0  0  0  0
  151.0050  139.9247  158.3699 H   0  0  0  0  0  0  0  0  0  0  0  0
  152.0086  138.8549  160.7063 H   0  0  0  0  0  0  0  0  0  0  0  0
  151.1342  137.5880  159.8501 H   0  0  0  0  0  0  0  0  0  0  0  0
  153.4228  137.6133  162.7875 H   0  0  0  0  0  0  0  0  0  0  0  0
  154.8683  135.2539  162.7495 H   0  0  0  0  0  0  0  0  0  0  0  0
  150.5631  142.0737  159.0579 H   0  0  0  0  0  0  0  0  0  0  0  0
  152.0293  143.0761  156.5604 H   0  0  0  0  0  0  0  0  0  0  0  0
  150.3447  143.3952  156.9711 H   0  0  0  0  0  0  0  0  0  0  0  0
  150.8464  141.7762  156.5686 H   0  0  0  0  0  0  0  0  0  0  0  0
  1  2  1  0  0  0  0
  1 19  1  0  0  0  0
  1 20  1  0  0  0  0
  1 21  1  0  0  0  0
  2 17  1  0  0  0  0
  2  3  1  0  0  0  0
  2 22  1  0  0  0  0
  3  4  1  0  0  0  0
  3 23  1  0  0  0  0
  3 24  1  0  0  0  0
  4  5  1  0  0  0  0
  4 25  1  0  0  0  0
  4 26  1  0  0  0  0
  5  6  1  0  0  0  0
  5 27  1  0  0  0  0
  5 28  1  0  0  0  0
  6  7  1  0  0  0  0
  6 17  1  0  0  0  0
  6 29  1  0  0  0  0
  7  8  1  0  0  0  0
  7 30  1  0  0  0  0
  8  9  2  0  0  0  0
  8 10  2  0  0  0  0
  8 11  1  0  0  0  0
 11 12  1  0  0  0  0
 11 31  1  0  0  0  0
 11 32  1  0  0  0  0
 12 16  2  0  0  0  0
 12 13  1  0  0  0  0
 13 14  2  0  0  0  0
 13 33  1  0  0  0  0
 14 15  1  0  0  0  0
 14 34  1  0  0  0  0
 15 16  1  0  0  0  0
 17 18  1  0  0  0  0
 17 35  1  0  0  0  0
 18 36  1  0  0  0  0
 18 37  1  0  0  0  0
 18 38  1  0  0  0  0
M  END
> <s_m_source_file>
AV-unprocessed.smi

> <i_m_source_file_index>
2451

> <i_lp_mmshare_version>
43012

> <i_f3d_flags>
0

> <s_epik_input>
W0NIM11bQ0BASF0xW0NIMl1bQ0gyXVtDSDJdW0NASF0oW0NASF0xW0NIM10pW05IXVMoPU8pKD1PKVtDSDJdYzJbY0hdW2NIXW9uMg==

> <s_epik_cmdline>
J2VwaWtfcHl0aG9uJywgJy1waCcsICc3LjAnLCAnLXRuJywgJzgnLCAnLW1hJywgJzIwMCcsICctbWV0YWxfYmluZGluZycsICctaW1hZScsICc8aW5maWxlLm1hZT4nLCAnLW9tYWUnLCAnPG91dGZpbGUubWFlPic=

> <r_lp_tautomer_probability>
1

> <r_epik_Ionization_Penalty>
8.73668e-05

> <r_epik_Ionization_Penalty_Charging>
0

> <r_epik_Ionization_Penalty_Neutral>
8.73668e-05

> <r_epik_State_Penalty>
-0

> <r_epik_Charging_Adjusted_Penalty>
0

> <i_epik_Tot_Q>
0

> <i_epik_Tot_abs_Q>
0

> <r_epik_Metal_State_Penalty>
0.0716439

> <b_epik_Metal_Only>
0

> <s_lp_Force_Field>
OPLS_2005

> <r_lp_Energy>
6.58047

> <b_lp_Chiralities_Consistent>
1

> <s_lp_Variant>
AV-unprocessed.smi:2451-6

> <Gold.Version>
5.8.1

> <Gold.Id.Protein>
6NUR|6NUR_protein|mol2

> <Gold.PLP.Fitness>
38.8913

> <Gold.PLP.PLP>
-34.7265

> <Gold.PLP.part.hbond>
-2.0960

> <Gold.PLP.part.metal>
0.0000

> <Gold.PLP.part.buried>
-4.8894

> <Gold.PLP.part.nonpolar>
-27.7026

> <Gold.PLP.part.repulsive>
0.0000

> <Gold.PLP.ligand.clash>
0.0000

> <Gold.PLP.ligand.torsion>
0.9879

> <Gold.PLP.Chemscore.Hbond>
2.0000

> <Gold.PLP.Chemscore.CHOScore>
0.0000

> <Gold.PLP.Chemscore.Metal>
0.0000

> <Gold.Chemscore.Hbonds>
donor molecule, donor type, donor heavy atom, donor atom, acceptor molecule, acceptor atom, score
      P1  H  6896  6909       L1    16  0.46
      P1  H  7997  8008       L1    10  1.00

> <Gold.PLP.Chemscore.Internal.Correction>
0.1406

> <Gold.Rescore>
     Score         DG    S(hbond)    S(metal)    S(lipo)     H(rot)  DE(clash)    DE(int)     intcor
     17.38     -19.57       1.96        0.00     100.61       1.66       0.02       2.17       ----

> <Gold.Chemscore.Fitness>
17.3788

> <Gold.Chemscore.DG>
-19.5675

> <Gold.Chemscore.ZeroCoef>
-5.4800

> <Gold.Chemscore.Hbond>
1.9648

> <Gold.Chemscore.Metal>
0.0000

> <Gold.Chemscore.Lipo>
100.6112

> <Gold.Chemscore.Internal_Hbond>
0.0000

> <Gold.Chemscore.DEClash>
0.0182

> <Gold.Chemscore.DEInternal>
2.1705

> <Gold.Chemscore.Rot>
1.6588

> <Gold.Chemscore.Internal.Correction>
   9.000000E+99

> <Gold.Chemscore.Hbonds>
donor molecule, donor type, donor heavy atom, donor atom, acceptor molecule, acceptor atom, score
      P1  H  6896  6909       L1    16  0.01
      P1  H  7997  8008       L1    10  0.38

> <Gold.Chemscore.Hbond.Weighted>
-6.5626

> <Gold.Chemscore.Metal.Weighted>
-0.0000

> <Gold.Chemscore.Lipo.Weighted>
-11.7715

> <Gold.Chemscore.Internal_Hbond.Weighted>
0.0000

> <Gold.Chemscore.DEClash.Weighted>
0.0182

> <Gold.Chemscore.DEInternal.Weighted>
2.1705

> <Gold.Chemscore.Rot.Weighted>
4.2466

> <Gold.Chemscore.Internal.Correction.Weighted>
   9.000000E+99

> <Gold.Protein.RotatedTorsions>
[ 6907 6896 6895 6894 ] final  164.34 input  -60.11 | X-H torsion
[ 7974 7965 7964 7962 ] final -107.08 input  175.53 | X-H torsion
[ 8008 7997 7996 7995 ] final  -91.60 input   59.86 | X-H torsion
[ 10167 10162 10161 10158 ] final   53.77 input  -65.29 | X-H torsion
[ 10718 10713 10712 10709 ] final -152.97 input   66.30 | X-H torsion
[ 10763 10752 10751 10750 ] final  -23.21 input  -60.55 | X-H torsion
[ 11005 11000 10999 10996 ] final   78.11 input  -57.11 | X-H torsion

> <Gold.Protein.ActiveResidues>
 VAL166  LYS551  ARG553  GLY616  TRP617  ASP618  TYR619  PRO620  LYS621  CYS622 
 ASP623  PHE694  ASN695  SER759  ASP760  ASP761  ALA762  ILE779  LEU786  VAL792 
 PHE793  MET794  SER795  GLU796  ALA797  LYS798  CYS799  TRP800  GLU811  SER814 

> <Gold.Protein.RotatedAtoms>
  151.9114  133.3562  159.3864 H   0  0  0  0  0  0  0  0  0  0  0  0  # atno 6907 bound_to 6896
  150.7057  134.4728  159.5443 H   0  0  0  0  0  0  0  0  0  0  0  0  # atno 6908 bound_to 6896
  152.2335  134.8299  160.0521 H   0  0  0  0  0  0  0  0  0  0  0  0  # atno 6909 bound_to 6896
  145.2098  140.9091  143.3321 H   0  0  0  0  0  0  0  0  0  0  0  0  # atno 7974 bound_to 7965
  154.7128  140.0518  157.0566 H   0  0  0  0  0  0  0  0  0  0  0  0  # atno 8008 bound_to 7997
  155.0532  140.3181  155.4666 H   0  0  0  0  0  0  0  0  0  0  0  0  # atno 8009 bound_to 7997
  156.2794  140.2112  156.5658 H   0  0  0  0  0  0  0  0  0  0  0  0  # atno 8010 bound_to 7997
  140.2372  144.3623  150.6393 H   0  0  0  0  0  0  0  0  0  0  0  0  # atno 10167 bound_to 10162
  156.4796  130.8297  151.2524 H   0  0  0  0  0  0  0  0  0  0  0  0  # atno 10718 bound_to 10713
  153.6642  135.6975  153.5167 H   0  0  0  0  0  0  0  0  0  0  0  0  # atno 10763 bound_to 10752
  153.2608  135.4245  155.0891 H   0  0  0  0  0  0  0  0  0  0  0  0  # atno 10764 bound_to 10752
  154.8444  135.3554  154.6187 H   0  0  0  0  0  0  0  0  0  0  0  0  # atno 10765 bound_to 10752
  139.9226  134.7737  156.1608 H   0  0  0  0  0  0  0  0  0  0  0  0  # atno 11005 bound_to 11000
  144.9867  139.3729  143.6235 LP  0  0  0  0  0  0  0  0  0  0  0  0  # atno 17320 bound_to 7965
  146.3400  139.9032  142.8791 LP  0  0  0  0  0  0  0  0  0  0  0  0  # atno 17321 bound_to 7965
  140.6141  143.2171  151.6827 LP  0  0  0  0  0  0  0  0  0  0  0  0  # atno 17342 bound_to 10162
  139.5090  144.3593  152.0577 LP  0  0  0  0  0  0  0  0  0  0  0  0  # atno 17343 bound_to 10162
  157.7484  131.0049  150.3095 LP  0  0  0  0  0  0  0  0  0  0  0  0  # atno 17370 bound_to 10713
  156.3535  130.3835  149.7309 LP  0  0  0  0  0  0  0  0  0  0  0  0  # atno 17371 bound_to 10713
  141.0759  133.6776  156.2235 LP  0  0  0  0  0  0  0  0  0  0  0  0  # atno 17394 bound_to 11000
  140.6429  134.5147  157.5571 LP  0  0  0  0  0  0  0  0  0  0  0  0  # atno 17395 bound_to 11000

$$$$
