AV-unprocessed.smi:1419|AV-procd|sdf|5780|dock8
  -GOLD-   22720 5423D 1   1.00000     0.00000
 Structure written by MMmdl.
 41 42  0  0  0  0  0  0  0  0  1 V2000
  145.5483  134.1444  153.3882 C   0  0  0  0  0  0  0  0  0  0  0  0
  146.7133  133.8534  152.4329 C   0  0  2  0  0  0  0  0  0  0  0  0
  146.5555  132.4759  151.7544 C   0  0  0  0  0  0  0  0  0  0  0  0
  145.6095  132.4987  150.6528 N   0  0  0  0  0  0  0  0  0  0  0  0
  144.4165  133.2071  150.5897 C   0  0  0  0  0  0  0  0  0  0  0  0
  143.8477  132.9118  149.3715 C   0  0  0  0  0  0  0  0  0  0  0  0
  144.6726  132.0363  148.6695 N   0  0  0  0  0  0  0  0  0  0  0  0
  145.6973  131.8397  149.4891 C   0  0  0  0  0  0  0  0  0  0  0  0
  147.9709  133.9155  153.1772 N   0  0  0  0  0  0  0  0  0  0  0  0
  148.4591  132.9535  153.9804 C   0  0  0  0  0  0  0  0  0  0  0  0
  147.9282  131.8465  154.0797 O   0  0  0  0  0  0  0  0  0  0  0  0
  149.5773  133.3019  154.6628 N   0  0  0  0  0  0  0  0  0  0  0  0
  149.9728  134.6611  155.0558 C   0  0  0  0  0  0  0  0  0  0  0  0
  149.6748  134.8261  156.5601 C   0  0  2  0  0  0  0  0  0  0  0  0
  150.0967  136.2009  157.0883 C   0  0  0  0  0  0  0  0  0  0  0  0
  150.3907  133.8291  157.2894 O   0  0  0  0  0  0  0  0  0  0  0  0
  150.0784  132.4911  156.9003 C   0  0  2  0  0  0  0  0  0  0  0  0
  150.9003  131.5336  157.7693 C   0  0  0  0  0  0  0  0  0  0  0  0
  150.3797  132.3216  155.3972 C   0  0  0  0  0  0  0  0  0  0  0  0
  144.5956  134.1346  152.8578 H   0  0  0  0  0  0  0  0  0  0  0  0
  145.6559  135.1255  153.8522 H   0  0  0  0  0  0  0  0  0  0  0  0
  145.4924  133.4025  154.1857 H   0  0  0  0  0  0  0  0  0  0  0  0
  146.6964  134.6246  151.6608 H   0  0  0  0  0  0  0  0  0  0  0  0
  147.5175  132.1229  151.3798 H   0  0  0  0  0  0  0  0  0  0  0  0
  146.2119  131.7368  152.4792 H   0  0  0  0  0  0  0  0  0  0  0  0
  144.0762  133.8384  151.3971 H   0  0  0  0  0  0  0  0  0  0  0  0
  142.9166  133.2599  148.9496 H   0  0  0  0  0  0  0  0  0  0  0  0
  146.5262  131.1927  149.2420 H   0  0  0  0  0  0  0  0  0  0  0  0
  148.4779  134.7873  153.1338 H   0  0  0  0  0  0  0  0  0  0  0  0
  151.0392  134.7931  154.8662 H   0  0  0  0  0  0  0  0  0  0  0  0
  149.4765  135.4468  154.4862 H   0  0  0  0  0  0  0  0  0  0  0  0
  148.6063  134.6969  156.7398 H   0  0  0  0  0  0  0  0  0  0  0  0
  149.5657  137.0004  156.5713 H   0  0  0  0  0  0  0  0  0  0  0  0
  151.1660  136.3645  156.9507 H   0  0  0  0  0  0  0  0  0  0  0  0
  149.8798  136.2920  158.1528 H   0  0  0  0  0  0  0  0  0  0  0  0
  149.0183  132.3070  157.0857 H   0  0  0  0  0  0  0  0  0  0  0  0
  150.6862  130.4948  157.5172 H   0  0  0  0  0  0  0  0  0  0  0  0
  150.6710  131.6732  158.8259 H   0  0  0  0  0  0  0  0  0  0  0  0
  151.9699  131.6979  157.6354 H   0  0  0  0  0  0  0  0  0  0  0  0
  150.1794  131.2960  155.0835 H   0  0  0  0  0  0  0  0  0  0  0  0
  151.4386  132.4934  155.1975 H   0  0  0  0  0  0  0  0  0  0  0  0
  1  2  1  0  0  0  0
  1 20  1  0  0  0  0
  1 21  1  0  0  0  0
  1 22  1  0  0  0  0
  2  3  1  0  0  0  0
  2  9  1  0  0  0  0
  2 23  1  0  0  0  0
  3  4  1  0  0  0  0
  3 24  1  0  0  0  0
  3 25  1  0  0  0  0
  4  8  1  0  0  0  0
  4  5  1  0  0  0  0
  5  6  2  0  0  0  0
  5 26  1  0  0  0  0
  6  7  1  0  0  0  0
  6 27  1  0  0  0  0
  7  8  2  0  0  0  0
  8 28  1  0  0  0  0
  9 10  1  0  0  0  0
  9 29  1  0  0  0  0
 10 11  2  0  0  0  0
 10 12  1  0  0  0  0
 12 19  1  0  0  0  0
 12 13  1  0  0  0  0
 13 14  1  0  0  0  0
 13 30  1  0  0  0  0
 13 31  1  0  0  0  0
 14 15  1  0  0  0  0
 14 16  1  0  0  0  0
 14 32  1  0  0  0  0
 15 33  1  0  0  0  0
 15 34  1  0  0  0  0
 15 35  1  0  0  0  0
 16 17  1  0  0  0  0
 17 18  1  0  0  0  0
 17 19  1  0  0  0  0
 17 36  1  0  0  0  0
 18 37  1  0  0  0  0
 18 38  1  0  0  0  0
 18 39  1  0  0  0  0
 19 40  1  0  0  0  0
 19 41  1  0  0  0  0
M  END
> <s_m_source_file>
AV-unprocessed.smi

> <i_m_source_file_index>
1419

> <i_lp_mmshare_version>
43012

> <i_f3d_flags>
0

> <s_epik_input>
W2NIXTFuW2NIXVtjSF1uMVtDSDJdW0NAQEhdKFtDSDNdKVtOSF1DKD1PKU4yW0NIMl1bQ0BASF0oW0NIM10pT1tDQEBIXShbQ0gzXSlbQ0gyXTI=

> <s_epik_cmdline>
J2VwaWtfcHl0aG9uJywgJy1waCcsICc3LjAnLCAnLXRuJywgJzgnLCAnLW1hJywgJzIwMCcsICctbWV0YWxfYmluZGluZycsICctaW1hZScsICc8aW5maWxlLm1hZT4nLCAnLW9tYWUnLCAnPG91dGZpbGUubWFlPic=

> <r_lp_tautomer_probability>
1

> <r_epik_Ionization_Penalty>
0.625124

> <r_epik_Ionization_Penalty_Charging>
0.625093

> <r_epik_Ionization_Penalty_Neutral>
3.17415e-05

> <r_epik_State_Penalty>
0.641455

> <r_epik_Charging_Adjusted_Penalty>
1.26655

> <i_epik_Tot_Q>
0

> <i_epik_Tot_abs_Q>
0

> <r_epik_Metal_State_Penalty>
0.307717

> <b_epik_Metal_Only>
0

> <s_lp_Force_Field>
OPLS_2005

> <r_lp_Energy>
27.7679

> <b_lp_Chiralities_Consistent>
1

> <s_lp_Variant>
AV-unprocessed.smi:1419-7

> <Gold.Version>
5.8.1

> <Gold.Id.Protein>
6NUR|6NUR_protein|mol2

> <Gold.PLP.Fitness>
43.4494

> <Gold.PLP.PLP>
-34.3226

> <Gold.PLP.part.hbond>
-3.7717

> <Gold.PLP.part.metal>
0.0000

> <Gold.PLP.part.buried>
-2.8458

> <Gold.PLP.part.nonpolar>
-27.2487

> <Gold.PLP.part.repulsive>
0.7016

> <Gold.PLP.ligand.clash>
0.0000

> <Gold.PLP.ligand.torsion>
0.9004

> <Gold.PLP.Chemscore.Hbond>
1.6160

> <Gold.PLP.Chemscore.CHOScore>
2.0000

> <Gold.PLP.Chemscore.Metal>
0.0000

> <Gold.Chemscore.Hbonds>
donor molecule, donor type, donor heavy atom, donor atom, acceptor molecule, acceptor atom, score
      L1  H     9    29       P1  7948  0.80
      P1  H  6896  6909       L1    16  0.82
      P1  H 10785 10796       L1     7  0.03
      L1  C     6    27       P1 10186  1.00
      L1  C     8    28       P1 10747  0.70

> <Gold.PLP.Chemscore.Internal.Correction>
0.0795

> <Gold.Rescore>
     Score         DG    S(hbond)    S(metal)    S(lipo)     H(rot)  DE(clash)    DE(int)     intcor
     10.36     -12.70       1.37        0.00      57.11       1.58       0.09       2.26       ----

> <Gold.Chemscore.Fitness>
10.3578

> <Gold.Chemscore.DG>
-12.7043

> <Gold.Chemscore.ZeroCoef>
-5.4800

> <Gold.Chemscore.Hbond>
1.3709

> <Gold.Chemscore.Metal>
0.0000

> <Gold.Chemscore.Lipo>
57.1137

> <Gold.Chemscore.Internal_Hbond>
0.0000

> <Gold.Chemscore.DEClash>
0.0871

> <Gold.Chemscore.DEInternal>
2.2594

> <Gold.Chemscore.Rot>
1.5769

> <Gold.Chemscore.Internal.Correction>
   9.000000E+99

> <Gold.Chemscore.Hbonds>
donor molecule, donor type, donor heavy atom, donor atom, acceptor molecule, acceptor atom, score
      L1  H     9    29       P1  7948  0.43
      P1  H  6896  6909       L1    16  0.35
      P1  H 10785 10796       L1     7  0.01

> <Gold.Chemscore.Hbond.Weighted>
-4.5789

> <Gold.Chemscore.Metal.Weighted>
-0.0000

> <Gold.Chemscore.Lipo.Weighted>
-6.6823

> <Gold.Chemscore.Internal_Hbond.Weighted>
0.0000

> <Gold.Chemscore.DEClash.Weighted>
0.0871

> <Gold.Chemscore.DEInternal.Weighted>
2.2594

> <Gold.Chemscore.Rot.Weighted>
4.0369

> <Gold.Chemscore.Internal.Correction.Weighted>
   9.000000E+99

> <Gold.Protein.RotatedTorsions>
[ 6907 6896 6895 6894 ] final   -9.63 input  -60.11 | X-H torsion
[ 7974 7965 7964 7962 ] final -178.90 input  175.53 | X-H torsion
[ 8008 7997 7996 7995 ] final -126.24 input   59.86 | X-H torsion
[ 10167 10162 10161 10158 ] final -110.49 input  -65.29 | X-H torsion
[ 10718 10713 10712 10709 ] final -178.50 input   66.30 | X-H torsion
[ 10763 10752 10751 10750 ] final   88.93 input  -60.55 | X-H torsion
[ 11005 11000 10999 10996 ] final   85.82 input  -57.11 | X-H torsion

> <Gold.Protein.ActiveResidues>
 VAL166  LYS551  ARG553  GLY616  TRP617  ASP618  TYR619  PRO620  LYS621  CYS622 
 ASP623  PHE694  ASN695  SER759  ASP760  ASP761  ALA762  ILE779  LEU786  VAL792 
 PHE793  MET794  SER795  GLU796  ALA797  LYS798  CYS799  TRP800  GLU811  SER814 

> <Gold.Protein.RotatedAtoms>
  151.4147  135.0990  159.9595 H   0  0  0  0  0  0  0  0  0  0  0  0  # atno 6907 bound_to 6896
  152.5008  133.8764  159.7335 H   0  0  0  0  0  0  0  0  0  0  0  0  # atno 6908 bound_to 6896
  150.9267  133.6758  159.2848 H   0  0  0  0  0  0  0  0  0  0  0  0  # atno 6909 bound_to 6896
  144.7133  140.0798  143.6426 H   0  0  0  0  0  0  0  0  0  0  0  0  # atno 7974 bound_to 7965
  155.2265  140.0424  157.2956 H   0  0  0  0  0  0  0  0  0  0  0  0  # atno 8008 bound_to 7997
  154.5916  140.2428  155.7884 H   0  0  0  0  0  0  0  0  0  0  0  0  # atno 8009 bound_to 7997
  156.2263  140.2953  156.0083 H   0  0  0  0  0  0  0  0  0  0  0  0  # atno 8010 bound_to 7997
  140.1439  143.4256  152.1542 H   0  0  0  0  0  0  0  0  0  0  0  0  # atno 10167 bound_to 10162
  156.8451  130.9700  151.3097 H   0  0  0  0  0  0  0  0  0  0  0  0  # atno 10718 bound_to 10713
  153.1819  135.4489  155.0039 H   0  0  0  0  0  0  0  0  0  0  0  0  # atno 10763 bound_to 10752
  154.8035  135.3265  154.7492 H   0  0  0  0  0  0  0  0  0  0  0  0  # atno 10764 bound_to 10752
  153.7955  135.6967  153.4919 H   0  0  0  0  0  0  0  0  0  0  0  0  # atno 10765 bound_to 10752
  139.8961  134.8313  156.2635 H   0  0  0  0  0  0  0  0  0  0  0  0  # atno 11005 bound_to 11000
  145.9712  139.2871  143.1098 LP  0  0  0  0  0  0  0  0  0  0  0  0  # atno 17320 bound_to 7965
  145.9115  140.9177  143.0452 LP  0  0  0  0  0  0  0  0  0  0  0  0  # atno 17321 bound_to 7965
  139.5458  144.7297  151.4587 LP  0  0  0  0  0  0  0  0  0  0  0  0  # atno 17342 bound_to 10162
  140.6743  143.8223  150.7039 LP  0  0  0  0  0  0  0  0  0  0  0  0  # atno 17343 bound_to 10162
  157.6334  130.8747  149.9315 LP  0  0  0  0  0  0  0  0  0  0  0  0  # atno 17370 bound_to 10713
  156.0859  130.3668  150.0489 LP  0  0  0  0  0  0  0  0  0  0  0  0  # atno 17371 bound_to 10713
  141.0147  133.7075  156.1169 LP  0  0  0  0  0  0  0  0  0  0  0  0  # atno 17394 bound_to 11000
  140.7318  134.4246  157.5565 LP  0  0  0  0  0  0  0  0  0  0  0  0  # atno 17395 bound_to 11000

$$$$
