AV-unprocessed.smi:102|AV-procd|sdf|947|dock8
  -GOLD-   2262017473D 1   1.00000     0.00000
 Structure written by MMmdl.
 44 45  0  0  0  0  0  0  0  0  1 V2000
  149.1361  132.8900  153.8347 C   0  0  0  0  0  0  0  0  0  0  0  0
  148.9794  134.1837  154.6225 C   0  0  0  0  0  0  0  0  0  0  0  0
  149.9553  134.7914  155.0625 O   0  0  0  0  0  0  0  0  0  0  0  0
  147.6968  134.5456  154.7627 O   0  0  0  0  0  0  0  0  0  0  0  0
  147.3797  135.8041  155.3373 C   0  0  0  0  0  0  0  0  0  0  0  0
  147.2415  135.6806  156.8614 C   0  0  2  0  0  0  0  0  0  0  0  0
  147.3102  136.9626  157.4813 O   0  0  0  0  0  0  0  0  0  0  0  0
  148.3380  137.0051  158.4272 C   0  0  2  0  0  0  0  0  0  0  0  0
  149.5347  137.6940  157.7846 N   0  0  0  0  0  0  0  0  0  0  0  0
  149.4793  138.4150  156.5934 C   0  0  0  0  0  0  0  0  0  0  0  0
  150.5483  139.0587  156.0675 C   0  0  0  0  0  0  0  0  0  0  0  0
  150.4126  139.7368  154.9152 F   0  0  0  0  0  0  0  0  0  0  0  0
  151.8408  139.0360  156.7425 C   0  0  0  0  0  0  0  0  0  0  0  0
  152.8636  139.5896  156.3442 O   0  0  0  0  0  0  0  0  0  0  0  0
  151.8510  138.3157  157.9386 N   0  0  0  0  0  0  0  0  0  0  0  0
  150.7577  137.6496  158.4932 C   0  0  0  0  0  0  0  0  0  0  0  0
  150.8846  137.0546  159.5628 O   0  0  0  0  0  0  0  0  0  0  0  0
  148.5835  135.5447  158.8414 C   0  0  1  0  0  0  0  0  0  0  0  0
  147.6495  135.1829  159.8555 O   0  0  0  0  0  0  0  0  0  0  0  0
  147.5866  135.8799  161.0032 C   0  0  0  0  0  0  0  0  0  0  0  0
  147.1332  135.0243  162.1784 C   0  0  0  0  0  0  0  0  0  0  0  0
  147.8460  137.0753  161.1403 O   0  0  0  0  0  0  0  0  0  0  0  0
  148.2939  134.7976  157.5407 C   0  0  1  0  0  0  0  0  0  0  0  0
  147.8261  133.4712  157.7576 O   0  0  0  0  0  0  0  0  0  0  0  0
  148.6686  132.5252  158.2082 C   0  0  0  0  0  0  0  0  0  0  0  0
  147.9384  131.2951  158.7306 C   0  0  0  0  0  0  0  0  0  0  0  0
  149.8974  132.6000  158.2275 O   0  0  0  0  0  0  0  0  0  0  0  0
  152.7223  138.2773  158.4471 H   0  0  0  0  0  0  0  0  0  0  0  0
  148.5384  132.9231  152.9237 H   0  0  0  0  0  0  0  0  0  0  0  0
  148.8084  132.0414  154.4350 H   0  0  0  0  0  0  0  0  0  0  0  0
  150.1789  132.7347  153.5578 H   0  0  0  0  0  0  0  0  0  0  0  0
  148.1579  136.5285  155.0934 H   0  0  0  0  0  0  0  0  0  0  0  0
  146.4457  136.1725  154.9108 H   0  0  0  0  0  0  0  0  0  0  0  0
  146.2482  135.2930  157.0913 H   0  0  0  0  0  0  0  0  0  0  0  0
  148.0798  137.6446  159.2740 H   0  0  0  0  0  0  0  0  0  0  0  0
  148.5650  138.4942  156.0295 H   0  0  0  0  0  0  0  0  0  0  0  0
  149.5983  135.3832  159.2042 H   0  0  0  0  0  0  0  0  0  0  0  0
  147.5887  134.0350  162.1302 H   0  0  0  0  0  0  0  0  0  0  0  0
  146.0495  134.9092  162.1643 H   0  0  0  0  0  0  0  0  0  0  0  0
  147.4193  135.4894  163.1219 H   0  0  0  0  0  0  0  0  0  0  0  0
  149.1891  134.7772  156.9197 H   0  0  0  0  0  0  0  0  0  0  0  0
  147.0469  131.0956  158.1355 H   0  0  0  0  0  0  0  0  0  0  0  0
  147.6372  131.4485  159.7668 H   0  0  0  0  0  0  0  0  0  0  0  0
  148.5858  130.4193  158.6844 H   0  0  0  0  0  0  0  0  0  0  0  0
  1  2  1  0  0  0  0
  1 29  1  0  0  0  0
  1 30  1  0  0  0  0
  1 31  1  0  0  0  0
  2  3  2  0  0  0  0
  2  4  1  0  0  0  0
  4  5  1  0  0  0  0
  5  6  1  0  0  0  0
  5 32  1  0  0  0  0
  5 33  1  0  0  0  0
  6 23  1  0  0  0  0
  6  7  1  0  0  0  0
  6 34  1  0  0  0  0
  7  8  1  0  0  0  0
  8  9  1  0  0  0  0
  8 18  1  0  0  0  0
  8 35  1  0  0  0  0
  9 16  1  0  0  0  0
  9 10  1  0  0  0  0
 10 11  2  0  0  0  0
 10 36  1  0  0  0  0
 11 12  1  0  0  0  0
 11 13  1  0  0  0  0
 13 14  2  0  0  0  0
 13 15  1  0  0  0  0
 15 28  1  0  0  0  0
 15 16  1  0  0  0  0
 16 17  2  0  0  0  0
 18 19  1  0  0  0  0
 18 23  1  0  0  0  0
 18 37  1  0  0  0  0
 19 20  1  0  0  0  0
 20 21  1  0  0  0  0
 20 22  2  0  0  0  0
 21 38  1  0  0  0  0
 21 39  1  0  0  0  0
 21 40  1  0  0  0  0
 23 24  1  0  0  0  0
 23 41  1  0  0  0  0
 24 25  1  0  0  0  0
 25 26  1  0  0  0  0
 25 27  2  0  0  0  0
 26 42  1  0  0  0  0
 26 43  1  0  0  0  0
 26 44  1  0  0  0  0
M  END
> <s_m_source_file>
AV-unprocessed.smi

> <i_m_source_file_index>
102

> <i_lp_mmshare_version>
43012

> <i_f3d_flags>
0

> <s_epik_input>
W0NIM11DKD1PKU9bQ0gyXVtDQEBIXTFPW0NASF0oW0NAQEhdKE9DKD1PKVtDSDNdKVtDQEhdMU9DKD1PKVtDSDNdKW4yW2NIXWMoRiljKD1PKVtuSF1jMj1P

> <s_epik_cmdline>
J2VwaWtfcHl0aG9uJywgJy1waCcsICc3LjAnLCAnLXRuJywgJzgnLCAnLW1hJywgJzIwMCcsICctbWV0YWxfYmluZGluZycsICctaW1hZScsICc8aW5maWxlLm1hZT4nLCAnLW9tYWUnLCAnPG91dGZpbGUubWFlPic=

> <r_lp_tautomer_probability>
0.999537

> <r_epik_Ionization_Penalty>
0.058267

> <r_epik_Ionization_Penalty_Charging>
0.058267

> <r_epik_Ionization_Penalty_Neutral>
6.57791e-16

> <r_epik_State_Penalty>
0.0503774

> <r_epik_Charging_Adjusted_Penalty>
0.108644

> <i_epik_Tot_Q>
0

> <i_epik_Tot_abs_Q>
0

> <r_epik_Metal_State_Penalty>
2.6644

> <b_epik_Metal_Only>
0

> <s_epik_Chemistry_Notes>
This compound has an ester and may undergo hydrolysis at high or low pH. This compound contains an acetal/aminal-like group ( X-CH(R)-Y where X, Y are N, S, or O) that may be acid/base labile, releasing an aldehyde.

> <s_lp_Force_Field>
OPLS_2005

> <r_lp_Energy>
12.8292

> <b_lp_Chiralities_Consistent>
1

> <s_lp_Variant>
AV-unprocessed.smi:102-3

> <Gold.Version>
5.8.1

> <Gold.Id.Protein>
6NUR|6NUR_protein|mol2

> <Gold.PLP.Fitness>
40.4532

> <Gold.PLP.PLP>
-28.3336

> <Gold.PLP.part.hbond>
-5.0000

> <Gold.PLP.part.metal>
0.0000

> <Gold.PLP.part.buried>
-4.5122

> <Gold.PLP.part.nonpolar>
-19.4349

> <Gold.PLP.part.repulsive>
0.2591

> <Gold.PLP.ligand.clash>
0.0000

> <Gold.PLP.ligand.torsion>
1.2343

> <Gold.PLP.Chemscore.Hbond>
4.8240

> <Gold.PLP.Chemscore.CHOScore>
0.0000

> <Gold.PLP.Chemscore.Metal>
0.0000

> <Gold.Chemscore.Hbonds>
donor molecule, donor type, donor heavy atom, donor atom, acceptor molecule, acceptor atom, score
      P1  H  6896  6907       L1    27  1.00
      P1  H  6896  6908       L1    17  1.00
      P1  H  6931  6943       L1    22  1.00
      P1  H  6934  6947       L1    22  0.76
      P1  H  7997  8009       L1    14  1.00

> <Gold.PLP.Chemscore.Internal.Correction>
0.1161

> <Gold.Rescore>
     Score         DG    S(hbond)    S(metal)    S(lipo)     H(rot)  DE(clash)    DE(int)     intcor
     10.34     -14.22       4.71        0.00      29.04       4.05       0.00       3.88       ----

> <Gold.Chemscore.Fitness>
10.3428

> <Gold.Chemscore.DG>
-14.2217

> <Gold.Chemscore.ZeroCoef>
-5.4800

> <Gold.Chemscore.Hbond>
4.7059

> <Gold.Chemscore.Metal>
0.0000

> <Gold.Chemscore.Lipo>
29.0355

> <Gold.Chemscore.Internal_Hbond>
0.0000

> <Gold.Chemscore.DEClash>
0.0000

> <Gold.Chemscore.DEInternal>
3.8789

> <Gold.Chemscore.Rot>
4.0520

> <Gold.Chemscore.Internal.Correction>
   9.000000E+99

> <Gold.Chemscore.Hbonds>
donor molecule, donor type, donor heavy atom, donor atom, acceptor molecule, acceptor atom, score
      P1  H  6896  6907       L1    27  1.00
      P1  H  6896  6908       L1    17  0.97
      P1  H  6931  6943       L1    22  0.95
      P1  H  6934  6947       L1    22  0.72
      P1  H  7997  8009       L1    14  0.96

> <Gold.Chemscore.Hbond.Weighted>
-15.7177

> <Gold.Chemscore.Metal.Weighted>
-0.0000

> <Gold.Chemscore.Lipo.Weighted>
-3.3971

> <Gold.Chemscore.Internal_Hbond.Weighted>
0.0000

> <Gold.Chemscore.DEClash.Weighted>
0.0000

> <Gold.Chemscore.DEInternal.Weighted>
3.8789

> <Gold.Chemscore.Rot.Weighted>
10.3732

> <Gold.Chemscore.Internal.Correction.Weighted>
   9.000000E+99

> <Gold.Protein.RotatedTorsions>
[ 6907 6896 6895 6894 ] final -140.77 input  -60.11 | X-H torsion
[ 7974 7965 7964 7962 ] final -167.32 input  175.53 | X-H torsion
[ 8008 7997 7996 7995 ] final -165.94 input   59.86 | X-H torsion
[ 10167 10162 10161 10158 ] final -142.80 input  -65.29 | X-H torsion
[ 10718 10713 10712 10709 ] final   84.45 input   66.30 | X-H torsion
[ 10763 10752 10751 10750 ] final -166.91 input  -60.55 | X-H torsion
[ 11005 11000 10999 10996 ] final   63.98 input  -57.11 | X-H torsion

> <Gold.Protein.ActiveResidues>
 VAL166  LYS551  ARG553  GLY616  TRP617  ASP618  TYR619  PRO620  LYS621  CYS622 
 ASP623  PHE694  ASN695  SER759  ASP760  ASP761  ALA762  ILE779  LEU786  VAL792 
 PHE793  MET794  SER795  GLU796  ALA797  LYS798  CYS799  TRP800  GLU811  SER814 

> <Gold.Protein.RotatedAtoms>
  151.0650  133.5513  159.2631 H   0  0  0  0  0  0  0  0  0  0  0  0  # atno 6907 bound_to 6896
  151.2473  135.0609  159.9058 H   0  0  0  0  0  0  0  0  0  0  0  0  # atno 6908 bound_to 6896
  152.5403  134.0416  159.8124 H   0  0  0  0  0  0  0  0  0  0  0  0  # atno 6909 bound_to 6896
  144.7225  140.2536  143.6275 H   0  0  0  0  0  0  0  0  0  0  0  0  # atno 7974 bound_to 7965
  155.8569  140.0972  157.1639 H   0  0  0  0  0  0  0  0  0  0  0  0  # atno 8008 bound_to 7997
  154.3988  140.1372  156.3975 H   0  0  0  0  0  0  0  0  0  0  0  0  # atno 8009 bound_to 7997
  155.7900  140.3456  155.5346 H   0  0  0  0  0  0  0  0  0  0  0  0  # atno 8010 bound_to 7997
  139.8053  143.7776  152.2660 H   0  0  0  0  0  0  0  0  0  0  0  0  # atno 10167 bound_to 10162
  157.6898  131.0134  150.2675 H   0  0  0  0  0  0  0  0  0  0  0  0  # atno 10718 bound_to 10713
  154.6785  135.2950  154.9645 H   0  0  0  0  0  0  0  0  0  0  0  0  # atno 10763 bound_to 10752
  154.0648  135.6626  153.4820 H   0  0  0  0  0  0  0  0  0  0  0  0  # atno 10764 bound_to 10752
  153.0532  135.5161  154.7817 H   0  0  0  0  0  0  0  0  0  0  0  0  # atno 10765 bound_to 10752
  139.9989  134.6474  155.9964 H   0  0  0  0  0  0  0  0  0  0  0  0  # atno 11005 bound_to 11000
  145.8204  139.2041  143.1941 LP  0  0  0  0  0  0  0  0  0  0  0  0  # atno 17320 bound_to 7965
  146.0519  140.8061  142.9777 LP  0  0  0  0  0  0  0  0  0  0  0  0  # atno 17321 bound_to 7965
  139.7909  144.7410  150.9956 LP  0  0  0  0  0  0  0  0  0  0  0  0  # atno 17342 bound_to 10162
  140.7819  143.4443  151.0505 LP  0  0  0  0  0  0  0  0  0  0  0  0  # atno 17343 bound_to 10162
  156.3243  130.3790  149.7547 LP  0  0  0  0  0  0  0  0  0  0  0  0  # atno 17370 bound_to 10713
  156.5107  130.8170  151.3167 LP  0  0  0  0  0  0  0  0  0  0  0  0  # atno 17371 bound_to 10713
  141.1626  133.6538  156.4370 LP  0  0  0  0  0  0  0  0  0  0  0  0  # atno 17394 bound_to 11000
  140.4766  134.6704  157.5152 LP  0  0  0  0  0  0  0  0  0  0  0  0  # atno 17395 bound_to 11000

$$$$
