AV-unprocessed.smi:1975|AV-procd|sdf|7982|dock3
  -GOLD-   2272010163D 1   1.00000     0.00000
 Structure written by MMmdl.
 33 34  0  0  0  0  0  0  0  0  1 V2000
  152.1956  145.5672  159.5632 C   0  0  0  0  0  0  0  0  0  0  0  0
  151.0309  144.6184  159.2427 C   0  0  0  0  0  0  0  0  0  0  0  0
  151.4681  143.2995  158.8650 N   0  0  0  0  0  0  0  0  0  0  0  0
  151.0915  142.7243  157.6693 C   0  0  0  0  0  0  0  0  0  0  0  0
  151.4760  141.4830  157.3075 C   0  0  0  0  0  0  0  0  0  0  0  0
  151.0750  140.9041  156.0682 C   0  0  0  0  0  0  0  0  0  0  0  0
  150.7648  140.4147  155.0663 N   0  0  0  0  0  0  0  0  0  0  0  0
  152.3230  140.6722  158.1790 C   0  0  0  0  0  0  0  0  0  0  0  0
  152.6905  139.5302  157.8978 O   0  0  0  0  0  0  0  0  0  0  0  0
  152.7016  141.2817  159.4025 N   0  0  0  0  0  0  0  0  0  0  0  0
  153.5361  140.5124  160.3519 C   0  0  0  0  0  0  0  0  0  0  0  0
  154.9019  140.1054  159.7767 C   0  0  0  0  0  0  0  0  0  0  0  0
  154.9894  139.2517  158.8926 O   0  0  0  0  0  0  0  0  0  0  0  0
  155.9632  140.7403  160.2947 N   0  0  0  0  0  0  0  0  0  0  0  0
  157.3228  140.5296  159.9156 C   0  0  0  0  0  0  0  0  0  0  0  0
  157.8211  139.1019  159.8503 C   0  0  0  0  0  0  0  0  0  0  0  0
  158.2706  139.9998  160.9696 C   0  0  0  0  0  0  0  0  0  0  0  0
  152.2824  142.5827  159.7722 C   0  0  0  0  0  0  0  0  0  0  0  0
  152.6133  143.0692  160.8568 O   0  0  0  0  0  0  0  0  0  0  0  0
  151.8226  146.5422  159.8773 H   0  0  0  0  0  0  0  0  0  0  0  0
  152.8380  145.7242  158.6964 H   0  0  0  0  0  0  0  0  0  0  0  0
  152.8131  145.1722  160.3703 H   0  0  0  0  0  0  0  0  0  0  0  0
  150.3931  144.4833  160.1171 H   0  0  0  0  0  0  0  0  0  0  0  0
  150.3898  144.9947  158.4434 H   0  0  0  0  0  0  0  0  0  0  0  0
  150.4612  143.2880  156.9963 H   0  0  0  0  0  0  0  0  0  0  0  0
  153.7060  141.0714  161.2733 H   0  0  0  0  0  0  0  0  0  0  0  0
  153.0131  139.6135  160.6834 H   0  0  0  0  0  0  0  0  0  0  0  0
  155.7952  141.4278  161.0150 H   0  0  0  0  0  0  0  0  0  0  0  0
  157.7536  141.2205  159.1921 H   0  0  0  0  0  0  0  0  0  0  0  0
  157.1203  138.3061  160.0953 H   0  0  0  0  0  0  0  0  0  0  0  0
  158.5480  138.8595  159.0778 H   0  0  0  0  0  0  0  0  0  0  0  0
  159.2984  140.3563  160.9445 H   0  0  0  0  0  0  0  0  0  0  0  0
  157.8704  139.8030  161.9623 H   0  0  0  0  0  0  0  0  0  0  0  0
  1  2  1  0  0  0  0
  1 20  1  0  0  0  0
  1 21  1  0  0  0  0
  1 22  1  0  0  0  0
  2  3  1  0  0  0  0
  2 23  1  0  0  0  0
  2 24  1  0  0  0  0
  3 18  1  0  0  0  0
  3  4  1  0  0  0  0
  4  5  2  0  0  0  0
  4 25  1  0  0  0  0
  5  6  1  0  0  0  0
  5  8  1  0  0  0  0
  6  7  3  0  0  0  0
  8  9  2  0  0  0  0
  8 10  1  0  0  0  0
 10 11  1  0  0  0  0
 10 18  1  0  0  0  0
 11 12  1  0  0  0  0
 11 26  1  0  0  0  0
 11 27  1  0  0  0  0
 12 13  2  0  0  0  0
 12 14  1  0  0  0  0
 14 15  1  0  0  0  0
 14 28  1  0  0  0  0
 15 17  1  0  0  0  0
 15 16  1  0  0  0  0
 15 29  1  0  0  0  0
 16 17  1  0  0  0  0
 16 30  1  0  0  0  0
 16 31  1  0  0  0  0
 17 32  1  0  0  0  0
 17 33  1  0  0  0  0
 18 19  2  0  0  0  0
M  END
> <s_m_source_file>
AV-unprocessed.smi

> <i_m_source_file_index>
1975

> <i_lp_mmshare_version>
43012

> <i_f3d_flags>
0

> <s_epik_input>
W0NIM11bQ0gyXW4xW2NIXWMoQyNOKWMoPU8pbihjMT1PKVtDSDJdQyg9TylbTkhdW0NIXTJbQ0gyXVtDSDJdMg==

> <s_epik_cmdline>
J2VwaWtfcHl0aG9uJywgJy1waCcsICc3LjAnLCAnLXRuJywgJzgnLCAnLW1hJywgJzIwMCcsICctbWV0YWxfYmluZGluZycsICctaW1hZScsICc8aW5maWxlLm1hZT4nLCAnLW9tYWUnLCAnPG91dGZpbGUubWFlPic=

> <r_lp_tautomer_probability>
1

> <r_epik_Ionization_Penalty>
2.07081e-08

> <r_epik_Ionization_Penalty_Charging>
3.77987e-11

> <r_epik_Ionization_Penalty_Neutral>
2.06703e-08

> <r_epik_State_Penalty>
-0

> <r_epik_Charging_Adjusted_Penalty>
3.77987e-11

> <i_epik_Tot_Q>
0

> <i_epik_Tot_abs_Q>
0

> <r_epik_Metal_State_Penalty>
-0

> <b_epik_Metal_Only>
0

> <s_lp_Force_Field>
OPLS_2005

> <r_lp_Energy>
17.9293

> <b_lp_Chiralities_Consistent>
1

> <s_lp_Variant>
AV-unprocessed.smi:1975-1

> <Gold.Version>
5.8.1

> <Gold.Id.Protein>
6NUR|6NUR_protein|mol2

> <Gold.PLP.Fitness>
46.2631

> <Gold.PLP.PLP>
-37.5610

> <Gold.PLP.part.hbond>
-3.8773

> <Gold.PLP.part.metal>
0.0000

> <Gold.PLP.part.buried>
-6.1433

> <Gold.PLP.part.nonpolar>
-27.9626

> <Gold.PLP.part.repulsive>
0.1613

> <Gold.PLP.ligand.clash>
0.0000

> <Gold.PLP.ligand.torsion>
0.1747

> <Gold.PLP.Chemscore.Hbond>
2.0000

> <Gold.PLP.Chemscore.CHOScore>
1.0000

> <Gold.PLP.Chemscore.Metal>
0.0000

> <Gold.Chemscore.Hbonds>
donor molecule, donor type, donor heavy atom, donor atom, acceptor molecule, acceptor atom, score
      P1  H  7989  7998       L1     7  1.00
      P1  H  7997  8010       L1    13  1.00
      L1  C     4    25       P1  8028  1.00

> <Gold.PLP.Chemscore.Internal.Correction>
0.0515

> <Gold.Rescore>
     Score         DG    S(hbond)    S(metal)    S(lipo)     H(rot)  DE(clash)    DE(int)     intcor
     10.08     -14.02       1.90        0.00      59.97       1.89       0.27       3.67       ----

> <Gold.Chemscore.Fitness>
10.0784

> <Gold.Chemscore.DG>
-14.0184

> <Gold.Chemscore.ZeroCoef>
-5.4800

> <Gold.Chemscore.Hbond>
1.9023

> <Gold.Chemscore.Metal>
0.0000

> <Gold.Chemscore.Lipo>
59.9725

> <Gold.Chemscore.Internal_Hbond>
0.0000

> <Gold.Chemscore.DEClash>
0.2715

> <Gold.Chemscore.DEInternal>
3.6685

> <Gold.Chemscore.Rot>
1.8876

> <Gold.Chemscore.Internal.Correction>
   9.000000E+99

> <Gold.Chemscore.Hbonds>
donor molecule, donor type, donor heavy atom, donor atom, acceptor molecule, acceptor atom, score
      P1  H  7989  7998       L1     7  0.95
      P1  H  7997  8010       L1    13  0.74

> <Gold.Chemscore.Hbond.Weighted>
-6.3538

> <Gold.Chemscore.Metal.Weighted>
-0.0000

> <Gold.Chemscore.Lipo.Weighted>
-7.0168

> <Gold.Chemscore.Internal_Hbond.Weighted>
0.0000

> <Gold.Chemscore.DEClash.Weighted>
0.2715

> <Gold.Chemscore.DEInternal.Weighted>
3.6685

> <Gold.Chemscore.Rot.Weighted>
4.8323

> <Gold.Chemscore.Internal.Correction.Weighted>
   9.000000E+99

> <Gold.Protein.RotatedTorsions>
[ 6907 6896 6895 6894 ] final -105.15 input  -60.11 | X-H torsion
[ 7974 7965 7964 7962 ] final  120.57 input  175.53 | X-H torsion
[ 8008 7997 7996 7995 ] final   -2.60 input   59.86 | X-H torsion
[ 10167 10162 10161 10158 ] final  -97.07 input  -65.29 | X-H torsion
[ 10718 10713 10712 10709 ] final  104.96 input   66.30 | X-H torsion
[ 10763 10752 10751 10750 ] final   94.72 input  -60.55 | X-H torsion
[ 11005 11000 10999 10996 ] final  -20.38 input  -57.11 | X-H torsion

> <Gold.Protein.ActiveResidues>
 VAL166  LYS551  ARG553  GLY616  TRP617  ASP618  TYR619  PRO620  LYS621  CYS622 
 ASP623  PHE694  ASN695  SER759  ASP760  ASP761  ALA762  ILE779  LEU786  VAL792 
 PHE793  MET794  SER795  GLU796  ALA797  LYS798  CYS799  TRP800  GLU811  SER814 

> <Gold.Protein.RotatedAtoms>
  150.7322  134.0170  159.3688 H   0  0  0  0  0  0  0  0  0  0  0  0  # atno 6907 bound_to 6896
  151.8133  135.0672  160.0425 H   0  0  0  0  0  0  0  0  0  0  0  0  # atno 6908 bound_to 6896
  152.3057  133.5664  159.5684 H   0  0  0  0  0  0  0  0  0  0  0  0  # atno 6909 bound_to 6896
  145.1296  139.3336  143.4672 H   0  0  0  0  0  0  0  0  0  0  0  0  # atno 7974 bound_to 7965
  154.6339  140.2530  155.7401 H   0  0  0  0  0  0  0  0  0  0  0  0  # atno 8008 bound_to 7997
  156.2494  140.2901  156.0623 H   0  0  0  0  0  0  0  0  0  0  0  0  # atno 8009 bound_to 7997
  155.1701  140.0386  157.2851 H   0  0  0  0  0  0  0  0  0  0  0  0  # atno 8010 bound_to 7997
  140.2872  143.3244  152.0382 H   0  0  0  0  0  0  0  0  0  0  0  0  # atno 10167 bound_to 10162
  157.6722  131.0816  150.5785 H   0  0  0  0  0  0  0  0  0  0  0  0  # atno 10718 bound_to 10713
  153.2449  135.4279  155.0737 H   0  0  0  0  0  0  0  0  0  0  0  0  # atno 10763 bound_to 10752
  154.8357  135.3411  154.6596 H   0  0  0  0  0  0  0  0  0  0  0  0  # atno 10764 bound_to 10752
  153.7019  135.7028  153.5117 H   0  0  0  0  0  0  0  0  0  0  0  0  # atno 10765 bound_to 10752
  140.8458  133.7892  155.9911 H   0  0  0  0  0  0  0  0  0  0  0  0  # atno 11005 bound_to 11000
  146.3515  140.1290  142.8598 LP  0  0  0  0  0  0  0  0  0  0  0  0  # atno 17320 bound_to 7965
  145.0650  140.9115  143.4916 LP  0  0  0  0  0  0  0  0  0  0  0  0  # atno 17321 bound_to 7965
  139.4947  144.6550  151.6592 LP  0  0  0  0  0  0  0  0  0  0  0  0  # atno 17342 bound_to 10162
  140.5762  144.0024  150.6243 LP  0  0  0  0  0  0  0  0  0  0  0  0  # atno 17343 bound_to 10162
  156.6086  130.4374  149.5868 LP  0  0  0  0  0  0  0  0  0  0  0  0  # atno 17370 bound_to 10713
  156.2448  130.6872  151.1590 LP  0  0  0  0  0  0  0  0  0  0  0  0  # atno 17371 bound_to 10713
  140.8844  134.2571  157.5127 LP  0  0  0  0  0  0  0  0  0  0  0  0  # atno 17394 bound_to 11000
  139.8703  134.9631  156.4451 LP  0  0  0  0  0  0  0  0  0  0  0  0  # atno 17395 bound_to 11000

$$$$
