AV-unprocessed.smi:2041|AV-procd|sdf|8292|dock2
  -GOLD-   2272010553D 1   1.00000     0.00000
 Structure written by MMmdl.
 30 31  0  0  0  0  0  0  0  0  2 V2000
  151.3523  138.7991  157.1993 O   0  0  0  0  0  0  0  0  0  0  0  0
  151.8525  139.8854  157.5008 C   0  0  0  0  0  0  0  0  0  0  0  0
  152.9924  140.0760  158.2038 N   0  5  0  0  0  0  0  0  0  0  0  0
  153.0077  140.9276  159.2420 C   0  0  0  0  0  0  0  0  0  0  0  0
  152.2201  142.0071  159.3114 N   0  0  0  0  0  0  0  0  0  0  0  0
  152.3939  142.7468  160.4826 C   0  0  0  0  0  0  0  0  0  0  0  0
  153.3305  142.2142  161.3282 C   0  0  0  0  0  0  0  0  0  0  0  0
  154.0263  140.7587  160.6748 S   0  0  0  0  0  0  0  0  0  0  0  0
  151.2552  141.0260  157.1224 N   0  0  0  0  0  0  0  0  0  0  0  0
  150.0094  141.1423  156.3609 C   0  0  2  0  0  0  0  0  0  0  0  0
  148.9111  140.3521  157.1161 C   0  0  0  0  0  0  0  0  0  0  0  0
  147.6369  140.0052  156.3135 C   0  0  0  0  0  0  0  0  0  0  0  0
  147.0700  141.1526  155.4527 C   0  0  0  0  0  0  0  0  0  0  0  0
  147.9968  141.7150  154.3435 C   0  0  0  0  0  0  0  0  0  0  0  0
  149.1723  140.8950  154.0500 N   0  0  0  0  0  0  0  0  0  0  0  0
  150.1524  140.5994  154.9211 C   0  0  0  0  0  0  0  0  0  0  0  0
  151.1094  139.8989  154.5934 O   0  0  0  0  0  0  0  0  0  0  0  0
  151.8067  143.6406  160.6324 H   0  0  0  0  0  0  0  0  0  0  0  0
  153.6513  142.5849  162.2898 H   0  0  0  0  0  0  0  0  0  0  0  0
  151.6991  141.8893  157.3984 H   0  0  0  0  0  0  0  0  0  0  0  0
  149.7323  142.1967  156.3249 H   0  0  0  0  0  0  0  0  0  0  0  0
  149.3251  139.4194  157.5026 H   0  0  0  0  0  0  0  0  0  0  0  0
  148.6241  140.9303  157.9951 H   0  0  0  0  0  0  0  0  0  0  0  0
  147.8306  139.1416  155.6757 H   0  0  0  0  0  0  0  0  0  0  0  0
  146.8680  139.6719  157.0109 H   0  0  0  0  0  0  0  0  0  0  0  0
  146.1561  140.7903  154.9805 H   0  0  0  0  0  0  0  0  0  0  0  0
  146.7545  141.9701  156.1017 H   0  0  0  0  0  0  0  0  0  0  0  0
  147.4285  141.8349  153.4208 H   0  0  0  0  0  0  0  0  0  0  0  0
  148.3291  142.7194  154.6090 H   0  0  0  0  0  0  0  0  0  0  0  0
  149.2547  140.5331  153.1111 H   0  0  0  0  0  0  0  0  0  0  0  0
  1  2  2  0  0  0  0
  2  3  1  0  0  0  0
  2  9  1  0  0  0  0
  3  4  1  0  0  0  0
  4  8  1  0  0  0  0
  4  5  2  0  0  0  0
  5  6  1  0  0  0  0
  6  7  2  0  0  0  0
  6 18  1  0  0  0  0
  7  8  1  0  0  0  0
  7 19  1  0  0  0  0
  9 10  1  0  0  0  0
  9 20  1  0  0  0  0
 10 16  1  0  0  0  0
 10 11  1  0  0  0  0
 10 21  1  0  0  0  0
 11 12  1  0  0  0  0
 11 22  1  0  0  0  0
 11 23  1  0  0  0  0
 12 13  1  0  0  0  0
 12 24  1  0  0  0  0
 12 25  1  0  0  0  0
 13 14  1  0  0  0  0
 13 26  1  0  0  0  0
 13 27  1  0  0  0  0
 14 15  1  0  0  0  0
 14 28  1  0  0  0  0
 14 29  1  0  0  0  0
 15 16  1  0  0  0  0
 15 30  1  0  0  0  0
 16 17  2  0  0  0  0
M  CHG  1   3  -1
M  END
> <s_m_source_file>
AV-unprocessed.smi

> <i_m_source_file_index>
2041

> <i_lp_mmshare_version>
43012

> <i_f3d_flags>
0

> <s_epik_input>
czFbY0hdW2NIXW5jMVtOSF1DKD1PKVtOSF1bQ0BASF0yW0NIMl1bQ0gyXVtDSDJdW0NIMl1bTkhdQzI9Tw==

> <s_epik_cmdline>
J2VwaWtfcHl0aG9uJywgJy1waCcsICc3LjAnLCAnLXRuJywgJzgnLCAnLW1hJywgJzIwMCcsICctbWV0YWxfYmluZGluZycsICctaW1hZScsICc8aW5maWxlLm1hZT4nLCAnLW9tYWUnLCAnPG91dGZpbGUubWFlPic=

> <r_lp_tautomer_probability>
1

> <r_epik_Ionization_Penalty>
7.83857

> <r_epik_Ionization_Penalty_Charging>
6.39911

> <r_epik_Ionization_Penalty_Neutral>
1.43945

> <r_epik_State_Penalty>
6.3991

> <r_epik_Charging_Adjusted_Penalty>
12.7982

> <i_epik_Tot_Q>
-1

> <i_epik_Tot_abs_Q>
1

> <r_epik_Metal_State_Penalty>
2.33024

> <b_epik_Metal_Only>
1

> <s_lp_Force_Field>
OPLS_2005

> <r_lp_Energy>
11.6521

> <b_lp_Chiralities_Consistent>
1

> <s_lp_Variant>
AV-unprocessed.smi:2041-3

> <Gold.Version>
5.8.1

> <Gold.Id.Protein>
6NUR|6NUR_protein|mol2

> <Gold.PLP.Fitness>
38.0399

> <Gold.PLP.PLP>
-28.0207

> <Gold.PLP.part.hbond>
-2.9672

> <Gold.PLP.part.metal>
0.0000

> <Gold.PLP.part.buried>
-3.3728

> <Gold.PLP.part.nonpolar>
-21.6774

> <Gold.PLP.part.repulsive>
0.3592

> <Gold.PLP.ligand.clash>
0.0000

> <Gold.PLP.ligand.torsion>
0.6548

> <Gold.PLP.Chemscore.Hbond>
3.7750

> <Gold.PLP.Chemscore.CHOScore>
0.0000

> <Gold.PLP.Chemscore.Metal>
0.0000

> <Gold.Chemscore.Hbonds>
donor molecule, donor type, donor heavy atom, donor atom, acceptor molecule, acceptor atom, score
      L1  H    15    30       P1  7957  0.98
      P1  H  7989  7998       L1    17  0.80
      P1  H  7997  8009       L1     3  2.00

> <Gold.PLP.Chemscore.Internal.Correction>
0.0037

> <Gold.Rescore>
     Score         DG    S(hbond)    S(metal)    S(lipo)     H(rot)  DE(clash)    DE(int)     intcor
     10.67     -14.57       1.72        0.00      50.30       1.00       0.03       3.86       ----

> <Gold.Chemscore.Fitness>
10.6742

> <Gold.Chemscore.DG>
-14.5653

> <Gold.Chemscore.ZeroCoef>
-5.4800

> <Gold.Chemscore.Hbond>
1.7245

> <Gold.Chemscore.Metal>
0.0000

> <Gold.Chemscore.Lipo>
50.3039

> <Gold.Chemscore.Internal_Hbond>
0.0000

> <Gold.Chemscore.DEClash>
0.0294

> <Gold.Chemscore.DEInternal>
3.8618

> <Gold.Chemscore.Rot>
1.0000

> <Gold.Chemscore.Internal.Correction>
   9.000000E+99

> <Gold.Chemscore.Hbonds>
donor molecule, donor type, donor heavy atom, donor atom, acceptor molecule, acceptor atom, score
      L1  H    15    30       P1  7957  0.91
      P1  H  7989  7998       L1    17  0.11
      P1  H  7997  8009       L1     3  0.67

> <Gold.Chemscore.Hbond.Weighted>
-5.7598

> <Gold.Chemscore.Metal.Weighted>
-0.0000

> <Gold.Chemscore.Lipo.Weighted>
-5.8856

> <Gold.Chemscore.Internal_Hbond.Weighted>
0.0000

> <Gold.Chemscore.DEClash.Weighted>
0.0294

> <Gold.Chemscore.DEInternal.Weighted>
3.8618

> <Gold.Chemscore.Rot.Weighted>
2.5600

> <Gold.Chemscore.Internal.Correction.Weighted>
   9.000000E+99

> <Gold.Protein.RotatedTorsions>
[ 6907 6896 6895 6894 ] final   36.89 input  -60.11 | X-H torsion
[ 7974 7965 7964 7962 ] final -153.19 input  175.53 | X-H torsion
[ 8008 7997 7996 7995 ] final  157.47 input   59.86 | X-H torsion
[ 10167 10162 10161 10158 ] final -171.38 input  -65.29 | X-H torsion
[ 10718 10713 10712 10709 ] final   90.77 input   66.30 | X-H torsion
[ 10763 10752 10751 10750 ] final  -93.62 input  -60.55 | X-H torsion
[ 11005 11000 10999 10996 ] final -101.29 input  -57.11 | X-H torsion

> <Gold.Protein.ActiveResidues>
 VAL166  LYS551  ARG553  GLY616  TRP617  ASP618  TYR619  PRO620  LYS621  CYS622 
 ASP623  PHE694  ASN695  SER759  ASP760  ASP761  ALA762  ILE779  LEU786  VAL792 
 PHE793  MET794  SER795  GLU796  ALA797  LYS798  CYS799  TRP800  GLU811  SER814 

> <Gold.Protein.RotatedAtoms>
  152.1358  134.9100  160.0556 H   0  0  0  0  0  0  0  0  0  0  0  0  # atno 6907 bound_to 6896
  152.0187  133.3885  159.4257 H   0  0  0  0  0  0  0  0  0  0  0  0  # atno 6908 bound_to 6896
  150.6860  134.3571  159.4978 H   0  0  0  0  0  0  0  0  0  0  0  0  # atno 6909 bound_to 6896
  144.7754  140.4559  143.5877 H   0  0  0  0  0  0  0  0  0  0  0  0  # atno 7974 bound_to 7965
  156.2362  140.1884  156.7113 H   0  0  0  0  0  0  0  0  0  0  0  0  # atno 8008 bound_to 7997
  154.6111  140.0622  156.9521 H   0  0  0  0  0  0  0  0  0  0  0  0  # atno 8009 bound_to 7997
  155.2015  140.3292  155.4345 H   0  0  0  0  0  0  0  0  0  0  0  0  # atno 8010 bound_to 7997
  139.5806  144.1433  152.1509 H   0  0  0  0  0  0  0  0  0  0  0  0  # atno 10167 bound_to 10162
  157.6959  131.0383  150.3627 H   0  0  0  0  0  0  0  0  0  0  0  0  # atno 10718 bound_to 10713
  154.6976  135.5188  153.8481 H   0  0  0  0  0  0  0  0  0  0  0  0  # atno 10763 bound_to 10752
  153.0679  135.6591  154.0321 H   0  0  0  0  0  0  0  0  0  0  0  0  # atno 10764 bound_to 10752
  154.0186  135.2995  155.3363 H   0  0  0  0  0  0  0  0  0  0  0  0  # atno 10765 bound_to 10752
  141.1237  133.8466  157.1212 H   0  0  0  0  0  0  0  0  0  0  0  0  # atno 11005 bound_to 11000
  145.6202  139.1523  143.3027 LP  0  0  0  0  0  0  0  0  0  0  0  0  # atno 17320 bound_to 7965
  146.1929  140.6313  142.9137 LP  0  0  0  0  0  0  0  0  0  0  0  0  # atno 17321 bound_to 7965
  140.0985  144.5560  150.7005 LP  0  0  0  0  0  0  0  0  0  0  0  0  # atno 17342 bound_to 10162
  140.7084  143.2486  151.4655 LP  0  0  0  0  0  0  0  0  0  0  0  0  # atno 17343 bound_to 10162
  156.4062  130.3925  149.6924 LP  0  0  0  0  0  0  0  0  0  0  0  0  # atno 17370 bound_to 10713
  156.4224  130.7775  151.2793 LP  0  0  0  0  0  0  0  0  0  0  0  0  # atno 17371 bound_to 10713
  140.0216  134.9943  157.0602 LP  0  0  0  0  0  0  0  0  0  0  0  0  # atno 17394 bound_to 11000
  140.4431  134.1660  155.7175 LP  0  0  0  0  0  0  0  0  0  0  0  0  # atno 17395 bound_to 11000

$$$$
