AV-unprocessed.smi:285|AV-procd|sdf|2172|dock4
  -GOLD-   2262021533D 1   1.00000     0.00000
 Structure written by MMmdl.
 31 33  0  0  0  0  0  0  0  0  1 V2000
  141.9390  139.2714  154.2323 N   0  0  0  0  0  0  0  0  0  0  0  0
  141.7578  137.9663  153.9853 C   0  0  0  0  0  0  0  0  0  0  0  0
  140.6616  137.3610  154.4993 N   0  0  0  0  0  0  0  0  0  0  0  0
  140.4584  136.0596  154.2702 C   0  0  0  0  0  0  0  0  0  0  0  0
  141.2120  135.2060  153.5720 N   0  0  0  0  0  0  0  0  0  0  0  0
  142.3167  135.8171  153.0510 C   0  0  0  0  0  0  0  0  0  0  0  0
  142.6603  137.1915  153.2135 C   0  0  0  0  0  0  0  0  0  0  0  0
  143.8510  137.4699  152.5540 N   0  0  0  0  0  0  0  0  0  0  0  0
  144.1723  136.3148  152.0417 C   0  0  0  0  0  0  0  0  0  0  0  0
  145.7720  136.1249  151.0250 Br  0  0  0  0  0  0  0  0  0  0  0  0
  143.3189  135.2609  152.2803 N   0  0  0  0  0  0  0  0  0  0  0  0
  143.4261  133.8399  151.8252 C   0  0  1  0  0  0  0  0  0  0  0  0
  143.6014  133.7614  150.3096 C   0  0  0  0  0  0  0  0  0  0  0  0
  144.4652  132.5256  150.1754 C   0  0  2  0  0  0  0  0  0  0  0  0
  143.6681  131.3543  150.1827 O   0  0  0  0  0  0  0  0  0  0  0  0
  145.3667  132.6330  151.4168 C   0  0  2  0  0  0  0  0  0  0  0  0
  145.9443  131.3024  151.9317 C   0  0  0  0  0  0  0  0  0  0  0  0
  146.5539  130.5916  150.8753 O   0  0  0  0  0  0  0  0  0  0  0  0
  144.5534  133.2601  152.4098 O   0  0  0  0  0  0  0  0  0  0  0  0
  142.7497  139.7458  153.8611 H   0  0  0  0  0  0  0  0  0  0  0  0
  141.2649  139.7775  154.7881 H   0  0  0  0  0  0  0  0  0  0  0  0
  139.5648  135.6413  154.7095 H   0  0  0  0  0  0  0  0  0  0  0  0
  142.5295  133.3350  152.1836 H   0  0  0  0  0  0  0  0  0  0  0  0
  142.6402  133.7033  149.7973 H   0  0  0  0  0  0  0  0  0  0  0  0
  144.1434  134.6371  149.9501 H   0  0  0  0  0  0  0  0  0  0  0  0
  145.0468  132.5375  149.2532 H   0  0  0  0  0  0  0  0  0  0  0  0
  142.8478  131.5506  150.6088 H   0  0  0  0  0  0  0  0  0  0  0  0
  146.1790  133.3203  151.1736 H   0  0  0  0  0  0  0  0  0  0  0  0
  146.6576  131.4655  152.7404 H   0  0  0  0  0  0  0  0  0  0  0  0
  145.1453  130.6726  152.3241 H   0  0  0  0  0  0  0  0  0  0  0  0
  147.4497  130.8815  150.7947 H   0  0  0  0  0  0  0  0  0  0  0  0
  1  2  1  0  0  0  0
  1 20  1  0  0  0  0
  1 21  1  0  0  0  0
  2  7  1  0  0  0  0
  2  3  2  0  0  0  0
  3  4  1  0  0  0  0
  4  5  2  0  0  0  0
  4 22  1  0  0  0  0
  5  6  1  0  0  0  0
  6 11  1  0  0  0  0
  6  7  2  0  0  0  0
  7  8  1  0  0  0  0
  8  9  2  0  0  0  0
  9 10  1  0  0  0  0
  9 11  1  0  0  0  0
 11 12  1  0  0  0  0
 12 19  1  0  0  0  0
 12 13  1  0  0  0  0
 12 23  1  0  0  0  0
 13 14  1  0  0  0  0
 13 24  1  0  0  0  0
 13 25  1  0  0  0  0
 14 15  1  0  0  0  0
 14 16  1  0  0  0  0
 14 26  1  0  0  0  0
 15 27  1  0  0  0  0
 16 17  1  0  0  0  0
 16 19  1  0  0  0  0
 16 28  1  0  0  0  0
 17 18  1  0  0  0  0
 17 29  1  0  0  0  0
 17 30  1  0  0  0  0
 18 31  1  0  0  0  0
M  END
> <s_m_source_file>
AV-unprocessed.smi

> <i_m_source_file_index>
285

> <i_lp_mmshare_version>
43012

> <i_f3d_flags>
0

> <s_epik_input>
bjFbY0hdbmMoW05IMl0pYyhjMTIpbmMoQnIpbjJbQ0BASF0zW0NIMl1bQ0BASF0oW09IXSlbQ0BIXShPMylbQ0gyXVtPSF0=

> <s_epik_cmdline>
J2VwaWtfcHl0aG9uJywgJy1waCcsICc3LjAnLCAnLXRuJywgJzgnLCAnLW1hJywgJzIwMCcsICctbWV0YWxfYmluZGluZycsICctaW1hZScsICc8aW5maWxlLm1hZT4nLCAnLW9tYWUnLCAnPG91dGZpbGUubWFlPic=

> <r_lp_tautomer_probability>
1

> <r_epik_Ionization_Penalty>
0.000103242

> <r_epik_Ionization_Penalty_Charging>
0

> <r_epik_Ionization_Penalty_Neutral>
0.000103242

> <r_epik_State_Penalty>
-0

> <r_epik_Charging_Adjusted_Penalty>
0

> <i_epik_Tot_Q>
0

> <i_epik_Tot_abs_Q>
0

> <r_epik_Metal_State_Penalty>
-0

> <b_epik_Metal_Only>
0

> <s_epik_Chemistry_Notes>
This compound contains an acetal/aminal-like group ( X-CH(R)-Y where X, Y are N, S, or O) that may be acid/base labile, releasing an aldehyde.

> <s_lp_Force_Field>
OPLS_2005

> <r_lp_Energy>
37.1806

> <b_lp_Chiralities_Consistent>
1

> <s_lp_Variant>
AV-unprocessed.smi:285-8

> <Gold.Version>
5.8.1

> <Gold.Id.Protein>
6NUR|6NUR_protein|mol2

> <Gold.PLP.Fitness>
36.8730

> <Gold.PLP.PLP>
-27.0633

> <Gold.PLP.part.hbond>
-3.7302

> <Gold.PLP.part.metal>
0.0000

> <Gold.PLP.part.buried>
-2.6807

> <Gold.PLP.part.nonpolar>
-23.0366

> <Gold.PLP.part.repulsive>
2.4440

> <Gold.PLP.ligand.clash>
0.0000

> <Gold.PLP.ligand.torsion>
0.1081

> <Gold.PLP.Chemscore.Hbond>
2.7920

> <Gold.PLP.Chemscore.CHOScore>
0.5489

> <Gold.PLP.Chemscore.Metal>
0.0000

> <Gold.Chemscore.Hbonds>
donor molecule, donor type, donor heavy atom, donor atom, acceptor molecule, acceptor atom, score
      L1  H     1    20       P1 10175  0.99
      L1  H    18    31       P1 10747  1.00
      P1  H 10785 10796       L1    15  0.80
      L1  C     4    22       P1 11000  0.51

> <Gold.PLP.Chemscore.Internal.Correction>
0.0032

> <Gold.Rescore>
     Score         DG    S(hbond)    S(metal)    S(lipo)     H(rot)  DE(clash)    DE(int)     intcor
      9.36     -11.62       2.71        0.00      42.03       3.06       2.16       0.10       ----

> <Gold.Chemscore.Fitness>
9.3615

> <Gold.Chemscore.DG>
-11.6169

> <Gold.Chemscore.ZeroCoef>
-5.4800

> <Gold.Chemscore.Hbond>
2.7109

> <Gold.Chemscore.Metal>
0.0000

> <Gold.Chemscore.Lipo>
42.0334

> <Gold.Chemscore.Internal_Hbond>
0.0000

> <Gold.Chemscore.DEClash>
2.1601

> <Gold.Chemscore.DEInternal>
0.0954

> <Gold.Chemscore.Rot>
3.0607

> <Gold.Chemscore.Internal.Correction>
   9.000000E+99

> <Gold.Chemscore.Hbonds>
donor molecule, donor type, donor heavy atom, donor atom, acceptor molecule, acceptor atom, score
      L1  H     1    20       P1 10175  0.94
      L1  H    18    31       P1 10747  0.97
      P1  H 10785 10796       L1    15  0.40

> <Gold.Chemscore.Hbond.Weighted>
-9.0544

> <Gold.Chemscore.Metal.Weighted>
-0.0000

> <Gold.Chemscore.Lipo.Weighted>
-4.9179

> <Gold.Chemscore.Internal_Hbond.Weighted>
0.0000

> <Gold.Chemscore.DEClash.Weighted>
2.1601

> <Gold.Chemscore.DEInternal.Weighted>
0.0954

> <Gold.Chemscore.Rot.Weighted>
7.8354

> <Gold.Chemscore.Internal.Correction.Weighted>
   9.000000E+99

> <Gold.Protein.RotatedTorsions>
[ 6907 6896 6895 6894 ] final -147.02 input  -60.11 | X-H torsion
[ 7974 7965 7964 7962 ] final  -30.63 input  175.53 | X-H torsion
[ 8008 7997 7996 7995 ] final -156.36 input   59.86 | X-H torsion
[ 10167 10162 10161 10158 ] final  -88.05 input  -65.29 | X-H torsion
[ 10718 10713 10712 10709 ] final  145.25 input   66.30 | X-H torsion
[ 10763 10752 10751 10750 ] final   -9.11 input  -60.55 | X-H torsion
[ 11005 11000 10999 10996 ] final -134.50 input  -57.11 | X-H torsion

> <Gold.Protein.ActiveResidues>
 VAL166  LYS551  ARG553  GLY616  TRP617  ASP618  TYR619  PRO620  LYS621  CYS622 
 ASP623  PHE694  ASN695  SER759  ASP760  ASP761  ALA762  ILE779  LEU786  VAL792 
 PHE793  MET794  SER795  GLU796  ALA797  LYS798  CYS799  TRP800  GLU811  SER814 

> <Gold.Protein.RotatedAtoms>
  151.1498  133.4915  159.2595 H   0  0  0  0  0  0  0  0  0  0  0  0  # atno 6907 bound_to 6896
  151.1566  135.0252  159.8701 H   0  0  0  0  0  0  0  0  0  0  0  0  # atno 6908 bound_to 6896
  152.5463  134.1377  159.8519 H   0  0  0  0  0  0  0  0  0  0  0  0  # atno 6909 bound_to 6896
  146.1128  140.5565  142.8770 H   0  0  0  0  0  0  0  0  0  0  0  0  # atno 7974 bound_to 7965
  155.7159  140.0784  157.2351 H   0  0  0  0  0  0  0  0  0  0  0  0  # atno 8008 bound_to 7997
  154.4052  140.1621  156.2402 H   0  0  0  0  0  0  0  0  0  0  0  0  # atno 8009 bound_to 7997
  155.9240  140.3396  155.6198 H   0  0  0  0  0  0  0  0  0  0  0  0  # atno 8010 bound_to 7997
  140.3784  143.2760  151.9414 H   0  0  0  0  0  0  0  0  0  0  0  0  # atno 10167 bound_to 10162
  157.3475  131.0945  151.1029 H   0  0  0  0  0  0  0  0  0  0  0  0  # atno 10718 bound_to 10713
  153.4500  135.7015  153.6115 H   0  0  0  0  0  0  0  0  0  0  0  0  # atno 10763 bound_to 10752
  153.4453  135.3770  155.2252 H   0  0  0  0  0  0  0  0  0  0  0  0  # atno 10764 bound_to 10752
  154.8728  135.3984  154.3911 H   0  0  0  0  0  0  0  0  0  0  0  0  # atno 10765 bound_to 10752
  140.8984  134.1722  157.4478 H   0  0  0  0  0  0  0  0  0  0  0  0  # atno 11005 bound_to 11000
  144.7526  140.5230  143.6791 LP  0  0  0  0  0  0  0  0  0  0  0  0  # atno 17320 bound_to 7965
  145.5628  139.1480  143.3331 LP  0  0  0  0  0  0  0  0  0  0  0  0  # atno 17321 bound_to 7965
  139.4797  144.5841  151.7883 LP  0  0  0  0  0  0  0  0  0  0  0  0  # atno 17342 bound_to 10162
  140.4962  144.1237  150.5961 LP  0  0  0  0  0  0  0  0  0  0  0  0  # atno 17343 bound_to 10162
  157.2218  130.6484  149.5814 LP  0  0  0  0  0  0  0  0  0  0  0  0  # atno 17370 bound_to 10713
  155.9716  130.4627  150.6155 LP  0  0  0  0  0  0  0  0  0  0  0  0  # atno 17371 bound_to 10713
  139.8739  134.9888  156.5427 LP  0  0  0  0  0  0  0  0  0  0  0  0  # atno 17394 bound_to 11000
  140.8260  133.8316  155.8940 LP  0  0  0  0  0  0  0  0  0  0  0  0  # atno 17395 bound_to 11000

$$$$
