AV-unprocessed.smi:2135|AV-procd|sdf|8699|dock9
  -GOLD-   2272011453D 1   1.00000     0.00000
 Structure written by MMmdl.
 42 43  0  0  0  0  0  0  0  0  1 V2000
  150.8401  139.5097  155.1361 C   0  0  0  0  0  0  0  0  0  0  0  0
  152.0443  138.3376  155.8845 S   0  0  0  0  0  0  0  0  0  0  0  0
  152.5893  137.4924  154.8111 O   0  0  0  0  0  0  0  0  0  0  0  0
  152.9586  139.1076  156.7416 O   0  0  0  0  0  0  0  0  0  0  0  0
  151.0731  137.3280  156.9173 N   0  0  0  0  0  0  0  0  0  0  0  0
  150.2300  137.9382  157.9652 C   0  0  0  0  0  0  0  0  0  0  0  0
  148.7516  137.9959  157.5419 C   0  0  0  0  0  0  0  0  0  0  0  0
  148.2426  136.6152  157.1119 C   0  0  0  0  0  0  0  0  0  0  0  0
  149.1291  136.0630  155.9812 C   0  0  2  0  0  0  0  0  0  0  0  0
  148.6572  134.6740  155.5314 C   0  0  0  0  0  0  0  0  0  0  0  0
  148.5920  133.7476  156.3401 O   0  0  0  0  0  0  0  0  0  0  0  0
  148.3376  134.5410  154.2348 N   0  0  0  0  0  0  0  0  0  0  0  0
  147.8981  133.3024  153.6045 C   0  0  0  0  0  0  0  0  0  0  0  0
  147.8210  133.4441  152.0756 C   0  0  0  0  0  0  0  0  0  0  0  0
  146.3952  133.6113  151.5902 C   0  0  0  0  0  0  0  0  0  0  0  0
  145.6310  134.7377  151.9581 C   0  0  0  0  0  0  0  0  0  0  0  0
  144.3093  134.8443  151.4843 C   0  0  0  0  0  0  0  0  0  0  0  0
  143.8071  133.8167  150.6609 C   0  0  0  0  0  0  0  0  0  0  0  0
  144.5299  132.7336  150.3027 N   0  0  0  0  0  0  0  0  0  0  0  0
  145.7967  132.6392  150.7608 C   0  0  0  0  0  0  0  0  0  0  0  0
  150.6038  136.0123  156.4372 C   0  0  0  0  0  0  0  0  0  0  0  0
  151.3741  140.1954  154.4788 H   0  0  0  0  0  0  0  0  0  0  0  0
  150.3464  140.0836  155.9183 H   0  0  0  0  0  0  0  0  0  0  0  0
  150.1033  138.9632  154.5507 H   0  0  0  0  0  0  0  0  0  0  0  0
  150.3253  137.3415  158.8730 H   0  0  0  0  0  0  0  0  0  0  0  0
  150.5933  138.9352  158.2131 H   0  0  0  0  0  0  0  0  0  0  0  0
  148.1477  138.3707  158.3686 H   0  0  0  0  0  0  0  0  0  0  0  0
  148.6213  138.7047  156.7253 H   0  0  0  0  0  0  0  0  0  0  0  0
  148.2514  135.9415  157.9702 H   0  0  0  0  0  0  0  0  0  0  0  0
  147.2054  136.6897  156.7823 H   0  0  0  0  0  0  0  0  0  0  0  0
  149.0475  136.7377  155.1291 H   0  0  0  0  0  0  0  0  0  0  0  0
  148.4180  135.3525  153.6393 H   0  0  0  0  0  0  0  0  0  0  0  0
  148.5655  132.4847  153.8823 H   0  0  0  0  0  0  0  0  0  0  0  0
  146.9152  133.0512  154.0040 H   0  0  0  0  0  0  0  0  0  0  0  0
  148.4139  134.2992  151.7478 H   0  0  0  0  0  0  0  0  0  0  0  0
  148.2525  132.5675  151.5904 H   0  0  0  0  0  0  0  0  0  0  0  0
  146.0473  135.5060  152.5930 H   0  0  0  0  0  0  0  0  0  0  0  0
  143.6948  135.6929  151.7459 H   0  0  0  0  0  0  0  0  0  0  0  0
  142.7974  133.8657  150.2808 H   0  0  0  0  0  0  0  0  0  0  0  0
  146.3477  131.7604  150.4592 H   0  0  0  0  0  0  0  0  0  0  0  0
  151.2425  135.6600  155.6272 H   0  0  0  0  0  0  0  0  0  0  0  0
  150.7205  135.2943  157.2505 H   0  0  0  0  0  0  0  0  0  0  0  0
  1  2  1  0  0  0  0
  1 22  1  0  0  0  0
  1 23  1  0  0  0  0
  1 24  1  0  0  0  0
  2  3  2  0  0  0  0
  2  4  2  0  0  0  0
  2  5  1  0  0  0  0
  5 21  1  0  0  0  0
  5  6  1  0  0  0  0
  6  7  1  0  0  0  0
  6 25  1  0  0  0  0
  6 26  1  0  0  0  0
  7  8  1  0  0  0  0
  7 27  1  0  0  0  0
  7 28  1  0  0  0  0
  8  9  1  0  0  0  0
  8 29  1  0  0  0  0
  8 30  1  0  0  0  0
  9 10  1  0  0  0  0
  9 21  1  0  0  0  0
  9 31  1  0  0  0  0
 10 11  2  0  0  0  0
 10 12  1  0  0  0  0
 12 13  1  0  0  0  0
 12 32  1  0  0  0  0
 13 14  1  0  0  0  0
 13 33  1  0  0  0  0
 13 34  1  0  0  0  0
 14 15  1  0  0  0  0
 14 35  1  0  0  0  0
 14 36  1  0  0  0  0
 15 20  1  0  0  0  0
 15 16  2  0  0  0  0
 16 17  1  0  0  0  0
 16 37  1  0  0  0  0
 17 18  2  0  0  0  0
 17 38  1  0  0  0  0
 18 19  1  0  0  0  0
 18 39  1  0  0  0  0
 19 20  2  0  0  0  0
 20 40  1  0  0  0  0
 21 41  1  0  0  0  0
 21 42  1  0  0  0  0
M  END
> <s_m_source_file>
AV-unprocessed.smi

> <i_m_source_file_index>
2135

> <i_lp_mmshare_version>
43012

> <i_f3d_flags>
0

> <s_epik_input>
W0NIM11TKD1PKSg9TylOMVtDSDJdW0NIMl1bQ0gyXVtDQEhdKFtDSDJdMSlDKD1PKVtOSF1bQ0gyXVtDSDJdYzJbY0hdW2NIXVtjSF1uW2NIXTI=

> <s_epik_cmdline>
J2VwaWtfcHl0aG9uJywgJy1waCcsICc3LjAnLCAnLXRuJywgJzgnLCAnLW1hJywgJzIwMCcsICctbWV0YWxfYmluZGluZycsICctaW1hZScsICc8aW5maWxlLm1hZT4nLCAnLW9tYWUnLCAnPG91dGZpbGUubWFlPic=

> <r_epik_Ionization_Penalty>
0.0134582

> <r_epik_Ionization_Penalty_Charging>
0

> <r_epik_Ionization_Penalty_Neutral>
0.0134582

> <r_epik_State_Penalty>
0.010475

> <r_epik_Charging_Adjusted_Penalty>
0.010475

> <i_epik_Tot_Q>
0

> <i_epik_Tot_abs_Q>
0

> <r_epik_Metal_State_Penalty>
0.0102416

> <b_epik_Metal_Only>
0

> <s_lp_Force_Field>
OPLS_2005

> <r_lp_Energy>
-1.59051

> <b_lp_Chiralities_Consistent>
1

> <s_lp_Variant>
AV-unprocessed.smi:2135-2

> <Gold.Version>
5.8.1

> <Gold.Id.Protein>
6NUR|6NUR_protein|mol2

> <Gold.PLP.Fitness>
43.6550

> <Gold.PLP.PLP>
-30.5715

> <Gold.PLP.part.hbond>
-3.0000

> <Gold.PLP.part.metal>
0.0000

> <Gold.PLP.part.buried>
-3.6255

> <Gold.PLP.part.nonpolar>
-23.6973

> <Gold.PLP.part.repulsive>
0.2673

> <Gold.PLP.ligand.clash>
0.0000

> <Gold.PLP.ligand.torsion>
1.4329

> <Gold.PLP.Chemscore.Hbond>
2.6240

> <Gold.PLP.Chemscore.CHOScore>
2.0000

> <Gold.PLP.Chemscore.Metal>
0.0000

> <Gold.Chemscore.Hbonds>
donor molecule, donor type, donor heavy atom, donor atom, acceptor molecule, acceptor atom, score
      L1  H    12    32       P1  7948  0.98
      P1  H  7997  8009       L1     4  1.00
      P1  H 10752 10765       L1     3  0.29
      L1  C    18    39       P1 10186  0.95
      L1  C    20    40       P1 10747  0.38

> <Gold.PLP.Chemscore.Internal.Correction>
2.0773

> <Gold.Rescore>
     Score         DG    S(hbond)    S(metal)    S(lipo)     H(rot)  DE(clash)    DE(int)     intcor
     14.19     -16.77       2.33        0.00      64.24       1.56       1.27       1.31       ----

> <Gold.Chemscore.Fitness>
14.1894

> <Gold.Chemscore.DG>
-16.7671

> <Gold.Chemscore.ZeroCoef>
-5.4800

> <Gold.Chemscore.Hbond>
2.3281

> <Gold.Chemscore.Metal>
0.0000

> <Gold.Chemscore.Lipo>
64.2365

> <Gold.Chemscore.Internal_Hbond>
0.0000

> <Gold.Chemscore.DEClash>
1.2717

> <Gold.Chemscore.DEInternal>
1.3059

> <Gold.Chemscore.Rot>
1.5643

> <Gold.Chemscore.Internal.Correction>
   9.000000E+99

> <Gold.Chemscore.Hbonds>
donor molecule, donor type, donor heavy atom, donor atom, acceptor molecule, acceptor atom, score
      L1  H    12    32       P1  7948  0.86
      P1  H  7997  8009       L1     4  1.00
      P1  H 10752 10765       L1     3  0.27

> <Gold.Chemscore.Hbond.Weighted>
-7.7760

> <Gold.Chemscore.Metal.Weighted>
-0.0000

> <Gold.Chemscore.Lipo.Weighted>
-7.5157

> <Gold.Chemscore.Internal_Hbond.Weighted>
0.0000

> <Gold.Chemscore.DEClash.Weighted>
1.2717

> <Gold.Chemscore.DEInternal.Weighted>
1.3059

> <Gold.Chemscore.Rot.Weighted>
4.0046

> <Gold.Chemscore.Internal.Correction.Weighted>
   9.000000E+99

> <Gold.Protein.RotatedTorsions>
[ 6907 6896 6895 6894 ] final  132.69 input  -60.11 | X-H torsion
[ 7974 7965 7964 7962 ] final  -69.80 input  175.53 | X-H torsion
[ 8008 7997 7996 7995 ] final -175.25 input   59.86 | X-H torsion
[ 10167 10162 10161 10158 ] final  -19.95 input  -65.29 | X-H torsion
[ 10718 10713 10712 10709 ] final -133.58 input   66.30 | X-H torsion
[ 10763 10752 10751 10750 ] final  133.33 input  -60.55 | X-H torsion
[ 11005 11000 10999 10996 ] final  -14.56 input  -57.11 | X-H torsion

> <Gold.Protein.ActiveResidues>
 VAL166  LYS551  ARG553  GLY616  TRP617  ASP618  TYR619  PRO620  LYS621  CYS622 
 ASP623  PHE694  ASN695  SER759  ASP760  ASP761  ALA762  ILE779  LEU786  VAL792 
 PHE793  MET794  SER795  GLU796  ALA797  LYS798  CYS799  TRP800  GLU811  SER814 

> <Gold.Protein.RotatedAtoms>
  152.3298  133.5945  159.5801 H   0  0  0  0  0  0  0  0  0  0  0  0  # atno 6907 bound_to 6896
  150.7417  133.9885  159.3608 H   0  0  0  0  0  0  0  0  0  0  0  0  # atno 6908 bound_to 6896
  151.7761  135.0774  160.0418 H   0  0  0  0  0  0  0  0  0  0  0  0  # atno 6909 bound_to 6896
  145.6991  140.9123  143.0740 H   0  0  0  0  0  0  0  0  0  0  0  0  # atno 7974 bound_to 7965
  155.9803  140.1180  157.0733 H   0  0  0  0  0  0  0  0  0  0  0  0  # atno 8008 bound_to 7997
  154.4181  140.1146  156.5494 H   0  0  0  0  0  0  0  0  0  0  0  0  # atno 8009 bound_to 7997
  155.6480  140.3473  155.4740 H   0  0  0  0  0  0  0  0  0  0  0  0  # atno 8010 bound_to 7997
  140.7272  143.4769  151.0171 H   0  0  0  0  0  0  0  0  0  0  0  0  # atno 10167 bound_to 10162
  156.2464  130.7127  151.1009 H   0  0  0  0  0  0  0  0  0  0  0  0  # atno 10718 bound_to 10713
  153.8053  135.3136  155.3395 H   0  0  0  0  0  0  0  0  0  0  0  0  # atno 10763 bound_to 10752
  154.8073  135.4690  154.0427 H   0  0  0  0  0  0  0  0  0  0  0  0  # atno 10764 bound_to 10752
  153.1788  135.6890  153.8594 H   0  0  0  0  0  0  0  0  0  0  0  0  # atno 10765 bound_to 10752
  140.7877  133.8313  155.9350 H   0  0  0  0  0  0  0  0  0  0  0  0  # atno 11005 bound_to 11000
  144.6974  139.8924  143.7454 LP  0  0  0  0  0  0  0  0  0  0  0  0  # atno 17320 bound_to 7965
  146.0814  139.3801  143.0462 LP  0  0  0  0  0  0  0  0  0  0  0  0  # atno 17321 bound_to 7965
  139.8465  143.7495  152.3179 LP  0  0  0  0  0  0  0  0  0  0  0  0  # atno 17342 bound_to 10162
  139.7662  144.7491  151.0291 LP  0  0  0  0  0  0  0  0  0  0  0  0  # atno 17343 bound_to 10162
  157.7197  131.0689  150.6187 LP  0  0  0  0  0  0  0  0  0  0  0  0  # atno 17370 bound_to 10713
  156.6264  130.4420  149.5803 LP  0  0  0  0  0  0  0  0  0  0  0  0  # atno 17371 bound_to 10713
  140.9420  134.1888  157.4790 LP  0  0  0  0  0  0  0  0  0  0  0  0  # atno 17394 bound_to 11000
  139.8735  134.9876  156.5373 LP  0  0  0  0  0  0  0  0  0  0  0  0  # atno 17395 bound_to 11000

$$$$
