AV-unprocessed.smi:2822|AV-procd|sdf|10883|dock10
  -GOLD-   2272015323D 1   1.00000     0.00000
 Structure written by MMmdl.
 39 41  0  0  0  0  0  0  0  0  1 V2000
  156.5905  140.0585  164.1603 Cl  0  0  0  0  0  0  0  0  0  0  0  0
  155.4890  138.7801  163.7825 C   0  0  0  0  0  0  0  0  0  0  0  0
  155.1115  137.8643  164.7859 C   0  0  0  0  0  0  0  0  0  0  0  0
  154.2587  136.8395  164.5762 N   0  0  0  0  0  0  0  0  0  0  0  0
  153.7461  136.6940  163.3367 C   0  0  0  0  0  0  0  0  0  0  0  0
  154.0555  137.5523  162.2627 C   0  0  0  0  0  0  0  0  0  0  0  0
  154.9501  138.6262  162.4842 C   0  0  0  0  0  0  0  0  0  0  0  0
  155.3151  139.5259  161.4710 N   0  0  0  0  0  0  0  0  0  0  0  0
  154.8389  139.3507  160.1075 C   0  0  0  0  0  0  0  0  0  0  0  0
  153.5561  140.1528  159.8491 C   0  0  1  0  0  0  0  0  0  0  0  0
  153.7613  141.6539  160.1256 C   0  0  0  0  0  0  0  0  0  0  0  0
  152.5742  142.4359  159.8038 N   0  0  0  0  0  0  0  0  0  0  0  0
  152.7899  143.8591  160.0606 C   0  0  0  0  0  0  0  0  0  0  0  0
  151.5413  144.7044  159.7622 C   0  0  0  0  0  0  0  0  0  0  0  0
  151.0858  144.4887  158.3120 C   0  0  0  0  0  0  0  0  0  0  0  0
  150.9132  142.9880  158.0310 C   0  0  0  0  0  0  0  0  0  0  0  0
  152.1880  142.2054  158.4085 C   0  0  2  0  0  0  0  0  0  0  0  0
  152.0057  140.6994  158.1312 C   0  0  0  0  0  0  0  0  0  0  0  0
  153.1935  139.9953  158.4795 O   0  0  0  0  0  0  0  0  0  0  0  0
  155.5058  137.9568  165.7873 H   0  0  0  0  0  0  0  0  0  0  0  0
  153.0674  135.8660  163.1946 H   0  0  0  0  0  0  0  0  0  0  0  0
  153.6068  137.3720  161.2976 H   0  0  0  0  0  0  0  0  0  0  0  0
  155.7340  140.4097  161.7238 H   0  0  0  0  0  0  0  0  0  0  0  0
  155.6188  139.6892  159.4248 H   0  0  0  0  0  0  0  0  0  0  0  0
  154.6669  138.2922  159.9070 H   0  0  0  0  0  0  0  0  0  0  0  0
  152.7542  139.7741  160.4863 H   0  0  0  0  0  0  0  0  0  0  0  0
  154.0201  141.7970  161.1755 H   0  0  0  0  0  0  0  0  0  0  0  0
  154.6105  142.0161  159.5438 H   0  0  0  0  0  0  0  0  0  0  0  0
  153.0762  144.0035  161.1030 H   0  0  0  0  0  0  0  0  0  0  0  0
  153.6246  144.2217  159.4587 H   0  0  0  0  0  0  0  0  0  0  0  0
  150.7385  144.4260  160.4461 H   0  0  0  0  0  0  0  0  0  0  0  0
  151.7501  145.7599  159.9381 H   0  0  0  0  0  0  0  0  0  0  0  0
  150.1527  145.0203  158.1237 H   0  0  0  0  0  0  0  0  0  0  0  0
  151.8275  144.9059  157.6298 H   0  0  0  0  0  0  0  0  0  0  0  0
  150.0644  142.6070  158.6008 H   0  0  0  0  0  0  0  0  0  0  0  0
  150.6739  142.8359  156.9780 H   0  0  0  0  0  0  0  0  0  0  0  0
  152.9953  142.5588  157.7647 H   0  0  0  0  0  0  0  0  0  0  0  0
  151.1614  140.2972  158.6939 H   0  0  0  0  0  0  0  0  0  0  0  0
  151.7955  140.5291  157.0751 H   0  0  0  0  0  0  0  0  0  0  0  0
  1  2  1  0  0  0  0
  2  7  1  0  0  0  0
  2  3  2  0  0  0  0
  3  4  1  0  0  0  0
  3 20  1  0  0  0  0
  4  5  2  0  0  0  0
  5  6  1  0  0  0  0
  5 21  1  0  0  0  0
  6  7  2  0  0  0  0
  6 22  1  0  0  0  0
  7  8  1  0  0  0  0
  8  9  1  0  0  0  0
  8 23  1  0  0  0  0
  9 10  1  0  0  0  0
  9 24  1  0  0  0  0
  9 25  1  0  0  0  0
 10 19  1  0  0  0  0
 10 11  1  0  0  0  0
 10 26  1  0  0  0  0
 11 12  1  0  0  0  0
 11 27  1  0  0  0  0
 11 28  1  0  0  0  0
 12 17  1  0  0  0  0
 12 13  1  0  0  0  0
 13 14  1  0  0  0  0
 13 29  1  0  0  0  0
 13 30  1  0  0  0  0
 14 15  1  0  0  0  0
 14 31  1  0  0  0  0
 14 32  1  0  0  0  0
 15 16  1  0  0  0  0
 15 33  1  0  0  0  0
 15 34  1  0  0  0  0
 16 17  1  0  0  0  0
 16 35  1  0  0  0  0
 16 36  1  0  0  0  0
 17 18  1  0  0  0  0
 17 37  1  0  0  0  0
 18 19  1  0  0  0  0
 18 38  1  0  0  0  0
 18 39  1  0  0  0  0
M  END
> <s_m_source_file>
AV-unprocessed.smi

> <i_m_source_file_index>
2822

> <i_lp_mmshare_version>
43012

> <i_f3d_flags>
0

> <s_epik_input>
Q2xjMVtjSF1uW2NIXVtjSF1jMVtOSF1bQ0gyXVtDQEhdKFtDSDJdMilPW0NIMl1bQ0BASF0oTjIzKVtDSDJdW0NIMl1bQ0gyXVtDSDJdMw==

> <s_epik_cmdline>
J2VwaWtfcHl0aG9uJywgJy1waCcsICc3LjAnLCAnLXRuJywgJzgnLCAnLW1hJywgJzIwMCcsICctbWV0YWxfYmluZGluZycsICctaW1hZScsICc8aW5maWxlLm1hZT4nLCAnLW9tYWUnLCAnPG91dGZpbGUubWFlPic=

> <r_lp_tautomer_probability>
0.999999

> <r_epik_Ionization_Penalty>
2.10064

> <r_epik_Ionization_Penalty_Charging>
0

> <r_epik_Ionization_Penalty_Neutral>
2.10064

> <r_epik_State_Penalty>
2.1757

> <r_epik_Charging_Adjusted_Penalty>
2.1757

> <i_epik_Tot_Q>
0

> <i_epik_Tot_abs_Q>
0

> <r_epik_Metal_State_Penalty>
1.25425

> <b_epik_Metal_Only>
0

> <s_lp_Force_Field>
OPLS_2005

> <r_lp_Energy>
37.6932

> <b_lp_Chiralities_Consistent>
1

> <s_lp_Variant>
AV-unprocessed.smi:2822-24

> <Gold.Version>
5.8.1

> <Gold.Id.Protein>
6NUR|6NUR_protein|mol2

> <Gold.PLP.Fitness>
42.0733

> <Gold.PLP.PLP>
-39.4483

> <Gold.PLP.part.hbond>
-1.0000

> <Gold.PLP.part.metal>
0.0000

> <Gold.PLP.part.buried>
-6.7712

> <Gold.PLP.part.nonpolar>
-31.6975

> <Gold.PLP.part.repulsive>
0.0906

> <Gold.PLP.ligand.clash>
0.0000

> <Gold.PLP.ligand.torsion>
0.1879

> <Gold.PLP.Chemscore.Hbond>
1.0000

> <Gold.PLP.Chemscore.CHOScore>
0.0000

> <Gold.PLP.Chemscore.Metal>
0.0000

> <Gold.Chemscore.Hbonds>
donor molecule, donor type, donor heavy atom, donor atom, acceptor molecule, acceptor atom, score
      P1  H  7997  8008       L1    19  1.00

> <Gold.PLP.Chemscore.Internal.Correction>
0.0007

> <Gold.Rescore>
     Score         DG    S(hbond)    S(metal)    S(lipo)     H(rot)  DE(clash)    DE(int)     intcor
     19.98     -20.21       0.86        0.00     126.62       1.15       0.04       0.19       ----

> <Gold.Chemscore.Fitness>
19.9829

> <Gold.Chemscore.DG>
-20.2108

> <Gold.Chemscore.ZeroCoef>
-5.4800

> <Gold.Chemscore.Hbond>
0.8579

> <Gold.Chemscore.Metal>
0.0000

> <Gold.Chemscore.Lipo>
126.6172

> <Gold.Chemscore.Internal_Hbond>
0.0000

> <Gold.Chemscore.DEClash>
0.0375

> <Gold.Chemscore.DEInternal>
0.1904

> <Gold.Chemscore.Rot>
1.1519

> <Gold.Chemscore.Internal.Correction>
   9.000000E+99

> <Gold.Chemscore.Hbonds>
donor molecule, donor type, donor heavy atom, donor atom, acceptor molecule, acceptor atom, score
      P1  H  7997  8008       L1    19  0.79

> <Gold.Chemscore.Hbond.Weighted>
-2.8654

> <Gold.Chemscore.Metal.Weighted>
-0.0000

> <Gold.Chemscore.Lipo.Weighted>
-14.8142

> <Gold.Chemscore.Internal_Hbond.Weighted>
0.0000

> <Gold.Chemscore.DEClash.Weighted>
0.0375

> <Gold.Chemscore.DEInternal.Weighted>
0.1904

> <Gold.Chemscore.Rot.Weighted>
2.9487

> <Gold.Chemscore.Internal.Correction.Weighted>
   9.000000E+99

> <Gold.Protein.RotatedTorsions>
[ 6907 6896 6895 6894 ] final -116.52 input  -60.11 | X-H torsion
[ 7974 7965 7964 7962 ] final  -78.09 input  175.53 | X-H torsion
[ 8008 7997 7996 7995 ] final  -95.38 input   59.86 | X-H torsion
[ 10167 10162 10161 10158 ] final  152.07 input  -65.29 | X-H torsion
[ 10718 10713 10712 10709 ] final  167.21 input   66.30 | X-H torsion
[ 10763 10752 10751 10750 ] final   -3.95 input  -60.55 | X-H torsion
[ 11005 11000 10999 10996 ] final  -62.04 input  -57.11 | X-H torsion

> <Gold.Protein.ActiveResidues>
 VAL166  LYS551  ARG553  GLY616  TRP617  ASP618  TYR619  PRO620  LYS621  CYS622 
 ASP623  PHE694  ASN695  SER759  ASP760  ASP761  ALA762  ILE779  LEU786  VAL792 
 PHE793  MET794  SER795  GLU796  ALA797  LYS798  CYS799  TRP800  GLU811  SER814 

> <Gold.Protein.RotatedAtoms>
  150.8063  133.8505  159.3203 H   0  0  0  0  0  0  0  0  0  0  0  0  # atno 6907 bound_to 6896
  151.6303  135.1022  160.0130 H   0  0  0  0  0  0  0  0  0  0  0  0  # atno 6908 bound_to 6896
  152.4153  133.6989  159.6469 H   0  0  0  0  0  0  0  0  0  0  0  0  # atno 6909 bound_to 6896
  145.5910  140.9429  143.1292 H   0  0  0  0  0  0  0  0  0  0  0  0  # atno 7974 bound_to 7965
  154.7606  140.0480  157.0970 H   0  0  0  0  0  0  0  0  0  0  0  0  # atno 8008 bound_to 7997
  154.9942  140.3117  155.4874 H   0  0  0  0  0  0  0  0  0  0  0  0  # atno 8009 bound_to 7997
  156.2903  140.2213  156.5049 H   0  0  0  0  0  0  0  0  0  0  0  0  # atno 8010 bound_to 7997
  139.4835  144.5388  151.7599 H   0  0  0  0  0  0  0  0  0  0  0  0  # atno 10167 bound_to 10162
  157.0548  131.0323  151.2668 H   0  0  0  0  0  0  0  0  0  0  0  0  # atno 10718 bound_to 10713
  153.3782  135.6997  153.6585 H   0  0  0  0  0  0  0  0  0  0  0  0  # atno 10763 bound_to 10752
  153.5208  135.3612  155.2631 H   0  0  0  0  0  0  0  0  0  0  0  0  # atno 10764 bound_to 10752
  154.8689  135.4157  154.3074 H   0  0  0  0  0  0  0  0  0  0  0  0  # atno 10765 bound_to 10752
  141.1346  133.6636  156.5466 H   0  0  0  0  0  0  0  0  0  0  0  0  # atno 11005 bound_to 11000
  144.7351  139.7609  143.7332 LP  0  0  0  0  0  0  0  0  0  0  0  0  # atno 17320 bound_to 7965
  146.1647  139.4774  142.9966 LP  0  0  0  0  0  0  0  0  0  0  0  0  # atno 17321 bound_to 7965
  140.4925  144.1290  150.5953 LP  0  0  0  0  0  0  0  0  0  0  0  0  # atno 17342 bound_to 10162
  140.4155  143.2636  151.9780 LP  0  0  0  0  0  0  0  0  0  0  0  0  # atno 17343 bound_to 10162
  157.5002  130.7875  149.7596 LP  0  0  0  0  0  0  0  0  0  0  0  0  # atno 17370 bound_to 10713
  155.9996  130.3887  150.2657 LP  0  0  0  0  0  0  0  0  0  0  0  0  # atno 17371 bound_to 10713
  140.4097  134.7283  157.4828 LP  0  0  0  0  0  0  0  0  0  0  0  0  # atno 17394 bound_to 11000
  140.0436  134.6231  155.8949 LP  0  0  0  0  0  0  0  0  0  0  0  0  # atno 17395 bound_to 11000

$$$$
