AV-unprocessed.smi:3142|AV-procd|sdf|11971|dock3
  -GOLD-   2272017373D 1   1.00000     0.00000
 Structure written by MMmdl.
 36 38  0  0  0  0  0  0  0  0  1 V2000
  149.5967  139.7908  157.9014 C   0  0  0  0  0  0  0  0  0  0  0  0
  150.8243  140.1887  157.0593 C   0  0  1  0  0  0  0  0  0  0  0  0
  152.0221  140.6196  157.9189 C   0  0  0  0  0  0  0  0  0  0  0  0
  153.0817  139.9931  157.8794 O   0  0  0  0  0  0  0  0  0  0  0  0
  151.8357  141.7042  158.6876 N   0  0  0  0  0  0  0  0  0  0  0  0
  152.8334  142.3160  159.5583 C   0  0  0  0  0  0  0  0  0  0  0  0
  152.5376  142.0945  161.0329 C   0  0  0  0  0  0  0  0  0  0  0  0
  152.7560  143.1890  162.0512 C   0  0  0  0  0  0  0  0  0  0  0  0
  153.6467  141.9683  162.0510 C   0  0  0  0  0  0  0  0  0  0  0  0
  152.9846  143.7978  159.2676 C   0  0  0  0  0  0  0  0  0  0  0  0
  151.8423  144.7571  159.5000 C   0  0  0  0  0  0  0  0  0  0  0  0
  152.2947  144.4459  158.0907 C   0  0  0  0  0  0  0  0  0  0  0  0
  151.2201  139.1202  156.1526 N   0  0  0  0  0  0  0  0  0  0  0  0
  151.1742  139.1218  154.7619 C   0  0  0  0  0  0  0  0  0  0  0  0
  151.6214  137.8871  154.3498 C   0  0  0  0  0  0  0  0  0  0  0  0
  151.9332  137.1075  155.4605 N   0  0  0  0  0  0  0  0  0  0  0  0
  151.6656  137.9010  156.4894 C   0  0  0  0  0  0  0  0  0  0  0  0
  149.2788  140.6114  158.5453 H   0  0  0  0  0  0  0  0  0  0  0  0
  149.7987  138.9292  158.5386 H   0  0  0  0  0  0  0  0  0  0  0  0
  148.7528  139.5347  157.2599 H   0  0  0  0  0  0  0  0  0  0  0  0
  150.5334  141.0464  156.4500 H   0  0  0  0  0  0  0  0  0  0  0  0
  150.9326  142.1542  158.6531 H   0  0  0  0  0  0  0  0  0  0  0  0
  153.7991  141.8535  159.3433 H   0  0  0  0  0  0  0  0  0  0  0  0
  151.6660  141.4659  161.2063 H   0  0  0  0  0  0  0  0  0  0  0  0
  153.1955  144.1246  161.7118 H   0  0  0  0  0  0  0  0  0  0  0  0
  152.0270  143.2807  162.8537 H   0  0  0  0  0  0  0  0  0  0  0  0
  153.5111  141.2443  162.8518 H   0  0  0  0  0  0  0  0  0  0  0  0
  154.6716  142.0990  161.7097 H   0  0  0  0  0  0  0  0  0  0  0  0
  153.9752  144.1845  159.5012 H   0  0  0  0  0  0  0  0  0  0  0  0
  150.8899  144.3428  159.8247 H   0  0  0  0  0  0  0  0  0  0  0  0
  152.0860  145.7379  159.9034 H   0  0  0  0  0  0  0  0  0  0  0  0
  152.8397  145.2192  157.5534 H   0  0  0  0  0  0  0  0  0  0  0  0
  151.6356  143.8308  157.4814 H   0  0  0  0  0  0  0  0  0  0  0  0
  150.8356  139.9771  154.1958 H   0  0  0  0  0  0  0  0  0  0  0  0
  151.7348  137.5010  153.3476 H   0  0  0  0  0  0  0  0  0  0  0  0
  151.7956  137.5860  157.5144 H   0  0  0  0  0  0  0  0  0  0  0  0
  1  2  1  0  0  0  0
  1 18  1  0  0  0  0
  1 19  1  0  0  0  0
  1 20  1  0  0  0  0
  2  3  1  0  0  0  0
  2 13  1  0  0  0  0
  2 21  1  0  0  0  0
  3  4  2  0  0  0  0
  3  5  1  0  0  0  0
  5  6  1  0  0  0  0
  5 22  1  0  0  0  0
  6  7  1  0  0  0  0
  6 10  1  0  0  0  0
  6 23  1  0  0  0  0
  7  9  1  0  0  0  0
  7  8  1  0  0  0  0
  7 24  1  0  0  0  0
  8  9  1  0  0  0  0
  8 25  1  0  0  0  0
  8 26  1  0  0  0  0
  9 27  1  0  0  0  0
  9 28  1  0  0  0  0
 10 12  1  0  0  0  0
 10 11  1  0  0  0  0
 10 29  1  0  0  0  0
 11 12  1  0  0  0  0
 11 30  1  0  0  0  0
 11 31  1  0  0  0  0
 12 32  1  0  0  0  0
 12 33  1  0  0  0  0
 13 17  1  0  0  0  0
 13 14  1  0  0  0  0
 14 15  2  0  0  0  0
 14 34  1  0  0  0  0
 15 16  1  0  0  0  0
 15 35  1  0  0  0  0
 16 17  2  0  0  0  0
 17 36  1  0  0  0  0
M  END
> <s_m_source_file>
AV-unprocessed.smi

> <i_m_source_file_index>
3142

> <i_lp_mmshare_version>
43012

> <i_f3d_flags>
0

> <s_epik_input>
W2NIXTFuW2NIXVtjSF1uMVtDQEhdKFtDSDNdKUMoPU8pW05IXVtDSF0oW0NIXTJbQ0gyXVtDSDJdMilbQ0hdM1tDSDJdW0NIMl0z

> <s_epik_cmdline>
J2VwaWtfcHl0aG9uJywgJy1waCcsICc3LjAnLCAnLXRuJywgJzgnLCAnLW1hJywgJzIwMCcsICctbWV0YWxfYmluZGluZycsICctaW1hZScsICc8aW5maWxlLm1hZT4nLCAnLW9tYWUnLCAnPG91dGZpbGUubWFlPic=

> <r_lp_tautomer_probability>
1

> <r_epik_Ionization_Penalty>
0.32285

> <r_epik_Ionization_Penalty_Charging>
0.32285

> <r_epik_Ionization_Penalty_Neutral>
3.37967e-08

> <r_epik_State_Penalty>
0.317502

> <r_epik_Charging_Adjusted_Penalty>
0.640352

> <i_epik_Tot_Q>
0

> <i_epik_Tot_abs_Q>
0

> <r_epik_Metal_State_Penalty>
0.20415

> <b_epik_Metal_Only>
0

> <s_lp_Force_Field>
OPLS_2005

> <r_lp_Energy>
29.1263

> <b_lp_Chiralities_Consistent>
1

> <s_lp_Variant>
AV-unprocessed.smi:3142-2

> <Gold.Version>
5.8.1

> <Gold.Id.Protein>
6NUR|6NUR_protein|mol2

> <Gold.PLP.Fitness>
51.3414

> <Gold.PLP.PLP>
-43.7567

> <Gold.PLP.part.hbond>
-2.0000

> <Gold.PLP.part.metal>
0.0000

> <Gold.PLP.part.buried>
-4.0611

> <Gold.PLP.part.nonpolar>
-37.1241

> <Gold.PLP.part.repulsive>
0.1468

> <Gold.PLP.ligand.clash>
0.0000

> <Gold.PLP.ligand.torsion>
1.8282

> <Gold.PLP.Chemscore.Hbond>
2.0000

> <Gold.PLP.Chemscore.CHOScore>
1.0000

> <Gold.PLP.Chemscore.Metal>
0.0000

> <Gold.Chemscore.Hbonds>
donor molecule, donor type, donor heavy atom, donor atom, acceptor molecule, acceptor atom, score
      P1  H  7997  8009       L1     4  1.00
      P1  H 10752 10763       L1    16  0.99
      L1  C    15    35       P1  7949  1.00

> <Gold.PLP.Chemscore.Internal.Correction>
2.2411

> <Gold.Rescore>
     Score         DG    S(hbond)    S(metal)    S(lipo)     H(rot)  DE(clash)    DE(int)     intcor
     16.68     -19.86       1.88        0.00     109.67       1.85       0.03       3.15       ----

> <Gold.Chemscore.Fitness>
16.6812

> <Gold.Chemscore.DG>
-19.8568

> <Gold.Chemscore.ZeroCoef>
-5.4800

> <Gold.Chemscore.Hbond>
1.8811

> <Gold.Chemscore.Metal>
0.0000

> <Gold.Chemscore.Lipo>
109.6691

> <Gold.Chemscore.Internal_Hbond>
0.0000

> <Gold.Chemscore.DEClash>
0.0300

> <Gold.Chemscore.DEInternal>
3.1456

> <Gold.Chemscore.Rot>
1.8505

> <Gold.Chemscore.Internal.Correction>
   9.000000E+99

> <Gold.Chemscore.Hbonds>
donor molecule, donor type, donor heavy atom, donor atom, acceptor molecule, acceptor atom, score
      P1  H  7997  8009       L1     4  0.97
      P1  H 10752 10763       L1    16  0.45

> <Gold.Chemscore.Hbond.Weighted>
-6.2828

> <Gold.Chemscore.Metal.Weighted>
-0.0000

> <Gold.Chemscore.Lipo.Weighted>
-12.8313

> <Gold.Chemscore.Internal_Hbond.Weighted>
0.0000

> <Gold.Chemscore.DEClash.Weighted>
0.0300

> <Gold.Chemscore.DEInternal.Weighted>
3.1456

> <Gold.Chemscore.Rot.Weighted>
4.7373

> <Gold.Chemscore.Internal.Correction.Weighted>
   9.000000E+99

> <Gold.Protein.RotatedTorsions>
[ 6907 6896 6895 6894 ] final -148.21 input  -60.11 | X-H torsion
[ 7974 7965 7964 7962 ] final -143.69 input  175.53 | X-H torsion
[ 8008 7997 7996 7995 ] final  170.34 input   59.86 | X-H torsion
[ 10167 10162 10161 10158 ] final  -37.22 input  -65.29 | X-H torsion
[ 10718 10713 10712 10709 ] final  152.83 input   66.30 | X-H torsion
[ 10763 10752 10751 10750 ] final   67.98 input  -60.55 | X-H torsion
[ 11005 11000 10999 10996 ] final   39.35 input  -57.11 | X-H torsion

> <Gold.Protein.ActiveResidues>
 VAL166  LYS551  ARG553  GLY616  TRP617  ASP618  TYR619  PRO620  LYS621  CYS622 
 ASP623  PHE694  ASN695  SER759  ASP760  ASP761  ALA762  ILE779  LEU786  VAL792 
 PHE793  MET794  SER795  GLU796  ALA797  LYS798  CYS799  TRP800  GLU811  SER814 

> <Gold.Protein.RotatedAtoms>
  151.1666  133.4811  159.2593 H   0  0  0  0  0  0  0  0  0  0  0  0  # atno 6907 bound_to 6896
  151.1399  135.0174  159.8631 H   0  0  0  0  0  0  0  0  0  0  0  0  # atno 6908 bound_to 6896
  152.5462  134.1561  159.8591 H   0  0  0  0  0  0  0  0  0  0  0  0  # atno 6909 bound_to 6896
  144.8351  140.5803  143.5489 H   0  0  0  0  0  0  0  0  0  0  0  0  # atno 7974 bound_to 7965
  156.1374  140.1540  156.8973 H   0  0  0  0  0  0  0  0  0  0  0  0  # atno 8008 bound_to 7997
  154.4959  140.0838  156.7734 H   0  0  0  0  0  0  0  0  0  0  0  0  # atno 8009 bound_to 7997
  155.4142  140.3420  155.4268 H   0  0  0  0  0  0  0  0  0  0  0  0  # atno 8010 bound_to 7997
  140.7124  143.3356  151.2470 H   0  0  0  0  0  0  0  0  0  0  0  0  # atno 10167 bound_to 10162
  157.2527  131.0782  151.1719 H   0  0  0  0  0  0  0  0  0  0  0  0  # atno 10718 bound_to 10713
  153.0213  135.5264  154.7064 H   0  0  0  0  0  0  0  0  0  0  0  0  # atno 10763 bound_to 10752
  154.6158  135.2883  155.0383 H   0  0  0  0  0  0  0  0  0  0  0  0  # atno 10764 bound_to 10752
  154.1388  135.6581  153.4990 H   0  0  0  0  0  0  0  0  0  0  0  0  # atno 10765 bound_to 10752
  140.2036  134.3840  155.8083 H   0  0  0  0  0  0  0  0  0  0  0  0  # atno 11005 bound_to 11000
  145.4812  139.1495  143.3761 LP  0  0  0  0  0  0  0  0  0  0  0  0  # atno 17320 bound_to 7965
  146.2650  140.4948  142.8837 LP  0  0  0  0  0  0  0  0  0  0  0  0  # atno 17321 bound_to 7965
  139.6850  143.9788  152.2829 LP  0  0  0  0  0  0  0  0  0  0  0  0  # atno 17342 bound_to 10162
  139.9431  144.6669  150.8246 LP  0  0  0  0  0  0  0  0  0  0  0  0  # atno 17343 bound_to 10162
  157.3261  130.6961  149.6297 LP  0  0  0  0  0  0  0  0  0  0  0  0  # atno 17370 bound_to 10713
  155.9666  130.4321  150.4949 LP  0  0  0  0  0  0  0  0  0  0  0  0  # atno 17371 bound_to 10713
  141.2227  133.7107  156.8300 LP  0  0  0  0  0  0  0  0  0  0  0  0  # atno 17394 bound_to 11000
  140.2027  134.8885  157.3187 LP  0  0  0  0  0  0  0  0  0  0  0  0  # atno 17395 bound_to 11000

$$$$
