AV-unprocessed.smi:1813|AV-procd|sdf|7346|dock1
  -GOLD-   22720 9 03D 1   1.00000     0.00000
 Structure written by MMmdl.
 39 40  0  0  0  0  0  0  0  0  3 V2000
  146.0841  134.3388  151.5029 C   0  0  0  0  0  0  0  0  0  0  0  0
  147.2813  134.3478  152.3299 N   0  0  0  0  0  0  0  0  0  0  0  0
  147.6369  133.3506  153.1514 C   0  0  0  0  0  0  0  0  0  0  0  0
  146.9806  132.3166  153.2807 O   0  0  0  0  0  0  0  0  0  0  0  0
  148.9420  133.5474  153.9296 C   0  0  0  0  0  0  0  0  0  0  0  0
  149.0820  134.9138  154.4953 N   0  3  2  0  0  0  0  0  0  0  0  0
  150.3874  135.1345  155.1731 C   0  0  0  0  0  0  0  0  0  0  0  0
  150.5409  136.5990  155.6139 C   0  0  0  0  0  0  0  0  0  0  0  0
  149.3810  137.0270  156.5265 C   0  0  1  0  0  0  0  0  0  0  0  0
  149.5093  138.4429  156.8566 N   0  0  0  0  0  0  0  0  0  0  0  0
  150.4849  138.9934  157.5931 C   0  0  0  0  0  0  0  0  0  0  0  0
  151.3800  138.2837  158.0575 O   0  0  0  0  0  0  0  0  0  0  0  0
  150.3586  140.3304  157.7483 N   0  5  0  0  0  0  0  0  0  0  0  0
  151.2157  140.9983  158.5375 C   0  0  0  0  0  0  0  0  0  0  0  0
  151.3713  142.3260  158.4861 N   0  0  0  0  0  0  0  0  0  0  0  0
  152.3109  142.8104  159.3979 C   0  0  0  0  0  0  0  0  0  0  0  0
  152.8772  141.8297  160.1680 C   0  0  0  0  0  0  0  0  0  0  0  0
  152.2430  140.2588  159.7690 S   0  0  0  0  0  0  0  0  0  0  0  0
  148.0402  136.7475  155.8228 C   0  0  0  0  0  0  0  0  0  0  0  0
  147.9435  135.2807  155.3750 C   0  0  0  0  0  0  0  0  0  0  0  0
  146.0248  135.2609  150.9245 H   0  0  0  0  0  0  0  0  0  0  0  0
  145.1866  134.2646  152.1183 H   0  0  0  0  0  0  0  0  0  0  0  0
  146.0992  133.5002  150.8054 H   0  0  0  0  0  0  0  0  0  0  0  0
  147.8757  135.1620  152.2705 H   0  0  0  0  0  0  0  0  0  0  0  0
  148.9343  132.8150  154.7378 H   0  0  0  0  0  0  0  0  0  0  0  0
  149.8036  133.3124  153.3022 H   0  0  0  0  0  0  0  0  0  0  0  0
  150.4666  134.4733  156.0374 H   0  0  0  0  0  0  0  0  0  0  0  0
  151.2084  134.8768  154.5037 H   0  0  0  0  0  0  0  0  0  0  0  0
  151.4916  136.7305  156.1321 H   0  0  0  0  0  0  0  0  0  0  0  0
  150.5778  137.2407  154.7321 H   0  0  0  0  0  0  0  0  0  0  0  0
  149.4339  136.4395  157.4452 H   0  0  0  0  0  0  0  0  0  0  0  0
  148.7992  139.0640  156.4968 H   0  0  0  0  0  0  0  0  0  0  0  0
  152.5131  143.8705  159.4315 H   0  0  0  0  0  0  0  0  0  0  0  0
  153.6227  141.9335  160.9416 H   0  0  0  0  0  0  0  0  0  0  0  0
  147.2079  136.9818  156.4872 H   0  0  0  0  0  0  0  0  0  0  0  0
  147.9341  137.3999  154.9546 H   0  0  0  0  0  0  0  0  0  0  0  0
  147.0028  135.1322  154.8436 H   0  0  0  0  0  0  0  0  0  0  0  0
  147.9257  134.6212  156.2442 H   0  0  0  0  0  0  0  0  0  0  0  0
  149.0479  135.5482  153.7095 H   0  0  0  0  0  0  0  0  0  0  0  0
  1  2  1  0  0  0  0
  1 21  1  0  0  0  0
  1 22  1  0  0  0  0
  1 23  1  0  0  0  0
  2  3  1  0  0  0  0
  2 24  1  0  0  0  0
  3  4  2  0  0  0  0
  3  5  1  0  0  0  0
  5  6  1  0  0  0  0
  5 25  1  0  0  0  0
  5 26  1  0  0  0  0
  6 20  1  0  0  0  0
  6  7  1  0  0  0  0
  6 39  1  0  0  0  0
  7  8  1  0  0  0  0
  7 27  1  0  0  0  0
  7 28  1  0  0  0  0
  8  9  1  0  0  0  0
  8 29  1  0  0  0  0
  8 30  1  0  0  0  0
  9 10  1  0  0  0  0
  9 19  1  0  0  0  0
  9 31  1  0  0  0  0
 10 11  1  0  0  0  0
 10 32  1  0  0  0  0
 11 12  2  0  0  0  0
 11 13  1  0  0  0  0
 13 14  1  0  0  0  0
 14 18  1  0  0  0  0
 14 15  2  0  0  0  0
 15 16  1  0  0  0  0
 16 17  2  0  0  0  0
 16 33  1  0  0  0  0
 17 18  1  0  0  0  0
 17 34  1  0  0  0  0
 19 20  1  0  0  0  0
 19 35  1  0  0  0  0
 19 36  1  0  0  0  0
 20 37  1  0  0  0  0
 20 38  1  0  0  0  0
M  CHG  1   6   1
M  CHG  1  13  -1
M  END
> <s_m_source_file>
AV-unprocessed.smi

> <i_m_source_file_index>
1813

> <i_lp_mmshare_version>
43012

> <i_f3d_flags>
0

> <s_epik_input>
W0NIM11bTkhdQyg9TylbQ0gyXU4xW0NIMl1bQ0gyXVtDSF0oW0NIMl1bQ0gyXTEpW05IXUMoPU8pW05IXWMybltjSF1bY0hdczI=

> <s_epik_cmdline>
J2VwaWtfcHl0aG9uJywgJy1waCcsICc3LjAnLCAnLXRuJywgJzgnLCAnLW1hJywgJzIwMCcsICctbWV0YWxfYmluZGluZycsICctaW1hZScsICc8aW5maWxlLm1hZT4nLCAnLW9tYWUnLCAnPG91dGZpbGUubWFlPic=

> <r_lp_tautomer_probability>
0.999

> <r_epik_Ionization_Penalty>
7.12128

> <r_epik_Ionization_Penalty_Charging>
6.25357

> <r_epik_Ionization_Penalty_Neutral>
0.867707

> <r_epik_State_Penalty>
6.33838

> <r_epik_Charging_Adjusted_Penalty>
12.592

> <i_epik_Tot_Q>
0

> <i_epik_Tot_abs_Q>
2

> <r_epik_Metal_State_Penalty>
2.34161

> <b_epik_Metal_Only>
1

> <s_lp_Force_Field>
OPLS_2005

> <r_lp_Energy>
3.88073

> <b_lp_Chiralities_Consistent>
1

> <s_lp_Variant>
AV-unprocessed.smi:1813-7

> <Gold.Version>
5.8.1

> <Gold.Id.Protein>
6NUR|6NUR_protein|mol2

> <Gold.PLP.Fitness>
35.8308

> <Gold.PLP.PLP>
-27.4971

> <Gold.PLP.part.hbond>
-2.0000

> <Gold.PLP.part.metal>
0.0000

> <Gold.PLP.part.buried>
-3.6356

> <Gold.PLP.part.nonpolar>
-21.3169

> <Gold.PLP.part.repulsive>
0.1643

> <Gold.PLP.ligand.clash>
0.0000

> <Gold.PLP.ligand.torsion>
0.3534

> <Gold.PLP.Chemscore.Hbond>
3.0000

> <Gold.PLP.Chemscore.CHOScore>
0.0000

> <Gold.PLP.Chemscore.Metal>
0.0000

> <Gold.Chemscore.Hbonds>
donor molecule, donor type, donor heavy atom, donor atom, acceptor molecule, acceptor atom, score
      L1  H     2    24       P1  7948  1.00
      L1  H     6    39       P1  7948  2.00

> <Gold.PLP.Chemscore.Internal.Correction>
0.0404

> <Gold.Rescore>
     Score         DG    S(hbond)    S(metal)    S(lipo)     H(rot)  DE(clash)    DE(int)     intcor
     11.98     -13.92       1.89        0.00      56.52       1.76       0.01       1.93       ----

> <Gold.Chemscore.Fitness>
11.9755

> <Gold.Chemscore.DG>
-13.9151

> <Gold.Chemscore.ZeroCoef>
-5.4800

> <Gold.Chemscore.Hbond>
1.8947

> <Gold.Chemscore.Metal>
0.0000

> <Gold.Chemscore.Lipo>
56.5219

> <Gold.Chemscore.Internal_Hbond>
0.0000

> <Gold.Chemscore.DEClash>
0.0051

> <Gold.Chemscore.DEInternal>
1.9344

> <Gold.Chemscore.Rot>
1.7603

> <Gold.Chemscore.Internal.Correction>
   9.000000E+99

> <Gold.Chemscore.Hbonds>
donor molecule, donor type, donor heavy atom, donor atom, acceptor molecule, acceptor atom, score
      L1  H     2    24       P1  7948  0.88
      L1  H     6    39       P1  7948  0.73

> <Gold.Chemscore.Hbond.Weighted>
-6.3284

> <Gold.Chemscore.Metal.Weighted>
-0.0000

> <Gold.Chemscore.Lipo.Weighted>
-6.6131

> <Gold.Chemscore.Internal_Hbond.Weighted>
0.0000

> <Gold.Chemscore.DEClash.Weighted>
0.0051

> <Gold.Chemscore.DEInternal.Weighted>
1.9344

> <Gold.Chemscore.Rot.Weighted>
4.5064

> <Gold.Chemscore.Internal.Correction.Weighted>
   9.000000E+99

> <Gold.Protein.RotatedTorsions>
[ 6907 6896 6895 6894 ] final  -34.56 input  -60.11 | X-H torsion
[ 7974 7965 7964 7962 ] final -122.93 input  175.53 | X-H torsion
[ 8008 7997 7996 7995 ] final  152.57 input   59.86 | X-H torsion
[ 10167 10162 10161 10158 ] final  117.08 input  -65.29 | X-H torsion
[ 10718 10713 10712 10709 ] final -149.51 input   66.30 | X-H torsion
[ 10763 10752 10751 10750 ] final -139.51 input  -60.55 | X-H torsion
[ 11005 11000 10999 10996 ] final  113.96 input  -57.11 | X-H torsion

> <Gold.Protein.ActiveResidues>
 VAL166  LYS551  ARG553  GLY616  TRP617  ASP618  TYR619  PRO620  LYS621  CYS622 
 ASP623  PHE694  ASN695  SER759  ASP760  ASP761  ALA762  ILE779  LEU786  VAL792 
 PHE793  MET794  SER795  GLU796  ALA797  LYS798  CYS799  TRP800  GLU811  SER814 

> <Gold.Protein.RotatedAtoms>
  151.0510  134.9673  159.8211 H   0  0  0  0  0  0  0  0  0  0  0  0  # atno 6907 bound_to 6896
  152.5380  134.2537  159.8919 H   0  0  0  0  0  0  0  0  0  0  0  0  # atno 6908 bound_to 6896
  151.2553  133.4286  159.2647 H   0  0  0  0  0  0  0  0  0  0  0  0  # atno 6909 bound_to 6896
  145.0241  140.8013  143.4363 H   0  0  0  0  0  0  0  0  0  0  0  0  # atno 7974 bound_to 7965
  156.2623  140.2017  156.6354 H   0  0  0  0  0  0  0  0  0  0  0  0  # atno 8008 bound_to 7997
  154.6650  140.0556  157.0128 H   0  0  0  0  0  0  0  0  0  0  0  0  # atno 8009 bound_to 7997
  155.1220  140.3225  155.4498 H   0  0  0  0  0  0  0  0  0  0  0  0  # atno 8010 bound_to 7997
  139.6203  144.7099  151.2649 H   0  0  0  0  0  0  0  0  0  0  0  0  # atno 10167 bound_to 10162
  156.4341  130.8090  151.2317 H   0  0  0  0  0  0  0  0  0  0  0  0  # atno 10718 bound_to 10713
  154.8607  135.3580  154.5558 H   0  0  0  0  0  0  0  0  0  0  0  0  # atno 10763 bound_to 10752
  153.6175  135.7007  153.5328 H   0  0  0  0  0  0  0  0  0  0  0  0  # atno 10764 bound_to 10752
  153.3157  135.4166  155.1334 H   0  0  0  0  0  0  0  0  0  0  0  0  # atno 10765 bound_to 10752
  139.8967  134.9559  156.6819 H   0  0  0  0  0  0  0  0  0  0  0  0  # atno 11005 bound_to 11000
  145.1856  139.2328  143.5269 LP  0  0  0  0  0  0  0  0  0  0  0  0  # atno 17320 bound_to 7965
  146.3490  140.1640  142.8590 LP  0  0  0  0  0  0  0  0  0  0  0  0  # atno 17321 bound_to 7965
  140.7377  143.6668  150.8116 LP  0  0  0  0  0  0  0  0  0  0  0  0  # atno 17342 bound_to 10162
  140.0278  143.5475  152.2773 LP  0  0  0  0  0  0  0  0  0  0  0  0  # atno 17343 bound_to 10162
  157.7507  131.0189  150.3645 LP  0  0  0  0  0  0  0  0  0  0  0  0  # atno 17370 bound_to 10713
  156.3988  130.3912  149.6975 LP  0  0  0  0  0  0  0  0  0  0  0  0  # atno 17371 bound_to 10713
  140.7292  133.9073  155.8200 LP  0  0  0  0  0  0  0  0  0  0  0  0  # atno 17394 bound_to 11000
  141.0166  134.0946  157.4165 LP  0  0  0  0  0  0  0  0  0  0  0  0  # atno 17395 bound_to 11000

$$$$
