AV-unprocessed.smi:900|AV-procd|sdf|4089|dock3
  -GOLD-   22720 1573D 1   1.00000     0.00000
 Structure written by MMmdl.
 33 34  0  0  0  0  0  0  0  0  1 V2000
  146.8528  139.0641  152.2370 C   0  0  0  0  0  0  0  0  0  0  0  0
  148.0014  138.4494  152.8842 N   0  0  0  0  0  0  0  0  0  0  0  0
  148.7313  139.0366  153.8442 C   0  0  0  0  0  0  0  0  0  0  0  0
  148.4871  140.1582  154.2886 O   0  0  0  0  0  0  0  0  0  0  0  0
  149.9183  138.2390  154.3881 C   0  0  0  0  0  0  0  0  0  0  0  0
  150.7297  139.0785  155.3221 C   0  0  0  0  0  0  0  0  0  0  0  0
  151.9524  139.4853  155.0003 N   0  0  0  0  0  0  0  0  0  0  0  0
  152.3620  140.2065  156.1307 O   0  0  0  0  0  0  0  0  0  0  0  0
  151.3185  140.1661  156.9933 C   0  0  0  0  0  0  0  0  0  0  0  0
  151.4694  140.7995  158.3366 C   0  0  0  0  0  0  0  0  0  0  0  0
  152.1241  142.1907  158.2733 C   0  0  0  0  0  0  0  0  0  0  0  0
  152.3100  142.8714  159.6333 C   0  0  0  0  0  0  0  0  0  0  0  0
  152.4813  144.3601  159.3125 C   0  0  0  0  0  0  0  0  0  0  0  0
  151.8398  144.5809  157.9336 C   0  0  0  0  0  0  0  0  0  0  0  0
  151.3115  143.2158  157.4796 C   0  0  0  0  0  0  0  0  0  0  0  0
  150.2761  139.4706  156.5454 N   0  0  0  0  0  0  0  0  0  0  0  0
  146.3771  138.3481  151.5667 H   0  0  0  0  0  0  0  0  0  0  0  0
  147.1606  139.9297  151.6493 H   0  0  0  0  0  0  0  0  0  0  0  0
  146.1137  139.3863  152.9719 H   0  0  0  0  0  0  0  0  0  0  0  0
  148.2688  137.5264  152.5729 H   0  0  0  0  0  0  0  0  0  0  0  0
  149.5590  137.3491  154.9074 H   0  0  0  0  0  0  0  0  0  0  0  0
  150.5447  137.8934  153.5645 H   0  0  0  0  0  0  0  0  0  0  0  0
  150.4816  140.8763  158.7922 H   0  0  0  0  0  0  0  0  0  0  0  0
  152.0529  140.1334  158.9734 H   0  0  0  0  0  0  0  0  0  0  0  0
  153.1037  142.0993  157.8004 H   0  0  0  0  0  0  0  0  0  0  0  0
  151.4159  142.7326  160.2428 H   0  0  0  0  0  0  0  0  0  0  0  0
  153.1552  142.4681  160.1924 H   0  0  0  0  0  0  0  0  0  0  0  0
  152.0264  144.9870  160.0801 H   0  0  0  0  0  0  0  0  0  0  0  0
  153.5410  144.6146  159.2697 H   0  0  0  0  0  0  0  0  0  0  0  0
  151.0418  145.3234  157.9691 H   0  0  0  0  0  0  0  0  0  0  0  0
  152.5916  144.9449  157.2322 H   0  0  0  0  0  0  0  0  0  0  0  0
  151.3986  143.0737  156.4021 H   0  0  0  0  0  0  0  0  0  0  0  0
  150.2549  143.1328  157.7386 H   0  0  0  0  0  0  0  0  0  0  0  0
  1  2  1  0  0  0  0
  1 17  1  0  0  0  0
  1 18  1  0  0  0  0
  1 19  1  0  0  0  0
  2  3  1  0  0  0  0
  2 20  1  0  0  0  0
  3  4  2  0  0  0  0
  3  5  1  0  0  0  0
  5  6  1  0  0  0  0
  5 21  1  0  0  0  0
  5 22  1  0  0  0  0
  6 16  1  0  0  0  0
  6  7  2  0  0  0  0
  7  8  1  0  0  0  0
  8  9  1  0  0  0  0
  9 10  1  0  0  0  0
  9 16  2  0  0  0  0
 10 11  1  0  0  0  0
 10 23  1  0  0  0  0
 10 24  1  0  0  0  0
 11 15  1  0  0  0  0
 11 12  1  0  0  0  0
 11 25  1  0  0  0  0
 12 13  1  0  0  0  0
 12 26  1  0  0  0  0
 12 27  1  0  0  0  0
 13 14  1  0  0  0  0
 13 28  1  0  0  0  0
 13 29  1  0  0  0  0
 14 15  1  0  0  0  0
 14 30  1  0  0  0  0
 14 31  1  0  0  0  0
 15 32  1  0  0  0  0
 15 33  1  0  0  0  0
M  END
> <s_m_source_file>
AV-unprocessed.smi

> <i_m_source_file_index>
900

> <i_lp_mmshare_version>
43012

> <i_f3d_flags>
0

> <s_epik_input>
W0NIM11bTkhdQyg9TylbQ0gyXWMxbm9jKG4xKVtDSDJdW0NIXTJbQ0gyXVtDSDJdW0NIMl1bQ0gyXTI=

> <s_epik_cmdline>
J2VwaWtfcHl0aG9uJywgJy1waCcsICc3LjAnLCAnLXRuJywgJzgnLCAnLW1hJywgJzIwMCcsICctbWV0YWxfYmluZGluZycsICctaW1hZScsICc8aW5maWxlLm1hZT4nLCAnLW9tYWUnLCAnPG91dGZpbGUubWFlPic=

> <r_lp_tautomer_probability>
1

> <r_epik_Ionization_Penalty>
1.02915e-07

> <r_epik_Ionization_Penalty_Charging>
0

> <r_epik_Ionization_Penalty_Neutral>
1.02915e-07

> <r_epik_State_Penalty>
-0

> <r_epik_Charging_Adjusted_Penalty>
0

> <i_epik_Tot_Q>
0

> <i_epik_Tot_abs_Q>
0

> <r_epik_Metal_State_Penalty>
-0

> <b_epik_Metal_Only>
0

> <s_lp_Force_Field>
OPLS_2005

> <r_lp_Energy>
19.3932

> <b_lp_Chiralities_Consistent>
1

> <s_lp_Variant>
AV-unprocessed.smi:900-1

> <Gold.Version>
5.8.1

> <Gold.Id.Protein>
6NUR|6NUR_protein|mol2

> <Gold.PLP.Fitness>
42.1860

> <Gold.PLP.PLP>
-33.9962

> <Gold.PLP.part.hbond>
-4.0000

> <Gold.PLP.part.metal>
0.0000

> <Gold.PLP.part.buried>
-1.4943

> <Gold.PLP.part.nonpolar>
-27.9983

> <Gold.PLP.part.repulsive>
0.1930

> <Gold.PLP.ligand.clash>
0.0000

> <Gold.PLP.ligand.torsion>
0.3543

> <Gold.PLP.Chemscore.Hbond>
2.9600

> <Gold.PLP.Chemscore.CHOScore>
0.0000

> <Gold.PLP.Chemscore.Metal>
0.0000

> <Gold.Chemscore.Hbonds>
donor molecule, donor type, donor heavy atom, donor atom, acceptor molecule, acceptor atom, score
      L1  H     2    20       P1  7948  1.00
      P1  H  7989  7998       L1     7  0.90
      P1  H  7997  8008       L1     8  1.00

> <Gold.PLP.Chemscore.Internal.Correction>
0.0183

> <Gold.Rescore>
     Score         DG    S(hbond)    S(metal)    S(lipo)     H(rot)  DE(clash)    DE(int)     intcor
     15.88     -17.47       2.31        0.00      77.67       1.87       0.06       1.53       ----

> <Gold.Chemscore.Fitness>
15.8779

> <Gold.Chemscore.DG>
-17.4737

> <Gold.Chemscore.ZeroCoef>
-5.4800

> <Gold.Chemscore.Hbond>
2.3056

> <Gold.Chemscore.Metal>
0.0000

> <Gold.Chemscore.Lipo>
77.6675

> <Gold.Chemscore.Internal_Hbond>
0.0000

> <Gold.Chemscore.DEClash>
0.0629

> <Gold.Chemscore.DEInternal>
1.5330

> <Gold.Chemscore.Rot>
1.8727

> <Gold.Chemscore.Internal.Correction>
   9.000000E+99

> <Gold.Chemscore.Hbonds>
donor molecule, donor type, donor heavy atom, donor atom, acceptor molecule, acceptor atom, score
      L1  H     2    20       P1  7948  0.99
      P1  H  7989  7998       L1     7  0.25
      P1  H  7997  8008       L1     8  0.72

> <Gold.Chemscore.Hbond.Weighted>
-7.7006

> <Gold.Chemscore.Metal.Weighted>
-0.0000

> <Gold.Chemscore.Lipo.Weighted>
-9.0871

> <Gold.Chemscore.Internal_Hbond.Weighted>
0.0000

> <Gold.Chemscore.DEClash.Weighted>
0.0629

> <Gold.Chemscore.DEInternal.Weighted>
1.5330

> <Gold.Chemscore.Rot.Weighted>
4.7940

> <Gold.Chemscore.Internal.Correction.Weighted>
   9.000000E+99

> <Gold.Protein.RotatedTorsions>
[ 6907 6896 6895 6894 ] final  -21.59 input  -60.11 | X-H torsion
[ 7974 7965 7964 7962 ] final  124.73 input  175.53 | X-H torsion
[ 8008 7997 7996 7995 ] final  -40.64 input   59.86 | X-H torsion
[ 10167 10162 10161 10158 ] final   -5.74 input  -65.29 | X-H torsion
[ 10718 10713 10712 10709 ] final  -51.68 input   66.30 | X-H torsion
[ 10763 10752 10751 10750 ] final  156.79 input  -60.55 | X-H torsion
[ 11005 11000 10999 10996 ] final -132.34 input  -57.11 | X-H torsion

> <Gold.Protein.ActiveResidues>
 VAL166  LYS551  ARG553  GLY616  TRP617  ASP618  TYR619  PRO620  LYS621  CYS622 
 ASP623  PHE694  ASN695  SER759  ASP760  ASP761  ALA762  ILE779  LEU786  VAL792 
 PHE793  MET794  SER795  GLU796  ALA797  LYS798  CYS799  TRP800  GLU811  SER814 

> <Gold.Protein.RotatedAtoms>
  151.2311  135.0554  159.8987 H   0  0  0  0  0  0  0  0  0  0  0  0  # atno 6907 bound_to 6896
  152.5405  134.0536  159.8131 H   0  0  0  0  0  0  0  0  0  0  0  0  # atno 6908 bound_to 6896
  151.0716  133.5413  159.2658 H   0  0  0  0  0  0  0  0  0  0  0  0  # atno 6909 bound_to 6896
  145.0811  139.3656  143.4909 H   0  0  0  0  0  0  0  0  0  0  0  0  # atno 7974 bound_to 7965
  154.4010  140.1520  156.3061 H   0  0  0  0  0  0  0  0  0  0  0  0  # atno 8008 bound_to 7997
  155.8657  140.3451  155.5765 H   0  0  0  0  0  0  0  0  0  0  0  0  # atno 8009 bound_to 7997
  155.7830  140.0846  157.2040 H   0  0  0  0  0  0  0  0  0  0  0  0  # atno 8010 bound_to 7997
  140.6973  143.6273  150.8555 H   0  0  0  0  0  0  0  0  0  0  0  0  # atno 10167 bound_to 10162
  156.1688  130.4149  149.9679 H   0  0  0  0  0  0  0  0  0  0  0  0  # atno 10718 bound_to 10713
  154.1900  135.2795  155.3025 H   0  0  0  0  0  0  0  0  0  0  0  0  # atno 10763 bound_to 10752
  154.5936  135.5552  153.7307 H   0  0  0  0  0  0  0  0  0  0  0  0  # atno 10764 bound_to 10752
  153.0115  135.6374  154.2038 H   0  0  0  0  0  0  0  0  0  0  0  0  # atno 10765 bound_to 10752
  140.9179  134.1483  157.4338 H   0  0  0  0  0  0  0  0  0  0  0  0  # atno 11005 bound_to 11000
  146.3531  140.0601  142.8630 LP  0  0  0  0  0  0  0  0  0  0  0  0  # atno 17320 bound_to 7965
  145.1177  140.9444  143.4619 LP  0  0  0  0  0  0  0  0  0  0  0  0  # atno 17321 bound_to 7965
  139.9993  143.5762  152.2881 LP  0  0  0  0  0  0  0  0  0  0  0  0  # atno 17342 bound_to 10162
  139.6445  144.7657  151.2271 LP  0  0  0  0  0  0  0  0  0  0  0  0  # atno 17343 bound_to 10162
  156.7486  130.9106  151.3636 LP  0  0  0  0  0  0  0  0  0  0  0  0  # atno 17370 bound_to 10713
  157.6787  130.9119  150.0214 LP  0  0  0  0  0  0  0  0  0  0  0  0  # atno 17371 bound_to 10713
  139.8769  134.9960  156.5773 LP  0  0  0  0  0  0  0  0  0  0  0  0  # atno 17394 bound_to 11000
  140.8026  133.8493  155.8740 LP  0  0  0  0  0  0  0  0  0  0  0  0  # atno 17395 bound_to 11000

$$$$
