AV-unprocessed.smi:741|AV-procd|sdf|3556|dock3
  -GOLD-   22720 0553D 1   1.00000     0.00000
 Structure written by MMmdl.
 43 44  0  0  0  0  0  0  0  0  3 V2000
  147.1203  140.6730  153.4054 C   0  0  0  0  0  0  0  0  0  0  0  0
  147.0737  139.3151  152.6898 C   0  0  0  0  0  0  0  0  0  0  0  0
  146.6396  138.1479  153.5972 C   0  0  2  0  0  0  0  0  0  0  0  0
  147.6191  137.9698  154.7789 C   0  0  0  0  0  0  0  0  0  0  0  0
  149.0344  137.8628  154.3478 N   0  3  0  0  0  0  0  0  0  0  0  0
  149.7235  139.1619  154.1667 C   0  0  0  0  0  0  0  0  0  0  0  0
  151.1538  138.9877  154.6966 C   0  0  0  0  0  0  0  0  0  0  0  0
  151.3134  137.4850  154.9075 C   0  0  0  0  0  0  0  0  0  0  0  0
  149.8921  137.0293  155.2162 C   0  0  0  0  0  0  0  0  0  0  0  0
  146.5474  136.9180  152.8060 N   0  0  0  0  0  0  0  0  0  0  0  0
  145.4303  136.2190  152.5559 C   0  0  0  0  0  0  0  0  0  0  0  0
  144.3311  136.5064  153.0277 O   0  0  0  0  0  0  0  0  0  0  0  0
  145.6818  135.1677  151.7564 N   0  0  0  0  0  0  0  0  0  0  0  0
  144.7701  134.2051  151.2415 C   0  0  0  0  0  0  0  0  0  0  0  0
  143.5124  134.0928  151.8751 C   0  0  0  0  0  0  0  0  0  0  0  0
  142.5810  133.1416  151.4108 C   0  0  0  0  0  0  0  0  0  0  0  0
  142.9001  132.3398  150.3724 N   0  3  0  0  0  0  0  0  0  0  0  0
  144.0937  132.3996  149.7441 C   0  0  0  0  0  0  0  0  0  0  0  0
  145.0652  133.3312  150.1638 C   0  0  0  0  0  0  0  0  0  0  0  0
  147.4787  141.4515  152.7317 H   0  0  0  0  0  0  0  0  0  0  0  0
  147.7933  140.6425  154.2629 H   0  0  0  0  0  0  0  0  0  0  0  0
  146.1355  140.9756  153.7615 H   0  0  0  0  0  0  0  0  0  0  0  0
  146.4070  139.3841  151.8291 H   0  0  0  0  0  0  0  0  0  0  0  0
  148.0652  139.1057  152.2867 H   0  0  0  0  0  0  0  0  0  0  0  0
  145.6548  138.4021  153.9933 H   0  0  0  0  0  0  0  0  0  0  0  0
  147.5185  138.8279  155.4457 H   0  0  0  0  0  0  0  0  0  0  0  0
  147.3559  137.0914  155.3702 H   0  0  0  0  0  0  0  0  0  0  0  0
  149.7201  139.4205  153.1076 H   0  0  0  0  0  0  0  0  0  0  0  0
  149.2194  139.9658  154.7056 H   0  0  0  0  0  0  0  0  0  0  0  0
  151.9046  139.3950  154.0192 H   0  0  0  0  0  0  0  0  0  0  0  0
  151.2557  139.5042  155.6519 H   0  0  0  0  0  0  0  0  0  0  0  0
  151.6614  137.0146  153.9869 H   0  0  0  0  0  0  0  0  0  0  0  0
  152.0203  137.2399  155.7007 H   0  0  0  0  0  0  0  0  0  0  0  0
  149.6647  137.2270  156.2650 H   0  0  0  0  0  0  0  0  0  0  0  0
  149.7504  135.9639  155.0364 H   0  0  0  0  0  0  0  0  0  0  0  0
  147.4057  136.5978  152.3806 H   0  0  0  0  0  0  0  0  0  0  0  0
  146.6510  135.0137  151.5188 H   0  0  0  0  0  0  0  0  0  0  0  0
  143.2566  134.7313  152.7084 H   0  0  0  0  0  0  0  0  0  0  0  0
  141.5991  132.9970  151.8374 H   0  0  0  0  0  0  0  0  0  0  0  0
  144.2381  131.7001  148.9336 H   0  0  0  0  0  0  0  0  0  0  0  0
  146.0190  133.3450  149.6594 H   0  0  0  0  0  0  0  0  0  0  0  0
  149.0384  137.4225  153.4387 H   0  0  0  0  0  0  0  0  0  0  0  0
  142.2129  131.6563  150.0529 H   0  0  0  0  0  0  0  0  0  0  0  0
  1  2  1  0  0  0  0
  1 20  1  0  0  0  0
  1 21  1  0  0  0  0
  1 22  1  0  0  0  0
  2  3  1  0  0  0  0
  2 23  1  0  0  0  0
  2 24  1  0  0  0  0
  3  4  1  0  0  0  0
  3 10  1  0  0  0  0
  3 25  1  0  0  0  0
  4  5  1  0  0  0  0
  4 26  1  0  0  0  0
  4 27  1  0  0  0  0
  5  9  1  0  0  0  0
  5  6  1  0  0  0  0
  5 42  1  0  0  0  0
  6  7  1  0  0  0  0
  6 28  1  0  0  0  0
  6 29  1  0  0  0  0
  7  8  1  0  0  0  0
  7 30  1  0  0  0  0
  7 31  1  0  0  0  0
  8  9  1  0  0  0  0
  8 32  1  0  0  0  0
  8 33  1  0  0  0  0
  9 34  1  0  0  0  0
  9 35  1  0  0  0  0
 10 11  1  0  0  0  0
 10 36  1  0  0  0  0
 11 12  2  0  0  0  0
 11 13  1  0  0  0  0
 13 14  1  0  0  0  0
 13 37  1  0  0  0  0
 14 19  1  0  0  0  0
 14 15  2  0  0  0  0
 15 16  1  0  0  0  0
 15 38  1  0  0  0  0
 16 17  2  0  0  0  0
 16 39  1  0  0  0  0
 17 18  1  0  0  0  0
 17 43  1  0  0  0  0
 18 19  2  0  0  0  0
 18 40  1  0  0  0  0
 19 41  1  0  0  0  0
M  CHG  1   5   1
M  CHG  1  17   1
M  END
> <s_m_source_file>
AV-unprocessed.smi

> <i_m_source_file_index>
741

> <i_lp_mmshare_version>
43012

> <i_f3d_flags>
0

> <s_epik_input>
W0NIMl0xW0NIMl1bQ0gyXVtDSDJdTjFbQ0gyXVtDQEBIXShbQ0gyXVtDSDNdKVtOSF1DKD1PKVtOSF1jMltjSF1bY0hdbltjSF1bY0hdMg==

> <s_epik_cmdline>
J2VwaWtfcHl0aG9uJywgJy1waCcsICc3LjAnLCAnLXRuJywgJzgnLCAnLW1hJywgJzIwMCcsICctbWV0YWxfYmluZGluZycsICctaW1hZScsICc8aW5maWxlLm1hZT4nLCAnLW9tYWUnLCAnPG91dGZpbGUubWFlPic=

> <r_epik_Ionization_Penalty>
1.10771

> <r_epik_Ionization_Penalty_Charging>
1.10769

> <r_epik_Ionization_Penalty_Neutral>
1.91663e-05

> <r_epik_State_Penalty>
1.16347

> <r_epik_Charging_Adjusted_Penalty>
2.27116

> <i_epik_Tot_Q>
2

> <i_epik_Tot_abs_Q>
2

> <r_epik_Metal_State_Penalty>
1.24871

> <b_epik_Metal_Only>
0

> <s_lp_Force_Field>
OPLS_2005

> <r_lp_Energy>
49.4114

> <b_lp_Chiralities_Consistent>
1

> <s_lp_Variant>
AV-unprocessed.smi:741-3

> <Gold.Version>
5.8.1

> <Gold.Id.Protein>
6NUR|6NUR_protein|mol2

> <Gold.PLP.Fitness>
43.2891

> <Gold.PLP.PLP>
-32.1410

> <Gold.PLP.part.hbond>
-4.0000

> <Gold.PLP.part.metal>
0.0000

> <Gold.PLP.part.buried>
-0.2568

> <Gold.PLP.part.nonpolar>
-27.8611

> <Gold.PLP.part.repulsive>
0.2554

> <Gold.PLP.ligand.clash>
0.0000

> <Gold.PLP.ligand.torsion>
0.4578

> <Gold.PLP.Chemscore.Hbond>
4.0000

> <Gold.PLP.Chemscore.CHOScore>
0.0000

> <Gold.PLP.Chemscore.Metal>
0.0000

> <Gold.Chemscore.Hbonds>
donor molecule, donor type, donor heavy atom, donor atom, acceptor molecule, acceptor atom, score
      L1  H     5    42       P1  7948  2.00
      L1  H    10    36       P1  7948  1.00
      L1  H    17    43       P1 10952  1.00

> <Gold.PLP.Chemscore.Internal.Correction>
0.0636

> <Gold.Rescore>
     Score         DG    S(hbond)    S(metal)    S(lipo)     H(rot)  DE(clash)    DE(int)     intcor
     18.62     -21.00       2.93        0.00      84.64       1.63       0.51       1.87       ----

> <Gold.Chemscore.Fitness>
18.6181

> <Gold.Chemscore.DG>
-20.9955

> <Gold.Chemscore.ZeroCoef>
-5.4800

> <Gold.Chemscore.Hbond>
2.9267

> <Gold.Chemscore.Metal>
0.0000

> <Gold.Chemscore.Lipo>
84.6402

> <Gold.Chemscore.Internal_Hbond>
0.0000

> <Gold.Chemscore.DEClash>
0.5097

> <Gold.Chemscore.DEInternal>
1.8677

> <Gold.Chemscore.Rot>
1.6260

> <Gold.Chemscore.Internal.Correction>
   9.000000E+99

> <Gold.Chemscore.Hbonds>
donor molecule, donor type, donor heavy atom, donor atom, acceptor molecule, acceptor atom, score
      L1  H     5    42       P1  7948  0.99
      L1  H    10    36       P1  7948  1.00
      L1  H    17    43       P1 10952  0.87

> <Gold.Chemscore.Hbond.Weighted>
-9.7752

> <Gold.Chemscore.Metal.Weighted>
-0.0000

> <Gold.Chemscore.Lipo.Weighted>
-9.9029

> <Gold.Chemscore.Internal_Hbond.Weighted>
0.0000

> <Gold.Chemscore.DEClash.Weighted>
0.5097

> <Gold.Chemscore.DEInternal.Weighted>
1.8677

> <Gold.Chemscore.Rot.Weighted>
4.1626

> <Gold.Chemscore.Internal.Correction.Weighted>
   9.000000E+99

> <Gold.Protein.RotatedTorsions>
[ 6907 6896 6895 6894 ] final  174.71 input  -60.11 | X-H torsion
[ 7974 7965 7964 7962 ] final -112.17 input  175.53 | X-H torsion
[ 8008 7997 7996 7995 ] final  -46.37 input   59.86 | X-H torsion
[ 10167 10162 10161 10158 ] final  -56.81 input  -65.29 | X-H torsion
[ 10718 10713 10712 10709 ] final   50.02 input   66.30 | X-H torsion
[ 10763 10752 10751 10750 ] final  -30.02 input  -60.55 | X-H torsion
[ 11005 11000 10999 10996 ] final  146.82 input  -57.11 | X-H torsion

> <Gold.Protein.ActiveResidues>
 VAL166  LYS551  ARG553  GLY616  TRP617  ASP618  TYR619  PRO620  LYS621  CYS622 
 ASP623  PHE694  ASN695  SER759  ASP760  ASP761  ALA762  ILE779  LEU786  VAL792 
 PHE793  MET794  SER795  GLU796  ALA797  LYS798  CYS799  TRP800  GLU811  SER814 

> <Gold.Protein.RotatedAtoms>
  151.7479  133.3325  159.3383 H   0  0  0  0  0  0  0  0  0  0  0  0  # atno 6907 bound_to 6896
  150.7547  134.6218  159.6149 H   0  0  0  0  0  0  0  0  0  0  0  0  # atno 6908 bound_to 6896
  152.3487  134.7037  160.0294 H   0  0  0  0  0  0  0  0  0  0  0  0  # atno 6909 bound_to 6896
  145.1472  140.8810  143.3667 H   0  0  0  0  0  0  0  0  0  0  0  0  # atno 7974 bound_to 7965
  154.4007  140.1373  156.4000 H   0  0  0  0  0  0  0  0  0  0  0  0  # atno 8008 bound_to 7997
  155.7833  140.3481  155.5289 H   0  0  0  0  0  0  0  0  0  0  0  0  # atno 8009 bound_to 7997
  155.8652  140.0963  157.1577 H   0  0  0  0  0  0  0  0  0  0  0  0  # atno 8010 bound_to 7997
  140.6295  143.2453  151.5277 H   0  0  0  0  0  0  0  0  0  0  0  0  # atno 10167 bound_to 10162
  157.4844  130.8336  149.8130 H   0  0  0  0  0  0  0  0  0  0  0  0  # atno 10718 bound_to 10713
  153.7741  135.6910  153.4901 H   0  0  0  0  0  0  0  0  0  0  0  0  # atno 10763 bound_to 10752
  153.1855  135.4490  155.0081 H   0  0  0  0  0  0  0  0  0  0  0  0  # atno 10764 bound_to 10752
  154.8107  135.3376  154.7248 H   0  0  0  0  0  0  0  0  0  0  0  0  # atno 10765 bound_to 10752
  140.0824  134.9089  157.1522 H   0  0  0  0  0  0  0  0  0  0  0  0  # atno 11005 bound_to 11000
  145.0469  139.3213  143.5948 LP  0  0  0  0  0  0  0  0  0  0  0  0  # atno 17320 bound_to 7965
  146.3499  139.9863  142.8690 LP  0  0  0  0  0  0  0  0  0  0  0  0  # atno 17321 bound_to 7965
  139.5511  144.2393  152.1532 LP  0  0  0  0  0  0  0  0  0  0  0  0  # atno 17342 bound_to 10162
  140.1633  144.5005  150.6620 LP  0  0  0  0  0  0  0  0  0  0  0  0  # atno 17343 bound_to 10162
  156.0139  130.3822  150.2174 LP  0  0  0  0  0  0  0  0  0  0  0  0  # atno 17370 bound_to 10713
  157.0361  131.0022  151.3297 LP  0  0  0  0  0  0  0  0  0  0  0  0  # atno 17371 bound_to 10713
  140.3468  134.2642  155.7204 LP  0  0  0  0  0  0  0  0  0  0  0  0  # atno 17394 bound_to 11000
  141.2051  133.7868  157.0250 LP  0  0  0  0  0  0  0  0  0  0  0  0  # atno 17395 bound_to 11000

$$$$
