AV-unprocessed.smi:3307|AV-procd|sdf|12706|dock3
  -GOLD-   2272019 43D 1   1.00000     0.00000
 Structure written by MMmdl.
 31 32  0  0  0  0  0  0  0  0  2 V2000
  153.8963  140.4551  160.3966 C   0  0  0  0  0  0  0  0  0  0  0  0
  153.1693  141.6964  159.9701 C   0  0  0  0  0  0  0  0  0  0  0  0
  153.1586  142.9726  160.5982 C   0  0  0  0  0  0  0  0  0  0  0  0
  152.3455  143.7329  159.8059 C   0  0  0  0  0  0  0  0  0  0  0  0
  151.9425  145.1646  159.9406 C   0  0  0  0  0  0  0  0  0  0  0  0
  151.9104  142.9162  158.7767 N   0  0  0  0  0  0  0  0  0  0  0  0
  151.0362  143.2285  157.6558 C   0  0  0  0  0  0  0  0  0  0  0  0
  150.3440  141.9785  157.0803 C   0  0  2  0  0  0  0  0  0  0  0  0
  151.2588  141.1109  156.2138 C   0  0  0  0  0  0  0  0  0  0  0  0
  150.2698  140.3433  155.3442 C   0  0  0  0  0  0  0  0  0  0  0  0
  149.1572  141.3627  155.0874 C   0  0  0  0  0  0  0  0  0  0  0  0
  149.1956  142.3166  156.2144 N   0  3  0  0  0  0  0  0  0  0  0  0
  152.4237  141.6711  158.8780 N   0  0  0  0  0  0  0  0  0  0  0  0
  154.4742  140.6290  161.3044 H   0  0  0  0  0  0  0  0  0  0  0  0
  154.5875  140.1192  159.6233 H   0  0  0  0  0  0  0  0  0  0  0  0
  153.1991  139.6416  160.5983 H   0  0  0  0  0  0  0  0  0  0  0  0
  153.6732  143.2840  161.4953 H   0  0  0  0  0  0  0  0  0  0  0  0
  152.3552  145.6008  160.8505 H   0  0  0  0  0  0  0  0  0  0  0  0
  150.8579  145.2622  159.9856 H   0  0  0  0  0  0  0  0  0  0  0  0
  152.3042  145.7506  159.0955 H   0  0  0  0  0  0  0  0  0  0  0  0
  150.2935  143.9627  157.9682 H   0  0  0  0  0  0  0  0  0  0  0  0
  151.6378  143.7093  156.8832 H   0  0  0  0  0  0  0  0  0  0  0  0
  149.9617  141.3577  157.8924 H   0  0  0  0  0  0  0  0  0  0  0  0
  151.8953  141.7349  155.5847 H   0  0  0  0  0  0  0  0  0  0  0  0
  151.9031  140.4564  156.8018 H   0  0  0  0  0  0  0  0  0  0  0  0
  150.7171  139.9625  154.4255 H   0  0  0  0  0  0  0  0  0  0  0  0
  149.8724  139.4937  155.9016 H   0  0  0  0  0  0  0  0  0  0  0  0
  149.3502  141.9121  154.1655 H   0  0  0  0  0  0  0  0  0  0  0  0
  148.1786  140.8902  155.0000 H   0  0  0  0  0  0  0  0  0  0  0  0
  148.3400  142.2757  156.7498 H   0  0  0  0  0  0  0  0  0  0  0  0
  149.3181  143.2481  155.8438 H   0  0  0  0  0  0  0  0  0  0  0  0
  1  2  1  0  0  0  0
  1 14  1  0  0  0  0
  1 15  1  0  0  0  0
  1 16  1  0  0  0  0
  2 13  2  0  0  0  0
  2  3  1  0  0  0  0
  3  4  2  0  0  0  0
  3 17  1  0  0  0  0
  4  5  1  0  0  0  0
  4  6  1  0  0  0  0
  5 18  1  0  0  0  0
  5 19  1  0  0  0  0
  5 20  1  0  0  0  0
  6  7  1  0  0  0  0
  6 13  1  0  0  0  0
  7  8  1  0  0  0  0
  7 21  1  0  0  0  0
  7 22  1  0  0  0  0
  8 12  1  0  0  0  0
  8  9  1  0  0  0  0
  8 23  1  0  0  0  0
  9 10  1  0  0  0  0
  9 24  1  0  0  0  0
  9 25  1  0  0  0  0
 10 11  1  0  0  0  0
 10 26  1  0  0  0  0
 10 27  1  0  0  0  0
 11 12  1  0  0  0  0
 11 28  1  0  0  0  0
 11 29  1  0  0  0  0
 12 30  1  0  0  0  0
 12 31  1  0  0  0  0
M  CHG  1  12   1
M  END
> <s_m_source_file>
AV-unprocessed.smi

> <i_m_source_file_index>
3307

> <i_lp_mmshare_version>
43012

> <i_f3d_flags>
0

> <s_epik_input>
W0NIM11jMVtjSF1jKFtDSDNdKW4objEpW0NIMl1bQ0BASF0yW0NIMl1bQ0gyXVtDSDJdW05IXTI=

> <s_epik_cmdline>
J2VwaWtfcHl0aG9uJywgJy1waCcsICc3LjAnLCAnLXRuJywgJzgnLCAnLW1hJywgJzIwMCcsICctbWV0YWxfYmluZGluZycsICctaW1hZScsICc8aW5maWxlLm1hZT4nLCAnLW9tYWUnLCAnPG91dGZpbGUubWFlPic=

> <r_lp_tautomer_probability>
1

> <r_epik_Ionization_Penalty>
0.000974324

> <r_epik_Ionization_Penalty_Charging>
0.000863359

> <r_epik_Ionization_Penalty_Neutral>
0.000110964

> <r_epik_State_Penalty>
-0

> <r_epik_Charging_Adjusted_Penalty>
0.000863359

> <i_epik_Tot_Q>
1

> <i_epik_Tot_abs_Q>
1

> <r_epik_Metal_State_Penalty>
-0

> <b_epik_Metal_Only>
0

> <s_lp_Force_Field>
OPLS_2005

> <r_lp_Energy>
23.4337

> <b_lp_Chiralities_Consistent>
1

> <s_lp_Variant>
AV-unprocessed.smi:3307-1

> <Gold.Version>
5.8.1

> <Gold.Id.Protein>
6NUR|6NUR_protein|mol2

> <Gold.PLP.Fitness>
40.4894

> <Gold.PLP.PLP>
-35.4202

> <Gold.PLP.part.hbond>
-0.9023

> <Gold.PLP.part.metal>
0.0000

> <Gold.PLP.part.buried>
-3.8006

> <Gold.PLP.part.nonpolar>
-30.9158

> <Gold.PLP.part.repulsive>
0.0875

> <Gold.PLP.ligand.clash>
0.0000

> <Gold.PLP.ligand.torsion>
0.4659

> <Gold.PLP.Chemscore.Hbond>
2.0000

> <Gold.PLP.Chemscore.CHOScore>
0.0000

> <Gold.PLP.Chemscore.Metal>
0.0000

> <Gold.Chemscore.Hbonds>
donor molecule, donor type, donor heavy atom, donor atom, acceptor molecule, acceptor atom, score
      L1  H    12    31       P1  8028  2.00

> <Gold.PLP.Chemscore.Internal.Correction>
0.0010

> <Gold.Rescore>
     Score         DG    S(hbond)    S(metal)    S(lipo)     H(rot)  DE(clash)    DE(int)     intcor
     16.46     -16.81       1.00        0.00      93.77       1.16       0.05       0.30       ----

> <Gold.Chemscore.Fitness>
16.4568

> <Gold.Chemscore.DG>
-16.8094

> <Gold.Chemscore.ZeroCoef>
-5.4800

> <Gold.Chemscore.Hbond>
0.9986

> <Gold.Chemscore.Metal>
0.0000

> <Gold.Chemscore.Lipo>
93.7682

> <Gold.Chemscore.Internal_Hbond>
0.0000

> <Gold.Chemscore.DEClash>
0.0520

> <Gold.Chemscore.DEInternal>
0.3005

> <Gold.Chemscore.Rot>
1.1628

> <Gold.Chemscore.Internal.Correction>
   9.000000E+99

> <Gold.Chemscore.Hbonds>
donor molecule, donor type, donor heavy atom, donor atom, acceptor molecule, acceptor atom, score
      L1  H    12    31       P1  8028  0.92

> <Gold.Chemscore.Hbond.Weighted>
-3.3353

> <Gold.Chemscore.Metal.Weighted>
-0.0000

> <Gold.Chemscore.Lipo.Weighted>
-10.9709

> <Gold.Chemscore.Internal_Hbond.Weighted>
0.0000

> <Gold.Chemscore.DEClash.Weighted>
0.0520

> <Gold.Chemscore.DEInternal.Weighted>
0.3005

> <Gold.Chemscore.Rot.Weighted>
2.9768

> <Gold.Chemscore.Internal.Correction.Weighted>
   9.000000E+99

> <Gold.Protein.RotatedTorsions>
[ 6907 6896 6895 6894 ] final   -4.26 input  -60.11 | X-H torsion
[ 7974 7965 7964 7962 ] final   71.58 input  175.53 | X-H torsion
[ 8008 7997 7996 7995 ] final  -79.24 input   59.86 | X-H torsion
[ 10167 10162 10161 10158 ] final -126.24 input  -65.29 | X-H torsion
[ 10718 10713 10712 10709 ] final   44.61 input   66.30 | X-H torsion
[ 10763 10752 10751 10750 ] final  -34.98 input  -60.55 | X-H torsion
[ 11005 11000 10999 10996 ] final -166.14 input  -57.11 | X-H torsion

> <Gold.Protein.ActiveResidues>
 VAL166  LYS551  ARG553  GLY616  TRP617  ASP618  TYR619  PRO620  LYS621  CYS622 
 ASP623  PHE694  ASN695  SER759  ASP760  ASP761  ALA762  ILE779  LEU786  VAL792 
 PHE793  MET794  SER795  GLU796  ALA797  LYS798  CYS799  TRP800  GLU811  SER814 

> <Gold.Protein.RotatedAtoms>
  151.5005  135.1061  159.9827 H   0  0  0  0  0  0  0  0  0  0  0  0  # atno 6907 bound_to 6896
  152.4703  133.8012  159.6964 H   0  0  0  0  0  0  0  0  0  0  0  0  # atno 6908 bound_to 6896
  150.8709  133.7444  159.2987 H   0  0  0  0  0  0  0  0  0  0  0  0  # atno 6909 bound_to 6896
  145.7641  139.2813  143.1359 H   0  0  0  0  0  0  0  0  0  0  0  0  # atno 7974 bound_to 7965
  154.5766  140.0681  156.9042 H   0  0  0  0  0  0  0  0  0  0  0  0  # atno 8008 bound_to 7997
  155.2538  140.3353  155.4261 H   0  0  0  0  0  0  0  0  0  0  0  0  # atno 8009 bound_to 7997
  156.2158  140.1778  156.7577 H   0  0  0  0  0  0  0  0  0  0  0  0  # atno 8010 bound_to 7997
  139.9736  143.5819  152.2404 H   0  0  0  0  0  0  0  0  0  0  0  0  # atno 10167 bound_to 10162
  157.4287  130.8012  149.7583 H   0  0  0  0  0  0  0  0  0  0  0  0  # atno 10718 bound_to 10713
  153.8556  135.6845  153.4788 H   0  0  0  0  0  0  0  0  0  0  0  0  # atno 10763 bound_to 10752
  153.1372  135.4673  154.9438 H   0  0  0  0  0  0  0  0  0  0  0  0  # atno 10764 bound_to 10752
  154.7782  135.3260  154.7995 H   0  0  0  0  0  0  0  0  0  0  0  0  # atno 10765 bound_to 10752
  140.5678  134.5269  157.5156 H   0  0  0  0  0  0  0  0  0  0  0  0  # atno 11005 bound_to 11000
  146.0235  140.8325  142.9911 LP  0  0  0  0  0  0  0  0  0  0  0  0  # atno 17320 bound_to 7965
  144.6825  140.2664  143.7312 LP  0  0  0  0  0  0  0  0  0  0  0  0  # atno 17321 bound_to 7965
  139.6462  144.7658  151.2238 LP  0  0  0  0  0  0  0  0  0  0  0  0  # atno 17342 bound_to 10162
  140.7513  143.6234  150.8491 LP  0  0  0  0  0  0  0  0  0  0  0  0  # atno 17343 bound_to 10162
  155.9905  130.3944  150.3023 LP  0  0  0  0  0  0  0  0  0  0  0  0  # atno 17370 bound_to 10713
  157.1178  131.0238  151.3022 LP  0  0  0  0  0  0  0  0  0  0  0  0  # atno 17371 bound_to 10713
  139.9376  134.7845  156.0761 LP  0  0  0  0  0  0  0  0  0  0  0  0  # atno 17394 bound_to 11000
  141.1075  133.6655  156.2899 LP  0  0  0  0  0  0  0  0  0  0  0  0  # atno 17395 bound_to 11000

$$$$
