AV-unprocessed.smi:3134|AV-procd|sdf|11941|dock10
  -GOLD-   2272017333D 1   1.00000     0.00000
 Structure written by MMmdl.
 37 37  0  0  0  0  0  0  0  0  2 V2000
  148.9259  138.8737  154.2603 C   0  0  0  0  0  0  0  0  0  0  0  0
  149.7691  137.7276  154.8408 C   0  0  0  0  0  0  0  0  0  0  0  0
  151.2582  137.8967  154.5111 C   0  0  0  0  0  0  0  0  0  0  0  0
  149.3023  136.4414  154.3311 N   0  0  0  0  0  0  0  0  0  0  0  0
  148.6408  135.5156  155.0437 C   0  0  0  0  0  0  0  0  0  0  0  0
  148.3427  135.6596  156.2299 O   0  0  0  0  0  0  0  0  0  0  0  0
  148.2423  134.2358  154.2953 C   0  0  2  0  0  0  0  0  0  0  0  0
  149.4878  133.3787  154.0219 C   0  0  0  0  0  0  0  0  0  0  0  0
  147.5508  134.5343  153.0199 N   0  3  0  0  0  0  0  0  0  0  0  0
  146.2115  135.1442  153.1609 C   0  0  0  0  0  0  0  0  0  0  0  0
  145.5474  135.3347  151.7901 C   0  0  0  0  0  0  0  0  0  0  0  0
  145.4072  134.0769  151.0825 N   0  0  0  0  0  0  0  0  0  0  0  0
  144.2606  133.4942  150.5847 C   0  0  0  0  0  0  0  0  0  0  0  0
  144.6260  132.3171  149.9969 C   0  0  0  0  0  0  0  0  0  0  0  0
  146.0355  132.2677  150.1858 C   0  0  0  0  0  0  0  0  0  0  0  0
  146.5003  133.3235  150.8348 N   0  0  0  0  0  0  0  0  0  0  0  0
  149.2624  139.8381  154.6418 H   0  0  0  0  0  0  0  0  0  0  0  0
  147.8738  138.7670  154.5264 H   0  0  0  0  0  0  0  0  0  0  0  0
  148.9928  138.9053  153.1723 H   0  0  0  0  0  0  0  0  0  0  0  0
  149.6673  137.7381  155.9276 H   0  0  0  0  0  0  0  0  0  0  0  0
  151.6423  138.8372  154.9073 H   0  0  0  0  0  0  0  0  0  0  0  0
  151.4308  137.8947  153.4343 H   0  0  0  0  0  0  0  0  0  0  0  0
  151.8518  137.0917  154.9455 H   0  0  0  0  0  0  0  0  0  0  0  0
  149.4978  136.2426  153.3603 H   0  0  0  0  0  0  0  0  0  0  0  0
  147.5637  133.6549  154.9226 H   0  0  0  0  0  0  0  0  0  0  0  0
  150.0052  133.1224  154.9474 H   0  0  0  0  0  0  0  0  0  0  0  0
  150.1983  133.8975  153.3768 H   0  0  0  0  0  0  0  0  0  0  0  0
  149.2181  132.4428  153.5314 H   0  0  0  0  0  0  0  0  0  0  0  0
  148.1385  135.1492  152.4748 H   0  0  0  0  0  0  0  0  0  0  0  0
  145.5934  134.5030  153.7910 H   0  0  0  0  0  0  0  0  0  0  0  0
  146.2947  136.1075  153.6655 H   0  0  0  0  0  0  0  0  0  0  0  0
  144.5580  135.7796  151.9060 H   0  0  0  0  0  0  0  0  0  0  0  0
  146.1321  136.0170  151.1711 H   0  0  0  0  0  0  0  0  0  0  0  0
  143.2910  133.9588  150.6890 H   0  0  0  0  0  0  0  0  0  0  0  0
  143.9845  131.6007  149.5055 H   0  0  0  0  0  0  0  0  0  0  0  0
  146.7298  131.5020  149.8725 H   0  0  0  0  0  0  0  0  0  0  0  0
  147.4378  133.6659  152.5172 H   0  0  0  0  0  0  0  0  0  0  0  0
  1  2  1  0  0  0  0
  1 17  1  0  0  0  0
  1 18  1  0  0  0  0
  1 19  1  0  0  0  0
  2  3  1  0  0  0  0
  2  4  1  0  0  0  0
  2 20  1  0  0  0  0
  3 21  1  0  0  0  0
  3 22  1  0  0  0  0
  3 23  1  0  0  0  0
  4  5  1  0  0  0  0
  4 24  1  0  0  0  0
  5  6  2  0  0  0  0
  5  7  1  0  0  0  0
  7  8  1  0  0  0  0
  7  9  1  0  0  0  0
  7 25  1  0  0  0  0
  8 26  1  0  0  0  0
  8 27  1  0  0  0  0
  8 28  1  0  0  0  0
  9 10  1  0  0  0  0
  9 29  1  0  0  0  0
  9 37  1  0  0  0  0
 10 11  1  0  0  0  0
 10 30  1  0  0  0  0
 10 31  1  0  0  0  0
 11 12  1  0  0  0  0
 11 32  1  0  0  0  0
 11 33  1  0  0  0  0
 12 16  1  0  0  0  0
 12 13  1  0  0  0  0
 13 14  2  0  0  0  0
 13 34  1  0  0  0  0
 14 15  1  0  0  0  0
 14 35  1  0  0  0  0
 15 16  2  0  0  0  0
 15 36  1  0  0  0  0
M  CHG  1   9   1
M  END
> <s_m_source_file>
AV-unprocessed.smi

> <i_m_source_file_index>
3134

> <i_lp_mmshare_version>
43012

> <i_f3d_flags>
0

> <s_epik_input>
W0NIM11bQ0hdKFtDSDNdKVtOSF1DKD1PKVtDQEhdKFtDSDNdKVtOSF1bQ0gyXVtDSDJdbjFbY0hdW2NIXVtjSF1uMQ==

> <s_epik_cmdline>
J2VwaWtfcHl0aG9uJywgJy1waCcsICc3LjAnLCAnLXRuJywgJzgnLCAnLW1hJywgJzIwMCcsICctbWV0YWxfYmluZGluZycsICctaW1hZScsICc8aW5maWxlLm1hZT4nLCAnLW9tYWUnLCAnPG91dGZpbGUubWFlPic=

> <r_lp_tautomer_probability>
1

> <r_epik_Ionization_Penalty>
0.20398

> <r_epik_Ionization_Penalty_Charging>
0.203977

> <r_epik_Ionization_Penalty_Neutral>
3.23345e-06

> <r_epik_State_Penalty>
0.193898

> <r_epik_Charging_Adjusted_Penalty>
0.397875

> <i_epik_Tot_Q>
1

> <i_epik_Tot_abs_Q>
1

> <r_epik_Metal_State_Penalty>
0.194184

> <b_epik_Metal_Only>
0

> <s_lp_Force_Field>
OPLS_2005

> <r_lp_Energy>
4.26542

> <b_lp_Chiralities_Consistent>
1

> <s_lp_Variant>
AV-unprocessed.smi:3134-1

> <Gold.Version>
5.8.1

> <Gold.Id.Protein>
6NUR|6NUR_protein|mol2

> <Gold.PLP.Fitness>
41.4290

> <Gold.PLP.PLP>
-27.1011

> <Gold.PLP.part.hbond>
-1.8102

> <Gold.PLP.part.metal>
0.0000

> <Gold.PLP.part.buried>
-3.4932

> <Gold.PLP.part.nonpolar>
-22.1585

> <Gold.PLP.part.repulsive>
0.2281

> <Gold.PLP.ligand.clash>
0.0000

> <Gold.PLP.ligand.torsion>
0.3607

> <Gold.PLP.Chemscore.Hbond>
2.9920

> <Gold.PLP.Chemscore.CHOScore>
2.0000

> <Gold.PLP.Chemscore.Metal>
0.0000

> <Gold.Chemscore.Hbonds>
donor molecule, donor type, donor heavy atom, donor atom, acceptor molecule, acceptor atom, score
      L1  H     4    24       P1  7948  0.98
      L1  H     9    29       P1  7948  1.62
      L1  C    13    34       P1 10186  0.85
      L1  C    15    36       P1 10747  1.00

> <Gold.PLP.Chemscore.Internal.Correction>
0.0734

> <Gold.Rescore>
     Score         DG    S(hbond)    S(metal)    S(lipo)     H(rot)  DE(clash)    DE(int)     intcor
     11.97     -13.61       1.95        0.00      60.62       2.13       0.01       1.64       ----

> <Gold.Chemscore.Fitness>
11.9691

> <Gold.Chemscore.DG>
-13.6126

> <Gold.Chemscore.ZeroCoef>
-5.4800

> <Gold.Chemscore.Hbond>
1.9465

> <Gold.Chemscore.Metal>
0.0000

> <Gold.Chemscore.Lipo>
60.6234

> <Gold.Chemscore.Internal_Hbond>
0.0000

> <Gold.Chemscore.DEClash>
0.0073

> <Gold.Chemscore.DEInternal>
1.6361

> <Gold.Chemscore.Rot>
2.1334

> <Gold.Chemscore.Internal.Correction>
   9.000000E+99

> <Gold.Chemscore.Hbonds>
donor molecule, donor type, donor heavy atom, donor atom, acceptor molecule, acceptor atom, score
      L1  H     4    24       P1  7948  0.45
      L1  H     9    29       P1  7948  0.69

> <Gold.Chemscore.Hbond.Weighted>
-6.5012

> <Gold.Chemscore.Metal.Weighted>
-0.0000

> <Gold.Chemscore.Lipo.Weighted>
-7.0929

> <Gold.Chemscore.Internal_Hbond.Weighted>
0.0000

> <Gold.Chemscore.DEClash.Weighted>
0.0073

> <Gold.Chemscore.DEInternal.Weighted>
1.6361

> <Gold.Chemscore.Rot.Weighted>
5.4615

> <Gold.Chemscore.Internal.Correction.Weighted>
   9.000000E+99

> <Gold.Protein.RotatedTorsions>
[ 6907 6896 6895 6894 ] final -170.06 input  -60.11 | X-H torsion
[ 7974 7965 7964 7962 ] final  176.43 input  175.53 | X-H torsion
[ 8008 7997 7996 7995 ] final  -97.41 input   59.86 | X-H torsion
[ 10167 10162 10161 10158 ] final -157.52 input  -65.29 | X-H torsion
[ 10718 10713 10712 10709 ] final  110.18 input   66.30 | X-H torsion
[ 10763 10752 10751 10750 ] final  121.38 input  -60.55 | X-H torsion
[ 11005 11000 10999 10996 ] final  -38.70 input  -57.11 | X-H torsion

> <Gold.Protein.ActiveResidues>
 VAL166  LYS551  ARG553  GLY616  TRP617  ASP618  TYR619  PRO620  LYS621  CYS622 
 ASP623  PHE694  ASN695  SER759  ASP760  ASP761  ALA762  ILE779  LEU786  VAL792 
 PHE793  MET794  SER795  GLU796  ALA797  LYS798  CYS799  TRP800  GLU811  SER814 

> <Gold.Protein.RotatedAtoms>
  151.5016  133.3503  159.2869 H   0  0  0  0  0  0  0  0  0  0  0  0  # atno 6907 bound_to 6896
  150.8769  134.8156  159.7207 H   0  0  0  0  0  0  0  0  0  0  0  0  # atno 6908 bound_to 6896
  152.4737  134.4908  159.9746 H   0  0  0  0  0  0  0  0  0  0  0  0  # atno 6909 bound_to 6896
  144.7184  140.0095  143.6440 H   0  0  0  0  0  0  0  0  0  0  0  0  # atno 7974 bound_to 7965
  154.7873  140.0463  157.1174 H   0  0  0  0  0  0  0  0  0  0  0  0  # atno 8008 bound_to 7997
  154.9632  140.3080  155.5001 H   0  0  0  0  0  0  0  0  0  0  0  0  # atno 8009 bound_to 7997
  156.2945  140.2267  156.4719 H   0  0  0  0  0  0  0  0  0  0  0  0  # atno 8010 bound_to 7997
  139.6764  143.9656  152.2313 H   0  0  0  0  0  0  0  0  0  0  0  0  # atno 10167 bound_to 10162
  157.6506  131.0928  150.6563 H   0  0  0  0  0  0  0  0  0  0  0  0  # atno 10718 bound_to 10713
  153.6132  135.3427  155.2986 H   0  0  0  0  0  0  0  0  0  0  0  0  # atno 10763 bound_to 10752
  154.8614  135.4255  154.2287 H   0  0  0  0  0  0  0  0  0  0  0  0  # atno 10764 bound_to 10752
  153.3143  135.7034  153.7160 H   0  0  0  0  0  0  0  0  0  0  0  0  # atno 10765 bound_to 10752
  141.0047  133.6938  156.2087 H   0  0  0  0  0  0  0  0  0  0  0  0  # atno 11005 bound_to 11000
  146.0270  139.3301  143.0778 LP  0  0  0  0  0  0  0  0  0  0  0  0  # atno 17320 bound_to 7965
  145.8499  140.9534  143.0755 LP  0  0  0  0  0  0  0  0  0  0  0  0  # atno 17321 bound_to 7965
  139.9434  144.6667  150.8243 LP  0  0  0  0  0  0  0  0  0  0  0  0  # atno 17342 bound_to 10162
  140.7637  143.3229  151.2581 LP  0  0  0  0  0  0  0  0  0  0  0  0  # atno 17343 bound_to 10162
  156.6875  130.4585  149.5609 LP  0  0  0  0  0  0  0  0  0  0  0  0  # atno 17370 bound_to 10713
  156.1885  130.6545  151.1034 LP  0  0  0  0  0  0  0  0  0  0  0  0  # atno 17371 bound_to 10713
  140.6832  134.4744  157.5589 LP  0  0  0  0  0  0  0  0  0  0  0  0  # atno 17394 bound_to 11000
  139.9057  134.8455  156.1717 LP  0  0  0  0  0  0  0  0  0  0  0  0  # atno 17395 bound_to 11000

$$$$
