AV-unprocessed.smi:113|AV-procd|sdf|1098|dock10
  -GOLD-   2262018203D 1   1.00000     0.00000
 Structure written by MMmdl.
 52 55  0  0  0  0  0  0  0  0  1 V2000
  153.5519  138.3649  158.1047 C   0  0  0  0  0  0  0  0  0  0  0  0
  153.0979  139.6725  158.7194 C   0  0  0  0  0  0  0  0  0  0  0  0
  152.2004  140.5134  158.0377 C   0  0  0  0  0  0  0  0  0  0  0  0
  151.8008  141.7257  158.6452 C   0  0  0  0  0  0  0  0  0  0  0  0
  150.8191  142.6750  157.9491 C   0  0  0  0  0  0  0  0  0  0  0  0
  149.6390  142.0749  157.3427 N   0  0  0  0  0  0  0  0  0  0  0  0
  148.4335  142.0958  158.0851 C   0  0  0  0  0  0  0  0  0  0  0  0
  148.3768  142.6012  159.2083 O   0  0  0  0  0  0  0  0  0  0  0  0
  147.2872  141.4627  157.4288 C   0  0  0  0  0  0  0  0  0  0  0  0
  145.9578  141.4474  158.1669 C   0  0  0  0  0  0  0  0  0  0  0  0
  147.4350  140.9098  156.2009 C   0  0  0  0  0  0  0  0  0  0  0  0
  148.6301  140.8955  155.4989 N   0  0  0  0  0  0  0  0  0  0  0  0
  148.7514  140.2512  154.1313 C   0  0  1  0  0  0  0  0  0  0  0  0
  148.8191  138.7291  154.2580 C   0  0  0  0  0  0  0  0  0  0  0  0
  147.3556  138.3510  154.1643 C   0  0  2  0  0  0  0  0  0  0  0  0
  147.1920  137.0069  153.7582 O   0  0  0  0  0  0  0  0  0  0  0  0
  146.7935  139.3995  153.1868 C   0  0  2  0  0  0  0  0  0  0  0  0
  146.8558  139.0262  151.6917 C   0  0  0  0  0  0  0  0  0  0  0  0
  146.1089  137.8549  151.4364 O   0  0  0  0  0  0  0  0  0  0  0  0
  147.6223  140.5521  153.3632 O   0  0  0  0  0  0  0  0  0  0  0  0
  149.7819  141.4734  156.0723 C   0  0  0  0  0  0  0  0  0  0  0  0
  150.8675  141.4345  155.4877 O   0  0  0  0  0  0  0  0  0  0  0  0
  152.3375  142.0381  159.9237 C   0  0  0  0  0  0  0  0  0  0  0  0
  151.9920  143.2341  160.5987 C   0  0  0  0  0  0  0  0  0  0  0  0
  152.5330  143.5242  161.8640 C   0  0  0  0  0  0  0  0  0  0  0  0
  153.4251  142.6229  162.4676 C   0  0  0  0  0  0  0  0  0  0  0  0
  153.7744  141.4333  161.8035 C   0  0  0  0  0  0  0  0  0  0  0  0
  153.2437  141.1210  160.5335 C   0  0  0  0  0  0  0  0  0  0  0  0
  153.6068  139.9669  159.9319 N   0  0  0  0  0  0  0  0  0  0  0  0
  152.8375  138.0157  157.3588 H   0  0  0  0  0  0  0  0  0  0  0  0
  153.6495  137.5900  158.8660 H   0  0  0  0  0  0  0  0  0  0  0  0
  154.5191  138.4942  157.6188 H   0  0  0  0  0  0  0  0  0  0  0  0
  151.8322  140.2186  157.0664 H   0  0  0  0  0  0  0  0  0  0  0  0
  150.4674  143.4334  158.6502 H   0  0  0  0  0  0  0  0  0  0  0  0
  151.3343  143.2438  157.1736 H   0  0  0  0  0  0  0  0  0  0  0  0
  145.1744  140.9603  157.5854 H   0  0  0  0  0  0  0  0  0  0  0  0
  145.6290  142.4650  158.3814 H   0  0  0  0  0  0  0  0  0  0  0  0
  146.0533  140.9111  159.1119 H   0  0  0  0  0  0  0  0  0  0  0  0
  146.5642  140.4500  155.7593 H   0  0  0  0  0  0  0  0  0  0  0  0
  149.6323  140.6968  153.6666 H   0  0  0  0  0  0  0  0  0  0  0  0
  149.3810  138.3393  153.4079 H   0  0  0  0  0  0  0  0  0  0  0  0
  149.3056  138.4075  155.1797 H   0  0  0  0  0  0  0  0  0  0  0  0
  146.8877  138.4794  155.1412 H   0  0  0  0  0  0  0  0  0  0  0  0
  147.5599  136.9077  152.8930 H   0  0  0  0  0  0  0  0  0  0  0  0
  145.7687  139.6639  153.4519 H   0  0  0  0  0  0  0  0  0  0  0  0
  146.4181  139.8253  151.0928 H   0  0  0  0  0  0  0  0  0  0  0  0
  147.8841  138.8999  151.3516 H   0  0  0  0  0  0  0  0  0  0  0  0
  145.5808  137.9979  150.6657 H   0  0  0  0  0  0  0  0  0  0  0  0
  151.3104  143.9482  160.1628 H   0  0  0  0  0  0  0  0  0  0  0  0
  152.2630  144.4389  162.3709 H   0  0  0  0  0  0  0  0  0  0  0  0
  153.8420  142.8427  163.4395 H   0  0  0  0  0  0  0  0  0  0  0  0
  154.4622  140.7485  162.2781 H   0  0  0  0  0  0  0  0  0  0  0  0
  1  2  1  0  0  0  0
  1 30  1  0  0  0  0
  1 31  1  0  0  0  0
  1 32  1  0  0  0  0
  2 29  1  0  0  0  0
  2  3  2  0  0  0  0
  3  4  1  0  0  0  0
  3 33  1  0  0  0  0
  4  5  1  0  0  0  0
  4 23  2  0  0  0  0
  5  6  1  0  0  0  0
  5 34  1  0  0  0  0
  5 35  1  0  0  0  0
  6 21  1  0  0  0  0
  6  7  1  0  0  0  0
  7  8  2  0  0  0  0
  7  9  1  0  0  0  0
  9 10  1  0  0  0  0
  9 11  2  0  0  0  0
 10 36  1  0  0  0  0
 10 37  1  0  0  0  0
 10 38  1  0  0  0  0
 11 12  1  0  0  0  0
 11 39  1  0  0  0  0
 12 13  1  0  0  0  0
 12 21  1  0  0  0  0
 13 20  1  0  0  0  0
 13 14  1  0  0  0  0
 13 40  1  0  0  0  0
 14 15  1  0  0  0  0
 14 41  1  0  0  0  0
 14 42  1  0  0  0  0
 15 16  1  0  0  0  0
 15 17  1  0  0  0  0
 15 43  1  0  0  0  0
 16 44  1  0  0  0  0
 17 18  1  0  0  0  0
 17 20  1  0  0  0  0
 17 45  1  0  0  0  0
 18 19  1  0  0  0  0
 18 46  1  0  0  0  0
 18 47  1  0  0  0  0
 19 48  1  0  0  0  0
 21 22  2  0  0  0  0
 23 28  1  0  0  0  0
 23 24  1  0  0  0  0
 24 25  2  0  0  0  0
 24 49  1  0  0  0  0
 25 26  1  0  0  0  0
 25 50  1  0  0  0  0
 26 27  2  0  0  0  0
 26 51  1  0  0  0  0
 27 28  1  0  0  0  0
 27 52  1  0  0  0  0
 28 29  2  0  0  0  0
M  END
> <s_m_source_file>
AV-unprocessed.smi

> <i_m_source_file_index>
113

> <i_lp_mmshare_version>
43012

> <i_f3d_flags>
0

> <s_epik_input>
W2NIXTFbY0hdW2NIXVtjSF1jKGMxMiluYyhbQ0gzXSlbY0hdYzJbQ0gyXW4zYyg9TyljKFtDSDNdKVtjSF1uKGMzPU8pW0NAQEhdNFtDSDJdW0NAQEhdKFtPSF0pW0NASF0oTzQpW0NIMl1bT0hd

> <s_epik_cmdline>
J2VwaWtfcHl0aG9uJywgJy1waCcsICc3LjAnLCAnLXRuJywgJzgnLCAnLW1hJywgJzIwMCcsICctbWV0YWxfYmluZGluZycsICctaW1hZScsICc8aW5maWxlLm1hZT4nLCAnLW9tYWUnLCAnPG91dGZpbGUubWFlPic=

> <r_lp_tautomer_probability>
1

> <r_epik_Ionization_Penalty>
0.214728

> <r_epik_Ionization_Penalty_Charging>
3.04883e-08

> <r_epik_Ionization_Penalty_Neutral>
0.214728

> <r_epik_State_Penalty>
0.204913

> <r_epik_Charging_Adjusted_Penalty>
0.204913

> <i_epik_Tot_Q>
0

> <i_epik_Tot_abs_Q>
0

> <r_epik_Metal_State_Penalty>
0.000244761

> <b_epik_Metal_Only>
0

> <s_epik_Chemistry_Notes>
This compound contains an acetal/aminal-like group ( X-CH(R)-Y where X, Y are N, S, or O) that may be acid/base labile, releasing an aldehyde.

> <s_lp_Force_Field>
OPLS_2005

> <r_lp_Energy>
41.6677

> <b_lp_Chiralities_Consistent>
1

> <s_lp_Variant>
AV-unprocessed.smi:113-8

> <Gold.Version>
5.8.1

> <Gold.Id.Protein>
6NUR|6NUR_protein|mol2

> <Gold.PLP.Fitness>
56.7796

> <Gold.PLP.PLP>
-51.4584

> <Gold.PLP.part.hbond>
-4.2385

> <Gold.PLP.part.metal>
0.0000

> <Gold.PLP.part.buried>
-3.8153

> <Gold.PLP.part.nonpolar>
-44.4506

> <Gold.PLP.part.repulsive>
1.3248

> <Gold.PLP.ligand.clash>
0.0000

> <Gold.PLP.ligand.torsion>
0.9912

> <Gold.PLP.Chemscore.Hbond>
2.4293

> <Gold.PLP.Chemscore.CHOScore>
0.0000

> <Gold.PLP.Chemscore.Metal>
0.0000

> <Gold.Chemscore.Hbonds>
donor molecule, donor type, donor heavy atom, donor atom, acceptor molecule, acceptor atom, score
      L1  H    16    44       P1  7948  0.94
      L1  H    19    48       P1 10171  1.00
      P1  H  6933  6944       L1     8  0.17
      P1  H  7989  7998       L1    22  0.30

> <Gold.PLP.Chemscore.Internal.Correction>
0.0158

> <Gold.Rescore>
     Score         DG    S(hbond)    S(metal)    S(lipo)     H(rot)  DE(clash)    DE(int)     intcor
     18.98     -20.61       2.42        0.00     124.74       2.95       0.50       1.13       ----

> <Gold.Chemscore.Fitness>
18.9815

> <Gold.Chemscore.DG>
-20.6065

> <Gold.Chemscore.ZeroCoef>
-5.4800

> <Gold.Chemscore.Hbond>
2.4178

> <Gold.Chemscore.Metal>
0.0000

> <Gold.Chemscore.Lipo>
124.7428

> <Gold.Chemscore.Internal_Hbond>
0.0000

> <Gold.Chemscore.DEClash>
0.4951

> <Gold.Chemscore.DEInternal>
1.1299

> <Gold.Chemscore.Rot>
2.9469

> <Gold.Chemscore.Internal.Correction>
   9.000000E+99

> <Gold.Chemscore.Hbonds>
donor molecule, donor type, donor heavy atom, donor atom, acceptor molecule, acceptor atom, score
      L1  H    16    44       P1  7948  0.91
      L1  H    19    48       P1 10171  0.92
      P1  H  6933  6944       L1     8  0.18
      P1  H  7989  7998       L1    22  0.29

> <Gold.Chemscore.Hbond.Weighted>
-8.0756

> <Gold.Chemscore.Metal.Weighted>
-0.0000

> <Gold.Chemscore.Lipo.Weighted>
-14.5949

> <Gold.Chemscore.Internal_Hbond.Weighted>
0.0000

> <Gold.Chemscore.DEClash.Weighted>
0.4951

> <Gold.Chemscore.DEInternal.Weighted>
1.1299

> <Gold.Chemscore.Rot.Weighted>
7.5439

> <Gold.Chemscore.Internal.Correction.Weighted>
   9.000000E+99

> <Gold.Protein.RotatedTorsions>
[ 6907 6896 6895 6894 ] final -174.28 input  -60.11 | X-H torsion
[ 7974 7965 7964 7962 ] final   72.58 input  175.53 | X-H torsion
[ 8008 7997 7996 7995 ] final -137.03 input   59.86 | X-H torsion
[ 10167 10162 10161 10158 ] final   63.69 input  -65.29 | X-H torsion
[ 10718 10713 10712 10709 ] final   54.83 input   66.30 | X-H torsion
[ 10763 10752 10751 10750 ] final  -14.54 input  -60.55 | X-H torsion
[ 11005 11000 10999 10996 ] final  153.68 input  -57.11 | X-H torsion

> <Gold.Protein.ActiveResidues>
 VAL166  LYS551  ARG553  GLY616  TRP617  ASP618  TYR619  PRO620  LYS621  CYS622 
 ASP623  PHE694  ASN695  SER759  ASP760  ASP761  ALA762  ILE779  LEU786  VAL792 
 PHE793  MET794  SER795  GLU796  ALA797  LYS798  CYS799  TRP800  GLU811  SER814 

> <Gold.Protein.RotatedAtoms>
  151.5698  133.3391  159.2987 H   0  0  0  0  0  0  0  0  0  0  0  0  # atno 6907 bound_to 6896
  150.8374  134.7655  159.6915 H   0  0  0  0  0  0  0  0  0  0  0  0  # atno 6908 bound_to 6896
  152.4448  134.5524  159.9922 H   0  0  0  0  0  0  0  0  0  0  0  0  # atno 6909 bound_to 6896
  145.7517  139.2762  143.1428 H   0  0  0  0  0  0  0  0  0  0  0  0  # atno 7974 bound_to 7965
  155.4051  140.0508  157.3035 H   0  0  0  0  0  0  0  0  0  0  0  0  # atno 8008 bound_to 7997
  154.4972  140.2143  155.9381 H   0  0  0  0  0  0  0  0  0  0  0  0  # atno 8009 bound_to 7997
  156.1421  140.3152  155.8517 H   0  0  0  0  0  0  0  0  0  0  0  0  # atno 8010 bound_to 7997
  140.1303  144.4649  150.6868 H   0  0  0  0  0  0  0  0  0  0  0  0  # atno 10167 bound_to 10162
  157.5292  130.8618  149.8664 H   0  0  0  0  0  0  0  0  0  0  0  0  # atno 10718 bound_to 10713
  153.5298  135.7015  153.5689 H   0  0  0  0  0  0  0  0  0  0  0  0  # atno 10763 bound_to 10752
  153.3702  135.3947  155.1782 H   0  0  0  0  0  0  0  0  0  0  0  0  # atno 10764 bound_to 10752
  154.8686  135.3810  154.4794 H   0  0  0  0  0  0  0  0  0  0  0  0  # atno 10765 bound_to 10752
  140.1419  134.8733  157.2343 H   0  0  0  0  0  0  0  0  0  0  0  0  # atno 11005 bound_to 11000
  146.0351  140.8220  142.9857 LP  0  0  0  0  0  0  0  0  0  0  0  0  # atno 17320 bound_to 7965
  144.6848  140.2826  143.7290 LP  0  0  0  0  0  0  0  0  0  0  0  0  # atno 17321 bound_to 7965
  140.6821  143.2331  151.5358 LP  0  0  0  0  0  0  0  0  0  0  0  0  # atno 17342 bound_to 10162
  139.5523  144.2364  152.1552 LP  0  0  0  0  0  0  0  0  0  0  0  0  # atno 17343 bound_to 10162
  156.0410  130.3739  150.1437 LP  0  0  0  0  0  0  0  0  0  0  0  0  # atno 17370 bound_to 10713
  156.9622  130.9808  151.3476 LP  0  0  0  0  0  0  0  0  0  0  0  0  # atno 17371 bound_to 10713
  140.2711  134.3459  155.7373 LP  0  0  0  0  0  0  0  0  0  0  0  0  # atno 17394 bound_to 11000
  141.2187  133.7424  156.9224 LP  0  0  0  0  0  0  0  0  0  0  0  0  # atno 17395 bound_to 11000

$$$$
