AV-unprocessed.smi:34|AV-procd|sdf|246|dock4
  -GOLD-   2262016 03D 1   1.00000     0.00000
 Structure written by MMmdl.
 54 58  0  0  0  0  0  0  0  0  2 V2000
  153.4605  140.2187  159.7589 O   0  0  0  0  0  0  0  0  0  0  0  0
  152.8492  140.8404  158.8871 C   0  0  0  0  0  0  0  0  0  0  0  0
  152.5851  140.4482  157.6149 N   0  5  0  0  0  0  0  0  0  0  0  0
  151.6863  139.4785  157.3877 C   0  0  0  0  0  0  0  0  0  0  0  0
  151.5935  138.4194  158.2314 N   0  0  0  0  0  0  0  0  0  0  0  0
  150.6993  137.4513  158.0038 C   0  0  0  0  0  0  0  0  0  0  0  0
  149.8163  137.3417  157.0069 N   0  0  0  0  0  0  0  0  0  0  0  0
  149.9051  138.3946  156.1431 C   0  0  0  0  0  0  0  0  0  0  0  0
  150.8111  139.4886  156.2669 C   0  0  0  0  0  0  0  0  0  0  0  0
  150.6465  140.3853  155.2222 N   0  0  0  0  0  0  0  0  0  0  0  0
  149.6693  139.8095  154.5263 C   0  0  0  0  0  0  0  0  0  0  0  0
  149.1696  138.6479  154.9941 N   0  0  0  0  0  0  0  0  0  0  0  0
  148.0831  137.8280  154.3708 C   0  0  1  0  0  0  0  0  0  0  0  0
  147.2302  137.3838  155.3880 O   0  0  0  0  0  0  0  0  0  0  0  0
  145.9259  137.9311  155.2066 C   0  0  2  0  0  0  0  0  0  0  0  0
  144.8581  137.0028  155.7991 C   0  0  0  0  0  0  0  0  0  0  0  0
  143.6258  137.2093  155.1271 O   0  0  0  0  0  0  0  0  0  0  0  0
  142.7135  136.2190  155.0752 C   0  0  0  0  0  0  0  0  0  0  0  0
  142.9442  135.0604  155.4276 O   0  0  0  0  0  0  0  0  0  0  0  0
  141.3967  136.6689  154.5388 C   0  0  0  0  0  0  0  0  0  0  0  0
  141.1905  138.0429  154.2732 C   0  0  0  0  0  0  0  0  0  0  0  0
  139.9563  138.4995  153.7715 C   0  0  0  0  0  0  0  0  0  0  0  0
  138.9139  137.5871  153.5263 C   0  0  0  0  0  0  0  0  0  0  0  0
  139.1071  136.2173  153.7837 C   0  0  0  0  0  0  0  0  0  0  0  0
  140.3402  135.7589  154.2876 C   0  0  0  0  0  0  0  0  0  0  0  0
  145.8399  138.1474  153.6963 C   0  0  2  0  0  0  0  0  0  0  0  0
  145.6177  136.9715  153.1004 F   0  0  0  0  0  0  0  0  0  0  0  0
  147.2393  138.6560  153.3888 C   0  0  2  0  0  0  0  0  0  0  0  0
  147.5659  138.4332  152.0318 O   0  0  0  0  0  0  0  0  0  0  0  0
  152.3703  142.2346  159.1918 C   0  0  0  0  0  0  0  0  0  0  0  0
  151.8240  143.0287  158.1575 C   0  0  0  0  0  0  0  0  0  0  0  0
  151.3931  144.3446  158.4157 C   0  0  0  0  0  0  0  0  0  0  0  0
  151.5127  144.8845  159.7100 C   0  0  0  0  0  0  0  0  0  0  0  0
  152.0679  144.1087  160.7447 C   0  0  0  0  0  0  0  0  0  0  0  0
  152.4990  142.7927  160.4874 C   0  0  0  0  0  0  0  0  0  0  0  0
  150.6891  136.6480  158.7254 H   0  0  0  0  0  0  0  0  0  0  0  0
  149.2923  140.2626  153.6210 H   0  0  0  0  0  0  0  0  0  0  0  0
  148.5850  136.9745  153.9122 H   0  0  0  0  0  0  0  0  0  0  0  0
  145.8782  138.8945  155.7128 H   0  0  0  0  0  0  0  0  0  0  0  0
  145.1689  135.9604  155.7154 H   0  0  0  0  0  0  0  0  0  0  0  0
  144.7274  137.2188  156.8602 H   0  0  0  0  0  0  0  0  0  0  0  0
  141.9757  138.7626  154.4547 H   0  0  0  0  0  0  0  0  0  0  0  0
  139.8101  139.5515  153.5754 H   0  0  0  0  0  0  0  0  0  0  0  0
  137.9676  137.9375  153.1412 H   0  0  0  0  0  0  0  0  0  0  0  0
  138.3081  135.5157  153.5943 H   0  0  0  0  0  0  0  0  0  0  0  0
  140.4554  134.7013  154.4741 H   0  0  0  0  0  0  0  0  0  0  0  0
  145.0481  138.8346  153.3969 H   0  0  0  0  0  0  0  0  0  0  0  0
  147.3106  139.7186  153.6229 H   0  0  0  0  0  0  0  0  0  0  0  0
  148.0947  137.6520  151.9757 H   0  0  0  0  0  0  0  0  0  0  0  0
  151.7276  142.6301  157.1578 H   0  0  0  0  0  0  0  0  0  0  0  0
  150.9723  144.9400  157.6190 H   0  0  0  0  0  0  0  0  0  0  0  0
  151.1828  145.8934  159.9081 H   0  0  0  0  0  0  0  0  0  0  0  0
  152.1663  144.5231  161.7371 H   0  0  0  0  0  0  0  0  0  0  0  0
  152.9320  142.2183  161.2939 H   0  0  0  0  0  0  0  0  0  0  0  0
  1  2  2  0  0  0  0
  2  3  1  0  0  0  0
  2 30  1  0  0  0  0
  3  4  1  0  0  0  0
  4  9  1  0  0  0  0
  4  5  2  0  0  0  0
  5  6  1  0  0  0  0
  6  7  2  0  0  0  0
  6 36  1  0  0  0  0
  7  8  1  0  0  0  0
  8 12  1  0  0  0  0
  8  9  2  0  0  0  0
  9 10  1  0  0  0  0
 10 11  2  0  0  0  0
 11 12  1  0  0  0  0
 11 37  1  0  0  0  0
 12 13  1  0  0  0  0
 13 28  1  0  0  0  0
 13 14  1  0  0  0  0
 13 38  1  0  0  0  0
 14 15  1  0  0  0  0
 15 16  1  0  0  0  0
 15 26  1  0  0  0  0
 15 39  1  0  0  0  0
 16 17  1  0  0  0  0
 16 40  1  0  0  0  0
 16 41  1  0  0  0  0
 17 18  1  0  0  0  0
 18 19  2  0  0  0  0
 18 20  1  0  0  0  0
 20 25  1  0  0  0  0
 20 21  2  0  0  0  0
 21 22  1  0  0  0  0
 21 42  1  0  0  0  0
 22 23  2  0  0  0  0
 22 43  1  0  0  0  0
 23 24  1  0  0  0  0
 23 44  1  0  0  0  0
 24 25  2  0  0  0  0
 24 45  1  0  0  0  0
 25 46  1  0  0  0  0
 26 27  1  0  0  0  0
 26 28  1  0  0  0  0
 26 47  1  0  0  0  0
 28 29  1  0  0  0  0
 28 48  1  0  0  0  0
 29 49  1  0  0  0  0
 30 35  1  0  0  0  0
 30 31  2  0  0  0  0
 31 32  1  0  0  0  0
 31 50  1  0  0  0  0
 32 33  2  0  0  0  0
 32 51  1  0  0  0  0
 33 34  1  0  0  0  0
 33 52  1  0  0  0  0
 34 35  2  0  0  0  0
 34 53  1  0  0  0  0
 35 54  1  0  0  0  0
M  CHG  1   3  -1
M  END
> <s_m_source_file>
AV-unprocessed.smi

> <i_m_source_file_index>
34

> <i_lp_mmshare_version>
43012

> <i_f3d_flags>
0

> <s_epik_input>
W2NIXTFbY0hdW2NIXVtjSF1bY0hdYzFDKD1PKVtOSF1jKG5bY0hdbjIpYyhjMjMpbltjSF1uM1tDQEBIXTRPW0NASF0oW0NAQEhdKEYpW0NASF00W09IXSlbQ0gyXU9DKD1PKWM1W2NIXVtjSF1bY0hdW2NIXVtjSF01

> <s_epik_cmdline>
J2VwaWtfcHl0aG9uJywgJy1waCcsICc3LjAnLCAnLXRuJywgJzgnLCAnLW1hJywgJzIwMCcsICctbWV0YWxfYmluZGluZycsICctaW1hZScsICc8aW5maWxlLm1hZT4nLCAnLW9tYWUnLCAnPG91dGZpbGUubWFlPic=

> <r_lp_tautomer_probability>
1

> <r_epik_Ionization_Penalty>
4.33227

> <r_epik_Ionization_Penalty_Charging>
3.41027

> <r_epik_Ionization_Penalty_Neutral>
0.922001

> <r_epik_State_Penalty>
3.41358

> <r_epik_Charging_Adjusted_Penalty>
6.82385

> <i_epik_Tot_Q>
-1

> <i_epik_Tot_abs_Q>
1

> <r_epik_Metal_State_Penalty>
0.496292

> <b_epik_Metal_Only>
1

> <s_epik_Chemistry_Notes>
This compound has an ester and may undergo hydrolysis at high or low pH. This compound contains an acetal/aminal-like group ( X-CH(R)-Y where X, Y are N, S, or O) that may be acid/base labile, releasing an aldehyde.

> <s_lp_Force_Field>
OPLS_2005

> <r_lp_Energy>
46.0199

> <b_lp_Chiralities_Consistent>
1

> <s_lp_Variant>
AV-unprocessed.smi:34-32

> <Gold.Version>
5.8.1

> <Gold.Id.Protein>
6NUR|6NUR_protein|mol2

> <Gold.PLP.Fitness>
62.5345

> <Gold.PLP.PLP>
-53.4310

> <Gold.PLP.part.hbond>
-5.4581

> <Gold.PLP.part.metal>
0.0000

> <Gold.PLP.part.buried>
-3.8280

> <Gold.PLP.part.nonpolar>
-44.4948

> <Gold.PLP.part.repulsive>
0.2242

> <Gold.PLP.ligand.clash>
0.1968

> <Gold.PLP.ligand.torsion>
1.9577

> <Gold.PLP.Chemscore.Hbond>
3.2420

> <Gold.PLP.Chemscore.CHOScore>
1.0000

> <Gold.PLP.Chemscore.Metal>
0.0000

> <Gold.Chemscore.Hbonds>
donor molecule, donor type, donor heavy atom, donor atom, acceptor molecule, acceptor atom, score
      L1  H    29    49       P1  7948  1.00
      P1  H  7989  7998       L1    10  0.54
      P1  H  7997  8009       L1     3  1.69
      L1  C    11    37       P1  7957  1.00

> <Gold.PLP.Chemscore.Internal.Correction>
0.4897

> <Gold.Rescore>
     Score         DG    S(hbond)    S(metal)    S(lipo)     H(rot)  DE(clash)    DE(int)     intcor
     15.34     -18.69       1.83        0.00     119.51       2.69       0.04       3.31       ----

> <Gold.Chemscore.Fitness>
15.3432

> <Gold.Chemscore.DG>
-18.6920

> <Gold.Chemscore.ZeroCoef>
-5.4800

> <Gold.Chemscore.Hbond>
1.8345

> <Gold.Chemscore.Metal>
0.0000

> <Gold.Chemscore.Lipo>
119.5063

> <Gold.Chemscore.Internal_Hbond>
0.0000

> <Gold.Chemscore.DEClash>
0.0357

> <Gold.Chemscore.DEInternal>
3.3131

> <Gold.Chemscore.Rot>
2.6944

> <Gold.Chemscore.Internal.Correction>
   9.000000E+99

> <Gold.Chemscore.Hbonds>
donor molecule, donor type, donor heavy atom, donor atom, acceptor molecule, acceptor atom, score
      L1  H    29    49       P1  7948  1.00
      P1  H  7989  7998       L1    10  0.03
      P1  H  7997  8009       L1     3  0.34

> <Gold.Chemscore.Hbond.Weighted>
-6.1273

> <Gold.Chemscore.Metal.Weighted>
-0.0000

> <Gold.Chemscore.Lipo.Weighted>
-13.9822

> <Gold.Chemscore.Internal_Hbond.Weighted>
0.0000

> <Gold.Chemscore.DEClash.Weighted>
0.0357

> <Gold.Chemscore.DEInternal.Weighted>
3.3131

> <Gold.Chemscore.Rot.Weighted>
6.8975

> <Gold.Chemscore.Internal.Correction.Weighted>
   9.000000E+99

> <Gold.Protein.RotatedTorsions>
[ 6907 6896 6895 6894 ] final -124.21 input  -60.11 | X-H torsion
[ 7974 7965 7964 7962 ] final  140.81 input  175.53 | X-H torsion
[ 8008 7997 7996 7995 ] final  172.45 input   59.86 | X-H torsion
[ 10167 10162 10161 10158 ] final  122.16 input  -65.29 | X-H torsion
[ 10718 10713 10712 10709 ] final   35.36 input   66.30 | X-H torsion
[ 10763 10752 10751 10750 ] final   19.15 input  -60.55 | X-H torsion
[ 11005 11000 10999 10996 ] final -147.36 input  -57.11 | X-H torsion

> <Gold.Protein.ActiveResidues>
 VAL166  LYS551  ARG553  GLY616  TRP617  ASP618  TYR619  PRO620  LYS621  CYS622 
 ASP623  PHE694  ASN695  SER759  ASP760  ASP761  ALA762  ILE779  LEU786  VAL792 
 PHE793  MET794  SER795  GLU796  ALA797  LYS798  CYS799  TRP800  GLU811  SER814 

> <Gold.Protein.RotatedAtoms>
  150.8746  133.7457  159.2950 H   0  0  0  0  0  0  0  0  0  0  0  0  # atno 6907 bound_to 6896
  151.5058  135.1062  159.9850 H   0  0  0  0  0  0  0  0  0  0  0  0  # atno 6908 bound_to 6896
  152.4719  133.8003  159.7005 H   0  0  0  0  0  0  0  0  0  0  0  0  # atno 6909 bound_to 6896
  144.9153  139.5239  143.5689 H   0  0  0  0  0  0  0  0  0  0  0  0  # atno 7974 bound_to 7965
  156.1173  140.1485  156.9255 H   0  0  0  0  0  0  0  0  0  0  0  0  # atno 8008 bound_to 7997
  154.4810  140.0879  156.7418 H   0  0  0  0  0  0  0  0  0  0  0  0  # atno 8009 bound_to 7997
  155.4491  140.3434  155.4301 H   0  0  0  0  0  0  0  0  0  0  0  0  # atno 8010 bound_to 7997
  139.5875  144.7012  151.3372 H   0  0  0  0  0  0  0  0  0  0  0  0  # atno 10167 bound_to 10162
  157.3217  130.7451  149.6789 H   0  0  0  0  0  0  0  0  0  0  0  0  # atno 10718 bound_to 10713
  153.1187  135.6714  153.9373 H   0  0  0  0  0  0  0  0  0  0  0  0  # atno 10763 bound_to 10752
  153.8895  135.3048  155.3448 H   0  0  0  0  0  0  0  0  0  0  0  0  # atno 10764 bound_to 10752
  154.7601  135.4992  153.9526 H   0  0  0  0  0  0  0  0  0  0  0  0  # atno 10765 bound_to 10752
  140.7724  134.3173  157.5071 H   0  0  0  0  0  0  0  0  0  0  0  0  # atno 11005 bound_to 11000
  146.3179  139.7991  142.8969 LP  0  0  0  0  0  0  0  0  0  0  0  0  # atno 17320 bound_to 7965
  145.3386  141.0283  143.3405 LP  0  0  0  0  0  0  0  0  0  0  0  0  # atno 17321 bound_to 7965
  140.7144  143.7305  150.7627 LP  0  0  0  0  0  0  0  0  0  0  0  0  # atno 17342 bound_to 10162
  140.0853  143.4930  152.2508 LP  0  0  0  0  0  0  0  0  0  0  0  0  # atno 17343 bound_to 10162
  155.9686  130.4221  150.4501 LP  0  0  0  0  0  0  0  0  0  0  0  0  # atno 17370 bound_to 10713
  157.2518  131.0548  151.2375 LP  0  0  0  0  0  0  0  0  0  0  0  0  # atno 17371 bound_to 10713
  139.8754  134.9269  156.3412 LP  0  0  0  0  0  0  0  0  0  0  0  0  # atno 17394 bound_to 11000
  140.9561  133.7419  156.0337 LP  0  0  0  0  0  0  0  0  0  0  0  0  # atno 17395 bound_to 11000

$$$$
