AV-unprocessed.smi:3287|AV-procd|sdf|12595|dock3
  -GOLD-   2272018523D 1   1.00000     0.00000
 Structure written by MMmdl.
 43 44  0  0  0  0  0  0  0  0  2 V2000
  151.6682  143.1253  161.3270 C   0  0  0  0  0  0  0  0  0  0  0  0
  152.7801  143.6413  160.3914 C   0  0  1  0  0  0  0  0  0  0  0  0
  153.3332  142.5183  159.4900 C   0  0  0  0  0  0  0  0  0  0  0  0
  152.3492  142.1256  158.3748 C   0  0  0  0  0  0  0  0  0  0  0  0
  151.9499  143.3409  157.5191 C   0  0  1  0  0  0  0  0  0  0  0  0
  150.9884  142.9239  156.4741 N   0  3  0  0  0  0  0  0  0  0  0  0
  150.0248  141.8777  156.8808 C   0  0  0  0  0  0  0  0  0  0  0  0
  149.4916  141.0977  155.6667 C   0  0  1  0  0  0  0  0  0  0  0  0
  149.3222  141.9947  154.5861 O   0  0  0  0  0  0  0  0  0  0  0  0
  150.4191  139.9474  155.3065 C   0  0  0  0  0  0  0  0  0  0  0  0
  151.7356  139.8828  155.8129 C   0  0  0  0  0  0  0  0  0  0  0  0
  152.5442  138.7871  155.4503 C   0  0  0  0  0  0  0  0  0  0  0  0
  152.1230  137.7902  154.6434 N   0  0  0  0  0  0  0  0  0  0  0  0
  150.8628  137.8554  154.1640 C   0  0  0  0  0  0  0  0  0  0  0  0
  149.9737  138.9069  154.4646 C   0  0  0  0  0  0  0  0  0  0  0  0
  151.3797  144.4645  158.4112 C   0  0  0  0  0  0  0  0  0  0  0  0
  152.3678  144.8606  159.5276 C   0  0  1  0  0  0  0  0  0  0  0  0
  151.8474  146.0466  160.3564 C   0  0  0  0  0  0  0  0  0  0  0  0
  150.7689  142.8406  160.7821 H   0  0  0  0  0  0  0  0  0  0  0  0
  151.3850  143.8773  162.0631 H   0  0  0  0  0  0  0  0  0  0  0  0
  152.0046  142.2505  161.8839 H   0  0  0  0  0  0  0  0  0  0  0  0
  153.5989  143.9604  161.0379 H   0  0  0  0  0  0  0  0  0  0  0  0
  154.2677  142.8512  159.0365 H   0  0  0  0  0  0  0  0  0  0  0  0
  153.5868  141.6428  160.0889 H   0  0  0  0  0  0  0  0  0  0  0  0
  152.8049  141.3613  157.7441 H   0  0  0  0  0  0  0  0  0  0  0  0
  151.4607  141.6685  158.8121 H   0  0  0  0  0  0  0  0  0  0  0  0
  152.8488  143.7076  157.0208 H   0  0  0  0  0  0  0  0  0  0  0  0
  150.4536  143.7387  156.2093 H   0  0  0  0  0  0  0  0  0  0  0  0
  150.4913  141.1925  157.5890 H   0  0  0  0  0  0  0  0  0  0  0  0
  149.1911  142.3545  157.3986 H   0  0  0  0  0  0  0  0  0  0  0  0
  148.5095  140.6862  155.9050 H   0  0  0  0  0  0  0  0  0  0  0  0
  149.3802  142.8781  154.9186 H   0  0  0  0  0  0  0  0  0  0  0  0
  152.1222  140.6518  156.4657 H   0  0  0  0  0  0  0  0  0  0  0  0
  153.5555  138.7082  155.8211 H   0  0  0  0  0  0  0  0  0  0  0  0
  150.5521  137.0436  153.5231 H   0  0  0  0  0  0  0  0  0  0  0  0
  148.9740  138.9080  154.0555 H   0  0  0  0  0  0  0  0  0  0  0  0
  151.1622  145.3467  157.8095 H   0  0  0  0  0  0  0  0  0  0  0  0
  150.4293  144.1511  158.8451 H   0  0  0  0  0  0  0  0  0  0  0  0
  153.2750  145.2134  159.0341 H   0  0  0  0  0  0  0  0  0  0  0  0
  150.8890  145.8239  160.8253 H   0  0  0  0  0  0  0  0  0  0  0  0
  151.7057  146.9271  159.7292 H   0  0  0  0  0  0  0  0  0  0  0  0
  152.5525  146.3163  161.1433 H   0  0  0  0  0  0  0  0  0  0  0  0
  151.4989  142.6021  155.6638 H   0  0  0  0  0  0  0  0  0  0  0  0
  1  2  1  0  0  0  0
  1 19  1  0  0  0  0
  1 20  1  0  0  0  0
  1 21  1  0  0  0  0
  2 17  1  0  0  0  0
  2  3  1  0  0  0  0
  2 22  1  0  0  0  0
  3  4  1  0  0  0  0
  3 23  1  0  0  0  0
  3 24  1  0  0  0  0
  4  5  1  0  0  0  0
  4 25  1  0  0  0  0
  4 26  1  0  0  0  0
  5  6  1  0  0  0  0
  5 16  1  0  0  0  0
  5 27  1  0  0  0  0
  6  7  1  0  0  0  0
  6 28  1  0  0  0  0
  6 43  1  0  0  0  0
  7  8  1  0  0  0  0
  7 29  1  0  0  0  0
  7 30  1  0  0  0  0
  8  9  1  0  0  0  0
  8 10  1  0  0  0  0
  8 31  1  0  0  0  0
  9 32  1  0  0  0  0
 10 15  1  0  0  0  0
 10 11  2  0  0  0  0
 11 12  1  0  0  0  0
 11 33  1  0  0  0  0
 12 13  2  0  0  0  0
 12 34  1  0  0  0  0
 13 14  1  0  0  0  0
 14 15  2  0  0  0  0
 14 35  1  0  0  0  0
 15 36  1  0  0  0  0
 16 17  1  0  0  0  0
 16 37  1  0  0  0  0
 16 38  1  0  0  0  0
 17 18  1  0  0  0  0
 17 39  1  0  0  0  0
 18 40  1  0  0  0  0
 18 41  1  0  0  0  0
 18 42  1  0  0  0  0
M  CHG  1   6   1
M  END
> <s_m_source_file>
AV-unprocessed.smi

> <i_m_source_file_index>
3287

> <i_lp_mmshare_version>
43012

> <i_f3d_flags>
0

> <s_epik_input>
W0NIM11bQ0BASF0xW0NIMl1bQ0gyXVtDQEhdKFtDSDJdW0NASF0xW0NIM10pW05IXVtDSDJdW0NASF0oW09IXSljMltjSF1bY0hdbltjSF1bY0hdMg==

> <s_epik_cmdline>
J2VwaWtfcHl0aG9uJywgJy1waCcsICc3LjAnLCAnLXRuJywgJzgnLCAnLW1hJywgJzIwMCcsICctbWV0YWxfYmluZGluZycsICctaW1hZScsICc8aW5maWxlLm1hZT4nLCAnLW9tYWUnLCAnPG91dGZpbGUubWFlPic=

> <r_lp_tautomer_probability>
1

> <r_epik_Ionization_Penalty>
0.00537262

> <r_epik_Ionization_Penalty_Charging>
0.00321624

> <r_epik_Ionization_Penalty_Neutral>
0.00215638

> <r_epik_State_Penalty>
-0

> <r_epik_Charging_Adjusted_Penalty>
0.00321624

> <i_epik_Tot_Q>
1

> <i_epik_Tot_abs_Q>
1

> <r_epik_Metal_State_Penalty>
-0

> <b_epik_Metal_Only>
0

> <s_lp_Force_Field>
OPLS_2005

> <r_lp_Energy>
17.7653

> <b_lp_Chiralities_Consistent>
1

> <s_lp_Variant>
AV-unprocessed.smi:3287-6

> <Gold.Version>
5.8.1

> <Gold.Id.Protein>
6NUR|6NUR_protein|mol2

> <Gold.PLP.Fitness>
52.9444

> <Gold.PLP.PLP>
-42.0944

> <Gold.PLP.part.hbond>
-4.1471

> <Gold.PLP.part.metal>
0.0000

> <Gold.PLP.part.buried>
-0.4773

> <Gold.PLP.part.nonpolar>
-37.6625

> <Gold.PLP.part.repulsive>
0.1774

> <Gold.PLP.ligand.clash>
0.0000

> <Gold.PLP.ligand.torsion>
1.0599

> <Gold.PLP.Chemscore.Hbond>
3.3082

> <Gold.PLP.Chemscore.CHOScore>
1.0082

> <Gold.PLP.Chemscore.Metal>
0.0000

> <Gold.Chemscore.Hbonds>
donor molecule, donor type, donor heavy atom, donor atom, acceptor molecule, acceptor atom, score
      L1  H     6    28       P1  8028  2.00
      L1  H     9    32       P1  8028  0.99
      P1  H  8011  8017       L1     9  0.07
      P1  H 10752 10765       L1    13  0.25
      L1  C    14    35       P1  7948  0.48
      L1  C    14    35       P1  7949  0.53

> <Gold.PLP.Chemscore.Internal.Correction>
0.0206

> <Gold.Rescore>
     Score         DG    S(hbond)    S(metal)    S(lipo)     H(rot)  DE(clash)    DE(int)     intcor
     23.40     -24.64       2.22        0.00     141.96       1.90       0.47       0.77       ----

> <Gold.Chemscore.Fitness>
23.4009

> <Gold.Chemscore.DG>
-24.6423

> <Gold.Chemscore.ZeroCoef>
-5.4800

> <Gold.Chemscore.Hbond>
2.2233

> <Gold.Chemscore.Metal>
0.0000

> <Gold.Chemscore.Lipo>
141.9594

> <Gold.Chemscore.Internal_Hbond>
0.0000

> <Gold.Chemscore.DEClash>
0.4715

> <Gold.Chemscore.DEInternal>
0.7699

> <Gold.Chemscore.Rot>
1.9035

> <Gold.Chemscore.Internal.Correction>
   9.000000E+99

> <Gold.Chemscore.Hbonds>
donor molecule, donor type, donor heavy atom, donor atom, acceptor molecule, acceptor atom, score
      L1  H     6    28       P1  8028  0.99
      L1  H     9    32       P1  8028  0.92
      P1  H  8011  8017       L1     9  0.02
      P1  H 10752 10765       L1    13  0.17

> <Gold.Chemscore.Hbond.Weighted>
-7.4259

> <Gold.Chemscore.Metal.Weighted>
-0.0000

> <Gold.Chemscore.Lipo.Weighted>
-16.6092

> <Gold.Chemscore.Internal_Hbond.Weighted>
0.0000

> <Gold.Chemscore.DEClash.Weighted>
0.4715

> <Gold.Chemscore.DEInternal.Weighted>
0.7699

> <Gold.Chemscore.Rot.Weighted>
4.8729

> <Gold.Chemscore.Internal.Correction.Weighted>
   9.000000E+99

> <Gold.Protein.RotatedTorsions>
[ 6907 6896 6895 6894 ] final  -23.56 input  -60.11 | X-H torsion
[ 7974 7965 7964 7962 ] final   32.15 input  175.53 | X-H torsion
[ 8008 7997 7996 7995 ] final  164.18 input   59.86 | X-H torsion
[ 10167 10162 10161 10158 ] final  -64.66 input  -65.29 | X-H torsion
[ 10718 10713 10712 10709 ] final -118.72 input   66.30 | X-H torsion
[ 10763 10752 10751 10750 ] final  159.36 input  -60.55 | X-H torsion
[ 11005 11000 10999 10996 ] final   48.52 input  -57.11 | X-H torsion

> <Gold.Protein.ActiveResidues>
 VAL166  LYS551  ARG553  GLY616  TRP617  ASP618  TYR619  PRO620  LYS621  CYS622 
 ASP623  PHE694  ASN695  SER759  ASP760  ASP761  ALA762  ILE779  LEU786  VAL792 
 PHE793  MET794  SER795  GLU796  ALA797  LYS798  CYS799  TRP800  GLU811  SER814 

> <Gold.Protein.RotatedAtoms>
  151.2023  135.0447  159.8876 H   0  0  0  0  0  0  0  0  0  0  0  0  # atno 6907 bound_to 6896
  152.5431  134.0837  159.8257 H   0  0  0  0  0  0  0  0  0  0  0  0  # atno 6908 bound_to 6896
  151.0979  133.5218  159.2643 H   0  0  0  0  0  0  0  0  0  0  0  0  # atno 6909 bound_to 6896
  146.1505  139.6563  142.9102 H   0  0  0  0  0  0  0  0  0  0  0  0  # atno 7974 bound_to 7965
  156.1900  140.1703  156.8110 H   0  0  0  0  0  0  0  0  0  0  0  0  # atno 8008 bound_to 7997
  154.5460  140.0727  156.8621 H   0  0  0  0  0  0  0  0  0  0  0  0  # atno 8009 bound_to 7997
  155.3121  140.3368  155.4246 H   0  0  0  0  0  0  0  0  0  0  0  0  # atno 8010 bound_to 7997
  140.5785  143.2324  151.6391 H   0  0  0  0  0  0  0  0  0  0  0  0  # atno 10167 bound_to 10162
  156.1127  130.6261  150.9326 H   0  0  0  0  0  0  0  0  0  0  0  0  # atno 10718 bound_to 10713
  154.2305  135.2778  155.2891 H   0  0  0  0  0  0  0  0  0  0  0  0  # atno 10763 bound_to 10752
  154.5627  135.5642  153.7026 H   0  0  0  0  0  0  0  0  0  0  0  0  # atno 10764 bound_to 10752
  153.0021  135.6302  154.2447 H   0  0  0  0  0  0  0  0  0  0  0  0  # atno 10765 bound_to 10752
  140.1184  134.4862  155.8618 H   0  0  0  0  0  0  0  0  0  0  0  0  # atno 11005 bound_to 11000
  145.4835  141.0438  143.2632 LP  0  0  0  0  0  0  0  0  0  0  0  0  # atno 17320 bound_to 7965
  144.7898  139.6352  143.7118 LP  0  0  0  0  0  0  0  0  0  0  0  0  # atno 17321 bound_to 7965
  139.5156  144.3372  152.0773 LP  0  0  0  0  0  0  0  0  0  0  0  0  # atno 17342 bound_to 10162
  140.2519  144.4160  150.6218 LP  0  0  0  0  0  0  0  0  0  0  0  0  # atno 17343 bound_to 10162
  157.6309  131.0921  150.8443 LP  0  0  0  0  0  0  0  0  0  0  0  0  # atno 17370 bound_to 10713
  156.8551  130.5094  149.5308 LP  0  0  0  0  0  0  0  0  0  0  0  0  # atno 17371 bound_to 10713
  141.2146  133.6751  156.6840 LP  0  0  0  0  0  0  0  0  0  0  0  0  # atno 17394 bound_to 11000
  140.2998  134.8173  157.4088 LP  0  0  0  0  0  0  0  0  0  0  0  0  # atno 17395 bound_to 11000

$$$$
