AV-unprocessed.smi:100|AV-procd|sdf|912|dock9
  -GOLD-   2262017413D 1   1.00000     0.00000
 Structure written by MMmdl.
 31 33  0  0  0  0  0  0  0  0  1 V2000
  150.9093  138.1592  153.1931 N   0  0  0  0  0  0  0  0  0  0  0  0
  151.1619  138.2679  154.5050 C   0  0  0  0  0  0  0  0  0  0  0  0
  151.6991  137.2043  155.1459 N   0  0  0  0  0  0  0  0  0  0  0  0
  151.9525  137.2855  156.4556 C   0  0  0  0  0  0  0  0  0  0  0  0
  151.7510  138.3143  157.2828 N   0  0  0  0  0  0  0  0  0  0  0  0
  151.2162  139.3929  156.6359 C   0  0  0  0  0  0  0  0  0  0  0  0
  150.8882  139.4422  155.2515 C   0  0  0  0  0  0  0  0  0  0  0  0
  150.3443  140.6786  154.9361 N   0  0  0  0  0  0  0  0  0  0  0  0
  150.3461  141.3190  156.0735 C   0  0  0  0  0  0  0  0  0  0  0  0
  150.8820  140.6359  157.1463 N   0  0  0  0  0  0  0  0  0  0  0  0
  150.9792  141.1134  158.5712 C   0  0  1  0  0  0  0  0  0  0  0  0
  152.1926  140.6935  159.1182 O   0  0  0  0  0  0  0  0  0  0  0  0
  153.1666  141.7059  158.9139 C   0  0  2  0  0  0  0  0  0  0  0  0
  154.3778  141.4613  159.8258 C   0  0  0  0  0  0  0  0  0  0  0  0
  155.1221  140.3501  159.3741 O   0  0  0  0  0  0  0  0  0  0  0  0
  152.3587  142.9611  159.2348 C   0  0  1  0  0  0  0  0  0  0  0  0
  152.8991  144.0571  158.7007 F   0  0  0  0  0  0  0  0  0  0  0  0
  150.9977  142.6579  158.6210 C   0  0  2  0  0  0  0  0  0  0  0  0
  149.9618  143.1883  159.4222 O   0  0  0  0  0  0  0  0  0  0  0  0
  150.5052  138.9380  152.6930 H   0  0  0  0  0  0  0  0  0  0  0  0
  151.1215  137.2993  152.7084 H   0  0  0  0  0  0  0  0  0  0  0  0
  152.3778  136.4006  156.9055 H   0  0  0  0  0  0  0  0  0  0  0  0
  149.9537  142.3219  156.1603 H   0  0  0  0  0  0  0  0  0  0  0  0
  150.1299  140.6449  159.0702 H   0  0  0  0  0  0  0  0  0  0  0  0
  153.4681  141.6977  157.8644 H   0  0  0  0  0  0  0  0  0  0  0  0
  155.0214  142.3403  159.8671 H   0  0  0  0  0  0  0  0  0  0  0  0
  154.0426  141.2589  160.8434 H   0  0  0  0  0  0  0  0  0  0  0  0
  154.9567  139.6221  159.9535 H   0  0  0  0  0  0  0  0  0  0  0  0
  152.2882  143.1055  160.3142 H   0  0  0  0  0  0  0  0  0  0  0  0
  150.9380  143.0776  157.6163 H   0  0  0  0  0  0  0  0  0  0  0  0
  150.0078  144.1315  159.3834 H   0  0  0  0  0  0  0  0  0  0  0  0
  1  2  1  0  0  0  0
  1 20  1  0  0  0  0
  1 21  1  0  0  0  0
  2  7  1  0  0  0  0
  2  3  2  0  0  0  0
  3  4  1  0  0  0  0
  4  5  2  0  0  0  0
  4 22  1  0  0  0  0
  5  6  1  0  0  0  0
  6 10  1  0  0  0  0
  6  7  2  0  0  0  0
  7  8  1  0  0  0  0
  8  9  2  0  0  0  0
  9 10  1  0  0  0  0
  9 23  1  0  0  0  0
 10 11  1  0  0  0  0
 11 18  1  0  0  0  0
 11 12  1  0  0  0  0
 11 24  1  0  0  0  0
 12 13  1  0  0  0  0
 13 14  1  0  0  0  0
 13 16  1  0  0  0  0
 13 25  1  0  0  0  0
 14 15  1  0  0  0  0
 14 26  1  0  0  0  0
 14 27  1  0  0  0  0
 15 28  1  0  0  0  0
 16 17  1  0  0  0  0
 16 18  1  0  0  0  0
 16 29  1  0  0  0  0
 18 19  1  0  0  0  0
 18 30  1  0  0  0  0
 19 31  1  0  0  0  0
M  END
> <s_m_source_file>
AV-unprocessed.smi

> <i_m_source_file_index>
100

> <i_lp_mmshare_version>
43012

> <i_f3d_flags>
0

> <s_epik_input>
bjFbY0hdbmMoW05IMl0pYyhjMTIpbltjSF1uMltDQEBIXTNPW0NAQEhdKFtDSDJdW09IXSlbQ0BIXShGKVtDQEhdM1tPSF0=

> <s_epik_cmdline>
J2VwaWtfcHl0aG9uJywgJy1waCcsICc3LjAnLCAnLXRuJywgJzgnLCAnLW1hJywgJzIwMCcsICctbWV0YWxfYmluZGluZycsICctaW1hZScsICc8aW5maWxlLm1hZT4nLCAnLW9tYWUnLCAnPG91dGZpbGUubWFlPic=

> <r_lp_tautomer_probability>
1

> <r_epik_Ionization_Penalty>
0.000750324

> <r_epik_Ionization_Penalty_Charging>
0

> <r_epik_Ionization_Penalty_Neutral>
0.000750324

> <r_epik_State_Penalty>
-0

> <r_epik_Charging_Adjusted_Penalty>
0

> <i_epik_Tot_Q>
0

> <i_epik_Tot_abs_Q>
0

> <r_epik_Metal_State_Penalty>
-0

> <b_epik_Metal_Only>
0

> <s_epik_Chemistry_Notes>
This compound contains an acetal/aminal-like group ( X-CH(R)-Y where X, Y are N, S, or O) that may be acid/base labile, releasing an aldehyde.

> <s_lp_Force_Field>
OPLS_2005

> <r_lp_Energy>
30.8526

> <b_lp_Chiralities_Consistent>
1

> <s_lp_Variant>
AV-unprocessed.smi:100-16

> <Gold.Version>
5.8.1

> <Gold.Id.Protein>
6NUR|6NUR_protein|mol2

> <Gold.PLP.Fitness>
44.4004

> <Gold.PLP.PLP>
-31.4875

> <Gold.PLP.part.hbond>
-6.8702

> <Gold.PLP.part.metal>
0.0000

> <Gold.PLP.part.buried>
0.1241

> <Gold.PLP.part.nonpolar>
-24.3242

> <Gold.PLP.part.repulsive>
0.3114

> <Gold.PLP.ligand.clash>
0.0000

> <Gold.PLP.ligand.torsion>
0.6262

> <Gold.PLP.Chemscore.Hbond>
4.0479

> <Gold.PLP.Chemscore.CHOScore>
0.6572

> <Gold.PLP.Chemscore.Metal>
0.0000

> <Gold.Chemscore.Hbonds>
donor molecule, donor type, donor heavy atom, donor atom, acceptor molecule, acceptor atom, score
      L1  H     1    20       P1  7957  0.91
      L1  H     1    21       P1  7949  1.00
      P1  H  7989  7998       L1     8  0.49
      P1  H  7997  8010       L1    15  0.84
      P1  H 10752 10765       L1     3  0.83
      L1  C     9    23       P1  8028  0.64

> <Gold.PLP.Chemscore.Internal.Correction>
0.0500

> <Gold.Rescore>
     Score         DG    S(hbond)    S(metal)    S(lipo)     H(rot)  DE(clash)    DE(int)     intcor
      9.79     -11.38       2.57        0.00      46.78       3.19       1.15       0.44       ----

> <Gold.Chemscore.Fitness>
9.7900

> <Gold.Chemscore.DG>
-11.3770

> <Gold.Chemscore.ZeroCoef>
-5.4800

> <Gold.Chemscore.Hbond>
2.5720

> <Gold.Chemscore.Metal>
0.0000

> <Gold.Chemscore.Lipo>
46.7804

> <Gold.Chemscore.Internal_Hbond>
0.0000

> <Gold.Chemscore.DEClash>
1.1519

> <Gold.Chemscore.DEInternal>
0.4351

> <Gold.Chemscore.Rot>
3.1901

> <Gold.Chemscore.Internal.Correction>
   9.000000E+99

> <Gold.Chemscore.Hbonds>
donor molecule, donor type, donor heavy atom, donor atom, acceptor molecule, acceptor atom, score
      L1  H     1    20       P1  7957  0.22
      L1  H     1    21       P1  7949  0.45
      P1  H  7989  7998       L1     8  0.03
      P1  H  7997  8010       L1    15  0.73
      P1  H 10752 10765       L1     3  0.28

> <Gold.Chemscore.Hbond.Weighted>
-8.5904

> <Gold.Chemscore.Metal.Weighted>
-0.0000

> <Gold.Chemscore.Lipo.Weighted>
-5.4733

> <Gold.Chemscore.Internal_Hbond.Weighted>
0.0000

> <Gold.Chemscore.DEClash.Weighted>
1.1519

> <Gold.Chemscore.DEInternal.Weighted>
0.4351

> <Gold.Chemscore.Rot.Weighted>
8.1667

> <Gold.Chemscore.Internal.Correction.Weighted>
   9.000000E+99

> <Gold.Protein.RotatedTorsions>
[ 6907 6896 6895 6894 ] final  131.10 input  -60.11 | X-H torsion
[ 7974 7965 7964 7962 ] final   21.09 input  175.53 | X-H torsion
[ 8008 7997 7996 7995 ] final   -7.31 input   59.86 | X-H torsion
[ 10167 10162 10161 10158 ] final  163.34 input  -65.29 | X-H torsion
[ 10718 10713 10712 10709 ] final   74.95 input   66.30 | X-H torsion
[ 10763 10752 10751 10750 ] final  176.99 input  -60.55 | X-H torsion
[ 11005 11000 10999 10996 ] final  158.89 input  -57.11 | X-H torsion

> <Gold.Protein.ActiveResidues>
 VAL166  LYS551  ARG553  GLY616  TRP617  ASP618  TYR619  PRO620  LYS621  CYS622 
 ASP623  PHE694  ASN695  SER759  ASP760  ASP761  ALA762  ILE779  LEU786  VAL792 
 PHE793  MET794  SER795  GLU796  ALA797  LYS798  CYS799  TRP800  GLU811  SER814 

> <Gold.Protein.RotatedAtoms>
  152.3460  133.6123  159.5910 H   0  0  0  0  0  0  0  0  0  0  0  0  # atno 6907 bound_to 6896
  150.7508  133.9648  159.3536 H   0  0  0  0  0  0  0  0  0  0  0  0  # atno 6908 bound_to 6896
  151.7506  135.0834  160.0381 H   0  0  0  0  0  0  0  0  0  0  0  0  # atno 6909 bound_to 6896
  146.2085  139.8076  142.8707 H   0  0  0  0  0  0  0  0  0  0  0  0  # atno 7974 bound_to 7965
  154.5851  140.2410  155.7998 H   0  0  0  0  0  0  0  0  0  0  0  0  # atno 8008 bound_to 7997
  156.2207  140.2998  155.9902 H   0  0  0  0  0  0  0  0  0  0  0  0  # atno 8009 bound_to 7997
  155.2472  140.0409  157.2973 H   0  0  0  0  0  0  0  0  0  0  0  0  # atno 8010 bound_to 7997
  139.4872  144.4346  151.9028 H   0  0  0  0  0  0  0  0  0  0  0  0  # atno 10167 bound_to 10162
  157.6614  130.9702  150.1284 H   0  0  0  0  0  0  0  0  0  0  0  0  # atno 10718 bound_to 10713
  154.4886  135.2778  155.1515 H   0  0  0  0  0  0  0  0  0  0  0  0  # atno 10763 bound_to 10752
  154.3196  135.6212  153.5505 H   0  0  0  0  0  0  0  0  0  0  0  0  # atno 10764 bound_to 10752
  152.9885  135.5739  154.5302 H   0  0  0  0  0  0  0  0  0  0  0  0  # atno 10765 bound_to 10752
  140.1909  134.8408  157.2910 H   0  0  0  0  0  0  0  0  0  0  0  0  # atno 11005 bound_to 11000
  145.3229  141.0248  143.3490 LP  0  0  0  0  0  0  0  0  0  0  0  0  # atno 17320 bound_to 7965
  144.8853  139.4847  143.6703 LP  0  0  0  0  0  0  0  0  0  0  0  0  # atno 17321 bound_to 7965
  140.3796  144.2753  150.5910 LP  0  0  0  0  0  0  0  0  0  0  0  0  # atno 17342 bound_to 10162
  140.5246  143.2257  151.8335 LP  0  0  0  0  0  0  0  0  0  0  0  0  # atno 17343 bound_to 10162
  156.2137  130.3668  149.8639 LP  0  0  0  0  0  0  0  0  0  0  0  0  # atno 17370 bound_to 10713
  156.6511  130.8744  151.3531 LP  0  0  0  0  0  0  0  0  0  0  0  0  # atno 17371 bound_to 10713
  140.2161  134.4080  155.7588 LP  0  0  0  0  0  0  0  0  0  0  0  0  # atno 17394 bound_to 11000
  141.2226  133.7142  156.8416 LP  0  0  0  0  0  0  0  0  0  0  0  0  # atno 17395 bound_to 11000

$$$$
