AV-unprocessed.smi:681|AV-procd|sdf|3325|dock5
  -GOLD-   22720 0293D 1   1.00000     0.00000
 Structure written by MMmdl.
 41 42  0  0  0  0  0  0  0  0  1 V2000
  148.7736  143.2850  153.6758 C   0  0  0  0  0  0  0  0  0  0  0  0
  149.1211  141.8360  153.6893 C   0  0  0  0  0  0  0  0  0  0  0  0
  148.1808  140.8474  153.7222 N   0  0  0  0  0  0  0  0  0  0  0  0
  148.9659  139.7754  153.7272 C   0  0  0  0  0  0  0  0  0  0  0  0
  148.4682  138.3674  153.7634 C   0  0  0  0  0  0  0  0  0  0  0  0
  150.2704  140.0853  153.6998 N   0  0  0  0  0  0  0  0  0  0  0  0
  151.4542  139.2405  153.7062 C   0  0  0  0  0  0  0  0  0  0  0  0
  152.3144  139.5057  154.9423 C   0  0  0  0  0  0  0  0  0  0  0  0
  153.4635  139.9273  154.8129 O   0  0  0  0  0  0  0  0  0  0  0  0
  151.7478  139.2510  156.1319 N   0  0  0  0  0  0  0  0  0  0  0  0
  152.4022  139.4156  157.4237 C   0  0  0  0  0  0  0  0  0  0  0  0
  151.5027  140.1760  158.4132 C   0  0  0  0  0  0  0  0  0  0  0  0
  151.9866  141.5917  158.6795 C   0  0  0  0  0  0  0  0  0  0  0  0
  152.5914  141.9327  159.8342 C   0  0  0  0  0  0  0  0  0  0  0  0
  153.1100  143.3253  160.1476 C   0  0  0  0  0  0  0  0  0  0  0  0
  153.1873  144.2165  158.8968 C   0  0  0  0  0  0  0  0  0  0  0  0
  151.9335  144.0610  158.0275 C   0  0  0  0  0  0  0  0  0  0  0  0
  151.7502  142.6046  157.5643 C   0  0  0  0  0  0  0  0  0  0  0  0
  150.3897  141.4345  153.6732 N   0  0  0  0  0  0  0  0  0  0  0  0
  147.6930  143.4231  153.6289 H   0  0  0  0  0  0  0  0  0  0  0  0
  149.2211  143.7736  152.8100 H   0  0  0  0  0  0  0  0  0  0  0  0
  149.1440  143.7691  154.5796 H   0  0  0  0  0  0  0  0  0  0  0  0
  147.3794  138.3463  153.7066 H   0  0  0  0  0  0  0  0  0  0  0  0
  148.7761  137.8845  154.6907 H   0  0  0  0  0  0  0  0  0  0  0  0
  148.8683  137.8032  152.9209 H   0  0  0  0  0  0  0  0  0  0  0  0
  151.1472  138.1943  153.6816 H   0  0  0  0  0  0  0  0  0  0  0  0
  152.0352  139.4211  152.8004 H   0  0  0  0  0  0  0  0  0  0  0  0
  150.8002  138.9015  156.1405 H   0  0  0  0  0  0  0  0  0  0  0  0
  152.6824  138.4422  157.8308 H   0  0  0  0  0  0  0  0  0  0  0  0
  153.3308  139.9618  157.2578 H   0  0  0  0  0  0  0  0  0  0  0  0
  150.4810  140.2203  158.0341 H   0  0  0  0  0  0  0  0  0  0  0  0
  151.4545  139.6311  159.3572 H   0  0  0  0  0  0  0  0  0  0  0  0
  152.7244  141.1928  160.6101 H   0  0  0  0  0  0  0  0  0  0  0  0
  152.4469  143.7726  160.8885 H   0  0  0  0  0  0  0  0  0  0  0  0
  154.0950  143.2470  160.6085 H   0  0  0  0  0  0  0  0  0  0  0  0
  153.3224  145.2584  159.1889 H   0  0  0  0  0  0  0  0  0  0  0  0
  154.0652  143.9440  158.3093 H   0  0  0  0  0  0  0  0  0  0  0  0
  151.0598  144.3736  158.6010 H   0  0  0  0  0  0  0  0  0  0  0  0
  151.9869  144.7225  157.1623 H   0  0  0  0  0  0  0  0  0  0  0  0
  152.4468  142.3880  156.7540 H   0  0  0  0  0  0  0  0  0  0  0  0
  150.7455  142.4757  157.1604 H   0  0  0  0  0  0  0  0  0  0  0  0
  1  2  1  0  0  0  0
  1 20  1  0  0  0  0
  1 21  1  0  0  0  0
  1 22  1  0  0  0  0
  2 19  2  0  0  0  0
  2  3  1  0  0  0  0
  3  4  2  0  0  0  0
  4  5  1  0  0  0  0
  4  6  1  0  0  0  0
  5 23  1  0  0  0  0
  5 24  1  0  0  0  0
  5 25  1  0  0  0  0
  6  7  1  0  0  0  0
  6 19  1  0  0  0  0
  7  8  1  0  0  0  0
  7 26  1  0  0  0  0
  7 27  1  0  0  0  0
  8  9  2  0  0  0  0
  8 10  1  0  0  0  0
 10 11  1  0  0  0  0
 10 28  1  0  0  0  0
 11 12  1  0  0  0  0
 11 29  1  0  0  0  0
 11 30  1  0  0  0  0
 12 13  1  0  0  0  0
 12 31  1  0  0  0  0
 12 32  1  0  0  0  0
 13 18  1  0  0  0  0
 13 14  2  0  0  0  0
 14 15  1  0  0  0  0
 14 33  1  0  0  0  0
 15 16  1  0  0  0  0
 15 34  1  0  0  0  0
 15 35  1  0  0  0  0
 16 17  1  0  0  0  0
 16 36  1  0  0  0  0
 16 37  1  0  0  0  0
 17 18  1  0  0  0  0
 17 38  1  0  0  0  0
 17 39  1  0  0  0  0
 18 40  1  0  0  0  0
 18 41  1  0  0  0  0
M  END
> <s_m_source_file>
AV-unprocessed.smi

> <i_m_source_file_index>
681

> <i_lp_mmshare_version>
43012

> <i_f3d_flags>
0

> <s_epik_input>
W0NIM11jMW5jKFtDSDNdKW4objEpW0NIMl1DKD1PKVtOSF1bQ0gyXVtDSDJdQzI9W0NIXVtDSDJdW0NIMl1bQ0gyXVtDSDJdMg==

> <s_epik_cmdline>
J2VwaWtfcHl0aG9uJywgJy1waCcsICc3LjAnLCAnLXRuJywgJzgnLCAnLW1hJywgJzIwMCcsICctbWV0YWxfYmluZGluZycsICctaW1hZScsICc8aW5maWxlLm1hZT4nLCAnLW9tYWUnLCAnPG91dGZpbGUubWFlPic=

> <r_lp_tautomer_probability>
1

> <r_epik_Ionization_Penalty>
0.000426663

> <r_epik_Ionization_Penalty_Charging>
0

> <r_epik_Ionization_Penalty_Neutral>
0.000426663

> <r_epik_State_Penalty>
0.000262586

> <r_epik_Charging_Adjusted_Penalty>
0.000262586

> <i_epik_Tot_Q>
0

> <i_epik_Tot_abs_Q>
0

> <r_epik_Metal_State_Penalty>
-0

> <b_epik_Metal_Only>
0

> <s_lp_Force_Field>
OPLS_2005

> <r_lp_Energy>
6.45034

> <b_lp_Chiralities_Consistent>
1

> <s_lp_Variant>
AV-unprocessed.smi:681-1

> <Gold.Version>
5.8.1

> <Gold.Id.Protein>
6NUR|6NUR_protein|mol2

> <Gold.PLP.Fitness>
46.3647

> <Gold.PLP.PLP>
-42.2641

> <Gold.PLP.part.hbond>
-2.6753

> <Gold.PLP.part.metal>
0.0000

> <Gold.PLP.part.buried>
-4.6959

> <Gold.PLP.part.nonpolar>
-36.4569

> <Gold.PLP.part.repulsive>
1.0324

> <Gold.PLP.ligand.clash>
0.0000

> <Gold.PLP.ligand.torsion>
0.5889

> <Gold.PLP.Chemscore.Hbond>
1.7520

> <Gold.PLP.Chemscore.CHOScore>
0.0000

> <Gold.PLP.Chemscore.Metal>
0.0000

> <Gold.Chemscore.Hbonds>
donor molecule, donor type, donor heavy atom, donor atom, acceptor molecule, acceptor atom, score
      P1  H  7997  8009       L1     9  0.81

> <Gold.PLP.Chemscore.Internal.Correction>
0.0224

> <Gold.Rescore>
     Score         DG    S(hbond)    S(metal)    S(lipo)     H(rot)  DE(clash)    DE(int)     intcor
     14.97     -15.60       1.03        0.00      98.00       1.87       0.14       0.49       ----

> <Gold.Chemscore.Fitness>
14.9677

> <Gold.Chemscore.DG>
-15.5990

> <Gold.Chemscore.ZeroCoef>
-5.4800

> <Gold.Chemscore.Hbond>
1.0339

> <Gold.Chemscore.Metal>
0.0000

> <Gold.Chemscore.Lipo>
97.9992

> <Gold.Chemscore.Internal_Hbond>
0.0000

> <Gold.Chemscore.DEClash>
0.1441

> <Gold.Chemscore.DEInternal>
0.4873

> <Gold.Chemscore.Rot>
1.8750

> <Gold.Chemscore.Internal.Correction>
   9.000000E+99

> <Gold.Chemscore.Hbonds>
donor molecule, donor type, donor heavy atom, donor atom, acceptor molecule, acceptor atom, score
      P1  H  7997  8009       L1     9  0.80

> <Gold.Chemscore.Hbond.Weighted>
-3.4531

> <Gold.Chemscore.Metal.Weighted>
-0.0000

> <Gold.Chemscore.Lipo.Weighted>
-11.4659

> <Gold.Chemscore.Internal_Hbond.Weighted>
0.0000

> <Gold.Chemscore.DEClash.Weighted>
0.1441

> <Gold.Chemscore.DEInternal.Weighted>
0.4873

> <Gold.Chemscore.Rot.Weighted>
4.7999

> <Gold.Chemscore.Internal.Correction.Weighted>
   9.000000E+99

> <Gold.Protein.RotatedTorsions>
[ 6907 6896 6895 6894 ] final  -85.40 input  -60.11 | X-H torsion
[ 7974 7965 7964 7962 ] final   61.25 input  175.53 | X-H torsion
[ 8008 7997 7996 7995 ] final -121.82 input   59.86 | X-H torsion
[ 10167 10162 10161 10158 ] final  130.35 input  -65.29 | X-H torsion
[ 10718 10713 10712 10709 ] final   64.92 input   66.30 | X-H torsion
[ 10763 10752 10751 10750 ] final   85.77 input  -60.55 | X-H torsion
[ 11005 11000 10999 10996 ] final  -66.69 input  -57.11 | X-H torsion

> <Gold.Protein.ActiveResidues>
 VAL166  LYS551  ARG553  GLY616  TRP617  ASP618  TYR619  PRO620  LYS621  CYS622 
 ASP623  PHE694  ASN695  SER759  ASP760  ASP761  ALA762  ILE779  LEU786  VAL792 
 PHE793  MET794  SER795  GLU796  ALA797  LYS798  CYS799  TRP800  GLU811  SER814 

> <Gold.Protein.RotatedAtoms>
  150.6870  134.3210  159.4786 H   0  0  0  0  0  0  0  0  0  0  0  0  # atno 6907 bound_to 6896
  152.1085  134.9288  160.0576 H   0  0  0  0  0  0  0  0  0  0  0  0  # atno 6908 bound_to 6896
  152.0540  133.3997  159.4426 H   0  0  0  0  0  0  0  0  0  0  0  0  # atno 6909 bound_to 6896
  145.8869  139.3483  143.0672 H   0  0  0  0  0  0  0  0  0  0  0  0  # atno 7974 bound_to 7965
  155.1541  140.0404  157.2828 H   0  0  0  0  0  0  0  0  0  0  0  0  # atno 8008 bound_to 7997
  154.6383  140.2541  155.7325 H   0  0  0  0  0  0  0  0  0  0  0  0  # atno 8009 bound_to 7997
  156.2519  140.2861  156.0765 H   0  0  0  0  0  0  0  0  0  0  0  0  # atno 8010 bound_to 7997
  139.5434  144.6752  151.4550 H   0  0  0  0  0  0  0  0  0  0  0  0  # atno 10167 bound_to 10162
  157.6072  130.9186  149.9909 H   0  0  0  0  0  0  0  0  0  0  0  0  # atno 10718 bound_to 10713
  153.1506  135.4605  154.9631 H   0  0  0  0  0  0  0  0  0  0  0  0  # atno 10763 bound_to 10752
  154.7821  135.3192  154.7968 H   0  0  0  0  0  0  0  0  0  0  0  0  # atno 10764 bound_to 10752
  153.8474  135.6924  153.4850 H   0  0  0  0  0  0  0  0  0  0  0  0  # atno 10765 bound_to 10752
  141.1489  133.6704  156.6178 H   0  0  0  0  0  0  0  0  0  0  0  0  # atno 11005 bound_to 11000
  145.8956  140.9276  143.0529 LP  0  0  0  0  0  0  0  0  0  0  0  0  # atno 17320 bound_to 7965
  144.6729  140.0964  143.7462 LP  0  0  0  0  0  0  0  0  0  0  0  0  # atno 17321 bound_to 7965
  140.6673  143.8369  150.6957 LP  0  0  0  0  0  0  0  0  0  0  0  0  # atno 17342 bound_to 10162
  140.1783  143.4136  152.1951 LP  0  0  0  0  0  0  0  0  0  0  0  0  # atno 17343 bound_to 10162
  156.1162  130.3647  149.9964 LP  0  0  0  0  0  0  0  0  0  0  0  0  # atno 17370 bound_to 10713
  156.8053  130.9305  151.3645 LP  0  0  0  0  0  0  0  0  0  0  0  0  # atno 17371 bound_to 10713
  140.3564  134.7724  157.4503 LP  0  0  0  0  0  0  0  0  0  0  0  0  # atno 17394 bound_to 11000
  140.0819  134.5719  155.8531 LP  0  0  0  0  0  0  0  0  0  0  0  0  # atno 17395 bound_to 11000

$$$$
