AV-unprocessed.smi:933|AV-procd|sdf|4202|dock8
  -GOLD-   22720 2113D 1   1.00000     0.00000
 Structure written by MMmdl.
 42 43  0  0  0  0  0  0  0  0  1 V2000
  155.7135  140.3169  160.3956 C   0  0  0  0  0  0  0  0  0  0  0  0
  154.2215  140.2912  160.0478 C   0  0  0  0  0  0  0  0  0  0  0  0
  153.5081  141.5211  160.4999 C   0  0  0  0  0  0  0  0  0  0  0  0
  152.8762  142.3537  159.6684 N   0  0  0  0  0  0  0  0  0  0  0  0
  152.3235  143.4562  160.3273 C   0  0  0  0  0  0  0  0  0  0  0  0
  151.5808  144.4999  159.5445 C   0  0  0  0  0  0  0  0  0  0  0  0
  150.3437  145.0436  160.2789 C   0  0  0  0  0  0  0  0  0  0  0  0
  149.1273  144.8696  159.4857 N   0  0  0  0  0  0  0  0  0  0  0  0
  147.9432  144.3942  159.9063 C   0  0  0  0  0  0  0  0  0  0  0  0
  147.7655  144.0293  161.0668 O   0  0  0  0  0  0  0  0  0  0  0  0
  146.9949  144.3439  158.9549 N   0  0  0  0  0  0  0  0  0  0  0  0
  145.6213  143.8735  159.1362 C   0  0  1  0  0  0  0  0  0  0  0  0
  145.6162  142.5666  159.9567 C   0  0  0  0  0  0  0  0  0  0  0  0
  144.7795  142.8364  161.2121 C   0  0  0  0  0  0  0  0  0  0  0  0
  144.7775  144.3542  161.3696 C   0  0  0  0  0  0  0  0  0  0  0  0
  144.7454  144.8713  159.9308 C   0  0  1  0  0  0  0  0  0  0  0  0
  145.0947  146.3643  159.8021 C   0  0  0  0  0  0  0  0  0  0  0  0
  152.5494  143.4468  161.6814 C   0  0  0  0  0  0  0  0  0  0  0  0
  153.4776  142.0582  162.1755 S   0  0  0  0  0  0  0  0  0  0  0  0
  156.2073  139.4070  160.0546 H   0  0  0  0  0  0  0  0  0  0  0  0
  155.8647  140.3953  161.4727 H   0  0  0  0  0  0  0  0  0  0  0  0
  156.2123  141.1644  159.9245 H   0  0  0  0  0  0  0  0  0  0  0  0
  154.0920  140.1837  158.9704 H   0  0  0  0  0  0  0  0  0  0  0  0
  153.7472  139.4239  160.5079 H   0  0  0  0  0  0  0  0  0  0  0  0
  152.2474  145.3293  159.3061 H   0  0  0  0  0  0  0  0  0  0  0  0
  151.2703  144.0880  158.5835 H   0  0  0  0  0  0  0  0  0  0  0  0
  150.2301  144.5208  161.2301 H   0  0  0  0  0  0  0  0  0  0  0  0
  150.4847  146.1008  160.5080 H   0  0  0  0  0  0  0  0  0  0  0  0
  149.1984  145.1108  158.5076 H   0  0  0  0  0  0  0  0  0  0  0  0
  147.2432  144.6611  158.0293 H   0  0  0  0  0  0  0  0  0  0  0  0
  145.1630  143.6884  158.1630 H   0  0  0  0  0  0  0  0  0  0  0  0
  145.2032  141.7356  159.3837 H   0  0  0  0  0  0  0  0  0  0  0  0
  146.6284  142.2781  160.2454 H   0  0  0  0  0  0  0  0  0  0  0  0
  143.7585  142.4871  161.0525 H   0  0  0  0  0  0  0  0  0  0  0  0
  145.1690  142.3252  162.0928 H   0  0  0  0  0  0  0  0  0  0  0  0
  143.9341  144.7102  161.9624 H   0  0  0  0  0  0  0  0  0  0  0  0
  145.6949  144.6756  161.8651 H   0  0  0  0  0  0  0  0  0  0  0  0
  143.7219  144.7469  159.5731 H   0  0  0  0  0  0  0  0  0  0  0  0
  146.0851  146.5854  160.2013 H   0  0  0  0  0  0  0  0  0  0  0  0
  144.3779  146.9771  160.3492 H   0  0  0  0  0  0  0  0  0  0  0  0
  145.0718  146.6829  158.7598 H   0  0  0  0  0  0  0  0  0  0  0  0
  152.2351  144.1749  162.4145 H   0  0  0  0  0  0  0  0  0  0  0  0
  1  2  1  0  0  0  0
  1 20  1  0  0  0  0
  1 21  1  0  0  0  0
  1 22  1  0  0  0  0
  2  3  1  0  0  0  0
  2 23  1  0  0  0  0
  2 24  1  0  0  0  0
  3 19  1  0  0  0  0
  3  4  2  0  0  0  0
  4  5  1  0  0  0  0
  5  6  1  0  0  0  0
  5 18  2  0  0  0  0
  6  7  1  0  0  0  0
  6 25  1  0  0  0  0
  6 26  1  0  0  0  0
  7  8  1  0  0  0  0
  7 27  1  0  0  0  0
  7 28  1  0  0  0  0
  8  9  1  0  0  0  0
  8 29  1  0  0  0  0
  9 10  2  0  0  0  0
  9 11  1  0  0  0  0
 11 12  1  0  0  0  0
 11 30  1  0  0  0  0
 12 16  1  0  0  0  0
 12 13  1  0  0  0  0
 12 31  1  0  0  0  0
 13 14  1  0  0  0  0
 13 32  1  0  0  0  0
 13 33  1  0  0  0  0
 14 15  1  0  0  0  0
 14 34  1  0  0  0  0
 14 35  1  0  0  0  0
 15 16  1  0  0  0  0
 15 36  1  0  0  0  0
 15 37  1  0  0  0  0
 16 17  1  0  0  0  0
 16 38  1  0  0  0  0
 17 39  1  0  0  0  0
 17 40  1  0  0  0  0
 17 41  1  0  0  0  0
 18 19  1  0  0  0  0
 18 42  1  0  0  0  0
M  END
> <s_m_source_file>
AV-unprocessed.smi

> <i_m_source_file_index>
933

> <i_lp_mmshare_version>
43012

> <i_f3d_flags>
0

> <s_epik_input>
W0NIM11bQ0gyXWMxbmMoW2NIXXMxKVtDSDJdW0NIMl1bTkhdQyg9TylbTkhdW0NAQEhdMltDSDJdW0NIMl1bQ0gyXVtDQEhdMltDSDNd

> <s_epik_cmdline>
J2VwaWtfcHl0aG9uJywgJy1waCcsICc3LjAnLCAnLXRuJywgJzgnLCAnLW1hJywgJzIwMCcsICctbWV0YWxfYmluZGluZycsICctaW1hZScsICc8aW5maWxlLm1hZT4nLCAnLW9tYWUnLCAnPG91dGZpbGUubWFlPic=

> <r_epik_Ionization_Penalty>
0.00203408

> <r_epik_Ionization_Penalty_Charging>
0

> <r_epik_Ionization_Penalty_Neutral>
0.00203408

> <r_epik_State_Penalty>
0.0013452

> <r_epik_Charging_Adjusted_Penalty>
0.0013452

> <i_epik_Tot_Q>
0

> <i_epik_Tot_abs_Q>
0

> <r_epik_Metal_State_Penalty>
-0

> <b_epik_Metal_Only>
0

> <s_lp_Force_Field>
OPLS_2005

> <r_lp_Energy>
20.9711

> <b_lp_Chiralities_Consistent>
1

> <s_lp_Variant>
AV-unprocessed.smi:933-2

> <Gold.Version>
5.8.1

> <Gold.Id.Protein>
6NUR|6NUR_protein|mol2

> <Gold.PLP.Fitness>
43.8394

> <Gold.PLP.PLP>
-38.3214

> <Gold.PLP.part.hbond>
-2.8086

> <Gold.PLP.part.metal>
0.0000

> <Gold.PLP.part.buried>
-4.4907

> <Gold.PLP.part.nonpolar>
-32.1936

> <Gold.PLP.part.repulsive>
0.3684

> <Gold.PLP.ligand.clash>
0.0000

> <Gold.PLP.ligand.torsion>
0.9350

> <Gold.PLP.Chemscore.Hbond>
2.4560

> <Gold.PLP.Chemscore.CHOScore>
0.0000

> <Gold.PLP.Chemscore.Metal>
0.0000

> <Gold.Chemscore.Hbonds>
donor molecule, donor type, donor heavy atom, donor atom, acceptor molecule, acceptor atom, score
      L1  H     8    29       P1  8029  0.64
      L1  H    11    30       P1  8029  0.83
      P1  H  6933  6944       L1    10  1.00

> <Gold.PLP.Chemscore.Internal.Correction>
0.0199

> <Gold.Rescore>
     Score         DG    S(hbond)    S(metal)    S(lipo)     H(rot)  DE(clash)    DE(int)     intcor
     20.38     -23.56       2.78        0.00     109.03       1.55       0.69       2.49       ----

> <Gold.Chemscore.Fitness>
20.3832

> <Gold.Chemscore.DG>
-23.5588

> <Gold.Chemscore.ZeroCoef>
-5.4800

> <Gold.Chemscore.Hbond>
2.7801

> <Gold.Chemscore.Metal>
0.0000

> <Gold.Chemscore.Lipo>
109.0337

> <Gold.Chemscore.Internal_Hbond>
0.0000

> <Gold.Chemscore.DEClash>
0.6875

> <Gold.Chemscore.DEInternal>
2.4882

> <Gold.Chemscore.Rot>
1.5482

> <Gold.Chemscore.Internal.Correction>
   9.000000E+99

> <Gold.Chemscore.Hbonds>
donor molecule, donor type, donor heavy atom, donor atom, acceptor molecule, acceptor atom, score
      L1  H     8    29       P1  8029  0.53
      L1  H    11    30       P1  8029  0.54
      P1  H  6933  6944       L1    10  0.88

> <Gold.Chemscore.Hbond.Weighted>
-9.2854

> <Gold.Chemscore.Metal.Weighted>
-0.0000

> <Gold.Chemscore.Lipo.Weighted>
-12.7569

> <Gold.Chemscore.Internal_Hbond.Weighted>
0.0000

> <Gold.Chemscore.DEClash.Weighted>
0.6875

> <Gold.Chemscore.DEInternal.Weighted>
2.4882

> <Gold.Chemscore.Rot.Weighted>
3.9635

> <Gold.Chemscore.Internal.Correction.Weighted>
   9.000000E+99

> <Gold.Protein.RotatedTorsions>
[ 6907 6896 6895 6894 ] final  -78.31 input  -60.11 | X-H torsion
[ 7974 7965 7964 7962 ] final   30.41 input  175.53 | X-H torsion
[ 8008 7997 7996 7995 ] final    5.19 input   59.86 | X-H torsion
[ 10167 10162 10161 10158 ] final   77.32 input  -65.29 | X-H torsion
[ 10718 10713 10712 10709 ] final   39.82 input   66.30 | X-H torsion
[ 10763 10752 10751 10750 ] final -152.37 input  -60.55 | X-H torsion
[ 11005 11000 10999 10996 ] final  -89.47 input  -57.11 | X-H torsion

> <Gold.Protein.ActiveResidues>
 VAL166  LYS551  ARG553  GLY616  TRP617  ASP618  TYR619  PRO620  LYS621  CYS622 
 ASP623  PHE694  ASN695  SER759  ASP760  ASP761  ALA762  ILE779  LEU786  VAL792 
 PHE793  MET794  SER795  GLU796  ALA797  LYS798  CYS799  TRP800  GLU811  SER814 

> <Gold.Protein.RotatedAtoms>
  150.6976  134.4292  159.5240 H   0  0  0  0  0  0  0  0  0  0  0  0  # atno 6907 bound_to 6896
  152.2021  134.8575  160.0516 H   0  0  0  0  0  0  0  0  0  0  0  0  # atno 6908 bound_to 6896
  151.9491  133.3626  159.4030 H   0  0  0  0  0  0  0  0  0  0  0  0  # atno 6909 bound_to 6896
  146.1614  139.6793  142.9031 H   0  0  0  0  0  0  0  0  0  0  0  0  # atno 7974 bound_to 7965
  154.7253  140.2720  155.6505 H   0  0  0  0  0  0  0  0  0  0  0  0  # atno 8008 bound_to 7997
  156.2835  140.2726  156.1861 H   0  0  0  0  0  0  0  0  0  0  0  0  # atno 8009 bound_to 7997
  155.0453  140.0371  157.2514 H   0  0  0  0  0  0  0  0  0  0  0  0  # atno 8010 bound_to 7997
  139.9828  144.5814  150.7885 H   0  0  0  0  0  0  0  0  0  0  0  0  # atno 10167 bound_to 10162
  157.3750  130.7722  149.7148 H   0  0  0  0  0  0  0  0  0  0  0  0  # atno 10718 bound_to 10713
  154.7998  135.3238  154.7577 H   0  0  0  0  0  0  0  0  0  0  0  0  # atno 10763 bound_to 10752
  153.8248  135.6884  153.4826 H   0  0  0  0  0  0  0  0  0  0  0  0  # atno 10764 bound_to 10752
  153.1709  135.4623  154.9844 H   0  0  0  0  0  0  0  0  0  0  0  0  # atno 10765 bound_to 10752
  141.1584  133.7632  156.9600 H   0  0  0  0  0  0  0  0  0  0  0  0  # atno 11005 bound_to 11000
  145.4580  141.0431  143.2767 LP  0  0  0  0  0  0  0  0  0  0  0  0  # atno 17320 bound_to 7965
  144.8031  139.6102  143.7062 LP  0  0  0  0  0  0  0  0  0  0  0  0  # atno 17321 bound_to 7965
  140.7483  143.2920  151.3306 LP  0  0  0  0  0  0  0  0  0  0  0  0  # atno 17342 bound_to 10162
  139.6397  144.0563  152.2544 LP  0  0  0  0  0  0  0  0  0  0  0  0  # atno 17343 bound_to 10162
  155.9763  130.4077  150.3786 LP  0  0  0  0  0  0  0  0  0  0  0  0  # atno 17370 bound_to 10713
  157.1883  131.0409  151.2713 LP  0  0  0  0  0  0  0  0  0  0  0  0  # atno 17371 bound_to 10713
  140.1199  134.9423  157.2189 LP  0  0  0  0  0  0  0  0  0  0  0  0  # atno 17394 bound_to 11000
  140.3085  134.3051  155.7272 LP  0  0  0  0  0  0  0  0  0  0  0  0  # atno 17395 bound_to 11000

$$$$
