AV-unprocessed.smi:3132|AV-procd|sdf|11929|dock2
  -GOLD-   2272017313D 1   1.00000     0.00000
 Structure written by MMmdl.
 34 35  0  0  0  0  0  0  0  0  2 V2000
  150.8099  140.1114  155.9500 C   0  0  0  0  0  0  0  0  0  0  0  0
  149.9843  141.3980  156.0826 C   0  0  2  0  0  0  0  0  0  0  0  0
  149.4291  141.8520  154.7149 C   0  0  0  0  0  0  0  0  0  0  0  0
  148.3657  140.9773  154.2092 N   0  0  0  0  0  0  0  0  0  0  0  0
  148.4182  139.6175  154.0361 C   0  0  0  0  0  0  0  0  0  0  0  0
  147.2032  139.2418  153.5239 C   0  0  0  0  0  0  0  0  0  0  0  0
  146.4589  140.3859  153.4129 N   0  3  0  0  0  0  0  0  0  0  0  0
  147.1665  141.4397  153.8327 C   0  0  0  0  0  0  0  0  0  0  0  0
  150.8207  142.4400  156.6767 N   0  0  0  0  0  0  0  0  0  0  0  0
  150.8429  142.7818  157.9748 C   0  0  0  0  0  0  0  0  0  0  0  0
  150.1599  142.2221  158.8334 O   0  0  0  0  0  0  0  0  0  0  0  0
  151.7407  143.9657  158.3477 C   0  0  2  0  0  0  0  0  0  0  0  0
  152.7874  143.6445  159.4303 C   0  0  0  0  0  0  0  0  0  0  0  0
  152.2731  144.3775  160.6534 C   0  0  0  0  0  0  0  0  0  0  0  0
  151.5535  145.5611  160.0237 C   0  0  0  0  0  0  0  0  0  0  0  0
  150.9087  144.9866  158.8973 O   0  0  0  0  0  0  0  0  0  0  0  0
  150.2101  139.3021  155.5324 H   0  0  0  0  0  0  0  0  0  0  0  0
  151.1786  139.7784  156.9210 H   0  0  0  0  0  0  0  0  0  0  0  0
  151.6721  140.2565  155.2979 H   0  0  0  0  0  0  0  0  0  0  0  0
  149.1470  141.1742  156.7461 H   0  0  0  0  0  0  0  0  0  0  0  0
  149.0333  142.8669  154.7745 H   0  0  0  0  0  0  0  0  0  0  0  0
  150.2233  141.8665  153.9669 H   0  0  0  0  0  0  0  0  0  0  0  0
  149.2969  139.0352  154.2731 H   0  0  0  0  0  0  0  0  0  0  0  0
  146.8232  138.2724  153.2363 H   0  0  0  0  0  0  0  0  0  0  0  0
  146.8377  142.4636  153.8528 H   0  0  0  0  0  0  0  0  0  0  0  0
  151.4140  142.9596  156.0457 H   0  0  0  0  0  0  0  0  0  0  0  0
  152.2396  144.3529  157.4576 H   0  0  0  0  0  0  0  0  0  0  0  0
  152.9266  142.5788  159.6180 H   0  0  0  0  0  0  0  0  0  0  0  0
  153.7556  144.0505  159.1342 H   0  0  0  0  0  0  0  0  0  0  0  0
  151.5625  143.7523  161.1957 H   0  0  0  0  0  0  0  0  0  0  0  0
  153.0655  144.6744  161.3410 H   0  0  0  0  0  0  0  0  0  0  0  0
  150.8393  146.0306  160.7002 H   0  0  0  0  0  0  0  0  0  0  0  0
  152.2659  146.3175  159.6905 H   0  0  0  0  0  0  0  0  0  0  0  0
  145.5111  140.4308  153.0604 H   0  0  0  0  0  0  0  0  0  0  0  0
  1  2  1  0  0  0  0
  1 17  1  0  0  0  0
  1 18  1  0  0  0  0
  1 19  1  0  0  0  0
  2  3  1  0  0  0  0
  2  9  1  0  0  0  0
  2 20  1  0  0  0  0
  3  4  1  0  0  0  0
  3 21  1  0  0  0  0
  3 22  1  0  0  0  0
  4  8  1  0  0  0  0
  4  5  1  0  0  0  0
  5  6  2  0  0  0  0
  5 23  1  0  0  0  0
  6  7  1  0  0  0  0
  6 24  1  0  0  0  0
  7  8  2  0  0  0  0
  7 34  1  0  0  0  0
  8 25  1  0  0  0  0
  9 10  1  0  0  0  0
  9 26  1  0  0  0  0
 10 11  2  0  0  0  0
 10 12  1  0  0  0  0
 12 16  1  0  0  0  0
 12 13  1  0  0  0  0
 12 27  1  0  0  0  0
 13 14  1  0  0  0  0
 13 28  1  0  0  0  0
 13 29  1  0  0  0  0
 14 15  1  0  0  0  0
 14 30  1  0  0  0  0
 14 31  1  0  0  0  0
 15 16  1  0  0  0  0
 15 32  1  0  0  0  0
 15 33  1  0  0  0  0
M  CHG  1   7   1
M  END
> <s_m_source_file>
AV-unprocessed.smi

> <i_m_source_file_index>
3132

> <i_lp_mmshare_version>
43012

> <i_f3d_flags>
0

> <s_epik_input>
W2NIXTFuW2NIXVtjSF1uMVtDSDJdW0NAQEhdKFtDSDNdKVtOSF1DKD1PKVtDQEBIXTJbQ0gyXVtDSDJdW0NIMl1PMg==

> <s_epik_cmdline>
J2VwaWtfcHl0aG9uJywgJy1waCcsICc3LjAnLCAnLXRuJywgJzgnLCAnLW1hJywgJzIwMCcsICctbWV0YWxfYmluZGluZycsICctaW1hZScsICc8aW5maWxlLm1hZT4nLCAnLW9tYWUnLCAnPG91dGZpbGUubWFlPic=

> <r_lp_tautomer_probability>
1

> <r_epik_Ionization_Penalty>
0.250802

> <r_epik_Ionization_Penalty_Charging>
0

> <r_epik_Ionization_Penalty_Neutral>
0.250802

> <r_epik_State_Penalty>
0.242139

> <r_epik_Charging_Adjusted_Penalty>
0.242139

> <i_epik_Tot_Q>
1

> <i_epik_Tot_abs_Q>
1

> <r_epik_Metal_State_Penalty>
0.533361

> <b_epik_Metal_Only>
0

> <s_lp_Force_Field>
OPLS_2005

> <r_lp_Energy>
20.2127

> <b_lp_Chiralities_Consistent>
1

> <s_lp_Variant>
AV-unprocessed.smi:3132-1

> <Gold.Version>
5.8.1

> <Gold.Id.Protein>
6NUR|6NUR_protein|mol2

> <Gold.PLP.Fitness>
41.9094

> <Gold.PLP.PLP>
-36.7180

> <Gold.PLP.part.hbond>
-2.1916

> <Gold.PLP.part.metal>
0.0000

> <Gold.PLP.part.buried>
-2.0567

> <Gold.PLP.part.nonpolar>
-32.1122

> <Gold.PLP.part.repulsive>
0.2903

> <Gold.PLP.ligand.clash>
0.0000

> <Gold.PLP.ligand.torsion>
0.4165

> <Gold.PLP.Chemscore.Hbond>
2.0000

> <Gold.PLP.Chemscore.CHOScore>
0.0000

> <Gold.PLP.Chemscore.Metal>
0.0000

> <Gold.Chemscore.Hbonds>
donor molecule, donor type, donor heavy atom, donor atom, acceptor molecule, acceptor atom, score
      L1  H     7    34       P1 10175  2.00

> <Gold.PLP.Chemscore.Internal.Correction>
0.0244

> <Gold.Rescore>
     Score         DG    S(hbond)    S(metal)    S(lipo)     H(rot)  DE(clash)    DE(int)     intcor
     12.95     -13.57       1.00        0.00      83.02       1.93       0.26       0.37       ----

> <Gold.Chemscore.Fitness>
12.9504

> <Gold.Chemscore.DG>
-13.5736

> <Gold.Chemscore.ZeroCoef>
-5.4800

> <Gold.Chemscore.Hbond>
0.9951

> <Gold.Chemscore.Metal>
0.0000

> <Gold.Chemscore.Lipo>
83.0159

> <Gold.Chemscore.Internal_Hbond>
0.0000

> <Gold.Chemscore.DEClash>
0.2572

> <Gold.Chemscore.DEInternal>
0.3660

> <Gold.Chemscore.Rot>
1.9308

> <Gold.Chemscore.Internal.Correction>
   9.000000E+99

> <Gold.Chemscore.Hbonds>
donor molecule, donor type, donor heavy atom, donor atom, acceptor molecule, acceptor atom, score
      L1  H     7    34       P1 10175  0.92

> <Gold.Chemscore.Hbond.Weighted>
-3.3236

> <Gold.Chemscore.Metal.Weighted>
-0.0000

> <Gold.Chemscore.Lipo.Weighted>
-9.7129

> <Gold.Chemscore.Internal_Hbond.Weighted>
0.0000

> <Gold.Chemscore.DEClash.Weighted>
0.2572

> <Gold.Chemscore.DEInternal.Weighted>
0.3660

> <Gold.Chemscore.Rot.Weighted>
4.9429

> <Gold.Chemscore.Internal.Correction.Weighted>
   9.000000E+99

> <Gold.Protein.RotatedTorsions>
[ 6907 6896 6895 6894 ] final  141.84 input  -60.11 | X-H torsion
[ 7974 7965 7964 7962 ] final  164.50 input  175.53 | X-H torsion
[ 8008 7997 7996 7995 ] final  -12.36 input   59.86 | X-H torsion
[ 10167 10162 10161 10158 ] final   20.96 input  -65.29 | X-H torsion
[ 10718 10713 10712 10709 ] final    1.96 input   66.30 | X-H torsion
[ 10763 10752 10751 10750 ] final -166.55 input  -60.55 | X-H torsion
[ 11005 11000 10999 10996 ] final  125.71 input  -57.11 | X-H torsion

> <Gold.Protein.ActiveResidues>
 VAL166  LYS551  ARG553  GLY616  TRP617  ASP618  TYR619  PRO620  LYS621  CYS622 
 ASP623  PHE694  ASN695  SER759  ASP760  ASP761  ALA762  ILE779  LEU786  VAL792 
 PHE793  MET794  SER795  GLU796  ALA797  LYS798  CYS799  TRP800  GLU811  SER814 

> <Gold.Protein.RotatedAtoms>
  152.2260  133.5021  159.5188 H   0  0  0  0  0  0  0  0  0  0  0  0  # atno 6907 bound_to 6896
  150.7025  134.1279  159.4068 H   0  0  0  0  0  0  0  0  0  0  0  0  # atno 6908 bound_to 6896
  151.9200  135.0302  160.0572 H   0  0  0  0  0  0  0  0  0  0  0  0  # atno 6909 bound_to 6896
  144.7542  139.8335  143.6355 H   0  0  0  0  0  0  0  0  0  0  0  0  # atno 7974 bound_to 7965
  154.5384  140.2278  155.8683 H   0  0  0  0  0  0  0  0  0  0  0  0  # atno 8008 bound_to 7997
  156.1834  140.3095  155.9154 H   0  0  0  0  0  0  0  0  0  0  0  0  # atno 8009 bound_to 7997
  155.3308  140.0445  157.3033 H   0  0  0  0  0  0  0  0  0  0  0  0  # atno 8010 bound_to 7997
  140.5463  143.9588  150.6550 H   0  0  0  0  0  0  0  0  0  0  0  0  # atno 10167 bound_to 10162
  156.8559  130.5570  149.5666 H   0  0  0  0  0  0  0  0  0  0  0  0  # atno 10718 bound_to 10713
  154.6821  135.2956  154.9598 H   0  0  0  0  0  0  0  0  0  0  0  0  # atno 10763 bound_to 10752
  154.0589  135.6634  153.4813 H   0  0  0  0  0  0  0  0  0  0  0  0  # atno 10764 bound_to 10752
  153.0554  135.5147  154.7870 H   0  0  0  0  0  0  0  0  0  0  0  0  # atno 10765 bound_to 10752
  139.9420  134.9634  156.8598 H   0  0  0  0  0  0  0  0  0  0  0  0  # atno 11005 bound_to 11000
  146.1532  139.4622  143.0035 LP  0  0  0  0  0  0  0  0  0  0  0  0  # atno 17320 bound_to 7965
  145.6836  141.0184  143.1593 LP  0  0  0  0  0  0  0  0  0  0  0  0  # atno 17321 bound_to 7965
  140.3002  143.3265  152.0979 LP  0  0  0  0  0  0  0  0  0  0  0  0  # atno 17342 bound_to 10162
  139.5009  144.6701  151.6263 LP  0  0  0  0  0  0  0  0  0  0  0  0  # atno 17343 bound_to 10162
  156.0803  130.5815  150.9550 LP  0  0  0  0  0  0  0  0  0  0  0  0  # atno 17370 bound_to 10713
  157.6277  131.0924  150.8501 LP  0  0  0  0  0  0  0  0  0  0  0  0  # atno 17371 bound_to 10713
  140.5929  134.0245  155.7506 LP  0  0  0  0  0  0  0  0  0  0  0  0  # atno 17394 bound_to 11000
  141.1057  133.9697  157.3000 LP  0  0  0  0  0  0  0  0  0  0  0  0  # atno 17395 bound_to 11000

$$$$
