AV-unprocessed.smi:869|AV-procd|sdf|4004|dock1
  -GOLD-   22720 1483D 1   1.00000     0.00000
 Structure written by MMmdl.
 46 48  0  0  0  0  0  0  0  0  1 V2000
  152.1314  139.2289  155.3204 C   0  0  0  0  0  0  0  0  0  0  0  0
  152.8773  139.3838  156.5146 O   0  0  0  0  0  0  0  0  0  0  0  0
  152.0579  139.3585  157.6728 C   0  0  0  0  0  0  0  0  0  0  0  0
  152.0076  140.7562  158.2214 C   0  0  0  0  0  0  0  0  0  0  0  0
  152.4772  141.0514  159.4356 N   0  0  0  0  0  0  0  0  0  0  0  0
  152.2417  142.4078  159.5357 C   0  0  0  0  0  0  0  0  0  0  0  0
  152.5203  143.3139  160.5840 C   0  0  0  0  0  0  0  0  0  0  0  0
  152.1827  144.6774  160.4574 C   0  0  0  0  0  0  0  0  0  0  0  0
  151.5626  145.1529  159.2837 C   0  0  0  0  0  0  0  0  0  0  0  0
  151.2752  144.2663  158.2282 C   0  0  0  0  0  0  0  0  0  0  0  0
  151.6146  142.9063  158.3598 C   0  0  0  0  0  0  0  0  0  0  0  0
  151.4722  141.7974  157.5315 N   0  0  0  0  0  0  0  0  0  0  0  0
  150.8670  141.8035  156.2061 C   0  0  0  0  0  0  0  0  0  0  0  0
  149.3450  141.5545  156.2512 C   0  0  1  0  0  0  0  0  0  0  0  0
  148.6652  142.5552  156.9826 O   0  0  0  0  0  0  0  0  0  0  0  0
  148.6997  141.4215  154.8623 C   0  0  0  0  0  0  0  0  0  0  0  0
  147.3656  140.9450  154.9930 O   0  0  0  0  0  0  0  0  0  0  0  0
  146.3348  141.8573  154.9254 C   0  0  0  0  0  0  0  0  0  0  0  0
  146.5454  143.0017  154.1292 C   0  0  0  0  0  0  0  0  0  0  0  0
  145.5468  143.9862  154.0021 C   0  0  0  0  0  0  0  0  0  0  0  0
  144.3178  143.8369  154.6736 C   0  0  0  0  0  0  0  0  0  0  0  0
  143.2476  144.9001  154.5371 C   0  0  0  0  0  0  0  0  0  0  0  0
  144.0961  142.6976  155.4729 C   0  0  0  0  0  0  0  0  0  0  0  0
  145.0957  141.7130  155.5991 C   0  0  0  0  0  0  0  0  0  0  0  0
  152.8031  139.2662  154.4626 H   0  0  0  0  0  0  0  0  0  0  0  0
  151.3961  140.0266  155.2067 H   0  0  0  0  0  0  0  0  0  0  0  0
  151.6137  138.2689  155.3016 H   0  0  0  0  0  0  0  0  0  0  0  0
  151.0652  138.9991  157.4049 H   0  0  0  0  0  0  0  0  0  0  0  0
  152.4730  138.6918  158.4302 H   0  0  0  0  0  0  0  0  0  0  0  0
  152.9955  142.9587  161.4863 H   0  0  0  0  0  0  0  0  0  0  0  0
  152.4012  145.3613  161.2644 H   0  0  0  0  0  0  0  0  0  0  0  0
  151.3079  146.1989  159.1944 H   0  0  0  0  0  0  0  0  0  0  0  0
  150.8005  144.6272  157.3278 H   0  0  0  0  0  0  0  0  0  0  0  0
  151.1057  142.7390  155.7012 H   0  0  0  0  0  0  0  0  0  0  0  0
  151.3454  141.0226  155.6139 H   0  0  0  0  0  0  0  0  0  0  0  0
  149.1662  140.6217  156.7875 H   0  0  0  0  0  0  0  0  0  0  0  0
  148.6486  143.3454  156.4644 H   0  0  0  0  0  0  0  0  0  0  0  0
  148.6812  142.4045  154.3886 H   0  0  0  0  0  0  0  0  0  0  0  0
  149.2944  140.7593  154.2305 H   0  0  0  0  0  0  0  0  0  0  0  0
  147.4841  143.1267  153.6095 H   0  0  0  0  0  0  0  0  0  0  0  0
  145.7272  144.8565  153.3881 H   0  0  0  0  0  0  0  0  0  0  0  0
  142.2967  144.5619  154.9498 H   0  0  0  0  0  0  0  0  0  0  0  0
  143.0912  145.1501  153.4874 H   0  0  0  0  0  0  0  0  0  0  0  0
  143.5475  145.8054  155.0655 H   0  0  0  0  0  0  0  0  0  0  0  0
  143.1581  142.5733  155.9940 H   0  0  0  0  0  0  0  0  0  0  0  0
  144.8866  140.8559  156.2209 H   0  0  0  0  0  0  0  0  0  0  0  0
  1  2  1  0  0  0  0
  1 25  1  0  0  0  0
  1 26  1  0  0  0  0
  1 27  1  0  0  0  0
  2  3  1  0  0  0  0
  3  4  1  0  0  0  0
  3 28  1  0  0  0  0
  3 29  1  0  0  0  0
  4 12  1  0  0  0  0
  4  5  2  0  0  0  0
  5  6  1  0  0  0  0
  6 11  2  0  0  0  0
  6  7  1  0  0  0  0
  7  8  2  0  0  0  0
  7 30  1  0  0  0  0
  8  9  1  0  0  0  0
  8 31  1  0  0  0  0
  9 10  2  0  0  0  0
  9 32  1  0  0  0  0
 10 11  1  0  0  0  0
 10 33  1  0  0  0  0
 11 12  1  0  0  0  0
 12 13  1  0  0  0  0
 13 14  1  0  0  0  0
 13 34  1  0  0  0  0
 13 35  1  0  0  0  0
 14 15  1  0  0  0  0
 14 16  1  0  0  0  0
 14 36  1  0  0  0  0
 15 37  1  0  0  0  0
 16 17  1  0  0  0  0
 16 38  1  0  0  0  0
 16 39  1  0  0  0  0
 17 18  1  0  0  0  0
 18 24  1  0  0  0  0
 18 19  2  0  0  0  0
 19 20  1  0  0  0  0
 19 40  1  0  0  0  0
 20 21  2  0  0  0  0
 20 41  1  0  0  0  0
 21 22  1  0  0  0  0
 21 23  1  0  0  0  0
 22 42  1  0  0  0  0
 22 43  1  0  0  0  0
 22 44  1  0  0  0  0
 23 24  2  0  0  0  0
 23 45  1  0  0  0  0
 24 46  1  0  0  0  0
M  END
> <s_m_source_file>
AV-unprocessed.smi

> <i_m_source_file_index>
869

> <i_lp_mmshare_version>
43012

> <i_f3d_flags>
0

> <s_epik_input>
W2NIXTFbY0hdW2NIXVtjSF1jKGMxMiluKGMobjIpW0NIMl1PW0NIM10pW0NIMl1bQ0BIXShbT0hdKVtDSDJdT2MzW2NIXVtjSF1jKFtDSDNdKVtjSF1bY0hdMw==

> <s_epik_cmdline>
J2VwaWtfcHl0aG9uJywgJy1waCcsICc3LjAnLCAnLXRuJywgJzgnLCAnLW1hJywgJzIwMCcsICctbWV0YWxfYmluZGluZycsICctaW1hZScsICc8aW5maWxlLm1hZT4nLCAnLW9tYWUnLCAnPG91dGZpbGUubWFlPic=

> <r_lp_tautomer_probability>
1

> <r_epik_Ionization_Penalty>
0.0446698

> <r_epik_Ionization_Penalty_Charging>
0

> <r_epik_Ionization_Penalty_Neutral>
0.0446698

> <r_epik_State_Penalty>
0.0378721

> <r_epik_Charging_Adjusted_Penalty>
0.0378721

> <i_epik_Tot_Q>
0

> <i_epik_Tot_abs_Q>
0

> <r_epik_Metal_State_Penalty>
3.91074e-05

> <b_epik_Metal_Only>
0

> <s_lp_Force_Field>
OPLS_2005

> <r_lp_Energy>
18.5204

> <b_lp_Chiralities_Consistent>
1

> <s_lp_Variant>
AV-unprocessed.smi:869-2

> <Gold.Version>
5.8.1

> <Gold.Id.Protein>
6NUR|6NUR_protein|mol2

> <Gold.PLP.Fitness>
55.1911

> <Gold.PLP.PLP>
-51.9016

> <Gold.PLP.part.hbond>
-1.9590

> <Gold.PLP.part.metal>
0.0000

> <Gold.PLP.part.buried>
-7.4405

> <Gold.PLP.part.nonpolar>
-43.5210

> <Gold.PLP.part.repulsive>
0.0914

> <Gold.PLP.ligand.clash>
0.0000

> <Gold.PLP.ligand.torsion>
1.4218

> <Gold.PLP.Chemscore.Hbond>
2.0000

> <Gold.PLP.Chemscore.CHOScore>
0.0000

> <Gold.PLP.Chemscore.Metal>
0.0000

> <Gold.Chemscore.Hbonds>
donor molecule, donor type, donor heavy atom, donor atom, acceptor molecule, acceptor atom, score
      L1  H    15    37       P1  8028  1.00
      P1  H  7997  8008       L1     2  1.00

> <Gold.PLP.Chemscore.Internal.Correction>
0.1332

> <Gold.Rescore>
     Score         DG    S(hbond)    S(metal)    S(lipo)     H(rot)  DE(clash)    DE(int)     intcor
     19.47     -21.07       1.76        0.00     134.60       2.36       0.07       1.53       ----

> <Gold.Chemscore.Fitness>
19.4654

> <Gold.Chemscore.DG>
-21.0711

> <Gold.Chemscore.ZeroCoef>
-5.4800

> <Gold.Chemscore.Hbond>
1.7607

> <Gold.Chemscore.Metal>
0.0000

> <Gold.Chemscore.Lipo>
134.5988

> <Gold.Chemscore.Internal_Hbond>
0.0000

> <Gold.Chemscore.DEClash>
0.0720

> <Gold.Chemscore.DEInternal>
1.5338

> <Gold.Chemscore.Rot>
2.3585

> <Gold.Chemscore.Internal.Correction>
   9.000000E+99

> <Gold.Chemscore.Hbonds>
donor molecule, donor type, donor heavy atom, donor atom, acceptor molecule, acceptor atom, score
      L1  H    15    37       P1  8028  0.81
      P1  H  7997  8008       L1     2  0.67

> <Gold.Chemscore.Hbond.Weighted>
-5.8809

> <Gold.Chemscore.Metal.Weighted>
-0.0000

> <Gold.Chemscore.Lipo.Weighted>
-15.7481

> <Gold.Chemscore.Internal_Hbond.Weighted>
0.0000

> <Gold.Chemscore.DEClash.Weighted>
0.0720

> <Gold.Chemscore.DEInternal.Weighted>
1.5338

> <Gold.Chemscore.Rot.Weighted>
6.0378

> <Gold.Chemscore.Internal.Correction.Weighted>
   9.000000E+99

> <Gold.Protein.RotatedTorsions>
[ 6907 6896 6895 6894 ] final -139.92 input  -60.11 | X-H torsion
[ 7974 7965 7964 7962 ] final  117.90 input  175.53 | X-H torsion
[ 8008 7997 7996 7995 ] final  -30.94 input   59.86 | X-H torsion
[ 10167 10162 10161 10158 ] final -110.46 input  -65.29 | X-H torsion
[ 10718 10713 10712 10709 ] final  -54.96 input   66.30 | X-H torsion
[ 10763 10752 10751 10750 ] final  -41.91 input  -60.55 | X-H torsion
[ 11005 11000 10999 10996 ] final  154.66 input  -57.11 | X-H torsion

> <Gold.Protein.ActiveResidues>
 VAL166  LYS551  ARG553  GLY616  TRP617  ASP618  TYR619  PRO620  LYS621  CYS622 
 ASP623  PHE694  ASN695  SER759  ASP760  ASP761  ALA762  ILE779  LEU786  VAL792 
 PHE793  MET794  SER795  GLU796  ALA797  LYS798  CYS799  TRP800  GLU811  SER814 

> <Gold.Protein.RotatedAtoms>
  151.0540  133.5600  159.2639 H   0  0  0  0  0  0  0  0  0  0  0  0  # atno 6907 bound_to 6896
  151.2600  135.0650  159.9104 H   0  0  0  0  0  0  0  0  0  0  0  0  # atno 6908 bound_to 6896
  152.5387  134.0287  159.8069 H   0  0  0  0  0  0  0  0  0  0  0  0  # atno 6909 bound_to 6896
  145.1617  139.3151  143.4513 H   0  0  0  0  0  0  0  0  0  0  0  0  # atno 7974 bound_to 7965
  154.4232  140.1778  156.1487 H   0  0  0  0  0  0  0  0  0  0  0  0  # atno 8008 bound_to 7997
  155.9933  140.3367  155.6749 H   0  0  0  0  0  0  0  0  0  0  0  0  # atno 8009 bound_to 7997
  155.6343  140.0673  157.2629 H   0  0  0  0  0  0  0  0  0  0  0  0  # atno 8010 bound_to 7997
  140.1442  143.4253  152.1541 H   0  0  0  0  0  0  0  0  0  0  0  0  # atno 10167 bound_to 10162
  156.1408  130.4154  150.0107 H   0  0  0  0  0  0  0  0  0  0  0  0  # atno 10718 bound_to 10713
  153.9703  135.6729  153.4747 H   0  0  0  0  0  0  0  0  0  0  0  0  # atno 10763 bound_to 10752
  153.0796  135.4930  154.8472 H   0  0  0  0  0  0  0  0  0  0  0  0  # atno 10764 bound_to 10752
  154.7223  135.3119  154.8989 H   0  0  0  0  0  0  0  0  0  0  0  0  # atno 10765 bound_to 10752
  140.1509  134.8675  157.2454 H   0  0  0  0  0  0  0  0  0  0  0  0  # atno 11005 bound_to 11000
  146.3481  140.1730  142.8589 LP  0  0  0  0  0  0  0  0  0  0  0  0  # atno 17320 bound_to 7965
  145.0324  140.8881  143.5102 LP  0  0  0  0  0  0  0  0  0  0  0  0  # atno 17321 bound_to 7965
  139.5457  144.7296  151.4591 LP  0  0  0  0  0  0  0  0  0  0  0  0  # atno 17342 bound_to 10162
  140.6742  143.8227  150.7037 LP  0  0  0  0  0  0  0  0  0  0  0  0  # atno 17343 bound_to 10162
  156.7993  130.9285  151.3646 LP  0  0  0  0  0  0  0  0  0  0  0  0  # atno 17370 bound_to 10713
  157.6573  130.8936  149.9756 LP  0  0  0  0  0  0  0  0  0  0  0  0  # atno 17371 bound_to 10713
  140.2605  134.3576  155.7408 LP  0  0  0  0  0  0  0  0  0  0  0  0  # atno 17394 bound_to 11000
  141.2199  133.7367  156.9073 LP  0  0  0  0  0  0  0  0  0  0  0  0  # atno 17395 bound_to 11000

$$$$
