AV-unprocessed.smi:261|AV-procd|sdf|1983|dock7
  -GOLD-   2262021163D 1   1.00000     0.00000
 Structure written by MMmdl.
 51 54  0  0  0  0  0  0  0  0  1 V2000
  152.1318  144.5633  158.8246 C   0  0  0  0  0  0  0  0  0  0  0  0
  151.7396  144.0300  157.5707 O   0  0  0  0  0  0  0  0  0  0  0  0
  151.0621  142.7866  157.6738 C   0  0  1  0  0  0  0  0  0  0  0  0
  150.3497  142.4491  156.3701 C   0  0  0  0  0  0  0  0  0  0  0  0
  150.1676  140.9276  156.4588 C   0  0  1  0  0  0  0  0  0  0  0  0
  150.0501  140.2797  155.0720 C   0  0  0  0  0  0  0  0  0  0  0  0
  149.9671  138.9480  155.0360 N   0  0  0  0  0  0  0  0  0  0  0  0
  150.0188  140.9643  154.0506 O   0  0  0  0  0  0  0  0  0  0  0  0
  151.3528  140.4624  157.1850 N   0  0  0  0  0  0  0  0  0  0  0  0
  151.1615  139.3626  157.9466 C   0  0  0  0  0  0  0  0  0  0  0  0
  152.2457  138.8430  158.5716 N   0  0  0  0  0  0  0  0  0  0  0  0
  152.1188  137.7482  159.3279 C   0  0  0  0  0  0  0  0  0  0  0  0
  151.0217  137.0308  159.5823 N   0  0  0  0  0  0  0  0  0  0  0  0
  149.9305  137.5521  158.9512 C   0  0  0  0  0  0  0  0  0  0  0  0
  149.9100  138.7084  158.1226 C   0  0  0  0  0  0  0  0  0  0  0  0
  148.6214  138.9354  157.6536 N   0  0  0  0  0  0  0  0  0  0  0  0
  147.9195  137.9664  158.1746 C   0  0  0  0  0  0  0  0  0  0  0  0
  148.6263  137.0905  158.9671 N   0  0  0  0  0  0  0  0  0  0  0  0
  148.0963  135.9275  159.6580 C   0  0  0  0  0  0  0  0  0  0  0  0
  146.9870  136.2931  160.6672 C   0  0  2  0  0  0  0  0  0  0  0  0
  147.5480  137.1486  161.6443 O   0  0  0  0  0  0  0  0  0  0  0  0
  146.4023  135.0653  161.3946 C   0  0  2  0  0  0  0  0  0  0  0  0
  147.4418  134.1360  162.0260 C   0  0  0  0  0  0  0  0  0  0  0  0
  146.7312  132.7943  162.0949 C   0  0  0  0  0  0  0  0  0  0  0  0
  145.5702  132.9437  161.1092 C   0  0  0  0  0  0  0  0  0  0  0  0
  145.7946  134.1868  160.4586 O   0  0  0  0  0  0  0  0  0  0  0  0
  152.0018  141.5896  157.8481 C   0  0  0  0  0  0  0  0  0  0  0  0
  150.3265  142.8104  158.4804 H   0  0  0  0  0  0  0  0  0  0  0  0
  149.2651  140.7131  157.0355 H   0  0  0  0  0  0  0  0  0  0  0  0
  152.6180  145.5268  158.6736 H   0  0  0  0  0  0  0  0  0  0  0  0
  152.8392  143.9091  159.3352 H   0  0  0  0  0  0  0  0  0  0  0  0
  151.2692  144.7206  159.4734 H   0  0  0  0  0  0  0  0  0  0  0  0
  149.4036  142.9810  156.2638 H   0  0  0  0  0  0  0  0  0  0  0  0
  150.9832  142.7181  155.5225 H   0  0  0  0  0  0  0  0  0  0  0  0
  149.8886  138.4706  154.1498 H   0  0  0  0  0  0  0  0  0  0  0  0
  149.9838  138.4229  155.8981 H   0  0  0  0  0  0  0  0  0  0  0  0
  153.0266  137.3956  159.7946 H   0  0  0  0  0  0  0  0  0  0  0  0
  146.8592  137.8623  157.9942 H   0  0  0  0  0  0  0  0  0  0  0  0
  147.7173  135.2407  158.9011 H   0  0  0  0  0  0  0  0  0  0  0  0
  148.9147  135.4115  160.1620 H   0  0  0  0  0  0  0  0  0  0  0  0
  146.1893  136.8264  160.1483 H   0  0  0  0  0  0  0  0  0  0  0  0
  147.0021  137.1225  162.4151 H   0  0  0  0  0  0  0  0  0  0  0  0
  145.6724  135.3659  162.1495 H   0  0  0  0  0  0  0  0  0  0  0  0
  148.3138  134.0511  161.3757 H   0  0  0  0  0  0  0  0  0  0  0  0
  147.7816  134.4828  163.0026 H   0  0  0  0  0  0  0  0  0  0  0  0
  147.4015  131.9801  161.8171 H   0  0  0  0  0  0  0  0  0  0  0  0
  146.3560  132.5953  163.0994 H   0  0  0  0  0  0  0  0  0  0  0  0
  145.5257  132.1279  160.3875 H   0  0  0  0  0  0  0  0  0  0  0  0
  144.6178  132.9818  161.6401 H   0  0  0  0  0  0  0  0  0  0  0  0
  152.9452  141.7710  157.3318 H   0  0  0  0  0  0  0  0  0  0  0  0
  152.2372  141.4097  158.8984 H   0  0  0  0  0  0  0  0  0  0  0  0
  1  2  1  0  0  0  0
  1 30  1  0  0  0  0
  1 31  1  0  0  0  0
  1 32  1  0  0  0  0
  2  3  1  0  0  0  0
  3 28  1  0  0  0  0
  3 27  1  0  0  0  0
  3  4  1  0  0  0  0
  4  5  1  0  0  0  0
  4 33  1  0  0  0  0
  4 34  1  0  0  0  0
  5 29  1  0  0  0  0
  5  6  1  0  0  0  0
  5  9  1  0  0  0  0
  6  7  1  0  0  0  0
  6  8  2  0  0  0  0
  7 35  1  0  0  0  0
  7 36  1  0  0  0  0
  9 10  1  0  0  0  0
  9 27  1  0  0  0  0
 10 15  1  0  0  0  0
 10 11  2  0  0  0  0
 11 12  1  0  0  0  0
 12 13  2  0  0  0  0
 12 37  1  0  0  0  0
 13 14  1  0  0  0  0
 14 18  1  0  0  0  0
 14 15  2  0  0  0  0
 15 16  1  0  0  0  0
 16 17  2  0  0  0  0
 17 18  1  0  0  0  0
 17 38  1  0  0  0  0
 18 19  1  0  0  0  0
 19 20  1  0  0  0  0
 19 39  1  0  0  0  0
 19 40  1  0  0  0  0
 20 21  1  0  0  0  0
 20 22  1  0  0  0  0
 20 41  1  0  0  0  0
 21 42  1  0  0  0  0
 22 26  1  0  0  0  0
 22 23  1  0  0  0  0
 22 43  1  0  0  0  0
 23 24  1  0  0  0  0
 23 44  1  0  0  0  0
 23 45  1  0  0  0  0
 24 25  1  0  0  0  0
 24 46  1  0  0  0  0
 24 47  1  0  0  0  0
 25 26  1  0  0  0  0
 25 48  1  0  0  0  0
 25 49  1  0  0  0  0
 27 50  1  0  0  0  0
 27 51  1  0  0  0  0
M  END
> <s_m_source_file>
AV-unprocessed.smi

> <i_m_source_file_index>
261

> <i_lp_mmshare_version>
43012

> <i_f3d_flags>
0

> <s_epik_input>
W0NIM11PW0NASF0xW0NIMl1bQ0BASF0oQyg9TylbTkgyXSlOKFtDSDJdMSljKG5bY0hdbjIpYyhjMjMpbltjSF1uM1tDSDJdW0NASF0oW09IXSlbQ0BASF00W0NIMl1bQ0gyXVtDSDJdTzQ=

> <s_epik_cmdline>
J2VwaWtfcHl0aG9uJywgJy1waCcsICc3LjAnLCAnLXRuJywgJzgnLCAnLW1hJywgJzIwMCcsICctbWV0YWxfYmluZGluZycsICctaW1hZScsICc8aW5maWxlLm1hZT4nLCAnLW9tYWUnLCAnPG91dGZpbGUubWFlPic=

> <r_lp_tautomer_probability>
1

> <r_epik_Ionization_Penalty>
0.000713824

> <r_epik_Ionization_Penalty_Charging>
0

> <r_epik_Ionization_Penalty_Neutral>
0.000713824

> <r_epik_State_Penalty>
0.000402132

> <r_epik_Charging_Adjusted_Penalty>
0.000402132

> <i_epik_Tot_Q>
0

> <i_epik_Tot_abs_Q>
0

> <r_epik_Metal_State_Penalty>
-0

> <b_epik_Metal_Only>
0

> <s_lp_Force_Field>
OPLS_2005

> <r_lp_Energy>
45.6621

> <b_lp_Chiralities_Consistent>
1

> <s_lp_Variant>
AV-unprocessed.smi:261-1

> <Gold.Version>
5.8.1

> <Gold.Id.Protein>
6NUR|6NUR_protein|mol2

> <Gold.PLP.Fitness>
48.0765

> <Gold.PLP.PLP>
-38.1450

> <Gold.PLP.part.hbond>
-4.0836

> <Gold.PLP.part.metal>
0.0000

> <Gold.PLP.part.buried>
-3.5755

> <Gold.PLP.part.nonpolar>
-30.5419

> <Gold.PLP.part.repulsive>
0.6487

> <Gold.PLP.ligand.clash>
0.0000

> <Gold.PLP.ligand.torsion>
0.2707

> <Gold.PLP.Chemscore.Hbond>
3.4302

> <Gold.PLP.Chemscore.CHOScore>
0.0000

> <Gold.PLP.Chemscore.Metal>
0.0000

> <Gold.Chemscore.Hbonds>
donor molecule, donor type, donor heavy atom, donor atom, acceptor molecule, acceptor atom, score
      P1  H  6896  6907       L1    13  1.00
      P1  H  6931  6943       L1    21  0.99
      P1  H  6934  6947       L1    21  0.79
      P1  H  7989  7998       L1     8  0.51
      P1  H  8011  8017       L1     8  0.35

> <Gold.PLP.Chemscore.Internal.Correction>
0.1825

> <Gold.Rescore>
     Score         DG    S(hbond)    S(metal)    S(lipo)     H(rot)  DE(clash)    DE(int)     intcor
     12.36     -14.77       2.56        0.00      84.48       3.57       0.53       1.88       ----

> <Gold.Chemscore.Fitness>
12.3592

> <Gold.Chemscore.DG>
-14.7731

> <Gold.Chemscore.ZeroCoef>
-5.4800

> <Gold.Chemscore.Hbond>
2.5626

> <Gold.Chemscore.Metal>
0.0000

> <Gold.Chemscore.Lipo>
84.4753

> <Gold.Chemscore.Internal_Hbond>
0.0000

> <Gold.Chemscore.DEClash>
0.5312

> <Gold.Chemscore.DEInternal>
1.8827

> <Gold.Chemscore.Rot>
3.5740

> <Gold.Chemscore.Internal.Correction>
   9.000000E+99

> <Gold.Chemscore.Hbonds>
donor molecule, donor type, donor heavy atom, donor atom, acceptor molecule, acceptor atom, score
      P1  H  6896  6907       L1    13  0.92
      P1  H  6931  6943       L1    21  0.73
      P1  H  6934  6947       L1    21  0.13
      P1  H  7989  7998       L1     8  0.22
      P1  H  8011  8017       L1     8  0.35

> <Gold.Chemscore.Hbond.Weighted>
-8.5589

> <Gold.Chemscore.Metal.Weighted>
-0.0000

> <Gold.Chemscore.Lipo.Weighted>
-9.8836

> <Gold.Chemscore.Internal_Hbond.Weighted>
0.0000

> <Gold.Chemscore.DEClash.Weighted>
0.5312

> <Gold.Chemscore.DEInternal.Weighted>
1.8827

> <Gold.Chemscore.Rot.Weighted>
9.1495

> <Gold.Chemscore.Internal.Correction.Weighted>
   9.000000E+99

> <Gold.Protein.RotatedTorsions>
[ 6907 6896 6895 6894 ] final  -29.14 input  -60.11 | X-H torsion
[ 7974 7965 7964 7962 ] final   50.97 input  175.53 | X-H torsion
[ 8008 7997 7996 7995 ] final    3.10 input   59.86 | X-H torsion
[ 10167 10162 10161 10158 ] final   31.70 input  -65.29 | X-H torsion
[ 10718 10713 10712 10709 ] final  127.83 input   66.30 | X-H torsion
[ 10763 10752 10751 10750 ] final  -81.19 input  -60.55 | X-H torsion
[ 11005 11000 10999 10996 ] final  -87.85 input  -57.11 | X-H torsion

> <Gold.Protein.ActiveResidues>
 VAL166  LYS551  ARG553  GLY616  TRP617  ASP618  TYR619  PRO620  LYS621  CYS622 
 ASP623  PHE694  ASN695  SER759  ASP760  ASP761  ALA762  ILE779  LEU786  VAL792 
 PHE793  MET794  SER795  GLU796  ALA797  LYS798  CYS799  TRP800  GLU811  SER814 

> <Gold.Protein.RotatedAtoms>
  151.1233  135.0091  159.8548 H   0  0  0  0  0  0  0  0  0  0  0  0  # atno 6907 bound_to 6896
  152.5448  134.1696  159.8601 H   0  0  0  0  0  0  0  0  0  0  0  0  # atno 6908 bound_to 6896
  151.1756  133.4712  159.2627 H   0  0  0  0  0  0  0  0  0  0  0  0  # atno 6909 bound_to 6896
  145.9960  139.4388  143.0044 H   0  0  0  0  0  0  0  0  0  0  0  0  # atno 7974 bound_to 7965
  154.6995  140.2670  155.6733 H   0  0  0  0  0  0  0  0  0  0  0  0  # atno 8008 bound_to 7997
  156.2760  140.2775  156.1525 H   0  0  0  0  0  0  0  0  0  0  0  0  # atno 8009 bound_to 7997
  155.0784  140.0372  157.2621 H   0  0  0  0  0  0  0  0  0  0  0  0  # atno 8010 bound_to 7997
  140.4565  144.0971  150.6203 H   0  0  0  0  0  0  0  0  0  0  0  0  # atno 10167 bound_to 10162
  157.5298  131.1098  150.9026 H   0  0  0  0  0  0  0  0  0  0  0  0  # atno 10718 bound_to 10713
  154.5605  135.5635  153.7003 H   0  0  0  0  0  0  0  0  0  0  0  0  # atno 10763 bound_to 10752
  153.0016  135.6273  154.2251 H   0  0  0  0  0  0  0  0  0  0  0  0  # atno 10764 bound_to 10752
  154.2188  135.2870  155.2912 H   0  0  0  0  0  0  0  0  0  0  0  0  # atno 10765 bound_to 10752
  141.1611  133.7535  156.9366 H   0  0  0  0  0  0  0  0  0  0  0  0  # atno 11005 bound_to 11000
  145.7559  140.9954  143.1225 LP  0  0  0  0  0  0  0  0  0  0  0  0  # atno 17320 bound_to 7965
  144.6904  139.9271  143.7470 LP  0  0  0  0  0  0  0  0  0  0  0  0  # atno 17321 bound_to 7965
  140.4145  143.2641  151.9792 LP  0  0  0  0  0  0  0  0  0  0  0  0  # atno 17342 bound_to 10162
  139.4801  144.5886  151.7811 LP  0  0  0  0  0  0  0  0  0  0  0  0  # atno 17343 bound_to 10162
  156.9611  130.5455  149.5286 LP  0  0  0  0  0  0  0  0  0  0  0  0  # atno 17370 bound_to 10713
  156.0414  130.5496  150.8779 LP  0  0  0  0  0  0  0  0  0  0  0  0  # atno 17371 bound_to 10713
  140.1350  134.9331  157.2389 LP  0  0  0  0  0  0  0  0  0  0  0  0  # atno 17394 bound_to 11000
  140.2906  134.3244  155.7316 LP  0  0  0  0  0  0  0  0  0  0  0  0  # atno 17395 bound_to 11000

$$$$
