AV-unprocessed.smi:138|AV-procd|sdf|1179|dock5
  -GOLD-   2262018333D 1   1.00000     0.00000
 Structure written by MMmdl.
 52 55  0  0  0  0  0  0  0  0  1 V2000
  150.6768  142.0248  156.9966 C   0  0  0  0  0  0  0  0  0  0  0  0
  150.6435  140.6480  157.5798 C   0  0  0  0  0  0  0  0  0  0  0  0
  149.6346  139.7308  157.5750 C   0  0  0  0  0  0  0  0  0  0  0  0
  150.0812  138.5618  158.2514 C   0  0  0  0  0  0  0  0  0  0  0  0
  149.3488  137.2904  158.4799 C   0  0  0  0  0  0  0  0  0  0  0  0
  148.6926  136.7238  157.6042 O   0  0  0  0  0  0  0  0  0  0  0  0
  149.4486  136.7049  159.9011 C   0  0  0  0  0  0  0  0  0  0  0  0
  148.3924  135.7446  160.1972 N   0  0  0  0  0  0  0  0  0  0  0  0
  148.3758  134.5311  159.4649 C   0  0  0  0  0  0  0  0  0  0  0  0
  149.2144  134.2771  158.5984 O   0  0  0  0  0  0  0  0  0  0  0  0
  147.3006  133.6162  159.8327 C   0  0  0  0  0  0  0  0  0  0  0  0
  147.1828  132.4391  159.1952 F   0  0  0  0  0  0  0  0  0  0  0  0
  146.4189  133.9300  160.8063 C   0  0  0  0  0  0  0  0  0  0  0  0
  146.4683  135.1188  161.5159 N   0  0  0  0  0  0  0  0  0  0  0  0
  145.4801  135.4389  162.6156 C   0  0  2  0  0  0  0  0  0  0  0  0
  144.5033  134.2674  162.8197 C   0  0  0  0  0  0  0  0  0  0  0  0
  143.1545  134.9574  162.8149 C   0  0  0  0  0  0  0  0  0  0  0  0
  143.4104  136.1376  161.8898 C   0  0  0  0  0  0  0  0  0  0  0  0
  144.7178  136.5574  162.2599 O   0  0  0  0  0  0  0  0  0  0  0  0
  147.4732  136.0665  161.2244 C   0  0  0  0  0  0  0  0  0  0  0  0
  147.5453  137.1234  161.8564 O   0  0  0  0  0  0  0  0  0  0  0  0
  151.3679  138.8004  158.6768 C   0  0  0  0  0  0  0  0  0  0  0  0
  152.3156  137.9267  159.4521 C   0  0  0  0  0  0  0  0  0  0  0  0
  151.7233  140.0816  158.2480 N   0  0  0  0  0  0  0  0  0  0  0  0
  153.0111  140.7346  158.4639 C   0  0  0  0  0  0  0  0  0  0  0  0
  153.0775  141.4614  159.7681 C   0  0  0  0  0  0  0  0  0  0  0  0
  153.8374  141.3057  160.8946 C   0  0  0  0  0  0  0  0  0  0  0  0
  153.4282  142.3236  161.7995 C   0  0  0  0  0  0  0  0  0  0  0  0
  152.4492  143.0263  161.1572 C   0  0  0  0  0  0  0  0  0  0  0  0
  152.2244  142.5144  159.9168 O   0  0  0  0  0  0  0  0  0  0  0  0
  149.6983  142.3033  156.6049 H   0  0  0  0  0  0  0  0  0  0  0  0
  151.3909  142.0831  156.1752 H   0  0  0  0  0  0  0  0  0  0  0  0
  150.9552  142.7647  157.7468 H   0  0  0  0  0  0  0  0  0  0  0  0
  148.6679  139.8864  157.1191 H   0  0  0  0  0  0  0  0  0  0  0  0
  150.4090  136.2100  160.0527 H   0  0  0  0  0  0  0  0  0  0  0  0
  149.4074  137.4937  160.6535 H   0  0  0  0  0  0  0  0  0  0  0  0
  145.6493  133.2068  161.0267 H   0  0  0  0  0  0  0  0  0  0  0  0
  146.0780  135.6815  163.4959 H   0  0  0  0  0  0  0  0  0  0  0  0
  144.5742  133.5678  161.9850 H   0  0  0  0  0  0  0  0  0  0  0  0
  144.7158  133.7362  163.7478 H   0  0  0  0  0  0  0  0  0  0  0  0
  142.3449  134.3129  162.4713 H   0  0  0  0  0  0  0  0  0  0  0  0
  142.9103  135.3129  163.8167 H   0  0  0  0  0  0  0  0  0  0  0  0
  143.3982  135.8210  160.8461 H   0  0  0  0  0  0  0  0  0  0  0  0
  142.6818  136.9387  162.0157 H   0  0  0  0  0  0  0  0  0  0  0  0
  151.8226  137.5090  160.3298 H   0  0  0  0  0  0  0  0  0  0  0  0
  153.1920  138.4584  159.8154 H   0  0  0  0  0  0  0  0  0  0  0  0
  152.6620  137.0972  158.8356 H   0  0  0  0  0  0  0  0  0  0  0  0
  153.8028  139.9881  158.4027 H   0  0  0  0  0  0  0  0  0  0  0  0
  153.2113  141.4279  157.6476 H   0  0  0  0  0  0  0  0  0  0  0  0
  154.5938  140.5507  161.0487 H   0  0  0  0  0  0  0  0  0  0  0  0
  153.8024  142.5171  162.7940 H   0  0  0  0  0  0  0  0  0  0  0  0
  151.8382  143.8762  161.4231 H   0  0  0  0  0  0  0  0  0  0  0  0
  1  2  1  0  0  0  0
  1 31  1  0  0  0  0
  1 32  1  0  0  0  0
  1 33  1  0  0  0  0
  2 24  1  0  0  0  0
  2  3  2  0  0  0  0
  3  4  1  0  0  0  0
  3 34  1  0  0  0  0
  4  5  1  0  0  0  0
  4 22  2  0  0  0  0
  5  6  2  0  0  0  0
  5  7  1  0  0  0  0
  7  8  1  0  0  0  0
  7 35  1  0  0  0  0
  7 36  1  0  0  0  0
  8 20  1  0  0  0  0
  8  9  1  0  0  0  0
  9 10  2  0  0  0  0
  9 11  1  0  0  0  0
 11 12  1  0  0  0  0
 11 13  2  0  0  0  0
 13 14  1  0  0  0  0
 13 37  1  0  0  0  0
 14 15  1  0  0  0  0
 14 20  1  0  0  0  0
 15 19  1  0  0  0  0
 15 16  1  0  0  0  0
 15 38  1  0  0  0  0
 16 17  1  0  0  0  0
 16 39  1  0  0  0  0
 16 40  1  0  0  0  0
 17 18  1  0  0  0  0
 17 41  1  0  0  0  0
 17 42  1  0  0  0  0
 18 19  1  0  0  0  0
 18 43  1  0  0  0  0
 18 44  1  0  0  0  0
 20 21  2  0  0  0  0
 22 23  1  0  0  0  0
 22 24  1  0  0  0  0
 23 45  1  0  0  0  0
 23 46  1  0  0  0  0
 23 47  1  0  0  0  0
 24 25  1  0  0  0  0
 25 26  1  0  0  0  0
 25 48  1  0  0  0  0
 25 49  1  0  0  0  0
 26 30  1  0  0  0  0
 26 27  2  0  0  0  0
 27 28  1  0  0  0  0
 27 50  1  0  0  0  0
 28 29  2  0  0  0  0
 28 51  1  0  0  0  0
 29 30  1  0  0  0  0
 29 52  1  0  0  0  0
M  END
> <s_m_source_file>
AV-unprocessed.smi

> <i_m_source_file_index>
138

> <i_lp_mmshare_version>
43012

> <i_f3d_flags>
0

> <s_epik_input>
bzFbY0hdW2NIXVtjSF1jMVtDSDJdbjJjKFtDSDNdKWMoW2NIXWMyW0NIM10pQyg9TylbQ0gyXW4zYyg9TyljKEYpW2NIXW4oYzM9TylbQ0BASF00W0NIMl1bQ0gyXVtDSDJdTzQ=

> <s_epik_cmdline>
J2VwaWtfcHl0aG9uJywgJy1waCcsICc3LjAnLCAnLXRuJywgJzgnLCAnLW1hJywgJzIwMCcsICctbWV0YWxfYmluZGluZycsICctaW1hZScsICc8aW5maWxlLm1hZT4nLCAnLW9tYWUnLCAnPG91dGZpbGUubWFlPic=

> <r_lp_tautomer_probability>
1

> <r_epik_Ionization_Penalty>
5.03107e-09

> <r_epik_Ionization_Penalty_Charging>
5.01743e-09

> <r_epik_Ionization_Penalty_Neutral>
1.36377e-11

> <r_epik_State_Penalty>
-0

> <r_epik_Charging_Adjusted_Penalty>
5.01743e-09

> <i_epik_Tot_Q>
0

> <i_epik_Tot_abs_Q>
0

> <r_epik_Metal_State_Penalty>
-0

> <b_epik_Metal_Only>
0

> <s_epik_Chemistry_Notes>
This compound contains an acetal/aminal-like group ( X-CH(R)-Y where X, Y are N, S, or O) that may be acid/base labile, releasing an aldehyde.

> <s_lp_Force_Field>
OPLS_2005

> <r_lp_Energy>
38.6842

> <b_lp_Chiralities_Consistent>
1

> <s_lp_Variant>
AV-unprocessed.smi:138-1

> <Gold.Version>
5.8.1

> <Gold.Id.Protein>
6NUR|6NUR_protein|mol2

> <Gold.PLP.Fitness>
57.2720

> <Gold.PLP.PLP>
-52.4921

> <Gold.PLP.part.hbond>
-3.0000

> <Gold.PLP.part.metal>
0.0000

> <Gold.PLP.part.buried>
-6.4300

> <Gold.PLP.part.nonpolar>
-42.1106

> <Gold.PLP.part.repulsive>
0.0354

> <Gold.PLP.ligand.clash>
0.0000

> <Gold.PLP.ligand.torsion>
1.4400

> <Gold.PLP.Chemscore.Hbond>
2.5364

> <Gold.PLP.Chemscore.CHOScore>
0.0000

> <Gold.PLP.Chemscore.Metal>
0.0000

> <Gold.Chemscore.Hbonds>
donor molecule, donor type, donor heavy atom, donor atom, acceptor molecule, acceptor atom, score
      P1  H  6896  6908       L1    10  1.00
      P1  H  6931  6943       L1    21  0.99
      P1  H  6934  6947       L1    21  0.55

> <Gold.PLP.Chemscore.Internal.Correction>
0.0507

> <Gold.Rescore>
     Score         DG    S(hbond)    S(metal)    S(lipo)     H(rot)  DE(clash)    DE(int)     intcor
     17.10     -21.57       2.51        0.00     109.49       2.00       0.17       4.30       ----

> <Gold.Chemscore.Fitness>
17.0956

> <Gold.Chemscore.DG>
-21.5651

> <Gold.Chemscore.ZeroCoef>
-5.4800

> <Gold.Chemscore.Hbond>
2.5103

> <Gold.Chemscore.Metal>
0.0000

> <Gold.Chemscore.Lipo>
109.4863

> <Gold.Chemscore.Internal_Hbond>
0.0000

> <Gold.Chemscore.DEClash>
0.1708

> <Gold.Chemscore.DEInternal>
4.2986

> <Gold.Chemscore.Rot>
1.9958

> <Gold.Chemscore.Internal.Correction>
   9.000000E+99

> <Gold.Chemscore.Hbonds>
donor molecule, donor type, donor heavy atom, donor atom, acceptor molecule, acceptor atom, score
      P1  H  6896  6908       L1    10  0.69
      P1  H  6931  6943       L1    21  0.94
      P1  H  6934  6947       L1    21  0.53

> <Gold.Chemscore.Hbond.Weighted>
-8.3844

> <Gold.Chemscore.Metal.Weighted>
-0.0000

> <Gold.Chemscore.Lipo.Weighted>
-12.8099

> <Gold.Chemscore.Internal_Hbond.Weighted>
0.0000

> <Gold.Chemscore.DEClash.Weighted>
0.1708

> <Gold.Chemscore.DEInternal.Weighted>
4.2986

> <Gold.Chemscore.Rot.Weighted>
5.1092

> <Gold.Chemscore.Internal.Correction.Weighted>
   9.000000E+99

> <Gold.Protein.RotatedTorsions>
[ 6907 6896 6895 6894 ] final  131.46 input  -60.11 | X-H torsion
[ 7974 7965 7964 7962 ] final   47.35 input  175.53 | X-H torsion
[ 8008 7997 7996 7995 ] final  -26.92 input   59.86 | X-H torsion
[ 10167 10162 10161 10158 ] final  101.59 input  -65.29 | X-H torsion
[ 10718 10713 10712 10709 ] final -142.50 input   66.30 | X-H torsion
[ 10763 10752 10751 10750 ] final -173.40 input  -60.55 | X-H torsion
[ 11005 11000 10999 10996 ] final   71.61 input  -57.11 | X-H torsion

> <Gold.Protein.ActiveResidues>
 VAL166  LYS551  ARG553  GLY616  TRP617  ASP618  TYR619  PRO620  LYS621  CYS622 
 ASP623  PHE694  ASN695  SER759  ASP760  ASP761  ALA762  ILE779  LEU786  VAL792 
 PHE793  MET794  SER795  GLU796  ALA797  LYS798  CYS799  TRP800  GLU811  SER814 

> <Gold.Protein.RotatedAtoms>
  152.3424  133.6082  159.5885 H   0  0  0  0  0  0  0  0  0  0  0  0  # atno 6907 bound_to 6896
  150.7486  133.9702  159.3552 H   0  0  0  0  0  0  0  0  0  0  0  0  # atno 6908 bound_to 6896
  151.7564  135.0821  160.0390 H   0  0  0  0  0  0  0  0  0  0  0  0  # atno 6909 bound_to 6896
  146.0305  139.4758  142.9840 H   0  0  0  0  0  0  0  0  0  0  0  0  # atno 7974 bound_to 7965
  154.4402  140.1886  156.0851 H   0  0  0  0  0  0  0  0  0  0  0  0  # atno 8008 bound_to 7997
  156.0409  140.3320  155.7216 H   0  0  0  0  0  0  0  0  0  0  0  0  # atno 8009 bound_to 7997
  155.5701  140.0612  157.2799 H   0  0  0  0  0  0  0  0  0  0  0  0  # atno 8010 bound_to 7997
  139.7425  144.7007  151.0554 H   0  0  0  0  0  0  0  0  0  0  0  0  # atno 10167 bound_to 10162
  156.3467  130.7666  151.1812 H   0  0  0  0  0  0  0  0  0  0  0  0  # atno 10718 bound_to 10713
  154.6083  135.2862  155.0460 H   0  0  0  0  0  0  0  0  0  0  0  0  # atno 10763 bound_to 10752
  154.1699  135.6474  153.5010 H   0  0  0  0  0  0  0  0  0  0  0  0  # atno 10764 bound_to 10752
  153.0184  135.5398  154.6827 H   0  0  0  0  0  0  0  0  0  0  0  0  # atno 10765 bound_to 10752
  139.9534  134.7186  156.0809 H   0  0  0  0  0  0  0  0  0  0  0  0  # atno 11005 bound_to 11000
  145.7047  141.0125  143.1485 LP  0  0  0  0  0  0  0  0  0  0  0  0  # atno 17320 bound_to 7965
  144.7028  139.8687  143.7439 LP  0  0  0  0  0  0  0  0  0  0  0  0  # atno 17321 bound_to 7965
  140.7788  143.4907  150.9897 LP  0  0  0  0  0  0  0  0  0  0  0  0  # atno 17342 bound_to 10162
  139.8595  143.7333  152.3174 LP  0  0  0  0  0  0  0  0  0  0  0  0  # atno 17343 bound_to 10162
  157.7455  131.0439  150.4768 LP  0  0  0  0  0  0  0  0  0  0  0  0  # atno 17370 bound_to 10713
  156.4956  130.4105  149.6382 LP  0  0  0  0  0  0  0  0  0  0  0  0  # atno 17371 bound_to 10713
  141.1201  133.6615  156.3194 LP  0  0  0  0  0  0  0  0  0  0  0  0  # atno 17394 bound_to 11000
  140.5665  134.5882  157.5447 LP  0  0  0  0  0  0  0  0  0  0  0  0  # atno 17395 bound_to 11000

$$$$
