AV-unprocessed.smi:7|AV-procd|sdf|43|dock9
  -GOLD-   2262015163D 1   1.00000     0.00000
 Structure written by MMmdl.
 45 48  0  0  0  0  0  0  0  0  1 V2000
  148.6509  141.0792  153.5434 O   0  0  0  0  0  0  0  0  0  0  0  0
  148.8931  141.5823  154.6410 C   0  0  0  0  0  0  0  0  0  0  0  0
  150.0606  141.1782  155.4591 C   0  0  0  0  0  0  0  0  0  0  0  0
  151.0490  140.2239  155.2200 N   0  0  0  0  0  0  0  0  0  0  0  0
  151.8170  140.3152  156.3053 C   0  0  0  0  0  0  0  0  0  0  0  0
  151.3961  141.2353  157.1932 N   0  0  0  0  0  0  0  0  0  0  0  0
  152.1139  141.4649  158.3892 C   0  0  0  0  0  0  0  0  0  0  0  0
  152.7281  140.3956  159.0790 C   0  0  0  0  0  0  0  0  0  0  0  0
  153.4353  140.6377  160.2731 C   0  0  0  0  0  0  0  0  0  0  0  0
  153.5319  141.9471  160.7827 C   0  0  0  0  0  0  0  0  0  0  0  0
  152.9195  143.0151  160.0990 C   0  0  0  0  0  0  0  0  0  0  0  0
  152.2108  142.7749  158.9058 C   0  0  0  0  0  0  0  0  0  0  0  0
  150.2523  141.8094  156.6575 C   0  0  0  0  0  0  0  0  0  0  0  0
  149.4906  142.7964  157.2397 N   0  0  0  0  0  0  0  0  0  0  0  0
  148.4651  143.1259  156.4980 C   0  0  0  0  0  0  0  0  0  0  0  0
  148.1352  142.5544  155.2321 N   0  0  0  0  0  0  0  0  0  0  0  0
  146.9284  143.0768  154.5720 C   0  0  0  0  0  0  0  0  0  0  0  0
  146.7422  144.5958  154.8174 C   0  0  2  0  0  0  0  0  0  0  0  0
  145.8683  144.7431  155.9222 O   0  0  0  0  0  0  0  0  0  0  0  0
  146.1483  145.3564  153.5991 C   0  0  0  0  0  0  0  0  0  0  0  0
  144.8291  144.8810  153.3931 O   0  0  0  0  0  0  0  0  0  0  0  0
  146.0681  146.8856  153.7655 C   0  0  0  0  0  0  0  0  0  0  0  0
  146.0649  147.4306  152.3385 C   0  0  0  0  0  0  0  0  0  0  0  0
  147.0170  146.5037  151.5829 C   0  0  0  0  0  0  0  0  0  0  0  0
  146.9098  145.1327  152.2687 C   0  0  0  0  0  0  0  0  0  0  0  0
  152.6996  139.7072  156.4432 H   0  0  0  0  0  0  0  0  0  0  0  0
  152.6546  139.3863  158.7007 H   0  0  0  0  0  0  0  0  0  0  0  0
  153.9023  139.8180  160.7990 H   0  0  0  0  0  0  0  0  0  0  0  0
  154.0744  142.1317  161.6983 H   0  0  0  0  0  0  0  0  0  0  0  0
  152.9932  144.0196  160.4893 H   0  0  0  0  0  0  0  0  0  0  0  0
  151.7460  143.6000  158.3862 H   0  0  0  0  0  0  0  0  0  0  0  0
  147.7687  143.9013  156.8217 H   0  0  0  0  0  0  0  0  0  0  0  0
  147.0177  142.8765  153.5033 H   0  0  0  0  0  0  0  0  0  0  0  0
  146.0329  142.5255  154.8667 H   0  0  0  0  0  0  0  0  0  0  0  0
  147.6964  145.0556  155.0799 H   0  0  0  0  0  0  0  0  0  0  0  0
  144.9930  144.5217  155.6431 H   0  0  0  0  0  0  0  0  0  0  0  0
  144.6917  144.7703  152.4649 H   0  0  0  0  0  0  0  0  0  0  0  0
  145.2000  147.2105  154.3409 H   0  0  0  0  0  0  0  0  0  0  0  0
  146.9534  147.2612  154.2798 H   0  0  0  0  0  0  0  0  0  0  0  0
  145.0621  147.3548  151.9159 H   0  0  0  0  0  0  0  0  0  0  0  0
  146.3692  148.4764  152.2874 H   0  0  0  0  0  0  0  0  0  0  0  0
  146.7868  146.4555  150.5180 H   0  0  0  0  0  0  0  0  0  0  0  0
  148.0375  146.8769  151.6794 H   0  0  0  0  0  0  0  0  0  0  0  0
  147.9105  144.7298  152.4271 H   0  0  0  0  0  0  0  0  0  0  0  0
  146.3970  144.4160  151.6249 H   0  0  0  0  0  0  0  0  0  0  0  0
  1  2  2  0  0  0  0
  2 16  1  0  0  0  0
  2  3  1  0  0  0  0
  3 13  2  0  0  0  0
  3  4  1  0  0  0  0
  4  5  2  0  0  0  0
  5  6  1  0  0  0  0
  5 26  1  0  0  0  0
  6  7  1  0  0  0  0
  6 13  1  0  0  0  0
  7 12  1  0  0  0  0
  7  8  2  0  0  0  0
  8  9  1  0  0  0  0
  8 27  1  0  0  0  0
  9 10  2  0  0  0  0
  9 28  1  0  0  0  0
 10 11  1  0  0  0  0
 10 29  1  0  0  0  0
 11 12  2  0  0  0  0
 11 30  1  0  0  0  0
 12 31  1  0  0  0  0
 13 14  1  0  0  0  0
 14 15  2  0  0  0  0
 15 16  1  0  0  0  0
 15 32  1  0  0  0  0
 16 17  1  0  0  0  0
 17 18  1  0  0  0  0
 17 33  1  0  0  0  0
 17 34  1  0  0  0  0
 18 19  1  0  0  0  0
 18 20  1  0  0  0  0
 18 35  1  0  0  0  0
 19 36  1  0  0  0  0
 20 25  1  0  0  0  0
 20 21  1  0  0  0  0
 20 22  1  0  0  0  0
 21 37  1  0  0  0  0
 22 23  1  0  0  0  0
 22 38  1  0  0  0  0
 22 39  1  0  0  0  0
 23 24  1  0  0  0  0
 23 40  1  0  0  0  0
 23 41  1  0  0  0  0
 24 25  1  0  0  0  0
 24 42  1  0  0  0  0
 24 43  1  0  0  0  0
 25 44  1  0  0  0  0
 25 45  1  0  0  0  0
M  END
> <s_m_source_file>
AV-unprocessed.smi

> <i_m_source_file_index>
7

> <i_lp_mmshare_version>
43012

> <i_f3d_flags>
0

> <s_epik_input>
W0NIMl0xW0NIMl1bQ0gyXVtDSDJdQzEoW09IXSlbQ0BASF0oW09IXSlbQ0gyXW4oYzI9TylbY0hdbmMoYzIzKW4oW2NIXW4zKS1jNFtjSF1bY0hdW2NIXVtjSF1bY0hdNA==

> <s_epik_cmdline>
J2VwaWtfcHl0aG9uJywgJy1waCcsICc3LjAnLCAnLXRuJywgJzgnLCAnLW1hJywgJzIwMCcsICctbWV0YWxfYmluZGluZycsICctaW1hZScsICc8aW5maWxlLm1hZT4nLCAnLW9tYWUnLCAnPG91dGZpbGUubWFlPic=

> <r_lp_tautomer_probability>
1

> <r_epik_Ionization_Penalty>
0.000116694

> <r_epik_Ionization_Penalty_Charging>
6.60428e-09

> <r_epik_Ionization_Penalty_Neutral>
0.000116688

> <r_epik_State_Penalty>
-0

> <r_epik_Charging_Adjusted_Penalty>
6.60428e-09

> <i_epik_Tot_Q>
0

> <i_epik_Tot_abs_Q>
0

> <r_epik_Metal_State_Penalty>
-0

> <b_epik_Metal_Only>
0

> <s_lp_Force_Field>
OPLS_2005

> <r_lp_Energy>
55.7438

> <b_lp_Chiralities_Consistent>
1

> <s_lp_Variant>
AV-unprocessed.smi:7-1

> <Gold.Version>
5.8.1

> <Gold.Id.Protein>
6NUR|6NUR_protein|mol2

> <Gold.PLP.Fitness>
50.4328

> <Gold.PLP.PLP>
-47.2099

> <Gold.PLP.part.hbond>
-2.3076

> <Gold.PLP.part.metal>
0.0000

> <Gold.PLP.part.buried>
-6.9373

> <Gold.PLP.part.nonpolar>
-38.7709

> <Gold.PLP.part.repulsive>
0.5515

> <Gold.PLP.ligand.clash>
0.0000

> <Gold.PLP.ligand.torsion>
1.3947

> <Gold.PLP.Chemscore.Hbond>
2.0000

> <Gold.PLP.Chemscore.CHOScore>
0.0000

> <Gold.PLP.Chemscore.Metal>
0.0000

> <Gold.Chemscore.Hbonds>
donor molecule, donor type, donor heavy atom, donor atom, acceptor molecule, acceptor atom, score
      P1  H  7989  7998       L1     4  0.90
      P1  H  8011  8017       L1     1  0.67

> <Gold.PLP.Chemscore.Internal.Correction>
0.0123

> <Gold.Rescore>
     Score         DG    S(hbond)    S(metal)    S(lipo)     H(rot)  DE(clash)    DE(int)     intcor
     14.78     -16.97       1.71        0.00     110.46       2.79       0.15       2.04       ----

> <Gold.Chemscore.Fitness>
14.7825

> <Gold.Chemscore.DG>
-16.9703

> <Gold.Chemscore.ZeroCoef>
-5.4800

> <Gold.Chemscore.Hbond>
1.7063

> <Gold.Chemscore.Metal>
0.0000

> <Gold.Chemscore.Lipo>
110.4552

> <Gold.Chemscore.Internal_Hbond>
0.0000

> <Gold.Chemscore.DEClash>
0.1501

> <Gold.Chemscore.DEInternal>
2.0377

> <Gold.Chemscore.Rot>
2.7860

> <Gold.Chemscore.Internal.Correction>
   9.000000E+99

> <Gold.Chemscore.Hbonds>
donor molecule, donor type, donor heavy atom, donor atom, acceptor molecule, acceptor atom, score
      P1  H  7989  7998       L1     4  0.17
      P1  H  8011  8017       L1     1  0.15

> <Gold.Chemscore.Hbond.Weighted>
-5.6992

> <Gold.Chemscore.Metal.Weighted>
-0.0000

> <Gold.Chemscore.Lipo.Weighted>
-12.9233

> <Gold.Chemscore.Internal_Hbond.Weighted>
0.0000

> <Gold.Chemscore.DEClash.Weighted>
0.1501

> <Gold.Chemscore.DEInternal.Weighted>
2.0377

> <Gold.Chemscore.Rot.Weighted>
7.1322

> <Gold.Chemscore.Internal.Correction.Weighted>
   9.000000E+99

> <Gold.Protein.RotatedTorsions>
[ 6907 6896 6895 6894 ] final  -41.90 input  -60.11 | X-H torsion
[ 7974 7965 7964 7962 ] final   81.78 input  175.53 | X-H torsion
[ 8008 7997 7996 7995 ] final -104.87 input   59.86 | X-H torsion
[ 10167 10162 10161 10158 ] final   76.43 input  -65.29 | X-H torsion
[ 10718 10713 10712 10709 ] final   41.03 input   66.30 | X-H torsion
[ 10763 10752 10751 10750 ] final  154.56 input  -60.55 | X-H torsion
[ 11005 11000 10999 10996 ] final   62.57 input  -57.11 | X-H torsion

> <Gold.Protein.ActiveResidues>
 VAL166  LYS551  ARG553  GLY616  TRP617  ASP618  TYR619  PRO620  LYS621  CYS622 
 ASP623  PHE694  ASN695  SER759  ASP760  ASP761  ALA762  ILE779  LEU786  VAL792 
 PHE793  MET794  SER795  GLU796  ALA797  LYS798  CYS799  TRP800  GLU811  SER814 

> <Gold.Protein.RotatedAtoms>
  150.9614  134.9002  159.7732 H   0  0  0  0  0  0  0  0  0  0  0  0  # atno 6907 bound_to 6896
  152.5157  134.3667  159.9314 H   0  0  0  0  0  0  0  0  0  0  0  0  # atno 6908 bound_to 6896
  151.3679  133.3825  159.2731 H   0  0  0  0  0  0  0  0  0  0  0  0  # atno 6909 bound_to 6896
  145.6337  139.2410  143.2070 H   0  0  0  0  0  0  0  0  0  0  0  0  # atno 7974 bound_to 7965
  154.8916  140.0416  157.1841 H   0  0  0  0  0  0  0  0  0  0  0  0  # atno 8008 bound_to 7997
  154.8535  140.2933  155.5562 H   0  0  0  0  0  0  0  0  0  0  0  0  # atno 8009 bound_to 7997
  156.2996  140.2460  156.3498 H   0  0  0  0  0  0  0  0  0  0  0  0  # atno 8010 bound_to 7997
  139.9923  144.5747  150.7807 H   0  0  0  0  0  0  0  0  0  0  0  0  # atno 10167 bound_to 10162
  157.3889  130.7795  149.7253 H   0  0  0  0  0  0  0  0  0  0  0  0  # atno 10718 bound_to 10713
  154.1543  135.2813  155.3126 H   0  0  0  0  0  0  0  0  0  0  0  0  # atno 10763 bound_to 10752
  154.6194  135.5472  153.7562 H   0  0  0  0  0  0  0  0  0  0  0  0  # atno 10764 bound_to 10752
  153.0211  135.6435  154.1687 H   0  0  0  0  0  0  0  0  0  0  0  0  # atno 10765 bound_to 10752
  140.0083  134.6335  155.9820 H   0  0  0  0  0  0  0  0  0  0  0  0  # atno 11005 bound_to 11000
  146.1336  140.7152  142.9400 LP  0  0  0  0  0  0  0  0  0  0  0  0  # atno 17320 bound_to 7965
  144.7184  140.4289  143.7027 LP  0  0  0  0  0  0  0  0  0  0  0  0  # atno 17321 bound_to 7965
  140.7450  143.2869  151.3439 LP  0  0  0  0  0  0  0  0  0  0  0  0  # atno 17342 bound_to 10162
  139.6331  144.0683  152.2493 LP  0  0  0  0  0  0  0  0  0  0  0  0  # atno 17343 bound_to 10162
  155.9793  130.4041  150.3594 LP  0  0  0  0  0  0  0  0  0  0  0  0  # atno 17370 bound_to 10713
  157.1707  131.0368  151.2796 LP  0  0  0  0  0  0  0  0  0  0  0  0  # atno 17371 bound_to 10713
  141.1693  133.6537  156.4592 LP  0  0  0  0  0  0  0  0  0  0  0  0  # atno 17394 bound_to 11000
  140.4601  134.6849  157.5081 LP  0  0  0  0  0  0  0  0  0  0  0  0  # atno 17395 bound_to 11000

$$$$
