AV-unprocessed.smi:432|AV-procd|sdf|2549|dock2
  -GOLD-   2262022513D 1   1.00000     0.00000
 Structure written by MMmdl.
 31 32  0  0  0  0  0  0  0  0  1 V2000
  151.9507  140.0263  155.0322 O   0  0  0  0  0  0  0  0  0  0  0  0
  151.0644  140.0717  155.8868 C   0  0  0  0  0  0  0  0  0  0  0  0
  151.3987  139.9411  157.3806 C   0  0  0  0  0  0  0  0  0  0  0  0
  151.6092  141.2320  158.0537 N   0  0  0  0  0  0  0  0  0  0  0  0
  151.0568  142.3117  157.3870 N   0  0  0  0  0  0  0  0  0  0  0  0
  151.1684  143.4925  157.8901 C   0  0  0  0  0  0  0  0  0  0  0  0
  151.8577  143.7366  159.1378 C   0  0  0  0  0  0  0  0  0  0  0  0
  151.9728  145.3432  159.7648 Cl  0  0  0  0  0  0  0  0  0  0  0  0
  152.4011  142.6723  159.7803 C   0  0  0  0  0  0  0  0  0  0  0  0
  153.2415  142.8852  161.2780 Cl  0  0  0  0  0  0  0  0  0  0  0  0
  152.2974  141.3119  159.2344 C   0  0  0  0  0  0  0  0  0  0  0  0
  152.7825  140.3214  159.7833 O   0  0  0  0  0  0  0  0  0  0  0  0
  149.7652  140.2250  155.5901 N   0  0  0  0  0  0  0  0  0  0  0  0
  149.2225  140.3860  154.2435 C   0  0  0  0  0  0  0  0  0  0  0  0
  148.3029  141.6202  154.1557 C   0  0  0  0  0  0  0  0  0  0  0  0
  146.8791  141.0759  154.0373 C   0  0  0  0  0  0  0  0  0  0  0  0
  147.0475  139.7503  153.3020 C   0  0  0  0  0  0  0  0  0  0  0  0
  148.3532  139.1749  153.8535 C   0  0  0  0  0  0  0  0  0  0  0  0
  150.6018  139.3887  157.8823 H   0  0  0  0  0  0  0  0  0  0  0  0
  152.2892  139.3168  157.4730 H   0  0  0  0  0  0  0  0  0  0  0  0
  150.7488  144.3719  157.4014 H   0  0  0  0  0  0  0  0  0  0  0  0
  149.1038  140.2469  156.3528 H   0  0  0  0  0  0  0  0  0  0  0  0
  150.0384  140.4901  153.5258 H   0  0  0  0  0  0  0  0  0  0  0  0
  148.4097  142.3039  154.9995 H   0  0  0  0  0  0  0  0  0  0  0  0
  148.5470  142.1854  153.2554 H   0  0  0  0  0  0  0  0  0  0  0  0
  146.4702  140.8945  155.0323 H   0  0  0  0  0  0  0  0  0  0  0  0
  146.2083  141.7625  153.5201 H   0  0  0  0  0  0  0  0  0  0  0  0
  146.1999  139.0793  153.4439 H   0  0  0  0  0  0  0  0  0  0  0  0
  147.1506  139.9358  152.2320 H   0  0  0  0  0  0  0  0  0  0  0  0
  148.8501  138.5287  153.1291 H   0  0  0  0  0  0  0  0  0  0  0  0
  148.1290  138.5627  154.7286 H   0  0  0  0  0  0  0  0  0  0  0  0
  1  2  2  0  0  0  0
  2  3  1  0  0  0  0
  2 13  1  0  0  0  0
  3  4  1  0  0  0  0
  3 19  1  0  0  0  0
  3 20  1  0  0  0  0
  4 11  1  0  0  0  0
  4  5  1  0  0  0  0
  5  6  2  0  0  0  0
  6  7  1  0  0  0  0
  6 21  1  0  0  0  0
  7  8  1  0  0  0  0
  7  9  2  0  0  0  0
  9 10  1  0  0  0  0
  9 11  1  0  0  0  0
 11 12  2  0  0  0  0
 13 14  1  0  0  0  0
 13 22  1  0  0  0  0
 14 18  1  0  0  0  0
 14 15  1  0  0  0  0
 14 23  1  0  0  0  0
 15 16  1  0  0  0  0
 15 24  1  0  0  0  0
 15 25  1  0  0  0  0
 16 17  1  0  0  0  0
 16 26  1  0  0  0  0
 16 27  1  0  0  0  0
 17 18  1  0  0  0  0
 17 28  1  0  0  0  0
 17 29  1  0  0  0  0
 18 30  1  0  0  0  0
 18 31  1  0  0  0  0
M  END
> <s_m_source_file>
AV-unprocessed.smi

> <i_m_source_file_index>
432

> <i_lp_mmshare_version>
43012

> <i_f3d_flags>
0

> <s_epik_input>
W0NIMl0xW0NIMl1bQ0gyXVtDSDJdW0NIXTFbTkhdQyg9TylbQ0gyXW4ybltjSF1jKENsKWMoQ2wpYzI9Tw==

> <s_epik_cmdline>
J2VwaWtfcHl0aG9uJywgJy1waCcsICc3LjAnLCAnLXRuJywgJzgnLCAnLW1hJywgJzIwMCcsICctbWV0YWxfYmluZGluZycsICctaW1hZScsICc8aW5maWxlLm1hZT4nLCAnLW9tYWUnLCAnPG91dGZpbGUubWFlPic=

> <r_lp_tautomer_probability>
1

> <r_epik_Ionization_Penalty>
1.93318e-08

> <r_epik_Ionization_Penalty_Charging>
3.01013e-11

> <r_epik_Ionization_Penalty_Neutral>
1.93017e-08

> <r_epik_State_Penalty>
-0

> <r_epik_Charging_Adjusted_Penalty>
3.01013e-11

> <i_epik_Tot_Q>
0

> <i_epik_Tot_abs_Q>
0

> <r_epik_Metal_State_Penalty>
-0

> <b_epik_Metal_Only>
0

> <s_lp_Force_Field>
OPLS_2005

> <r_lp_Energy>
31.6968

> <b_lp_Chiralities_Consistent>
1

> <s_lp_Variant>
AV-unprocessed.smi:432-1

> <Gold.Version>
5.8.1

> <Gold.Id.Protein>
6NUR|6NUR_protein|mol2

> <Gold.PLP.Fitness>
43.6495

> <Gold.PLP.PLP>
-39.4659

> <Gold.PLP.part.hbond>
-1.0000

> <Gold.PLP.part.metal>
0.0000

> <Gold.PLP.part.buried>
-2.4423

> <Gold.PLP.part.nonpolar>
-35.8957

> <Gold.PLP.part.repulsive>
0.2030

> <Gold.PLP.ligand.clash>
0.0000

> <Gold.PLP.ligand.torsion>
0.7059

> <Gold.PLP.Chemscore.Hbond>
0.8640

> <Gold.PLP.Chemscore.CHOScore>
1.0000

> <Gold.PLP.Chemscore.Metal>
0.0000

> <Gold.Chemscore.Hbonds>
donor molecule, donor type, donor heavy atom, donor atom, acceptor molecule, acceptor atom, score
      P1  H  7989  7998       L1     1  0.86
      L1  C     6    21       P1  8028  0.97

> <Gold.PLP.Chemscore.Internal.Correction>
0.0035

> <Gold.Rescore>
     Score         DG    S(hbond)    S(metal)    S(lipo)     H(rot)  DE(clash)    DE(int)     intcor
     15.12     -16.08       0.97        0.00      96.35       1.53       0.17       0.79       ----

> <Gold.Chemscore.Fitness>
15.1203

> <Gold.Chemscore.DG>
-16.0796

> <Gold.Chemscore.ZeroCoef>
-5.4800

> <Gold.Chemscore.Hbond>
0.9713

> <Gold.Chemscore.Metal>
0.0000

> <Gold.Chemscore.Lipo>
96.3515

> <Gold.Chemscore.Internal_Hbond>
0.0000

> <Gold.Chemscore.DEClash>
0.1686

> <Gold.Chemscore.DEInternal>
0.7907

> <Gold.Chemscore.Rot>
1.5303

> <Gold.Chemscore.Internal.Correction>
   9.000000E+99

> <Gold.Chemscore.Hbonds>
donor molecule, donor type, donor heavy atom, donor atom, acceptor molecule, acceptor atom, score
      P1  H  7989  7998       L1     1  0.81

> <Gold.Chemscore.Hbond.Weighted>
-3.2441

> <Gold.Chemscore.Metal.Weighted>
-0.0000

> <Gold.Chemscore.Lipo.Weighted>
-11.2731

> <Gold.Chemscore.Internal_Hbond.Weighted>
0.0000

> <Gold.Chemscore.DEClash.Weighted>
0.1686

> <Gold.Chemscore.DEInternal.Weighted>
0.7907

> <Gold.Chemscore.Rot.Weighted>
3.9176

> <Gold.Chemscore.Internal.Correction.Weighted>
   9.000000E+99

> <Gold.Protein.RotatedTorsions>
[ 6907 6896 6895 6894 ] final -163.42 input  -60.11 | X-H torsion
[ 7974 7965 7964 7962 ] final  -11.78 input  175.53 | X-H torsion
[ 8008 7997 7996 7995 ] final    9.08 input   59.86 | X-H torsion
[ 10167 10162 10161 10158 ] final  167.51 input  -65.29 | X-H torsion
[ 10718 10713 10712 10709 ] final   -9.16 input   66.30 | X-H torsion
[ 10763 10752 10751 10750 ] final   43.87 input  -60.55 | X-H torsion
[ 11005 11000 10999 10996 ] final -161.31 input  -57.11 | X-H torsion

> <Gold.Protein.ActiveResidues>
 VAL166  LYS551  ARG553  GLY616  TRP617  ASP618  TYR619  PRO620  LYS621  CYS622 
 ASP623  PHE694  ASN695  SER759  ASP760  ASP761  ALA762  ILE779  LEU786  VAL792 
 PHE793  MET794  SER795  GLU796  ALA797  LYS798  CYS799  TRP800  GLU811  SER814 

> <Gold.Protein.RotatedAtoms>
  151.3957  133.3774  159.2725 H   0  0  0  0  0  0  0  0  0  0  0  0  # atno 6907 bound_to 6896
  150.9471  134.8876  159.7659 H   0  0  0  0  0  0  0  0  0  0  0  0  # atno 6908 bound_to 6896
  152.5096  134.3911  159.9436 H   0  0  0  0  0  0  0  0  0  0  0  0  # atno 6909 bound_to 6896
  146.2175  140.2960  142.8372 H   0  0  0  0  0  0  0  0  0  0  0  0  # atno 7974 bound_to 7965
  154.7753  140.2809  155.6106 H   0  0  0  0  0  0  0  0  0  0  0  0  # atno 8008 bound_to 7997
  156.2941  140.2633  156.2493 H   0  0  0  0  0  0  0  0  0  0  0  0  # atno 8009 bound_to 7997
  154.9850  140.0374  157.2284 H   0  0  0  0  0  0  0  0  0  0  0  0  # atno 8010 bound_to 7997
  139.4947  144.3914  151.9513 H   0  0  0  0  0  0  0  0  0  0  0  0  # atno 10167 bound_to 10162
  156.6921  130.5068  149.5940 H   0  0  0  0  0  0  0  0  0  0  0  0  # atno 10718 bound_to 10713
  152.9852  135.6088  154.3181 H   0  0  0  0  0  0  0  0  0  0  0  0  # atno 10763 bound_to 10752
  154.2892  135.2775  155.2664 H   0  0  0  0  0  0  0  0  0  0  0  0  # atno 10764 bound_to 10752
  154.4967  135.5877  153.6556 H   0  0  0  0  0  0  0  0  0  0  0  0  # atno 10765 bound_to 10752
  140.6218  134.4743  157.5224 H   0  0  0  0  0  0  0  0  0  0  0  0  # atno 11005 bound_to 11000
  144.9092  140.7736  143.5818 LP  0  0  0  0  0  0  0  0  0  0  0  0  # atno 17320 bound_to 7965
  145.2890  139.1890  143.4750 LP  0  0  0  0  0  0  0  0  0  0  0  0  # atno 17321 bound_to 7965
  140.3351  144.3270  150.5979 LP  0  0  0  0  0  0  0  0  0  0  0  0  # atno 17342 bound_to 10162
  140.5612  143.2192  151.7761 LP  0  0  0  0  0  0  0  0  0  0  0  0  # atno 17343 bound_to 10162
  156.1790  130.6486  151.0928 LP  0  0  0  0  0  0  0  0  0  0  0  0  # atno 17370 bound_to 10713
  157.7005  131.0778  150.6836 LP  0  0  0  0  0  0  0  0  0  0  0  0  # atno 17371 bound_to 10713
  139.9150  134.8264  156.1396 LP  0  0  0  0  0  0  0  0  0  0  0  0  # atno 17394 bound_to 11000
  141.0737  133.6785  156.2193 LP  0  0  0  0  0  0  0  0  0  0  0  0  # atno 17395 bound_to 11000

$$$$
