AV-unprocessed.smi:3197|AV-procd|sdf|12226|dock1
  -GOLD-   2272018 53D 1   1.00000     0.00000
 Structure written by MMmdl.
 33 34  0  0  0  0  0  0  0  0  1 V2000
  144.9759  132.3293  149.7897 C   0  0  0  0  0  0  0  0  0  0  0  0
  146.3255  132.5280  150.1431 C   0  0  0  0  0  0  0  0  0  0  0  0
  146.7345  133.6403  150.7918 N   0  0  0  0  0  0  0  0  0  0  0  0
  145.8014  134.5493  151.0858 C   0  0  0  0  0  0  0  0  0  0  0  0
  146.2549  135.6755  151.7453 N   0  0  0  0  0  0  0  0  0  0  0  0
  145.4018  136.7772  152.1640 C   0  0  0  0  0  0  0  0  0  0  0  0
  146.1506  138.1130  152.1248 C   0  0  0  0  0  0  0  0  0  0  0  0
  146.6706  138.3852  153.4155 O   0  0  0  0  0  0  0  0  0  0  0  0
  147.2188  139.6875  153.5258 C   0  0  0  0  0  0  0  0  0  0  0  0
  148.4043  139.6452  154.5000 C   0  0  1  0  0  0  0  0  0  0  0  0
  149.4541  138.6059  154.1626 C   0  0  0  0  0  0  0  0  0  0  0  0
  150.6576  139.1106  154.9525 C   0  0  0  0  0  0  0  0  0  0  0  0
  150.5359  140.5301  154.9788 O   0  0  0  0  0  0  0  0  0  0  0  0
  149.2473  140.9198  154.5120 C   0  0  0  0  0  0  0  0  0  0  0  0
  144.4962  134.4648  150.8008 N   0  0  0  0  0  0  0  0  0  0  0  0
  144.0804  133.3554  150.1521 C   0  0  0  0  0  0  0  0  0  0  0  0
  144.6467  131.4413  149.2707 H   0  0  0  0  0  0  0  0  0  0  0  0
  147.0793  131.7926  149.9040 H   0  0  0  0  0  0  0  0  0  0  0  0
  147.2516  135.7636  151.8805 H   0  0  0  0  0  0  0  0  0  0  0  0
  144.5149  136.8229  151.5307 H   0  0  0  0  0  0  0  0  0  0  0  0
  145.0611  136.5803  153.1809 H   0  0  0  0  0  0  0  0  0  0  0  0
  146.9726  138.0499  151.4105 H   0  0  0  0  0  0  0  0  0  0  0  0
  145.4887  138.9145  151.7923 H   0  0  0  0  0  0  0  0  0  0  0  0
  147.5371  140.0506  152.5472 H   0  0  0  0  0  0  0  0  0  0  0  0
  146.4593  140.3753  153.9001 H   0  0  0  0  0  0  0  0  0  0  0  0
  148.0373  139.4616  155.5114 H   0  0  0  0  0  0  0  0  0  0  0  0
  149.1597  137.5930  154.4388 H   0  0  0  0  0  0  0  0  0  0  0  0
  149.6761  138.6184  153.0945 H   0  0  0  0  0  0  0  0  0  0  0  0
  150.6209  138.7405  155.9779 H   0  0  0  0  0  0  0  0  0  0  0  0
  151.6055  138.7988  154.5134 H   0  0  0  0  0  0  0  0  0  0  0  0
  149.3555  141.3222  153.5038 H   0  0  0  0  0  0  0  0  0  0  0  0
  148.8151  141.6981  155.1414 H   0  0  0  0  0  0  0  0  0  0  0  0
  143.0278  133.2864  149.9207 H   0  0  0  0  0  0  0  0  0  0  0  0
  1 16  1  0  0  0  0
  1  2  2  0  0  0  0
  1 17  1  0  0  0  0
  2  3  1  0  0  0  0
  2 18  1  0  0  0  0
  3  4  2  0  0  0  0
  4  5  1  0  0  0  0
  4 15  1  0  0  0  0
  5  6  1  0  0  0  0
  5 19  1  0  0  0  0
  6  7  1  0  0  0  0
  6 20  1  0  0  0  0
  6 21  1  0  0  0  0
  7  8  1  0  0  0  0
  7 22  1  0  0  0  0
  7 23  1  0  0  0  0
  8  9  1  0  0  0  0
  9 10  1  0  0  0  0
  9 24  1  0  0  0  0
  9 25  1  0  0  0  0
 10 14  1  0  0  0  0
 10 11  1  0  0  0  0
 10 26  1  0  0  0  0
 11 12  1  0  0  0  0
 11 27  1  0  0  0  0
 11 28  1  0  0  0  0
 12 13  1  0  0  0  0
 12 29  1  0  0  0  0
 12 30  1  0  0  0  0
 13 14  1  0  0  0  0
 14 31  1  0  0  0  0
 14 32  1  0  0  0  0
 15 16  2  0  0  0  0
 16 33  1  0  0  0  0
M  END
> <s_m_source_file>
AV-unprocessed.smi

> <i_m_source_file_index>
3197

> <i_lp_mmshare_version>
43012

> <i_f3d_flags>
0

> <s_epik_input>
bjFbY0hdW2NIXVtjSF1uYzFbTkhdW0NIMl1bQ0gyXU9bQ0gyXVtDQEBIXTJbQ0gyXVtDSDJdT1tDSDJdMg==

> <s_epik_cmdline>
J2VwaWtfcHl0aG9uJywgJy1waCcsICc3LjAnLCAnLXRuJywgJzgnLCAnLW1hJywgJzIwMCcsICctbWV0YWxfYmluZGluZycsICctaW1hZScsICc8aW5maWxlLm1hZT4nLCAnLW9tYWUnLCAnPG91dGZpbGUubWFlPic=

> <r_lp_tautomer_probability>
1

> <r_epik_Ionization_Penalty>
0.000570263

> <r_epik_Ionization_Penalty_Charging>
0

> <r_epik_Ionization_Penalty_Neutral>
0.000570263

> <r_epik_State_Penalty>
0.000357543

> <r_epik_Charging_Adjusted_Penalty>
0.000357543

> <i_epik_Tot_Q>
0

> <i_epik_Tot_abs_Q>
0

> <r_epik_Metal_State_Penalty>
-0

> <b_epik_Metal_Only>
0

> <s_lp_Force_Field>
OPLS_2005

> <r_lp_Energy>
10.4311

> <b_lp_Chiralities_Consistent>
1

> <s_lp_Variant>
AV-unprocessed.smi:3197-2

> <Gold.Version>
5.8.1

> <Gold.Id.Protein>
6NUR|6NUR_protein|mol2

> <Gold.PLP.Fitness>
40.3978

> <Gold.PLP.PLP>
-29.6584

> <Gold.PLP.part.hbond>
-2.0000

> <Gold.PLP.part.metal>
0.0000

> <Gold.PLP.part.buried>
-1.2070

> <Gold.PLP.part.nonpolar>
-26.7654

> <Gold.PLP.part.repulsive>
0.7770

> <Gold.PLP.ligand.clash>
0.0000

> <Gold.PLP.ligand.torsion>
0.6961

> <Gold.PLP.Chemscore.Hbond>
2.0000

> <Gold.PLP.Chemscore.CHOScore>
2.0000

> <Gold.PLP.Chemscore.Metal>
0.0000

> <Gold.Chemscore.Hbonds>
donor molecule, donor type, donor heavy atom, donor atom, acceptor molecule, acceptor atom, score
      L1  H     5    19       P1  7948  1.00
      P1  H  7989  7998       L1    13  0.84
      L1  C     2    18       P1 10747  1.00
      L1  C    16    33       P1 10186  1.00

> <Gold.PLP.Chemscore.Internal.Correction>
0.1316

> <Gold.Rescore>
     Score         DG    S(hbond)    S(metal)    S(lipo)     H(rot)  DE(clash)    DE(int)     intcor
     12.68     -13.44       1.09        0.00      78.00       1.88       0.15       0.61       ----

> <Gold.Chemscore.Fitness>
12.6835

> <Gold.Chemscore.DG>
-13.4403

> <Gold.Chemscore.ZeroCoef>
-5.4800

> <Gold.Chemscore.Hbond>
1.0908

> <Gold.Chemscore.Metal>
0.0000

> <Gold.Chemscore.Lipo>
77.9976

> <Gold.Chemscore.Internal_Hbond>
0.0000

> <Gold.Chemscore.DEClash>
0.1490

> <Gold.Chemscore.DEInternal>
0.6079

> <Gold.Chemscore.Rot>
1.8784

> <Gold.Chemscore.Internal.Correction>
   9.000000E+99

> <Gold.Chemscore.Hbonds>
donor molecule, donor type, donor heavy atom, donor atom, acceptor molecule, acceptor atom, score
      L1  H     5    19       P1  7948  1.00
      P1  H  7989  7998       L1    13  0.05

> <Gold.Chemscore.Hbond.Weighted>
-3.6433

> <Gold.Chemscore.Metal.Weighted>
-0.0000

> <Gold.Chemscore.Lipo.Weighted>
-9.1257

> <Gold.Chemscore.Internal_Hbond.Weighted>
0.0000

> <Gold.Chemscore.DEClash.Weighted>
0.1490

> <Gold.Chemscore.DEInternal.Weighted>
0.6079

> <Gold.Chemscore.Rot.Weighted>
4.8087

> <Gold.Chemscore.Internal.Correction.Weighted>
   9.000000E+99

> <Gold.Protein.RotatedTorsions>
[ 6907 6896 6895 6894 ] final  -79.02 input  -60.11 | X-H torsion
[ 7974 7965 7964 7962 ] final   48.51 input  175.53 | X-H torsion
[ 8008 7997 7996 7995 ] final  -54.21 input   59.86 | X-H torsion
[ 10167 10162 10161 10158 ] final  -36.47 input  -65.29 | X-H torsion
[ 10718 10713 10712 10709 ] final  -54.08 input   66.30 | X-H torsion
[ 10763 10752 10751 10750 ] final    0.94 input  -60.55 | X-H torsion
[ 11005 11000 10999 10996 ] final  -44.36 input  -57.11 | X-H torsion

> <Gold.Protein.ActiveResidues>
 VAL166  LYS551  ARG553  GLY616  TRP617  ASP618  TYR619  PRO620  LYS621  CYS622 
 ASP623  PHE694  ASN695  SER759  ASP760  ASP761  ALA762  ILE779  LEU786  VAL792 
 PHE793  MET794  SER795  GLU796  ALA797  LYS798  CYS799  TRP800  GLU811  SER814 

> <Gold.Protein.RotatedAtoms>
  150.6959  134.4184  159.5193 H   0  0  0  0  0  0  0  0  0  0  0  0  # atno 6907 bound_to 6896
  152.1931  134.8652  160.0525 H   0  0  0  0  0  0  0  0  0  0  0  0  # atno 6908 bound_to 6896
  151.9600  133.3657  159.4068 H   0  0  0  0  0  0  0  0  0  0  0  0  # atno 6909 bound_to 6896
  146.0197  139.4637  142.9905 H   0  0  0  0  0  0  0  0  0  0  0  0  # atno 7974 bound_to 7965
  154.4156  140.1181  156.5279 H   0  0  0  0  0  0  0  0  0  0  0  0  # atno 8008 bound_to 7997
  155.6636  140.3496  155.4772 H   0  0  0  0  0  0  0  0  0  0  0  0  # atno 8009 bound_to 7997
  155.9693  140.1138  157.0817 H   0  0  0  0  0  0  0  0  0  0  0  0  # atno 8010 bound_to 7997
  140.7141  143.3406  151.2365 H   0  0  0  0  0  0  0  0  0  0  0  0  # atno 10167 bound_to 10162
  156.1481  130.4152  149.9990 H   0  0  0  0  0  0  0  0  0  0  0  0  # atno 10718 bound_to 10713
  153.3142  135.6965  153.7088 H   0  0  0  0  0  0  0  0  0  0  0  0  # atno 10763 bound_to 10752
  153.5953  135.3472  155.2926 H   0  0  0  0  0  0  0  0  0  0  0  0  # atno 10764 bound_to 10752
  154.8582  135.4327  154.2289 H   0  0  0  0  0  0  0  0  0  0  0  0  # atno 10765 bound_to 10752
  141.0445  133.6766  156.2862 H   0  0  0  0  0  0  0  0  0  0  0  0  # atno 11005 bound_to 11000
  145.7212  141.0074  143.1401 LP  0  0  0  0  0  0  0  0  0  0  0  0  # atno 17320 bound_to 7965
  144.6985  139.8873  143.7451 LP  0  0  0  0  0  0  0  0  0  0  0  0  # atno 17321 bound_to 7965
  139.6913  143.9688  152.2860 LP  0  0  0  0  0  0  0  0  0  0  0  0  # atno 17342 bound_to 10162
  139.9350  144.6717  150.8324 LP  0  0  0  0  0  0  0  0  0  0  0  0  # atno 17343 bound_to 10162
  156.7856  130.9237  151.3646 LP  0  0  0  0  0  0  0  0  0  0  0  0  # atno 17370 bound_to 10713
  157.6634  130.8986  149.9878 LP  0  0  0  0  0  0  0  0  0  0  0  0  # atno 17371 bound_to 10713
  140.6172  134.5398  157.5542 LP  0  0  0  0  0  0  0  0  0  0  0  0  # atno 17394 bound_to 11000
  139.9301  134.7980  156.0955 LP  0  0  0  0  0  0  0  0  0  0  0  0  # atno 17395 bound_to 11000

$$$$
