AV-unprocessed.smi:1464|AV-procd|sdf|5950|dock8
  -GOLD-   22720 6 33D 1   1.00000     0.00000
 Structure written by MMmdl.
 41 42  0  0  0  0  0  0  0  0  1 V2000
  153.0515  143.2347  162.8470 C   0  0  0  0  0  0  0  0  0  0  0  0
  152.4477  143.0922  161.4383 C   0  0  1  0  0  0  0  0  0  0  0  0
  151.8820  144.4506  160.9744 C   0  0  0  0  0  0  0  0  0  0  0  0
  151.2530  144.3695  159.5773 C   0  0  0  0  0  0  0  0  0  0  0  0
  152.2628  143.8356  158.5518 C   0  0  0  0  0  0  0  0  0  0  0  0
  152.8437  142.4724  158.9767 C   0  0  2  0  0  0  0  0  0  0  0  0
  151.8285  141.4221  158.8863 N   0  0  0  0  0  0  0  0  0  0  0  0
  152.0552  140.1402  158.5628 C   0  0  0  0  0  0  0  0  0  0  0  0
  153.1694  139.7027  158.2723 O   0  0  0  0  0  0  0  0  0  0  0  0
  150.8236  139.2236  158.5454 C   0  0  0  0  0  0  0  0  0  0  0  0
  150.6049  138.5754  157.2444 N   0  0  0  0  0  0  0  0  0  0  0  0
  150.5031  139.4581  156.1797 N   0  0  0  0  0  0  0  0  0  0  0  0
  150.3235  139.0074  154.9840 C   0  0  0  0  0  0  0  0  0  0  0  0
  150.2323  139.9161  153.9585 O   0  0  0  0  0  0  0  0  0  0  0  0
  150.2203  137.5878  154.7264 C   0  0  0  0  0  0  0  0  0  0  0  0
  150.3155  136.7363  155.7709 C   0  0  0  0  0  0  0  0  0  0  0  0
  150.5198  137.2134  157.1398 C   0  0  0  0  0  0  0  0  0  0  0  0
  150.6078  136.4610  158.1101 O   0  0  0  0  0  0  0  0  0  0  0  0
  153.4600  142.5340  160.3987 C   0  0  2  0  0  0  0  0  0  0  0  0
  154.0577  141.1718  160.8067 C   0  0  0  0  0  0  0  0  0  0  0  0
  149.9997  139.4100  153.1950 H   0  0  0  0  0  0  0  0  0  0  0  0
  153.9403  143.8664  162.8357 H   0  0  0  0  0  0  0  0  0  0  0  0
  153.3298  142.2691  163.2680 H   0  0  0  0  0  0  0  0  0  0  0  0
  152.3350  143.6842  163.5353 H   0  0  0  0  0  0  0  0  0  0  0  0
  151.6128  142.3940  161.5131 H   0  0  0  0  0  0  0  0  0  0  0  0
  151.1348  144.8053  161.6852 H   0  0  0  0  0  0  0  0  0  0  0  0
  152.6775  145.1971  160.9686 H   0  0  0  0  0  0  0  0  0  0  0  0
  150.3739  143.7245  159.6050 H   0  0  0  0  0  0  0  0  0  0  0  0
  150.9013  145.3552  159.2715 H   0  0  0  0  0  0  0  0  0  0  0  0
  151.7955  143.7633  157.5689 H   0  0  0  0  0  0  0  0  0  0  0  0
  153.0770  144.5538  158.4460 H   0  0  0  0  0  0  0  0  0  0  0  0
  153.6492  142.2235  158.2831 H   0  0  0  0  0  0  0  0  0  0  0  0
  150.8799  141.6929  159.1019 H   0  0  0  0  0  0  0  0  0  0  0  0
  150.9161  138.4656  159.3259 H   0  0  0  0  0  0  0  0  0  0  0  0
  149.9542  139.8228  158.8216 H   0  0  0  0  0  0  0  0  0  0  0  0
  150.0707  137.2270  153.7195 H   0  0  0  0  0  0  0  0  0  0  0  0
  150.2404  135.6735  155.5925 H   0  0  0  0  0  0  0  0  0  0  0  0
  154.2929  143.2371  160.3484 H   0  0  0  0  0  0  0  0  0  0  0  0
  153.2807  140.4339  161.0083 H   0  0  0  0  0  0  0  0  0  0  0  0
  154.6763  141.2556  161.6997 H   0  0  0  0  0  0  0  0  0  0  0  0
  154.6959  140.7736  160.0173 H   0  0  0  0  0  0  0  0  0  0  0  0
  1  2  1  0  0  0  0
  1 22  1  0  0  0  0
  1 23  1  0  0  0  0
  1 24  1  0  0  0  0
  2 19  1  0  0  0  0
  2  3  1  0  0  0  0
  2 25  1  0  0  0  0
  3  4  1  0  0  0  0
  3 26  1  0  0  0  0
  3 27  1  0  0  0  0
  4  5  1  0  0  0  0
  4 28  1  0  0  0  0
  4 29  1  0  0  0  0
  5  6  1  0  0  0  0
  5 30  1  0  0  0  0
  5 31  1  0  0  0  0
  6  7  1  0  0  0  0
  6 19  1  0  0  0  0
  6 32  1  0  0  0  0
  7  8  1  0  0  0  0
  7 33  1  0  0  0  0
  8  9  2  0  0  0  0
  8 10  1  0  0  0  0
 10 34  1  0  0  0  0
 10 35  1  0  0  0  0
 10 11  1  0  0  0  0
 11 12  1  0  0  0  0
 11 17  1  0  0  0  0
 12 13  2  0  0  0  0
 13 14  1  0  0  0  0
 13 15  1  0  0  0  0
 14 21  1  0  0  0  0
 15 36  1  0  0  0  0
 15 16  2  0  0  0  0
 16 37  1  0  0  0  0
 16 17  1  0  0  0  0
 17 18  2  0  0  0  0
 19 20  1  0  0  0  0
 19 38  1  0  0  0  0
 20 39  1  0  0  0  0
 20 40  1  0  0  0  0
 20 41  1  0  0  0  0
M  END
> <s_m_source_file>
AV-unprocessed.smi

> <i_m_source_file_index>
1464

> <i_lp_mmshare_version>
43012

> <i_f3d_flags>
0

> <s_epik_input>
W0NIM11bQ0BASF0xW0NIMl1bQ0gyXVtDSDJdW0NASF0oW0NASF0xW0NIM10pW05IXUMoPU8pW0NIMl1uMltuSF1jKD1PKVtjSF1bY0hdYzI9Tw==

> <s_epik_cmdline>
J2VwaWtfcHl0aG9uJywgJy1waCcsICc3LjAnLCAnLXRuJywgJzgnLCAnLW1hJywgJzIwMCcsICctbWV0YWxfYmluZGluZycsICctaW1hZScsICc8aW5maWxlLm1hZT4nLCAnLW9tYWUnLCAnPG91dGZpbGUubWFlPic=

> <r_lp_tautomer_probability>
0.9996

> <r_epik_Ionization_Penalty>
2.10335

> <r_epik_Ionization_Penalty_Charging>
3.98079e-08

> <r_epik_Ionization_Penalty_Neutral>
2.10335

> <r_epik_State_Penalty>
1.67957

> <r_epik_Charging_Adjusted_Penalty>
1.67957

> <i_epik_Tot_Q>
0

> <i_epik_Tot_abs_Q>
0

> <r_epik_Metal_State_Penalty>
1.67957

> <b_epik_Metal_Only>
0

> <s_lp_Force_Field>
OPLS_2005

> <r_lp_Energy>
23.2489

> <b_lp_Chiralities_Consistent>
1

> <s_lp_Variant>
AV-unprocessed.smi:1464-16

> <Gold.Version>
5.8.1

> <Gold.Id.Protein>
6NUR|6NUR_protein|mol2

> <Gold.PLP.Fitness>
51.4276

> <Gold.PLP.PLP>
-43.8007

> <Gold.PLP.part.hbond>
-3.9810

> <Gold.PLP.part.metal>
0.0000

> <Gold.PLP.part.buried>
-6.6245

> <Gold.PLP.part.nonpolar>
-34.1072

> <Gold.PLP.part.repulsive>
0.1191

> <Gold.PLP.ligand.clash>
0.0000

> <Gold.PLP.ligand.torsion>
0.3931

> <Gold.PLP.Chemscore.Hbond>
2.8003

> <Gold.PLP.Chemscore.CHOScore>
0.0000

> <Gold.PLP.Chemscore.Metal>
0.0000

> <Gold.Chemscore.Hbonds>
donor molecule, donor type, donor heavy atom, donor atom, acceptor molecule, acceptor atom, score
      L1  H    14    21       P1  7957  0.41
      P1  H  6896  6908       L1    18  0.37
      P1  H  7989  7998       L1    14  0.99
      P1  H  7997  8008       L1     9  1.00

> <Gold.PLP.Chemscore.Internal.Correction>
0.0122

> <Gold.Rescore>
     Score         DG    S(hbond)    S(metal)    S(lipo)     H(rot)  DE(clash)    DE(int)     intcor
     21.11     -21.57       2.79        0.00     106.60       2.22       0.03       0.43       ----

> <Gold.Chemscore.Fitness>
21.1130

> <Gold.Chemscore.DG>
-21.5721

> <Gold.Chemscore.ZeroCoef>
-5.4800

> <Gold.Chemscore.Hbond>
2.7872

> <Gold.Chemscore.Metal>
0.0000

> <Gold.Chemscore.Lipo>
106.5998

> <Gold.Chemscore.Internal_Hbond>
0.0000

> <Gold.Chemscore.DEClash>
0.0267

> <Gold.Chemscore.DEInternal>
0.4325

> <Gold.Chemscore.Rot>
2.2224

> <Gold.Chemscore.Internal.Correction>
   9.000000E+99

> <Gold.Chemscore.Hbonds>
donor molecule, donor type, donor heavy atom, donor atom, acceptor molecule, acceptor atom, score
      L1  H    14    21       P1  7957  0.42
      P1  H  6896  6908       L1    18  0.38
      P1  H  7989  7998       L1    14  0.46
      P1  H  7997  8008       L1     9  0.95

> <Gold.Chemscore.Hbond.Weighted>
-9.3093

> <Gold.Chemscore.Metal.Weighted>
-0.0000

> <Gold.Chemscore.Lipo.Weighted>
-12.4722

> <Gold.Chemscore.Internal_Hbond.Weighted>
0.0000

> <Gold.Chemscore.DEClash.Weighted>
0.0267

> <Gold.Chemscore.DEInternal.Weighted>
0.4325

> <Gold.Chemscore.Rot.Weighted>
5.6893

> <Gold.Chemscore.Internal.Correction.Weighted>
   9.000000E+99

> <Gold.Protein.RotatedTorsions>
[ 6907 6896 6895 6894 ] final -164.11 input  -60.11 | X-H torsion
[ 7974 7965 7964 7962 ] final   74.90 input  175.53 | X-H torsion
[ 8008 7997 7996 7995 ] final  -70.44 input   59.86 | X-H torsion
[ 10167 10162 10161 10158 ] final  -85.53 input  -65.29 | X-H torsion
[ 10718 10713 10712 10709 ] final  174.47 input   66.30 | X-H torsion
[ 10763 10752 10751 10750 ] final  -41.69 input  -60.55 | X-H torsion
[ 11005 11000 10999 10996 ] final   -8.24 input  -57.11 | X-H torsion

> <Gold.Protein.ActiveResidues>
 VAL166  LYS551  ARG553  GLY616  TRP617  ASP618  TYR619  PRO620  LYS621  CYS622 
 ASP623  PHE694  ASN695  SER759  ASP760  ASP761  ALA762  ILE779  LEU786  VAL792 
 PHE793  MET794  SER795  GLU796  ALA797  LYS798  CYS799  TRP800  GLU811  SER814 

> <Gold.Protein.RotatedAtoms>
  151.4067  133.3740  159.2738 H   0  0  0  0  0  0  0  0  0  0  0  0  # atno 6907 bound_to 6896
  150.9393  134.8805  159.7612 H   0  0  0  0  0  0  0  0  0  0  0  0  # atno 6908 bound_to 6896
  152.5064  134.4017  159.9470 H   0  0  0  0  0  0  0  0  0  0  0  0  # atno 6909 bound_to 6896
  145.7223  139.2653  143.1588 H   0  0  0  0  0  0  0  0  0  0  0  0  # atno 7974 bound_to 7965
  154.5012  140.0834  156.7801 H   0  0  0  0  0  0  0  0  0  0  0  0  # atno 8008 bound_to 7997
  155.3999  140.3436  155.4238 H   0  0  0  0  0  0  0  0  0  0  0  0  # atno 8009 bound_to 7997
  156.1458  140.1543  156.8836 H   0  0  0  0  0  0  0  0  0  0  0  0  # atno 8010 bound_to 7997
  140.4028  143.2655  151.9120 H   0  0  0  0  0  0  0  0  0  0  0  0  # atno 10167 bound_to 10162
  156.9492  131.0025  151.2952 H   0  0  0  0  0  0  0  0  0  0  0  0  # atno 10718 bound_to 10713
  153.9667  135.6733  153.4746 H   0  0  0  0  0  0  0  0  0  0  0  0  # atno 10763 bound_to 10752
  153.0812  135.4922  154.8504 H   0  0  0  0  0  0  0  0  0  0  0  0  # atno 10764 bound_to 10752
  154.7242  135.3124  154.8958 H   0  0  0  0  0  0  0  0  0  0  0  0  # atno 10765 bound_to 10752
  140.7214  133.8825  155.8823 H   0  0  0  0  0  0  0  0  0  0  0  0  # atno 11005 bound_to 11000
  146.0614  140.7967  142.9733 LP  0  0  0  0  0  0  0  0  0  0  0  0  # atno 17320 bound_to 7965
  144.6913  140.3202  143.7233 LP  0  0  0  0  0  0  0  0  0  0  0  0  # atno 17321 bound_to 7965
  139.4784  144.5616  151.8230 LP  0  0  0  0  0  0  0  0  0  0  0  0  # atno 17342 bound_to 10162
  140.4722  144.1571  150.5919 LP  0  0  0  0  0  0  0  0  0  0  0  0  # atno 17343 bound_to 10162
  157.5733  130.8326  149.8422 LP  0  0  0  0  0  0  0  0  0  0  0  0  # atno 17370 bound_to 10713
  156.0370  130.3748  150.1534 LP  0  0  0  0  0  0  0  0  0  0  0  0  # atno 17371 bound_to 10713
  141.0000  134.1163  157.4326 LP  0  0  0  0  0  0  0  0  0  0  0  0  # atno 17394 bound_to 11000
  139.8847  135.0065  156.6387 LP  0  0  0  0  0  0  0  0  0  0  0  0  # atno 17395 bound_to 11000

$$$$
