AV-unprocessed.smi:1759|AV-procd|sdf|7088|dock6
  -GOLD-   22720 8303D 1   1.00000     0.00000
 Structure written by MMmdl.
 31 32  0  0  0  0  0  0  0  0  1 V2000
  154.7877  134.5552  162.3723 C   0  0  0  0  0  0  0  0  0  0  0  0
  154.4009  135.7894  161.6326 C   0  0  0  0  0  0  0  0  0  0  0  0
  154.2968  137.1010  162.0014 C   0  0  0  0  0  0  0  0  0  0  0  0
  153.8770  137.7374  160.8032 C   0  0  0  0  0  0  0  0  0  0  0  0
  153.6444  139.1357  160.7652 N   0  0  0  0  0  0  0  0  0  0  0  0
  153.3809  139.8929  159.6870 C   0  0  0  0  0  0  0  0  0  0  0  0
  153.3247  139.4817  158.5276 O   0  0  0  0  0  0  0  0  0  0  0  0
  153.1886  141.1750  160.0276 N   0  0  0  0  0  0  0  0  0  0  0  0
  152.9111  142.2556  159.0884 C   0  0  0  0  0  0  0  0  0  0  0  0
  152.7378  143.5992  159.8150 C   0  0  1  0  0  0  0  0  0  0  0  0
  152.6084  144.7936  158.8709 C   0  0  0  0  0  0  0  0  0  0  0  0
  151.8193  145.7684  159.7140 C   0  0  0  0  0  0  0  0  0  0  0  0
  150.8456  144.8364  160.4268 C   0  0  0  0  0  0  0  0  0  0  0  0
  151.5363  143.6000  160.5846 O   0  0  0  0  0  0  0  0  0  0  0  0
  153.7386  136.8912  159.7939 N   0  0  0  0  0  0  0  0  0  0  0  0
  154.0738  135.6382  160.3204 O   0  0  0  0  0  0  0  0  0  0  0  0
  155.0323  134.7832  163.4099 H   0  0  0  0  0  0  0  0  0  0  0  0
  155.6591  134.0875  161.9139 H   0  0  0  0  0  0  0  0  0  0  0  0
  153.9726  133.8316  162.3678 H   0  0  0  0  0  0  0  0  0  0  0  0
  154.4893  137.5325  162.9725 H   0  0  0  0  0  0  0  0  0  0  0  0
  153.6751  139.6093  161.6557 H   0  0  0  0  0  0  0  0  0  0  0  0
  153.2583  141.4274  161.0025 H   0  0  0  0  0  0  0  0  0  0  0  0
  153.7130  142.3248  158.3511 H   0  0  0  0  0  0  0  0  0  0  0  0
  152.0045  142.0083  158.5356 H   0  0  0  0  0  0  0  0  0  0  0  0
  153.5718  143.7783  160.4958 H   0  0  0  0  0  0  0  0  0  0  0  0
  153.5733  145.1873  158.5507 H   0  0  0  0  0  0  0  0  0  0  0  0
  152.0366  144.5238  157.9816 H   0  0  0  0  0  0  0  0  0  0  0  0
  152.4742  146.2554  160.4377 H   0  0  0  0  0  0  0  0  0  0  0  0
  151.3204  146.5400  159.1271 H   0  0  0  0  0  0  0  0  0  0  0  0
  150.5126  145.2346  161.3856 H   0  0  0  0  0  0  0  0  0  0  0  0
  149.9646  144.6625  159.8078 H   0  0  0  0  0  0  0  0  0  0  0  0
  1  2  1  0  0  0  0
  1 17  1  0  0  0  0
  1 18  1  0  0  0  0
  1 19  1  0  0  0  0
  2 16  1  0  0  0  0
  2  3  2  0  0  0  0
  3  4  1  0  0  0  0
  3 20  1  0  0  0  0
  4  5  1  0  0  0  0
  4 15  2  0  0  0  0
  5  6  1  0  0  0  0
  5 21  1  0  0  0  0
  6  7  2  0  0  0  0
  6  8  1  0  0  0  0
  8  9  1  0  0  0  0
  8 22  1  0  0  0  0
  9 10  1  0  0  0  0
  9 23  1  0  0  0  0
  9 24  1  0  0  0  0
 10 14  1  0  0  0  0
 10 11  1  0  0  0  0
 10 25  1  0  0  0  0
 11 12  1  0  0  0  0
 11 26  1  0  0  0  0
 11 27  1  0  0  0  0
 12 13  1  0  0  0  0
 12 28  1  0  0  0  0
 12 29  1  0  0  0  0
 13 14  1  0  0  0  0
 13 30  1  0  0  0  0
 13 31  1  0  0  0  0
 15 16  1  0  0  0  0
M  END
> <s_m_source_file>
AV-unprocessed.smi

> <i_m_source_file_index>
1759

> <i_lp_mmshare_version>
43012

> <i_f3d_flags>
0

> <s_epik_input>
W0NIM11jMVtjSF1jKG5vMSlbTkhdQyg9TylbTkhdW0NIMl1bQ0BASF0yW0NIMl1bQ0gyXVtDSDJdTzI=

> <s_epik_cmdline>
J2VwaWtfcHl0aG9uJywgJy1waCcsICc3LjAnLCAnLXRuJywgJzgnLCAnLW1hJywgJzIwMCcsICctbWV0YWxfYmluZGluZycsICctaW1hZScsICc8aW5maWxlLm1hZT4nLCAnLW9tYWUnLCAnPG91dGZpbGUubWFlPic=

> <r_lp_tautomer_probability>
1

> <r_epik_Ionization_Penalty>
2.1743e-05

> <r_epik_Ionization_Penalty_Charging>
0

> <r_epik_Ionization_Penalty_Neutral>
2.1743e-05

> <r_epik_State_Penalty>
-0

> <r_epik_Charging_Adjusted_Penalty>
0

> <i_epik_Tot_Q>
0

> <i_epik_Tot_abs_Q>
0

> <r_epik_Metal_State_Penalty>
-0

> <b_epik_Metal_Only>
0

> <s_lp_Force_Field>
OPLS_2005

> <r_lp_Energy>
14.348

> <b_lp_Chiralities_Consistent>
1

> <s_lp_Variant>
AV-unprocessed.smi:1759-2

> <Gold.Version>
5.8.1

> <Gold.Id.Protein>
6NUR|6NUR_protein|mol2

> <Gold.PLP.Fitness>
38.0007

> <Gold.PLP.PLP>
-32.0889

> <Gold.PLP.part.hbond>
-2.5809

> <Gold.PLP.part.metal>
0.0000

> <Gold.PLP.part.buried>
-4.5915

> <Gold.PLP.part.nonpolar>
-25.0329

> <Gold.PLP.part.repulsive>
0.2238

> <Gold.PLP.ligand.clash>
0.0000

> <Gold.PLP.ligand.torsion>
0.0448

> <Gold.PLP.Chemscore.Hbond>
2.0000

> <Gold.PLP.Chemscore.CHOScore>
0.0000

> <Gold.PLP.Chemscore.Metal>
0.0000

> <Gold.Chemscore.Hbonds>
donor molecule, donor type, donor heavy atom, donor atom, acceptor molecule, acceptor atom, score
      P1  H  6896  6908       L1    16  1.00
      P1  H  7997  8010       L1     7  0.91

> <Gold.PLP.Chemscore.Internal.Correction>
0.0015

> <Gold.Rescore>
     Score         DG    S(hbond)    S(metal)    S(lipo)     H(rot)  DE(clash)    DE(int)     intcor
     15.39     -16.91       1.69        0.00      77.84       1.30       0.37       1.15       ----

> <Gold.Chemscore.Fitness>
15.3897

> <Gold.Chemscore.DG>
-16.9106

> <Gold.Chemscore.ZeroCoef>
-5.4800

> <Gold.Chemscore.Hbond>
1.6892

> <Gold.Chemscore.Metal>
0.0000

> <Gold.Chemscore.Lipo>
77.8439

> <Gold.Chemscore.Internal_Hbond>
0.0000

> <Gold.Chemscore.DEClash>
0.3707

> <Gold.Chemscore.DEInternal>
1.1502

> <Gold.Chemscore.Rot>
1.2965

> <Gold.Chemscore.Internal.Correction>
   9.000000E+99

> <Gold.Chemscore.Hbonds>
donor molecule, donor type, donor heavy atom, donor atom, acceptor molecule, acceptor atom, score
      P1  H  6896  6908       L1    16  0.40
      P1  H  7997  8010       L1     7  0.83

> <Gold.Chemscore.Hbond.Weighted>
-5.6420

> <Gold.Chemscore.Metal.Weighted>
-0.0000

> <Gold.Chemscore.Lipo.Weighted>
-9.1077

> <Gold.Chemscore.Internal_Hbond.Weighted>
0.0000

> <Gold.Chemscore.DEClash.Weighted>
0.3707

> <Gold.Chemscore.DEInternal.Weighted>
1.1502

> <Gold.Chemscore.Rot.Weighted>
3.3192

> <Gold.Chemscore.Internal.Correction.Weighted>
   9.000000E+99

> <Gold.Protein.RotatedTorsions>
[ 6907 6896 6895 6894 ] final  -51.57 input  -60.11 | X-H torsion
[ 7974 7965 7964 7962 ] final  145.94 input  175.53 | X-H torsion
[ 8008 7997 7996 7995 ] final   15.90 input   59.86 | X-H torsion
[ 10167 10162 10161 10158 ] final  127.59 input  -65.29 | X-H torsion
[ 10718 10713 10712 10709 ] final  -13.83 input   66.30 | X-H torsion
[ 10763 10752 10751 10750 ] final  -91.17 input  -60.55 | X-H torsion
[ 11005 11000 10999 10996 ] final   75.85 input  -57.11 | X-H torsion

> <Gold.Protein.ActiveResidues>
 VAL166  LYS551  ARG553  GLY616  TRP617  ASP618  TYR619  PRO620  LYS621  CYS622 
 ASP623  PHE694  ASN695  SER759  ASP760  ASP761  ALA762  ILE779  LEU786  VAL792 
 PHE793  MET794  SER795  GLU796  ALA797  LYS798  CYS799  TRP800  GLU811  SER814 

> <Gold.Protein.RotatedAtoms>
  150.8599  134.7948  159.7074 H   0  0  0  0  0  0  0  0  0  0  0  0  # atno 6907 bound_to 6896
  152.4639  134.5117  159.9765 H   0  0  0  0  0  0  0  0  0  0  0  0  # atno 6908 bound_to 6896
  151.5223  133.3426  159.2939 H   0  0  0  0  0  0  0  0  0  0  0  0  # atno 6909 bound_to 6896
  144.8712  139.5844  143.5886 H   0  0  0  0  0  0  0  0  0  0  0  0  # atno 7974 bound_to 7965
  154.8692  140.2956  155.5491 H   0  0  0  0  0  0  0  0  0  0  0  0  # atno 8008 bound_to 7997
  156.3021  140.2463  156.3611 H   0  0  0  0  0  0  0  0  0  0  0  0  # atno 8009 bound_to 7997
  154.8835  140.0397  157.1785 H   0  0  0  0  0  0  0  0  0  0  0  0  # atno 8010 bound_to 7997
  139.5570  144.6856  151.4153 H   0  0  0  0  0  0  0  0  0  0  0  0  # atno 10167 bound_to 10162
  156.6246  130.4885  149.6151 H   0  0  0  0  0  0  0  0  0  0  0  0  # atno 10718 bound_to 10713
  154.6733  135.5278  153.8166 H   0  0  0  0  0  0  0  0  0  0  0  0  # atno 10763 bound_to 10752
  153.0515  135.6534  154.0691 H   0  0  0  0  0  0  0  0  0  0  0  0  # atno 10764 bound_to 10752
  154.0587  135.2963  155.3308 H   0  0  0  0  0  0  0  0  0  0  0  0  # atno 10765 bound_to 10752
  139.9325  134.7552  156.1322 H   0  0  0  0  0  0  0  0  0  0  0  0  # atno 11005 bound_to 11000
  146.2931  139.7198  142.9146 LP  0  0  0  0  0  0  0  0  0  0  0  0  # atno 17320 bound_to 7965
  145.4128  141.0398  143.3008 LP  0  0  0  0  0  0  0  0  0  0  0  0  # atno 17321 bound_to 7965
  140.6845  143.8006  150.7166 LP  0  0  0  0  0  0  0  0  0  0  0  0  # atno 17342 bound_to 10162
  140.1470  143.4391  152.2156 LP  0  0  0  0  0  0  0  0  0  0  0  0  # atno 17343 bound_to 10162
  156.2284  130.6779  151.1438 LP  0  0  0  0  0  0  0  0  0  0  0  0  # atno 17370 bound_to 10713
  157.7218  131.0677  150.6105 LP  0  0  0  0  0  0  0  0  0  0  0  0  # atno 17371 bound_to 10713
  141.0921  133.6710  156.2563 LP  0  0  0  0  0  0  0  0  0  0  0  0  # atno 17394 bound_to 11000
  140.6164  134.5406  157.5541 LP  0  0  0  0  0  0  0  0  0  0  0  0  # atno 17395 bound_to 11000

$$$$
