AV-unprocessed.smi:1180|AV-procd|sdf|4965|dock7
  -GOLD-   22720 3553D 1   1.00000     0.00000
 Structure written by MMmdl.
 37 38  0  0  0  0  0  0  0  0  2 V2000
  155.1261  139.5363  160.5327 C   0  0  0  0  0  0  0  0  0  0  0  0
  154.0062  140.4019  159.9958 C   0  0  0  0  0  0  0  0  0  0  0  0
  153.5898  141.3896  160.6928 N   0  0  0  0  0  0  0  0  0  0  0  0
  152.5503  142.1960  160.1987 C   0  0  0  0  0  0  0  0  0  0  0  0
  152.1224  143.3473  161.0918 C   0  0  0  0  0  0  0  0  0  0  0  0
  151.9757  141.9430  158.9880 C   0  0  0  0  0  0  0  0  0  0  0  0
  150.8437  142.7888  158.4050 C   0  0  0  0  0  0  0  0  0  0  0  0
  149.6468  142.0060  157.8634 C   0  0  0  0  0  0  0  0  0  0  0  0
  149.5998  140.7831  157.9950 O   0  0  0  0  0  0  0  0  0  0  0  0
  148.6832  142.7248  157.2667 N   0  0  0  0  0  0  0  0  0  0  0  0
  147.4645  142.1863  156.6725 C   0  0  0  0  0  0  0  0  0  0  0  0
  147.7380  141.5000  155.3210 C   0  0  1  0  0  0  0  0  0  0  0  0
  146.8780  142.0196  154.1873 C   0  0  0  0  0  0  0  0  0  0  0  0
  147.6460  141.5374  152.9600 C   0  0  0  0  0  0  0  0  0  0  0  0
  149.0188  141.5195  153.3411 O   0  0  0  0  0  0  0  0  0  0  0  0
  149.1382  141.7245  154.7458 C   0  0  0  0  0  0  0  0  0  0  0  0
  152.4786  140.7895  158.2200 C   0  0  0  0  0  0  0  0  0  0  0  0
  151.9794  140.5036  157.1321 O   0  0  0  0  0  0  0  0  0  0  0  0
  153.4939  140.0603  158.7644 N   0  5  0  0  0  0  0  0  0  0  0  0
  155.5358  139.9498  161.4554 H   0  0  0  0  0  0  0  0  0  0  0  0
  155.9340  139.4651  159.8036 H   0  0  0  0  0  0  0  0  0  0  0  0
  154.7582  138.5313  160.7414 H   0  0  0  0  0  0  0  0  0  0  0  0
  151.0588  143.2816  161.3208 H   0  0  0  0  0  0  0  0  0  0  0  0
  152.3155  144.3022  160.6033 H   0  0  0  0  0  0  0  0  0  0  0  0
  152.6676  143.3381  162.0362 H   0  0  0  0  0  0  0  0  0  0  0  0
  150.4864  143.4715  159.1762 H   0  0  0  0  0  0  0  0  0  0  0  0
  151.2163  143.4419  157.6154 H   0  0  0  0  0  0  0  0  0  0  0  0
  148.8145  143.7251  157.2079 H   0  0  0  0  0  0  0  0  0  0  0  0
  147.0530  141.4588  157.3723 H   0  0  0  0  0  0  0  0  0  0  0  0
  146.7078  142.9653  156.5649 H   0  0  0  0  0  0  0  0  0  0  0  0
  147.5665  140.4265  155.4182 H   0  0  0  0  0  0  0  0  0  0  0  0
  145.8536  141.6471  154.2197 H   0  0  0  0  0  0  0  0  0  0  0  0
  146.8458  143.1103  154.2028 H   0  0  0  0  0  0  0  0  0  0  0  0
  147.3469  140.5217  152.6984 H   0  0  0  0  0  0  0  0  0  0  0  0
  147.4808  142.1735  152.0900 H   0  0  0  0  0  0  0  0  0  0  0  0
  149.4650  142.7518  154.9136 H   0  0  0  0  0  0  0  0  0  0  0  0
  149.8820  141.0579  155.1829 H   0  0  0  0  0  0  0  0  0  0  0  0
  1  2  1  0  0  0  0
  1 20  1  0  0  0  0
  1 21  1  0  0  0  0
  1 22  1  0  0  0  0
  2 19  1  0  0  0  0
  2  3  2  0  0  0  0
  3  4  1  0  0  0  0
  4  5  1  0  0  0  0
  4  6  2  0  0  0  0
  5 23  1  0  0  0  0
  5 24  1  0  0  0  0
  5 25  1  0  0  0  0
  6  7  1  0  0  0  0
  6 17  1  0  0  0  0
  7  8  1  0  0  0  0
  7 26  1  0  0  0  0
  7 27  1  0  0  0  0
  8  9  2  0  0  0  0
  8 10  1  0  0  0  0
 10 11  1  0  0  0  0
 10 28  1  0  0  0  0
 11 12  1  0  0  0  0
 11 29  1  0  0  0  0
 11 30  1  0  0  0  0
 12 16  1  0  0  0  0
 12 13  1  0  0  0  0
 12 31  1  0  0  0  0
 13 14  1  0  0  0  0
 13 32  1  0  0  0  0
 13 33  1  0  0  0  0
 14 15  1  0  0  0  0
 14 34  1  0  0  0  0
 14 35  1  0  0  0  0
 15 16  1  0  0  0  0
 16 36  1  0  0  0  0
 16 37  1  0  0  0  0
 17 18  2  0  0  0  0
 17 19  1  0  0  0  0
M  CHG  1  19  -1
M  END
> <s_m_source_file>
AV-unprocessed.smi

> <i_m_source_file_index>
1180

> <i_lp_mmshare_version>
43012

> <i_f3d_flags>
0

> <s_epik_input>
W0NIM11jMW5jKFtDSDNdKWMoYyg9TylbbkhdMSlbQ0gyXUMoPU8pW05IXVtDSDJdW0NAQEhdMltDSDJdW0NIMl1PW0NIMl0y

> <s_epik_cmdline>
J2VwaWtfcHl0aG9uJywgJy1waCcsICc3LjAnLCAnLXRuJywgJzgnLCAnLW1hJywgJzIwMCcsICctbWV0YWxfYmluZGluZycsICctaW1hZScsICc8aW5maWxlLm1hZT4nLCAnLW9tYWUnLCAnPG91dGZpbGUubWFlPic=

> <r_lp_tautomer_probability>
0.839158

> <r_epik_Ionization_Penalty>
6.60319

> <r_epik_Ionization_Penalty_Charging>
6.85407e-08

> <r_epik_Ionization_Penalty_Neutral>
6.60319

> <r_epik_State_Penalty>
4.42883

> <r_epik_Charging_Adjusted_Penalty>
4.42883

> <i_epik_Tot_Q>
-1

> <i_epik_Tot_abs_Q>
1

> <r_epik_Metal_State_Penalty>
0.797578

> <b_epik_Metal_Only>
1

> <s_lp_Force_Field>
OPLS_2005

> <r_lp_Energy>
23.195

> <b_lp_Chiralities_Consistent>
1

> <s_lp_Variant>
AV-unprocessed.smi:1180-6

> <Gold.Version>
5.8.1

> <Gold.Id.Protein>
6NUR|6NUR_protein|mol2

> <Gold.PLP.Fitness>
39.6728

> <Gold.PLP.PLP>
-30.7739

> <Gold.PLP.part.hbond>
-3.0627

> <Gold.PLP.part.metal>
0.0000

> <Gold.PLP.part.buried>
-5.6743

> <Gold.PLP.part.nonpolar>
-24.4462

> <Gold.PLP.part.repulsive>
2.5914

> <Gold.PLP.ligand.clash>
0.0000

> <Gold.PLP.ligand.torsion>
0.9550

> <Gold.PLP.Chemscore.Hbond>
3.5984

> <Gold.PLP.Chemscore.CHOScore>
0.0000

> <Gold.PLP.Chemscore.Metal>
0.0000

> <Gold.Chemscore.Hbonds>
donor molecule, donor type, donor heavy atom, donor atom, acceptor molecule, acceptor atom, score
      L1  H    10    28       P1  8028  0.46
      P1  H  7997  8009       L1    19  1.87
      P1  H  8011  8017       L1    15  0.88

> <Gold.PLP.Chemscore.Internal.Correction>
0.0137

> <Gold.Rescore>
     Score         DG    S(hbond)    S(metal)    S(lipo)     H(rot)  DE(clash)    DE(int)     intcor
      9.06     -12.46       1.04        0.00      68.58       1.76       0.02       3.38       ----

> <Gold.Chemscore.Fitness>
9.0617

> <Gold.Chemscore.DG>
-12.4616

> <Gold.Chemscore.ZeroCoef>
-5.4800

> <Gold.Chemscore.Hbond>
1.0353

> <Gold.Chemscore.Metal>
0.0000

> <Gold.Chemscore.Lipo>
68.5765

> <Gold.Chemscore.Internal_Hbond>
0.0000

> <Gold.Chemscore.DEClash>
0.0197

> <Gold.Chemscore.DEInternal>
3.3802

> <Gold.Chemscore.Rot>
1.7577

> <Gold.Chemscore.Internal.Correction>
   9.000000E+99

> <Gold.Chemscore.Hbonds>
donor molecule, donor type, donor heavy atom, donor atom, acceptor molecule, acceptor atom, score
      L1  H    10    28       P1  8028  0.08
      P1  H  7997  8009       L1    19  0.26
      P1  H  8011  8017       L1    15  0.49

> <Gold.Chemscore.Hbond.Weighted>
-3.4579

> <Gold.Chemscore.Metal.Weighted>
-0.0000

> <Gold.Chemscore.Lipo.Weighted>
-8.0235

> <Gold.Chemscore.Internal_Hbond.Weighted>
0.0000

> <Gold.Chemscore.DEClash.Weighted>
0.0197

> <Gold.Chemscore.DEInternal.Weighted>
3.3802

> <Gold.Chemscore.Rot.Weighted>
4.4998

> <Gold.Chemscore.Internal.Correction.Weighted>
   9.000000E+99

> <Gold.Protein.RotatedTorsions>
[ 6907 6896 6895 6894 ] final   75.24 input  -60.11 | X-H torsion
[ 7974 7965 7964 7962 ] final  148.30 input  175.53 | X-H torsion
[ 8008 7997 7996 7995 ] final  134.38 input   59.86 | X-H torsion
[ 10167 10162 10161 10158 ] final   49.77 input  -65.29 | X-H torsion
[ 10718 10713 10712 10709 ] final -155.34 input   66.30 | X-H torsion
[ 10763 10752 10751 10750 ] final  -46.30 input  -60.55 | X-H torsion
[ 11005 11000 10999 10996 ] final    2.12 input  -57.11 | X-H torsion

> <Gold.Protein.ActiveResidues>
 VAL166  LYS551  ARG553  GLY616  TRP617  ASP618  TYR619  PRO620  LYS621  CYS622 
 ASP623  PHE694  ASN695  SER759  ASP760  ASP761  ALA762  ILE779  LEU786  VAL792 
 PHE793  MET794  SER795  GLU796  ALA797  LYS798  CYS799  TRP800  GLU811  SER814 

> <Gold.Protein.RotatedAtoms>
  152.5016  134.4149  159.9461 H   0  0  0  0  0  0  0  0  0  0  0  0  # atno 6907 bound_to 6896
  151.4119  133.3718  159.2753 H   0  0  0  0  0  0  0  0  0  0  0  0  # atno 6908 bound_to 6896
  150.9285  134.8723  159.7595 H   0  0  0  0  0  0  0  0  0  0  0  0  # atno 6909 bound_to 6896
  144.8525  139.6136  143.5967 H   0  0  0  0  0  0  0  0  0  0  0  0  # atno 7974 bound_to 7965
  156.2998  140.2497  156.3407 H   0  0  0  0  0  0  0  0  0  0  0  0  # atno 8008 bound_to 7997
  154.9057  140.0405  157.1937 H   0  0  0  0  0  0  0  0  0  0  0  0  # atno 8009 bound_to 7997
  154.8455  140.2897  155.5636 H   0  0  0  0  0  0  0  0  0  0  0  0  # atno 8010 bound_to 7997
  140.2794  144.3174  150.6268 H   0  0  0  0  0  0  0  0  0  0  0  0  # atno 10167 bound_to 10162
  156.5115  130.8437  151.2648 H   0  0  0  0  0  0  0  0  0  0  0  0  # atno 10718 bound_to 10713
  154.0428  135.6642  153.4792 H   0  0  0  0  0  0  0  0  0  0  0  0  # atno 10763 bound_to 10752
  153.0495  135.5093  154.7826 H   0  0  0  0  0  0  0  0  0  0  0  0  # atno 10764 bound_to 10752
  154.6807  135.3044  154.9582 H   0  0  0  0  0  0  0  0  0  0  0  0  # atno 10765 bound_to 10752
  140.6079  133.9776  155.8163 H   0  0  0  0  0  0  0  0  0  0  0  0  # atno 11005 bound_to 11000
  146.2796  139.6843  142.9238 LP  0  0  0  0  0  0  0  0  0  0  0  0  # atno 17320 bound_to 7965
  145.4472  141.0426  143.2825 LP  0  0  0  0  0  0  0  0  0  0  0  0  # atno 17321 bound_to 7965
  140.5824  143.2172  151.7403 LP  0  0  0  0  0  0  0  0  0  0  0  0  # atno 17342 bound_to 10162
  139.4967  144.4060  152.0131 LP  0  0  0  0  0  0  0  0  0  0  0  0  # atno 17343 bound_to 10162
  157.7450  130.9948  150.2721 LP  0  0  0  0  0  0  0  0  0  0  0  0  # atno 17370 bound_to 10713
  156.3236  130.3789  149.7553 LP  0  0  0  0  0  0  0  0  0  0  0  0  # atno 17371 bound_to 10713
  141.0828  134.0036  157.3359 LP  0  0  0  0  0  0  0  0  0  0  0  0  # atno 17394 bound_to 11000
  139.9205  135.0200  156.8044 LP  0  0  0  0  0  0  0  0  0  0  0  0  # atno 17395 bound_to 11000

$$$$
