AV-unprocessed.smi:99|AV-procd|sdf|872|dock1
  -GOLD-   2262017333D 1   1.00000     0.00000
 Structure written by MMmdl.
 53 56  0  0  0  0  0  0  0  0  1 V2000
  147.3560  137.8874  159.2539 O   0  0  0  0  0  0  0  0  0  0  0  0
  147.9223  136.9487  159.8179 C   0  0  0  0  0  0  0  0  0  0  0  0
  149.2000  136.5957  159.5765 O   0  0  0  0  0  0  0  0  0  0  0  0
  149.9637  137.3098  158.6191 C   0  0  0  0  0  0  0  0  0  0  0  0
  151.0192  136.3679  158.0068 C   0  0  1  0  0  0  0  0  0  0  0  0
  150.4340  135.0822  157.8478 O   0  0  0  0  0  0  0  0  0  0  0  0
  149.7984  135.0008  156.6089 C   0  0  2  0  0  0  0  0  0  0  0  0
  150.0417  133.6124  156.0557 N   0  0  0  0  0  0  0  0  0  0  0  0
  150.9715  132.7716  156.6521 C   0  0  0  0  0  0  0  0  0  0  0  0
  151.2251  131.5173  156.2102 C   0  0  0  0  0  0  0  0  0  0  0  0
  150.5105  130.9814  155.0560 C   0  0  0  0  0  0  0  0  0  0  0  0
  150.6680  129.8575  154.5840 O   0  0  0  0  0  0  0  0  0  0  0  0
  149.5877  131.8626  154.4843 N   0  0  0  0  0  0  0  0  0  0  0  0
  149.3199  133.1588  154.9292 C   0  0  0  0  0  0  0  0  0  0  0  0
  148.4924  133.8508  154.3374 O   0  0  0  0  0  0  0  0  0  0  0  0
  150.3550  136.1273  155.7079 C   0  0  2  0  0  0  0  0  0  0  0  0
  150.8823  135.6876  154.4688 O   0  0  0  0  0  0  0  0  0  0  0  0
  151.4507  136.7325  156.5796 C   0  0  1  0  0  0  0  0  0  0  0  0
  151.5385  138.1446  156.4226 O   0  0  0  0  0  0  0  0  0  0  0  0
  152.4313  138.8697  157.1289 C   0  0  0  0  0  0  0  0  0  0  0  0
  153.5078  138.4251  157.5315 O   0  0  0  0  0  0  0  0  0  0  0  0
  151.9797  140.2710  157.3646 C   0  0  0  0  0  0  0  0  0  0  0  0
  152.5172  140.9985  158.4520 C   0  0  0  0  0  0  0  0  0  0  0  0
  152.1113  142.3243  158.6988 C   0  0  0  0  0  0  0  0  0  0  0  0
  151.1622  142.9387  157.8616 C   0  0  0  0  0  0  0  0  0  0  0  0
  150.6192  142.2256  156.7772 C   0  0  0  0  0  0  0  0  0  0  0  0
  151.0243  140.8998  156.5281 C   0  0  0  0  0  0  0  0  0  0  0  0
  147.2642  136.0842  160.8395 C   0  0  0  0  0  0  0  0  0  0  0  0
  147.8966  134.8855  161.2446 C   0  0  0  0  0  0  0  0  0  0  0  0
  147.2998  134.0500  162.2087 C   0  0  0  0  0  0  0  0  0  0  0  0
  146.0629  134.4023  162.7792 C   0  0  0  0  0  0  0  0  0  0  0  0
  145.4233  135.5919  162.3846 C   0  0  0  0  0  0  0  0  0  0  0  0
  146.0189  136.4293  161.4211 C   0  0  0  0  0  0  0  0  0  0  0  0
  149.0742  131.5347  153.6792 H   0  0  0  0  0  0  0  0  0  0  0  0
  149.3147  137.7279  157.8485 H   0  0  0  0  0  0  0  0  0  0  0  0
  150.4514  138.1444  159.1244 H   0  0  0  0  0  0  0  0  0  0  0  0
  151.8873  136.3131  158.6648 H   0  0  0  0  0  0  0  0  0  0  0  0
  148.7266  135.1045  156.7827 H   0  0  0  0  0  0  0  0  0  0  0  0
  151.5285  133.1303  157.5060 H   0  0  0  0  0  0  0  0  0  0  0  0
  151.9617  130.9072  156.7125 H   0  0  0  0  0  0  0  0  0  0  0  0
  149.5537  136.8470  155.5339 H   0  0  0  0  0  0  0  0  0  0  0  0
  150.2282  135.8190  153.7994 H   0  0  0  0  0  0  0  0  0  0  0  0
  152.4058  136.2433  156.3790 H   0  0  0  0  0  0  0  0  0  0  0  0
  153.2476  140.5481  159.1086 H   0  0  0  0  0  0  0  0  0  0  0  0
  152.5291  142.8698  159.5320 H   0  0  0  0  0  0  0  0  0  0  0  0
  150.8512  143.9555  158.0510 H   0  0  0  0  0  0  0  0  0  0  0  0
  149.8902  142.6967  156.1343 H   0  0  0  0  0  0  0  0  0  0  0  0
  150.5873  140.3814  155.6871 H   0  0  0  0  0  0  0  0  0  0  0  0
  148.8470  134.5942  160.8210 H   0  0  0  0  0  0  0  0  0  0  0  0
  147.7928  133.1378  162.5113 H   0  0  0  0  0  0  0  0  0  0  0  0
  145.6057  133.7615  163.5188 H   0  0  0  0  0  0  0  0  0  0  0  0
  144.4739  135.8637  162.8220 H   0  0  0  0  0  0  0  0  0  0  0  0
  145.5016  137.3356  161.1419 H   0  0  0  0  0  0  0  0  0  0  0  0
  1  2  2  0  0  0  0
  2  3  1  0  0  0  0
  2 28  1  0  0  0  0
  3  4  1  0  0  0  0
  4  5  1  0  0  0  0
  4 35  1  0  0  0  0
  4 36  1  0  0  0  0
  5 18  1  0  0  0  0
  5  6  1  0  0  0  0
  5 37  1  0  0  0  0
  6  7  1  0  0  0  0
  7  8  1  0  0  0  0
  7 16  1  0  0  0  0
  7 38  1  0  0  0  0
  8 14  1  0  0  0  0
  8  9  1  0  0  0  0
  9 10  2  0  0  0  0
  9 39  1  0  0  0  0
 10 11  1  0  0  0  0
 10 40  1  0  0  0  0
 11 12  2  0  0  0  0
 11 13  1  0  0  0  0
 13 34  1  0  0  0  0
 13 14  1  0  0  0  0
 14 15  2  0  0  0  0
 16 17  1  0  0  0  0
 16 18  1  0  0  0  0
 16 41  1  0  0  0  0
 17 42  1  0  0  0  0
 18 19  1  0  0  0  0
 18 43  1  0  0  0  0
 19 20  1  0  0  0  0
 20 21  2  0  0  0  0
 20 22  1  0  0  0  0
 22 27  1  0  0  0  0
 22 23  2  0  0  0  0
 23 24  1  0  0  0  0
 23 44  1  0  0  0  0
 24 25  2  0  0  0  0
 24 45  1  0  0  0  0
 25 26  1  0  0  0  0
 25 46  1  0  0  0  0
 26 27  2  0  0  0  0
 26 47  1  0  0  0  0
 27 48  1  0  0  0  0
 28 33  1  0  0  0  0
 28 29  2  0  0  0  0
 29 30  1  0  0  0  0
 29 49  1  0  0  0  0
 30 31  2  0  0  0  0
 30 50  1  0  0  0  0
 31 32  1  0  0  0  0
 31 51  1  0  0  0  0
 32 33  2  0  0  0  0
 32 52  1  0  0  0  0
 33 53  1  0  0  0  0
M  END
> <s_m_source_file>
AV-unprocessed.smi

> <i_m_source_file_index>
99

> <i_lp_mmshare_version>
43012

> <i_f3d_flags>
0

> <s_epik_input>
W2NIXTFbY0hdW2NIXVtjSF1bY0hdYzFDKD1PKU9bQ0gyXVtDQEBIXTJPW0NAQEhdKG4zW2NIXVtjSF1jKD1PKVtuSF1jMz1PKVtDQEBIXShbT0hdKVtDQEhdMk9DKD1PKWM0W2NIXVtjSF1bY0hdW2NIXVtjSF00

> <s_epik_cmdline>
J2VwaWtfcHl0aG9uJywgJy1waCcsICc3LjAnLCAnLXRuJywgJzgnLCAnLW1hJywgJzIwMCcsICctbWV0YWxfYmluZGluZycsICctaW1hZScsICc8aW5maWxlLm1hZT4nLCAnLW9tYWUnLCAnPG91dGZpbGUubWFlPic=

> <r_lp_tautomer_probability>
1

> <r_epik_Ionization_Penalty>
0.00454555

> <r_epik_Ionization_Penalty_Charging>
0.0045191

> <r_epik_Ionization_Penalty_Neutral>
2.64449e-05

> <r_epik_State_Penalty>
-0

> <r_epik_Charging_Adjusted_Penalty>
0.0045191

> <i_epik_Tot_Q>
0

> <i_epik_Tot_abs_Q>
0

> <r_epik_Metal_State_Penalty>
1.27877

> <b_epik_Metal_Only>
0

> <s_epik_Chemistry_Notes>
This compound has an ester and may undergo hydrolysis at high or low pH. This compound contains an acetal/aminal-like group ( X-CH(R)-Y where X, Y are N, S, or O) that may be acid/base labile, releasing an aldehyde.

> <s_lp_Force_Field>
OPLS_2005

> <r_lp_Energy>
42.9918

> <b_lp_Chiralities_Consistent>
1

> <s_lp_Variant>
AV-unprocessed.smi:99-8

> <Gold.Version>
5.8.1

> <Gold.Id.Protein>
6NUR|6NUR_protein|mol2

> <Gold.PLP.Fitness>
54.4821

> <Gold.PLP.PLP>
-46.8589

> <Gold.PLP.part.hbond>
-5.5445

> <Gold.PLP.part.metal>
0.0000

> <Gold.PLP.part.buried>
-4.9062

> <Gold.PLP.part.nonpolar>
-37.9151

> <Gold.PLP.part.repulsive>
0.2240

> <Gold.PLP.ligand.clash>
0.0000

> <Gold.PLP.ligand.torsion>
1.3658

> <Gold.PLP.Chemscore.Hbond>
3.2130

> <Gold.PLP.Chemscore.CHOScore>
0.0000

> <Gold.PLP.Chemscore.Metal>
0.0000

> <Gold.Chemscore.Hbonds>
donor molecule, donor type, donor heavy atom, donor atom, acceptor molecule, acceptor atom, score
      L1  H    17    42       P1  7948  0.12
      P1  H  6896  6907       L1     6  0.59
      P1  H  6934  6947       L1     1  0.46
      P1  H  7997  8009       L1    21  0.92
      P1  H 10752 10763       L1    17  0.99

> <Gold.PLP.Chemscore.Internal.Correction>
0.7160

> <Gold.Rescore>
     Score         DG    S(hbond)    S(metal)    S(lipo)     H(rot)  DE(clash)    DE(int)     intcor
     17.93     -19.61       2.64        0.00     115.14       3.19       0.13       1.55       ----

> <Gold.Chemscore.Fitness>
17.9330

> <Gold.Chemscore.DG>
-19.6133

> <Gold.Chemscore.ZeroCoef>
-5.4800

> <Gold.Chemscore.Hbond>
2.6435

> <Gold.Chemscore.Metal>
0.0000

> <Gold.Chemscore.Lipo>
115.1370

> <Gold.Chemscore.Internal_Hbond>
0.0000

> <Gold.Chemscore.DEClash>
0.1311

> <Gold.Chemscore.DEInternal>
1.5492

> <Gold.Chemscore.Rot>
3.1903

> <Gold.Chemscore.Internal.Correction>
   9.000000E+99

> <Gold.Chemscore.Hbonds>
donor molecule, donor type, donor heavy atom, donor atom, acceptor molecule, acceptor atom, score
      P1  H  6896  6907       L1     6  0.27
      P1  H  6934  6947       L1     1  0.07
      P1  H  7997  8009       L1    21  0.25
      P1  H 10752 10763       L1    17  0.83

> <Gold.Chemscore.Hbond.Weighted>
-8.8294

> <Gold.Chemscore.Metal.Weighted>
-0.0000

> <Gold.Chemscore.Lipo.Weighted>
-13.4710

> <Gold.Chemscore.Internal_Hbond.Weighted>
0.0000

> <Gold.Chemscore.DEClash.Weighted>
0.1311

> <Gold.Chemscore.DEInternal.Weighted>
1.5492

> <Gold.Chemscore.Rot.Weighted>
8.1671

> <Gold.Chemscore.Internal.Correction.Weighted>
   9.000000E+99

> <Gold.Protein.RotatedTorsions>
[ 6907 6896 6895 6894 ] final  -88.74 input  -60.11 | X-H torsion
[ 7974 7965 7964 7962 ] final  117.30 input  175.53 | X-H torsion
[ 8008 7997 7996 7995 ] final  143.11 input   59.86 | X-H torsion
[ 10167 10162 10161 10158 ] final   24.90 input  -65.29 | X-H torsion
[ 10718 10713 10712 10709 ] final  -53.56 input   66.30 | X-H torsion
[ 10763 10752 10751 10750 ] final   47.69 input  -60.55 | X-H torsion
[ 11005 11000 10999 10996 ] final -120.36 input  -57.11 | X-H torsion

> <Gold.Protein.ActiveResidues>
 VAL166  LYS551  ARG553  GLY616  TRP617  ASP618  TYR619  PRO620  LYS621  CYS622 
 ASP623  PHE694  ASN695  SER759  ASP760  ASP761  ALA762  ILE779  LEU786  VAL792 
 PHE793  MET794  SER795  GLU796  ALA797  LYS798  CYS799  TRP800  GLU811  SER814 

> <Gold.Protein.RotatedAtoms>
  150.6870  134.2695  159.4581 H   0  0  0  0  0  0  0  0  0  0  0  0  # atno 6907 bound_to 6896
  152.0618  134.9587  160.0584 H   0  0  0  0  0  0  0  0  0  0  0  0  # atno 6908 bound_to 6896
  152.1011  133.4215  159.4624 H   0  0  0  0  0  0  0  0  0  0  0  0  # atno 6909 bound_to 6896
  145.1690  139.3112  143.4477 H   0  0  0  0  0  0  0  0  0  0  0  0  # atno 7974 bound_to 7965
  156.2936  140.2271  156.4838 H   0  0  0  0  0  0  0  0  0  0  0  0  # atno 8008 bound_to 7997
  154.7830  140.0459  157.1163 H   0  0  0  0  0  0  0  0  0  0  0  0  # atno 8009 bound_to 7997
  154.9736  140.3069  155.4980 H   0  0  0  0  0  0  0  0  0  0  0  0  # atno 8010 bound_to 7997
  140.5150  144.0097  150.6390 H   0  0  0  0  0  0  0  0  0  0  0  0  # atno 10167 bound_to 10162
  156.1524  130.4151  149.9923 H   0  0  0  0  0  0  0  0  0  0  0  0  # atno 10718 bound_to 10713
  152.9798  135.5968  154.3803 H   0  0  0  0  0  0  0  0  0  0  0  0  # atno 10763 bound_to 10752
  154.3469  135.2767  155.2395 H   0  0  0  0  0  0  0  0  0  0  0  0  # atno 10764 bound_to 10752
  154.4452  135.6003  153.6210 H   0  0  0  0  0  0  0  0  0  0  0  0  # atno 10765 bound_to 10752
  141.0149  134.0210  157.3363 H   0  0  0  0  0  0  0  0  0  0  0  0  # atno 11005 bound_to 11000
  146.3471  140.1829  142.8589 LP  0  0  0  0  0  0  0  0  0  0  0  0  # atno 17320 bound_to 7965
  145.0252  140.8826  143.5143 LP  0  0  0  0  0  0  0  0  0  0  0  0  # atno 17321 bound_to 7965
  140.3430  143.3008  152.0567 LP  0  0  0  0  0  0  0  0  0  0  0  0  # atno 17342 bound_to 10162
  139.4906  144.6428  151.6840 LP  0  0  0  0  0  0  0  0  0  0  0  0  # atno 17343 bound_to 10162
  156.7776  130.9209  151.3645 LP  0  0  0  0  0  0  0  0  0  0  0  0  # atno 17370 bound_to 10713
  157.6668  130.9015  149.9950 LP  0  0  0  0  0  0  0  0  0  0  0  0  # atno 17371 bound_to 10713
  139.9111  135.0190  156.7695 LP  0  0  0  0  0  0  0  0  0  0  0  0  # atno 17394 bound_to 11000
  140.6672  133.9592  155.7836 LP  0  0  0  0  0  0  0  0  0  0  0  0  # atno 17395 bound_to 11000

$$$$
