AV-unprocessed.smi:55|AV-procd|sdf|570|dock4
  -GOLD-   2262016473D 1   1.00000     0.00000
 Structure written by MMmdl.
 30 31  0  0  0  0  0  0  0  0  2 V2000
  152.0929  137.7920  154.2918 C   0  0  0  0  0  0  0  0  0  0  0  0
  151.0585  138.8493  154.6358 C   0  0  0  0  0  0  0  0  0  0  0  0
  149.8207  138.8508  154.0935 C   0  0  0  0  0  0  0  0  0  0  0  0
  148.8819  139.8174  154.4073 N   0  0  0  0  0  0  0  0  0  0  0  0
  147.5106  139.7850  153.7713 C   0  0  1  0  0  0  0  0  0  0  0  0
  147.6197  139.6360  152.2521 C   0  0  0  0  0  0  0  0  0  0  0  0
  146.4648  138.7025  151.9549 C   0  0  1  0  0  0  0  0  0  0  0  0
  146.6930  137.9845  150.7595 O   0  0  0  0  0  0  0  0  0  0  0  0
  146.4635  137.7990  153.1918 C   0  0  2  0  0  0  0  0  0  0  0  0
  145.1146  137.1319  153.5022 C   0  0  0  0  0  0  0  0  0  0  0  0
  144.1309  138.1045  153.7853 O   0  0  0  0  0  0  0  0  0  0  0  0
  146.8075  138.6788  154.2597 O   0  0  0  0  0  0  0  0  0  0  0  0
  149.2233  140.8612  155.3072 C   0  0  0  0  0  0  0  0  0  0  0  0
  148.3826  141.7299  155.5399 O   0  0  0  0  0  0  0  0  0  0  0  0
  150.4670  140.8626  155.8666 N   0  5  0  0  0  0  0  0  0  0  0  0
  151.4053  139.9132  155.5856 C   0  0  0  0  0  0  0  0  0  0  0  0
  152.5229  139.9256  156.1004 O   0  0  0  0  0  0  0  0  0  0  0  0
  146.9725  140.6799  154.0850 H   0  0  0  0  0  0  0  0  0  0  0  0
  145.5344  139.2680  151.8865 H   0  0  0  0  0  0  0  0  0  0  0  0
  147.2521  137.0485  153.1139 H   0  0  0  0  0  0  0  0  0  0  0  0
  151.6974  137.0678  153.5792 H   0  0  0  0  0  0  0  0  0  0  0  0
  152.3980  137.2516  155.1884 H   0  0  0  0  0  0  0  0  0  0  0  0
  152.9768  138.2531  153.8499 H   0  0  0  0  0  0  0  0  0  0  0  0
  149.5618  138.0749  153.3895 H   0  0  0  0  0  0  0  0  0  0  0  0
  147.5505  140.6028  151.7526 H   0  0  0  0  0  0  0  0  0  0  0  0
  148.5724  139.1693  151.9948 H   0  0  0  0  0  0  0  0  0  0  0  0
  146.4914  137.0744  150.9165 H   0  0  0  0  0  0  0  0  0  0  0  0
  144.7809  136.5505  152.6425 H   0  0  0  0  0  0  0  0  0  0  0  0
  145.2029  136.4425  154.3421 H   0  0  0  0  0  0  0  0  0  0  0  0
  144.1773  138.7791  153.1250 H   0  0  0  0  0  0  0  0  0  0  0  0
  1  2  1  0  0  0  0
  1 21  1  0  0  0  0
  1 22  1  0  0  0  0
  1 23  1  0  0  0  0
  2 16  1  0  0  0  0
  2  3  2  0  0  0  0
  3  4  1  0  0  0  0
  3 24  1  0  0  0  0
  4  5  1  0  0  0  0
  4 13  1  0  0  0  0
  5 18  1  0  0  0  0
  5 12  1  0  0  0  0
  5  6  1  0  0  0  0
  6  7  1  0  0  0  0
  6 25  1  0  0  0  0
  6 26  1  0  0  0  0
  7 19  1  0  0  0  0
  7  8  1  0  0  0  0
  7  9  1  0  0  0  0
  8 27  1  0  0  0  0
  9 20  1  0  0  0  0
  9 10  1  0  0  0  0
  9 12  1  0  0  0  0
 10 11  1  0  0  0  0
 10 28  1  0  0  0  0
 10 29  1  0  0  0  0
 11 30  1  0  0  0  0
 13 14  2  0  0  0  0
 13 15  1  0  0  0  0
 15 16  1  0  0  0  0
 16 17  2  0  0  0  0
M  CHG  1  15  -1
M  END
> <s_m_source_file>
AV-unprocessed.smi

> <i_m_source_file_index>
55

> <i_lp_mmshare_version>
43012

> <i_f3d_flags>
0

> <s_epik_input>
Tz1jMVtuSF1jKD1PKW4oW2NIXWMxW0NIM10pW0NAQEhdMltDSDJdW0NAQEhdKFtPSF0pW0NAQEhdKE8yKVtDSDJdW09IXQ==

> <s_epik_cmdline>
J2VwaWtfcHl0aG9uJywgJy1waCcsICc3LjAnLCAnLXRuJywgJzgnLCAnLW1hJywgJzIwMCcsICctbWV0YWxfYmluZGluZycsICctaW1hZScsICc8aW5maWxlLm1hZT4nLCAnLW9tYWUnLCAnPG91dGZpbGUubWFlPic=

> <r_lp_tautomer_probability>
0.999537

> <r_epik_Ionization_Penalty>
3.66603

> <r_epik_Ionization_Penalty_Charging>
1.09773e-07

> <r_epik_Ionization_Penalty_Neutral>
3.66603

> <r_epik_State_Penalty>
3.66562

> <r_epik_Charging_Adjusted_Penalty>
3.66562

> <i_epik_Tot_Q>
-1

> <i_epik_Tot_abs_Q>
1

> <r_epik_Metal_State_Penalty>
0.234536

> <b_epik_Metal_Only>
1

> <s_epik_Chemistry_Notes>
This compound contains an acetal/aminal-like group ( X-CH(R)-Y where X, Y are N, S, or O) that may be acid/base labile, releasing an aldehyde.

> <s_lp_Force_Field>
OPLS_2005

> <r_lp_Energy>
34.2111

> <b_lp_Chiralities_Consistent>
1

> <s_lp_Variant>
AV-unprocessed.smi:55-10

> <Gold.Version>
5.8.1

> <Gold.Id.Protein>
6NUR|6NUR_protein|mol2

> <Gold.PLP.Fitness>
38.7709

> <Gold.PLP.PLP>
-27.1052

> <Gold.PLP.part.hbond>
-4.9878

> <Gold.PLP.part.metal>
0.0000

> <Gold.PLP.part.buried>
2.9666

> <Gold.PLP.part.nonpolar>
-26.0991

> <Gold.PLP.part.repulsive>
0.9696

> <Gold.PLP.ligand.clash>
0.0000

> <Gold.PLP.ligand.torsion>
0.1594

> <Gold.PLP.Chemscore.Hbond>
2.9920

> <Gold.PLP.Chemscore.CHOScore>
1.0000

> <Gold.PLP.Chemscore.Metal>
0.0000

> <Gold.Chemscore.Hbonds>
donor molecule, donor type, donor heavy atom, donor atom, acceptor molecule, acceptor atom, score
      L1  H    11    30       P1 10175  1.00
      P1  H  7954  7966       L1     8  1.00
      P1  H  7997  8009       L1    17  1.00
      L1  C     3    24       P1  7948  1.00

> <Gold.PLP.Chemscore.Internal.Correction>
0.0085

> <Gold.Rescore>
     Score         DG    S(hbond)    S(metal)    S(lipo)     H(rot)  DE(clash)    DE(int)     intcor
     12.01     -14.44       2.92        0.00      52.00       2.69       2.12       0.31       ----

> <Gold.Chemscore.Fitness>
12.0070

> <Gold.Chemscore.DG>
-14.4361

> <Gold.Chemscore.ZeroCoef>
-5.4800

> <Gold.Chemscore.Hbond>
2.9196

> <Gold.Chemscore.Metal>
0.0000

> <Gold.Chemscore.Lipo>
51.9987

> <Gold.Chemscore.Internal_Hbond>
0.0000

> <Gold.Chemscore.DEClash>
2.1224

> <Gold.Chemscore.DEInternal>
0.3067

> <Gold.Chemscore.Rot>
2.6871

> <Gold.Chemscore.Internal.Correction>
   9.000000E+99

> <Gold.Chemscore.Hbonds>
donor molecule, donor type, donor heavy atom, donor atom, acceptor molecule, acceptor atom, score
      L1  H    11    30       P1 10175  0.94
      P1  H  7954  7966       L1     8  0.34
      P1  H  7997  8009       L1    17  0.99

> <Gold.Chemscore.Hbond.Weighted>
-9.7513

> <Gold.Chemscore.Metal.Weighted>
-0.0000

> <Gold.Chemscore.Lipo.Weighted>
-6.0839

> <Gold.Chemscore.Internal_Hbond.Weighted>
0.0000

> <Gold.Chemscore.DEClash.Weighted>
2.1224

> <Gold.Chemscore.DEInternal.Weighted>
0.3067

> <Gold.Chemscore.Rot.Weighted>
6.8791

> <Gold.Chemscore.Internal.Correction.Weighted>
   9.000000E+99

> <Gold.Protein.RotatedTorsions>
[ 6907 6896 6895 6894 ] final   -4.25 input  -60.11 | X-H torsion
[ 7974 7965 7964 7962 ] final -141.77 input  175.53 | X-H torsion
[ 8008 7997 7996 7995 ] final -148.38 input   59.86 | X-H torsion
[ 10167 10162 10161 10158 ] final  -60.55 input  -65.29 | X-H torsion
[ 10718 10713 10712 10709 ] final  177.21 input   66.30 | X-H torsion
[ 10763 10752 10751 10750 ] final  -41.05 input  -60.55 | X-H torsion
[ 11005 11000 10999 10996 ] final   47.76 input  -57.11 | X-H torsion

> <Gold.Protein.ActiveResidues>
 VAL166  LYS551  ARG553  GLY616  TRP617  ASP618  TYR619  PRO620  LYS621  CYS622 
 ASP623  PHE694  ASN695  SER759  ASP760  ASP761  ALA762  ILE779  LEU786  VAL792 
 PHE793  MET794  SER795  GLU796  ALA797  LYS798  CYS799  TRP800  GLU811  SER814 

> <Gold.Protein.RotatedAtoms>
  151.5006  135.1061  159.9827 H   0  0  0  0  0  0  0  0  0  0  0  0  # atno 6907 bound_to 6896
  152.4703  133.8011  159.6964 H   0  0  0  0  0  0  0  0  0  0  0  0  # atno 6908 bound_to 6896
  150.8708  133.7445  159.2987 H   0  0  0  0  0  0  0  0  0  0  0  0  # atno 6909 bound_to 6896
  144.8494  140.6040  143.5400 H   0  0  0  0  0  0  0  0  0  0  0  0  # atno 7974 bound_to 7965
  155.5907  140.0652  157.2759 H   0  0  0  0  0  0  0  0  0  0  0  0  # atno 8008 bound_to 7997
  154.4306  140.1835  156.1119 H   0  0  0  0  0  0  0  0  0  0  0  0  # atno 8009 bound_to 7997
  156.0234  140.3314  155.7067 H   0  0  0  0  0  0  0  0  0  0  0  0  # atno 8010 bound_to 7997
  140.6064  143.2374  151.5812 H   0  0  0  0  0  0  0  0  0  0  0  0  # atno 10167 bound_to 10162
  156.9087  130.9903  151.3024 H   0  0  0  0  0  0  0  0  0  0  0  0  # atno 10718 bound_to 10713
  153.9560  135.6745  153.4744 H   0  0  0  0  0  0  0  0  0  0  0  0  # atno 10763 bound_to 10752
  153.0861  135.4898  154.8596 H   0  0  0  0  0  0  0  0  0  0  0  0  # atno 10764 bound_to 10752
  154.7299  135.3136  154.8868 H   0  0  0  0  0  0  0  0  0  0  0  0  # atno 10765 bound_to 10752
  140.1250  134.4779  155.8566 H   0  0  0  0  0  0  0  0  0  0  0  0  # atno 11005 bound_to 11000
  145.4530  139.1521  143.3908 LP  0  0  0  0  0  0  0  0  0  0  0  0  # atno 17320 bound_to 7965
  146.2772  140.4657  142.8791 LP  0  0  0  0  0  0  0  0  0  0  0  0  # atno 17321 bound_to 7965
  139.5328  144.2867  152.1185 LP  0  0  0  0  0  0  0  0  0  0  0  0  # atno 17342 bound_to 10162
  140.2058  144.4612  150.6409 LP  0  0  0  0  0  0  0  0  0  0  0  0  # atno 17343 bound_to 10162
  157.5981  130.8492  149.8760 LP  0  0  0  0  0  0  0  0  0  0  0  0  # atno 17370 bound_to 10713
  156.0546  130.3711  150.1120 LP  0  0  0  0  0  0  0  0  0  0  0  0  # atno 17371 bound_to 10713
  141.2159  133.6774  156.6962 LP  0  0  0  0  0  0  0  0  0  0  0  0  # atno 17394 bound_to 11000
  140.2915  134.8236  157.4021 LP  0  0  0  0  0  0  0  0  0  0  0  0  # atno 17395 bound_to 11000

$$$$
