AV-unprocessed.smi:1410|AV-procd|sdf|5734|dock9
  -GOLD-   22720 5363D 1   1.00000     0.00000
 Structure written by MMmdl.
 41 42  0  0  0  0  0  0  0  0  3 V2000
  142.7595  139.7630  154.9045 N   0  0  0  0  0  0  0  0  0  0  0  0
  143.1814  140.5307  155.9117 C   0  0  0  0  0  0  0  0  0  0  0  0
  142.9533  140.2531  157.0879 O   0  0  0  0  0  0  0  0  0  0  0  0
  143.9901  141.7778  155.5389 C   0  0  0  0  0  0  0  0  0  0  0  0
  145.2305  141.4604  154.7852 N   0  3  2  0  0  0  0  0  0  0  0  0
  146.1993  140.6489  155.5694 C   0  0  0  0  0  0  0  0  0  0  0  0
  147.3934  140.2197  154.6993 C   0  0  0  0  0  0  0  0  0  0  0  0
  148.0979  141.4258  154.0455 C   0  0  2  0  0  0  0  0  0  0  0  0
  148.8416  142.2243  155.0206 N   0  0  0  0  0  0  0  0  0  0  0  0
  149.7659  141.7471  155.8677 C   0  0  0  0  0  0  0  0  0  0  0  0
  150.0681  140.5566  155.9379 O   0  0  0  0  0  0  0  0  0  0  0  0
  150.2899  142.7292  156.6221 N   0  0  0  0  0  0  0  0  0  0  0  0
  151.2818  142.6384  157.6376 C   0  0  0  0  0  0  0  0  0  0  0  0
  151.9265  143.8341  158.0265 C   0  0  0  0  0  0  0  0  0  0  0  0
  152.9250  143.7959  159.0210 C   0  0  0  0  0  0  0  0  0  0  0  0
  153.2643  142.6186  159.5880 N   0  3  0  0  0  0  0  0  0  0  0  0
  152.6875  141.4484  159.2404 C   0  0  0  0  0  0  0  0  0  0  0  0
  151.6833  141.4239  158.2511 C   0  0  0  0  0  0  0  0  0  0  0  0
  147.0635  142.2964  153.3106 C   0  0  0  0  0  0  0  0  0  0  0  0
  145.8722  142.6706  154.2119 C   0  0  0  0  0  0  0  0  0  0  0  0
  142.2256  138.9280  155.1011 H   0  0  0  0  0  0  0  0  0  0  0  0
  142.9751  140.0119  153.9499 H   0  0  0  0  0  0  0  0  0  0  0  0
  143.3361  142.3984  154.9250 H   0  0  0  0  0  0  0  0  0  0  0  0
  144.2304  142.3616  156.4293 H   0  0  0  0  0  0  0  0  0  0  0  0
  146.5458  141.2217  156.4309 H   0  0  0  0  0  0  0  0  0  0  0  0
  145.7096  139.7579  155.9636 H   0  0  0  0  0  0  0  0  0  0  0  0
  148.0975  139.6347  155.2920 H   0  0  0  0  0  0  0  0  0  0  0  0
  147.0355  139.5502  153.9159 H   0  0  0  0  0  0  0  0  0  0  0  0
  148.8109  141.0560  153.3063 H   0  0  0  0  0  0  0  0  0  0  0  0
  148.6568  143.2167  155.0313 H   0  0  0  0  0  0  0  0  0  0  0  0
  149.8898  143.6468  156.4919 H   0  0  0  0  0  0  0  0  0  0  0  0
  151.6571  144.7770  157.5728 H   0  0  0  0  0  0  0  0  0  0  0  0
  153.4593  144.6650  159.3761 H   0  0  0  0  0  0  0  0  0  0  0  0
  153.0477  140.5706  159.7570 H   0  0  0  0  0  0  0  0  0  0  0  0
  151.2527  140.4730  157.9779 H   0  0  0  0  0  0  0  0  0  0  0  0
  147.5358  143.1982  152.9189 H   0  0  0  0  0  0  0  0  0  0  0  0
  146.6913  141.7502  152.4427 H   0  0  0  0  0  0  0  0  0  0  0  0
  145.1438  143.2288  153.6225 H   0  0  0  0  0  0  0  0  0  0  0  0
  146.1957  143.3293  155.0193 H   0  0  0  0  0  0  0  0  0  0  0  0
  144.9399  140.8940  154.0004 H   0  0  0  0  0  0  0  0  0  0  0  0
  153.9897  142.6122  160.3056 H   0  0  0  0  0  0  0  0  0  0  0  0
  1  2  1  0  0  0  0
  1 21  1  0  0  0  0
  1 22  1  0  0  0  0
  2  3  2  0  0  0  0
  2  4  1  0  0  0  0
  4  5  1  0  0  0  0
  4 23  1  0  0  0  0
  4 24  1  0  0  0  0
  5 20  1  0  0  0  0
  5  6  1  0  0  0  0
  5 40  1  0  0  0  0
  6  7  1  0  0  0  0
  6 25  1  0  0  0  0
  6 26  1  0  0  0  0
  7  8  1  0  0  0  0
  7 27  1  0  0  0  0
  7 28  1  0  0  0  0
  8  9  1  0  0  0  0
  8 19  1  0  0  0  0
  8 29  1  0  0  0  0
  9 10  1  0  0  0  0
  9 30  1  0  0  0  0
 10 11  2  0  0  0  0
 10 12  1  0  0  0  0
 12 13  1  0  0  0  0
 12 31  1  0  0  0  0
 13 18  1  0  0  0  0
 13 14  2  0  0  0  0
 14 15  1  0  0  0  0
 14 32  1  0  0  0  0
 15 16  2  0  0  0  0
 15 33  1  0  0  0  0
 16 17  1  0  0  0  0
 16 41  1  0  0  0  0
 17 18  2  0  0  0  0
 17 34  1  0  0  0  0
 18 35  1  0  0  0  0
 19 20  1  0  0  0  0
 19 36  1  0  0  0  0
 19 37  1  0  0  0  0
 20 38  1  0  0  0  0
 20 39  1  0  0  0  0
M  CHG  1   5   1
M  CHG  1  16   1
M  END
> <s_m_source_file>
AV-unprocessed.smi

> <i_m_source_file_index>
1410

> <i_lp_mmshare_version>
43012

> <i_f3d_flags>
0

> <s_epik_input>
W05IMl1DKD1PKVtDSDJdTjFbQ0gyXVtDSDJdW0NIXShbQ0gyXVtDSDJdMSlbTkhdQyg9TylbTkhdYzJbY0hdW2NIXW5bY0hdW2NIXTI=

> <s_epik_cmdline>
J2VwaWtfcHl0aG9uJywgJy1waCcsICc3LjAnLCAnLXRuJywgJzgnLCAnLW1hJywgJzIwMCcsICctbWV0YWxfYmluZGluZycsICctaW1hZScsICc8aW5maWxlLm1hZT4nLCAnLW9tYWUnLCAnPG91dGZpbGUubWFlPic=

> <r_epik_Ionization_Penalty>
1.97414

> <r_epik_Ionization_Penalty_Charging>
1.97408

> <r_epik_Ionization_Penalty_Neutral>
5.94508e-05

> <r_epik_State_Penalty>
2.00676

> <r_epik_Charging_Adjusted_Penalty>
3.98084

> <i_epik_Tot_Q>
2

> <i_epik_Tot_abs_Q>
2

> <r_epik_Metal_State_Penalty>
2.12108

> <b_epik_Metal_Only>
0

> <s_lp_Force_Field>
OPLS_2005

> <r_lp_Energy>
26.1476

> <b_lp_Chiralities_Consistent>
1

> <s_lp_Variant>
AV-unprocessed.smi:1410-6

> <Gold.Version>
5.8.1

> <Gold.Id.Protein>
6NUR|6NUR_protein|mol2

> <Gold.PLP.Fitness>
47.1810

> <Gold.PLP.PLP>
-32.3870

> <Gold.PLP.part.hbond>
-4.0000

> <Gold.PLP.part.metal>
0.0000

> <Gold.PLP.part.buried>
-6.1266

> <Gold.PLP.part.nonpolar>
-23.2478

> <Gold.PLP.part.repulsive>
0.3641

> <Gold.PLP.ligand.clash>
0.0000

> <Gold.PLP.ligand.torsion>
0.1158

> <Gold.PLP.Chemscore.Hbond>
5.0000

> <Gold.PLP.Chemscore.CHOScore>
0.0000

> <Gold.PLP.Chemscore.Metal>
0.0000

> <Gold.Chemscore.Hbonds>
donor molecule, donor type, donor heavy atom, donor atom, acceptor molecule, acceptor atom, score
      L1  H     1    22       P1 10175  1.00
      L1  H     5    40       P1 10175  2.00
      L1  H     9    30       P1  8028  1.00
      L1  H    12    31       P1  8028  1.00

> <Gold.PLP.Chemscore.Internal.Correction>
0.0255

> <Gold.Rescore>
     Score         DG    S(hbond)    S(metal)    S(lipo)     H(rot)  DE(clash)    DE(int)     intcor
     18.95     -22.68       3.89        0.00      79.49       1.99       1.40       2.33       ----

> <Gold.Chemscore.Fitness>
18.9526

> <Gold.Chemscore.DG>
-22.6767

> <Gold.Chemscore.ZeroCoef>
-5.4800

> <Gold.Chemscore.Hbond>
3.8889

> <Gold.Chemscore.Metal>
0.0000

> <Gold.Chemscore.Lipo>
79.4918

> <Gold.Chemscore.Internal_Hbond>
0.0000

> <Gold.Chemscore.DEClash>
1.3969

> <Gold.Chemscore.DEInternal>
2.3272

> <Gold.Chemscore.Rot>
1.9894

> <Gold.Chemscore.Internal.Correction>
   9.000000E+99

> <Gold.Chemscore.Hbonds>
donor molecule, donor type, donor heavy atom, donor atom, acceptor molecule, acceptor atom, score
      L1  H     1    22       P1 10175  1.00
      L1  H     5    40       P1 10175  0.84
      L1  H     9    30       P1  8028  0.96
      L1  H    12    31       P1  8028  0.96

> <Gold.Chemscore.Hbond.Weighted>
-12.9889

> <Gold.Chemscore.Metal.Weighted>
-0.0000

> <Gold.Chemscore.Lipo.Weighted>
-9.3005

> <Gold.Chemscore.Internal_Hbond.Weighted>
0.0000

> <Gold.Chemscore.DEClash.Weighted>
1.3969

> <Gold.Chemscore.DEInternal.Weighted>
2.3272

> <Gold.Chemscore.Rot.Weighted>
5.0927

> <Gold.Chemscore.Internal.Correction.Weighted>
   9.000000E+99

> <Gold.Protein.RotatedTorsions>
[ 6907 6896 6895 6894 ] final  118.64 input  -60.11 | X-H torsion
[ 7974 7965 7964 7962 ] final  147.94 input  175.53 | X-H torsion
[ 8008 7997 7996 7995 ] final  -47.47 input   59.86 | X-H torsion
[ 10167 10162 10161 10158 ] final -103.19 input  -65.29 | X-H torsion
[ 10718 10713 10712 10709 ] final    7.54 input   66.30 | X-H torsion
[ 10763 10752 10751 10750 ] final -102.88 input  -60.55 | X-H torsion
[ 11005 11000 10999 10996 ] final  151.15 input  -57.11 | X-H torsion

> <Gold.Protein.ActiveResidues>
 VAL166  LYS551  ARG553  GLY616  TRP617  ASP618  TYR619  PRO620  LYS621  CYS622 
 ASP623  PHE694  ASN695  SER759  ASP760  ASP761  ALA762  ILE779  LEU786  VAL792 
 PHE793  MET794  SER795  GLU796  ALA797  LYS798  CYS799  TRP800  GLU811  SER814 

> <Gold.Protein.RotatedAtoms>
  152.4529  133.7664  159.6774 H   0  0  0  0  0  0  0  0  0  0  0  0  # atno 6907 bound_to 6896
  150.8446  133.7872  159.3054 H   0  0  0  0  0  0  0  0  0  0  0  0  # atno 6908 bound_to 6896
  151.5486  135.1070  159.9996 H   0  0  0  0  0  0  0  0  0  0  0  0  # atno 6909 bound_to 6896
  144.8552  139.6092  143.5956 H   0  0  0  0  0  0  0  0  0  0  0  0  # atno 7974 bound_to 7965
  154.4017  140.1346  156.4180 H   0  0  0  0  0  0  0  0  0  0  0  0  # atno 8008 bound_to 7997
  155.7670  140.3485  155.5207 H   0  0  0  0  0  0  0  0  0  0  0  0  # atno 8009 bound_to 7997
  155.8804  140.0986  157.1480 H   0  0  0  0  0  0  0  0  0  0  0  0  # atno 8010 bound_to 7997
  140.2226  143.3665  152.0956 H   0  0  0  0  0  0  0  0  0  0  0  0  # atno 10167 bound_to 10162
  156.9383  130.5852  149.5651 H   0  0  0  0  0  0  0  0  0  0  0  0  # atno 10718 bound_to 10713
  154.7767  135.4844  153.9759 H   0  0  0  0  0  0  0  0  0  0  0  0  # atno 10763 bound_to 10752
  153.1438  135.6778  153.8993 H   0  0  0  0  0  0  0  0  0  0  0  0  # atno 10764 bound_to 10752
  153.8659  135.3149  155.3418 H   0  0  0  0  0  0  0  0  0  0  0  0  # atno 10765 bound_to 10752
  140.1193  134.8874  157.2049 H   0  0  0  0  0  0  0  0  0  0  0  0  # atno 11005 bound_to 11000
  146.2817  139.6895  142.9224 LP  0  0  0  0  0  0  0  0  0  0  0  0  # atno 17320 bound_to 7965
  145.4421  141.0423  143.2852 LP  0  0  0  0  0  0  0  0  0  0  0  0  # atno 17321 bound_to 7965
  139.5138  144.6939  151.5685 LP  0  0  0  0  0  0  0  0  0  0  0  0  # atno 17342 bound_to 10162
  140.6244  143.9197  150.6552 LP  0  0  0  0  0  0  0  0  0  0  0  0  # atno 17343 bound_to 10162
  156.0416  130.5497  150.8783 LP  0  0  0  0  0  0  0  0  0  0  0  0  # atno 17370 bound_to 10713
  157.5801  131.0946  150.9284 LP  0  0  0  0  0  0  0  0  0  0  0  0  # atno 17371 bound_to 10713
  140.2986  134.3157  155.7296 LP  0  0  0  0  0  0  0  0  0  0  0  0  # atno 17394 bound_to 11000
  141.2148  133.7578  156.9608 LP  0  0  0  0  0  0  0  0  0  0  0  0  # atno 17395 bound_to 11000

$$$$
