AV-unprocessed.smi:1284|AV-procd|sdf|5363|dock8
  -GOLD-   22720 4503D 1   1.00000     0.00000
 Structure written by MMmdl.
 39 41  0  0  0  0  0  0  0  0  1 V2000
  151.9354  138.4681  154.6259 N   0  0  0  0  0  0  0  0  0  0  0  0
  152.9536  138.4560  155.4909 C   0  0  0  0  0  0  0  0  0  0  0  0
  154.0968  138.7650  155.1618 O   0  0  0  0  0  0  0  0  0  0  0  0
  152.6429  138.0534  156.9357 C   0  0  0  0  0  0  0  0  0  0  0  0
  152.6861  139.2817  157.8018 C   0  0  0  0  0  0  0  0  0  0  0  0
  153.7277  139.5415  158.5954 N   0  0  0  0  0  0  0  0  0  0  0  0
  153.3607  140.7248  159.2053 C   0  0  0  0  0  0  0  0  0  0  0  0
  154.0419  141.5176  160.1563 C   0  0  0  0  0  0  0  0  0  0  0  0
  153.4573  142.7035  160.6470 C   0  0  0  0  0  0  0  0  0  0  0  0
  152.1861  143.1129  160.1947 C   0  0  0  0  0  0  0  0  0  0  0  0
  151.4915  142.3383  159.2456 C   0  0  0  0  0  0  0  0  0  0  0  0
  152.0800  141.1558  158.7589 C   0  0  0  0  0  0  0  0  0  0  0  0
  151.6743  140.1879  157.8460 N   0  0  0  0  0  0  0  0  0  0  0  0
  150.4151  140.1875  157.1127 C   0  0  0  0  0  0  0  0  0  0  0  0
  150.4168  141.1731  155.9271 C   0  0  2  0  0  0  0  0  0  0  0  0
  150.3972  142.5060  156.4003 O   0  0  0  0  0  0  0  0  0  0  0  0
  149.2678  140.8880  154.9732 C   0  0  0  0  0  0  0  0  0  0  0  0
  149.1194  139.6028  154.4084 C   0  0  0  0  0  0  0  0  0  0  0  0
  148.0522  139.3326  153.5298 C   0  0  0  0  0  0  0  0  0  0  0  0
  147.1264  140.3449  153.2125 C   0  0  0  0  0  0  0  0  0  0  0  0
  147.2664  141.6274  153.7765 C   0  0  0  0  0  0  0  0  0  0  0  0
  148.3332  141.8981  154.6552 C   0  0  0  0  0  0  0  0  0  0  0  0
  152.0992  138.7186  153.6617 H   0  0  0  0  0  0  0  0  0  0  0  0
  151.0077  138.2177  154.9369 H   0  0  0  0  0  0  0  0  0  0  0  0
  151.6704  137.5656  157.0004 H   0  0  0  0  0  0  0  0  0  0  0  0
  153.3809  137.3313  157.2878 H   0  0  0  0  0  0  0  0  0  0  0  0
  155.0155  141.2119  160.5098 H   0  0  0  0  0  0  0  0  0  0  0  0
  153.9862  143.3010  161.3748 H   0  0  0  0  0  0  0  0  0  0  0  0
  151.7446  144.0218  160.5767 H   0  0  0  0  0  0  0  0  0  0  0  0
  150.5177  142.6485  158.8968 H   0  0  0  0  0  0  0  0  0  0  0  0
  150.2406  139.1745  156.7483 H   0  0  0  0  0  0  0  0  0  0  0  0
  149.5923  140.4037  157.7925 H   0  0  0  0  0  0  0  0  0  0  0  0
  151.3522  141.0562  155.3785 H   0  0  0  0  0  0  0  0  0  0  0  0
  149.8272  143.0125  155.8422 H   0  0  0  0  0  0  0  0  0  0  0  0
  149.8224  138.8185  154.6476 H   0  0  0  0  0  0  0  0  0  0  0  0
  147.9431  138.3477  153.0999 H   0  0  0  0  0  0  0  0  0  0  0  0
  146.3081  140.1371  152.5386 H   0  0  0  0  0  0  0  0  0  0  0  0
  146.5552  142.4039  153.5366 H   0  0  0  0  0  0  0  0  0  0  0  0
  148.4308  142.8834  155.0875 H   0  0  0  0  0  0  0  0  0  0  0  0
  1  2  1  0  0  0  0
  1 23  1  0  0  0  0
  1 24  1  0  0  0  0
  2  3  2  0  0  0  0
  2  4  1  0  0  0  0
  4  5  1  0  0  0  0
  4 25  1  0  0  0  0
  4 26  1  0  0  0  0
  5 13  1  0  0  0  0
  5  6  2  0  0  0  0
  6  7  1  0  0  0  0
  7 12  2  0  0  0  0
  7  8  1  0  0  0  0
  8  9  2  0  0  0  0
  8 27  1  0  0  0  0
  9 10  1  0  0  0  0
  9 28  1  0  0  0  0
 10 11  2  0  0  0  0
 10 29  1  0  0  0  0
 11 12  1  0  0  0  0
 11 30  1  0  0  0  0
 12 13  1  0  0  0  0
 13 14  1  0  0  0  0
 14 15  1  0  0  0  0
 14 31  1  0  0  0  0
 14 32  1  0  0  0  0
 15 16  1  0  0  0  0
 15 17  1  0  0  0  0
 15 33  1  0  0  0  0
 16 34  1  0  0  0  0
 17 22  1  0  0  0  0
 17 18  2  0  0  0  0
 18 19  1  0  0  0  0
 18 35  1  0  0  0  0
 19 20  2  0  0  0  0
 19 36  1  0  0  0  0
 20 21  1  0  0  0  0
 20 37  1  0  0  0  0
 21 22  2  0  0  0  0
 21 38  1  0  0  0  0
 22 39  1  0  0  0  0
M  END
> <s_m_source_file>
AV-unprocessed.smi

> <i_m_source_file_index>
1284

> <i_lp_mmshare_version>
43012

> <i_f3d_flags>
0

> <s_epik_input>
W2NIXTFbY0hdW2NIXVtjSF1jKGMxMiluKGMobjIpW0NIMl1DKD1PKVtOSDJdKVtDSDJdW0NASF0oW09IXSljM1tjSF1bY0hdW2NIXVtjSF1bY0hdMw==

> <s_epik_cmdline>
J2VwaWtfcHl0aG9uJywgJy1waCcsICc3LjAnLCAnLXRuJywgJzgnLCAnLW1hJywgJzIwMCcsICctbWV0YWxfYmluZGluZycsICctaW1hZScsICc8aW5maWxlLm1hZT4nLCAnLW9tYWUnLCAnPG91dGZpbGUubWFlPic=

> <r_epik_Ionization_Penalty>
0.0366899

> <r_epik_Ionization_Penalty_Charging>
0

> <r_epik_Ionization_Penalty_Neutral>
0.0366899

> <r_epik_State_Penalty>
0.0306642

> <r_epik_Charging_Adjusted_Penalty>
0.0306642

> <i_epik_Tot_Q>
0

> <i_epik_Tot_abs_Q>
0

> <r_epik_Metal_State_Penalty>
0.028853

> <b_epik_Metal_Only>
0

> <s_lp_Force_Field>
OPLS_2005

> <r_lp_Energy>
12.351

> <b_lp_Chiralities_Consistent>
1

> <s_lp_Variant>
AV-unprocessed.smi:1284-1

> <Gold.Version>
5.8.1

> <Gold.Id.Protein>
6NUR|6NUR_protein|mol2

> <Gold.PLP.Fitness>
49.7654

> <Gold.PLP.PLP>
-43.7357

> <Gold.PLP.part.hbond>
-2.8746

> <Gold.PLP.part.metal>
0.0000

> <Gold.PLP.part.buried>
-2.7582

> <Gold.PLP.part.nonpolar>
-37.5729

> <Gold.PLP.part.repulsive>
0.1715

> <Gold.PLP.ligand.clash>
0.0000

> <Gold.PLP.ligand.torsion>
0.7176

> <Gold.PLP.Chemscore.Hbond>
2.4720

> <Gold.PLP.Chemscore.CHOScore>
0.0000

> <Gold.PLP.Chemscore.Metal>
0.0000

> <Gold.Chemscore.Hbonds>
donor molecule, donor type, donor heavy atom, donor atom, acceptor molecule, acceptor atom, score
      L1  H    16    34       P1  8028  0.90
      P1  H  7997  8008       L1     6  1.00
      P1  H  7997  8009       L1     3  0.64

> <Gold.PLP.Chemscore.Internal.Correction>
0.0489

> <Gold.Rescore>
     Score         DG    S(hbond)    S(metal)    S(lipo)     H(rot)  DE(clash)    DE(int)     intcor
     17.11     -18.13       1.93        0.00     115.65       2.86       0.31       0.71       ----

> <Gold.Chemscore.Fitness>
17.1119

> <Gold.Chemscore.DG>
-18.1324

> <Gold.Chemscore.ZeroCoef>
-5.4800

> <Gold.Chemscore.Hbond>
1.9294

> <Gold.Chemscore.Metal>
0.0000

> <Gold.Chemscore.Lipo>
115.6527

> <Gold.Chemscore.Internal_Hbond>
0.0000

> <Gold.Chemscore.DEClash>
0.3069

> <Gold.Chemscore.DEInternal>
0.7136

> <Gold.Chemscore.Rot>
2.8606

> <Gold.Chemscore.Internal.Correction>
   9.000000E+99

> <Gold.Chemscore.Hbonds>
donor molecule, donor type, donor heavy atom, donor atom, acceptor molecule, acceptor atom, score
      L1  H    16    34       P1  8028  0.85
      P1  H  7997  8008       L1     6  0.12
      P1  H  7997  8009       L1     3  0.61

> <Gold.Chemscore.Hbond.Weighted>
-6.4442

> <Gold.Chemscore.Metal.Weighted>
-0.0000

> <Gold.Chemscore.Lipo.Weighted>
-13.5314

> <Gold.Chemscore.Internal_Hbond.Weighted>
0.0000

> <Gold.Chemscore.DEClash.Weighted>
0.3069

> <Gold.Chemscore.DEInternal.Weighted>
0.7136

> <Gold.Chemscore.Rot.Weighted>
7.3231

> <Gold.Chemscore.Internal.Correction.Weighted>
   9.000000E+99

> <Gold.Protein.RotatedTorsions>
[ 6907 6896 6895 6894 ] final  109.73 input  -60.11 | X-H torsion
[ 7974 7965 7964 7962 ] final -177.29 input  175.53 | X-H torsion
[ 8008 7997 7996 7995 ] final -116.23 input   59.86 | X-H torsion
[ 10167 10162 10161 10158 ] final  101.68 input  -65.29 | X-H torsion
[ 10718 10713 10712 10709 ] final  -66.18 input   66.30 | X-H torsion
[ 10763 10752 10751 10750 ] final -117.85 input  -60.55 | X-H torsion
[ 11005 11000 10999 10996 ] final  147.71 input  -57.11 | X-H torsion

> <Gold.Protein.ActiveResidues>
 VAL166  LYS551  ARG553  GLY616  TRP617  ASP618  TYR619  PRO620  LYS621  CYS622 
 ASP623  PHE694  ASN695  SER759  ASP760  ASP761  ALA762  ILE779  LEU786  VAL792 
 PHE793  MET794  SER795  GLU796  ALA797  LYS798  CYS799  TRP800  GLU811  SER814 

> <Gold.Protein.RotatedAtoms>
  152.5053  133.8902  159.7389 H   0  0  0  0  0  0  0  0  0  0  0  0  # atno 6907 bound_to 6896
  150.9342  133.6722  159.2811 H   0  0  0  0  0  0  0  0  0  0  0  0  # atno 6908 bound_to 6896
  151.4056  135.0982  159.9622 H   0  0  0  0  0  0  0  0  0  0  0  0  # atno 6909 bound_to 6896
  144.7127  140.1041  143.6415 H   0  0  0  0  0  0  0  0  0  0  0  0  # atno 7974 bound_to 7965
  155.0645  140.0393  157.2588 H   0  0  0  0  0  0  0  0  0  0  0  0  # atno 8008 bound_to 7997
  154.7032  140.2677  155.6675 H   0  0  0  0  0  0  0  0  0  0  0  0  # atno 8009 bound_to 7997
  156.2767  140.2736  156.1650 H   0  0  0  0  0  0  0  0  0  0  0  0  # atno 8010 bound_to 7997
  139.7416  144.7009  151.0566 H   0  0  0  0  0  0  0  0  0  0  0  0  # atno 10167 bound_to 10162
  156.0627  130.4258  150.1671 H   0  0  0  0  0  0  0  0  0  0  0  0  # atno 10718 bound_to 10713
  154.8568  135.4295  154.2045 H   0  0  0  0  0  0  0  0  0  0  0  0  # atno 10763 bound_to 10752
  153.3085  135.6974  153.7143 H   0  0  0  0  0  0  0  0  0  0  0  0  # atno 10764 bound_to 10752
  153.6246  135.3496  155.2996 H   0  0  0  0  0  0  0  0  0  0  0  0  # atno 10765 bound_to 10752
  140.0899  134.9047  157.1633 H   0  0  0  0  0  0  0  0  0  0  0  0  # atno 11005 bound_to 11000
  145.9512  139.2735  143.1211 LP  0  0  0  0  0  0  0  0  0  0  0  0  # atno 17320 bound_to 7965
  145.9321  140.9041  143.0351 LP  0  0  0  0  0  0  0  0  0  0  0  0  # atno 17321 bound_to 7965
  140.7786  143.4917  150.9885 LP  0  0  0  0  0  0  0  0  0  0  0  0  # atno 17342 bound_to 10162
  139.8605  143.7320  152.3173 LP  0  0  0  0  0  0  0  0  0  0  0  0  # atno 17343 bound_to 10162
  156.9736  130.9842  151.3453 LP  0  0  0  0  0  0  0  0  0  0  0  0  # atno 17370 bound_to 10713
  157.5647  130.8270  149.8312 LP  0  0  0  0  0  0  0  0  0  0  0  0  # atno 17371 bound_to 10713
  140.3368  134.2749  155.7218 LP  0  0  0  0  0  0  0  0  0  0  0  0  # atno 17394 bound_to 11000
  141.2074  133.7806  157.0119 LP  0  0  0  0  0  0  0  0  0  0  0  0  # atno 17395 bound_to 11000

$$$$
