AV-unprocessed.smi:2358|AV-procd|sdf|9404|dock8
  -GOLD-   2272013 43D 1   1.00000     0.00000
 Structure written by MMmdl.
 45 47  0  0  0  0  0  0  0  0  1 V2000
  153.8104  142.5454  162.0403 C   0  0  0  0  0  0  0  0  0  0  0  0
  153.1048  142.4194  160.7057 C   0  0  0  0  0  0  0  0  0  0  0  0
  152.5609  143.5583  160.0794 C   0  0  0  0  0  0  0  0  0  0  0  0
  151.9076  143.4368  158.8377 C   0  0  0  0  0  0  0  0  0  0  0  0
  151.3301  144.6657  158.1666 C   0  0  0  0  0  0  0  0  0  0  0  0
  151.7994  142.1718  158.2249 C   0  0  0  0  0  0  0  0  0  0  0  0
  152.3349  141.0215  158.8395 C   0  0  0  0  0  0  0  0  0  0  0  0
  152.1804  139.8270  158.1690 O   0  0  0  0  0  0  0  0  0  0  0  0
  153.1711  138.8223  158.3426 C   0  0  0  0  0  0  0  0  0  0  0  0
  152.4778  137.4514  158.4318 C   0  0  1  0  0  0  0  0  0  0  0  0
  152.7684  136.9274  159.7129 O   0  0  0  0  0  0  0  0  0  0  0  0
  150.9425  137.5679  158.2985 C   0  0  0  0  0  0  0  0  0  0  0  0
  150.5417  137.9868  156.9496 N   0  0  0  0  0  0  0  0  0  0  0  0
  149.5913  138.9939  156.9314 N   0  0  0  0  0  0  0  0  0  0  0  0
  149.1533  139.4693  155.8105 C   0  0  0  0  0  0  0  0  0  0  0  0
  148.1630  140.5233  155.7197 N   0  0  0  0  0  0  0  0  0  0  0  0
  147.6882  140.9148  154.4697 C   0  0  0  0  0  0  0  0  0  0  0  0
  146.7744  141.9169  154.7096 C   0  0  0  0  0  0  0  0  0  0  0  0
  146.6750  142.1522  156.0807 N   0  0  0  0  0  0  0  0  0  0  0  0
  147.5273  141.2886  156.6188 C   0  0  0  0  0  0  0  0  0  0  0  0
  149.6567  138.9458  154.5521 C   0  0  0  0  0  0  0  0  0  0  0  0
  150.5870  137.9669  154.5803 C   0  0  0  0  0  0  0  0  0  0  0  0
  151.0986  137.4226  155.8375 C   0  0  0  0  0  0  0  0  0  0  0  0
  151.9559  136.5414  155.8899 O   0  0  0  0  0  0  0  0  0  0  0  0
  152.9902  141.1564  160.0896 C   0  0  0  0  0  0  0  0  0  0  0  0
  154.0339  143.5868  162.2740 H   0  0  0  0  0  0  0  0  0  0  0  0
  154.7504  141.9929  162.0276 H   0  0  0  0  0  0  0  0  0  0  0  0
  153.1850  142.1417  162.8365 H   0  0  0  0  0  0  0  0  0  0  0  0
  152.6446  144.5277  160.5494 H   0  0  0  0  0  0  0  0  0  0  0  0
  150.7082  144.3964  157.3124 H   0  0  0  0  0  0  0  0  0  0  0  0
  152.1331  145.3136  157.8147 H   0  0  0  0  0  0  0  0  0  0  0  0
  150.7158  145.2295  158.8690 H   0  0  0  0  0  0  0  0  0  0  0  0
  151.3002  142.0775  157.2715 H   0  0  0  0  0  0  0  0  0  0  0  0
  153.9077  138.8350  157.5369 H   0  0  0  0  0  0  0  0  0  0  0  0
  153.6958  139.0271  159.2769 H   0  0  0  0  0  0  0  0  0  0  0  0
  152.8740  136.7924  157.6577 H   0  0  0  0  0  0  0  0  0  0  0  0
  152.6301  137.6076  160.3545 H   0  0  0  0  0  0  0  0  0  0  0  0
  150.4469  136.6449  158.6062 H   0  0  0  0  0  0  0  0  0  0  0  0
  150.5731  138.3216  158.9962 H   0  0  0  0  0  0  0  0  0  0  0  0
  148.0152  140.4764  153.5376 H   0  0  0  0  0  0  0  0  0  0  0  0
  146.1840  142.4835  154.0046 H   0  0  0  0  0  0  0  0  0  0  0  0
  147.6836  141.2203  157.6852 H   0  0  0  0  0  0  0  0  0  0  0  0
  149.3000  139.3267  153.6074 H   0  0  0  0  0  0  0  0  0  0  0  0
  150.9660  137.5738  153.6483 H   0  0  0  0  0  0  0  0  0  0  0  0
  153.4148  140.3028  160.5957 H   0  0  0  0  0  0  0  0  0  0  0  0
  1  2  1  0  0  0  0
  1 26  1  0  0  0  0
  1 27  1  0  0  0  0
  1 28  1  0  0  0  0
  2 25  1  0  0  0  0
  2  3  2  0  0  0  0
  3  4  1  0  0  0  0
  3 29  1  0  0  0  0
  4  5  1  0  0  0  0
  4  6  2  0  0  0  0
  5 30  1  0  0  0  0
  5 31  1  0  0  0  0
  5 32  1  0  0  0  0
  6  7  1  0  0  0  0
  6 33  1  0  0  0  0
  7  8  1  0  0  0  0
  7 25  2  0  0  0  0
  8  9  1  0  0  0  0
  9 10  1  0  0  0  0
  9 34  1  0  0  0  0
  9 35  1  0  0  0  0
 10 11  1  0  0  0  0
 10 12  1  0  0  0  0
 10 36  1  0  0  0  0
 11 37  1  0  0  0  0
 12 13  1  0  0  0  0
 12 38  1  0  0  0  0
 12 39  1  0  0  0  0
 13 23  1  0  0  0  0
 13 14  1  0  0  0  0
 14 15  2  0  0  0  0
 15 16  1  0  0  0  0
 15 21  1  0  0  0  0
 16 20  1  0  0  0  0
 16 17  1  0  0  0  0
 17 18  2  0  0  0  0
 17 40  1  0  0  0  0
 18 19  1  0  0  0  0
 18 41  1  0  0  0  0
 19 20  2  0  0  0  0
 20 42  1  0  0  0  0
 21 22  2  0  0  0  0
 21 43  1  0  0  0  0
 22 23  1  0  0  0  0
 22 44  1  0  0  0  0
 23 24  2  0  0  0  0
 25 45  1  0  0  0  0
M  END
> <s_m_source_file>
AV-unprocessed.smi

> <i_m_source_file_index>
2358

> <i_lp_mmshare_version>
43012

> <i_f3d_flags>
0

> <s_epik_input>
W0NIM11jMVtjSF1jKFtDSDNdKVtjSF1jKFtjSF0xKU9bQ0gyXVtDQEhdKFtPSF0pW0NIMl1uMm5jKFtjSF1bY0hdYzI9TyktbjNbY0hdW2NIXW5bY0hdMw==

> <s_epik_cmdline>
J2VwaWtfcHl0aG9uJywgJy1waCcsICc3LjAnLCAnLXRuJywgJzgnLCAnLW1hJywgJzIwMCcsICctbWV0YWxfYmluZGluZycsICctaW1hZScsICc8aW5maWxlLm1hZT4nLCAnLW9tYWUnLCAnPG91dGZpbGUubWFlPic=

> <r_lp_tautomer_probability>
1

> <r_epik_Ionization_Penalty>
0.03707

> <r_epik_Ionization_Penalty_Charging>
0.0370699

> <r_epik_Ionization_Penalty_Neutral>
1.17174e-07

> <r_epik_State_Penalty>
0.0310055

> <r_epik_Charging_Adjusted_Penalty>
0.0680754

> <i_epik_Tot_Q>
0

> <i_epik_Tot_abs_Q>
0

> <r_epik_Metal_State_Penalty>
0.0291724

> <b_epik_Metal_Only>
0

> <s_lp_Force_Field>
OPLS_2005

> <r_lp_Energy>
35.3101

> <b_lp_Chiralities_Consistent>
1

> <s_lp_Variant>
AV-unprocessed.smi:2358-2

> <Gold.Version>
5.8.1

> <Gold.Id.Protein>
6NUR|6NUR_protein|mol2

> <Gold.PLP.Fitness>
54.0755

> <Gold.PLP.PLP>
-48.5861

> <Gold.PLP.part.hbond>
-2.0000

> <Gold.PLP.part.metal>
0.0000

> <Gold.PLP.part.buried>
-7.0607

> <Gold.PLP.part.nonpolar>
-39.9058

> <Gold.PLP.part.repulsive>
1.0158

> <Gold.PLP.ligand.clash>
0.0029

> <Gold.PLP.ligand.torsion>
1.6059

> <Gold.PLP.Chemscore.Hbond>
1.8800

> <Gold.PLP.Chemscore.CHOScore>
1.0000

> <Gold.PLP.Chemscore.Metal>
0.0000

> <Gold.Chemscore.Hbonds>
donor molecule, donor type, donor heavy atom, donor atom, acceptor molecule, acceptor atom, score
      P1  H  6896  6908       L1    11  0.71
      P1  H 10752 10763       L1    24  0.96
      L1  C    17    40       P1  7957  0.10

> <Gold.PLP.Chemscore.Internal.Correction>
0.0641

> <Gold.Rescore>
     Score         DG    S(hbond)    S(metal)    S(lipo)     H(rot)  DE(clash)    DE(int)     intcor
     15.09     -19.56       1.93        0.00     122.14       2.60       0.04       4.44       ----

> <Gold.Chemscore.Fitness>
15.0851

> <Gold.Chemscore.DG>
-19.5572

> <Gold.Chemscore.ZeroCoef>
-5.4800

> <Gold.Chemscore.Hbond>
1.9278

> <Gold.Chemscore.Metal>
0.0000

> <Gold.Chemscore.Lipo>
122.1430

> <Gold.Chemscore.Internal_Hbond>
0.0000

> <Gold.Chemscore.DEClash>
0.0358

> <Gold.Chemscore.DEInternal>
4.4363

> <Gold.Chemscore.Rot>
2.5986

> <Gold.Chemscore.Internal.Correction>
   9.000000E+99

> <Gold.Chemscore.Hbonds>
donor molecule, donor type, donor heavy atom, donor atom, acceptor molecule, acceptor atom, score
      P1  H  6896  6908       L1    11  0.40
      P1  H 10752 10763       L1    24  0.92

> <Gold.Chemscore.Hbond.Weighted>
-6.4388

> <Gold.Chemscore.Metal.Weighted>
-0.0000

> <Gold.Chemscore.Lipo.Weighted>
-14.2907

> <Gold.Chemscore.Internal_Hbond.Weighted>
0.0000

> <Gold.Chemscore.DEClash.Weighted>
0.0358

> <Gold.Chemscore.DEInternal.Weighted>
4.4363

> <Gold.Chemscore.Rot.Weighted>
6.6524

> <Gold.Chemscore.Internal.Correction.Weighted>
   9.000000E+99

> <Gold.Protein.RotatedTorsions>
[ 6907 6896 6895 6894 ] final -120.15 input  -60.11 | X-H torsion
[ 7974 7965 7964 7962 ] final   22.77 input  175.53 | X-H torsion
[ 8008 7997 7996 7995 ] final -159.87 input   59.86 | X-H torsion
[ 10167 10162 10161 10158 ] final -136.10 input  -65.29 | X-H torsion
[ 10718 10713 10712 10709 ] final  -46.15 input   66.30 | X-H torsion
[ 10763 10752 10751 10750 ] final   61.43 input  -60.55 | X-H torsion
[ 11005 11000 10999 10996 ] final -158.35 input  -57.11 | X-H torsion

> <Gold.Protein.ActiveResidues>
 VAL166  LYS551  ARG553  GLY616  TRP617  ASP618  TYR619  PRO620  LYS621  CYS622 
 ASP623  PHE694  ASN695  SER759  ASP760  ASP761  ALA762  ILE779  LEU786  VAL792 
 PHE793  MET794  SER795  GLU796  ALA797  LYS798  CYS799  TRP800  GLU811  SER814 

> <Gold.Protein.RotatedAtoms>
  150.8368  133.8001  159.3076 H   0  0  0  0  0  0  0  0  0  0  0  0  # atno 6907 bound_to 6896
  151.5715  135.1060  160.0005 H   0  0  0  0  0  0  0  0  0  0  0  0  # atno 6908 bound_to 6896
  152.4439  133.7457  159.6722 H   0  0  0  0  0  0  0  0  0  0  0  0  # atno 6909 bound_to 6896
  146.2014  139.7838  142.8759 H   0  0  0  0  0  0  0  0  0  0  0  0  # atno 7974 bound_to 7965
  155.7690  140.0849  157.2117 H   0  0  0  0  0  0  0  0  0  0  0  0  # atno 8008 bound_to 7997
  154.3997  140.1529  156.2977 H   0  0  0  0  0  0  0  0  0  0  0  0  # atno 8009 bound_to 7997
  155.8765  140.3423  155.5860 H   0  0  0  0  0  0  0  0  0  0  0  0  # atno 8010 bound_to 7997
  139.8712  143.6955  152.2639 H   0  0  0  0  0  0  0  0  0  0  0  0  # atno 10167 bound_to 10162
  156.2212  130.4166  149.8990 H   0  0  0  0  0  0  0  0  0  0  0  0  # atno 10718 bound_to 10713
  152.9950  135.5501  154.6032 H   0  0  0  0  0  0  0  0  0  0  0  0  # atno 10763 bound_to 10752
  154.5369  135.2817  155.1133 H   0  0  0  0  0  0  0  0  0  0  0  0  # atno 10764 bound_to 10752
  154.2426  135.6413  153.5265 H   0  0  0  0  0  0  0  0  0  0  0  0  # atno 10765 bound_to 10752
  140.6546  134.4414  157.5235 H   0  0  0  0  0  0  0  0  0  0  0  0  # atno 11005 bound_to 11000
  145.3471  141.0300  143.3360 LP  0  0  0  0  0  0  0  0  0  0  0  0  # atno 17320 bound_to 7965
  144.8692  139.5063  143.6776 LP  0  0  0  0  0  0  0  0  0  0  0  0  # atno 17321 bound_to 7965
  139.7282  144.7588  151.0845 LP  0  0  0  0  0  0  0  0  0  0  0  0  # atno 17342 bound_to 10162
  140.7760  143.5121  150.9639 LP  0  0  0  0  0  0  0  0  0  0  0  0  # atno 17343 bound_to 10162
  156.6636  130.8792  151.3551 LP  0  0  0  0  0  0  0  0  0  0  0  0  # atno 17370 bound_to 10713
  157.7088  130.9416  150.1020 LP  0  0  0  0  0  0  0  0  0  0  0  0  # atno 17371 bound_to 10713
  139.9034  134.8504  156.1804 LP  0  0  0  0  0  0  0  0  0  0  0  0  # atno 17394 bound_to 11000
  141.0511  133.6888  156.1773 LP  0  0  0  0  0  0  0  0  0  0  0  0  # atno 17395 bound_to 11000

$$$$
