AV-unprocessed.smi:1401|AV-procd|sdf|5689|dock10
  -GOLD-   22720 5313D 1   1.00000     0.00000
 Structure written by MMmdl.
 48 50  0  0  0  0  0  0  0  0  1 V2000
  147.0140  139.8516  154.2426 C   0  0  0  0  0  0  0  0  0  0  0  0
  148.2075  138.9533  154.4224 C   0  0  0  0  0  0  0  0  0  0  0  0
  147.9712  137.6860  154.5099 N   0  0  0  0  0  0  0  0  0  0  0  0
  148.9913  136.7732  154.7018 N   0  0  0  0  0  0  0  0  0  0  0  0
  148.5176  135.3906  154.8881 C   0  0  0  0  0  0  0  0  0  0  0  0
  147.0433  135.1812  154.4984 C   0  0  0  0  0  0  0  0  0  0  0  0
  146.2384  134.8113  155.3523 O   0  0  0  0  0  0  0  0  0  0  0  0
  146.7084  135.3741  153.2120 N   0  0  0  0  0  0  0  0  0  0  0  0
  145.4316  135.0502  152.5881 C   0  0  1  0  0  0  0  0  0  0  0  0
  144.5554  136.3097  152.4776 C   0  0  0  0  0  0  0  0  0  0  0  0
  145.6962  134.4062  151.2060 C   0  0  2  0  0  0  0  0  0  0  0  0
  144.4481  134.2658  150.3069 C   0  0  0  0  0  0  0  0  0  0  0  0
  144.5072  132.7916  149.8621 C   0  0  2  0  0  0  0  0  0  0  0  0
  144.1164  131.8893  151.0476 C   0  0  0  0  0  0  0  0  0  0  0  0
  145.3458  131.9889  151.9690 C   0  0  0  0  0  0  0  0  0  0  0  0
  146.2645  132.9632  151.2046 C   0  0  1  0  0  0  0  0  0  0  0  0
  146.0079  132.5441  149.7614 C   0  0  0  0  0  0  0  0  0  0  0  0
  150.3134  137.0970  154.7967 C   0  0  0  0  0  0  0  0  0  0  0  0
  151.1904  136.2535  154.9868 O   0  0  0  0  0  0  0  0  0  0  0  0
  150.5754  138.5335  154.6800 C   0  0  0  0  0  0  0  0  0  0  0  0
  151.9471  138.9167  154.7770 C   0  0  0  0  0  0  0  0  0  0  0  0
  153.0618  139.2227  154.8357 N   0  0  0  0  0  0  0  0  0  0  0  0
  149.5804  139.4391  154.5057 C   0  0  0  0  0  0  0  0  0  0  0  0
  149.7972  140.9420  154.3962 C   0  0  0  0  0  0  0  0  0  0  0  0
  147.0845  140.4071  153.3073 H   0  0  0  0  0  0  0  0  0  0  0  0
  146.9449  140.5695  155.0601 H   0  0  0  0  0  0  0  0  0  0  0  0
  146.0799  139.2879  154.2225 H   0  0  0  0  0  0  0  0  0  0  0  0
  149.1293  134.7181  154.2838 H   0  0  0  0  0  0  0  0  0  0  0  0
  148.6562  135.0568  155.9175 H   0  0  0  0  0  0  0  0  0  0  0  0
  147.4370  135.6943  152.5907 H   0  0  0  0  0  0  0  0  0  0  0  0
  144.9126  134.3277  153.2201 H   0  0  0  0  0  0  0  0  0  0  0  0
  143.5929  136.0812  152.0195 H   0  0  0  0  0  0  0  0  0  0  0  0
  145.0377  137.0774  151.8715 H   0  0  0  0  0  0  0  0  0  0  0  0
  144.3537  136.7399  153.4588 H   0  0  0  0  0  0  0  0  0  0  0  0
  146.4225  135.0316  150.6834 H   0  0  0  0  0  0  0  0  0  0  0  0
  143.5173  134.4934  150.8276 H   0  0  0  0  0  0  0  0  0  0  0  0
  144.5186  134.9369  149.4500 H   0  0  0  0  0  0  0  0  0  0  0  0
  143.9426  132.5863  148.9523 H   0  0  0  0  0  0  0  0  0  0  0  0
  143.2008  132.2227  151.5377 H   0  0  0  0  0  0  0  0  0  0  0  0
  143.9654  130.8595  150.7213 H   0  0  0  0  0  0  0  0  0  0  0  0
  145.0952  132.3291  152.9733 H   0  0  0  0  0  0  0  0  0  0  0  0
  145.8251  131.0142  152.0682 H   0  0  0  0  0  0  0  0  0  0  0  0
  147.3103  132.9050  151.5076 H   0  0  0  0  0  0  0  0  0  0  0  0
  146.2632  131.5021  149.5605 H   0  0  0  0  0  0  0  0  0  0  0  0
  146.5044  133.1819  149.0279 H   0  0  0  0  0  0  0  0  0  0  0  0
  150.8513  141.2130  154.4500 H   0  0  0  0  0  0  0  0  0  0  0  0
  149.2837  141.4610  155.2066 H   0  0  0  0  0  0  0  0  0  0  0  0
  149.4114  141.3171  153.4476 H   0  0  0  0  0  0  0  0  0  0  0  0
  1  2  1  0  0  0  0
  1 25  1  0  0  0  0
  1 26  1  0  0  0  0
  1 27  1  0  0  0  0
  2 23  1  0  0  0  0
  2  3  2  0  0  0  0
  3  4  1  0  0  0  0
  4  5  1  0  0  0  0
  4 18  1  0  0  0  0
  5  6  1  0  0  0  0
  5 28  1  0  0  0  0
  5 29  1  0  0  0  0
  6  7  2  0  0  0  0
  6  8  1  0  0  0  0
  8  9  1  0  0  0  0
  8 30  1  0  0  0  0
  9 10  1  0  0  0  0
  9 11  1  0  0  0  0
  9 31  1  0  0  0  0
 10 32  1  0  0  0  0
 10 33  1  0  0  0  0
 10 34  1  0  0  0  0
 11 16  1  0  0  0  0
 11 12  1  0  0  0  0
 11 35  1  0  0  0  0
 12 13  1  0  0  0  0
 12 36  1  0  0  0  0
 12 37  1  0  0  0  0
 13 17  1  0  0  0  0
 13 14  1  0  0  0  0
 13 38  1  0  0  0  0
 14 15  1  0  0  0  0
 14 39  1  0  0  0  0
 14 40  1  0  0  0  0
 15 16  1  0  0  0  0
 15 41  1  0  0  0  0
 15 42  1  0  0  0  0
 16 17  1  0  0  0  0
 16 43  1  0  0  0  0
 17 44  1  0  0  0  0
 17 45  1  0  0  0  0
 18 19  2  0  0  0  0
 18 20  1  0  0  0  0
 20 21  1  0  0  0  0
 20 23  2  0  0  0  0
 21 22  3  0  0  0  0
 23 24  1  0  0  0  0
 24 46  1  0  0  0  0
 24 47  1  0  0  0  0
 24 48  1  0  0  0  0
M  END
> <s_m_source_file>
AV-unprocessed.smi

> <i_m_source_file_index>
1401

> <i_lp_mmshare_version>
43012

> <i_f3d_flags>
0

> <s_epik_input>
TiNDYyhjMVtDSDNdKWMoPU8pbihuYzFbQ0gzXSlbQ0gyXUMoPU8pW05IXVtDQEhdKFtDSDNdKVtDQEhdKFtDSDJdW0NASF0yMylbQ0BIXShbQ0gyXTMpW0NIMl1bQ0gyXTI=

> <s_epik_cmdline>
J2VwaWtfcHl0aG9uJywgJy1waCcsICc3LjAnLCAnLXRuJywgJzgnLCAnLW1hJywgJzIwMCcsICctbWV0YWxfYmluZGluZycsICctaW1hZScsICc8aW5maWxlLm1hZT4nLCAnLW9tYWUnLCAnPG91dGZpbGUubWFlPic=

> <r_lp_tautomer_probability>
1

> <r_epik_Ionization_Penalty>
2.16501e-08

> <r_epik_Ionization_Penalty_Charging>
2.29436e-11

> <r_epik_Ionization_Penalty_Neutral>
2.16271e-08

> <r_epik_State_Penalty>
-0

> <r_epik_Charging_Adjusted_Penalty>
2.29436e-11

> <i_epik_Tot_Q>
0

> <i_epik_Tot_abs_Q>
0

> <r_epik_Metal_State_Penalty>
-0

> <b_epik_Metal_Only>
0

> <s_lp_Force_Field>
OPLS_2005

> <r_lp_Energy>
65.4856

> <b_lp_Chiralities_Consistent>
1

> <s_lp_Variant>
AV-unprocessed.smi:1401-2

> <Gold.Version>
5.8.1

> <Gold.Id.Protein>
6NUR|6NUR_protein|mol2

> <Gold.PLP.Fitness>
45.3274

> <Gold.PLP.PLP>
-37.4413

> <Gold.PLP.part.hbond>
-3.9822

> <Gold.PLP.part.metal>
0.0000

> <Gold.PLP.part.buried>
-1.8046

> <Gold.PLP.part.nonpolar>
-32.1729

> <Gold.PLP.part.repulsive>
0.2785

> <Gold.PLP.ligand.clash>
0.0000

> <Gold.PLP.ligand.torsion>
0.5728

> <Gold.PLP.Chemscore.Hbond>
3.0000

> <Gold.PLP.Chemscore.CHOScore>
0.0000

> <Gold.PLP.Chemscore.Metal>
0.0000

> <Gold.Chemscore.Hbonds>
donor molecule, donor type, donor heavy atom, donor atom, acceptor molecule, acceptor atom, score
      L1  H     8    30       P1  7948  1.00
      P1  H  7997  8009       L1    22  1.00
      P1  H 10752 10765       L1    19  1.00

> <Gold.PLP.Chemscore.Internal.Correction>
0.0317

> <Gold.Rescore>
     Score         DG    S(hbond)    S(metal)    S(lipo)     H(rot)  DE(clash)    DE(int)     intcor
     21.38     -22.08       2.99        0.00      92.06       1.63       0.06       0.65       ----

> <Gold.Chemscore.Fitness>
21.3783

> <Gold.Chemscore.DG>
-22.0808

> <Gold.Chemscore.ZeroCoef>
-5.4800

> <Gold.Chemscore.Hbond>
2.9933

> <Gold.Chemscore.Metal>
0.0000

> <Gold.Chemscore.Lipo>
92.0614

> <Gold.Chemscore.Internal_Hbond>
0.0000

> <Gold.Chemscore.DEClash>
0.0562

> <Gold.Chemscore.DEInternal>
0.6463

> <Gold.Chemscore.Rot>
1.6281

> <Gold.Chemscore.Internal.Correction>
   9.000000E+99

> <Gold.Chemscore.Hbonds>
donor molecule, donor type, donor heavy atom, donor atom, acceptor molecule, acceptor atom, score
      L1  H     8    30       P1  7948  1.00
      P1  H  7997  8009       L1    22  0.97
      P1  H 10752 10765       L1    19  1.00

> <Gold.Chemscore.Hbond.Weighted>
-9.9975

> <Gold.Chemscore.Metal.Weighted>
-0.0000

> <Gold.Chemscore.Lipo.Weighted>
-10.7712

> <Gold.Chemscore.Internal_Hbond.Weighted>
0.0000

> <Gold.Chemscore.DEClash.Weighted>
0.0562

> <Gold.Chemscore.DEInternal.Weighted>
0.6463

> <Gold.Chemscore.Rot.Weighted>
4.1678

> <Gold.Chemscore.Internal.Correction.Weighted>
   9.000000E+99

> <Gold.Protein.RotatedTorsions>
[ 6907 6896 6895 6894 ] final  167.68 input  -60.11 | X-H torsion
[ 7974 7965 7964 7962 ] final  -99.20 input  175.53 | X-H torsion
[ 8008 7997 7996 7995 ] final -130.87 input   59.86 | X-H torsion
[ 10167 10162 10161 10158 ] final   36.15 input  -65.29 | X-H torsion
[ 10718 10713 10712 10709 ] final -109.59 input   66.30 | X-H torsion
[ 10763 10752 10751 10750 ] final  176.35 input  -60.55 | X-H torsion
[ 11005 11000 10999 10996 ] final   12.36 input  -57.11 | X-H torsion

> <Gold.Protein.ActiveResidues>
 VAL166  LYS551  ARG553  GLY616  TRP617  ASP618  TYR619  PRO620  LYS621  CYS622 
 ASP623  PHE694  ASN695  SER759  ASP760  ASP761  ALA762  ILE779  LEU786  VAL792 
 PHE793  MET794  SER795  GLU796  ALA797  LYS798  CYS799  TRP800  GLU811  SER814 

> <Gold.Protein.RotatedAtoms>
  151.8594  133.3454  159.3698 H   0  0  0  0  0  0  0  0  0  0  0  0  # atno 6907 bound_to 6896
  150.7183  134.5221  159.5668 H   0  0  0  0  0  0  0  0  0  0  0  0  # atno 6908 bound_to 6896
  152.2731  134.7912  160.0461 H   0  0  0  0  0  0  0  0  0  0  0  0  # atno 6909 bound_to 6896
  145.3106  140.9399  143.2771 H   0  0  0  0  0  0  0  0  0  0  0  0  # atno 7974 bound_to 7965
  155.3029  140.0453  157.3030 H   0  0  0  0  0  0  0  0  0  0  0  0  # atno 8008 bound_to 7997
  154.5476  140.2307  155.8504 H   0  0  0  0  0  0  0  0  0  0  0  0  # atno 8009 bound_to 7997
  156.1938  140.3043  155.9393 H   0  0  0  0  0  0  0  0  0  0  0  0  # atno 8010 bound_to 7997
  140.4155  144.1533  150.6143 H   0  0  0  0  0  0  0  0  0  0  0  0  # atno 10167 bound_to 10162
  156.0545  130.5771  150.8120 H   0  0  0  0  0  0  0  0  0  0  0  0  # atno 10718 bound_to 10713
  154.4800  135.2774  155.1578 H   0  0  0  0  0  0  0  0  0  0  0  0  # atno 10763 bound_to 10752
  154.3292  135.6193  153.5547 H   0  0  0  0  0  0  0  0  0  0  0  0  # atno 10764 bound_to 10752
  152.9874  135.5761  154.5199 H   0  0  0  0  0  0  0  0  0  0  0  0  # atno 10765 bound_to 10752
  140.4929  134.0823  155.7775 H   0  0  0  0  0  0  0  0  0  0  0  0  # atno 11005 bound_to 11000
  144.9019  139.4639  143.6628 LP  0  0  0  0  0  0  0  0  0  0  0  0  # atno 17320 bound_to 7965
  146.3119  139.7777  142.9013 LP  0  0  0  0  0  0  0  0  0  0  0  0  # atno 17321 bound_to 7965
  140.4591  143.2456  151.9244 LP  0  0  0  0  0  0  0  0  0  0  0  0  # atno 17342 bound_to 10162
  139.4782  144.5485  151.8421 LP  0  0  0  0  0  0  0  0  0  0  0  0  # atno 17343 bound_to 10162
  157.5502  131.0943  150.9706 LP  0  0  0  0  0  0  0  0  0  0  0  0  # atno 17370 bound_to 10713
  156.9968  130.5584  149.5308 LP  0  0  0  0  0  0  0  0  0  0  0  0  # atno 17371 bound_to 10713
  141.1475  133.9029  157.2180 LP  0  0  0  0  0  0  0  0  0  0  0  0  # atno 17394 bound_to 11000
  139.9759  135.0114  156.9629 LP  0  0  0  0  0  0  0  0  0  0  0  0  # atno 17395 bound_to 11000

$$$$
