AV-unprocessed.smi:1570|AV-procd|sdf|6324|dock3
  -GOLD-   22720 6533D 1   1.00000     0.00000
 Structure written by MMmdl.
 52 54  0  0  0  0  0  0  0  0  2 V2000
  150.4743  142.1926  157.8100 C   0  0  0  0  0  0  0  0  0  0  0  0
  151.3450  141.8479  156.5950 C   0  0  0  0  0  0  0  0  0  0  0  0
  150.8113  140.6958  155.8728 N   0  0  0  0  0  0  0  0  0  0  0  0
  151.3628  139.4616  155.8017 C   0  0  0  0  0  0  0  0  0  0  0  0
  152.4261  139.1108  156.3137 O   0  0  0  0  0  0  0  0  0  0  0  0
  150.5425  138.6760  155.0651 N   0  0  0  0  0  0  0  0  0  0  0  0
  150.7539  137.2669  154.7398 C   0  0  0  0  0  0  0  0  0  0  0  0
  149.7556  136.3551  155.4820 C   0  0  2  0  0  0  0  0  0  0  0  0
  150.1136  136.3351  156.8503 O   0  0  0  0  0  0  0  0  0  0  0  0
  149.8151  134.9053  154.9584 C   0  0  0  0  0  0  0  0  0  0  0  0
  148.5856  134.5055  154.2206 N   0  3  1  0  0  0  0  0  0  0  0  0
  148.6345  133.1588  153.5948 C   0  0  0  0  0  0  0  0  0  0  0  0
  148.4067  132.0362  154.6303 C   0  0  2  0  0  0  0  0  0  0  0  0
  148.3159  130.6564  153.9691 C   0  0  0  0  0  0  0  0  0  0  0  0
  147.1856  132.2737  155.3232 O   0  0  0  0  0  0  0  0  0  0  0  0
  147.1811  133.5099  156.0292 C   0  0  2  0  0  0  0  0  0  0  0  0
  145.8665  133.6089  156.8109 C   0  0  0  0  0  0  0  0  0  0  0  0
  147.3427  134.6606  155.0151 C   0  0  0  0  0  0  0  0  0  0  0  0
  149.4381  139.4308  154.6454 C   0  0  0  0  0  0  0  0  0  0  0  0
  148.3233  139.0845  153.8621 C   0  0  0  0  0  0  0  0  0  0  0  0
  147.3657  140.0962  153.6171 C   0  0  0  0  0  0  0  0  0  0  0  0
  147.5358  141.4018  154.1465 C   0  0  0  0  0  0  0  0  0  0  0  0
  148.6682  141.7240  154.9304 C   0  0  0  0  0  0  0  0  0  0  0  0
  149.6057  140.7011  155.1566 C   0  0  0  0  0  0  0  0  0  0  0  0
  150.8767  143.0541  158.3431 H   0  0  0  0  0  0  0  0  0  0  0  0
  150.4286  141.3595  158.5120 H   0  0  0  0  0  0  0  0  0  0  0  0
  149.4543  142.4345  157.5095 H   0  0  0  0  0  0  0  0  0  0  0  0
  151.4065  142.7045  155.9236 H   0  0  0  0  0  0  0  0  0  0  0  0
  152.3670  141.6440  156.9180 H   0  0  0  0  0  0  0  0  0  0  0  0
  150.6189  137.1587  153.6622 H   0  0  0  0  0  0  0  0  0  0  0  0
  151.7861  136.9700  154.9310 H   0  0  0  0  0  0  0  0  0  0  0  0
  148.7460  136.7521  155.3811 H   0  0  0  0  0  0  0  0  0  0  0  0
  150.9778  135.9608  156.9326 H   0  0  0  0  0  0  0  0  0  0  0  0
  150.6879  134.7716  154.3198 H   0  0  0  0  0  0  0  0  0  0  0  0
  149.9624  134.2387  155.8098 H   0  0  0  0  0  0  0  0  0  0  0  0
  147.8487  133.1154  152.8393 H   0  0  0  0  0  0  0  0  0  0  0  0
  149.5708  133.0032  153.0609 H   0  0  0  0  0  0  0  0  0  0  0  0
  149.2270  132.0138  155.3487 H   0  0  0  0  0  0  0  0  0  0  0  0
  149.2320  130.4192  153.4274 H   0  0  0  0  0  0  0  0  0  0  0  0
  147.4872  130.6105  153.2618 H   0  0  0  0  0  0  0  0  0  0  0  0
  148.1601  129.8765  154.7150 H   0  0  0  0  0  0  0  0  0  0  0  0
  148.0052  133.5206  156.7445 H   0  0  0  0  0  0  0  0  0  0  0  0
  145.8166  134.5383  157.3788 H   0  0  0  0  0  0  0  0  0  0  0  0
  145.7708  132.7839  157.5172 H   0  0  0  0  0  0  0  0  0  0  0  0
  145.0052  133.5772  156.1431 H   0  0  0  0  0  0  0  0  0  0  0  0
  147.3278  135.6291  155.5167 H   0  0  0  0  0  0  0  0  0  0  0  0
  146.4958  134.6613  154.3272 H   0  0  0  0  0  0  0  0  0  0  0  0
  148.1984  138.0900  153.4607 H   0  0  0  0  0  0  0  0  0  0  0  0
  146.4941  139.8720  153.0202 H   0  0  0  0  0  0  0  0  0  0  0  0
  146.7917  142.1590  153.9483 H   0  0  0  0  0  0  0  0  0  0  0  0
  148.8023  142.7160  155.3358 H   0  0  0  0  0  0  0  0  0  0  0  0
  148.5143  135.1714  153.4637 H   0  0  0  0  0  0  0  0  0  0  0  0
  1  2  1  0  0  0  0
  1 25  1  0  0  0  0
  1 26  1  0  0  0  0
  1 27  1  0  0  0  0
  2  3  1  0  0  0  0
  2 28  1  0  0  0  0
  2 29  1  0  0  0  0
  3 24  1  0  0  0  0
  3  4  1  0  0  0  0
  4  5  2  0  0  0  0
  4  6  1  0  0  0  0
  6  7  1  0  0  0  0
  6 19  1  0  0  0  0
  7  8  1  0  0  0  0
  7 30  1  0  0  0  0
  7 31  1  0  0  0  0
  8  9  1  0  0  0  0
  8 10  1  0  0  0  0
  8 32  1  0  0  0  0
  9 33  1  0  0  0  0
 10 11  1  0  0  0  0
 10 34  1  0  0  0  0
 10 35  1  0  0  0  0
 11 18  1  0  0  0  0
 11 12  1  0  0  0  0
 11 52  1  0  0  0  0
 12 13  1  0  0  0  0
 12 36  1  0  0  0  0
 12 37  1  0  0  0  0
 13 14  1  0  0  0  0
 13 15  1  0  0  0  0
 13 38  1  0  0  0  0
 14 39  1  0  0  0  0
 14 40  1  0  0  0  0
 14 41  1  0  0  0  0
 15 16  1  0  0  0  0
 16 17  1  0  0  0  0
 16 18  1  0  0  0  0
 16 42  1  0  0  0  0
 17 43  1  0  0  0  0
 17 44  1  0  0  0  0
 17 45  1  0  0  0  0
 18 46  1  0  0  0  0
 18 47  1  0  0  0  0
 19 24  2  0  0  0  0
 19 20  1  0  0  0  0
 20 21  2  0  0  0  0
 20 48  1  0  0  0  0
 21 22  1  0  0  0  0
 21 49  1  0  0  0  0
 22 23  2  0  0  0  0
 22 50  1  0  0  0  0
 23 24  1  0  0  0  0
 23 51  1  0  0  0  0
M  CHG  1  11   1
M  END
> <s_m_source_file>
AV-unprocessed.smi

> <i_m_source_file_index>
1570

> <i_lp_mmshare_version>
43012

> <i_f3d_flags>
0

> <s_epik_input>
W2NIXTFbY0hdW2NIXVtjSF1jKGMxMiluKFtDSDJdW0NIM10pYyg9TyluMltDSDJdW0NASF0oW09IXSlbQ0gyXU4zW0NIMl1bQ0BASF0oW0NIM10pT1tDQEBIXShbQ0gzXSlbQ0gyXTM=

> <s_epik_cmdline>
J2VwaWtfcHl0aG9uJywgJy1waCcsICc3LjAnLCAnLXRuJywgJzgnLCAnLW1hJywgJzIwMCcsICctbWV0YWxfYmluZGluZycsICctaW1hZScsICc8aW5maWxlLm1hZT4nLCAnLW9tYWUnLCAnPG91dGZpbGUubWFlPic=

> <r_epik_Ionization_Penalty>
0.706332

> <r_epik_Ionization_Penalty_Charging>
0.706318

> <r_epik_Ionization_Penalty_Neutral>
1.42224e-05

> <r_epik_State_Penalty>
0.729493

> <r_epik_Charging_Adjusted_Penalty>
1.43581

> <i_epik_Tot_Q>
1

> <i_epik_Tot_abs_Q>
1

> <r_epik_Metal_State_Penalty>
0.729493

> <b_epik_Metal_Only>
0

> <s_lp_Force_Field>
OPLS_2005

> <r_lp_Energy>
54.3222

> <b_lp_Chiralities_Consistent>
1

> <s_lp_Variant>
AV-unprocessed.smi:1570-13

> <Gold.Version>
5.8.1

> <Gold.Id.Protein>
6NUR|6NUR_protein|mol2

> <Gold.PLP.Fitness>
49.1988

> <Gold.PLP.PLP>
-41.9459

> <Gold.PLP.part.hbond>
-1.9827

> <Gold.PLP.part.metal>
0.0000

> <Gold.PLP.part.buried>
-1.7032

> <Gold.PLP.part.nonpolar>
-37.8451

> <Gold.PLP.part.repulsive>
0.0090

> <Gold.PLP.ligand.clash>
0.0000

> <Gold.PLP.ligand.torsion>
0.9457

> <Gold.PLP.Chemscore.Hbond>
3.0000

> <Gold.PLP.Chemscore.CHOScore>
0.0000

> <Gold.PLP.Chemscore.Metal>
0.0000

> <Gold.Chemscore.Hbonds>
donor molecule, donor type, donor heavy atom, donor atom, acceptor molecule, acceptor atom, score
      L1  H    11    52       P1  7948  2.00
      P1  H  7997  8009       L1     5  0.68

> <Gold.PLP.Chemscore.Internal.Correction>
0.1444

> <Gold.Rescore>
     Score         DG    S(hbond)    S(metal)    S(lipo)     H(rot)  DE(clash)    DE(int)     intcor
     12.45     -13.35       0.99        0.00      85.74       2.13       0.15       0.75       ----

> <Gold.Chemscore.Fitness>
12.4525

> <Gold.Chemscore.DG>
-13.3532

> <Gold.Chemscore.ZeroCoef>
-5.4800

> <Gold.Chemscore.Hbond>
0.9865

> <Gold.Chemscore.Metal>
0.0000

> <Gold.Chemscore.Lipo>
85.7410

> <Gold.Chemscore.Internal_Hbond>
0.0000

> <Gold.Chemscore.DEClash>
0.1486

> <Gold.Chemscore.DEInternal>
0.7520

> <Gold.Chemscore.Rot>
2.1303

> <Gold.Chemscore.Internal.Correction>
   9.000000E+99

> <Gold.Chemscore.Hbonds>
donor molecule, donor type, donor heavy atom, donor atom, acceptor molecule, acceptor atom, score
      L1  H    11    52       P1  7948  0.89
      P1  H  7997  8009       L1     5  0.69

> <Gold.Chemscore.Hbond.Weighted>
-3.2950

> <Gold.Chemscore.Metal.Weighted>
-0.0000

> <Gold.Chemscore.Lipo.Weighted>
-10.0317

> <Gold.Chemscore.Internal_Hbond.Weighted>
0.0000

> <Gold.Chemscore.DEClash.Weighted>
0.1486

> <Gold.Chemscore.DEInternal.Weighted>
0.7520

> <Gold.Chemscore.Rot.Weighted>
5.4535

> <Gold.Chemscore.Internal.Correction.Weighted>
   9.000000E+99

> <Gold.Protein.RotatedTorsions>
[ 6907 6896 6895 6894 ] final  105.01 input  -60.11 | X-H torsion
[ 7974 7965 7964 7962 ] final  -37.52 input  175.53 | X-H torsion
[ 8008 7997 7996 7995 ] final -163.57 input   59.86 | X-H torsion
[ 10167 10162 10161 10158 ] final  131.13 input  -65.29 | X-H torsion
[ 10718 10713 10712 10709 ] final  -95.58 input   66.30 | X-H torsion
[ 10763 10752 10751 10750 ] final  128.12 input  -60.55 | X-H torsion
[ 11005 11000 10999 10996 ] final  158.29 input  -57.11 | X-H torsion

> <Gold.Protein.ActiveResidues>
 VAL166  LYS551  ARG553  GLY616  TRP617  ASP618  TYR619  PRO620  LYS621  CYS622 
 ASP623  PHE694  ASN695  SER759  ASP760  ASP761  ALA762  ILE779  LEU786  VAL792 
 PHE793  MET794  SER795  GLU796  ALA797  LYS798  CYS799  TRP800  GLU811  SER814 

> <Gold.Protein.RotatedAtoms>
  152.5245  133.9592  159.7708 H   0  0  0  0  0  0  0  0  0  0  0  0  # atno 6907 bound_to 6896
  150.9886  133.6164  159.2719 H   0  0  0  0  0  0  0  0  0  0  0  0  # atno 6908 bound_to 6896
  151.3316  135.0849  159.9393 H   0  0  0  0  0  0  0  0  0  0  0  0  # atno 6909 bound_to 6896
  146.0567  140.6406  142.9016 H   0  0  0  0  0  0  0  0  0  0  0  0  # atno 7974 bound_to 7965
  155.8231  140.0922  157.1837 H   0  0  0  0  0  0  0  0  0  0  0  0  # atno 8008 bound_to 7997
  154.3979  140.1433  156.3584 H   0  0  0  0  0  0  0  0  0  0  0  0  # atno 8009 bound_to 7997
  155.8245  140.3445  155.5537 H   0  0  0  0  0  0  0  0  0  0  0  0  # atno 8010 bound_to 7997
  139.5398  144.6719  151.4663 H   0  0  0  0  0  0  0  0  0  0  0  0  # atno 10167 bound_to 10162
  156.0046  130.5115  150.6097 H   0  0  0  0  0  0  0  0  0  0  0  0  # atno 10718 bound_to 10713
  153.7204  135.3254  155.3265 H   0  0  0  0  0  0  0  0  0  0  0  0  # atno 10763 bound_to 10752
  154.8358  135.4498  154.1224 H   0  0  0  0  0  0  0  0  0  0  0  0  # atno 10764 bound_to 10752
  153.2342  135.6963  153.7935 H   0  0  0  0  0  0  0  0  0  0  0  0  # atno 10765 bound_to 10752
  140.1851  134.8447  157.2848 H   0  0  0  0  0  0  0  0  0  0  0  0  # atno 11005 bound_to 11000
  144.7152  140.4183  143.7050 LP  0  0  0  0  0  0  0  0  0  0  0  0  # atno 17320 bound_to 7965
  145.6631  139.1585  143.2797 LP  0  0  0  0  0  0  0  0  0  0  0  0  # atno 17321 bound_to 7965
  140.6622  143.8474  150.6901 LP  0  0  0  0  0  0  0  0  0  0  0  0  # atno 17342 bound_to 10162
  140.1872  143.4066  152.1890 LP  0  0  0  0  0  0  0  0  0  0  0  0  # atno 17343 bound_to 10162
  157.3931  131.0799  151.1375 LP  0  0  0  0  0  0  0  0  0  0  0  0  # atno 17370 bound_to 10713
  157.2061  130.6416  149.5756 LP  0  0  0  0  0  0  0  0  0  0  0  0  # atno 17371 bound_to 10713
  140.2223  134.4009  155.7560 LP  0  0  0  0  0  0  0  0  0  0  0  0  # atno 17394 bound_to 11000
  141.2224  133.7172  156.8509 LP  0  0  0  0  0  0  0  0  0  0  0  0  # atno 17395 bound_to 11000

$$$$
