AV-unprocessed.smi:72|AV-procd|sdf|729|dock6
  -GOLD-   2262017 53D 1   1.00000     0.00000
 Structure written by MMmdl.
 28 29  0  0  0  0  0  0  0  0  2 V2000
  151.2727  134.1670  157.0998 N   0  0  0  0  0  0  0  0  0  0  0  0
  150.9960  135.2070  156.4430 C   0  0  0  0  0  0  0  0  0  0  0  0
  149.6182  135.5268  156.1411 N   0  0  0  0  0  0  0  0  0  0  0  0
  149.3836  136.5897  155.4347 C   0  0  0  0  0  0  0  0  0  0  0  0
  150.4612  137.4375  154.9344 N   0  0  0  0  0  0  0  0  0  0  0  0
  150.2050  138.6868  154.1034 C   0  0  2  0  0  0  0  0  0  0  0  0
  150.8103  139.7959  154.7058 O   0  0  0  0  0  0  0  0  0  0  0  0
  149.8472  140.5185  155.4676 C   0  0  1  0  0  0  0  0  0  0  0  0
  150.3399  141.9402  155.7892 C   0  0  0  0  0  0  0  0  0  0  0  0
  149.4418  142.5767  156.6735 O   0  0  0  0  0  0  0  0  0  0  0  0
  148.6082  140.4299  154.5716 C   0  0  1  0  0  0  0  0  0  0  0  0
  148.6674  141.4053  153.5428 O   0  0  0  0  0  0  0  0  0  0  0  0
  148.6938  139.0014  154.0344 C   0  0  1  0  0  0  0  0  0  0  0  0
  148.1516  138.8785  152.7325 O   0  0  0  0  0  0  0  0  0  0  0  0
  151.8009  137.1227  155.2905 C   0  0  0  0  0  0  0  0  0  0  0  0
  152.6954  137.8772  154.9074 O   0  0  0  0  0  0  0  0  0  0  0  0
  152.0392  136.0083  156.0366 N   0  5  0  0  0  0  0  0  0  0  0  0
  150.6758  138.4922  153.1381 H   0  0  0  0  0  0  0  0  0  0  0  0
  149.6345  139.9799  156.3931 H   0  0  0  0  0  0  0  0  0  0  0  0
  147.6890  140.5893  155.1362 H   0  0  0  0  0  0  0  0  0  0  0  0
  148.1542  138.3349  154.7092 H   0  0  0  0  0  0  0  0  0  0  0  0
  152.2645  134.0521  157.2486 H   0  0  0  0  0  0  0  0  0  0  0  0
  148.3718  136.9042  155.1797 H   0  0  0  0  0  0  0  0  0  0  0  0
  151.3435  141.9273  156.2155 H   0  0  0  0  0  0  0  0  0  0  0  0
  150.3795  142.5385  154.8785 H   0  0  0  0  0  0  0  0  0  0  0  0
  149.4370  143.5018  156.4815 H   0  0  0  0  0  0  0  0  0  0  0  0
  148.7367  140.9545  152.7147 H   0  0  0  0  0  0  0  0  0  0  0  0
  148.8435  139.0445  152.1093 H   0  0  0  0  0  0  0  0  0  0  0  0
  1  2  2  0  0  0  0
  1 22  1  0  0  0  0
  2 17  1  0  0  0  0
  2  3  1  0  0  0  0
  3  4  2  0  0  0  0
  4  5  1  0  0  0  0
  4 23  1  0  0  0  0
  5  6  1  0  0  0  0
  5 15  1  0  0  0  0
  6 18  1  0  0  0  0
  6 13  1  0  0  0  0
  6  7  1  0  0  0  0
  7  8  1  0  0  0  0
  8 19  1  0  0  0  0
  8  9  1  0  0  0  0
  8 11  1  0  0  0  0
  9 10  1  0  0  0  0
  9 24  1  0  0  0  0
  9 25  1  0  0  0  0
 10 26  1  0  0  0  0
 11 20  1  0  0  0  0
 11 12  1  0  0  0  0
 11 13  1  0  0  0  0
 12 27  1  0  0  0  0
 13 21  1  0  0  0  0
 13 14  1  0  0  0  0
 14 28  1  0  0  0  0
 15 16  2  0  0  0  0
 15 17  1  0  0  0  0
M  CHG  1  17  -1
M  END
> <s_m_source_file>
AV-unprocessed.smi

> <i_m_source_file_index>
72

> <i_lp_mmshare_version>
43012

> <i_f3d_flags>
0

> <s_epik_input>
W05IMl1jMW5bY0hdbihjKD1PKW4xKVtDQEBIXTJPW0NASF0oW0NIMl1bT0hdKVtDQEBIXShbT0hdKVtDQEhdMltPSF0=

> <s_epik_cmdline>
J2VwaWtfcHl0aG9uJywgJy1waCcsICc3LjAnLCAnLXRuJywgJzgnLCAnLW1hJywgJzIwMCcsICctbWV0YWxfYmluZGluZycsICctaW1hZScsICc8aW5maWxlLm1hZT4nLCAnLW9tYWUnLCAnPG91dGZpbGUubWFlPic=

> <r_lp_tautomer_probability>
7.17554e-07

> <r_epik_Ionization_Penalty>
12.8705

> <r_epik_Ionization_Penalty_Charging>
5.64144

> <r_epik_Ionization_Penalty_Neutral>
7.22905

> <r_epik_State_Penalty>
3.30104

> <r_epik_Charging_Adjusted_Penalty>
8.94249

> <i_epik_Tot_Q>
-1

> <i_epik_Tot_abs_Q>
1

> <r_epik_Metal_State_Penalty>
0.529074

> <b_epik_Metal_Only>
1

> <s_epik_Chemistry_Notes>
This compound contains an acetal/aminal-like group ( X-CH(R)-Y where X, Y are N, S, or O) that may be acid/base labile, releasing an aldehyde.

> <s_lp_Force_Field>
OPLS_2005

> <r_lp_Energy>
36.9813

> <b_lp_Chiralities_Consistent>
1

> <s_lp_Variant>
AV-unprocessed.smi:72-67

> <Gold.Version>
5.8.1

> <Gold.Id.Protein>
6NUR|6NUR_protein|mol2

> <Gold.PLP.Fitness>
43.6566

> <Gold.PLP.PLP>
-25.6155

> <Gold.PLP.part.hbond>
-8.3180

> <Gold.PLP.part.metal>
0.0000

> <Gold.PLP.part.buried>
-2.2617

> <Gold.PLP.part.nonpolar>
-15.1257

> <Gold.PLP.part.repulsive>
0.1633

> <Gold.PLP.ligand.clash>
0.0000

> <Gold.PLP.ligand.torsion>
0.1559

> <Gold.PLP.Chemscore.Hbond>
6.1101

> <Gold.PLP.Chemscore.CHOScore>
0.0000

> <Gold.PLP.Chemscore.Metal>
0.0000

> <Gold.Chemscore.Hbonds>
donor molecule, donor type, donor heavy atom, donor atom, acceptor molecule, acceptor atom, score
      L1  H    10    26       P1  8028  1.00
      L1  H    12    27       P1  7957  1.00
      L1  H    14    28       P1  7957  1.00
      P1  H  6896  6908       L1     1  0.11
      P1  H  7989  7998       L1     7  1.00
      P1  H 10752 10763       L1    17  2.00

> <Gold.PLP.Chemscore.Internal.Correction>
0.0226

> <Gold.Rescore>
     Score         DG    S(hbond)    S(metal)    S(lipo)     H(rot)  DE(clash)    DE(int)     intcor
      9.70     -12.32       4.27        0.00      25.00       4.04       0.91       1.72       ----

> <Gold.Chemscore.Fitness>
9.6957

> <Gold.Chemscore.DG>
-12.3199

> <Gold.Chemscore.ZeroCoef>
-5.4800

> <Gold.Chemscore.Hbond>
4.2690

> <Gold.Chemscore.Metal>
0.0000

> <Gold.Chemscore.Lipo>
24.9972

> <Gold.Chemscore.Internal_Hbond>
0.0000

> <Gold.Chemscore.DEClash>
0.9060

> <Gold.Chemscore.DEInternal>
1.7183

> <Gold.Chemscore.Rot>
4.0403

> <Gold.Chemscore.Internal.Correction>
   9.000000E+99

> <Gold.Chemscore.Hbonds>
donor molecule, donor type, donor heavy atom, donor atom, acceptor molecule, acceptor atom, score
      L1  H    10    26       P1  8028  0.92
      L1  H    12    27       P1  7957  0.96
      L1  H    14    28       P1  7957  0.88
      P1  H  6896  6908       L1     1  0.01
      P1  H  7989  7998       L1     7  0.64
      P1  H 10752 10763       L1    17  0.24

> <Gold.Chemscore.Hbond.Weighted>
-14.2583

> <Gold.Chemscore.Metal.Weighted>
-0.0000

> <Gold.Chemscore.Lipo.Weighted>
-2.9247

> <Gold.Chemscore.Internal_Hbond.Weighted>
0.0000

> <Gold.Chemscore.DEClash.Weighted>
0.9060

> <Gold.Chemscore.DEInternal.Weighted>
1.7183

> <Gold.Chemscore.Rot.Weighted>
10.3431

> <Gold.Chemscore.Internal.Correction.Weighted>
   9.000000E+99

> <Gold.Protein.RotatedTorsions>
[ 6907 6896 6895 6894 ] final  116.23 input  -60.11 | X-H torsion
[ 7974 7965 7964 7962 ] final  177.77 input  175.53 | X-H torsion
[ 8008 7997 7996 7995 ] final -173.80 input   59.86 | X-H torsion
[ 10167 10162 10161 10158 ] final   27.70 input  -65.29 | X-H torsion
[ 10718 10713 10712 10709 ] final   22.86 input   66.30 | X-H torsion
[ 10763 10752 10751 10750 ] final  106.64 input  -60.55 | X-H torsion
[ 11005 11000 10999 10996 ] final  -43.44 input  -57.11 | X-H torsion

> <Gold.Protein.ActiveResidues>
 VAL166  LYS551  ARG553  GLY616  TRP617  ASP618  TYR619  PRO620  LYS621  CYS622 
 ASP623  PHE694  ASN695  SER759  ASP760  ASP761  ALA762  ILE779  LEU786  VAL792 
 PHE793  MET794  SER795  GLU796  ALA797  LYS798  CYS799  TRP800  GLU811  SER814 

> <Gold.Protein.RotatedAtoms>
  152.4691  133.7989  159.6941 H   0  0  0  0  0  0  0  0  0  0  0  0  # atno 6907 bound_to 6896
  150.8670  133.7550  159.2980 H   0  0  0  0  0  0  0  0  0  0  0  0  # atno 6908 bound_to 6896
  151.5097  135.1068  159.9902 H   0  0  0  0  0  0  0  0  0  0  0  0  # atno 6909 bound_to 6896
  144.7164  140.0298  143.6439 H   0  0  0  0  0  0  0  0  0  0  0  0  # atno 7974 bound_to 7965
  155.9620  140.1146  157.0887 H   0  0  0  0  0  0  0  0  0  0  0  0  # atno 8008 bound_to 7997
  154.4134  140.1180  156.5259 H   0  0  0  0  0  0  0  0  0  0  0  0  # atno 8009 bound_to 7997
  155.6708  140.3473  155.4820 H   0  0  0  0  0  0  0  0  0  0  0  0  # atno 8010 bound_to 7997
  140.4915  144.0458  150.6299 H   0  0  0  0  0  0  0  0  0  0  0  0  # atno 10167 bound_to 10162
  157.1582  130.6705  149.6035 H   0  0  0  0  0  0  0  0  0  0  0  0  # atno 10718 bound_to 10713
  153.3957  135.3870  155.1954 H   0  0  0  0  0  0  0  0  0  0  0  0  # atno 10763 bound_to 10752
  154.8724  135.3759  154.4681 H   0  0  0  0  0  0  0  0  0  0  0  0  # atno 10764 bound_to 10752
  153.5173  135.7087  153.5811 H   0  0  0  0  0  0  0  0  0  0  0  0  # atno 10765 bound_to 10752
  141.0384  133.6790  156.2733 H   0  0  0  0  0  0  0  0  0  0  0  0  # atno 11005 bound_to 11000
  146.0112  139.3171  143.0869 LP  0  0  0  0  0  0  0  0  0  0  0  0  # atno 17320 bound_to 7965
  145.8679  140.9437  143.0666 LP  0  0  0  0  0  0  0  0  0  0  0  0  # atno 17321 bound_to 7965
  140.3729  143.2844  152.0258 LP  0  0  0  0  0  0  0  0  0  0  0  0  # atno 17342 bound_to 10162
  139.4852  144.6216  151.7245 LP  0  0  0  0  0  0  0  0  0  0  0  0  # atno 17343 bound_to 10162
  155.9758  130.4721  150.6487 LP  0  0  0  0  0  0  0  0  0  0  0  0  # atno 17370 bound_to 10713
  157.4157  131.0830  151.1178 LP  0  0  0  0  0  0  0  0  0  0  0  0  # atno 17371 bound_to 10713
  140.6280  134.5293  157.5556 LP  0  0  0  0  0  0  0  0  0  0  0  0  # atno 17394 bound_to 11000
  139.9257  134.8061  156.1076 LP  0  0  0  0  0  0  0  0  0  0  0  0  # atno 17395 bound_to 11000

$$$$
