AV-unprocessed.smi:2675|AV-procd|sdf|10361|dock9
  -GOLD-   2272014383D 1   1.00000     0.00000
 Structure written by MMmdl.
 37 38  0  0  0  0  0  0  0  0  2 V2000
  151.8192  145.0970  158.5859 C   0  0  0  0  0  0  0  0  0  0  0  0
  151.5442  143.6399  158.4194 C   0  0  0  0  0  0  0  0  0  0  0  0
  150.7678  143.1668  157.3948 N   0  3  0  0  0  0  0  0  0  0  0  0
  150.6656  141.8390  157.4570 C   0  0  0  0  0  0  0  0  0  0  0  0
  151.3754  141.4458  158.5205 N   0  0  0  0  0  0  0  0  0  0  0  0
  151.4754  140.0294  158.9004 C   0  0  0  0  0  0  0  0  0  0  0  0
  152.9347  139.6006  159.0544 C   0  0  0  0  0  0  0  0  0  0  0  0
  153.8339  140.4011  158.8048 O   0  0  0  0  0  0  0  0  0  0  0  0
  153.1434  138.3388  159.4695 N   0  0  0  0  0  0  0  0  0  0  0  0
  154.4208  137.6701  159.7510 C   0  0  2  0  0  0  0  0  0  0  0  0
  155.3954  138.1416  158.6588 C   0  0  0  0  0  0  0  0  0  0  0  0
  154.3043  136.2025  159.6412 C   0  0  0  0  0  0  0  0  0  0  0  0
  154.2152  135.0519  159.5540 N   0  0  0  0  0  0  0  0  0  0  0  0
  155.0352  137.9853  161.1164 C   0  0  0  0  0  0  0  0  0  0  0  0
  154.3015  137.8419  162.4318 C   0  0  0  0  0  0  0  0  0  0  0  0
  154.6551  139.2163  161.9083 C   0  0  0  0  0  0  0  0  0  0  0  0
  151.9378  142.5379  159.1454 C   0  0  0  0  0  0  0  0  0  0  0  0
  152.7894  142.4258  160.3691 C   0  0  0  0  0  0  0  0  0  0  0  0
  152.4311  145.2790  159.4689 H   0  0  0  0  0  0  0  0  0  0  0  0
  150.8838  145.6462  158.6960 H   0  0  0  0  0  0  0  0  0  0  0  0
  152.3489  145.4821  157.7142 H   0  0  0  0  0  0  0  0  0  0  0  0
  150.1137  141.2093  156.7820 H   0  0  0  0  0  0  0  0  0  0  0  0
  150.9286  139.8746  159.8321 H   0  0  0  0  0  0  0  0  0  0  0  0
  150.9825  139.4257  158.1377 H   0  0  0  0  0  0  0  0  0  0  0  0
  152.3215  137.7743  159.6258 H   0  0  0  0  0  0  0  0  0  0  0  0
  156.3706  137.6651  158.7658 H   0  0  0  0  0  0  0  0  0  0  0  0
  155.5508  139.2203  158.7023 H   0  0  0  0  0  0  0  0  0  0  0  0
  155.0235  137.8993  157.6622 H   0  0  0  0  0  0  0  0  0  0  0  0
  156.0891  137.7157  161.1649 H   0  0  0  0  0  0  0  0  0  0  0  0
  153.2510  137.5658  162.4274 H   0  0  0  0  0  0  0  0  0  0  0  0
  154.8703  137.4692  163.2813 H   0  0  0  0  0  0  0  0  0  0  0  0
  155.4564  139.7551  162.4099 H   0  0  0  0  0  0  0  0  0  0  0  0
  153.8392  139.8357  161.5417 H   0  0  0  0  0  0  0  0  0  0  0  0
  153.1439  143.4063  160.6853 H   0  0  0  0  0  0  0  0  0  0  0  0
  153.6576  141.7969  160.1715 H   0  0  0  0  0  0  0  0  0  0  0  0
  152.2192  141.9898  161.1894 H   0  0  0  0  0  0  0  0  0  0  0  0
  150.3298  143.7439  156.6876 H   0  0  0  0  0  0  0  0  0  0  0  0
  1  2  1  0  0  0  0
  1 19  1  0  0  0  0
  1 20  1  0  0  0  0
  1 21  1  0  0  0  0
  2 17  2  0  0  0  0
  2  3  1  0  0  0  0
  3  4  2  0  0  0  0
  3 37  1  0  0  0  0
  4  5  1  0  0  0  0
  4 22  1  0  0  0  0
  5  6  1  0  0  0  0
  5 17  1  0  0  0  0
  6  7  1  0  0  0  0
  6 23  1  0  0  0  0
  6 24  1  0  0  0  0
  7  8  2  0  0  0  0
  7  9  1  0  0  0  0
  9 10  1  0  0  0  0
  9 25  1  0  0  0  0
 10 11  1  0  0  0  0
 10 12  1  0  0  0  0
 10 14  1  0  0  0  0
 11 26  1  0  0  0  0
 11 27  1  0  0  0  0
 11 28  1  0  0  0  0
 12 13  3  0  0  0  0
 14 16  1  0  0  0  0
 14 15  1  0  0  0  0
 14 29  1  0  0  0  0
 15 16  1  0  0  0  0
 15 30  1  0  0  0  0
 15 31  1  0  0  0  0
 16 32  1  0  0  0  0
 16 33  1  0  0  0  0
 17 18  1  0  0  0  0
 18 34  1  0  0  0  0
 18 35  1  0  0  0  0
 18 36  1  0  0  0  0
M  CHG  1   3   1
M  END
> <s_m_source_file>
AV-unprocessed.smi

> <i_m_source_file_index>
2675

> <i_lp_mmshare_version>
43012

> <i_f3d_flags>
0

> <s_epik_input>
W0NIM11jMW5bY0hdbihjMVtDSDNdKVtDSDJdQyg9TylbTkhdW0NAQF0oW0NIM10pKEMjTilbQ0hdMltDSDJdW0NIMl0y

> <s_epik_cmdline>
J2VwaWtfcHl0aG9uJywgJy1waCcsICc3LjAnLCAnLXRuJywgJzgnLCAnLW1hJywgJzIwMCcsICctbWV0YWxfYmluZGluZycsICctaW1hZScsICc8aW5maWxlLm1hZT4nLCAnLW9tYWUnLCAnPG91dGZpbGUubWFlPic=

> <r_lp_tautomer_probability>
1

> <r_epik_Ionization_Penalty>
0.153253

> <r_epik_Ionization_Penalty_Charging>
0

> <r_epik_Ionization_Penalty_Neutral>
0.153253

> <r_epik_State_Penalty>
0.14254

> <r_epik_Charging_Adjusted_Penalty>
0.14254

> <i_epik_Tot_Q>
1

> <i_epik_Tot_abs_Q>
1

> <r_epik_Metal_State_Penalty>
0.466899

> <b_epik_Metal_Only>
0

> <s_lp_Force_Field>
OPLS_2005

> <r_lp_Energy>
18.2942

> <b_lp_Chiralities_Consistent>
1

> <s_lp_Variant>
AV-unprocessed.smi:2675-2

> <Gold.Version>
5.8.1

> <Gold.Id.Protein>
6NUR|6NUR_protein|mol2

> <Gold.PLP.Fitness>
40.8428

> <Gold.PLP.PLP>
-30.5437

> <Gold.PLP.part.hbond>
-3.0000

> <Gold.PLP.part.metal>
0.0000

> <Gold.PLP.part.buried>
-2.1956

> <Gold.PLP.part.nonpolar>
-24.8611

> <Gold.PLP.part.repulsive>
0.0868

> <Gold.PLP.ligand.clash>
0.0000

> <Gold.PLP.ligand.torsion>
1.3466

> <Gold.PLP.Chemscore.Hbond>
3.8320

> <Gold.PLP.Chemscore.CHOScore>
0.0000

> <Gold.PLP.Chemscore.Metal>
0.0000

> <Gold.Chemscore.Hbonds>
donor molecule, donor type, donor heavy atom, donor atom, acceptor molecule, acceptor atom, score
      L1  H     3    37       P1  8028  2.00
      P1  H  6896  6907       L1    13  1.00
      P1  H  7997  8010       L1     8  0.80

> <Gold.PLP.Chemscore.Internal.Correction>
1.4962

> <Gold.Rescore>
     Score         DG    S(hbond)    S(metal)    S(lipo)     H(rot)  DE(clash)    DE(int)     intcor
     13.60     -19.16       2.79        0.00      76.65       1.80       0.24       5.32       ----

> <Gold.Chemscore.Fitness>
13.5965

> <Gold.Chemscore.DG>
-19.1583

> <Gold.Chemscore.ZeroCoef>
-5.4800

> <Gold.Chemscore.Hbond>
2.7863

> <Gold.Chemscore.Metal>
0.0000

> <Gold.Chemscore.Lipo>
76.6542

> <Gold.Chemscore.Internal_Hbond>
0.0000

> <Gold.Chemscore.DEClash>
0.2416

> <Gold.Chemscore.DEInternal>
5.3203

> <Gold.Chemscore.Rot>
1.7955

> <Gold.Chemscore.Internal.Correction>
   9.000000E+99

> <Gold.Chemscore.Hbonds>
donor molecule, donor type, donor heavy atom, donor atom, acceptor molecule, acceptor atom, score
      L1  H     3    37       P1  8028  0.95
      P1  H  6896  6907       L1    13  0.96
      P1  H  7997  8010       L1     8  0.74

> <Gold.Chemscore.Hbond.Weighted>
-9.3063

> <Gold.Chemscore.Metal.Weighted>
-0.0000

> <Gold.Chemscore.Lipo.Weighted>
-8.9685

> <Gold.Chemscore.Internal_Hbond.Weighted>
0.0000

> <Gold.Chemscore.DEClash.Weighted>
0.2416

> <Gold.Chemscore.DEInternal.Weighted>
5.3203

> <Gold.Chemscore.Rot.Weighted>
4.5965

> <Gold.Chemscore.Internal.Correction.Weighted>
   9.000000E+99

> <Gold.Protein.RotatedTorsions>
[ 6907 6896 6895 6894 ] final   92.89 input  -60.11 | X-H torsion
[ 7974 7965 7964 7962 ] final -176.91 input  175.53 | X-H torsion
[ 8008 7997 7996 7995 ] final   14.84 input   59.86 | X-H torsion
[ 10167 10162 10161 10158 ] final   92.01 input  -65.29 | X-H torsion
[ 10718 10713 10712 10709 ] final  -83.00 input   66.30 | X-H torsion
[ 10763 10752 10751 10750 ] final   49.61 input  -60.55 | X-H torsion
[ 11005 11000 10999 10996 ] final  111.12 input  -57.11 | X-H torsion

> <Gold.Protein.ActiveResidues>
 VAL166  LYS551  ARG553  GLY616  TRP617  ASP618  TYR619  PRO620  LYS621  CYS622 
 ASP623  PHE694  ASN695  SER759  ASP760  ASP761  ALA762  ILE779  LEU786  VAL792 
 PHE793  MET794  SER795  GLU796  ALA797  LYS798  CYS799  TRP800  GLU811  SER814 

> <Gold.Protein.RotatedAtoms>
  152.5453  134.1432  159.8487 H   0  0  0  0  0  0  0  0  0  0  0  0  # atno 6907 bound_to 6896
  151.1466  133.4928  159.2603 H   0  0  0  0  0  0  0  0  0  0  0  0  # atno 6908 bound_to 6896
  151.1516  135.0240  159.8725 H   0  0  0  0  0  0  0  0  0  0  0  0  # atno 6909 bound_to 6896
  144.7127  140.1099  143.6411 H   0  0  0  0  0  0  0  0  0  0  0  0  # atno 7974 bound_to 7965
  154.8541  140.2934  155.5580 H   0  0  0  0  0  0  0  0  0  0  0  0  # atno 8008 bound_to 7997
  156.3017  140.2490  156.3437 H   0  0  0  0  0  0  0  0  0  0  0  0  # atno 8009 bound_to 7997
  154.8989  140.0392  157.1871 H   0  0  0  0  0  0  0  0  0  0  0  0  # atno 8010 bound_to 7997
  139.8318  144.6683  150.9390 H   0  0  0  0  0  0  0  0  0  0  0  0  # atno 10167 bound_to 10162
  156.0024  130.4652  150.4191 H   0  0  0  0  0  0  0  0  0  0  0  0  # atno 10718 bound_to 10713
  152.9786  135.5906  154.4118 H   0  0  0  0  0  0  0  0  0  0  0  0  # atno 10763 bound_to 10752
  154.3752  135.2767  155.2245 H   0  0  0  0  0  0  0  0  0  0  0  0  # atno 10764 bound_to 10752
  154.4183  135.6065  153.6049 H   0  0  0  0  0  0  0  0  0  0  0  0  # atno 10765 bound_to 10752
  139.8896  134.9500  156.6384 H   0  0  0  0  0  0  0  0  0  0  0  0  # atno 11005 bound_to 11000
  145.9464  139.2704  143.1238 LP  0  0  0  0  0  0  0  0  0  0  0  0  # atno 17320 bound_to 7965
  145.9369  140.9008  143.0327 LP  0  0  0  0  0  0  0  0  0  0  0  0  # atno 17321 bound_to 7965
  140.7806  143.3994  151.1175 LP  0  0  0  0  0  0  0  0  0  0  0  0  # atno 17342 bound_to 10162
  139.7647  143.8583  152.3108 LP  0  0  0  0  0  0  0  0  0  0  0  0  # atno 17343 bound_to 10162
  157.2248  131.0491  151.2526 LP  0  0  0  0  0  0  0  0  0  0  0  0  # atno 17370 bound_to 10713
  157.3766  130.7209  149.6601 LP  0  0  0  0  0  0  0  0  0  0  0  0  # atno 17371 bound_to 10713
  140.7613  133.8815  155.8420 LP  0  0  0  0  0  0  0  0  0  0  0  0  # atno 17394 bound_to 11000
  140.9920  134.1266  157.4399 LP  0  0  0  0  0  0  0  0  0  0  0  0  # atno 17395 bound_to 11000

$$$$
