AV-unprocessed.smi:242|AV-procd|sdf|1847|dock6
  -GOLD-   2262020463D 1   1.00000     0.00000
 Structure written by MMmdl.
 58 61  0  0  0  0  0  0  0  0  2 V2000
  152.8387  144.0524  159.2191 C   0  0  0  0  0  0  0  0  0  0  0  0
  151.5339  144.7243  158.7483 C   0  0  0  0  0  0  0  0  0  0  0  0
  150.7372  145.2012  159.9786 C   0  0  0  0  0  0  0  0  0  0  0  0
  150.7323  143.8015  157.8954 N   0  3  1  0  0  0  0  0  0  0  0  0
  151.4602  143.1662  156.7722 C   0  0  0  0  0  0  0  0  0  0  0  0
  150.7233  141.8586  156.4982 C   0  0  0  0  0  0  0  0  0  0  0  0
  150.3741  141.3934  157.9088 C   0  0  2  0  0  0  0  0  0  0  0  0
  149.3146  140.3812  157.9669 N   0  0  0  0  0  0  0  0  0  0  0  0
  148.2868  140.4297  156.9340 C   0  0  0  0  0  0  0  0  0  0  0  0
  149.7103  139.1054  158.1906 C   0  0  0  0  0  0  0  0  0  0  0  0
  151.0288  138.7782  158.1355 N   0  0  0  0  0  0  0  0  0  0  0  0
  151.4139  137.5174  158.3566 C   0  0  0  0  0  0  0  0  0  0  0  0
  150.6613  136.4526  158.6428 N   0  0  0  0  0  0  0  0  0  0  0  0
  149.3372  136.7776  158.6877 C   0  0  0  0  0  0  0  0  0  0  0  0
  148.7813  138.0695  158.4737 C   0  0  0  0  0  0  0  0  0  0  0  0
  147.3998  138.0245  158.6083 N   0  0  0  0  0  0  0  0  0  0  0  0
  147.1517  136.7740  158.8887 C   0  0  0  0  0  0  0  0  0  0  0  0
  148.2566  135.9539  158.9502 N   0  0  0  0  0  0  0  0  0  0  0  0
  148.2685  134.5298  159.2482 C   0  0  0  0  0  0  0  0  0  0  0  0
  147.5440  134.1510  160.5640 C   0  0  0  0  0  0  0  0  0  0  0  0
  148.0721  132.9140  161.0093 O   0  0  0  0  0  0  0  0  0  0  0  0
  147.8154  135.2140  161.6475 C   0  0  0  0  0  0  0  0  0  0  0  0
  146.9802  134.9766  162.9181 C   0  0  0  0  0  0  0  0  0  0  0  0
  145.5983  134.9167  162.5868 O   0  0  0  0  0  0  0  0  0  0  0  0
  145.2871  133.8292  161.7248 C   0  0  0  0  0  0  0  0  0  0  0  0
  146.0190  133.9917  160.3805 C   0  0  0  0  0  0  0  0  0  0  0  0
  150.0246  142.7148  158.6200 C   0  0  0  0  0  0  0  0  0  0  0  0
  153.4112  144.7217  159.8622 H   0  0  0  0  0  0  0  0  0  0  0  0
  153.4909  143.7805  158.3899 H   0  0  0  0  0  0  0  0  0  0  0  0
  152.6327  143.1461  159.7895 H   0  0  0  0  0  0  0  0  0  0  0  0
  151.7913  145.6001  158.1508 H   0  0  0  0  0  0  0  0  0  0  0  0
  151.3517  145.8353  160.6186 H   0  0  0  0  0  0  0  0  0  0  0  0
  150.3958  144.3590  160.5814 H   0  0  0  0  0  0  0  0  0  0  0  0
  149.8634  145.7904  159.7006 H   0  0  0  0  0  0  0  0  0  0  0  0
  151.4955  143.8136  155.8952 H   0  0  0  0  0  0  0  0  0  0  0  0
  152.4857  142.9442  157.0729 H   0  0  0  0  0  0  0  0  0  0  0  0
  149.8175  142.0517  155.9208 H   0  0  0  0  0  0  0  0  0  0  0  0
  151.3336  141.1408  155.9492 H   0  0  0  0  0  0  0  0  0  0  0  0
  151.2791  140.9817  158.3589 H   0  0  0  0  0  0  0  0  0  0  0  0
  147.5518  139.6332  157.0611 H   0  0  0  0  0  0  0  0  0  0  0  0
  148.7334  140.3279  155.9440 H   0  0  0  0  0  0  0  0  0  0  0  0
  147.7489  141.3768  156.9708 H   0  0  0  0  0  0  0  0  0  0  0  0
  152.4768  137.3348  158.2961 H   0  0  0  0  0  0  0  0  0  0  0  0
  146.1479  136.4114  159.0568 H   0  0  0  0  0  0  0  0  0  0  0  0
  147.8241  133.9996  158.4046 H   0  0  0  0  0  0  0  0  0  0  0  0
  149.3098  134.2080  159.2915 H   0  0  0  0  0  0  0  0  0  0  0  0
  147.4532  132.2303  160.8030 H   0  0  0  0  0  0  0  0  0  0  0  0
  148.8767  135.2434  161.8976 H   0  0  0  0  0  0  0  0  0  0  0  0
  147.5678  136.2009  161.2541 H   0  0  0  0  0  0  0  0  0  0  0  0
  147.2854  134.0598  163.4246 H   0  0  0  0  0  0  0  0  0  0  0  0
  147.1363  135.7927  163.6236 H   0  0  0  0  0  0  0  0  0  0  0  0
  145.5490  132.8846  162.2035 H   0  0  0  0  0  0  0  0  0  0  0  0
  144.2097  133.8100  161.5608 H   0  0  0  0  0  0  0  0  0  0  0  0
  145.6247  134.8744  159.8754 H   0  0  0  0  0  0  0  0  0  0  0  0
  145.7900  133.1415  159.7369 H   0  0  0  0  0  0  0  0  0  0  0  0
  150.3001  142.6586  159.6734 H   0  0  0  0  0  0  0  0  0  0  0  0
  148.9550  142.9223  158.5665 H   0  0  0  0  0  0  0  0  0  0  0  0
  150.0069  144.3610  157.4697 H   0  0  0  0  0  0  0  0  0  0  0  0
  1  2  1  0  0  0  0
  1 28  1  0  0  0  0
  1 29  1  0  0  0  0
  1 30  1  0  0  0  0
  2  3  1  0  0  0  0
  2  4  1  0  0  0  0
  2 31  1  0  0  0  0
  3 32  1  0  0  0  0
  3 33  1  0  0  0  0
  3 34  1  0  0  0  0
  4 27  1  0  0  0  0
  4  5  1  0  0  0  0
  4 58  1  0  0  0  0
  5  6  1  0  0  0  0
  5 35  1  0  0  0  0
  5 36  1  0  0  0  0
  6  7  1  0  0  0  0
  6 37  1  0  0  0  0
  6 38  1  0  0  0  0
  7  8  1  0  0  0  0
  7 27  1  0  0  0  0
  7 39  1  0  0  0  0
  8  9  1  0  0  0  0
  8 10  1  0  0  0  0
  9 40  1  0  0  0  0
  9 41  1  0  0  0  0
  9 42  1  0  0  0  0
 10 15  1  0  0  0  0
 10 11  2  0  0  0  0
 11 12  1  0  0  0  0
 12 13  2  0  0  0  0
 12 43  1  0  0  0  0
 13 14  1  0  0  0  0
 14 18  1  0  0  0  0
 14 15  2  0  0  0  0
 15 16  1  0  0  0  0
 16 17  2  0  0  0  0
 17 18  1  0  0  0  0
 17 44  1  0  0  0  0
 18 19  1  0  0  0  0
 19 20  1  0  0  0  0
 19 45  1  0  0  0  0
 19 46  1  0  0  0  0
 20 26  1  0  0  0  0
 20 21  1  0  0  0  0
 20 22  1  0  0  0  0
 21 47  1  0  0  0  0
 22 23  1  0  0  0  0
 22 48  1  0  0  0  0
 22 49  1  0  0  0  0
 23 24  1  0  0  0  0
 23 50  1  0  0  0  0
 23 51  1  0  0  0  0
 24 25  1  0  0  0  0
 25 26  1  0  0  0  0
 25 52  1  0  0  0  0
 25 53  1  0  0  0  0
 26 54  1  0  0  0  0
 26 55  1  0  0  0  0
 27 56  1  0  0  0  0
 27 57  1  0  0  0  0
M  CHG  1   4   1
M  END
> <s_m_source_file>
AV-unprocessed.smi

> <i_m_source_file_index>
242

> <i_lp_mmshare_version>
43012

> <i_f3d_flags>
0

> <s_epik_input>
W0NIM11bQ0hdKFtDSDNdKU4xW0NIMl1bQ0gyXVtDQEhdKFtDSDJdMSlOKFtDSDNdKWMobltjSF1uMiljKGMyMyluW2NIXW4zW0NIMl1DNChbT0hdKVtDSDJdW0NIMl1PW0NIMl1bQ0gyXTQ=

> <s_epik_cmdline>
J2VwaWtfcHl0aG9uJywgJy1waCcsICc3LjAnLCAnLXRuJywgJzgnLCAnLW1hJywgJzIwMCcsICctbWV0YWxfYmluZGluZycsICctaW1hZScsICc8aW5maWxlLm1hZT4nLCAnLW9tYWUnLCAnPG91dGZpbGUubWFlPic=

> <r_lp_tautomer_probability>
1

> <r_epik_Ionization_Penalty>
0.000825961

> <r_epik_Ionization_Penalty_Charging>
0.00034898

> <r_epik_Ionization_Penalty_Neutral>
0.000476981

> <r_epik_State_Penalty>
-0

> <r_epik_Charging_Adjusted_Penalty>
0.00034898

> <i_epik_Tot_Q>
1

> <i_epik_Tot_abs_Q>
1

> <r_epik_Metal_State_Penalty>
-0

> <b_epik_Metal_Only>
0

> <s_lp_Force_Field>
OPLS_2005

> <r_lp_Energy>
48.0366

> <b_lp_Chiralities_Consistent>
1

> <s_lp_Variant>
AV-unprocessed.smi:242-4

> <Gold.Version>
5.8.1

> <Gold.Id.Protein>
6NUR|6NUR_protein|mol2

> <Gold.PLP.Fitness>
46.7817

> <Gold.PLP.PLP>
-40.5236

> <Gold.PLP.part.hbond>
-2.8879

> <Gold.PLP.part.metal>
0.0000

> <Gold.PLP.part.buried>
-7.0083

> <Gold.PLP.part.nonpolar>
-31.8144

> <Gold.PLP.part.repulsive>
0.0167

> <Gold.PLP.ligand.clash>
0.0000

> <Gold.PLP.ligand.torsion>
1.6027

> <Gold.PLP.Chemscore.Hbond>
3.0000

> <Gold.PLP.Chemscore.CHOScore>
0.0000

> <Gold.PLP.Chemscore.Metal>
0.0000

> <Gold.Chemscore.Hbonds>
donor molecule, donor type, donor heavy atom, donor atom, acceptor molecule, acceptor atom, score
      L1  H     4    58       P1  8028  1.42
      P1  H  6896  6909       L1    13  0.94

> <Gold.PLP.Chemscore.Internal.Correction>
0.4634

> <Gold.Rescore>
     Score         DG    S(hbond)    S(metal)    S(lipo)     H(rot)  DE(clash)    DE(int)     intcor
     14.30     -17.22       1.93        0.00      99.92       2.50       1.53       1.39       ----

> <Gold.Chemscore.Fitness>
14.2989

> <Gold.Chemscore.DG>
-17.2242

> <Gold.Chemscore.ZeroCoef>
-5.4800

> <Gold.Chemscore.Hbond>
1.9320

> <Gold.Chemscore.Metal>
0.0000

> <Gold.Chemscore.Lipo>
99.9175

> <Gold.Chemscore.Internal_Hbond>
0.0000

> <Gold.Chemscore.DEClash>
1.5307

> <Gold.Chemscore.DEInternal>
1.3946

> <Gold.Chemscore.Rot>
2.4996

> <Gold.Chemscore.Internal.Correction>
   9.000000E+99

> <Gold.Chemscore.Hbonds>
donor molecule, donor type, donor heavy atom, donor atom, acceptor molecule, acceptor atom, score
      L1  H     4    58       P1  8028  0.23
      P1  H  6896  6909       L1    13  0.68

> <Gold.Chemscore.Hbond.Weighted>
-6.4528

> <Gold.Chemscore.Metal.Weighted>
-0.0000

> <Gold.Chemscore.Lipo.Weighted>
-11.6904

> <Gold.Chemscore.Internal_Hbond.Weighted>
0.0000

> <Gold.Chemscore.DEClash.Weighted>
1.5307

> <Gold.Chemscore.DEInternal.Weighted>
1.3946

> <Gold.Chemscore.Rot.Weighted>
6.3990

> <Gold.Chemscore.Internal.Correction.Weighted>
   9.000000E+99

> <Gold.Protein.RotatedTorsions>
[ 6907 6896 6895 6894 ] final   83.40 input  -60.11 | X-H torsion
[ 7974 7965 7964 7962 ] final -106.50 input  175.53 | X-H torsion
[ 8008 7997 7996 7995 ] final  102.46 input   59.86 | X-H torsion
[ 10167 10162 10161 10158 ] final -127.66 input  -65.29 | X-H torsion
[ 10718 10713 10712 10709 ] final   -3.00 input   66.30 | X-H torsion
[ 10763 10752 10751 10750 ] final   56.26 input  -60.55 | X-H torsion
[ 11005 11000 10999 10996 ] final -144.02 input  -57.11 | X-H torsion

> <Gold.Protein.ActiveResidues>
 VAL166  LYS551  ARG553  GLY616  TRP617  ASP618  TYR619  PRO620  LYS621  CYS622 
 ASP623  PHE694  ASN695  SER759  ASP760  ASP761  ALA762  ILE779  LEU786  VAL792 
 PHE793  MET794  SER795  GLU796  ALA797  LYS798  CYS799  TRP800  GLU811  SER814 

> <Gold.Protein.RotatedAtoms>
  152.5326  134.2902  159.9039 H   0  0  0  0  0  0  0  0  0  0  0  0  # atno 6907 bound_to 6896
  151.2854  133.4183  159.2637 H   0  0  0  0  0  0  0  0  0  0  0  0  # atno 6908 bound_to 6896
  151.0247  134.9511  159.8135 H   0  0  0  0  0  0  0  0  0  0  0  0  # atno 6909 bound_to 6896
  145.2171  140.9119  143.3281 H   0  0  0  0  0  0  0  0  0  0  0  0  # atno 7974 bound_to 7965
  156.1395  140.3181  155.8473 H   0  0  0  0  0  0  0  0  0  0  0  0  # atno 8008 bound_to 7997
  155.4181  140.0510  157.3044 H   0  0  0  0  0  0  0  0  0  0  0  0  # atno 8009 bound_to 7997
  154.4964  140.2112  155.9449 H   0  0  0  0  0  0  0  0  0  0  0  0  # atno 8010 bound_to 7997
  139.9585  143.5976  152.2453 H   0  0  0  0  0  0  0  0  0  0  0  0  # atno 10167 bound_to 10162
  156.7825  130.5335  149.5748 H   0  0  0  0  0  0  0  0  0  0  0  0  # atno 10718 bound_to 10713
  152.9829  135.5682  154.5200 H   0  0  0  0  0  0  0  0  0  0  0  0  # atno 10763 bound_to 10752
  154.4690  135.2784  155.1659 H   0  0  0  0  0  0  0  0  0  0  0  0  # atno 10764 bound_to 10752
  154.3215  135.6268  153.5563 H   0  0  0  0  0  0  0  0  0  0  0  0  # atno 10765 bound_to 10752
  140.8067  134.2793  157.4957 H   0  0  0  0  0  0  0  0  0  0  0  0  # atno 11005 bound_to 11000
  144.9801  139.3792  143.6266 LP  0  0  0  0  0  0  0  0  0  0  0  0  # atno 17320 bound_to 7965
  146.3384  139.8938  142.8805 LP  0  0  0  0  0  0  0  0  0  0  0  0  # atno 17321 bound_to 7965
  139.6572  144.7662  151.2032 LP  0  0  0  0  0  0  0  0  0  0  0  0  # atno 17342 bound_to 10162
  140.7560  143.6066  150.8646 LP  0  0  0  0  0  0  0  0  0  0  0  0  # atno 17343 bound_to 10162
  156.1209  130.6109  151.0192 LP  0  0  0  0  0  0  0  0  0  0  0  0  # atno 17370 bound_to 10713
  157.6640  131.0875  150.7773 LP  0  0  0  0  0  0  0  0  0  0  0  0  # atno 17371 bound_to 10713
  139.8717  134.9460  156.3925 LP  0  0  0  0  0  0  0  0  0  0  0  0  # atno 17394 bound_to 11000
  140.9240  133.7625  155.9941 LP  0  0  0  0  0  0  0  0  0  0  0  0  # atno 17395 bound_to 11000

$$$$
