AV-unprocessed.smi:485|AV-procd|sdf|2691|dock7
  -GOLD-   2262023123D 1   1.00000     0.00000
 Structure written by MMmdl.
 36 38  0  0  0  0  0  0  0  0  1 V2000
  153.6211  138.4630  157.4967 O   0  0  0  0  0  0  0  0  0  0  0  0
  152.4707  138.7758  158.2517 C   0  0  0  0  0  0  0  0  0  0  0  0
  152.2818  140.2493  158.4521 C   0  0  0  0  0  0  0  0  0  0  0  0
  153.1930  140.9901  159.0845 N   0  0  0  0  0  0  0  0  0  0  0  0
  152.6491  142.2579  159.0267 C   0  0  0  0  0  0  0  0  0  0  0  0
  153.1381  143.4897  159.5179 C   0  0  0  0  0  0  0  0  0  0  0  0
  152.3996  144.6766  159.3307 C   0  0  0  0  0  0  0  0  0  0  0  0
  151.1657  144.6493  158.6493 C   0  0  0  0  0  0  0  0  0  0  0  0
  150.6604  143.4325  158.1526 C   0  0  0  0  0  0  0  0  0  0  0  0
  151.3991  142.2494  158.3460 C   0  0  0  0  0  0  0  0  0  0  0  0
  151.1893  140.9179  157.9987 N   0  0  0  0  0  0  0  0  0  0  0  0
  150.0315  140.3956  157.2817 C   0  0  0  0  0  0  0  0  0  0  0  0
  150.3673  139.9481  155.8439 C   0  0  2  0  0  0  0  0  0  0  0  0
  151.5479  140.5851  155.3968 O   0  0  0  0  0  0  0  0  0  0  0  0
  149.1956  140.1854  154.9042 C   0  0  0  0  0  0  0  0  0  0  0  0
  148.5636  139.0915  154.2744 C   0  0  0  0  0  0  0  0  0  0  0  0
  147.4740  139.3039  153.4073 C   0  0  0  0  0  0  0  0  0  0  0  0
  147.0086  140.6111  153.1673 C   0  0  0  0  0  0  0  0  0  0  0  0
  147.6318  141.7057  153.7964 C   0  0  0  0  0  0  0  0  0  0  0  0
  148.7214  141.4939  154.6634 C   0  0  0  0  0  0  0  0  0  0  0  0
  153.5791  137.5523  157.2494 H   0  0  0  0  0  0  0  0  0  0  0  0
  151.6005  138.3687  157.7355 H   0  0  0  0  0  0  0  0  0  0  0  0
  152.5176  138.2758  159.2190 H   0  0  0  0  0  0  0  0  0  0  0  0
  154.0838  143.5212  160.0386 H   0  0  0  0  0  0  0  0  0  0  0  0
  152.7829  145.6124  159.7104 H   0  0  0  0  0  0  0  0  0  0  0  0
  150.6070  145.5630  158.5082 H   0  0  0  0  0  0  0  0  0  0  0  0
  149.7162  143.4097  157.6294 H   0  0  0  0  0  0  0  0  0  0  0  0
  149.6420  139.5500  157.8498 H   0  0  0  0  0  0  0  0  0  0  0  0
  149.2371  141.1404  157.2667 H   0  0  0  0  0  0  0  0  0  0  0  0
  150.5831  138.8795  155.8474 H   0  0  0  0  0  0  0  0  0  0  0  0
  152.0922  140.7670  156.1471 H   0  0  0  0  0  0  0  0  0  0  0  0
  148.9114  138.0845  154.4537 H   0  0  0  0  0  0  0  0  0  0  0  0
  146.9945  138.4639  152.9266 H   0  0  0  0  0  0  0  0  0  0  0  0
  146.1731  140.7734  152.5022 H   0  0  0  0  0  0  0  0  0  0  0  0
  147.2742  142.7085  153.6144 H   0  0  0  0  0  0  0  0  0  0  0  0
  149.1916  142.3393  155.1445 H   0  0  0  0  0  0  0  0  0  0  0  0
  1  2  1  0  0  0  0
  1 21  1  0  0  0  0
  2  3  1  0  0  0  0
  2 22  1  0  0  0  0
  2 23  1  0  0  0  0
  3 11  1  0  0  0  0
  3  4  2  0  0  0  0
  4  5  1  0  0  0  0
  5 10  2  0  0  0  0
  5  6  1  0  0  0  0
  6  7  2  0  0  0  0
  6 24  1  0  0  0  0
  7  8  1  0  0  0  0
  7 25  1  0  0  0  0
  8  9  2  0  0  0  0
  8 26  1  0  0  0  0
  9 10  1  0  0  0  0
  9 27  1  0  0  0  0
 10 11  1  0  0  0  0
 11 12  1  0  0  0  0
 12 13  1  0  0  0  0
 12 28  1  0  0  0  0
 12 29  1  0  0  0  0
 13 14  1  0  0  0  0
 13 15  1  0  0  0  0
 13 30  1  0  0  0  0
 14 31  1  0  0  0  0
 15 20  1  0  0  0  0
 15 16  2  0  0  0  0
 16 17  1  0  0  0  0
 16 32  1  0  0  0  0
 17 18  2  0  0  0  0
 17 33  1  0  0  0  0
 18 19  1  0  0  0  0
 18 34  1  0  0  0  0
 19 20  2  0  0  0  0
 19 35  1  0  0  0  0
 20 36  1  0  0  0  0
M  END
> <s_m_source_file>
AV-unprocessed.smi

> <i_m_source_file_index>
485

> <i_lp_mmshare_version>
43012

> <i_f3d_flags>
0

> <s_epik_input>
W2NIXTFbY0hdW2NIXVtjSF1jKGMxMiluKGMobjIpW0NIMl1bT0hdKVtDSDJdW0NASF0oW09IXSljM1tjSF1bY0hdW2NIXVtjSF1bY0hdMw==

> <s_epik_cmdline>
J2VwaWtfcHl0aG9uJywgJy1waCcsICc3LjAnLCAnLXRuJywgJzgnLCAnLW1hJywgJzIwMCcsICctbWV0YWxfYmluZGluZycsICctaW1hZScsICc8aW5maWxlLm1hZT4nLCAnLW9tYWUnLCAnPG91dGZpbGUubWFlPic=

> <r_epik_Ionization_Penalty>
0.0634722

> <r_epik_Ionization_Penalty_Charging>
0

> <r_epik_Ionization_Penalty_Neutral>
0.0634722

> <r_epik_State_Penalty>
0.0551572

> <r_epik_Charging_Adjusted_Penalty>
0.0551572

> <i_epik_Tot_Q>
0

> <i_epik_Tot_abs_Q>
0

> <r_epik_Metal_State_Penalty>
5.78034e-05

> <b_epik_Metal_Only>
0

> <s_lp_Force_Field>
OPLS_2005

> <r_lp_Energy>
12.7627

> <b_lp_Chiralities_Consistent>
1

> <s_lp_Variant>
AV-unprocessed.smi:485-1

> <Gold.Version>
5.8.1

> <Gold.Id.Protein>
6NUR|6NUR_protein|mol2

> <Gold.PLP.Fitness>
46.7568

> <Gold.PLP.PLP>
-42.5520

> <Gold.PLP.part.hbond>
-2.0000

> <Gold.PLP.part.metal>
0.0000

> <Gold.PLP.part.buried>
-4.5058

> <Gold.PLP.part.nonpolar>
-36.5884

> <Gold.PLP.part.repulsive>
0.0000

> <Gold.PLP.ligand.clash>
0.0000

> <Gold.PLP.ligand.torsion>
0.5901

> <Gold.PLP.Chemscore.Hbond>
1.7840

> <Gold.PLP.Chemscore.CHOScore>
0.0000

> <Gold.PLP.Chemscore.Metal>
0.0000

> <Gold.Chemscore.Hbonds>
donor molecule, donor type, donor heavy atom, donor atom, acceptor molecule, acceptor atom, score
      P1  H  7989  7998       L1    14  0.78
      P1  H  7997  8010       L1     1  1.00

> <Gold.PLP.Chemscore.Internal.Correction>
0.0329

> <Gold.Rescore>
     Score         DG    S(hbond)    S(metal)    S(lipo)     H(rot)  DE(clash)    DE(int)     intcor
     17.55     -18.09       1.72        0.00     116.16       2.62       0.02       0.52       ----

> <Gold.Chemscore.Fitness>
17.5524

> <Gold.Chemscore.DG>
-18.0912

> <Gold.Chemscore.ZeroCoef>
-5.4800

> <Gold.Chemscore.Hbond>
1.7173

> <Gold.Chemscore.Metal>
0.0000

> <Gold.Chemscore.Lipo>
116.1615

> <Gold.Chemscore.Internal_Hbond>
0.0000

> <Gold.Chemscore.DEClash>
0.0211

> <Gold.Chemscore.DEInternal>
0.5177

> <Gold.Chemscore.Rot>
2.6232

> <Gold.Chemscore.Internal.Correction>
   9.000000E+99

> <Gold.Chemscore.Hbonds>
donor molecule, donor type, donor heavy atom, donor atom, acceptor molecule, acceptor atom, score
      P1  H  7989  7998       L1    14  0.72
      P1  H  7997  8010       L1     1  0.82

> <Gold.Chemscore.Hbond.Weighted>
-5.7357

> <Gold.Chemscore.Metal.Weighted>
-0.0000

> <Gold.Chemscore.Lipo.Weighted>
-13.5909

> <Gold.Chemscore.Internal_Hbond.Weighted>
0.0000

> <Gold.Chemscore.DEClash.Weighted>
0.0211

> <Gold.Chemscore.DEInternal.Weighted>
0.5177

> <Gold.Chemscore.Rot.Weighted>
6.7154

> <Gold.Chemscore.Internal.Correction.Weighted>
   9.000000E+99

> <Gold.Protein.RotatedTorsions>
[ 6907 6896 6895 6894 ] final -154.74 input  -60.11 | X-H torsion
[ 7974 7965 7964 7962 ] final  -50.10 input  175.53 | X-H torsion
[ 8008 7997 7996 7995 ] final   34.87 input   59.86 | X-H torsion
[ 10167 10162 10161 10158 ] final -141.04 input  -65.29 | X-H torsion
[ 10718 10713 10712 10709 ] final   98.94 input   66.30 | X-H torsion
[ 10763 10752 10751 10750 ] final  106.41 input  -60.55 | X-H torsion
[ 11005 11000 10999 10996 ] final -152.78 input  -57.11 | X-H torsion

> <Gold.Protein.ActiveResidues>
 VAL166  LYS551  ARG553  GLY616  TRP617  ASP618  TYR619  PRO620  LYS621  CYS622 
 ASP623  PHE694  ASN695  SER759  ASP760  ASP761  ALA762  ILE779  LEU786  VAL792 
 PHE793  MET794  SER795  GLU796  ALA797  LYS798  CYS799  TRP800  GLU811  SER814 

> <Gold.Protein.RotatedAtoms>
  151.2621  133.4297  159.2616 H   0  0  0  0  0  0  0  0  0  0  0  0  # atno 6907 bound_to 6896
  151.0522  134.9680  159.8227 H   0  0  0  0  0  0  0  0  0  0  0  0  # atno 6908 bound_to 6896
  152.5384  134.2574  159.8975 H   0  0  0  0  0  0  0  0  0  0  0  0  # atno 6909 bound_to 6896
  145.9334  140.7728  142.9588 H   0  0  0  0  0  0  0  0  0  0  0  0  # atno 7974 bound_to 7965
  155.1618  140.3284  155.4410 H   0  0  0  0  0  0  0  0  0  0  0  0  # atno 8008 bound_to 7997
  156.2540  140.1959  156.6676 H   0  0  0  0  0  0  0  0  0  0  0  0  # atno 8009 bound_to 7997
  154.6399  140.0571  156.9819 H   0  0  0  0  0  0  0  0  0  0  0  0  # atno 8010 bound_to 7997
  139.8223  143.7558  152.2666 H   0  0  0  0  0  0  0  0  0  0  0  0  # atno 10167 bound_to 10162
  157.6886  131.0655  150.4873 H   0  0  0  0  0  0  0  0  0  0  0  0  # atno 10718 bound_to 10713
  153.3926  135.3878  155.1933 H   0  0  0  0  0  0  0  0  0  0  0  0  # atno 10763 bound_to 10752
  154.8721  135.3752  154.4719 H   0  0  0  0  0  0  0  0  0  0  0  0  # atno 10764 bound_to 10752
  153.5207  135.7087  153.5794 H   0  0  0  0  0  0  0  0  0  0  0  0  # atno 10765 bound_to 10752
  140.7152  134.3789  157.5192 H   0  0  0  0  0  0  0  0  0  0  0  0  # atno 11005 bound_to 11000
  144.6768  140.2164  143.7371 LP  0  0  0  0  0  0  0  0  0  0  0  0  # atno 17320 bound_to 7965
  145.8395  139.2123  143.1835 LP  0  0  0  0  0  0  0  0  0  0  0  0  # atno 17321 bound_to 7965
  139.7740  144.7467  151.0184 LP  0  0  0  0  0  0  0  0  0  0  0  0  # atno 17342 bound_to 10162
  140.7812  143.4614  151.0272 LP  0  0  0  0  0  0  0  0  0  0  0  0  # atno 17343 bound_to 10162
  156.5201  130.4160  149.6255 LP  0  0  0  0  0  0  0  0  0  0  0  0  # atno 17370 bound_to 10713
  156.3162  130.7255  151.2158 LP  0  0  0  0  0  0  0  0  0  0  0  0  # atno 17371 bound_to 10713
  139.8862  134.8917  156.2601 LP  0  0  0  0  0  0  0  0  0  0  0  0  # atno 17394 bound_to 11000
  141.0051  133.7128  156.1021 LP  0  0  0  0  0  0  0  0  0  0  0  0  # atno 17395 bound_to 11000

$$$$
