AV-unprocessed.smi:1290|AV-procd|sdf|5389|dock1
  -GOLD-   22720 4543D 1   1.00000     0.00000
 Structure written by MMmdl.
 38 40  0  0  0  0  0  0  0  0  1 V2000
  151.9882  141.8143  159.2078 C   0  0  0  0  0  0  0  0  0  0  0  0
  151.8308  140.9031  158.0586 N   0  0  0  0  0  0  0  0  0  0  0  0
  150.9391  141.2469  157.0766 C   0  0  0  0  0  0  0  0  0  0  0  0
  150.2498  142.2679  157.0735 O   0  0  0  0  0  0  0  0  0  0  0  0
  150.8567  140.2732  155.9848 C   0  0  0  0  0  0  0  0  0  0  0  0
  151.5962  139.1390  155.9490 C   0  0  0  0  0  0  0  0  0  0  0  0
  151.3248  138.3931  154.8074 N   0  0  0  0  0  0  0  0  0  0  0  0
  150.4047  139.1429  154.1984 C   0  0  0  0  0  0  0  0  0  0  0  0
  150.0675  140.2823  154.8368 N   0  0  0  0  0  0  0  0  0  0  0  0
  149.0958  141.2692  154.3915 C   0  0  0  0  0  0  0  0  0  0  0  0
  147.6648  140.7013  154.3072 C   0  0  2  0  0  0  0  0  0  0  0  0
  147.5197  139.9322  153.1283 O   0  0  0  0  0  0  0  0  0  0  0  0
  146.6273  141.8089  154.4049 C   0  0  0  0  0  0  0  0  0  0  0  0
  145.7649  141.8683  155.5206 C   0  0  0  0  0  0  0  0  0  0  0  0
  144.8072  142.8960  155.6240 C   0  0  0  0  0  0  0  0  0  0  0  0
  144.7084  143.8722  154.6136 C   0  0  0  0  0  0  0  0  0  0  0  0
  143.5354  145.1314  154.7405 Cl  0  0  0  0  0  0  0  0  0  0  0  0
  145.5690  143.8207  153.5001 C   0  0  0  0  0  0  0  0  0  0  0  0
  146.5265  142.7931  153.3964 C   0  0  0  0  0  0  0  0  0  0  0  0
  152.4914  138.8783  157.0158 N   0  0  0  0  0  0  0  0  0  0  0  0
  153.2751  137.6416  156.9435 C   0  0  0  0  0  0  0  0  0  0  0  0
  152.6062  139.7550  158.0678 C   0  0  0  0  0  0  0  0  0  0  0  0
  153.3821  139.5234  158.9990 O   0  0  0  0  0  0  0  0  0  0  0  0
  151.3859  142.7221  159.1601 H   0  0  0  0  0  0  0  0  0  0  0  0
  153.0263  142.1385  159.2987 H   0  0  0  0  0  0  0  0  0  0  0  0
  151.7136  141.3066  160.1338 H   0  0  0  0  0  0  0  0  0  0  0  0
  149.9579  138.8526  153.2587 H   0  0  0  0  0  0  0  0  0  0  0  0
  149.1313  142.1204  155.0719 H   0  0  0  0  0  0  0  0  0  0  0  0
  149.4091  141.6469  153.4170 H   0  0  0  0  0  0  0  0  0  0  0  0
  147.5058  140.0158  155.1400 H   0  0  0  0  0  0  0  0  0  0  0  0
  148.2777  140.0760  152.5825 H   0  0  0  0  0  0  0  0  0  0  0  0
  145.8358  141.1262  156.3027 H   0  0  0  0  0  0  0  0  0  0  0  0
  144.1497  142.9345  156.4802 H   0  0  0  0  0  0  0  0  0  0  0  0
  145.4973  144.5692  152.7246 H   0  0  0  0  0  0  0  0  0  0  0  0
  147.1851  142.7649  152.5406 H   0  0  0  0  0  0  0  0  0  0  0  0
  153.9458  137.4821  157.7881 H   0  0  0  0  0  0  0  0  0  0  0  0
  153.8863  137.6417  156.0403 H   0  0  0  0  0  0  0  0  0  0  0  0
  152.6070  136.7812  156.8940 H   0  0  0  0  0  0  0  0  0  0  0  0
  1  2  1  0  0  0  0
  1 24  1  0  0  0  0
  1 25  1  0  0  0  0
  1 26  1  0  0  0  0
  2 22  1  0  0  0  0
  2  3  1  0  0  0  0
  3  4  2  0  0  0  0
  3  5  1  0  0  0  0
  5  9  1  0  0  0  0
  5  6  2  0  0  0  0
  6  7  1  0  0  0  0
  6 20  1  0  0  0  0
  7  8  2  0  0  0  0
  8  9  1  0  0  0  0
  8 27  1  0  0  0  0
  9 10  1  0  0  0  0
 10 11  1  0  0  0  0
 10 28  1  0  0  0  0
 10 29  1  0  0  0  0
 11 12  1  0  0  0  0
 11 13  1  0  0  0  0
 11 30  1  0  0  0  0
 12 31  1  0  0  0  0
 13 19  1  0  0  0  0
 13 14  2  0  0  0  0
 14 15  1  0  0  0  0
 14 32  1  0  0  0  0
 15 16  2  0  0  0  0
 15 33  1  0  0  0  0
 16 17  1  0  0  0  0
 16 18  1  0  0  0  0
 18 19  2  0  0  0  0
 18 34  1  0  0  0  0
 19 35  1  0  0  0  0
 20 21  1  0  0  0  0
 20 22  1  0  0  0  0
 21 36  1  0  0  0  0
 21 37  1  0  0  0  0
 21 38  1  0  0  0  0
 22 23  2  0  0  0  0
M  END
> <s_m_source_file>
AV-unprocessed.smi

> <i_m_source_file_index>
1290

> <i_lp_mmshare_version>
43012

> <i_f3d_flags>
0

> <s_epik_input>
Tz1jMW4oW0NIM10pYyg9TyluKFtDSDNdKWMoYzEyKW5bY0hdbjJbQ0gyXVtDQEhdKFtPSF0pYzNbY0hdW2NIXWMoQ2wpW2NIXVtjSF0z

> <s_epik_cmdline>
J2VwaWtfcHl0aG9uJywgJy1waCcsICc3LjAnLCAnLXRuJywgJzgnLCAnLW1hJywgJzIwMCcsICctbWV0YWxfYmluZGluZycsICctaW1hZScsICc8aW5maWxlLm1hZT4nLCAnLW9tYWUnLCAnPG91dGZpbGUubWFlPic=

> <r_lp_tautomer_probability>
1

> <r_epik_Ionization_Penalty>
1.48293e-06

> <r_epik_Ionization_Penalty_Charging>
3.74189e-09

> <r_epik_Ionization_Penalty_Neutral>
1.47919e-06

> <r_epik_State_Penalty>
-0

> <r_epik_Charging_Adjusted_Penalty>
3.74189e-09

> <i_epik_Tot_Q>
0

> <i_epik_Tot_abs_Q>
0

> <r_epik_Metal_State_Penalty>
-0

> <b_epik_Metal_Only>
0

> <s_lp_Force_Field>
OPLS_2005

> <r_lp_Energy>
35.4502

> <b_lp_Chiralities_Consistent>
1

> <s_lp_Variant>
AV-unprocessed.smi:1290-1

> <Gold.Version>
5.8.1

> <Gold.Id.Protein>
6NUR|6NUR_protein|mol2

> <Gold.PLP.Fitness>
46.3638

> <Gold.PLP.PLP>
-40.8298

> <Gold.PLP.part.hbond>
-1.1557

> <Gold.PLP.part.metal>
0.0000

> <Gold.PLP.part.buried>
-5.7476

> <Gold.PLP.part.nonpolar>
-34.3571

> <Gold.PLP.part.repulsive>
0.3010

> <Gold.PLP.ligand.clash>
0.0000

> <Gold.PLP.ligand.torsion>
0.2470

> <Gold.PLP.Chemscore.Hbond>
1.0000

> <Gold.PLP.Chemscore.CHOScore>
1.0000

> <Gold.PLP.Chemscore.Metal>
0.0000

> <Gold.Chemscore.Hbonds>
donor molecule, donor type, donor heavy atom, donor atom, acceptor molecule, acceptor atom, score
      L1  H    12    31       P1  7957  1.00
      L1  C     8    27       P1  7957  1.00

> <Gold.PLP.Chemscore.Internal.Correction>
0.0281

> <Gold.Rescore>
     Score         DG    S(hbond)    S(metal)    S(lipo)     H(rot)  DE(clash)    DE(int)     intcor
     10.17     -11.75       1.00        0.00      72.10       2.15       1.30       0.28       ----

> <Gold.Chemscore.Fitness>
10.1721

> <Gold.Chemscore.DG>
-11.7533

> <Gold.Chemscore.ZeroCoef>
-5.4800

> <Gold.Chemscore.Hbond>
0.9985

> <Gold.Chemscore.Metal>
0.0000

> <Gold.Chemscore.Lipo>
72.0999

> <Gold.Chemscore.Internal_Hbond>
0.0000

> <Gold.Chemscore.DEClash>
1.2964

> <Gold.Chemscore.DEInternal>
0.2848

> <Gold.Chemscore.Rot>
2.1474

> <Gold.Chemscore.Internal.Correction>
   9.000000E+99

> <Gold.Chemscore.Hbonds>
donor molecule, donor type, donor heavy atom, donor atom, acceptor molecule, acceptor atom, score
      L1  H    12    31       P1  7957  0.99

> <Gold.Chemscore.Hbond.Weighted>
-3.3350

> <Gold.Chemscore.Metal.Weighted>
-0.0000

> <Gold.Chemscore.Lipo.Weighted>
-8.4357

> <Gold.Chemscore.Internal_Hbond.Weighted>
0.0000

> <Gold.Chemscore.DEClash.Weighted>
1.2964

> <Gold.Chemscore.DEInternal.Weighted>
0.2848

> <Gold.Chemscore.Rot.Weighted>
5.4974

> <Gold.Chemscore.Internal.Correction.Weighted>
   9.000000E+99

> <Gold.Protein.RotatedTorsions>
[ 6907 6896 6895 6894 ] final -147.88 input  -60.11 | X-H torsion
[ 7974 7965 7964 7962 ] final  155.13 input  175.53 | X-H torsion
[ 8008 7997 7996 7995 ] final   22.56 input   59.86 | X-H torsion
[ 10167 10162 10161 10158 ] final -143.19 input  -65.29 | X-H torsion
[ 10718 10713 10712 10709 ] final  110.53 input   66.30 | X-H torsion
[ 10763 10752 10751 10750 ] final -143.11 input  -60.55 | X-H torsion
[ 11005 11000 10999 10996 ] final  -94.65 input  -57.11 | X-H torsion

> <Gold.Protein.ActiveResidues>
 VAL166  LYS551  ARG553  GLY616  TRP617  ASP618  TYR619  PRO620  LYS621  CYS622 
 ASP623  PHE694  ASN695  SER759  ASP760  ASP761  ALA762  ILE779  LEU786  VAL792 
 PHE793  MET794  SER795  GLU796  ALA797  LYS798  CYS799  TRP800  GLU811  SER814 

> <Gold.Protein.RotatedAtoms>
  151.1619  133.4839  159.2594 H   0  0  0  0  0  0  0  0  0  0  0  0  # atno 6907 bound_to 6896
  151.1445  135.0196  159.8651 H   0  0  0  0  0  0  0  0  0  0  0  0  # atno 6908 bound_to 6896
  152.5463  134.1509  159.8571 H   0  0  0  0  0  0  0  0  0  0  0  0  # atno 6909 bound_to 6896
  144.8044  139.7026  143.6168 H   0  0  0  0  0  0  0  0  0  0  0  0  # atno 7974 bound_to 7965
  154.9675  140.3086  155.5003 H   0  0  0  0  0  0  0  0  0  0  0  0  # atno 8008 bound_to 7997
  156.2970  140.2290  156.4704 H   0  0  0  0  0  0  0  0  0  0  0  0  # atno 8009 bound_to 7997
  154.7907  140.0440  157.1187 H   0  0  0  0  0  0  0  0  0  0  0  0  # atno 8010 bound_to 7997
  139.8017  143.7825  152.2658 H   0  0  0  0  0  0  0  0  0  0  0  0  # atno 10167 bound_to 10162
  157.6490  131.0934  150.6614 H   0  0  0  0  0  0  0  0  0  0  0  0  # atno 10718 bound_to 10713
  154.8483  135.3477  154.6135 H   0  0  0  0  0  0  0  0  0  0  0  0  # atno 10763 bound_to 10752
  153.6743  135.6983  153.5142 H   0  0  0  0  0  0  0  0  0  0  0  0  # atno 10764 bound_to 10752
  153.2718  135.4290  155.0951 H   0  0  0  0  0  0  0  0  0  0  0  0  # atno 10765 bound_to 10752
  141.1464  133.7971  157.0327 H   0  0  0  0  0  0  0  0  0  0  0  0  # atno 11005 bound_to 11000
  146.2333  139.5855  142.9541 LP  0  0  0  0  0  0  0  0  0  0  0  0  # atno 17320 bound_to 7965
  145.5473  141.0416  143.2297 LP  0  0  0  0  0  0  0  0  0  0  0  0  # atno 17321 bound_to 7965
  139.7947  144.7397  150.9907 LP  0  0  0  0  0  0  0  0  0  0  0  0  # atno 17342 bound_to 10162
  140.7820  143.4406  151.0557 LP  0  0  0  0  0  0  0  0  0  0  0  0  # atno 17343 bound_to 10162
  156.6928  130.4600  149.5595 LP  0  0  0  0  0  0  0  0  0  0  0  0  # atno 17370 bound_to 10713
  156.1850  130.6523  151.0995 LP  0  0  0  0  0  0  0  0  0  0  0  0  # atno 17371 bound_to 10713
  140.0743  134.9684  157.1520 LP  0  0  0  0  0  0  0  0  0  0  0  0  # atno 17394 bound_to 11000
  140.3666  134.2436  155.7182 LP  0  0  0  0  0  0  0  0  0  0  0  0  # atno 17395 bound_to 11000

$$$$
