AV-unprocessed.smi:215|AV-procd|sdf|1655|dock3
  -GOLD-   2262020 43D 1   1.00000     0.00000
 Structure written by MMmdl.
 59 62  0  0  0  0  0  0  0  0  2 V2000
  150.1178  139.0401  155.3292 C   0  0  0  0  0  0  0  0  0  0  0  0
  148.8214  139.8740  155.2303 C   0  0  1  0  0  0  0  0  0  0  0  0
  149.0591  141.3904  155.0137 C   0  0  2  0  0  0  0  0  0  0  0  0
  149.1795  142.2128  156.2570 N   0  3  1  0  0  0  0  0  0  0  0  0
  147.9512  142.2856  157.0850 C   0  0  0  0  0  0  0  0  0  0  0  0
  150.3652  141.8462  157.0786 C   0  0  0  0  0  0  0  0  0  0  0  0
  151.4633  142.9206  157.0161 C   0  0  0  0  0  0  0  0  0  0  0  0
  150.9307  144.1741  157.3887 O   0  0  0  0  0  0  0  0  0  0  0  0
  147.8212  141.7959  154.1981 C   0  0  0  0  0  0  0  0  0  0  0  0
  147.5060  140.5752  153.3414 C   0  0  0  0  0  0  0  0  0  0  0  0
  148.0406  139.4382  154.0719 N   0  0  0  0  0  0  0  0  0  0  0  0
  147.3350  138.2761  154.0683 C   0  0  0  0  0  0  0  0  0  0  0  0
  147.2397  137.5466  155.2113 N   0  0  0  0  0  0  0  0  0  0  0  0
  146.5552  136.3998  155.2286 C   0  0  0  0  0  0  0  0  0  0  0  0
  145.9031  135.8041  154.2298 N   0  0  0  0  0  0  0  0  0  0  0  0
  145.9949  136.5252  153.0755 C   0  0  0  0  0  0  0  0  0  0  0  0
  146.6824  137.7619  152.9101 C   0  0  0  0  0  0  0  0  0  0  0  0
  146.5649  138.1923  151.5936 N   0  0  0  0  0  0  0  0  0  0  0  0
  145.8474  137.2680  151.0162 C   0  0  0  0  0  0  0  0  0  0  0  0
  145.4645  136.2259  151.8303 N   0  0  0  0  0  0  0  0  0  0  0  0
  144.6894  135.0803  151.4418 C   0  0  0  0  0  0  0  0  0  0  0  0
  144.5394  133.8691  152.3655 C   0  0  0  0  0  0  0  0  0  0  0  0
  144.6202  132.9160  151.1515 C   0  0  0  0  0  0  0  0  0  0  0  0
  145.6005  131.7435  151.3100 C   0  0  0  0  0  0  0  0  0  0  0  0
  146.9096  132.1951  151.5936 O   0  0  0  0  0  0  0  0  0  0  0  0
  143.2889  132.3345  150.6280 C   0  0  0  0  0  0  0  0  0  0  0  0
  143.3992  131.7771  149.3337 O   0  0  0  0  0  0  0  0  0  0  0  0
  145.1926  134.1167  150.3641 C   0  0  0  0  0  0  0  0  0  0  0  0
  148.2147  139.7352  156.1262 H   0  0  0  0  0  0  0  0  0  0  0  0
  149.9513  141.5254  154.3993 H   0  0  0  0  0  0  0  0  0  0  0  0
  150.7376  139.3181  156.1782 H   0  0  0  0  0  0  0  0  0  0  0  0
  150.7255  139.1546  154.4310 H   0  0  0  0  0  0  0  0  0  0  0  0
  149.9005  137.9779  155.4384 H   0  0  0  0  0  0  0  0  0  0  0  0
  147.6344  141.2915  157.4026 H   0  0  0  0  0  0  0  0  0  0  0  0
  147.1349  142.7645  156.5455 H   0  0  0  0  0  0  0  0  0  0  0  0
  148.1153  142.8816  157.9821 H   0  0  0  0  0  0  0  0  0  0  0  0
  150.0543  141.6840  158.1119 H   0  0  0  0  0  0  0  0  0  0  0  0
  150.7984  140.8997  156.7569 H   0  0  0  0  0  0  0  0  0  0  0  0
  152.3124  142.6786  157.6545 H   0  0  0  0  0  0  0  0  0  0  0  0
  151.8447  143.0011  155.9978 H   0  0  0  0  0  0  0  0  0  0  0  0
  150.1220  144.3110  156.9181 H   0  0  0  0  0  0  0  0  0  0  0  0
  146.9811  141.9876  154.8678 H   0  0  0  0  0  0  0  0  0  0  0  0
  147.9701  142.6875  153.5891 H   0  0  0  0  0  0  0  0  0  0  0  0
  146.4336  140.4921  153.1588 H   0  0  0  0  0  0  0  0  0  0  0  0
  148.0119  140.6403  152.3775 H   0  0  0  0  0  0  0  0  0  0  0  0
  146.5271  135.8855  156.1778 H   0  0  0  0  0  0  0  0  0  0  0  0
  145.5814  137.3212  149.9702 H   0  0  0  0  0  0  0  0  0  0  0  0
  143.7026  135.4561  151.1673 H   0  0  0  0  0  0  0  0  0  0  0  0
  145.3788  133.7511  153.0520 H   0  0  0  0  0  0  0  0  0  0  0  0
  143.5930  133.8357  152.9059 H   0  0  0  0  0  0  0  0  0  0  0  0
  145.2799  131.0655  152.1015 H   0  0  0  0  0  0  0  0  0  0  0  0
  145.6461  131.1504  150.3960 H   0  0  0  0  0  0  0  0  0  0  0  0
  147.5143  131.7345  151.0319 H   0  0  0  0  0  0  0  0  0  0  0  0
  142.9197  131.5544  151.2946 H   0  0  0  0  0  0  0  0  0  0  0  0
  142.5158  133.1020  150.5863 H   0  0  0  0  0  0  0  0  0  0  0  0
  143.2303  132.4569  148.6991 H   0  0  0  0  0  0  0  0  0  0  0  0
  144.7458  134.2753  149.3821 H   0  0  0  0  0  0  0  0  0  0  0  0
  146.2805  134.0971  150.2889 H   0  0  0  0  0  0  0  0  0  0  0  0
  149.3520  143.1542  155.9330 H   0  0  0  0  0  0  0  0  0  0  0  0
  1  2  1  0  0  0  0
  1 31  1  0  0  0  0
  1 32  1  0  0  0  0
  1 33  1  0  0  0  0
  2 29  1  0  0  0  0
  2 11  1  0  0  0  0
  2  3  1  0  0  0  0
  3 30  1  0  0  0  0
  3  4  1  0  0  0  0
  3  9  1  0  0  0  0
  4  5  1  0  0  0  0
  4  6  1  0  0  0  0
  4 59  1  0  0  0  0
  5 34  1  0  0  0  0
  5 35  1  0  0  0  0
  5 36  1  0  0  0  0
  6  7  1  0  0  0  0
  6 37  1  0  0  0  0
  6 38  1  0  0  0  0
  7  8  1  0  0  0  0
  7 39  1  0  0  0  0
  7 40  1  0  0  0  0
  8 41  1  0  0  0  0
  9 10  1  0  0  0  0
  9 42  1  0  0  0  0
  9 43  1  0  0  0  0
 10 11  1  0  0  0  0
 10 44  1  0  0  0  0
 10 45  1  0  0  0  0
 11 12  1  0  0  0  0
 12 17  1  0  0  0  0
 12 13  2  0  0  0  0
 13 14  1  0  0  0  0
 14 15  2  0  0  0  0
 14 46  1  0  0  0  0
 15 16  1  0  0  0  0
 16 20  1  0  0  0  0
 16 17  2  0  0  0  0
 17 18  1  0  0  0  0
 18 19  2  0  0  0  0
 19 20  1  0  0  0  0
 19 47  1  0  0  0  0
 20 21  1  0  0  0  0
 21 28  1  0  0  0  0
 21 22  1  0  0  0  0
 21 48  1  0  0  0  0
 22 23  1  0  0  0  0
 22 49  1  0  0  0  0
 22 50  1  0  0  0  0
 23 24  1  0  0  0  0
 23 26  1  0  0  0  0
 23 28  1  0  0  0  0
 24 25  1  0  0  0  0
 24 51  1  0  0  0  0
 24 52  1  0  0  0  0
 25 53  1  0  0  0  0
 26 27  1  0  0  0  0
 26 54  1  0  0  0  0
 26 55  1  0  0  0  0
 27 56  1  0  0  0  0
 28 57  1  0  0  0  0
 28 58  1  0  0  0  0
M  CHG  1   4   1
M  END
> <s_m_source_file>
AV-unprocessed.smi

> <i_m_source_file_index>
215

> <i_lp_mmshare_version>
43012

> <i_f3d_flags>
0

> <s_epik_input>
W09IXVtDSDJdW0NIMl1OKFtDSDNdKVtDQEBIXShbQ0BIXTFbQ0gzXSlbQ0gyXVtDSDJdTjFjKG5bY0hdbjIpYyhjMjMpbltjSF1uM1tDSF0oW0NIMl00KVtDSDJdQzQoW0NIMl1bT0hdKVtDSDJdW09IXQ==

> <s_epik_cmdline>
J2VwaWtfcHl0aG9uJywgJy1waCcsICc3LjAnLCAnLXRuJywgJzgnLCAnLW1hJywgJzIwMCcsICctbWV0YWxfYmluZGluZycsICctaW1hZScsICc8aW5maWxlLm1hZT4nLCAnLW9tYWUnLCAnPG91dGZpbGUubWFlPic=

> <r_lp_tautomer_probability>
1

> <r_epik_Ionization_Penalty>
0.0036237

> <r_epik_Ionization_Penalty_Charging>
0.0032725

> <r_epik_Ionization_Penalty_Neutral>
0.000351196

> <r_epik_State_Penalty>
-0

> <r_epik_Charging_Adjusted_Penalty>
0.0032725

> <i_epik_Tot_Q>
1

> <i_epik_Tot_abs_Q>
1

> <r_epik_Metal_State_Penalty>
-0

> <b_epik_Metal_Only>
0

> <s_lp_Force_Field>
OPLS_2005

> <r_lp_Energy>
67.7544

> <b_lp_Chiralities_Consistent>
1

> <s_lp_Variant>
AV-unprocessed.smi:215-6

> <Gold.Version>
5.8.1

> <Gold.Id.Protein>
6NUR|6NUR_protein|mol2

> <Gold.PLP.Fitness>
55.5631

> <Gold.PLP.PLP>
-40.6077

> <Gold.PLP.part.hbond>
-4.8796

> <Gold.PLP.part.metal>
0.0000

> <Gold.PLP.part.buried>
-1.4609

> <Gold.PLP.part.nonpolar>
-35.9386

> <Gold.PLP.part.repulsive>
0.4808

> <Gold.PLP.ligand.clash>
0.0000

> <Gold.PLP.ligand.torsion>
1.3749

> <Gold.PLP.Chemscore.Hbond>
4.9920

> <Gold.PLP.Chemscore.CHOScore>
0.6199

> <Gold.PLP.Chemscore.Metal>
0.0000

> <Gold.Chemscore.Hbonds>
donor molecule, donor type, donor heavy atom, donor atom, acceptor molecule, acceptor atom, score
      L1  H     4    59       P1  8028  2.00
      L1  H     8    41       P1  8028  1.00
      L1  H    25    53       P1 10747  1.00
      P1  H  7954  7966       L1    18  0.08
      P1  H 10785 10796       L1    27  1.00
      L1  C    19    47       P1 10171  0.57

> <Gold.PLP.Chemscore.Internal.Correction>
0.8695

> <Gold.Rescore>
     Score         DG    S(hbond)    S(metal)    S(lipo)     H(rot)  DE(clash)    DE(int)     intcor
     12.55     -17.82       3.90        0.00      92.21       4.48       2.99       2.28       ----

> <Gold.Chemscore.Fitness>
12.5465

> <Gold.Chemscore.DG>
-17.8204

> <Gold.Chemscore.ZeroCoef>
-5.4800

> <Gold.Chemscore.Hbond>
3.8975

> <Gold.Chemscore.Metal>
0.0000

> <Gold.Chemscore.Lipo>
92.2075

> <Gold.Chemscore.Internal_Hbond>
0.0000

> <Gold.Chemscore.DEClash>
2.9945

> <Gold.Chemscore.DEInternal>
2.2793

> <Gold.Chemscore.Rot>
4.4787

> <Gold.Chemscore.Internal.Correction>
   9.000000E+99

> <Gold.Chemscore.Hbonds>
donor molecule, donor type, donor heavy atom, donor atom, acceptor molecule, acceptor atom, score
      L1  H     4    59       P1  8028  0.96
      L1  H     8    41       P1  8028  0.88
      L1  H    25    53       P1 10747  1.00
      P1  H 10785 10796       L1    27  0.87

> <Gold.Chemscore.Hbond.Weighted>
-13.0176

> <Gold.Chemscore.Metal.Weighted>
-0.0000

> <Gold.Chemscore.Lipo.Weighted>
-10.7883

> <Gold.Chemscore.Internal_Hbond.Weighted>
0.0000

> <Gold.Chemscore.DEClash.Weighted>
2.9945

> <Gold.Chemscore.DEInternal.Weighted>
2.2793

> <Gold.Chemscore.Rot.Weighted>
11.4655

> <Gold.Chemscore.Internal.Correction.Weighted>
   9.000000E+99

> <Gold.Protein.RotatedTorsions>
[ 6907 6896 6895 6894 ] final  -32.39 input  -60.11 | X-H torsion
[ 7974 7965 7964 7962 ] final  -81.86 input  175.53 | X-H torsion
[ 8008 7997 7996 7995 ] final  -99.41 input   59.86 | X-H torsion
[ 10167 10162 10161 10158 ] final  178.07 input  -65.29 | X-H torsion
[ 10718 10713 10712 10709 ] final -178.64 input   66.30 | X-H torsion
[ 10763 10752 10751 10750 ] final   68.34 input  -60.55 | X-H torsion
[ 11005 11000 10999 10996 ] final  153.23 input  -57.11 | X-H torsion

> <Gold.Protein.ActiveResidues>
 VAL166  LYS551  ARG553  GLY616  TRP617  ASP618  TYR619  PRO620  LYS621  CYS622 
 ASP623  PHE694  ASN695  SER759  ASP760  ASP761  ALA762  ILE779  LEU786  VAL792 
 PHE793  MET794  SER795  GLU796  ALA797  LYS798  CYS799  TRP800  GLU811  SER814 

> <Gold.Protein.RotatedAtoms>
  151.0794  134.9849  159.8348 H   0  0  0  0  0  0  0  0  0  0  0  0  # atno 6907 bound_to 6896
  152.5418  134.2200  159.8794 H   0  0  0  0  0  0  0  0  0  0  0  0  # atno 6908 bound_to 6896
  151.2229  133.4449  159.2635 H   0  0  0  0  0  0  0  0  0  0  0  0  # atno 6909 bound_to 6896
  145.5410  140.9509  143.1551 H   0  0  0  0  0  0  0  0  0  0  0  0  # atno 7974 bound_to 7965
  154.8144  140.0448  157.1366 H   0  0  0  0  0  0  0  0  0  0  0  0  # atno 8008 bound_to 7997
  154.9331  140.3042  155.5138 H   0  0  0  0  0  0  0  0  0  0  0  0  # atno 8009 bound_to 7997
  156.2975  140.2319  156.4393 H   0  0  0  0  0  0  0  0  0  0  0  0  # atno 8010 bound_to 7997
  139.5279  144.2723  152.0617 H   0  0  0  0  0  0  0  0  0  0  0  0  # atno 10167 bound_to 10162
  156.8473  130.9707  151.3095 H   0  0  0  0  0  0  0  0  0  0  0  0  # atno 10718 bound_to 10713
  153.0230  135.5251  154.7119 H   0  0  0  0  0  0  0  0  0  0  0  0  # atno 10763 bound_to 10752
  154.6199  135.2888  155.0340 H   0  0  0  0  0  0  0  0  0  0  0  0  # atno 10764 bound_to 10752
  154.1330  135.6590  153.4978 H   0  0  0  0  0  0  0  0  0  0  0  0  # atno 10765 bound_to 10752
  140.1379  134.8759  157.2291 H   0  0  0  0  0  0  0  0  0  0  0  0  # atno 11005 bound_to 11000
  144.7577  139.7034  143.7247 LP  0  0  0  0  0  0  0  0  0  0  0  0  # atno 17320 bound_to 7965
  146.1981  139.5259  142.9761 LP  0  0  0  0  0  0  0  0  0  0  0  0  # atno 17321 bound_to 7965
  140.2182  144.4493  150.6354 LP  0  0  0  0  0  0  0  0  0  0  0  0  # atno 17342 bound_to 10162
  140.6436  143.2208  151.6236 LP  0  0  0  0  0  0  0  0  0  0  0  0  # atno 17343 bound_to 10162
  157.6322  130.8739  149.9295 LP  0  0  0  0  0  0  0  0  0  0  0  0  # atno 17370 bound_to 10713
  156.0847  130.3669  150.0511 LP  0  0  0  0  0  0  0  0  0  0  0  0  # atno 17371 bound_to 10713
  140.2759  134.3406  155.7358 LP  0  0  0  0  0  0  0  0  0  0  0  0  # atno 17394 bound_to 11000
  141.2181  133.7450  156.9292 LP  0  0  0  0  0  0  0  0  0  0  0  0  # atno 17395 bound_to 11000

$$$$
