AV-unprocessed.smi:114|AV-procd|sdf|1113|dock7
  -GOLD-   2262018233D 1   1.00000     0.00000
 Structure written by MMmdl.
 32 34  0  0  0  0  0  0  0  0  1 V2000
  153.6252  140.9410  160.0437 N   0  0  0  0  0  0  0  0  0  0  0  0
  152.8632  141.6586  159.2064 C   0  0  0  0  0  0  0  0  0  0  0  0
  153.1215  142.9800  159.0723 N   0  0  0  0  0  0  0  0  0  0  0  0
  152.3817  143.7327  158.2490 C   0  0  0  0  0  0  0  0  0  0  0  0
  152.7084  145.0445  158.1781 F   0  0  0  0  0  0  0  0  0  0  0  0
  151.3550  143.3346  157.4905 N   0  0  0  0  0  0  0  0  0  0  0  0
  151.0900  142.0023  157.6210 C   0  0  0  0  0  0  0  0  0  0  0  0
  151.7987  141.0991  158.4583 C   0  0  0  0  0  0  0  0  0  0  0  0
  151.2595  139.8251  158.3463 N   0  0  0  0  0  0  0  0  0  0  0  0
  150.2839  139.9725  157.4909 C   0  0  0  0  0  0  0  0  0  0  0  0
  150.1058  141.2503  157.0074 N   0  0  0  0  0  0  0  0  0  0  0  0
  149.0657  141.7087  156.0285 C   0  0  2  0  0  0  0  0  0  0  0  0
  147.8152  141.2131  156.4083 O   0  0  0  0  0  0  0  0  0  0  0  0
  147.2646  140.3910  155.3788 C   0  0  1  0  0  0  0  0  0  0  0  0
  145.7332  140.5156  155.3775 C   0  0  0  0  0  0  0  0  0  0  0  0
  145.3438  141.7159  154.7450 O   0  0  0  0  0  0  0  0  0  0  0  0
  147.9231  140.9407  154.1120 C   0  0  2  0  0  0  0  0  0  0  0  0
  147.8813  140.0368  153.0234 O   0  0  0  0  0  0  0  0  0  0  0  0
  149.3377  141.2461  154.5840 C   0  0  2  0  0  0  0  0  0  0  0  0
  150.2026  140.1241  154.4956 O   0  0  0  0  0  0  0  0  0  0  0  0
  149.0545  142.7949  156.1269 H   0  0  0  0  0  0  0  0  0  0  0  0
  147.5745  139.3554  155.5281 H   0  0  0  0  0  0  0  0  0  0  0  0
  147.4362  141.8722  153.8190 H   0  0  0  0  0  0  0  0  0  0  0  0
  149.7837  142.0641  154.0176 H   0  0  0  0  0  0  0  0  0  0  0  0
  153.4496  139.9536  160.1618 H   0  0  0  0  0  0  0  0  0  0  0  0
  154.3716  141.3892  160.5551 H   0  0  0  0  0  0  0  0  0  0  0  0
  149.6574  139.1455  157.1900 H   0  0  0  0  0  0  0  0  0  0  0  0
  145.2646  139.6597  154.8906 H   0  0  0  0  0  0  0  0  0  0  0  0
  145.3589  140.5509  156.4010 H   0  0  0  0  0  0  0  0  0  0  0  0
  144.6480  141.5233  154.1355 H   0  0  0  0  0  0  0  0  0  0  0  0
  148.6891  140.1116  152.5393 H   0  0  0  0  0  0  0  0  0  0  0  0
  149.6920  139.3405  154.6301 H   0  0  0  0  0  0  0  0  0  0  0  0
  1  2  1  0  0  0  0
  1 25  1  0  0  0  0
  1 26  1  0  0  0  0
  2  8  1  0  0  0  0
  2  3  2  0  0  0  0
  3  4  1  0  0  0  0
  4  5  1  0  0  0  0
  4  6  2  0  0  0  0
  6  7  1  0  0  0  0
  7 11  1  0  0  0  0
  7  8  2  0  0  0  0
  8  9  1  0  0  0  0
  9 10  2  0  0  0  0
 10 11  1  0  0  0  0
 10 27  1  0  0  0  0
 11 12  1  0  0  0  0
 12 21  1  0  0  0  0
 12 19  1  0  0  0  0
 12 13  1  0  0  0  0
 13 14  1  0  0  0  0
 14 22  1  0  0  0  0
 14 15  1  0  0  0  0
 14 17  1  0  0  0  0
 15 16  1  0  0  0  0
 15 28  1  0  0  0  0
 15 29  1  0  0  0  0
 16 30  1  0  0  0  0
 17 23  1  0  0  0  0
 17 18  1  0  0  0  0
 17 19  1  0  0  0  0
 18 31  1  0  0  0  0
 19 24  1  0  0  0  0
 19 20  1  0  0  0  0
 20 32  1  0  0  0  0
M  END
> <s_m_source_file>
AV-unprocessed.smi

> <i_m_source_file_index>
114

> <i_lp_mmshare_version>
43012

> <i_f3d_flags>
0

> <s_epik_input>
RmMobjEpbmMoW05IMl0pYyhjMTIpbltjSF1uMltDQEBIXTNPW0NASF0oW0NIMl1bT0hdKVtDQEBIXShbT0hdKVtDQEBIXTNbT0hd

> <s_epik_cmdline>
J2VwaWtfcHl0aG9uJywgJy1waCcsICc3LjAnLCAnLXRuJywgJzgnLCAnLW1hJywgJzIwMCcsICctbWV0YWxfYmluZGluZycsICctaW1hZScsICc8aW5maWxlLm1hZT4nLCAnLW9tYWUnLCAnPG91dGZpbGUubWFlPic=

> <r_lp_tautomer_probability>
1

> <r_epik_Ionization_Penalty>
1.13199e-05

> <r_epik_Ionization_Penalty_Charging>
0

> <r_epik_Ionization_Penalty_Neutral>
1.13199e-05

> <r_epik_State_Penalty>
-0

> <r_epik_Charging_Adjusted_Penalty>
0

> <i_epik_Tot_Q>
0

> <i_epik_Tot_abs_Q>
0

> <r_epik_Metal_State_Penalty>
-0

> <b_epik_Metal_Only>
0

> <s_epik_Chemistry_Notes>
This compound contains an acetal/aminal-like group ( X-CH(R)-Y where X, Y are N, S, or O) that may be acid/base labile, releasing an aldehyde.

> <s_lp_Force_Field>
OPLS_2005

> <r_lp_Energy>
45.5286

> <b_lp_Chiralities_Consistent>
1

> <s_lp_Variant>
AV-unprocessed.smi:114-7

> <Gold.Version>
5.8.1

> <Gold.Id.Protein>
6NUR|6NUR_protein|mol2

> <Gold.PLP.Fitness>
40.0902

> <Gold.PLP.PLP>
-32.1521

> <Gold.PLP.part.hbond>
-2.7976

> <Gold.PLP.part.metal>
0.0000

> <Gold.PLP.part.buried>
-6.5484

> <Gold.PLP.part.nonpolar>
-23.3322

> <Gold.PLP.part.repulsive>
0.2525

> <Gold.PLP.ligand.clash>
0.0000

> <Gold.PLP.ligand.torsion>
0.4990

> <Gold.PLP.Chemscore.Hbond>
2.9760

> <Gold.PLP.Chemscore.CHOScore>
0.0000

> <Gold.PLP.Chemscore.Metal>
0.0000

> <Gold.Chemscore.Hbonds>
donor molecule, donor type, donor heavy atom, donor atom, acceptor molecule, acceptor atom, score
      L1  H    16    30       P1 10175  0.68
      L1  H    18    31       P1  7957  1.00
      P1  H  7989  7998       L1    20  1.00

> <Gold.PLP.Chemscore.Internal.Correction>
0.0080

> <Gold.Rescore>
     Score         DG    S(hbond)    S(metal)    S(lipo)     H(rot)  DE(clash)    DE(int)     intcor
      5.66      -7.22       2.73        0.00      25.14       4.03       0.05       1.51       ----

> <Gold.Chemscore.Fitness>
5.6639

> <Gold.Chemscore.DG>
-7.2235

> <Gold.Chemscore.ZeroCoef>
-5.4800

> <Gold.Chemscore.Hbond>
2.7284

> <Gold.Chemscore.Metal>
0.0000

> <Gold.Chemscore.Lipo>
25.1419

> <Gold.Chemscore.Internal_Hbond>
0.0000

> <Gold.Chemscore.DEClash>
0.0515

> <Gold.Chemscore.DEInternal>
1.5081

> <Gold.Chemscore.Rot>
4.0277

> <Gold.Chemscore.Internal.Correction>
   9.000000E+99

> <Gold.Chemscore.Hbonds>
donor molecule, donor type, donor heavy atom, donor atom, acceptor molecule, acceptor atom, score
      L1  H    16    30       P1 10175  0.20
      L1  H    18    31       P1  7957  0.97
      P1  H  7989  7998       L1    20  0.25

> <Gold.Chemscore.Hbond.Weighted>
-9.1129

> <Gold.Chemscore.Metal.Weighted>
-0.0000

> <Gold.Chemscore.Lipo.Weighted>
-2.9416

> <Gold.Chemscore.Internal_Hbond.Weighted>
0.0000

> <Gold.Chemscore.DEClash.Weighted>
0.0515

> <Gold.Chemscore.DEInternal.Weighted>
1.5081

> <Gold.Chemscore.Rot.Weighted>
10.3110

> <Gold.Chemscore.Internal.Correction.Weighted>
   9.000000E+99

> <Gold.Protein.RotatedTorsions>
[ 6907 6896 6895 6894 ] final   21.90 input  -60.11 | X-H torsion
[ 7974 7965 7964 7962 ] final -159.04 input  175.53 | X-H torsion
[ 8008 7997 7996 7995 ] final -140.62 input   59.86 | X-H torsion
[ 10167 10162 10161 10158 ] final   60.86 input  -65.29 | X-H torsion
[ 10718 10713 10712 10709 ] final -115.66 input   66.30 | X-H torsion
[ 10763 10752 10751 10750 ] final    1.61 input  -60.55 | X-H torsion
[ 11005 11000 10999 10996 ] final   50.96 input  -57.11 | X-H torsion

> <Gold.Protein.ActiveResidues>
 VAL166  LYS551  ARG553  GLY616  TRP617  ASP618  TYR619  PRO620  LYS621  CYS622 
 ASP623  PHE694  ASN695  SER759  ASP760  ASP761  ALA762  ILE779  LEU786  VAL792 
 PHE793  MET794  SER795  GLU796  ALA797  LYS798  CYS799  TRP800  GLU811  SER814 

> <Gold.Protein.RotatedAtoms>
  151.9189  135.0307  160.0520 H   0  0  0  0  0  0  0  0  0  0  0  0  # atno 6907 bound_to 6896
  152.2217  133.4984  159.5174 H   0  0  0  0  0  0  0  0  0  0  0  0  # atno 6908 bound_to 6896
  150.7001  134.1251  159.4091 H   0  0  0  0  0  0  0  0  0  0  0  0  # atno 6909 bound_to 6896
  144.7481  140.3741  143.6069 H   0  0  0  0  0  0  0  0  0  0  0  0  # atno 7974 bound_to 7965
  155.4643  140.0548  157.2987 H   0  0  0  0  0  0  0  0  0  0  0  0  # atno 8008 bound_to 7997
  154.4724  140.2046  155.9915 H   0  0  0  0  0  0  0  0  0  0  0  0  # atno 8009 bound_to 7997
  156.1078  140.3209  155.8034 H   0  0  0  0  0  0  0  0  0  0  0  0  # atno 8010 bound_to 7997
  140.1610  144.4370  150.6709 H   0  0  0  0  0  0  0  0  0  0  0  0  # atno 10167 bound_to 10162
  156.0911  130.6093  150.8935 H   0  0  0  0  0  0  0  0  0  0  0  0  # atno 10718 bound_to 10713
  153.3059  135.6959  153.7160 H   0  0  0  0  0  0  0  0  0  0  0  0  # atno 10763 bound_to 10752
  153.6056  135.3454  155.2961 H   0  0  0  0  0  0  0  0  0  0  0  0  # atno 10764 bound_to 10752
  154.8563  135.4351  154.2184 H   0  0  0  0  0  0  0  0  0  0  0  0  # atno 10765 bound_to 10752
  140.0973  134.5129  155.8795 H   0  0  0  0  0  0  0  0  0  0  0  0  # atno 11005 bound_to 11000
  145.7047  139.1669  143.2573 LP  0  0  0  0  0  0  0  0  0  0  0  0  # atno 17320 bound_to 7965
  146.1390  140.7083  142.9376 LP  0  0  0  0  0  0  0  0  0  0  0  0  # atno 17321 bound_to 7965
  140.6643  143.2262  151.5781 LP  0  0  0  0  0  0  0  0  0  0  0  0  # atno 17342 bound_to 10162
  139.5381  144.2723  152.1294 LP  0  0  0  0  0  0  0  0  0  0  0  0  # atno 17343 bound_to 10162
  157.6060  131.0939  150.8878 LP  0  0  0  0  0  0  0  0  0  0  0  0  # atno 17370 bound_to 10713
  156.9026  130.5252  149.5282 LP  0  0  0  0  0  0  0  0  0  0  0  0  # atno 17371 bound_to 10713
  141.2095  133.6685  156.6447 LP  0  0  0  0  0  0  0  0  0  0  0  0  # atno 17394 bound_to 11000
  140.3269  134.7961  157.4296 LP  0  0  0  0  0  0  0  0  0  0  0  0  # atno 17395 bound_to 11000

$$$$
