AV-unprocessed.smi:3156|AV-procd|sdf|12031|dock8
  -GOLD-   2272017453D 1   1.00000     0.00000
 Structure written by MMmdl.
 41 42  0  0  0  0  0  0  0  0  2 V2000
  152.2441  139.5837  155.6769 C   0  0  0  0  0  0  0  0  0  0  0  0
  151.0551  140.4444  155.2075 C   0  0  2  0  0  0  0  0  0  0  0  0
  150.9978  141.6981  155.9965 N   0  3  0  0  0  0  0  0  0  0  0  0
  150.8211  141.5236  157.4540 C   0  0  0  0  0  0  0  0  0  0  0  0
  151.6598  142.5392  158.2446 C   0  0  1  0  0  0  0  0  0  0  0  0
  151.4994  143.9807  157.7175 C   0  0  0  0  0  0  0  0  0  0  0  0
  152.2712  144.9681  158.6001 C   0  0  0  0  0  0  0  0  0  0  0  0
  151.8576  144.7850  160.0638 C   0  0  0  0  0  0  0  0  0  0  0  0
  151.9936  143.3109  160.4761 C   0  0  0  0  0  0  0  0  0  0  0  0
  151.2248  142.4900  159.6014 O   0  0  0  0  0  0  0  0  0  0  0  0
  149.7005  139.6906  155.3158 C   0  0  2  0  0  0  0  0  0  0  0  0
  149.7834  138.2218  154.8603 C   0  0  0  0  0  0  0  0  0  0  0  0
  148.6402  140.3667  154.5752 N   0  0  0  0  0  0  0  0  0  0  0  0
  148.2414  141.6843  154.6710 C   0  0  0  0  0  0  0  0  0  0  0  0
  147.2001  141.8610  153.8060 C   0  0  0  0  0  0  0  0  0  0  0  0
  147.0206  140.5748  153.2253 C   0  0  0  0  0  0  0  0  0  0  0  0
  147.8797  139.6825  153.6901 N   0  0  0  0  0  0  0  0  0  0  0  0
  152.3628  138.6921  155.0623 H   0  0  0  0  0  0  0  0  0  0  0  0
  152.1171  139.2619  156.7110 H   0  0  0  0  0  0  0  0  0  0  0  0
  153.1863  140.1271  155.6140 H   0  0  0  0  0  0  0  0  0  0  0  0
  151.2154  140.7085  154.1607 H   0  0  0  0  0  0  0  0  0  0  0  0
  151.8775  142.1768  155.8627 H   0  0  0  0  0  0  0  0  0  0  0  0
  149.7703  141.6119  157.7287 H   0  0  0  0  0  0  0  0  0  0  0  0
  151.1353  140.5131  157.7189 H   0  0  0  0  0  0  0  0  0  0  0  0
  152.7094  142.2409  158.2036 H   0  0  0  0  0  0  0  0  0  0  0  0
  151.8517  144.0551  156.6884 H   0  0  0  0  0  0  0  0  0  0  0  0
  150.4433  144.2532  157.7062 H   0  0  0  0  0  0  0  0  0  0  0  0
  153.3430  144.7944  158.4967 H   0  0  0  0  0  0  0  0  0  0  0  0
  152.0862  145.9931  158.2777 H   0  0  0  0  0  0  0  0  0  0  0  0
  152.4670  145.4167  160.7106 H   0  0  0  0  0  0  0  0  0  0  0  0
  150.8235  145.1059  160.1959 H   0  0  0  0  0  0  0  0  0  0  0  0
  153.0386  142.9972  160.4629 H   0  0  0  0  0  0  0  0  0  0  0  0
  151.6339  143.1729  161.4958 H   0  0  0  0  0  0  0  0  0  0  0  0
  149.3987  139.6914  156.3646 H   0  0  0  0  0  0  0  0  0  0  0  0
  150.4320  137.6319  155.5070 H   0  0  0  0  0  0  0  0  0  0  0  0
  150.1625  138.1407  153.8410 H   0  0  0  0  0  0  0  0  0  0  0  0
  148.8004  137.7500  154.8848 H   0  0  0  0  0  0  0  0  0  0  0  0
  148.7263  142.3808  155.3397 H   0  0  0  0  0  0  0  0  0  0  0  0
  146.6457  142.7692  153.6209 H   0  0  0  0  0  0  0  0  0  0  0  0
  146.2953  140.2647  152.4876 H   0  0  0  0  0  0  0  0  0  0  0  0
  150.2574  142.2809  155.6334 H   0  0  0  0  0  0  0  0  0  0  0  0
  1  2  1  0  0  0  0
  1 18  1  0  0  0  0
  1 19  1  0  0  0  0
  1 20  1  0  0  0  0
  2  3  1  0  0  0  0
  2 11  1  0  0  0  0
  2 21  1  0  0  0  0
  3  4  1  0  0  0  0
  3 22  1  0  0  0  0
  3 41  1  0  0  0  0
  4  5  1  0  0  0  0
  4 23  1  0  0  0  0
  4 24  1  0  0  0  0
  5 10  1  0  0  0  0
  5  6  1  0  0  0  0
  5 25  1  0  0  0  0
  6  7  1  0  0  0  0
  6 26  1  0  0  0  0
  6 27  1  0  0  0  0
  7  8  1  0  0  0  0
  7 28  1  0  0  0  0
  7 29  1  0  0  0  0
  8  9  1  0  0  0  0
  8 30  1  0  0  0  0
  8 31  1  0  0  0  0
  9 10  1  0  0  0  0
  9 32  1  0  0  0  0
  9 33  1  0  0  0  0
 11 12  1  0  0  0  0
 11 13  1  0  0  0  0
 11 34  1  0  0  0  0
 12 35  1  0  0  0  0
 12 36  1  0  0  0  0
 12 37  1  0  0  0  0
 13 17  1  0  0  0  0
 13 14  1  0  0  0  0
 14 15  2  0  0  0  0
 14 38  1  0  0  0  0
 15 16  1  0  0  0  0
 15 39  1  0  0  0  0
 16 17  2  0  0  0  0
 16 40  1  0  0  0  0
M  CHG  1   3   1
M  END
> <s_m_source_file>
AV-unprocessed.smi

> <i_m_source_file_index>
3156

> <i_lp_mmshare_version>
43012

> <i_f3d_flags>
0

> <s_epik_input>
bjFbY0hdW2NIXVtjSF1uMVtDQEBIXShbQ0gzXSlbQ0BIXShbQ0gzXSlbTkhdW0NIMl1bQ0BASF0yW0NIMl1bQ0gyXVtDSDJdW0NIMl1PMg==

> <s_epik_cmdline>
J2VwaWtfcHl0aG9uJywgJy1waCcsICc3LjAnLCAnLXRuJywgJzgnLCAnLW1hJywgJzIwMCcsICctbWV0YWxfYmluZGluZycsICctaW1hZScsICc8aW5maWxlLm1hZT4nLCAnLW9tYWUnLCAnPG91dGZpbGUubWFlPic=

> <r_lp_tautomer_probability>
1

> <r_epik_Ionization_Penalty>
0.00658015

> <r_epik_Ionization_Penalty_Charging>
0.00656881

> <r_epik_Ionization_Penalty_Neutral>
1.13431e-05

> <r_epik_State_Penalty>
0.0048654

> <r_epik_Charging_Adjusted_Penalty>
0.0114342

> <i_epik_Tot_Q>
1

> <i_epik_Tot_abs_Q>
1

> <r_epik_Metal_State_Penalty>
-0

> <b_epik_Metal_Only>
0

> <s_lp_Force_Field>
OPLS_2005

> <r_lp_Energy>
18.0883

> <b_lp_Chiralities_Consistent>
1

> <s_lp_Variant>
AV-unprocessed.smi:3156-3

> <Gold.Version>
5.8.1

> <Gold.Id.Protein>
6NUR|6NUR_protein|mol2

> <Gold.PLP.Fitness>
43.5796

> <Gold.PLP.PLP>
-38.7477

> <Gold.PLP.part.hbond>
-0.5543

> <Gold.PLP.part.metal>
0.0000

> <Gold.PLP.part.buried>
-2.0005

> <Gold.PLP.part.nonpolar>
-36.6813

> <Gold.PLP.part.repulsive>
0.3220

> <Gold.PLP.ligand.clash>
0.0000

> <Gold.PLP.ligand.torsion>
0.6269

> <Gold.PLP.Chemscore.Hbond>
0.0000

> <Gold.PLP.Chemscore.CHOScore>
2.0000

> <Gold.PLP.Chemscore.Metal>
0.0000

> <Gold.Chemscore.Hbonds>
donor molecule, donor type, donor heavy atom, donor atom, acceptor molecule, acceptor atom, score
      L1  C    14    38       P1  8028  1.00
      L1  C    16    40       P1 10175  0.80

> <Gold.PLP.Chemscore.Internal.Correction>
0.0858

> <Gold.Rescore>
     Score         DG    S(hbond)    S(metal)    S(lipo)     H(rot)  DE(clash)    DE(int)     intcor
     13.58     -14.56       0.00        0.00     112.48       1.59       0.38       0.60       ----

> <Gold.Chemscore.Fitness>
13.5827

> <Gold.Chemscore.DG>
-14.5603

> <Gold.Chemscore.ZeroCoef>
-5.4800

> <Gold.Chemscore.Hbond>
0.0000

> <Gold.Chemscore.Metal>
0.0000

> <Gold.Chemscore.Lipo>
112.4833

> <Gold.Chemscore.Internal_Hbond>
0.0000

> <Gold.Chemscore.DEClash>
0.3816

> <Gold.Chemscore.DEInternal>
0.5960

> <Gold.Chemscore.Rot>
1.5938

> <Gold.Chemscore.Internal.Correction>
   9.000000E+99

> <Gold.Chemscore.Hbond.Weighted>
-0.0000

> <Gold.Chemscore.Metal.Weighted>
-0.0000

> <Gold.Chemscore.Lipo.Weighted>
-13.1606

> <Gold.Chemscore.Internal_Hbond.Weighted>
0.0000

> <Gold.Chemscore.DEClash.Weighted>
0.3816

> <Gold.Chemscore.DEInternal.Weighted>
0.5960

> <Gold.Chemscore.Rot.Weighted>
4.0802

> <Gold.Chemscore.Internal.Correction.Weighted>
   9.000000E+99

> <Gold.Protein.RotatedTorsions>
[ 6907 6896 6895 6894 ] final    2.79 input  -60.11 | X-H torsion
[ 7974 7965 7964 7962 ] final  178.85 input  175.53 | X-H torsion
[ 8008 7997 7996 7995 ] final  -99.99 input   59.86 | X-H torsion
[ 10167 10162 10161 10158 ] final  -83.38 input  -65.29 | X-H torsion
[ 10718 10713 10712 10709 ] final  105.55 input   66.30 | X-H torsion
[ 10763 10752 10751 10750 ] final   -8.60 input  -60.55 | X-H torsion
[ 11005 11000 10999 10996 ] final   29.53 input  -57.11 | X-H torsion

> <Gold.Protein.ActiveResidues>
 VAL166  LYS551  ARG553  GLY616  TRP617  ASP618  TYR619  PRO620  LYS621  CYS622 
 ASP623  PHE694  ASN695  SER759  ASP760  ASP761  ALA762  ILE779  LEU786  VAL792 
 PHE793  MET794  SER795  GLU796  ALA797  LYS798  CYS799  TRP800  GLU811  SER814 

> <Gold.Protein.RotatedAtoms>
  151.6146  135.1037  160.0088 H   0  0  0  0  0  0  0  0  0  0  0  0  # atno 6907 bound_to 6896
  152.4190  133.7081  159.6473 H   0  0  0  0  0  0  0  0  0  0  0  0  # atno 6908 bound_to 6896
  150.8078  133.8405  159.3218 H   0  0  0  0  0  0  0  0  0  0  0  0  # atno 6909 bound_to 6896
  144.7151  140.0460  143.6436 H   0  0  0  0  0  0  0  0  0  0  0  0  # atno 7974 bound_to 7965
  154.8225  140.0444  157.1420 H   0  0  0  0  0  0  0  0  0  0  0  0  # atno 8008 bound_to 7997
  154.9244  140.3031  155.5180 H   0  0  0  0  0  0  0  0  0  0  0  0  # atno 8009 bound_to 7997
  156.2981  140.2334  156.4297 H   0  0  0  0  0  0  0  0  0  0  0  0  # atno 8010 bound_to 7997
  140.4232  143.2576  151.8862 H   0  0  0  0  0  0  0  0  0  0  0  0  # atno 10167 bound_to 10162
  157.6701  131.0830  150.5874 H   0  0  0  0  0  0  0  0  0  0  0  0  # atno 10718 bound_to 10713
  153.4428  135.7014  153.6158 H   0  0  0  0  0  0  0  0  0  0  0  0  # atno 10763 bound_to 10752
  153.4526  135.3754  155.2293 H   0  0  0  0  0  0  0  0  0  0  0  0  # atno 10764 bound_to 10752
  154.8727  135.4000  154.3829 H   0  0  0  0  0  0  0  0  0  0  0  0  # atno 10765 bound_to 10752
  140.3039  134.2725  155.7748 H   0  0  0  0  0  0  0  0  0  0  0  0  # atno 11005 bound_to 11000
  145.9984  139.3071  143.0942 LP  0  0  0  0  0  0  0  0  0  0  0  0  # atno 17320 bound_to 7965
  145.8822  140.9356  143.0595 LP  0  0  0  0  0  0  0  0  0  0  0  0  # atno 17321 bound_to 7965
  139.4783  144.5415  151.8521 LP  0  0  0  0  0  0  0  0  0  0  0  0  # atno 17342 bound_to 10162
  140.4511  144.1854  150.5897 LP  0  0  0  0  0  0  0  0  0  0  0  0  # atno 17343 bound_to 10162
  156.6174  130.4396  149.5835 LP  0  0  0  0  0  0  0  0  0  0  0  0  # atno 17370 bound_to 10713
  156.2382  130.6835  151.1530 LP  0  0  0  0  0  0  0  0  0  0  0  0  # atno 17371 bound_to 10713
  141.2122  133.7664  156.9808 LP  0  0  0  0  0  0  0  0  0  0  0  0  # atno 17394 bound_to 11000
  140.1084  134.9492  157.2029 LP  0  0  0  0  0  0  0  0  0  0  0  0  # atno 17395 bound_to 11000

$$$$
