AV-unprocessed.smi:1971|AV-procd|sdf|7968|dock4
  -GOLD-   2272010143D 1   1.00000     0.00000
 Structure written by MMmdl.
 43 44  0  0  0  0  0  0  0  0  3 V2000
  151.9299  144.7769  158.4979 C   0  0  0  0  0  0  0  0  0  0  0  0
  150.5590  144.2180  158.9045 C   0  0  0  0  0  0  0  0  0  0  0  0
  149.9382  143.3968  157.8355 N   0  3  0  0  0  0  0  0  0  0  0  0
  148.7997  142.5878  158.3347 C   0  0  0  0  0  0  0  0  0  0  0  0
  148.1596  141.7905  157.1795 C   0  0  0  0  0  0  0  0  0  0  0  0
  149.1228  140.8720  156.5559 N   0  0  0  0  0  0  0  0  0  0  0  0
  149.5883  139.7497  157.4027 C   0  0  2  0  0  0  0  0  0  0  0  0
  150.7761  139.0259  156.7236 C   0  0  0  0  0  0  0  0  0  0  0  0
  148.4460  138.7460  157.7059 C   0  0  0  0  0  0  0  0  0  0  0  0
  148.8297  137.7827  158.7312 N   0  0  0  0  0  0  0  0  0  0  0  0
  148.6555  136.4573  158.6514 C   0  0  0  0  0  0  0  0  0  0  0  0
  148.1419  135.9654  157.6439 O   0  0  0  0  0  0  0  0  0  0  0  0
  149.0849  135.7861  159.7438 N   0  5  0  0  0  0  0  0  0  0  0  0
  148.3229  135.7439  160.8490 C   0  0  0  0  0  0  0  0  0  0  0  0
  148.1062  136.8115  161.6259 N   0  0  0  0  0  0  0  0  0  0  0  0
  147.2889  136.5421  162.7251 C   0  0  0  0  0  0  0  0  0  0  0  0
  146.8808  135.2364  162.7920 C   0  0  0  0  0  0  0  0  0  0  0  0
  147.5155  134.3005  161.4689 S   0  0  0  0  0  0  0  0  0  0  0  0
  150.1923  141.7196  156.0079 C   0  0  0  0  0  0  0  0  0  0  0  0
  150.9064  142.5377  157.1067 C   0  0  0  0  0  0  0  0  0  0  0  0
  152.3171  145.4398  159.2720 H   0  0  0  0  0  0  0  0  0  0  0  0
  151.8628  145.3533  157.5747 H   0  0  0  0  0  0  0  0  0  0  0  0
  152.6674  143.9883  158.3512 H   0  0  0  0  0  0  0  0  0  0  0  0
  150.6374  143.6372  159.8248 H   0  0  0  0  0  0  0  0  0  0  0  0
  149.9064  145.0631  159.1276 H   0  0  0  0  0  0  0  0  0  0  0  0
  149.1271  141.9273  159.1387 H   0  0  0  0  0  0  0  0  0  0  0  0
  148.0495  143.2523  158.7649 H   0  0  0  0  0  0  0  0  0  0  0  0
  147.2663  141.2670  157.5145 H   0  0  0  0  0  0  0  0  0  0  0  0
  147.8002  142.4865  156.4200 H   0  0  0  0  0  0  0  0  0  0  0  0
  149.9371  140.1362  158.3592 H   0  0  0  0  0  0  0  0  0  0  0  0
  151.0908  138.1464  157.2847 H   0  0  0  0  0  0  0  0  0  0  0  0
  151.6628  139.6538  156.6537 H   0  0  0  0  0  0  0  0  0  0  0  0
  150.5150  138.6928  155.7186 H   0  0  0  0  0  0  0  0  0  0  0  0
  147.5628  139.2574  158.0869 H   0  0  0  0  0  0  0  0  0  0  0  0
  148.1528  138.2135  156.7996 H   0  0  0  0  0  0  0  0  0  0  0  0
  149.2570  138.1472  159.5698 H   0  0  0  0  0  0  0  0  0  0  0  0
  147.0497  137.3408  163.4115 H   0  0  0  0  0  0  0  0  0  0  0  0
  146.2513  134.7699  163.5345 H   0  0  0  0  0  0  0  0  0  0  0  0
  150.9122  141.1347  155.4388 H   0  0  0  0  0  0  0  0  0  0  0  0
  149.7531  142.4040  155.2806 H   0  0  0  0  0  0  0  0  0  0  0  0
  151.6656  143.1606  156.6353 H   0  0  0  0  0  0  0  0  0  0  0  0
  151.4339  141.8860  157.8036 H   0  0  0  0  0  0  0  0  0  0  0  0
  149.5490  144.0391  157.1603 H   0  0  0  0  0  0  0  0  0  0  0  0
  1  2  1  0  0  0  0
  1 21  1  0  0  0  0
  1 22  1  0  0  0  0
  1 23  1  0  0  0  0
  2  3  1  0  0  0  0
  2 24  1  0  0  0  0
  2 25  1  0  0  0  0
  3 20  1  0  0  0  0
  3  4  1  0  0  0  0
  3 43  1  0  0  0  0
  4  5  1  0  0  0  0
  4 26  1  0  0  0  0
  4 27  1  0  0  0  0
  5  6  1  0  0  0  0
  5 28  1  0  0  0  0
  5 29  1  0  0  0  0
  6  7  1  0  0  0  0
  6 19  1  0  0  0  0
  7  8  1  0  0  0  0
  7  9  1  0  0  0  0
  7 30  1  0  0  0  0
  8 31  1  0  0  0  0
  8 32  1  0  0  0  0
  8 33  1  0  0  0  0
  9 10  1  0  0  0  0
  9 34  1  0  0  0  0
  9 35  1  0  0  0  0
 10 11  1  0  0  0  0
 10 36  1  0  0  0  0
 11 12  2  0  0  0  0
 11 13  1  0  0  0  0
 13 14  1  0  0  0  0
 14 18  1  0  0  0  0
 14 15  2  0  0  0  0
 15 16  1  0  0  0  0
 16 17  2  0  0  0  0
 16 37  1  0  0  0  0
 17 18  1  0  0  0  0
 17 38  1  0  0  0  0
 19 20  1  0  0  0  0
 19 39  1  0  0  0  0
 19 40  1  0  0  0  0
 20 41  1  0  0  0  0
 20 42  1  0  0  0  0
M  CHG  1   3   1
M  CHG  1  13  -1
M  END
> <s_m_source_file>
AV-unprocessed.smi

> <i_m_source_file_index>
1971

> <i_lp_mmshare_version>
43012

> <i_f3d_flags>
0

> <s_epik_input>
W0NIM11bQ0gyXU4xW0NIMl1bQ0gyXU4oW0NIMl1bQ0gyXTEpW0NASF0oW0NIM10pW0NIMl1bTkhdQyg9TylbTkhdYzJuW2NIXVtjSF1zMg==

> <s_epik_cmdline>
J2VwaWtfcHl0aG9uJywgJy1waCcsICc3LjAnLCAnLXRuJywgJzgnLCAnLW1hJywgJzIwMCcsICctbWV0YWxfYmluZGluZycsICctaW1hZScsICc8aW5maWxlLm1hZT4nLCAnLW9tYWUnLCAnPG91dGZpbGUubWFlPic=

> <r_lp_tautomer_probability>
0.999

> <r_epik_Ionization_Penalty>
7.06996

> <r_epik_Ionization_Penalty_Charging>
5.92347

> <r_epik_Ionization_Penalty_Neutral>
1.14649

> <r_epik_State_Penalty>
6.04391

> <r_epik_Charging_Adjusted_Penalty>
11.9674

> <i_epik_Tot_Q>
0

> <i_epik_Tot_abs_Q>
2

> <r_epik_Metal_State_Penalty>
2.01291

> <b_epik_Metal_Only>
1

> <s_lp_Force_Field>
OPLS_2005

> <r_lp_Energy>
13.2012

> <b_lp_Chiralities_Consistent>
1

> <s_lp_Variant>
AV-unprocessed.smi:1971-7

> <Gold.Version>
5.8.1

> <Gold.Id.Protein>
6NUR|6NUR_protein|mol2

> <Gold.PLP.Fitness>
47.0773

> <Gold.PLP.PLP>
-35.5186

> <Gold.PLP.part.hbond>
-3.0126

> <Gold.PLP.part.metal>
0.0000

> <Gold.PLP.part.buried>
-5.9026

> <Gold.PLP.part.nonpolar>
-27.1534

> <Gold.PLP.part.repulsive>
0.2256

> <Gold.PLP.ligand.clash>
0.0000

> <Gold.PLP.ligand.torsion>
1.7681

> <Gold.PLP.Chemscore.Hbond>
5.0000

> <Gold.PLP.Chemscore.CHOScore>
0.0000

> <Gold.PLP.Chemscore.Metal>
0.0000

> <Gold.Chemscore.Hbonds>
donor molecule, donor type, donor heavy atom, donor atom, acceptor molecule, acceptor atom, score
      L1  H     3    43       P1  8028  2.00
      P1  H  6896  6907       L1    13  2.00
      P1  H  6931  6943       L1    15  1.00

> <Gold.PLP.Chemscore.Internal.Correction>
0.0949

> <Gold.Rescore>
     Score         DG    S(hbond)    S(metal)    S(lipo)     H(rot)  DE(clash)    DE(int)     intcor
     17.43     -19.13       2.77        0.00      75.88       1.75       0.00       1.70       ----

> <Gold.Chemscore.Fitness>
17.4281

> <Gold.Chemscore.DG>
-19.1297

> <Gold.Chemscore.ZeroCoef>
-5.4800

> <Gold.Chemscore.Hbond>
2.7704

> <Gold.Chemscore.Metal>
0.0000

> <Gold.Chemscore.Lipo>
75.8800

> <Gold.Chemscore.Internal_Hbond>
0.0000

> <Gold.Chemscore.DEClash>
0.0000

> <Gold.Chemscore.DEInternal>
1.7016

> <Gold.Chemscore.Rot>
1.7505

> <Gold.Chemscore.Internal.Correction>
   9.000000E+99

> <Gold.Chemscore.Hbonds>
donor molecule, donor type, donor heavy atom, donor atom, acceptor molecule, acceptor atom, score
      L1  H     3    43       P1  8028  0.55
      P1  H  6896  6907       L1    13  0.94
      P1  H  6931  6943       L1    15  0.74

> <Gold.Chemscore.Hbond.Weighted>
-9.2531

> <Gold.Chemscore.Metal.Weighted>
-0.0000

> <Gold.Chemscore.Lipo.Weighted>
-8.8780

> <Gold.Chemscore.Internal_Hbond.Weighted>
0.0000

> <Gold.Chemscore.DEClash.Weighted>
0.0000

> <Gold.Chemscore.DEInternal.Weighted>
1.7016

> <Gold.Chemscore.Rot.Weighted>
4.4813

> <Gold.Chemscore.Internal.Correction.Weighted>
   9.000000E+99

> <Gold.Protein.RotatedTorsions>
[ 6907 6896 6895 6894 ] final  -55.86 input  -60.11 | X-H torsion
[ 7974 7965 7964 7962 ] final -151.96 input  175.53 | X-H torsion
[ 8008 7997 7996 7995 ] final  176.71 input   59.86 | X-H torsion
[ 10167 10162 10161 10158 ] final   -5.75 input  -65.29 | X-H torsion
[ 10718 10713 10712 10709 ] final  -82.84 input   66.30 | X-H torsion
[ 10763 10752 10751 10750 ] final  136.21 input  -60.55 | X-H torsion
[ 11005 11000 10999 10996 ] final -153.75 input  -57.11 | X-H torsion

> <Gold.Protein.ActiveResidues>
 VAL166  LYS551  ARG553  GLY616  TRP617  ASP618  TYR619  PRO620  LYS621  CYS622 
 ASP623  PHE694  ASN695  SER759  ASP760  ASP761  ALA762  ILE779  LEU786  VAL792 
 PHE793  MET794  SER795  GLU796  ALA797  LYS798  CYS799  TRP800  GLU811  SER814 

> <Gold.Protein.RotatedAtoms>
  150.8216  134.7426  159.6776 H   0  0  0  0  0  0  0  0  0  0  0  0  # atno 6907 bound_to 6896
  152.4331  134.5736  159.9938 H   0  0  0  0  0  0  0  0  0  0  0  0  # atno 6908 bound_to 6896
  151.5919  133.3328  159.3065 H   0  0  0  0  0  0  0  0  0  0  0  0  # atno 6909 bound_to 6896
  144.7820  140.4727  143.5832 H   0  0  0  0  0  0  0  0  0  0  0  0  # atno 7974 bound_to 7965
  156.0735  140.1376  156.9800 H   0  0  0  0  0  0  0  0  0  0  0  0  # atno 8008 bound_to 7997
  154.4545  140.0967  156.6766 H   0  0  0  0  0  0  0  0  0  0  0  0  # atno 8009 bound_to 7997
  155.5190  140.3456  155.4405 H   0  0  0  0  0  0  0  0  0  0  0  0  # atno 8010 bound_to 7997
  140.6974  143.6272  150.8556 H   0  0  0  0  0  0  0  0  0  0  0  0  # atno 10167 bound_to 10162
  156.0027  130.4647  150.4166 H   0  0  0  0  0  0  0  0  0  0  0  0  # atno 10718 bound_to 10713
  153.8527  135.3077  155.3433 H   0  0  0  0  0  0  0  0  0  0  0  0  # atno 10763 bound_to 10752
  154.7884  135.4796  154.0000 H   0  0  0  0  0  0  0  0  0  0  0  0  # atno 10764 bound_to 10752
  153.1509  135.6843  153.8978 H   0  0  0  0  0  0  0  0  0  0  0  0  # atno 10765 bound_to 10752
  140.7047  134.3898  157.5205 H   0  0  0  0  0  0  0  0  0  0  0  0  # atno 11005 bound_to 11000
  145.6023  139.1505  143.3122 LP  0  0  0  0  0  0  0  0  0  0  0  0  # atno 17320 bound_to 7965
  146.2033  140.6144  142.9092 LP  0  0  0  0  0  0  0  0  0  0  0  0  # atno 17321 bound_to 7965
  139.9992  143.5763  152.2882 LP  0  0  0  0  0  0  0  0  0  0  0  0  # atno 17342 bound_to 10162
  139.6446  144.7657  151.2270 LP  0  0  0  0  0  0  0  0  0  0  0  0  # atno 17343 bound_to 10162
  157.2225  131.0486  151.2538 LP  0  0  0  0  0  0  0  0  0  0  0  0  # atno 17370 bound_to 10713
  157.3787  130.7219  149.6615 LP  0  0  0  0  0  0  0  0  0  0  0  0  # atno 17371 bound_to 10713
  139.8887  134.8849  156.2459 LP  0  0  0  0  0  0  0  0  0  0  0  0  # atno 17394 bound_to 11000
  141.0134  133.7082  156.1149 LP  0  0  0  0  0  0  0  0  0  0  0  0  # atno 17395 bound_to 11000

$$$$
