AV-unprocessed.smi:2212|AV-procd|sdf|8954|dock5
  -GOLD-   2272012173D 1   1.00000     0.00000
 Structure written by MMmdl.
 31 32  0  0  0  0  0  0  0  0  1 V2000
  148.1084  138.6476  154.4863 C   0  0  0  0  0  0  0  0  0  0  0  0
  149.1805  139.1274  155.2870 O   0  0  0  0  0  0  0  0  0  0  0  0
  150.3209  138.2734  155.3839 C   0  0  0  0  0  0  0  0  0  0  0  0
  150.0252  137.0097  156.2036 C   0  0  0  0  0  0  0  0  0  0  0  0
  149.5209  137.3579  157.5254 N   0  0  0  0  0  0  0  0  0  0  0  0
  149.0568  136.4813  158.4261 C   0  0  0  0  0  0  0  0  0  0  0  0
  149.0011  135.2716  158.1826 O   0  0  0  0  0  0  0  0  0  0  0  0
  148.6555  137.1434  159.5767 N   0  0  0  0  0  0  0  0  0  0  0  0
  148.1068  136.4732  160.5433 C   0  0  0  0  0  0  0  0  0  0  0  0
  147.7750  135.1295  160.6958 N   0  0  0  0  0  0  0  0  0  0  0  0
  147.2032  134.9692  161.9270 C   0  0  0  0  0  0  0  0  0  0  0  0
  147.1735  136.1565  162.5248 C   0  0  0  0  0  0  0  0  0  0  0  0
  147.7185  137.0963  161.7023 O   0  0  0  0  0  0  0  0  0  0  0  0
  150.8965  138.0873  153.9672 C   0  0  0  0  0  0  0  0  0  0  0  0
  152.2902  138.3506  154.5403 C   0  0  0  0  0  0  0  0  0  0  0  0
  151.5995  139.0768  155.6957 C   0  0  0  0  0  0  0  0  0  0  0  0
  147.2652  139.3328  154.5711 H   0  0  0  0  0  0  0  0  0  0  0  0
  147.7685  137.6628  154.8075 H   0  0  0  0  0  0  0  0  0  0  0  0
  148.3806  138.5990  153.4322 H   0  0  0  0  0  0  0  0  0  0  0  0
  149.2834  136.3965  155.6894 H   0  0  0  0  0  0  0  0  0  0  0  0
  150.9125  136.3846  156.3060 H   0  0  0  0  0  0  0  0  0  0  0  0
  149.5356  138.3365  157.7759 H   0  0  0  0  0  0  0  0  0  0  0  0
  147.9130  134.3735  160.0404 H   0  0  0  0  0  0  0  0  0  0  0  0
  146.8694  133.9951  162.2528 H   0  0  0  0  0  0  0  0  0  0  0  0
  146.8146  136.4830  163.4898 H   0  0  0  0  0  0  0  0  0  0  0  0
  150.7641  137.0914  153.5433 H   0  0  0  0  0  0  0  0  0  0  0  0
  150.5795  138.8631  153.2678 H   0  0  0  0  0  0  0  0  0  0  0  0
  152.7995  137.4383  154.8551 H   0  0  0  0  0  0  0  0  0  0  0  0
  152.9287  138.9799  153.9201 H   0  0  0  0  0  0  0  0  0  0  0  0
  151.4952  140.1473  155.5090 H   0  0  0  0  0  0  0  0  0  0  0  0
  152.0349  138.8823  156.6762 H   0  0  0  0  0  0  0  0  0  0  0  0
  1  2  1  0  0  0  0
  1 17  1  0  0  0  0
  1 18  1  0  0  0  0
  1 19  1  0  0  0  0
  2  3  1  0  0  0  0
  3 16  1  0  0  0  0
  3  4  1  0  0  0  0
  3 14  1  0  0  0  0
  4  5  1  0  0  0  0
  4 20  1  0  0  0  0
  4 21  1  0  0  0  0
  5 22  1  0  0  0  0
  5  6  1  0  0  0  0
  6  8  1  0  0  0  0
  6  7  2  0  0  0  0
  8  9  2  0  0  0  0
  9 13  1  0  0  0  0
  9 10  1  0  0  0  0
 10 23  1  0  0  0  0
 10 11  1  0  0  0  0
 11 24  1  0  0  0  0
 11 12  2  0  0  0  0
 12 25  1  0  0  0  0
 12 13  1  0  0  0  0
 14 15  1  0  0  0  0
 14 26  1  0  0  0  0
 14 27  1  0  0  0  0
 15 16  1  0  0  0  0
 15 28  1  0  0  0  0
 15 29  1  0  0  0  0
 16 30  1  0  0  0  0
 16 31  1  0  0  0  0
M  END
> <s_m_source_file>
AV-unprocessed.smi

> <i_m_source_file_index>
2212

> <i_lp_mmshare_version>
43012

> <i_f3d_flags>
0

> <s_epik_input>
W0NIMl0xW0NIMl1bQ0gyXUMxKE9bQ0gzXSlbQ0gyXVtOSF1DKD1PKVtOSF1jMm5bY0hdW2NIXW8y

> <s_epik_cmdline>
J2VwaWtfcHl0aG9uJywgJy1waCcsICc3LjAnLCAnLXRuJywgJzgnLCAnLW1hJywgJzIwMCcsICctbWV0YWxfYmluZGluZycsICctaW1hZScsICc8aW5maWxlLm1hZT4nLCAnLW9tYWUnLCAnPG91dGZpbGUubWFlPic=

> <r_lp_tautomer_probability>
0.107061

> <r_epik_Ionization_Penalty>
1.29244

> <r_epik_Ionization_Penalty_Charging>
1.29208

> <r_epik_Ionization_Penalty_Neutral>
0.000357989

> <r_epik_State_Penalty>
2.59896

> <r_epik_Charging_Adjusted_Penalty>
3.89105

> <i_epik_Tot_Q>
0

> <i_epik_Tot_abs_Q>
0

> <r_epik_Metal_State_Penalty>
3.62496

> <b_epik_Metal_Only>
0

> <s_lp_Force_Field>
OPLS_2005

> <r_lp_Energy>
41.2438

> <b_lp_Chiralities_Consistent>
1

> <s_lp_Variant>
AV-unprocessed.smi:2212-4

> <Gold.Version>
5.8.1

> <Gold.Id.Protein>
6NUR|6NUR_protein|mol2

> <Gold.PLP.Fitness>
35.0542

> <Gold.PLP.PLP>
-27.8376

> <Gold.PLP.part.hbond>
-3.7913

> <Gold.PLP.part.metal>
0.0000

> <Gold.PLP.part.buried>
-3.7426

> <Gold.PLP.part.nonpolar>
-19.7287

> <Gold.PLP.part.repulsive>
0.2229

> <Gold.PLP.ligand.clash>
0.0000

> <Gold.PLP.ligand.torsion>
0.2628

> <Gold.PLP.Chemscore.Hbond>
2.4860

> <Gold.PLP.Chemscore.CHOScore>
0.0000

> <Gold.PLP.Chemscore.Metal>
0.0000

> <Gold.Chemscore.Hbonds>
donor molecule, donor type, donor heavy atom, donor atom, acceptor molecule, acceptor atom, score
      P1  H  6896  6909       L1     7  0.32
      P1  H  6931  6943       L1    13  1.00
      P1  H  6934  6947       L1    13  0.53

> <Gold.PLP.Chemscore.Internal.Correction>
0.2841

> <Gold.Rescore>
     Score         DG    S(hbond)    S(metal)    S(lipo)     H(rot)  DE(clash)    DE(int)     intcor
     13.42     -14.16       1.83        0.00      57.93       1.64       0.53       0.21       ----

> <Gold.Chemscore.Fitness>
13.4215

> <Gold.Chemscore.DG>
-14.1555

> <Gold.Chemscore.ZeroCoef>
-5.4800

> <Gold.Chemscore.Hbond>
1.8261

> <Gold.Chemscore.Metal>
0.0000

> <Gold.Chemscore.Lipo>
57.9266

> <Gold.Chemscore.Internal_Hbond>
0.0000

> <Gold.Chemscore.DEClash>
0.5274

> <Gold.Chemscore.DEInternal>
0.2066

> <Gold.Chemscore.Rot>
1.6411

> <Gold.Chemscore.Internal.Correction>
   9.000000E+99

> <Gold.Chemscore.Hbonds>
donor molecule, donor type, donor heavy atom, donor atom, acceptor molecule, acceptor atom, score
      P1  H  6896  6909       L1     7  0.05
      P1  H  6931  6943       L1    13  0.29
      P1  H  6934  6947       L1    13  0.16

> <Gold.Chemscore.Hbond.Weighted>
-6.0992

> <Gold.Chemscore.Metal.Weighted>
-0.0000

> <Gold.Chemscore.Lipo.Weighted>
-6.7774

> <Gold.Chemscore.Internal_Hbond.Weighted>
0.0000

> <Gold.Chemscore.DEClash.Weighted>
0.5274

> <Gold.Chemscore.DEInternal.Weighted>
0.2066

> <Gold.Chemscore.Rot.Weighted>
4.2011

> <Gold.Chemscore.Internal.Correction.Weighted>
   9.000000E+99

> <Gold.Protein.RotatedTorsions>
[ 6907 6896 6895 6894 ] final   53.36 input  -60.11 | X-H torsion
[ 7974 7965 7964 7962 ] final   51.01 input  175.53 | X-H torsion
[ 8008 7997 7996 7995 ] final -108.89 input   59.86 | X-H torsion
[ 10167 10162 10161 10158 ] final  166.66 input  -65.29 | X-H torsion
[ 10718 10713 10712 10709 ] final   50.86 input   66.30 | X-H torsion
[ 10763 10752 10751 10750 ] final  130.15 input  -60.55 | X-H torsion
[ 11005 11000 10999 10996 ] final  -87.43 input  -57.11 | X-H torsion

> <Gold.Protein.ActiveResidues>
 VAL166  LYS551  ARG553  GLY616  TRP617  ASP618  TYR619  PRO620  LYS621  CYS622 
 ASP623  PHE694  ASN695  SER759  ASP760  ASP761  ALA762  ILE779  LEU786  VAL792 
 PHE793  MET794  SER795  GLU796  ALA797  LYS798  CYS799  TRP800  GLU811  SER814 

> <Gold.Protein.RotatedAtoms>
  152.3329  134.7236  160.0284 H   0  0  0  0  0  0  0  0  0  0  0  0  # atno 6907 bound_to 6896
  151.7647  133.3331  159.3435 H   0  0  0  0  0  0  0  0  0  0  0  0  # atno 6908 bound_to 6896
  150.7433  134.6006  159.6079 H   0  0  0  0  0  0  0  0  0  0  0  0  # atno 6909 bound_to 6896
  145.9956  139.4384  143.0047 H   0  0  0  0  0  0  0  0  0  0  0  0  # atno 7974 bound_to 7965
  154.9510  140.0401  157.2144 H   0  0  0  0  0  0  0  0  0  0  0  0  # atno 8008 bound_to 7997
  154.7978  140.2846  155.5922 H   0  0  0  0  0  0  0  0  0  0  0  0  # atno 8009 bound_to 7997
  156.2958  140.2561  156.2840 H   0  0  0  0  0  0  0  0  0  0  0  0  # atno 8010 bound_to 7997
  139.4929  144.4004  151.9416 H   0  0  0  0  0  0  0  0  0  0  0  0  # atno 10167 bound_to 10162
  157.4926  130.8385  149.8220 H   0  0  0  0  0  0  0  0  0  0  0  0  # atno 10718 bound_to 10713
  153.7534  135.3206  155.3325 H   0  0  0  0  0  0  0  0  0  0  0  0  # atno 10763 bound_to 10752
  154.8255  135.4573  154.0909 H   0  0  0  0  0  0  0  0  0  0  0  0  # atno 10764 bound_to 10752
  153.2119  135.6937  153.8187 H   0  0  0  0  0  0  0  0  0  0  0  0  # atno 10765 bound_to 10752
  141.1617  133.7511  156.9306 H   0  0  0  0  0  0  0  0  0  0  0  0  # atno 11005 bound_to 11000
  145.7565  140.9952  143.1222 LP  0  0  0  0  0  0  0  0  0  0  0  0  # atno 17320 bound_to 7965
  144.6902  139.9278  143.7470 LP  0  0  0  0  0  0  0  0  0  0  0  0  # atno 17321 bound_to 7965
  140.3443  144.3166  150.5961 LP  0  0  0  0  0  0  0  0  0  0  0  0  # atno 17342 bound_to 10162
  140.5540  143.2202  151.7879 LP  0  0  0  0  0  0  0  0  0  0  0  0  # atno 17343 bound_to 10162
  156.0182  130.3805  150.2044 LP  0  0  0  0  0  0  0  0  0  0  0  0  # atno 17370 bound_to 10713
  157.0233  130.9986  151.3333 LP  0  0  0  0  0  0  0  0  0  0  0  0  # atno 17371 bound_to 10713
  140.1389  134.9307  157.2439 LP  0  0  0  0  0  0  0  0  0  0  0  0  # atno 17394 bound_to 11000
  140.2861  134.3294  155.7328 LP  0  0  0  0  0  0  0  0  0  0  0  0  # atno 17395 bound_to 11000

$$$$
