AV-unprocessed.smi:3161|AV-procd|sdf|12062|dock7
  -GOLD-   2272017493D 1   1.00000     0.00000
 Structure written by MMmdl.
 40 41  0  0  0  0  0  0  0  0  1 V2000
  151.8949  145.8799  159.8239 C   0  0  0  0  0  0  0  0  0  0  0  0
  151.6463  144.5092  159.2635 C   0  0  0  0  0  0  0  0  0  0  0  0
  152.3491  143.3050  159.5517 C   0  0  0  0  0  0  0  0  0  0  0  0
  151.8773  142.2625  158.8886 N   0  0  0  0  0  0  0  0  0  0  0  0
  150.8645  142.7620  158.1482 N   0  0  0  0  0  0  0  0  0  0  0  0
  150.0999  141.8826  157.2779 C   0  0  0  0  0  0  0  0  0  0  0  0
  150.9675  141.0797  156.2748 C   0  0  1  0  0  0  0  0  0  0  0  0
  151.9796  140.1622  156.9786 C   0  0  0  0  0  0  0  0  0  0  0  0
  150.1733  140.2888  155.3282 N   0  0  0  0  0  0  0  0  0  0  0  0
  149.3479  141.0579  154.3985 C   0  0  0  0  0  0  0  0  0  0  0  0
  148.0703  141.5579  155.0869 C   0  0  1  0  0  0  0  0  0  0  0  0
  147.1019  142.2087  154.0803 C   0  0  0  0  0  0  0  0  0  0  0  0
  145.7940  142.6115  154.7713 C   0  0  0  0  0  0  0  0  0  0  0  0
  145.2086  141.4040  155.5104 C   0  0  0  0  0  0  0  0  0  0  0  0
  146.2650  140.7833  156.4379 C   0  0  0  0  0  0  0  0  0  0  0  0
  147.4242  140.4362  155.6870 O   0  0  0  0  0  0  0  0  0  0  0  0
  150.6996  144.1147  158.3610 C   0  0  0  0  0  0  0  0  0  0  0  0
  152.7266  145.8857  160.5288 H   0  0  0  0  0  0  0  0  0  0  0  0
  151.0223  146.2617  160.3542 H   0  0  0  0  0  0  0  0  0  0  0  0
  152.1349  146.5976  159.0391 H   0  0  0  0  0  0  0  0  0  0  0  0
  153.1834  143.1587  160.2219 H   0  0  0  0  0  0  0  0  0  0  0  0
  149.4827  141.2255  157.8905 H   0  0  0  0  0  0  0  0  0  0  0  0
  149.3949  142.5017  156.7217 H   0  0  0  0  0  0  0  0  0  0  0  0
  151.5475  141.8063  155.7045 H   0  0  0  0  0  0  0  0  0  0  0  0
  152.5898  140.7225  157.6874 H   0  0  0  0  0  0  0  0  0  0  0  0
  152.6554  139.7009  156.2580 H   0  0  0  0  0  0  0  0  0  0  0  0
  151.4850  139.3587  157.5253 H   0  0  0  0  0  0  0  0  0  0  0  0
  150.7856  139.6731  154.8021 H   0  0  0  0  0  0  0  0  0  0  0  0
  149.9073  141.9183  154.0326 H   0  0  0  0  0  0  0  0  0  0  0  0
  149.0871  140.4560  153.5271 H   0  0  0  0  0  0  0  0  0  0  0  0
  148.3340  142.2876  155.8553 H   0  0  0  0  0  0  0  0  0  0  0  0
  147.5645  143.0834  153.6217 H   0  0  0  0  0  0  0  0  0  0  0  0
  146.8866  141.5092  153.2715 H   0  0  0  0  0  0  0  0  0  0  0  0
  145.9855  143.4184  155.4797 H   0  0  0  0  0  0  0  0  0  0  0  0
  145.0800  142.9953  154.0422 H   0  0  0  0  0  0  0  0  0  0  0  0
  144.3290  141.7004  156.0824 H   0  0  0  0  0  0  0  0  0  0  0  0
  144.8761  140.6581  154.7872 H   0  0  0  0  0  0  0  0  0  0  0  0
  146.5313  141.4712  157.2419 H   0  0  0  0  0  0  0  0  0  0  0  0
  145.8682  139.8833  156.9077 H   0  0  0  0  0  0  0  0  0  0  0  0
  149.9314  144.6797  157.8537 H   0  0  0  0  0  0  0  0  0  0  0  0
  1  2  1  0  0  0  0
  1 18  1  0  0  0  0
  1 19  1  0  0  0  0
  1 20  1  0  0  0  0
  2 17  2  0  0  0  0
  2  3  1  0  0  0  0
  3  4  2  0  0  0  0
  3 21  1  0  0  0  0
  4  5  1  0  0  0  0
  5  6  1  0  0  0  0
  5 17  1  0  0  0  0
  6  7  1  0  0  0  0
  6 22  1  0  0  0  0
  6 23  1  0  0  0  0
  7  8  1  0  0  0  0
  7  9  1  0  0  0  0
  7 24  1  0  0  0  0
  8 25  1  0  0  0  0
  8 26  1  0  0  0  0
  8 27  1  0  0  0  0
  9 10  1  0  0  0  0
  9 28  1  0  0  0  0
 10 11  1  0  0  0  0
 10 29  1  0  0  0  0
 10 30  1  0  0  0  0
 11 16  1  0  0  0  0
 11 12  1  0  0  0  0
 11 31  1  0  0  0  0
 12 13  1  0  0  0  0
 12 32  1  0  0  0  0
 12 33  1  0  0  0  0
 13 14  1  0  0  0  0
 13 34  1  0  0  0  0
 13 35  1  0  0  0  0
 14 15  1  0  0  0  0
 14 36  1  0  0  0  0
 14 37  1  0  0  0  0
 15 16  1  0  0  0  0
 15 38  1  0  0  0  0
 15 39  1  0  0  0  0
 17 40  1  0  0  0  0
M  END
> <s_m_source_file>
AV-unprocessed.smi

> <i_m_source_file_index>
3161

> <i_lp_mmshare_version>
43012

> <i_f3d_flags>
0

> <s_epik_input>
W0NIM11jMVtjSF1ubihbY0hdMSlbQ0gyXVtDQEhdKFtDSDNdKVtOSF1bQ0gyXVtDQEBIXTJbQ0gyXVtDSDJdW0NIMl1bQ0gyXU8y

> <s_epik_cmdline>
J2VwaWtfcHl0aG9uJywgJy1waCcsICc3LjAnLCAnLXRuJywgJzgnLCAnLW1hJywgJzIwMCcsICctbWV0YWxfYmluZGluZycsICctaW1hZScsICc8aW5maWxlLm1hZT4nLCAnLW9tYWUnLCAnPG91dGZpbGUubWFlPic=

> <r_lp_tautomer_probability>
1

> <r_epik_Ionization_Penalty>
2.51986

> <r_epik_Ionization_Penalty_Charging>
0

> <r_epik_Ionization_Penalty_Neutral>
2.51986

> <r_epik_State_Penalty>
2.68614

> <r_epik_Charging_Adjusted_Penalty>
2.68614

> <i_epik_Tot_Q>
0

> <i_epik_Tot_abs_Q>
0

> <r_epik_Metal_State_Penalty>
2.68606

> <b_epik_Metal_Only>
0

> <s_lp_Force_Field>
OPLS_2005

> <r_lp_Energy>
14.0123

> <b_lp_Chiralities_Consistent>
1

> <s_lp_Variant>
AV-unprocessed.smi:3161-8

> <Gold.Version>
5.8.1

> <Gold.Id.Protein>
6NUR|6NUR_protein|mol2

> <Gold.PLP.Fitness>
39.0288

> <Gold.PLP.PLP>
-35.8576

> <Gold.PLP.part.hbond>
-0.0137

> <Gold.PLP.part.metal>
0.0000

> <Gold.PLP.part.buried>
-4.0059

> <Gold.PLP.part.nonpolar>
-32.7362

> <Gold.PLP.part.repulsive>
0.0273

> <Gold.PLP.ligand.clash>
0.0000

> <Gold.PLP.ligand.torsion>
0.1885

> <Gold.PLP.Chemscore.Hbond>
0.0000

> <Gold.PLP.Chemscore.CHOScore>
1.1653

> <Gold.PLP.Chemscore.Metal>
0.0000

> <Gold.Chemscore.Hbonds>
donor molecule, donor type, donor heavy atom, donor atom, acceptor molecule, acceptor atom, score
      L1  C    17    40       P1  8028  0.59
      L1  C    17    40       P1  8029  0.45

> <Gold.PLP.Chemscore.Internal.Correction>
0.0521

> <Gold.Rescore>
     Score         DG    S(hbond)    S(metal)    S(lipo)     H(rot)  DE(clash)    DE(int)     intcor
     10.94     -12.54       0.00        0.00      93.23       1.50       0.08       1.52       ----

> <Gold.Chemscore.Fitness>
10.9423

> <Gold.Chemscore.DG>
-12.5397

> <Gold.Chemscore.ZeroCoef>
-5.4800

> <Gold.Chemscore.Hbond>
0.0000

> <Gold.Chemscore.Metal>
0.0000

> <Gold.Chemscore.Lipo>
93.2262

> <Gold.Chemscore.Internal_Hbond>
0.0000

> <Gold.Chemscore.DEClash>
0.0785

> <Gold.Chemscore.DEInternal>
1.5189

> <Gold.Chemscore.Rot>
1.5030

> <Gold.Chemscore.Internal.Correction>
   9.000000E+99

> <Gold.Chemscore.Hbond.Weighted>
-0.0000

> <Gold.Chemscore.Metal.Weighted>
-0.0000

> <Gold.Chemscore.Lipo.Weighted>
-10.9075

> <Gold.Chemscore.Internal_Hbond.Weighted>
0.0000

> <Gold.Chemscore.DEClash.Weighted>
0.0785

> <Gold.Chemscore.DEInternal.Weighted>
1.5189

> <Gold.Chemscore.Rot.Weighted>
3.8477

> <Gold.Chemscore.Internal.Correction.Weighted>
   9.000000E+99

> <Gold.Protein.RotatedTorsions>
[ 6907 6896 6895 6894 ] final  -82.45 input  -60.11 | X-H torsion
[ 7974 7965 7964 7962 ] final -152.56 input  175.53 | X-H torsion
[ 8008 7997 7996 7995 ] final  -23.73 input   59.86 | X-H torsion
[ 10167 10162 10161 10158 ] final  -29.66 input  -65.29 | X-H torsion
[ 10718 10713 10712 10709 ] final   99.89 input   66.30 | X-H torsion
[ 10763 10752 10751 10750 ] final  -26.92 input  -60.55 | X-H torsion
[ 11005 11000 10999 10996 ] final -148.00 input  -57.11 | X-H torsion

> <Gold.Protein.ActiveResidues>
 VAL166  LYS551  ARG553  GLY616  TRP617  ASP618  TYR619  PRO620  LYS621  CYS622 
 ASP623  PHE694  ASN695  SER759  ASP760  ASP761  ALA762  ILE779  LEU786  VAL792 
 PHE793  MET794  SER795  GLU796  ALA797  LYS798  CYS799  TRP800  GLU811  SER814 

> <Gold.Protein.RotatedAtoms>
  150.6897  134.3662  159.4971 H   0  0  0  0  0  0  0  0  0  0  0  0  # atno 6907 bound_to 6896
  152.1484  134.9005  160.0559 H   0  0  0  0  0  0  0  0  0  0  0  0  # atno 6908 bound_to 6896
  152.0111  133.3827  159.4257 H   0  0  0  0  0  0  0  0  0  0  0  0  # atno 6909 bound_to 6896
  144.7787  140.4645  143.5854 H   0  0  0  0  0  0  0  0  0  0  0  0  # atno 7974 bound_to 7965
  154.4569  140.1973  156.0355 H   0  0  0  0  0  0  0  0  0  0  0  0  # atno 8008 bound_to 7997
  156.0763  140.3277  155.7610 H   0  0  0  0  0  0  0  0  0  0  0  0  # atno 8009 bound_to 7997
  155.5183  140.0567  157.2902 H   0  0  0  0  0  0  0  0  0  0  0  0  # atno 8010 bound_to 7997
  140.7258  143.3911  151.1428 H   0  0  0  0  0  0  0  0  0  0  0  0  # atno 10167 bound_to 10162
  157.6866  131.0683  150.5017 H   0  0  0  0  0  0  0  0  0  0  0  0  # atno 10718 bound_to 10713
  153.7238  135.6943  153.5006 H   0  0  0  0  0  0  0  0  0  0  0  0  # atno 10763 bound_to 10752
  153.2185  135.4378  155.0461 H   0  0  0  0  0  0  0  0  0  0  0  0  # atno 10764 bound_to 10752
  154.8276  135.3454  154.6770 H   0  0  0  0  0  0  0  0  0  0  0  0  # atno 10765 bound_to 10752
  140.7658  134.3245  157.5089 H   0  0  0  0  0  0  0  0  0  0  0  0  # atno 11005 bound_to 11000
  145.6110  139.1513  143.3075 LP  0  0  0  0  0  0  0  0  0  0  0  0  # atno 17320 bound_to 7965
  146.1983  140.6226  142.9114 LP  0  0  0  0  0  0  0  0  0  0  0  0  # atno 17321 bound_to 7965
  139.7516  143.8770  152.3078 LP  0  0  0  0  0  0  0  0  0  0  0  0  # atno 17342 bound_to 10162
  139.8625  144.7110  150.9082 LP  0  0  0  0  0  0  0  0  0  0  0  0  # atno 17343 bound_to 10162
  156.5339  130.4191  149.6188 LP  0  0  0  0  0  0  0  0  0  0  0  0  # atno 17370 bound_to 10713
  156.3045  130.7195  151.2074 LP  0  0  0  0  0  0  0  0  0  0  0  0  # atno 17371 bound_to 10713
  139.8763  134.9230  156.3315 LP  0  0  0  0  0  0  0  0  0  0  0  0  # atno 17394 bound_to 11000
  140.9620  133.7382  156.0414 LP  0  0  0  0  0  0  0  0  0  0  0  0  # atno 17395 bound_to 11000

$$$$
