AV-unprocessed.smi:11|AV-procd|sdf|59|dock4
  -GOLD-   2262015173D 1   1.00000     0.00000
 Structure written by MMmdl.
 33 35  0  0  0  0  0  0  0  0  1 V2000
  154.0135  137.6033  161.0749 C   0  0  0  0  0  0  0  0  0  0  0  0
  153.1236  138.1817  159.9615 C   0  0  0  0  0  0  0  0  0  0  0  0
  153.8421  139.1244  158.9638 C   0  0  1  0  0  0  0  0  0  0  0  0
  154.9842  138.4618  158.4565 O   0  0  0  0  0  0  0  0  0  0  0  0
  152.9211  139.5266  157.8045 C   0  0  0  0  0  0  0  0  0  0  0  0
  152.1892  140.7504  158.3498 C   0  0  0  0  0  0  0  0  0  0  0  0
  153.1586  141.4143  159.2114 N   0  0  0  0  0  0  0  0  0  0  0  0
  152.7439  142.4140  160.1173 C   0  0  0  0  0  0  0  0  0  0  0  0
  153.1227  142.3015  161.4164 N   0  0  0  0  0  0  0  0  0  0  0  0
  152.7250  143.2702  162.2795 C   0  0  0  0  0  0  0  0  0  0  0  0
  151.9722  144.3655  162.0137 N   0  0  0  0  0  0  0  0  0  0  0  0
  151.5648  144.4920  160.7162 C   0  0  0  0  0  0  0  0  0  0  0  0
  150.8105  145.4513  160.1900 N   0  0  0  0  0  0  0  0  0  0  0  0
  150.6588  145.1414  158.8917 C   0  0  0  0  0  0  0  0  0  0  0  0
  151.3357  143.9199  158.5120 C   0  0  0  0  0  0  0  0  0  0  0  0
  151.9367  143.5269  159.7482 C   0  0  0  0  0  0  0  0  0  0  0  0
  154.2237  140.4869  159.5737 C   0  0  0  0  0  0  0  0  0  0  0  0
  153.4375  136.9320  161.7118 H   0  0  0  0  0  0  0  0  0  0  0  0
  154.4257  138.3822  161.7153 H   0  0  0  0  0  0  0  0  0  0  0  0
  154.8449  137.0294  160.6657 H   0  0  0  0  0  0  0  0  0  0  0  0
  152.6831  137.3495  159.4109 H   0  0  0  0  0  0  0  0  0  0  0  0
  152.2870  138.7063  160.4248 H   0  0  0  0  0  0  0  0  0  0  0  0
  154.6983  137.7853  157.8617 H   0  0  0  0  0  0  0  0  0  0  0  0
  153.5111  139.8246  156.9360 H   0  0  0  0  0  0  0  0  0  0  0  0
  152.2439  138.7329  157.4867 H   0  0  0  0  0  0  0  0  0  0  0  0
  151.8498  141.4082  157.5494 H   0  0  0  0  0  0  0  0  0  0  0  0
  151.3194  140.4381  158.9293 H   0  0  0  0  0  0  0  0  0  0  0  0
  153.0477  143.1532  163.3035 H   0  0  0  0  0  0  0  0  0  0  0  0
  150.0740  145.7687  158.2302 H   0  0  0  0  0  0  0  0  0  0  0  0
  151.3678  143.4413  157.5419 H   0  0  0  0  0  0  0  0  0  0  0  0
  154.3689  140.4294  160.6517 H   0  0  0  0  0  0  0  0  0  0  0  0
  155.1497  140.8566  159.1315 H   0  0  0  0  0  0  0  0  0  0  0  0
  151.7482  145.0086  162.7595 H   0  0  0  0  0  0  0  0  0  0  0  0
  1  2  1  0  0  0  0
  1 18  1  0  0  0  0
  1 19  1  0  0  0  0
  1 20  1  0  0  0  0
  2  3  1  0  0  0  0
  2 21  1  0  0  0  0
  2 22  1  0  0  0  0
  3 17  1  0  0  0  0
  3  4  1  0  0  0  0
  3  5  1  0  0  0  0
  4 23  1  0  0  0  0
  5  6  1  0  0  0  0
  5 24  1  0  0  0  0
  5 25  1  0  0  0  0
  6  7  1  0  0  0  0
  6 26  1  0  0  0  0
  6 27  1  0  0  0  0
  7  8  1  0  0  0  0
  7 17  1  0  0  0  0
  8 16  2  0  0  0  0
  8  9  1  0  0  0  0
  9 10  2  0  0  0  0
 10 11  1  0  0  0  0
 10 28  1  0  0  0  0
 11 12  1  0  0  0  0
 11 33  1  0  0  0  0
 12 16  1  0  0  0  0
 12 13  2  0  0  0  0
 13 14  1  0  0  0  0
 14 15  2  0  0  0  0
 14 29  1  0  0  0  0
 15 16  1  0  0  0  0
 15 30  1  0  0  0  0
 17 31  1  0  0  0  0
 17 32  1  0  0  0  0
M  END
> <s_m_source_file>
AV-unprocessed.smi

> <i_m_source_file_index>
11

> <i_lp_mmshare_version>
43012

> <i_f3d_flags>
0

> <s_epik_input>
W0NIM11bQ0gyXVtDQEBdMShbT0hdKVtDSDJdW0NIMl1OKFtDSDJdMSljKG5bY0hdbjIpYyhjMjMpW2NIXVtjSF1bbkhdMw==

> <s_epik_cmdline>
J2VwaWtfcHl0aG9uJywgJy1waCcsICc3LjAnLCAnLXRuJywgJzgnLCAnLW1hJywgJzIwMCcsICctbWV0YWxfYmluZGluZycsICctaW1hZScsICc8aW5maWxlLm1hZT4nLCAnLW9tYWUnLCAnPG91dGZpbGUubWFlPic=

> <r_lp_tautomer_probability>
1.75997e-05

> <r_epik_Ionization_Penalty>
5.31594

> <r_epik_Ionization_Penalty_Charging>
0

> <r_epik_Ionization_Penalty_Neutral>
5.31594

> <r_epik_State_Penalty>
7.79803

> <r_epik_Charging_Adjusted_Penalty>
7.79803

> <i_epik_Tot_Q>
0

> <i_epik_Tot_abs_Q>
0

> <r_epik_Metal_State_Penalty>
4.83511

> <b_epik_Metal_Only>
1

> <s_lp_Force_Field>
OPLS_2005

> <r_lp_Energy>
41.5281

> <b_lp_Chiralities_Consistent>
1

> <s_lp_Variant>
AV-unprocessed.smi:11-5

> <Gold.Version>
5.8.1

> <Gold.Id.Protein>
6NUR|6NUR_protein|mol2

> <Gold.PLP.Fitness>
42.5002

> <Gold.PLP.PLP>
-38.9948

> <Gold.PLP.part.hbond>
-2.7590

> <Gold.PLP.part.metal>
0.0000

> <Gold.PLP.part.buried>
-5.0585

> <Gold.PLP.part.nonpolar>
-30.7698

> <Gold.PLP.part.repulsive>
0.3087

> <Gold.PLP.ligand.clash>
0.0000

> <Gold.PLP.ligand.torsion>
0.5573

> <Gold.PLP.Chemscore.Hbond>
0.4368

> <Gold.PLP.Chemscore.CHOScore>
0.9988

> <Gold.PLP.Chemscore.Metal>
0.0000

> <Gold.Chemscore.Hbonds>
donor molecule, donor type, donor heavy atom, donor atom, acceptor molecule, acceptor atom, score
      P1  H  7997  8008       L1     4  0.35
      L1  C    14    29       P1  8029  1.00

> <Gold.PLP.Chemscore.Internal.Correction>
0.3132

> <Gold.Rescore>
     Score         DG    S(hbond)    S(metal)    S(lipo)     H(rot)  DE(clash)    DE(int)     intcor
      8.96      -9.94       0.04        0.00      68.26       1.43       0.52       0.47       ----

> <Gold.Chemscore.Fitness>
8.9585

> <Gold.Chemscore.DG>
-9.9418

> <Gold.Chemscore.ZeroCoef>
-5.4800

> <Gold.Chemscore.Hbond>
0.0396

> <Gold.Chemscore.Metal>
0.0000

> <Gold.Chemscore.Lipo>
68.2570

> <Gold.Chemscore.Internal_Hbond>
0.0000

> <Gold.Chemscore.DEClash>
0.5169

> <Gold.Chemscore.DEInternal>
0.4664

> <Gold.Chemscore.Rot>
1.4283

> <Gold.Chemscore.Internal.Correction>
   9.000000E+99

> <Gold.Chemscore.Hbond.Weighted>
-0.1323

> <Gold.Chemscore.Metal.Weighted>
-0.0000

> <Gold.Chemscore.Lipo.Weighted>
-7.9861

> <Gold.Chemscore.Internal_Hbond.Weighted>
0.0000

> <Gold.Chemscore.DEClash.Weighted>
0.5169

> <Gold.Chemscore.DEInternal.Weighted>
0.4664

> <Gold.Chemscore.Rot.Weighted>
3.6566

> <Gold.Chemscore.Internal.Correction.Weighted>
   9.000000E+99

> <Gold.Protein.RotatedTorsions>
[ 6907 6896 6895 6894 ] final   51.45 input  -60.11 | X-H torsion
[ 7974 7965 7964 7962 ] final   77.17 input  175.53 | X-H torsion
[ 8008 7997 7996 7995 ] final -127.39 input   59.86 | X-H torsion
[ 10167 10162 10161 10158 ] final   99.83 input  -65.29 | X-H torsion
[ 10718 10713 10712 10709 ] final -116.18 input   66.30 | X-H torsion
[ 10763 10752 10751 10750 ] final -144.56 input  -60.55 | X-H torsion
[ 11005 11000 10999 10996 ] final  -47.15 input  -57.11 | X-H torsion

> <Gold.Protein.ActiveResidues>
 VAL166  LYS551  ARG553  GLY616  TRP617  ASP618  TYR619  PRO620  LYS621  CYS622 
 ASP623  PHE694  ASN695  SER759  ASP760  ASP761  ALA762  ILE779  LEU786  VAL792 
 PHE793  MET794  SER795  GLU796  ALA797  LYS798  CYS799  TRP800  GLU811  SER814 

> <Gold.Protein.RotatedAtoms>
  152.3127  134.7477  160.0332 H   0  0  0  0  0  0  0  0  0  0  0  0  # atno 6907 bound_to 6896
  151.7952  133.3358  159.3519 H   0  0  0  0  0  0  0  0  0  0  0  0  # atno 6908 bound_to 6896
  150.7329  134.5735  159.5947 H   0  0  0  0  0  0  0  0  0  0  0  0  # atno 6909 bound_to 6896
  145.6934  139.2559  143.1746 H   0  0  0  0  0  0  0  0  0  0  0  0  # atno 7974 bound_to 7965
  155.2454  140.0430  157.2980 H   0  0  0  0  0  0  0  0  0  0  0  0  # atno 8008 bound_to 7997
  154.5802  140.2398  155.8035 H   0  0  0  0  0  0  0  0  0  0  0  0  # atno 8009 bound_to 7997
  156.2187  140.2976  155.9909 H   0  0  0  0  0  0  0  0  0  0  0  0  # atno 8010 bound_to 7997
  139.7581  144.6963  151.0332 H   0  0  0  0  0  0  0  0  0  0  0  0  # atno 10167 bound_to 10162
  156.0946  130.6121  150.9002 H   0  0  0  0  0  0  0  0  0  0  0  0  # atno 10718 bound_to 10713
  154.8422  135.3437  154.6366 H   0  0  0  0  0  0  0  0  0  0  0  0  # atno 10763 bound_to 10752
  153.6976  135.6971  153.5077 H   0  0  0  0  0  0  0  0  0  0  0  0  # atno 10764 bound_to 10752
  153.2547  135.4342  155.0788 H   0  0  0  0  0  0  0  0  0  0  0  0  # atno 10765 bound_to 10752
  141.0623  133.6705  156.3257 H   0  0  0  0  0  0  0  0  0  0  0  0  # atno 11005 bound_to 11000
  146.0861  140.7709  142.9618 LP  0  0  0  0  0  0  0  0  0  0  0  0  # atno 17320 bound_to 7965
  144.6990  140.3565  143.7172 LP  0  0  0  0  0  0  0  0  0  0  0  0  # atno 17321 bound_to 7965
  140.7804  143.4729  151.0122 LP  0  0  0  0  0  0  0  0  0  0  0  0  # atno 17342 bound_to 10162
  139.8415  143.7557  152.3180 LP  0  0  0  0  0  0  0  0  0  0  0  0  # atno 17343 bound_to 10162
  157.6103  131.0936  150.8806 LP  0  0  0  0  0  0  0  0  0  0  0  0  # atno 17370 bound_to 10713
  156.8947  130.5225  149.5285 LP  0  0  0  0  0  0  0  0  0  0  0  0  # atno 17371 bound_to 10713
  140.5843  134.5714  157.5486 LP  0  0  0  0  0  0  0  0  0  0  0  0  # atno 17394 bound_to 11000
  139.9444  134.7728  156.0598 LP  0  0  0  0  0  0  0  0  0  0  0  0  # atno 17395 bound_to 11000

$$$$
