AV-unprocessed.smi:1118|AV-procd|sdf|4815|dock10
  -GOLD-   22720 3373D 1   1.00000     0.00000
 Structure written by MMmdl.
 45 46  0  0  0  0  0  0  0  0  2 V2000
  149.9981  132.6840  155.0099 C   0  0  0  0  0  0  0  0  0  0  0  0
  148.9891  133.6776  154.9576 O   0  0  0  0  0  0  0  0  0  0  0  0
  149.5164  134.9771  154.7467 C   0  0  0  0  0  0  0  0  0  0  0  0
  148.3882  136.0066  154.9134 C   0  0  0  0  0  0  0  0  0  0  0  0
  148.7610  137.3506  154.4031 N   0  3  2  0  0  0  0  0  0  0  0  0
  149.9561  137.8978  155.0948 C   0  0  0  0  0  0  0  0  0  0  0  0
  150.4080  139.2199  154.4537 C   0  0  0  0  0  0  0  0  0  0  0  0
  149.2817  140.2747  154.4559 C   0  0  2  0  0  0  0  0  0  0  0  0
  148.9557  140.8643  155.8487 C   0  0  0  0  0  0  0  0  0  0  0  0
  149.8275  141.9868  156.1772 N   0  0  0  0  0  0  0  0  0  0  0  0
  150.9283  141.9208  156.9428 C   0  0  0  0  0  0  0  0  0  0  0  0
  151.2861  140.9055  157.5399 O   0  0  0  0  0  0  0  0  0  0  0  0
  151.7815  143.1865  157.0101 C   0  0  0  0  0  0  0  0  0  0  0  0
  151.8955  143.6479  158.3820 N   0  0  0  0  0  0  0  0  0  0  0  0
  151.2906  144.7386  158.9716 C   0  0  0  0  0  0  0  0  0  0  0  0
  151.6783  144.7602  160.2807 C   0  0  0  0  0  0  0  0  0  0  0  0
  152.5301  143.6267  160.4001 C   0  0  0  0  0  0  0  0  0  0  0  0
  152.6577  142.9622  159.2628 N   0  0  0  0  0  0  0  0  0  0  0  0
  148.0402  139.6652  153.7784 C   0  0  0  0  0  0  0  0  0  0  0  0
  147.6312  138.3187  154.4064 C   0  0  0  0  0  0  0  0  0  0  0  0
  149.5433  131.7078  155.1788 H   0  0  0  0  0  0  0  0  0  0  0  0
  150.6984  132.8745  155.8245 H   0  0  0  0  0  0  0  0  0  0  0  0
  150.5553  132.6378  154.0732 H   0  0  0  0  0  0  0  0  0  0  0  0
  150.3445  135.1726  155.4283 H   0  0  0  0  0  0  0  0  0  0  0  0
  149.9171  135.0448  153.7341 H   0  0  0  0  0  0  0  0  0  0  0  0
  147.4812  135.6638  154.4133 H   0  0  0  0  0  0  0  0  0  0  0  0
  148.1462  136.0696  155.9751 H   0  0  0  0  0  0  0  0  0  0  0  0
  149.7378  138.0375  156.1544 H   0  0  0  0  0  0  0  0  0  0  0  0
  150.7750  137.1801  155.0352 H   0  0  0  0  0  0  0  0  0  0  0  0
  151.3025  139.5940  154.9516 H   0  0  0  0  0  0  0  0  0  0  0  0
  150.7098  139.0254  153.4237 H   0  0  0  0  0  0  0  0  0  0  0  0
  149.6164  141.1081  153.8362 H   0  0  0  0  0  0  0  0  0  0  0  0
  147.9294  141.2325  155.8563 H   0  0  0  0  0  0  0  0  0  0  0  0
  149.0009  140.0961  156.6210 H   0  0  0  0  0  0  0  0  0  0  0  0
  149.6201  142.8684  155.7298 H   0  0  0  0  0  0  0  0  0  0  0  0
  152.7774  143.0030  156.6032 H   0  0  0  0  0  0  0  0  0  0  0  0
  151.3266  143.9741  156.4079 H   0  0  0  0  0  0  0  0  0  0  0  0
  150.6400  145.3991  158.4169 H   0  0  0  0  0  0  0  0  0  0  0  0
  151.3955  145.4762  161.0382 H   0  0  0  0  0  0  0  0  0  0  0  0
  153.0550  143.2689  161.2735 H   0  0  0  0  0  0  0  0  0  0  0  0
  147.2054  140.3656  153.8185 H   0  0  0  0  0  0  0  0  0  0  0  0
  148.2514  139.5101  152.7195 H   0  0  0  0  0  0  0  0  0  0  0  0
  146.7904  137.9169  153.8427 H   0  0  0  0  0  0  0  0  0  0  0  0
  147.2771  138.4645  155.4275 H   0  0  0  0  0  0  0  0  0  0  0  0
  149.0344  137.2206  153.4391 H   0  0  0  0  0  0  0  0  0  0  0  0
  1  2  1  0  0  0  0
  1 21  1  0  0  0  0
  1 22  1  0  0  0  0
  1 23  1  0  0  0  0
  2  3  1  0  0  0  0
  3  4  1  0  0  0  0
  3 24  1  0  0  0  0
  3 25  1  0  0  0  0
  4  5  1  0  0  0  0
  4 26  1  0  0  0  0
  4 27  1  0  0  0  0
  5 20  1  0  0  0  0
  5  6  1  0  0  0  0
  5 45  1  0  0  0  0
  6  7  1  0  0  0  0
  6 28  1  0  0  0  0
  6 29  1  0  0  0  0
  7  8  1  0  0  0  0
  7 30  1  0  0  0  0
  7 31  1  0  0  0  0
  8  9  1  0  0  0  0
  8 19  1  0  0  0  0
  8 32  1  0  0  0  0
  9 10  1  0  0  0  0
  9 33  1  0  0  0  0
  9 34  1  0  0  0  0
 10 11  1  0  0  0  0
 10 35  1  0  0  0  0
 11 12  2  0  0  0  0
 11 13  1  0  0  0  0
 13 14  1  0  0  0  0
 13 36  1  0  0  0  0
 13 37  1  0  0  0  0
 14 18  1  0  0  0  0
 14 15  1  0  0  0  0
 15 16  2  0  0  0  0
 15 38  1  0  0  0  0
 16 17  1  0  0  0  0
 16 39  1  0  0  0  0
 17 18  2  0  0  0  0
 17 40  1  0  0  0  0
 19 20  1  0  0  0  0
 19 41  1  0  0  0  0
 19 42  1  0  0  0  0
 20 43  1  0  0  0  0
 20 44  1  0  0  0  0
M  CHG  1   5   1
M  END
> <s_m_source_file>
AV-unprocessed.smi

> <i_m_source_file_index>
1118

> <i_lp_mmshare_version>
43012

> <i_f3d_flags>
0

> <s_epik_input>
W0NIM11PW0NIMl1bQ0gyXU4xW0NIMl1bQ0gyXVtDSF0oW0NIMl1bQ0gyXTEpW0NIMl1bTkhdQyg9TylbQ0gyXW4yW2NIXVtjSF1bY0hdbjI=

> <s_epik_cmdline>
J2VwaWtfcHl0aG9uJywgJy1waCcsICc3LjAnLCAnLXRuJywgJzgnLCAnLW1hJywgJzIwMCcsICctbWV0YWxfYmluZGluZycsICctaW1hZScsICc8aW5maWxlLm1hZT4nLCAnLW9tYWUnLCAnPG91dGZpbGUubWFlPic=

> <r_lp_tautomer_probability>
1

> <r_epik_Ionization_Penalty>
0.00991549

> <r_epik_Ionization_Penalty_Charging>
0.00990284

> <r_epik_Ionization_Penalty_Neutral>
1.26554e-05

> <r_epik_State_Penalty>
0.00754525

> <r_epik_Charging_Adjusted_Penalty>
0.0174481

> <i_epik_Tot_Q>
1

> <i_epik_Tot_abs_Q>
1

> <r_epik_Metal_State_Penalty>
0.00754527

> <b_epik_Metal_Only>
0

> <s_lp_Force_Field>
OPLS_2005

> <r_lp_Energy>
20.3216

> <b_lp_Chiralities_Consistent>
1

> <s_lp_Variant>
AV-unprocessed.smi:1118-2

> <Gold.Version>
5.8.1

> <Gold.Id.Protein>
6NUR|6NUR_protein|mol2

> <Gold.PLP.Fitness>
47.4899

> <Gold.PLP.PLP>
-36.7788

> <Gold.PLP.part.hbond>
-2.0000

> <Gold.PLP.part.metal>
0.0000

> <Gold.PLP.part.buried>
-3.6650

> <Gold.PLP.part.nonpolar>
-31.7495

> <Gold.PLP.part.repulsive>
0.1923

> <Gold.PLP.ligand.clash>
0.0000

> <Gold.PLP.ligand.torsion>
0.7046

> <Gold.PLP.Chemscore.Hbond>
2.9920

> <Gold.PLP.Chemscore.CHOScore>
0.9961

> <Gold.PLP.Chemscore.Metal>
0.0000

> <Gold.Chemscore.Hbonds>
donor molecule, donor type, donor heavy atom, donor atom, acceptor molecule, acceptor atom, score
      L1  H     5    45       P1  7948  2.00
      L1  H    10    35       P1  8028  1.00

> <Gold.PLP.Chemscore.Internal.Correction>
0.1561

> <Gold.Rescore>
     Score         DG    S(hbond)    S(metal)    S(lipo)     H(rot)  DE(clash)    DE(int)     intcor
     15.47     -17.22       1.98        0.00      92.35       2.22       1.00       0.74       ----

> <Gold.Chemscore.Fitness>
15.4717

> <Gold.Chemscore.DG>
-17.2187

> <Gold.Chemscore.ZeroCoef>
-5.4800

> <Gold.Chemscore.Hbond>
1.9786

> <Gold.Chemscore.Metal>
0.0000

> <Gold.Chemscore.Lipo>
92.3468

> <Gold.Chemscore.Internal_Hbond>
0.0000

> <Gold.Chemscore.DEClash>
1.0025

> <Gold.Chemscore.DEInternal>
0.7445

> <Gold.Chemscore.Rot>
2.2166

> <Gold.Chemscore.Internal.Correction>
   9.000000E+99

> <Gold.Chemscore.Hbonds>
donor molecule, donor type, donor heavy atom, donor atom, acceptor molecule, acceptor atom, score
      L1  H     5    45       P1  7948  0.95
      L1  H    10    35       P1  8028  0.95

> <Gold.Chemscore.Hbond.Weighted>
-6.6086

> <Gold.Chemscore.Metal.Weighted>
-0.0000

> <Gold.Chemscore.Lipo.Weighted>
-10.8046

> <Gold.Chemscore.Internal_Hbond.Weighted>
0.0000

> <Gold.Chemscore.DEClash.Weighted>
1.0025

> <Gold.Chemscore.DEInternal.Weighted>
0.7445

> <Gold.Chemscore.Rot.Weighted>
5.6745

> <Gold.Chemscore.Internal.Correction.Weighted>
   9.000000E+99

> <Gold.Protein.RotatedTorsions>
[ 6907 6896 6895 6894 ] final  157.31 input  -60.11 | X-H torsion
[ 7974 7965 7964 7962 ] final  -99.49 input  175.53 | X-H torsion
[ 8008 7997 7996 7995 ] final   11.72 input   59.86 | X-H torsion
[ 10167 10162 10161 10158 ] final  108.37 input  -65.29 | X-H torsion
[ 10718 10713 10712 10709 ] final  -61.33 input   66.30 | X-H torsion
[ 10763 10752 10751 10750 ] final  -69.73 input  -60.55 | X-H torsion
[ 11005 11000 10999 10996 ] final  116.24 input  -57.11 | X-H torsion

> <Gold.Protein.ActiveResidues>
 VAL166  LYS551  ARG553  GLY616  TRP617  ASP618  TYR619  PRO620  LYS621  CYS622 
 ASP623  PHE694  ASN695  SER759  ASP760  ASP761  ALA762  ILE779  LEU786  VAL792 
 PHE793  MET794  SER795  GLU796  ALA797  LYS798  CYS799  TRP800  GLU811  SER814 

> <Gold.Protein.RotatedAtoms>
  152.0169  133.3883  159.4242 H   0  0  0  0  0  0  0  0  0  0  0  0  # atno 6907 bound_to 6896
  150.6894  134.3668  159.4984 H   0  0  0  0  0  0  0  0  0  0  0  0  # atno 6908 bound_to 6896
  152.1437  134.9042  160.0603 H   0  0  0  0  0  0  0  0  0  0  0  0  # atno 6909 bound_to 6896
  145.3069  140.9391  143.2791 H   0  0  0  0  0  0  0  0  0  0  0  0  # atno 7974 bound_to 7965
  154.8108  140.2868  155.5854 H   0  0  0  0  0  0  0  0  0  0  0  0  # atno 8008 bound_to 7997
  156.2988  140.2568  156.2926 H   0  0  0  0  0  0  0  0  0  0  0  0  # atno 8009 bound_to 7997
  154.9449  140.0380  157.2105 H   0  0  0  0  0  0  0  0  0  0  0  0  # atno 8010 bound_to 7997
  139.6851  144.7114  151.1446 H   0  0  0  0  0  0  0  0  0  0  0  0  # atno 10167 bound_to 10162
  156.0929  130.4197  150.0979 H   0  0  0  0  0  0  0  0  0  0  0  0  # atno 10718 bound_to 10713
  154.4076  135.6016  153.5933 H   0  0  0  0  0  0  0  0  0  0  0  0  # atno 10763 bound_to 10752
  152.9789  135.5921  154.4109 H   0  0  0  0  0  0  0  0  0  0  0  0  # atno 10764 bound_to 10752
  154.3917  135.2842  155.2129 H   0  0  0  0  0  0  0  0  0  0  0  0  # atno 10765 bound_to 10752
  139.9035  134.9595  156.7167 H   0  0  0  0  0  0  0  0  0  0  0  0  # atno 11005 bound_to 11000
  144.9047  139.4604  143.6615 LP  0  0  0  0  0  0  0  0  0  0  0  0  # atno 17320 bound_to 7965
  146.3132  139.7822  142.9004 LP  0  0  0  0  0  0  0  0  0  0  0  0  # atno 17321 bound_to 7965
  140.7665  143.5641  150.9067 LP  0  0  0  0  0  0  0  0  0  0  0  0  # atno 17342 bound_to 10162
  139.9315  143.6488  152.3075 LP  0  0  0  0  0  0  0  0  0  0  0  0  # atno 17343 bound_to 10162
  156.8985  130.9612  151.3579 LP  0  0  0  0  0  0  0  0  0  0  0  0  # atno 17370 bound_to 10713
  157.6083  130.8564  149.8910 LP  0  0  0  0  0  0  0  0  0  0  0  0  # atno 17371 bound_to 10713
  140.7033  133.9287  155.8038 LP  0  0  0  0  0  0  0  0  0  0  0  0  # atno 17394 bound_to 11000
  141.0355  134.0695  157.3964 LP  0  0  0  0  0  0  0  0  0  0  0  0  # atno 17395 bound_to 11000

$$$$
