AV-unprocessed.smi:266|AV-procd|sdf|2031|dock9
  -GOLD-   2262021243D 1   1.00000     0.00000
 Structure written by MMmdl.
 52 55  0  0  0  0  0  0  0  0  1 V2000
  152.9343  143.9230  158.7085 C   0  0  0  0  0  0  0  0  0  0  0  0
  151.5229  143.8800  158.1024 C   0  0  2  0  0  0  0  0  0  0  0  0
  150.5974  144.2085  159.1351 O   0  0  0  0  0  0  0  0  0  0  0  0
  149.3707  143.5487  158.8766 C   0  0  0  0  0  0  0  0  0  0  0  0
  149.8315  142.1829  158.3919 C   0  0  0  0  0  0  0  0  0  0  0  0
  151.0456  142.5157  157.5275 C   0  0  1  0  0  0  0  0  0  0  0  0
  150.5842  142.7452  156.2061 O   0  0  0  0  0  0  0  0  0  0  0  0
  152.1005  141.3789  157.4724 C   0  0  0  0  0  0  0  0  0  0  0  0
  151.5086  140.0513  157.4016 N   0  0  0  0  0  0  0  0  0  0  0  0
  151.2230  139.2171  158.4574 C   0  0  0  0  0  0  0  0  0  0  0  0
  150.7096  138.0639  158.1296 N   0  0  0  0  0  0  0  0  0  0  0  0
  150.6319  138.1008  156.7415 C   0  0  0  0  0  0  0  0  0  0  0  0
  150.1929  137.1850  155.7394 C   0  0  0  0  0  0  0  0  0  0  0  0
  149.7643  135.9191  155.9993 N   0  0  0  0  0  0  0  0  0  0  0  0
  150.0299  134.8861  155.0011 C   0  0  0  0  0  0  0  0  0  0  0  0
  149.6712  135.4915  157.3967 C   0  0  0  0  0  0  0  0  0  0  0  0
  148.2775  135.7155  158.0234 C   0  0  2  0  0  0  0  0  0  0  0  0
  147.8436  137.1914  157.9283 C   0  0  0  0  0  0  0  0  0  0  0  0
  146.5984  137.3962  158.7956 C   0  0  0  0  0  0  0  0  0  0  0  0
  146.8211  136.2893  160.2354 S   0  0  0  0  0  0  0  0  0  0  0  0
  147.3466  137.0618  161.3713 O   0  0  0  0  0  0  0  0  0  0  0  0
  145.6261  135.4444  160.3812 O   0  0  0  0  0  0  0  0  0  0  0  0
  148.1845  135.3066  159.5058 C   0  0  0  0  0  0  0  0  0  0  0  0
  150.2381  137.6133  154.4487 N   0  0  0  0  0  0  0  0  0  0  0  0
  150.7008  138.8297  154.1498 C   0  0  0  0  0  0  0  0  0  0  0  0
  151.1650  139.7693  154.9735 N   0  0  0  0  0  0  0  0  0  0  0  0
  151.1093  139.3585  156.2721 C   0  0  0  0  0  0  0  0  0  0  0  0
  153.6948  143.6844  157.9648 H   0  0  0  0  0  0  0  0  0  0  0  0
  153.0355  143.2239  159.5389 H   0  0  0  0  0  0  0  0  0  0  0  0
  153.1563  144.9185  159.0936 H   0  0  0  0  0  0  0  0  0  0  0  0
  151.4534  144.6589  157.3407 H   0  0  0  0  0  0  0  0  0  0  0  0
  148.7464  143.4930  159.7684 H   0  0  0  0  0  0  0  0  0  0  0  0
  148.8200  144.0792  158.0982 H   0  0  0  0  0  0  0  0  0  0  0  0
  150.1369  141.5931  159.2569 H   0  0  0  0  0  0  0  0  0  0  0  0
  149.0532  141.6258  157.8677 H   0  0  0  0  0  0  0  0  0  0  0  0
  150.0580  143.5300  156.2044 H   0  0  0  0  0  0  0  0  0  0  0  0
  152.7589  141.5067  156.6121 H   0  0  0  0  0  0  0  0  0  0  0  0
  152.7384  141.4066  158.3558 H   0  0  0  0  0  0  0  0  0  0  0  0
  151.4183  139.4882  159.4848 H   0  0  0  0  0  0  0  0  0  0  0  0
  149.7154  135.2131  154.0093 H   0  0  0  0  0  0  0  0  0  0  0  0
  149.4818  133.9737  155.2368 H   0  0  0  0  0  0  0  0  0  0  0  0
  151.0923  134.6425  154.9658 H   0  0  0  0  0  0  0  0  0  0  0  0
  149.9798  134.4568  157.5253 H   0  0  0  0  0  0  0  0  0  0  0  0
  150.4035  136.0721  157.9587 H   0  0  0  0  0  0  0  0  0  0  0  0
  147.5397  135.1342  157.4686 H   0  0  0  0  0  0  0  0  0  0  0  0
  148.6455  137.8256  158.3092 H   0  0  0  0  0  0  0  0  0  0  0  0
  147.6617  137.4932  156.8965 H   0  0  0  0  0  0  0  0  0  0  0  0
  146.4689  138.4270  159.1261 H   0  0  0  0  0  0  0  0  0  0  0  0
  145.7003  137.0823  158.2636 H   0  0  0  0  0  0  0  0  0  0  0  0
  147.9881  134.2432  159.6428 H   0  0  0  0  0  0  0  0  0  0  0  0
  149.0977  135.5622  160.0436 H   0  0  0  0  0  0  0  0  0  0  0  0
  150.7066  139.0832  153.1000 H   0  0  0  0  0  0  0  0  0  0  0  0
  1  2  1  0  0  0  0
  1 28  1  0  0  0  0
  1 29  1  0  0  0  0
  1 30  1  0  0  0  0
  2  6  1  0  0  0  0
  2  3  1  0  0  0  0
  2 31  1  0  0  0  0
  3  4  1  0  0  0  0
  4  5  1  0  0  0  0
  4 32  1  0  0  0  0
  4 33  1  0  0  0  0
  5  6  1  0  0  0  0
  5 34  1  0  0  0  0
  5 35  1  0  0  0  0
  6  7  1  0  0  0  0
  6  8  1  0  0  0  0
  7 36  1  0  0  0  0
  8  9  1  0  0  0  0
  8 37  1  0  0  0  0
  8 38  1  0  0  0  0
  9 27  1  0  0  0  0
  9 10  1  0  0  0  0
 10 11  2  0  0  0  0
 10 39  1  0  0  0  0
 11 12  1  0  0  0  0
 12 27  2  0  0  0  0
 12 13  1  0  0  0  0
 13 14  1  0  0  0  0
 13 24  2  0  0  0  0
 14 15  1  0  0  0  0
 14 16  1  0  0  0  0
 15 40  1  0  0  0  0
 15 41  1  0  0  0  0
 15 42  1  0  0  0  0
 16 17  1  0  0  0  0
 16 43  1  0  0  0  0
 16 44  1  0  0  0  0
 17 23  1  0  0  0  0
 17 18  1  0  0  0  0
 17 45  1  0  0  0  0
 18 19  1  0  0  0  0
 18 46  1  0  0  0  0
 18 47  1  0  0  0  0
 19 20  1  0  0  0  0
 19 48  1  0  0  0  0
 19 49  1  0  0  0  0
 20 21  2  0  0  0  0
 20 22  2  0  0  0  0
 20 23  1  0  0  0  0
 23 50  1  0  0  0  0
 23 51  1  0  0  0  0
 24 25  1  0  0  0  0
 25 26  2  0  0  0  0
 25 52  1  0  0  0  0
 26 27  1  0  0  0  0
M  END
> <s_m_source_file>
AV-unprocessed.smi

> <i_m_source_file_index>
266

> <i_lp_mmshare_version>
43012

> <i_f3d_flags>
0

> <s_epik_input>
W0NIMl0xW0NIMl1PW0NAQEhdKFtDSDNdKVtDQEBdMShbT0hdKVtDSDJdbihbY0hdbjIpYyhjMjMpbltjSF1uYzNOKFtDSDNdKVtDSDJdW0NAQEhdKFtDSDJdNClbQ0gyXVtDSDJdUzQoPU8pPU8=

> <s_epik_cmdline>
J2VwaWtfcHl0aG9uJywgJy1waCcsICc3LjAnLCAnLXRuJywgJzgnLCAnLW1hJywgJzIwMCcsICctbWV0YWxfYmluZGluZycsICctaW1hZScsICc8aW5maWxlLm1hZT4nLCAnLW9tYWUnLCAnPG91dGZpbGUubWFlPic=

> <r_lp_tautomer_probability>
1

> <r_epik_Ionization_Penalty>
0.00155497

> <r_epik_Ionization_Penalty_Charging>
0

> <r_epik_Ionization_Penalty_Neutral>
0.00155497

> <r_epik_State_Penalty>
-0

> <r_epik_Charging_Adjusted_Penalty>
0

> <i_epik_Tot_Q>
0

> <i_epik_Tot_abs_Q>
0

> <r_epik_Metal_State_Penalty>
-0

> <b_epik_Metal_Only>
0

> <s_lp_Force_Field>
OPLS_2005

> <r_lp_Energy>
29.5809

> <b_lp_Chiralities_Consistent>
1

> <s_lp_Variant>
AV-unprocessed.smi:266-1

> <Gold.Version>
5.8.1

> <Gold.Id.Protein>
6NUR|6NUR_protein|mol2

> <Gold.PLP.Fitness>
44.3258

> <Gold.PLP.PLP>
-32.3408

> <Gold.PLP.part.hbond>
-4.0000

> <Gold.PLP.part.metal>
0.0000

> <Gold.PLP.part.buried>
-6.6704

> <Gold.PLP.part.nonpolar>
-22.2008

> <Gold.PLP.part.repulsive>
0.4008

> <Gold.PLP.ligand.clash>
0.0000

> <Gold.PLP.ligand.torsion>
1.0696

> <Gold.PLP.Chemscore.Hbond>
3.5060

> <Gold.PLP.Chemscore.CHOScore>
1.0000

> <Gold.PLP.Chemscore.Metal>
0.0000

> <Gold.Chemscore.Hbonds>
donor molecule, donor type, donor heavy atom, donor atom, acceptor molecule, acceptor atom, score
      L1  H     7    36       P1  8028  1.00
      P1  H  6931  6943       L1    21  0.71
      P1  H  6934  6947       L1    21  0.98
      P1  H  7989  7998       L1    26  0.55
      L1  C    25    52       P1  7957  1.00

> <Gold.PLP.Chemscore.Internal.Correction>
0.6063

> <Gold.Rescore>
     Score         DG    S(hbond)    S(metal)    S(lipo)     H(rot)  DE(clash)    DE(int)     intcor
     13.89     -17.26       2.86        0.00      72.61       2.45       1.09       2.28       ----

> <Gold.Chemscore.Fitness>
13.8860

> <Gold.Chemscore.DG>
-17.2561

> <Gold.Chemscore.ZeroCoef>
-5.4800

> <Gold.Chemscore.Hbond>
2.8578

> <Gold.Chemscore.Metal>
0.0000

> <Gold.Chemscore.Lipo>
72.6126

> <Gold.Chemscore.Internal_Hbond>
0.0000

> <Gold.Chemscore.DEClash>
1.0880

> <Gold.Chemscore.DEInternal>
2.2821

> <Gold.Chemscore.Rot>
2.4471

> <Gold.Chemscore.Internal.Correction>
   9.000000E+99

> <Gold.Chemscore.Hbonds>
donor molecule, donor type, donor heavy atom, donor atom, acceptor molecule, acceptor atom, score
      L1  H     7    36       P1  8028  1.00
      P1  H  6931  6943       L1    21  0.68
      P1  H  6934  6947       L1    21  0.62
      P1  H  7989  7998       L1    26  0.03

> <Gold.Chemscore.Hbond.Weighted>
-9.5450

> <Gold.Chemscore.Metal.Weighted>
-0.0000

> <Gold.Chemscore.Lipo.Weighted>
-8.4957

> <Gold.Chemscore.Internal_Hbond.Weighted>
0.0000

> <Gold.Chemscore.DEClash.Weighted>
1.0880

> <Gold.Chemscore.DEInternal.Weighted>
2.2821

> <Gold.Chemscore.Rot.Weighted>
6.2645

> <Gold.Chemscore.Internal.Correction.Weighted>
   9.000000E+99

> <Gold.Protein.RotatedTorsions>
[ 6907 6896 6895 6894 ] final  -14.43 input  -60.11 | X-H torsion
[ 7974 7965 7964 7962 ] final -154.59 input  175.53 | X-H torsion
[ 8008 7997 7996 7995 ] final -173.97 input   59.86 | X-H torsion
[ 10167 10162 10161 10158 ] final -129.69 input  -65.29 | X-H torsion
[ 10718 10713 10712 10709 ] final    3.82 input   66.30 | X-H torsion
[ 10763 10752 10751 10750 ] final   99.83 input  -60.55 | X-H torsion
[ 11005 11000 10999 10996 ] final  -42.69 input  -57.11 | X-H torsion

> <Gold.Protein.ActiveResidues>
 VAL166  LYS551  ARG553  GLY616  TRP617  ASP618  TYR619  PRO620  LYS621  CYS622 
 ASP623  PHE694  ASN695  SER759  ASP760  ASP761  ALA762  ILE779  LEU786  VAL792 
 PHE793  MET794  SER795  GLU796  ALA797  LYS798  CYS799  TRP800  GLU811  SER814 

> <Gold.Protein.RotatedAtoms>
  151.3396  135.0860  159.9366 H   0  0  0  0  0  0  0  0  0  0  0  0  # atno 6907 bound_to 6896
  152.5215  133.9461  159.7660 H   0  0  0  0  0  0  0  0  0  0  0  0  # atno 6908 bound_to 6896
  150.9815  133.6187  159.2751 H   0  0  0  0  0  0  0  0  0  0  0  0  # atno 6909 bound_to 6896
  144.7681  140.4366  143.5927 H   0  0  0  0  0  0  0  0  0  0  0  0  # atno 7974 bound_to 7965
  155.9642  140.1150  157.0869 H   0  0  0  0  0  0  0  0  0  0  0  0  # atno 8008 bound_to 7997
  154.4139  140.1176  156.5287 H   0  0  0  0  0  0  0  0  0  0  0  0  # atno 8009 bound_to 7997
  155.6681  140.3473  155.4810 H   0  0  0  0  0  0  0  0  0  0  0  0  # atno 8010 bound_to 7997
  139.9371  143.6205  152.2514 H   0  0  0  0  0  0  0  0  0  0  0  0  # atno 10167 bound_to 10162
  156.8835  130.5662  149.5652 H   0  0  0  0  0  0  0  0  0  0  0  0  # atno 10718 bound_to 10713
  153.3063  135.4100  155.1297 H   0  0  0  0  0  0  0  0  0  0  0  0  # atno 10763 bound_to 10752
  154.8563  135.3554  154.5783 H   0  0  0  0  0  0  0  0  0  0  0  0  # atno 10764 bound_to 10752
  153.6210  135.7064  153.5369 H   0  0  0  0  0  0  0  0  0  0  0  0  # atno 10765 bound_to 10752
  141.0333  133.6811  156.2629 H   0  0  0  0  0  0  0  0  0  0  0  0  # atno 11005 bound_to 11000
  145.6406  139.1549  143.2918 LP  0  0  0  0  0  0  0  0  0  0  0  0  # atno 17320 bound_to 7965
  146.1806  140.6503  142.9191 LP  0  0  0  0  0  0  0  0  0  0  0  0  # atno 17321 bound_to 7965
  139.6734  144.7660  151.1740 LP  0  0  0  0  0  0  0  0  0  0  0  0  # atno 17342 bound_to 10162
  140.7621  143.5831  150.8874 LP  0  0  0  0  0  0  0  0  0  0  0  0  # atno 17343 bound_to 10162
  156.0665  130.5707  150.9298 LP  0  0  0  0  0  0  0  0  0  0  0  0  # atno 17370 bound_to 10713
  157.6126  131.0935  150.8768 LP  0  0  0  0  0  0  0  0  0  0  0  0  # atno 17371 bound_to 10713
  140.6368  134.5207  157.5565 LP  0  0  0  0  0  0  0  0  0  0  0  0  # atno 17394 bound_to 11000
  139.9223  134.8125  156.1174 LP  0  0  0  0  0  0  0  0  0  0  0  0  # atno 17395 bound_to 11000

$$$$
