AV-unprocessed.smi:2421|AV-procd|sdf|9555|dock4
  -GOLD-   2272013183D 1   1.00000     0.00000
 Structure written by MMmdl.
 44 46  0  0  0  0  0  0  0  0  1 V2000
  145.5995  135.4541  150.8004 C   0  0  0  0  0  0  0  0  0  0  0  0
  144.3792  135.4998  151.6738 C   0  0  0  0  0  0  0  0  0  0  0  0
  143.5654  134.4567  151.7388 N   0  0  0  0  0  0  0  0  0  0  0  0
  142.5411  134.8054  152.6360 O   0  0  0  0  0  0  0  0  0  0  0  0
  142.7654  136.0655  153.0969 C   0  0  0  0  0  0  0  0  0  0  0  0
  141.7869  136.6225  154.0741 C   0  0  0  0  0  0  0  0  0  0  0  0
  143.9006  136.5399  152.5113 C   0  0  0  0  0  0  0  0  0  0  0  0
  144.5042  137.7950  152.7311 N   0  0  0  0  0  0  0  0  0  0  0  0
  145.6458  137.9687  153.4172 C   0  0  0  0  0  0  0  0  0  0  0  0
  146.3229  137.0394  153.8538 O   0  0  0  0  0  0  0  0  0  0  0  0
  146.0098  139.2527  153.5867 N   0  0  0  0  0  0  0  0  0  0  0  0
  147.1886  139.7747  154.2814 C   0  0  2  0  0  0  0  0  0  0  0  0
  147.5315  141.1699  153.7450 C   0  0  0  0  0  0  0  0  0  0  0  0
  148.8163  141.6967  154.3994 C   0  0  0  0  0  0  0  0  0  0  0  0
  149.8924  140.7803  154.2061 O   0  0  0  0  0  0  0  0  0  0  0  0
  149.6845  139.4512  154.6986 C   0  0  0  0  0  0  0  0  0  0  0  0
  149.7284  139.3989  156.2365 C   0  0  0  0  0  0  0  0  0  0  0  0
  151.2108  139.5255  156.5996 C   0  0  0  0  0  0  0  0  0  0  0  0
  151.9896  139.0119  155.3804 C   0  0  0  0  0  0  0  0  0  0  0  0
  150.9388  138.6533  154.3223 C   0  0  0  0  0  0  0  0  0  0  0  0
  148.4039  138.8533  154.0769 C   0  0  0  0  0  0  0  0  0  0  0  0
  146.1445  136.3978  150.8292 H   0  0  0  0  0  0  0  0  0  0  0  0
  145.3306  135.2599  149.7621 H   0  0  0  0  0  0  0  0  0  0  0  0
  146.2825  134.6676  151.1223 H   0  0  0  0  0  0  0  0  0  0  0  0
  142.0324  137.6537  154.3288 H   0  0  0  0  0  0  0  0  0  0  0  0
  141.7850  136.0378  154.9939 H   0  0  0  0  0  0  0  0  0  0  0  0
  140.7786  136.6083  153.6606 H   0  0  0  0  0  0  0  0  0  0  0  0
  144.0161  138.6105  152.3904 H   0  0  0  0  0  0  0  0  0  0  0  0
  145.4119  139.9461  153.1605 H   0  0  0  0  0  0  0  0  0  0  0  0
  146.9725  139.8671  155.3472 H   0  0  0  0  0  0  0  0  0  0  0  0
  147.6690  141.1309  152.6633 H   0  0  0  0  0  0  0  0  0  0  0  0
  146.7092  141.8618  153.9312 H   0  0  0  0  0  0  0  0  0  0  0  0
  149.0945  142.6507  153.9514 H   0  0  0  0  0  0  0  0  0  0  0  0
  148.6586  141.8930  155.4593 H   0  0  0  0  0  0  0  0  0  0  0  0
  149.1126  140.1480  156.7320 H   0  0  0  0  0  0  0  0  0  0  0  0
  149.3676  138.4263  156.5743 H   0  0  0  0  0  0  0  0  0  0  0  0
  151.4612  140.5715  156.7812 H   0  0  0  0  0  0  0  0  0  0  0  0
  151.4512  138.9693  157.5062 H   0  0  0  0  0  0  0  0  0  0  0  0
  152.6495  139.7959  155.0064 H   0  0  0  0  0  0  0  0  0  0  0  0
  152.6121  138.1513  155.6272 H   0  0  0  0  0  0  0  0  0  0  0  0
  150.7266  137.5847  154.3826 H   0  0  0  0  0  0  0  0  0  0  0  0
  151.2811  138.8581  153.3072 H   0  0  0  0  0  0  0  0  0  0  0  0
  148.2114  137.8634  154.4924 H   0  0  0  0  0  0  0  0  0  0  0  0
  148.5640  138.7068  153.0075 H   0  0  0  0  0  0  0  0  0  0  0  0
  1  2  1  0  0  0  0
  1 22  1  0  0  0  0
  1 23  1  0  0  0  0
  1 24  1  0  0  0  0
  2  7  1  0  0  0  0
  2  3  2  0  0  0  0
  3  4  1  0  0  0  0
  4  5  1  0  0  0  0
  5  6  1  0  0  0  0
  5  7  2  0  0  0  0
  6 25  1  0  0  0  0
  6 26  1  0  0  0  0
  6 27  1  0  0  0  0
  7  8  1  0  0  0  0
  8  9  1  0  0  0  0
  8 28  1  0  0  0  0
  9 10  2  0  0  0  0
  9 11  1  0  0  0  0
 11 12  1  0  0  0  0
 11 29  1  0  0  0  0
 12 21  1  0  0  0  0
 12 13  1  0  0  0  0
 12 30  1  0  0  0  0
 13 14  1  0  0  0  0
 13 31  1  0  0  0  0
 13 32  1  0  0  0  0
 14 15  1  0  0  0  0
 14 33  1  0  0  0  0
 14 34  1  0  0  0  0
 15 16  1  0  0  0  0
 16 20  1  0  0  0  0
 16 17  1  0  0  0  0
 16 21  1  0  0  0  0
 17 18  1  0  0  0  0
 17 35  1  0  0  0  0
 17 36  1  0  0  0  0
 18 19  1  0  0  0  0
 18 37  1  0  0  0  0
 18 38  1  0  0  0  0
 19 20  1  0  0  0  0
 19 39  1  0  0  0  0
 19 40  1  0  0  0  0
 20 41  1  0  0  0  0
 20 42  1  0  0  0  0
 21 43  1  0  0  0  0
 21 44  1  0  0  0  0
M  END
> <s_m_source_file>
AV-unprocessed.smi

> <i_m_source_file_index>
2421

> <i_lp_mmshare_version>
43012

> <i_f3d_flags>
0

> <s_epik_input>
W0NIM11jMW5vYyhbQ0gzXSljMVtOSF1DKD1PKVtOSF1bQ0BASF0oW0NIMl0yKVtDSDJdW0NIMl1PQzIzW0NIMl1bQ0gyXVtDSDJdW0NIMl0z

> <s_epik_cmdline>
J2VwaWtfcHl0aG9uJywgJy1waCcsICc3LjAnLCAnLXRuJywgJzgnLCAnLW1hJywgJzIwMCcsICctbWV0YWxfYmluZGluZycsICctaW1hZScsICc8aW5maWxlLm1hZT4nLCAnLW9tYWUnLCAnPG91dGZpbGUubWFlPic=

> <r_lp_tautomer_probability>
1

> <r_epik_Ionization_Penalty>
3.59808e-05

> <r_epik_Ionization_Penalty_Charging>
0

> <r_epik_Ionization_Penalty_Neutral>
3.59808e-05

> <r_epik_State_Penalty>
-0

> <r_epik_Charging_Adjusted_Penalty>
0

> <i_epik_Tot_Q>
0

> <i_epik_Tot_abs_Q>
0

> <r_epik_Metal_State_Penalty>
-0

> <b_epik_Metal_Only>
0

> <s_lp_Force_Field>
OPLS_2005

> <r_lp_Energy>
43.4187

> <b_lp_Chiralities_Consistent>
1

> <s_lp_Variant>
AV-unprocessed.smi:2421-1

> <Gold.Version>
5.8.1

> <Gold.Id.Protein>
6NUR|6NUR_protein|mol2

> <Gold.PLP.Fitness>
40.5899

> <Gold.PLP.PLP>
-34.1950

> <Gold.PLP.part.hbond>
-3.8236

> <Gold.PLP.part.metal>
0.0000

> <Gold.PLP.part.buried>
-5.3503

> <Gold.PLP.part.nonpolar>
-26.2707

> <Gold.PLP.part.repulsive>
0.6576

> <Gold.PLP.ligand.clash>
0.0000

> <Gold.PLP.ligand.torsion>
1.0138

> <Gold.PLP.Chemscore.Hbond>
2.6400

> <Gold.PLP.Chemscore.CHOScore>
0.0000

> <Gold.PLP.Chemscore.Metal>
0.0000

> <Gold.Chemscore.Hbonds>
donor molecule, donor type, donor heavy atom, donor atom, acceptor molecule, acceptor atom, score
      L1  H     8    28       P1 10175  1.00
      L1  H    11    29       P1 10175  1.00
      P1  H  7989  7998       L1    15  0.64

> <Gold.PLP.Chemscore.Internal.Correction>
0.5025

> <Gold.Rescore>
     Score         DG    S(hbond)    S(metal)    S(lipo)     H(rot)  DE(clash)    DE(int)     intcor
     17.80     -20.76       2.57        0.00      78.96       1.00       0.40       2.56       ----

> <Gold.Chemscore.Fitness>
17.7990

> <Gold.Chemscore.DG>
-20.7573

> <Gold.Chemscore.ZeroCoef>
-5.4800

> <Gold.Chemscore.Hbond>
2.5745

> <Gold.Chemscore.Metal>
0.0000

> <Gold.Chemscore.Lipo>
78.9624

> <Gold.Chemscore.Internal_Hbond>
0.0000

> <Gold.Chemscore.DEClash>
0.3954

> <Gold.Chemscore.DEInternal>
2.5628

> <Gold.Chemscore.Rot>
1.0000

> <Gold.Chemscore.Internal.Correction>
   9.000000E+99

> <Gold.Chemscore.Hbonds>
donor molecule, donor type, donor heavy atom, donor atom, acceptor molecule, acceptor atom, score
      L1  H     8    28       P1 10175  0.96
      L1  H    11    29       P1 10175  0.94
      P1  H  7989  7998       L1    15  0.45

> <Gold.Chemscore.Hbond.Weighted>
-8.5987

> <Gold.Chemscore.Metal.Weighted>
-0.0000

> <Gold.Chemscore.Lipo.Weighted>
-9.2386

> <Gold.Chemscore.Internal_Hbond.Weighted>
0.0000

> <Gold.Chemscore.DEClash.Weighted>
0.3954

> <Gold.Chemscore.DEInternal.Weighted>
2.5628

> <Gold.Chemscore.Rot.Weighted>
2.5600

> <Gold.Chemscore.Internal.Correction.Weighted>
   9.000000E+99

> <Gold.Protein.RotatedTorsions>
[ 6907 6896 6895 6894 ] final  -51.86 input  -60.11 | X-H torsion
[ 7974 7965 7964 7962 ] final   34.87 input  175.53 | X-H torsion
[ 8008 7997 7996 7995 ] final  135.84 input   59.86 | X-H torsion
[ 10167 10162 10161 10158 ] final -136.43 input  -65.29 | X-H torsion
[ 10718 10713 10712 10709 ] final  -64.89 input   66.30 | X-H torsion
[ 10763 10752 10751 10750 ] final  120.04 input  -60.55 | X-H torsion
[ 11005 11000 10999 10996 ] final  132.55 input  -57.11 | X-H torsion

> <Gold.Protein.ActiveResidues>
 VAL166  LYS551  ARG553  GLY616  TRP617  ASP618  TYR619  PRO620  LYS621  CYS622 
 ASP623  PHE694  ASN695  SER759  ASP760  ASP761  ALA762  ILE779  LEU786  VAL792 
 PHE793  MET794  SER795  GLU796  ALA797  LYS798  CYS799  TRP800  GLU811  SER814 

> <Gold.Protein.RotatedAtoms>
  150.8572  134.7914  159.7054 H   0  0  0  0  0  0  0  0  0  0  0  0  # atno 6907 bound_to 6896
  152.4620  134.5159  159.9778 H   0  0  0  0  0  0  0  0  0  0  0  0  # atno 6908 bound_to 6896
  151.5269  133.3418  159.2947 H   0  0  0  0  0  0  0  0  0  0  0  0  # atno 6909 bound_to 6896
  146.1323  139.6214  142.9219 H   0  0  0  0  0  0  0  0  0  0  0  0  # atno 7974 bound_to 7965
  156.3003  140.2460  156.3647 H   0  0  0  0  0  0  0  0  0  0  0  0  # atno 8008 bound_to 7997
  154.8844  140.0411  157.1821 H   0  0  0  0  0  0  0  0  0  0  0  0  # atno 8009 bound_to 7997
  154.8662  140.2928  155.5512 H   0  0  0  0  0  0  0  0  0  0  0  0  # atno 8010 bound_to 7997
  139.8678  143.6995  152.2643 H   0  0  0  0  0  0  0  0  0  0  0  0  # atno 10167 bound_to 10162
  156.0702  130.4239  150.1485 H   0  0  0  0  0  0  0  0  0  0  0  0  # atno 10718 bound_to 10713
  153.5924  135.3463  155.2915 H   0  0  0  0  0  0  0  0  0  0  0  0  # atno 10763 bound_to 10752
  154.8650  135.4208  154.2502 H   0  0  0  0  0  0  0  0  0  0  0  0  # atno 10764 bound_to 10752
  153.3312  135.7044  153.7017 H   0  0  0  0  0  0  0  0  0  0  0  0  # atno 10765 bound_to 10752
  139.9797  134.9552  156.9598 H   0  0  0  0  0  0  0  0  0  0  0  0  # atno 11005 bound_to 11000
  145.5234  141.0431  143.2423 LP  0  0  0  0  0  0  0  0  0  0  0  0  # atno 17320 bound_to 7965
  144.7703  139.6750  143.7197 LP  0  0  0  0  0  0  0  0  0  0  0  0  # atno 17321 bound_to 7965
  139.7312  144.7582  151.0799 LP  0  0  0  0  0  0  0  0  0  0  0  0  # atno 17342 bound_to 10162
  140.7765  143.5086  150.9681 LP  0  0  0  0  0  0  0  0  0  0  0  0  # atno 17343 bound_to 10162
  156.9537  130.9783  151.3493 LP  0  0  0  0  0  0  0  0  0  0  0  0  # atno 17370 bound_to 10713
  157.5768  130.8349  149.8467 LP  0  0  0  0  0  0  0  0  0  0  0  0  # atno 17371 bound_to 10713
  140.5122  134.0990  155.7273 LP  0  0  0  0  0  0  0  0  0  0  0  0  # atno 17394 bound_to 11000
  141.1470  133.9037  157.2191 LP  0  0  0  0  0  0  0  0  0  0  0  0  # atno 17395 bound_to 11000

$$$$
