AV-unprocessed.smi:2083|AV-procd|sdf|8490|dock9
  -GOLD-   2272011193D 1   1.00000     0.00000
 Structure written by MMmdl.
 45 46  0  0  0  0  0  0  0  0  2 V2000
  142.0968  129.6612  161.4506 C   0  0  0  0  0  0  0  0  0  0  0  0
  142.4271  130.7657  160.5061 C   0  0  0  0  0  0  0  0  0  0  0  0
  142.3326  130.8879  159.1484 C   0  0  0  0  0  0  0  0  0  0  0  0
  142.8240  132.1988  158.9106 C   0  0  0  0  0  0  0  0  0  0  0  0
  142.8969  132.7198  157.5936 N   0  0  0  0  0  0  0  0  0  0  0  0
  143.1815  133.9806  157.2267 C   0  0  0  0  0  0  0  0  0  0  0  0
  143.4130  134.9117  157.9987 O   0  0  0  0  0  0  0  0  0  0  0  0
  143.1812  134.1119  155.8923 N   0  0  0  0  0  0  0  0  0  0  0  0
  143.4677  135.3509  155.1745 C   0  0  0  0  0  0  0  0  0  0  0  0
  143.2953  135.2209  153.6343 C   0  0  2  0  0  0  0  0  0  0  0  0
  141.8008  135.3224  153.2534 C   0  0  0  0  0  0  0  0  0  0  0  0
  143.8857  133.9706  153.0505 N   0  3  1  0  0  0  0  0  0  0  0  0
  143.4596  133.7593  151.6374 C   0  0  0  0  0  0  0  0  0  0  0  0
  143.8942  132.3824  151.1151 C   0  0  0  0  0  0  0  0  0  0  0  0
  145.4131  132.2211  151.2202 C   0  0  0  0  0  0  0  0  0  0  0  0
  145.8616  132.4541  152.6699 C   0  0  1  0  0  0  0  0  0  0  0  0
  147.3846  132.3196  152.8126 C   0  0  0  0  0  0  0  0  0  0  0  0
  145.3661  133.8233  153.1807 C   0  0  0  0  0  0  0  0  0  0  0  0
  143.1831  132.8222  160.0221 N   0  0  0  0  0  0  0  0  0  0  0  0
  142.9312  131.9065  161.0507 O   0  0  0  0  0  0  0  0  0  0  0  0
  141.5764  128.8525  160.9370 H   0  0  0  0  0  0  0  0  0  0  0  0
  141.4547  130.0184  162.2559 H   0  0  0  0  0  0  0  0  0  0  0  0
  143.0031  129.2510  161.8960 H   0  0  0  0  0  0  0  0  0  0  0  0
  141.9716  130.1548  158.4426 H   0  0  0  0  0  0  0  0  0  0  0  0
  142.7232  132.0582  156.8517 H   0  0  0  0  0  0  0  0  0  0  0  0
  142.9812  133.2957  155.3325 H   0  0  0  0  0  0  0  0  0  0  0  0
  142.8127  136.1207  155.5853 H   0  0  0  0  0  0  0  0  0  0  0  0
  144.4906  135.6435  155.4144 H   0  0  0  0  0  0  0  0  0  0  0  0
  143.8196  136.0652  153.1837 H   0  0  0  0  0  0  0  0  0  0  0  0
  141.3568  136.2544  153.6028 H   0  0  0  0  0  0  0  0  0  0  0  0
  141.2288  134.5030  153.6897 H   0  0  0  0  0  0  0  0  0  0  0  0
  141.6388  135.2977  152.1772 H   0  0  0  0  0  0  0  0  0  0  0  0
  142.3784  133.8368  151.5386 H   0  0  0  0  0  0  0  0  0  0  0  0
  143.8843  134.5445  151.0094 H   0  0  0  0  0  0  0  0  0  0  0  0
  143.3967  131.5969  151.6857 H   0  0  0  0  0  0  0  0  0  0  0  0
  143.5784  132.2598  150.0787 H   0  0  0  0  0  0  0  0  0  0  0  0
  145.7055  131.2247  150.8866 H   0  0  0  0  0  0  0  0  0  0  0  0
  145.9065  132.9322  150.5560 H   0  0  0  0  0  0  0  0  0  0  0  0
  145.4059  131.6804  153.2902 H   0  0  0  0  0  0  0  0  0  0  0  0
  147.9065  133.0721  152.2205 H   0  0  0  0  0  0  0  0  0  0  0  0
  147.7254  131.3389  152.4794 H   0  0  0  0  0  0  0  0  0  0  0  0
  147.6951  132.4392  153.8511 H   0  0  0  0  0  0  0  0  0  0  0  0
  145.8616  134.6345  152.6444 H   0  0  0  0  0  0  0  0  0  0  0  0
  145.6649  133.8926  154.2259 H   0  0  0  0  0  0  0  0  0  0  0  0
  143.4952  133.2095  153.5872 H   0  0  0  0  0  0  0  0  0  0  0  0
  1  2  1  0  0  0  0
  1 21  1  0  0  0  0
  1 22  1  0  0  0  0
  1 23  1  0  0  0  0
  2 20  1  0  0  0  0
  2  3  2  0  0  0  0
  3  4  1  0  0  0  0
  3 24  1  0  0  0  0
  4  5  1  0  0  0  0
  4 19  2  0  0  0  0
  5  6  1  0  0  0  0
  5 25  1  0  0  0  0
  6  7  2  0  0  0  0
  6  8  1  0  0  0  0
  8  9  1  0  0  0  0
  8 26  1  0  0  0  0
  9 10  1  0  0  0  0
  9 27  1  0  0  0  0
  9 28  1  0  0  0  0
 10 11  1  0  0  0  0
 10 12  1  0  0  0  0
 10 29  1  0  0  0  0
 11 30  1  0  0  0  0
 11 31  1  0  0  0  0
 11 32  1  0  0  0  0
 12 18  1  0  0  0  0
 12 13  1  0  0  0  0
 12 45  1  0  0  0  0
 13 14  1  0  0  0  0
 13 33  1  0  0  0  0
 13 34  1  0  0  0  0
 14 15  1  0  0  0  0
 14 35  1  0  0  0  0
 14 36  1  0  0  0  0
 15 16  1  0  0  0  0
 15 37  1  0  0  0  0
 15 38  1  0  0  0  0
 16 17  1  0  0  0  0
 16 18  1  0  0  0  0
 16 39  1  0  0  0  0
 17 40  1  0  0  0  0
 17 41  1  0  0  0  0
 17 42  1  0  0  0  0
 18 43  1  0  0  0  0
 18 44  1  0  0  0  0
 19 20  1  0  0  0  0
M  CHG  1  12   1
M  END
> <s_m_source_file>
AV-unprocessed.smi

> <i_m_source_file_index>
2083

> <i_lp_mmshare_version>
43012

> <i_f3d_flags>
0

> <s_epik_input>
W0NIM11jMVtjSF1jKG5vMSlbTkhdQyg9TylbTkhdW0NIMl1bQ0BIXShbQ0gzXSlOMltDSDJdW0NIMl1bQ0gyXVtDQEBIXShbQ0gzXSlbQ0gyXTI=

> <s_epik_cmdline>
J2VwaWtfcHl0aG9uJywgJy1waCcsICc3LjAnLCAnLXRuJywgJzgnLCAnLW1hJywgJzIwMCcsICctbWV0YWxfYmluZGluZycsICctaW1hZScsICc8aW5maWxlLm1hZT4nLCAnLW9tYWUnLCAnPG91dGZpbGUubWFlPic=

> <r_epik_Ionization_Penalty>
0.00216453

> <r_epik_Ionization_Penalty_Charging>
0.00212879

> <r_epik_Ionization_Penalty_Neutral>
3.57418e-05

> <r_epik_State_Penalty>
0.00146033

> <r_epik_Charging_Adjusted_Penalty>
0.00358912

> <i_epik_Tot_Q>
1

> <i_epik_Tot_abs_Q>
1

> <r_epik_Metal_State_Penalty>
0.0215827

> <b_epik_Metal_Only>
0

> <s_lp_Force_Field>
OPLS_2005

> <r_lp_Energy>
19.0311

> <b_lp_Chiralities_Consistent>
1

> <s_lp_Variant>
AV-unprocessed.smi:2083-1

> <Gold.Version>
5.8.1

> <Gold.Id.Protein>
6NUR|6NUR_protein|mol2

> <Gold.PLP.Fitness>
40.3876

> <Gold.PLP.PLP>
-29.1331

> <Gold.PLP.part.hbond>
-5.2898

> <Gold.PLP.part.metal>
0.0000

> <Gold.PLP.part.buried>
-2.5204

> <Gold.PLP.part.nonpolar>
-22.7281

> <Gold.PLP.part.repulsive>
0.1474

> <Gold.PLP.ligand.clash>
0.0000

> <Gold.PLP.ligand.torsion>
0.2952

> <Gold.PLP.Chemscore.Hbond>
3.9280

> <Gold.PLP.Chemscore.CHOScore>
0.0000

> <Gold.PLP.Chemscore.Metal>
0.0000

> <Gold.Chemscore.Hbonds>
donor molecule, donor type, donor heavy atom, donor atom, acceptor molecule, acceptor atom, score
      L1  H     5    25       P1 10957  0.94
      L1  H     8    26       P1 10957  1.00
      L1  H    12    45       P1 10957  1.92

> <Gold.PLP.Chemscore.Internal.Correction>
0.0609

> <Gold.Rescore>
     Score         DG    S(hbond)    S(metal)    S(lipo)     H(rot)  DE(clash)    DE(int)     intcor
     16.74     -18.33       2.74        0.00      65.49       1.55       0.13       1.46       ----

> <Gold.Chemscore.Fitness>
16.7383

> <Gold.Chemscore.DG>
-18.3319

> <Gold.Chemscore.ZeroCoef>
-5.4800

> <Gold.Chemscore.Hbond>
2.7398

> <Gold.Chemscore.Metal>
0.0000

> <Gold.Chemscore.Lipo>
65.4903

> <Gold.Chemscore.Internal_Hbond>
0.0000

> <Gold.Chemscore.DEClash>
0.1292

> <Gold.Chemscore.DEInternal>
1.4644

> <Gold.Chemscore.Rot>
1.5474

> <Gold.Chemscore.Internal.Correction>
   9.000000E+99

> <Gold.Chemscore.Hbonds>
donor molecule, donor type, donor heavy atom, donor atom, acceptor molecule, acceptor atom, score
      L1  H     5    25       P1 10957  0.85
      L1  H     8    26       P1 10957  1.00
      L1  H    12    45       P1 10957  0.88

> <Gold.Chemscore.Hbond.Weighted>
-9.1508

> <Gold.Chemscore.Metal.Weighted>
-0.0000

> <Gold.Chemscore.Lipo.Weighted>
-7.6624

> <Gold.Chemscore.Internal_Hbond.Weighted>
0.0000

> <Gold.Chemscore.DEClash.Weighted>
0.1292

> <Gold.Chemscore.DEInternal.Weighted>
1.4644

> <Gold.Chemscore.Rot.Weighted>
3.9612

> <Gold.Chemscore.Internal.Correction.Weighted>
   9.000000E+99

> <Gold.Protein.RotatedTorsions>
[ 6907 6896 6895 6894 ] final  115.56 input  -60.11 | X-H torsion
[ 7974 7965 7964 7962 ] final   79.02 input  175.53 | X-H torsion
[ 8008 7997 7996 7995 ] final  -68.43 input   59.86 | X-H torsion
[ 10167 10162 10161 10158 ] final   79.75 input  -65.29 | X-H torsion
[ 10718 10713 10712 10709 ] final  -66.68 input   66.30 | X-H torsion
[ 10763 10752 10751 10750 ] final  -60.59 input  -60.55 | X-H torsion
[ 11005 11000 10999 10996 ] final  -30.10 input  -57.11 | X-H torsion

> <Gold.Protein.ActiveResidues>
 VAL166  LYS551  ARG553  GLY616  TRP617  ASP618  TYR619  PRO620  LYS621  CYS622 
 ASP623  PHE694  ASN695  SER759  ASP760  ASP761  ALA762  ILE779  LEU786  VAL792 
 PHE793  MET794  SER795  GLU796  ALA797  LYS798  CYS799  TRP800  GLU811  SER814 

> <Gold.Protein.RotatedAtoms>
  152.4733  133.8081  159.6988 H   0  0  0  0  0  0  0  0  0  0  0  0  # atno 6907 bound_to 6896
  150.8735  133.7462  159.2960 H   0  0  0  0  0  0  0  0  0  0  0  0  # atno 6908 bound_to 6896
  151.4989  135.1064  159.9875 H   0  0  0  0  0  0  0  0  0  0  0  0  # atno 6909 bound_to 6896
  145.6696  139.2493  143.1876 H   0  0  0  0  0  0  0  0  0  0  0  0  # atno 7974 bound_to 7965
  154.4867  140.0873  156.7503 H   0  0  0  0  0  0  0  0  0  0  0  0  # atno 8008 bound_to 7997
  155.4332  140.3450  155.4264 H   0  0  0  0  0  0  0  0  0  0  0  0  # atno 8009 bound_to 7997
  156.1272  140.1491  156.9107 H   0  0  0  0  0  0  0  0  0  0  0  0  # atno 8010 bound_to 7997
  139.9570  144.5987  150.8107 H   0  0  0  0  0  0  0  0  0  0  0  0  # atno 10167 bound_to 10162
  156.0599  130.4266  150.1744 H   0  0  0  0  0  0  0  0  0  0  0  0  # atno 10718 bound_to 10713
  154.2715  135.6289  153.5312 H   0  0  0  0  0  0  0  0  0  0  0  0  # atno 10763 bound_to 10752
  152.9879  135.5611  154.5595 H   0  0  0  0  0  0  0  0  0  0  0  0  # atno 10764 bound_to 10752
  154.5166  135.2880  155.1273 H   0  0  0  0  0  0  0  0  0  0  0  0  # atno 10765 bound_to 10752
  140.9354  133.7312  156.0997 H   0  0  0  0  0  0  0  0  0  0  0  0  # atno 11005 bound_to 11000
  146.1057  140.7490  142.9528 LP  0  0  0  0  0  0  0  0  0  0  0  0  # atno 17320 bound_to 7965
  144.7061  140.3858  143.7117 LP  0  0  0  0  0  0  0  0  0  0  0  0  # atno 17321 bound_to 7965
  140.7565  143.3067  151.2944 LP  0  0  0  0  0  0  0  0  0  0  0  0  # atno 17342 bound_to 10162
  139.6583  144.0235  152.2675 LP  0  0  0  0  0  0  0  0  0  0  0  0  # atno 17343 bound_to 10162
  156.9814  130.9865  151.3436 LP  0  0  0  0  0  0  0  0  0  0  0  0  # atno 17370 bound_to 10713
  157.5599  130.8239  149.8252 LP  0  0  0  0  0  0  0  0  0  0  0  0  # atno 17371 bound_to 10713
  140.7806  134.3729  157.5488 LP  0  0  0  0  0  0  0  0  0  0  0  0  # atno 17394 bound_to 11000
  139.8806  134.9079  156.2956 LP  0  0  0  0  0  0  0  0  0  0  0  0  # atno 17395 bound_to 11000

$$$$
