AV-unprocessed.smi:2562|AV-procd|sdf|10054|dock6
  -GOLD-   2272014 93D 1   1.00000     0.00000
 Structure written by MMmdl.
 29 30  0  0  0  0  0  0  0  0  2 V2000
  152.3329  144.1290  159.0416 C   0  0  0  0  0  0  0  0  0  0  0  0
  152.4884  143.1528  160.2128 C   0  0  0  0  0  0  0  0  0  0  0  0
  153.3112  141.9113  159.8424 C   0  0  0  0  0  0  0  0  0  0  0  0
  152.6619  141.1098  158.7353 C   0  0  0  0  0  0  0  0  0  0  0  0
  153.1523  139.9841  158.1871 N   0  5  0  0  0  0  0  0  0  0  0  0
  152.3139  139.5303  157.2778 N   0  0  0  0  0  0  0  0  0  0  0  0
  151.2803  140.3862  157.2845 C   0  0  0  0  0  0  0  0  0  0  0  0
  150.0782  140.2841  156.3668 C   0  0  2  0  0  0  0  0  0  0  0  0
  150.5154  140.0563  154.9054 C   0  0  0  0  0  0  0  0  0  0  0  0
  149.3510  139.9694  154.0238 N   0  0  0  0  0  0  0  0  0  0  0  0
  148.4923  141.1432  154.1639 C   0  0  0  0  0  0  0  0  0  0  0  0
  148.0985  141.3418  155.6374 C   0  0  0  0  0  0  0  0  0  0  0  0
  149.2743  141.4607  156.4298 O   0  0  0  0  0  0  0  0  0  0  0  0
  151.4849  141.3685  158.1749 N   0  0  0  0  0  0  0  0  0  0  0  0
  151.7459  144.9987  159.3371 H   0  0  0  0  0  0  0  0  0  0  0  0
  151.8275  143.6554  158.1995 H   0  0  0  0  0  0  0  0  0  0  0  0
  153.3031  144.4851  158.6944 H   0  0  0  0  0  0  0  0  0  0  0  0
  152.9619  143.6662  161.0505 H   0  0  0  0  0  0  0  0  0  0  0  0
  151.5009  142.8442  160.5578 H   0  0  0  0  0  0  0  0  0  0  0  0
  154.3118  142.2038  159.5224 H   0  0  0  0  0  0  0  0  0  0  0  0
  153.4343  141.2670  160.7135 H   0  0  0  0  0  0  0  0  0  0  0  0
  149.4836  139.4347  156.7088 H   0  0  0  0  0  0  0  0  0  0  0  0
  151.1621  140.8744  154.5850 H   0  0  0  0  0  0  0  0  0  0  0  0
  151.1064  139.1434  154.8302 H   0  0  0  0  0  0  0  0  0  0  0  0
  149.6620  139.8887  153.0613 H   0  0  0  0  0  0  0  0  0  0  0  0
  149.0138  142.0300  153.8021 H   0  0  0  0  0  0  0  0  0  0  0  0
  147.5996  141.0298  153.5488 H   0  0  0  0  0  0  0  0  0  0  0  0
  147.5063  142.2502  155.7473 H   0  0  0  0  0  0  0  0  0  0  0  0
  147.4825  140.5146  155.9944 H   0  0  0  0  0  0  0  0  0  0  0  0
  1  2  1  0  0  0  0
  1 15  1  0  0  0  0
  1 16  1  0  0  0  0
  1 17  1  0  0  0  0
  2  3  1  0  0  0  0
  2 18  1  0  0  0  0
  2 19  1  0  0  0  0
  3 20  1  0  0  0  0
  3 21  1  0  0  0  0
  3  4  1  0  0  0  0
  4 14  2  0  0  0  0
  4  5  1  0  0  0  0
  5  6  1  0  0  0  0
  6  7  2  0  0  0  0
  7 14  1  0  0  0  0
  7  8  1  0  0  0  0
  8 13  1  0  0  0  0
  8  9  1  0  0  0  0
  8 22  1  0  0  0  0
  9 10  1  0  0  0  0
  9 23  1  0  0  0  0
  9 24  1  0  0  0  0
 10 11  1  0  0  0  0
 10 25  1  0  0  0  0
 11 12  1  0  0  0  0
 11 26  1  0  0  0  0
 11 27  1  0  0  0  0
 12 13  1  0  0  0  0
 12 28  1  0  0  0  0
 12 29  1  0  0  0  0
M  CHG  1   5  -1
M  END
> <s_m_source_file>
AV-unprocessed.smi

> <i_m_source_file_index>
2562

> <i_lp_mmshare_version>
43012

> <i_f3d_flags>
0

> <s_epik_input>
W0NIM11bQ0gyXVtDSDJdYzFuW25IXWMobjEpW0NAQEhdMltDSDJdW05IXVtDSDJdW0NIMl1PMg==

> <s_epik_cmdline>
J2VwaWtfcHl0aG9uJywgJy1waCcsICc3LjAnLCAnLXRuJywgJzgnLCAnLW1hJywgJzIwMCcsICctbWV0YWxfYmluZGluZycsICctaW1hZScsICc8aW5maWxlLm1hZT4nLCAnLW9tYWUnLCAnPG91dGZpbGUubWFlPic=

> <r_epik_Ionization_Penalty>
15.949

> <r_epik_Ionization_Penalty_Charging>
14.3757

> <r_epik_Ionization_Penalty_Neutral>
1.5733

> <r_epik_State_Penalty>
7.02775

> <r_epik_Charging_Adjusted_Penalty>
21.4034

> <i_epik_Tot_Q>
-1

> <i_epik_Tot_abs_Q>
1

> <r_epik_Metal_State_Penalty>
3.10311

> <b_epik_Metal_Only>
1

> <s_lp_Force_Field>
OPLS_2005

> <r_lp_Energy>
11.5852

> <b_lp_Chiralities_Consistent>
1

> <s_lp_Variant>
AV-unprocessed.smi:2562-13

> <Gold.Version>
5.8.1

> <Gold.Id.Protein>
6NUR|6NUR_protein|mol2

> <Gold.PLP.Fitness>
35.7932

> <Gold.PLP.PLP>
-27.1915

> <Gold.PLP.part.hbond>
-2.1119

> <Gold.PLP.part.metal>
0.0000

> <Gold.PLP.part.buried>
-2.2318

> <Gold.PLP.part.nonpolar>
-22.7949

> <Gold.PLP.part.repulsive>
0.1039

> <Gold.PLP.ligand.clash>
0.0000

> <Gold.PLP.ligand.torsion>
0.2064

> <Gold.PLP.Chemscore.Hbond>
3.0000

> <Gold.PLP.Chemscore.CHOScore>
0.0000

> <Gold.PLP.Chemscore.Metal>
0.0000

> <Gold.Chemscore.Hbonds>
donor molecule, donor type, donor heavy atom, donor atom, acceptor molecule, acceptor atom, score
      L1  H    10    25       P1  7957  1.00
      P1  H  7997  8009       L1     5  1.85

> <Gold.PLP.Chemscore.Internal.Correction>
0.0145

> <Gold.Rescore>
     Score         DG    S(hbond)    S(metal)    S(lipo)     H(rot)  DE(clash)    DE(int)     intcor
     13.55     -13.76       1.56        0.00      57.76       1.44       0.09       0.12       ----

> <Gold.Chemscore.Fitness>
13.5496

> <Gold.Chemscore.DG>
-13.7559

> <Gold.Chemscore.ZeroCoef>
-5.4800

> <Gold.Chemscore.Hbond>
1.5614

> <Gold.Chemscore.Metal>
0.0000

> <Gold.Chemscore.Lipo>
57.7595

> <Gold.Chemscore.Internal_Hbond>
0.0000

> <Gold.Chemscore.DEClash>
0.0901

> <Gold.Chemscore.DEInternal>
0.1163

> <Gold.Chemscore.Rot>
1.4441

> <Gold.Chemscore.Internal.Correction>
   9.000000E+99

> <Gold.Chemscore.Hbonds>
donor molecule, donor type, donor heavy atom, donor atom, acceptor molecule, acceptor atom, score
      L1  H    10    25       P1  7957  0.99
      P1  H  7997  8009       L1     5  0.20

> <Gold.Chemscore.Hbond.Weighted>
-5.2150

> <Gold.Chemscore.Metal.Weighted>
-0.0000

> <Gold.Chemscore.Lipo.Weighted>
-6.7579

> <Gold.Chemscore.Internal_Hbond.Weighted>
0.0000

> <Gold.Chemscore.DEClash.Weighted>
0.0901

> <Gold.Chemscore.DEInternal.Weighted>
0.1163

> <Gold.Chemscore.Rot.Weighted>
3.6969

> <Gold.Chemscore.Internal.Correction.Weighted>
   9.000000E+99

> <Gold.Protein.RotatedTorsions>
[ 6907 6896 6895 6894 ] final   34.55 input  -60.11 | X-H torsion
[ 7974 7965 7964 7962 ] final  122.35 input  175.53 | X-H torsion
[ 8008 7997 7996 7995 ] final  144.20 input   59.86 | X-H torsion
[ 10167 10162 10161 10158 ] final  150.12 input  -65.29 | X-H torsion
[ 10718 10713 10712 10709 ] final   90.85 input   66.30 | X-H torsion
[ 10763 10752 10751 10750 ] final  -94.10 input  -60.55 | X-H torsion
[ 11005 11000 10999 10996 ] final  -47.92 input  -57.11 | X-H torsion

> <Gold.Protein.ActiveResidues>
 VAL166  LYS551  ARG553  GLY616  TRP617  ASP618  TYR619  PRO620  LYS621  CYS622 
 ASP623  PHE694  ASN695  SER759  ASP760  ASP761  ALA762  ILE779  LEU786  VAL792 
 PHE793  MET794  SER795  GLU796  ALA797  LYS798  CYS799  TRP800  GLU811  SER814 

> <Gold.Protein.RotatedAtoms>
  152.1039  134.9322  160.0568 H   0  0  0  0  0  0  0  0  0  0  0  0  # atno 6907 bound_to 6896
  152.0525  133.4021  159.4391 H   0  0  0  0  0  0  0  0  0  0  0  0  # atno 6908 bound_to 6896
  150.6840  134.3212  159.4831 H   0  0  0  0  0  0  0  0  0  0  0  0  # atno 6909 bound_to 6896
  145.1086  139.3468  143.4775 H   0  0  0  0  0  0  0  0  0  0  0  0  # atno 7974 bound_to 7965
  156.2913  140.2242  156.5014 H   0  0  0  0  0  0  0  0  0  0  0  0  # atno 8008 bound_to 7997
  154.7686  140.0468  157.1054 H   0  0  0  0  0  0  0  0  0  0  0  0  # atno 8009 bound_to 7997
  154.9901  140.3089  155.4913 H   0  0  0  0  0  0  0  0  0  0  0  0  # atno 8010 bound_to 7997
  139.4853  144.5548  151.7337 H   0  0  0  0  0  0  0  0  0  0  0  0  # atno 10167 bound_to 10162
  157.6959  131.0386  150.3640 H   0  0  0  0  0  0  0  0  0  0  0  0  # atno 10718 bound_to 10713
  154.7023  135.5170  153.8544 H   0  0  0  0  0  0  0  0  0  0  0  0  # atno 10763 bound_to 10752
  153.0713  135.6602  154.0250 H   0  0  0  0  0  0  0  0  0  0  0  0  # atno 10764 bound_to 10752
  154.0107  135.3002  155.3372 H   0  0  0  0  0  0  0  0  0  0  0  0  # atno 10765 bound_to 10752
  141.0670  133.6691  156.3367 H   0  0  0  0  0  0  0  0  0  0  0  0  # atno 11005 bound_to 11000
  146.3527  140.0995  142.8608 LP  0  0  0  0  0  0  0  0  0  0  0  0  # atno 17320 bound_to 7965
  145.0873  140.9261  143.4790 LP  0  0  0  0  0  0  0  0  0  0  0  0  # atno 17321 bound_to 7965
  140.5108  144.1029  150.5994 LP  0  0  0  0  0  0  0  0  0  0  0  0  # atno 17342 bound_to 10162
  140.3953  143.2731  152.0012 LP  0  0  0  0  0  0  0  0  0  0  0  0  # atno 17343 bound_to 10162
  156.4073  130.3927  149.6917 LP  0  0  0  0  0  0  0  0  0  0  0  0  # atno 17370 bound_to 10713
  156.4213  130.7770  151.2787 LP  0  0  0  0  0  0  0  0  0  0  0  0  # atno 17371 bound_to 10713
  140.5753  134.5800  157.5467 LP  0  0  0  0  0  0  0  0  0  0  0  0  # atno 17394 bound_to 11000
  139.9486  134.7657  156.0502 LP  0  0  0  0  0  0  0  0  0  0  0  0  # atno 17395 bound_to 11000

$$$$
