AV-unprocessed.smi:3073|AV-procd|sdf|11719|dock8
  -GOLD-   2272017123D 1   1.00000     0.00000
 Structure written by MMmdl.
 24 25  0  0  0  0  0  0  0  0  2 V2000
  152.7067  138.4063  155.2056 C   0  0  0  0  0  0  0  0  0  0  0  0
  151.6854  138.1177  154.3369 C   0  0  0  0  0  0  0  0  0  0  0  0
  150.4120  139.3039  154.4202 S   0  0  0  0  0  0  0  0  0  0  0  0
  151.3308  140.1609  155.6540 C   0  0  0  0  0  0  0  0  0  0  0  0
  150.8521  141.4205  156.3046 C   0  0  2  0  0  0  0  0  0  0  0  0
  151.7647  141.8708  157.4607 C   0  0  0  0  0  0  0  0  0  0  0  0
  151.2314  143.1654  158.0932 C   0  0  0  0  0  0  0  0  0  0  0  0
  149.7604  143.0072  158.5132 C   0  0  0  0  0  0  0  0  0  0  0  0
  148.9284  142.5987  157.3604 N   0  3  0  0  0  0  0  0  0  0  0  0
  149.3762  141.3310  156.7424 C   0  0  0  0  0  0  0  0  0  0  0  0
  152.4931  139.5699  155.9486 N   0  0  0  0  0  0  0  0  0  0  0  0
  153.6153  137.8428  155.3595 H   0  0  0  0  0  0  0  0  0  0  0  0
  151.6057  137.2832  153.6558 H   0  0  0  0  0  0  0  0  0  0  0  0
  150.9074  142.1970  155.5398 H   0  0  0  0  0  0  0  0  0  0  0  0
  151.8142  141.0901  158.2212 H   0  0  0  0  0  0  0  0  0  0  0  0
  152.7837  142.0225  157.1024 H   0  0  0  0  0  0  0  0  0  0  0  0
  151.8395  143.4361  158.9570 H   0  0  0  0  0  0  0  0  0  0  0  0
  151.3233  143.9867  157.3810 H   0  0  0  0  0  0  0  0  0  0  0  0
  149.6689  142.2630  159.3055 H   0  0  0  0  0  0  0  0  0  0  0  0
  149.3776  143.9468  158.9121 H   0  0  0  0  0  0  0  0  0  0  0  0
  147.9717  142.4932  157.6670 H   0  0  0  0  0  0  0  0  0  0  0  0
  148.7374  141.1119  155.8864 H   0  0  0  0  0  0  0  0  0  0  0  0
  149.2377  140.5206  157.4594 H   0  0  0  0  0  0  0  0  0  0  0  0
  148.9677  143.3279  156.6626 H   0  0  0  0  0  0  0  0  0  0  0  0
  1 11  1  0  0  0  0
  1  2  2  0  0  0  0
  1 12  1  0  0  0  0
  2  3  1  0  0  0  0
  2 13  1  0  0  0  0
  3  4  1  0  0  0  0
  4  5  1  0  0  0  0
  4 11  2  0  0  0  0
  5 10  1  0  0  0  0
  5  6  1  0  0  0  0
  5 14  1  0  0  0  0
  6  7  1  0  0  0  0
  6 15  1  0  0  0  0
  6 16  1  0  0  0  0
  7  8  1  0  0  0  0
  7 17  1  0  0  0  0
  7 18  1  0  0  0  0
  8  9  1  0  0  0  0
  8 19  1  0  0  0  0
  8 20  1  0  0  0  0
  9 10  1  0  0  0  0
  9 21  1  0  0  0  0
  9 24  1  0  0  0  0
 10 22  1  0  0  0  0
 10 23  1  0  0  0  0
M  CHG  1   9   1
M  END
> <s_m_source_file>
AV-unprocessed.smi

> <i_m_source_file_index>
3073

> <i_lp_mmshare_version>
43012

> <i_f3d_flags>
0

> <s_epik_input>
bjFbY0hdW2NIXXNjMVtDQEBIXTJbQ0gyXVtDSDJdW0NIMl1bTkhdW0NIMl0y

> <s_epik_cmdline>
J2VwaWtfcHl0aG9uJywgJy1waCcsICc3LjAnLCAnLXRuJywgJzgnLCAnLW1hJywgJzIwMCcsICctbWV0YWxfYmluZGluZycsICctaW1hZScsICc8aW5maWxlLm1hZT4nLCAnLW9tYWUnLCAnPG91dGZpbGUubWFlPic=

> <r_lp_tautomer_probability>
1

> <r_epik_Ionization_Penalty>
0.00043192

> <r_epik_Ionization_Penalty_Charging>
0.000426856

> <r_epik_Ionization_Penalty_Neutral>
5.06388e-06

> <r_epik_State_Penalty>
-0

> <r_epik_Charging_Adjusted_Penalty>
0.000426856

> <i_epik_Tot_Q>
1

> <i_epik_Tot_abs_Q>
1

> <r_epik_Metal_State_Penalty>
-0

> <b_epik_Metal_Only>
0

> <s_lp_Force_Field>
OPLS_2005

> <r_lp_Energy>
4.76757

> <b_lp_Chiralities_Consistent>
1

> <s_lp_Variant>
AV-unprocessed.smi:3073-1

> <Gold.Version>
5.8.1

> <Gold.Id.Protein>
6NUR|6NUR_protein|mol2

> <Gold.PLP.Fitness>
34.9757

> <Gold.PLP.PLP>
-23.3375

> <Gold.PLP.part.hbond>
-2.0000

> <Gold.PLP.part.metal>
0.0000

> <Gold.PLP.part.buried>
-2.3175

> <Gold.PLP.part.nonpolar>
-17.8459

> <Gold.PLP.part.repulsive>
0.0398

> <Gold.PLP.ligand.clash>
0.0000

> <Gold.PLP.ligand.torsion>
0.2075

> <Gold.PLP.Chemscore.Hbond>
3.0000

> <Gold.PLP.Chemscore.CHOScore>
1.0000

> <Gold.PLP.Chemscore.Metal>
0.0000

> <Gold.Chemscore.Hbonds>
donor molecule, donor type, donor heavy atom, donor atom, acceptor molecule, acceptor atom, score
      L1  H     9    24       P1  8028  2.00
      P1  H  7997  8010       L1    11  0.90
      L1  C     2    13       P1  7949  0.93

> <Gold.PLP.Chemscore.Internal.Correction>
0.0531

> <Gold.Rescore>
     Score         DG    S(hbond)    S(metal)    S(lipo)     H(rot)  DE(clash)    DE(int)     intcor
     15.93     -17.01       1.83        0.00      68.17       1.00       0.81       0.27       ----

> <Gold.Chemscore.Fitness>
15.9291

> <Gold.Chemscore.DG>
-17.0091

> <Gold.Chemscore.ZeroCoef>
-5.4800

> <Gold.Chemscore.Hbond>
1.8305

> <Gold.Chemscore.Metal>
0.0000

> <Gold.Chemscore.Lipo>
68.1654

> <Gold.Chemscore.Internal_Hbond>
0.0000

> <Gold.Chemscore.DEClash>
0.8088

> <Gold.Chemscore.DEInternal>
0.2712

> <Gold.Chemscore.Rot>
1.0000

> <Gold.Chemscore.Internal.Correction>
   9.000000E+99

> <Gold.Chemscore.Hbonds>
donor molecule, donor type, donor heavy atom, donor atom, acceptor molecule, acceptor atom, score
      L1  H     9    24       P1  8028  0.93
      P1  H  7997  8010       L1    11  0.17

> <Gold.Chemscore.Hbond.Weighted>
-6.1137

> <Gold.Chemscore.Metal.Weighted>
-0.0000

> <Gold.Chemscore.Lipo.Weighted>
-7.9754

> <Gold.Chemscore.Internal_Hbond.Weighted>
0.0000

> <Gold.Chemscore.DEClash.Weighted>
0.8088

> <Gold.Chemscore.DEInternal.Weighted>
0.2712

> <Gold.Chemscore.Rot.Weighted>
2.5600

> <Gold.Chemscore.Internal.Correction.Weighted>
   9.000000E+99

> <Gold.Protein.RotatedTorsions>
[ 6907 6896 6895 6894 ] final   10.10 input  -60.11 | X-H torsion
[ 7974 7965 7964 7962 ] final  -65.41 input  175.53 | X-H torsion
[ 8008 7997 7996 7995 ] final   92.66 input   59.86 | X-H torsion
[ 10167 10162 10161 10158 ] final  -12.61 input  -65.29 | X-H torsion
[ 10718 10713 10712 10709 ] final  -77.89 input   66.30 | X-H torsion
[ 10763 10752 10751 10750 ] final  109.57 input  -60.55 | X-H torsion
[ 11005 11000 10999 10996 ] final   78.21 input  -57.11 | X-H torsion

> <Gold.Protein.ActiveResidues>
 VAL166  LYS551  ARG553  GLY616  TRP617  ASP618  TYR619  PRO620  LYS621  CYS622 
 ASP623  PHE694  ASN695  SER759  ASP760  ASP761  ALA762  ILE779  LEU786  VAL792 
 PHE793  MET794  SER795  GLU796  ALA797  LYS798  CYS799  TRP800  GLU811  SER814 

> <Gold.Protein.RotatedAtoms>
  151.7329  135.0871  160.0302 H   0  0  0  0  0  0  0  0  0  0  0  0  # atno 6907 bound_to 6896
  152.3530  133.6198  159.5967 H   0  0  0  0  0  0  0  0  0  0  0  0  # atno 6908 bound_to 6896
  150.7552  133.9461  159.3513 H   0  0  0  0  0  0  0  0  0  0  0  0  # atno 6909 bound_to 6896
  145.7546  140.8891  143.0462 H   0  0  0  0  0  0  0  0  0  0  0  0  # atno 7974 bound_to 7965
  156.0379  140.3322  155.7211 H   0  0  0  0  0  0  0  0  0  0  0  0  # atno 8008 bound_to 7997
  155.5788  140.0635  157.2806 H   0  0  0  0  0  0  0  0  0  0  0  0  # atno 8009 bound_to 7997
  154.4380  140.1847  156.0943 H   0  0  0  0  0  0  0  0  0  0  0  0  # atno 8010 bound_to 7997
  140.7165  143.5514  150.9297 H   0  0  0  0  0  0  0  0  0  0  0  0  # atno 10167 bound_to 10162
  156.0132  130.4503  150.3413 H   0  0  0  0  0  0  0  0  0  0  0  0  # atno 10718 bound_to 10713
  153.4367  135.3776  155.2203 H   0  0  0  0  0  0  0  0  0  0  0  0  # atno 10763 bound_to 10752
  154.8752  135.3853  154.4203 H   0  0  0  0  0  0  0  0  0  0  0  0  # atno 10764 bound_to 10752
  153.4743  135.7087  153.6038 H   0  0  0  0  0  0  0  0  0  0  0  0  # atno 10765 bound_to 10752
  139.9222  134.7745  156.1620 H   0  0  0  0  0  0  0  0  0  0  0  0  # atno 11005 bound_to 11000
  144.6842  139.9638  143.7481 LP  0  0  0  0  0  0  0  0  0  0  0  0  # atno 17320 bound_to 7965
  146.0323  139.3346  143.0747 LP  0  0  0  0  0  0  0  0  0  0  0  0  # atno 17321 bound_to 7965
  139.9238  143.6574  152.3091 LP  0  0  0  0  0  0  0  0  0  0  0  0  # atno 17342 bound_to 10162
  139.7000  144.7636  151.1289 LP  0  0  0  0  0  0  0  0  0  0  0  0  # atno 17343 bound_to 10162
  157.1509  131.0320  151.2885 LP  0  0  0  0  0  0  0  0  0  0  0  0  # atno 17370 bound_to 10713
  157.4393  130.7535  149.7056 LP  0  0  0  0  0  0  0  0  0  0  0  0  # atno 17371 bound_to 10713
  141.0752  133.6779  156.2221 LP  0  0  0  0  0  0  0  0  0  0  0  0  # atno 17394 bound_to 11000
  140.6441  134.5135  157.5572 LP  0  0  0  0  0  0  0  0  0  0  0  0  # atno 17395 bound_to 11000

$$$$
