AV-unprocessed.smi:83|AV-procd|sdf|806|dock9
  -GOLD-   2262017203D 1   1.00000     0.00000
 Structure written by MMmdl.
 56 59  0  0  0  0  0  0  0  0  1 V2000
  144.1218  132.2954  151.9847 C   0  0  0  0  0  0  0  0  0  0  0  0
  144.9742  133.3718  151.3100 C   0  0  0  0  0  0  0  0  0  0  0  0
  145.8518  133.0277  150.5189 O   0  0  0  0  0  0  0  0  0  0  0  0
  144.7340  134.6647  151.6077 N   0  0  0  0  0  0  0  0  0  0  0  0
  143.7008  135.1064  152.5406 C   0  0  0  0  0  0  0  0  0  0  0  0
  143.7512  136.6372  152.5114 C   0  0  0  0  0  0  0  0  0  0  0  0
  145.1812  136.9632  152.0812 C   0  0  1  0  0  0  0  0  0  0  0  0
  146.1110  137.0140  153.3185 C   0  0  0  0  0  0  0  0  0  0  0  0
  146.7240  138.3219  153.5569 N   0  0  0  0  0  0  0  0  0  0  0  0
  146.4390  139.3759  152.5851 C   0  0  0  0  0  0  0  0  0  0  0  0
  147.8112  138.4575  154.3741 C   0  0  0  0  0  0  0  0  0  0  0  0
  148.2048  137.3755  155.1011 N   0  0  0  0  0  0  0  0  0  0  0  0
  149.2319  137.4503  155.9505 C   0  0  0  0  0  0  0  0  0  0  0  0
  150.0037  138.4987  156.2320 N   0  0  0  0  0  0  0  0  0  0  0  0
  149.6348  139.5884  155.5025 C   0  0  0  0  0  0  0  0  0  0  0  0
  148.5702  139.6578  154.5551 C   0  0  0  0  0  0  0  0  0  0  0  0
  148.5290  140.9406  154.0154 N   0  0  0  0  0  0  0  0  0  0  0  0
  149.4874  141.5883  154.6164 C   0  0  0  0  0  0  0  0  0  0  0  0
  150.2012  140.8497  155.5283 N   0  0  0  0  0  0  0  0  0  0  0  0
  151.3147  141.3083  156.3388 C   0  0  0  0  0  0  0  0  0  0  0  0
  150.9852  142.6031  157.1060 C   0  0  1  0  0  0  0  0  0  0  0  0
  149.9638  142.3733  158.0597 O   0  0  0  0  0  0  0  0  0  0  0  0
  152.2208  143.2338  157.7800 C   0  0  1  0  0  0  0  0  0  0  0  0
  152.0246  144.6556  158.3339 C   0  0  0  0  0  0  0  0  0  0  0  0
  152.2724  144.4957  159.8222 C   0  0  0  0  0  0  0  0  0  0  0  0
  153.1978  143.2873  159.8704 C   0  0  0  0  0  0  0  0  0  0  0  0
  152.6626  142.4324  158.8734 O   0  0  0  0  0  0  0  0  0  0  0  0
  145.4797  135.8153  151.1036 C   0  0  0  0  0  0  0  0  0  0  0  0
  144.1241  132.4203  153.0678 H   0  0  0  0  0  0  0  0  0  0  0  0
  144.5095  131.3010  151.7607 H   0  0  0  0  0  0  0  0  0  0  0  0
  143.0926  132.3418  151.6295 H   0  0  0  0  0  0  0  0  0  0  0  0
  142.7145  134.7328  152.2615 H   0  0  0  0  0  0  0  0  0  0  0  0
  143.9361  134.7333  153.5387 H   0  0  0  0  0  0  0  0  0  0  0  0
  143.0540  137.0070  151.7586 H   0  0  0  0  0  0  0  0  0  0  0  0
  143.4705  137.0871  153.4644 H   0  0  0  0  0  0  0  0  0  0  0  0
  145.2168  137.9250  151.5682 H   0  0  0  0  0  0  0  0  0  0  0  0
  145.5124  136.7828  154.2001 H   0  0  0  0  0  0  0  0  0  0  0  0
  146.8411  136.2126  153.2859 H   0  0  0  0  0  0  0  0  0  0  0  0
  146.3781  140.3491  153.0738 H   0  0  0  0  0  0  0  0  0  0  0  0
  145.4867  139.1994  152.0844 H   0  0  0  0  0  0  0  0  0  0  0  0
  147.2163  139.4166  151.8212 H   0  0  0  0  0  0  0  0  0  0  0  0
  149.4644  136.5408  156.4845 H   0  0  0  0  0  0  0  0  0  0  0  0
  149.7023  142.6264  154.4083 H   0  0  0  0  0  0  0  0  0  0  0  0
  151.5915  140.5109  157.0297 H   0  0  0  0  0  0  0  0  0  0  0  0
  152.1722  141.4644  155.6833 H   0  0  0  0  0  0  0  0  0  0  0  0
  150.5871  143.3308  156.3977 H   0  0  0  0  0  0  0  0  0  0  0  0
  149.2026  142.0410  157.6090 H   0  0  0  0  0  0  0  0  0  0  0  0
  153.0361  143.2592  157.0549 H   0  0  0  0  0  0  0  0  0  0  0  0
  152.7698  145.3250  157.9020 H   0  0  0  0  0  0  0  0  0  0  0  0
  151.0428  145.0800  158.1221 H   0  0  0  0  0  0  0  0  0  0  0  0
  152.7040  145.3842  160.2835 H   0  0  0  0  0  0  0  0  0  0  0  0
  151.3366  144.2647  160.3330 H   0  0  0  0  0  0  0  0  0  0  0  0
  154.2184  143.5667  159.6035 H   0  0  0  0  0  0  0  0  0  0  0  0
  153.2146  142.8047  160.8478 H   0  0  0  0  0  0  0  0  0  0  0  0
  146.5426  135.6222  150.9826 H   0  0  0  0  0  0  0  0  0  0  0  0
  145.0900  136.0611  150.1150 H   0  0  0  0  0  0  0  0  0  0  0  0
  1  2  1  0  0  0  0
  1 29  1  0  0  0  0
  1 30  1  0  0  0  0
  1 31  1  0  0  0  0
  2  3  2  0  0  0  0
  2  4  1  0  0  0  0
  4 28  1  0  0  0  0
  4  5  1  0  0  0  0
  5  6  1  0  0  0  0
  5 32  1  0  0  0  0
  5 33  1  0  0  0  0
  6  7  1  0  0  0  0
  6 34  1  0  0  0  0
  6 35  1  0  0  0  0
  7  8  1  0  0  0  0
  7 28  1  0  0  0  0
  7 36  1  0  0  0  0
  8  9  1  0  0  0  0
  8 37  1  0  0  0  0
  8 38  1  0  0  0  0
  9 10  1  0  0  0  0
  9 11  1  0  0  0  0
 10 39  1  0  0  0  0
 10 40  1  0  0  0  0
 10 41  1  0  0  0  0
 11 16  1  0  0  0  0
 11 12  2  0  0  0  0
 12 13  1  0  0  0  0
 13 14  2  0  0  0  0
 13 42  1  0  0  0  0
 14 15  1  0  0  0  0
 15 19  1  0  0  0  0
 15 16  2  0  0  0  0
 16 17  1  0  0  0  0
 17 18  2  0  0  0  0
 18 19  1  0  0  0  0
 18 43  1  0  0  0  0
 19 20  1  0  0  0  0
 20 21  1  0  0  0  0
 20 44  1  0  0  0  0
 20 45  1  0  0  0  0
 21 22  1  0  0  0  0
 21 23  1  0  0  0  0
 21 46  1  0  0  0  0
 22 47  1  0  0  0  0
 23 27  1  0  0  0  0
 23 24  1  0  0  0  0
 23 48  1  0  0  0  0
 24 25  1  0  0  0  0
 24 49  1  0  0  0  0
 24 50  1  0  0  0  0
 25 26  1  0  0  0  0
 25 51  1  0  0  0  0
 25 52  1  0  0  0  0
 26 27  1  0  0  0  0
 26 53  1  0  0  0  0
 26 54  1  0  0  0  0
 28 55  1  0  0  0  0
 28 56  1  0  0  0  0
M  END
> <s_m_source_file>
AV-unprocessed.smi

> <i_m_source_file_index>
83

> <i_lp_mmshare_version>
43012

> <i_f3d_flags>
0

> <s_epik_input>
W0NIM11DKD1PKU4xW0NIMl1bQ0gyXVtDQEhdKFtDSDJdMSlbQ0gyXU4oW0NIM10pYyhuW2NIXW4yKWMoYzIzKW5bY0hdbjNbQ0gyXVtDQEhdKFtPSF0pW0NAQEhdNFtDSDJdW0NIMl1bQ0gyXU80

> <s_epik_cmdline>
J2VwaWtfcHl0aG9uJywgJy1waCcsICc3LjAnLCAnLXRuJywgJzgnLCAnLW1hJywgJzIwMCcsICctbWV0YWxfYmluZGluZycsICctaW1hZScsICc8aW5maWxlLm1hZT4nLCAnLW9tYWUnLCAnPG91dGZpbGUubWFlPic=

> <r_lp_tautomer_probability>
1

> <r_epik_Ionization_Penalty>
0.00109752

> <r_epik_Ionization_Penalty_Charging>
0

> <r_epik_Ionization_Penalty_Neutral>
0.00109752

> <r_epik_State_Penalty>
0.000634803

> <r_epik_Charging_Adjusted_Penalty>
0.000634803

> <i_epik_Tot_Q>
0

> <i_epik_Tot_abs_Q>
0

> <r_epik_Metal_State_Penalty>
-0

> <b_epik_Metal_Only>
0

> <s_lp_Force_Field>
OPLS_2005

> <r_lp_Energy>
56.5247

> <b_lp_Chiralities_Consistent>
1

> <s_lp_Variant>
AV-unprocessed.smi:83-7

> <Gold.Version>
5.8.1

> <Gold.Id.Protein>
6NUR|6NUR_protein|mol2

> <Gold.PLP.Fitness>
47.7568

> <Gold.PLP.PLP>
-46.4461

> <Gold.PLP.part.hbond>
0.0000

> <Gold.PLP.part.metal>
0.0000

> <Gold.PLP.part.buried>
-3.4170

> <Gold.PLP.part.nonpolar>
-42.8574

> <Gold.PLP.part.repulsive>
0.6764

> <Gold.PLP.ligand.clash>
0.0000

> <Gold.PLP.ligand.torsion>
1.0699

> <Gold.PLP.Chemscore.Hbond>
0.0000

> <Gold.PLP.Chemscore.CHOScore>
1.0000

> <Gold.PLP.Chemscore.Metal>
0.0000

> <Gold.Chemscore.Hbonds>
donor molecule, donor type, donor heavy atom, donor atom, acceptor molecule, acceptor atom, score
      L1  C    18    43       P1  8028  0.93

> <Gold.PLP.Chemscore.Internal.Correction>
0.4506

> <Gold.Rescore>
     Score         DG    S(hbond)    S(metal)    S(lipo)     H(rot)  DE(clash)    DE(int)     intcor
      8.20     -11.43       0.00        0.00     108.10       2.62       1.06       2.16       ----

> <Gold.Chemscore.Fitness>
8.2044

> <Gold.Chemscore.DG>
-11.4330

> <Gold.Chemscore.ZeroCoef>
-5.4800

> <Gold.Chemscore.Hbond>
0.0000

> <Gold.Chemscore.Metal>
0.0000

> <Gold.Chemscore.Lipo>
108.1018

> <Gold.Chemscore.Internal_Hbond>
0.0000

> <Gold.Chemscore.DEClash>
1.0640

> <Gold.Chemscore.DEInternal>
2.1646

> <Gold.Chemscore.Rot>
2.6152

> <Gold.Chemscore.Internal.Correction>
   9.000000E+99

> <Gold.Chemscore.Hbond.Weighted>
-0.0000

> <Gold.Chemscore.Metal.Weighted>
-0.0000

> <Gold.Chemscore.Lipo.Weighted>
-12.6479

> <Gold.Chemscore.Internal_Hbond.Weighted>
0.0000

> <Gold.Chemscore.DEClash.Weighted>
1.0640

> <Gold.Chemscore.DEInternal.Weighted>
2.1646

> <Gold.Chemscore.Rot.Weighted>
6.6949

> <Gold.Chemscore.Internal.Correction.Weighted>
   9.000000E+99

> <Gold.Protein.RotatedTorsions>
[ 6907 6896 6895 6894 ] final  -89.18 input  -60.11 | X-H torsion
[ 7974 7965 7964 7962 ] final   21.82 input  175.53 | X-H torsion
[ 8008 7997 7996 7995 ] final -163.24 input   59.86 | X-H torsion
[ 10167 10162 10161 10158 ] final   34.00 input  -65.29 | X-H torsion
[ 10718 10713 10712 10709 ] final -137.86 input   66.30 | X-H torsion
[ 10763 10752 10751 10750 ] final  126.46 input  -60.55 | X-H torsion
[ 11005 11000 10999 10996 ] final  149.57 input  -57.11 | X-H torsion

> <Gold.Protein.ActiveResidues>
 VAL166  LYS551  ARG553  GLY616  TRP617  ASP618  TYR619  PRO620  LYS621  CYS622 
 ASP623  PHE694  ASN695  SER759  ASP760  ASP761  ALA762  ILE779  LEU786  VAL792 
 PHE793  MET794  SER795  GLU796  ALA797  LYS798  CYS799  TRP800  GLU811  SER814 

> <Gold.Protein.RotatedAtoms>
  150.6872  134.2627  159.4555 H   0  0  0  0  0  0  0  0  0  0  0  0  # atno 6907 bound_to 6896
  152.0556  134.9624  160.0584 H   0  0  0  0  0  0  0  0  0  0  0  0  # atno 6908 bound_to 6896
  152.1071  133.4246  159.4651 H   0  0  0  0  0  0  0  0  0  0  0  0  # atno 6909 bound_to 6896
  146.2055  139.7972  142.8729 H   0  0  0  0  0  0  0  0  0  0  0  0  # atno 7974 bound_to 7965
  155.8184  140.0916  157.1863 H   0  0  0  0  0  0  0  0  0  0  0  0  # atno 8008 bound_to 7997
  154.3979  140.1441  156.3531 H   0  0  0  0  0  0  0  0  0  0  0  0  # atno 8009 bound_to 7997
  155.8292  140.3443  155.5564 H   0  0  0  0  0  0  0  0  0  0  0  0  # atno 8010 bound_to 7997
  140.4355  144.1263  150.6165 H   0  0  0  0  0  0  0  0  0  0  0  0  # atno 10167 bound_to 10162
  156.2928  130.7384  151.1415 H   0  0  0  0  0  0  0  0  0  0  0  0  # atno 10718 bound_to 10713
  153.6937  135.3294  155.3208 H   0  0  0  0  0  0  0  0  0  0  0  0  # atno 10763 bound_to 10752
  154.8433  135.4437  154.1482 H   0  0  0  0  0  0  0  0  0  0  0  0  # atno 10764 bound_to 10752
  153.2530  135.6983  153.7736 H   0  0  0  0  0  0  0  0  0  0  0  0  # atno 10765 bound_to 10752
  140.1056  134.8956  157.1860 H   0  0  0  0  0  0  0  0  0  0  0  0  # atno 11005 bound_to 11000
  145.3335  141.0272  143.3433 LP  0  0  0  0  0  0  0  0  0  0  0  0  # atno 17320 bound_to 7965
  144.8782  139.4941  143.6735 LP  0  0  0  0  0  0  0  0  0  0  0  0  # atno 17321 bound_to 7965
  140.4378  143.2539  151.9512 LP  0  0  0  0  0  0  0  0  0  0  0  0  # atno 17342 bound_to 10162
  139.4787  144.5683  151.8129 LP  0  0  0  0  0  0  0  0  0  0  0  0  # atno 17343 bound_to 10162
  157.7347  131.0579  150.5510 LP  0  0  0  0  0  0  0  0  0  0  0  0  # atno 17370 bound_to 10713
  156.5628  130.4260  149.6055 LP  0  0  0  0  0  0  0  0  0  0  0  0  # atno 17371 bound_to 10713
  140.3161  134.2969  155.7256 LP  0  0  0  0  0  0  0  0  0  0  0  0  # atno 17394 bound_to 11000
  141.2117  133.7680  156.9845 LP  0  0  0  0  0  0  0  0  0  0  0  0  # atno 17395 bound_to 11000

$$$$
