AV-unprocessed.smi:258|AV-procd|sdf|1970|dock3
  -GOLD-   2262021133D 1   1.00000     0.00000
 Structure written by MMmdl.
 57 60  0  0  0  0  0  0  0  0  1 V2000
  151.6667  142.7117  161.9823 O   0  0  0  0  0  0  0  0  0  0  0  0
  152.3174  142.7514  160.7308 C   0  0  0  0  0  0  0  0  0  0  0  0
  153.3186  141.5905  160.6277 C   0  0  0  0  0  0  0  0  0  0  0  0
  153.0883  140.8205  159.4546 O   0  0  0  0  0  0  0  0  0  0  0  0
  151.7264  140.5037  159.1921 C   0  0  1  0  0  0  0  0  0  0  0  0
  151.2548  141.3907  158.0286 C   0  0  0  0  0  0  0  0  0  0  0  0
  149.8191  141.0227  157.6255 C   0  0  0  0  0  0  0  0  0  0  0  0
  149.7090  139.5262  157.2924 C   0  0  0  0  0  0  0  0  0  0  0  0
  150.2158  138.7077  158.3936 N   0  0  0  0  0  0  0  0  0  0  0  0
  149.8540  137.4006  158.3372 C   0  0  0  0  0  0  0  0  0  0  0  0
  150.2034  136.6445  157.2617 N   0  0  0  0  0  0  0  0  0  0  0  0
  149.8411  135.3603  157.1919 C   0  0  0  0  0  0  0  0  0  0  0  0
  149.1441  134.6413  158.0731 N   0  0  0  0  0  0  0  0  0  0  0  0
  148.7998  135.3895  159.1597 C   0  0  0  0  0  0  0  0  0  0  0  0
  149.1079  136.7638  159.3690 C   0  0  0  0  0  0  0  0  0  0  0  0
  148.5953  137.1815  160.5918 N   0  0  0  0  0  0  0  0  0  0  0  0
  148.0098  136.1190  161.0728 C   0  0  0  0  0  0  0  0  0  0  0  0
  148.1020  134.9921  160.2870 N   0  0  0  0  0  0  0  0  0  0  0  0
  147.5415  133.6839  160.5767 C   0  0  0  0  0  0  0  0  0  0  0  0
  146.6918  133.6065  161.8762 C   0  0  2  0  0  0  0  0  0  0  0  0
  146.5667  132.1261  162.3123 C   0  0  0  0  0  0  0  0  0  0  0  0
  145.9465  131.3443  161.3123 O   0  0  0  0  0  0  0  0  0  0  0  0
  145.2935  134.2799  161.7340 C   0  0  1  0  0  0  0  0  0  0  0  0
  144.2042  133.7055  162.6286 C   0  0  0  0  0  0  0  0  0  0  0  0
  143.1624  134.8134  162.6251 C   0  0  0  0  0  0  0  0  0  0  0  0
  143.9261  136.0072  162.6696 O   0  0  0  0  0  0  0  0  0  0  0  0
  145.2228  135.7655  162.1315 C   0  0  0  0  0  0  0  0  0  0  0  0
  151.5834  139.0141  158.8186 C   0  0  0  0  0  0  0  0  0  0  0  0
  152.2446  143.0797  162.6330 H   0  0  0  0  0  0  0  0  0  0  0  0
  151.5667  142.7028  159.9427 H   0  0  0  0  0  0  0  0  0  0  0  0
  152.8326  143.7070  160.6318 H   0  0  0  0  0  0  0  0  0  0  0  0
  154.3273  141.9979  160.5520 H   0  0  0  0  0  0  0  0  0  0  0  0
  153.3023  140.9728  161.5261 H   0  0  0  0  0  0  0  0  0  0  0  0
  151.1051  140.7231  160.0615 H   0  0  0  0  0  0  0  0  0  0  0  0
  151.3075  142.4425  158.3117 H   0  0  0  0  0  0  0  0  0  0  0  0
  151.9191  141.2631  157.1729 H   0  0  0  0  0  0  0  0  0  0  0  0
  149.1361  141.2659  158.4404 H   0  0  0  0  0  0  0  0  0  0  0  0
  149.5059  141.6194  156.7687 H   0  0  0  0  0  0  0  0  0  0  0  0
  148.6723  139.2853  157.0599 H   0  0  0  0  0  0  0  0  0  0  0  0
  150.2891  139.3025  156.3961 H   0  0  0  0  0  0  0  0  0  0  0  0
  150.1553  134.8336  156.3028 H   0  0  0  0  0  0  0  0  0  0  0  0
  147.5038  136.1253  162.0274 H   0  0  0  0  0  0  0  0  0  0  0  0
  146.9394  133.3694  159.7233 H   0  0  0  0  0  0  0  0  0  0  0  0
  148.3807  132.9897  160.6261 H   0  0  0  0  0  0  0  0  0  0  0  0
  147.2269  134.1256  162.6723 H   0  0  0  0  0  0  0  0  0  0  0  0
  147.5429  131.6767  162.4894 H   0  0  0  0  0  0  0  0  0  0  0  0
  146.0008  132.0411  163.2405 H   0  0  0  0  0  0  0  0  0  0  0  0
  145.3406  131.8906  160.8350 H   0  0  0  0  0  0  0  0  0  0  0  0
  144.9559  134.1824  160.7010 H   0  0  0  0  0  0  0  0  0  0  0  0
  143.7982  132.7619  162.2630 H   0  0  0  0  0  0  0  0  0  0  0  0
  144.5803  133.5507  163.6412 H   0  0  0  0  0  0  0  0  0  0  0  0
  142.5846  134.7940  161.7000 H   0  0  0  0  0  0  0  0  0  0  0  0
  142.4701  134.7464  163.4644 H   0  0  0  0  0  0  0  0  0  0  0  0
  145.9547  136.0076  162.9026 H   0  0  0  0  0  0  0  0  0  0  0  0
  145.3962  136.4241  161.2816 H   0  0  0  0  0  0  0  0  0  0  0  0
  152.2730  138.7667  158.0102 H   0  0  0  0  0  0  0  0  0  0  0  0
  151.8493  138.3892  159.6716 H   0  0  0  0  0  0  0  0  0  0  0  0
  1  2  1  0  0  0  0
  1 29  1  0  0  0  0
  2  3  1  0  0  0  0
  2 30  1  0  0  0  0
  2 31  1  0  0  0  0
  3  4  1  0  0  0  0
  3 32  1  0  0  0  0
  3 33  1  0  0  0  0
  4  5  1  0  0  0  0
  5 28  1  0  0  0  0
  5  6  1  0  0  0  0
  5 34  1  0  0  0  0
  6  7  1  0  0  0  0
  6 35  1  0  0  0  0
  6 36  1  0  0  0  0
  7  8  1  0  0  0  0
  7 37  1  0  0  0  0
  7 38  1  0  0  0  0
  8  9  1  0  0  0  0
  8 39  1  0  0  0  0
  8 40  1  0  0  0  0
  9 10  1  0  0  0  0
  9 28  1  0  0  0  0
 10 15  1  0  0  0  0
 10 11  2  0  0  0  0
 11 12  1  0  0  0  0
 12 13  2  0  0  0  0
 12 41  1  0  0  0  0
 13 14  1  0  0  0  0
 14 18  1  0  0  0  0
 14 15  2  0  0  0  0
 15 16  1  0  0  0  0
 16 17  2  0  0  0  0
 17 18  1  0  0  0  0
 17 42  1  0  0  0  0
 18 19  1  0  0  0  0
 19 20  1  0  0  0  0
 19 43  1  0  0  0  0
 19 44  1  0  0  0  0
 20 21  1  0  0  0  0
 20 23  1  0  0  0  0
 20 45  1  0  0  0  0
 21 22  1  0  0  0  0
 21 46  1  0  0  0  0
 21 47  1  0  0  0  0
 22 48  1  0  0  0  0
 23 27  1  0  0  0  0
 23 24  1  0  0  0  0
 23 49  1  0  0  0  0
 24 25  1  0  0  0  0
 24 50  1  0  0  0  0
 24 51  1  0  0  0  0
 25 26  1  0  0  0  0
 25 52  1  0  0  0  0
 25 53  1  0  0  0  0
 26 27  1  0  0  0  0
 27 54  1  0  0  0  0
 27 55  1  0  0  0  0
 28 56  1  0  0  0  0
 28 57  1  0  0  0  0
M  END
> <s_m_source_file>
AV-unprocessed.smi

> <i_m_source_file_index>
258

> <i_lp_mmshare_version>
43012

> <i_f3d_flags>
0

> <s_epik_input>
W09IXVtDSDJdW0NIMl1PW0NAQEhdMVtDSDJdW0NIMl1bQ0gyXU4oW0NIMl0xKWMobltjSF1uMiljKGMyMyluW2NIXW4zW0NIMl1bQ0BIXShbQ0gyXVtPSF0pW0NAQEhdNFtDSDJdW0NIMl1PW0NIMl00

> <s_epik_cmdline>
J2VwaWtfcHl0aG9uJywgJy1waCcsICc3LjAnLCAnLXRuJywgJzgnLCAnLW1hJywgJzIwMCcsICctbWV0YWxfYmluZGluZycsICctaW1hZScsICc8aW5maWxlLm1hZT4nLCAnLW9tYWUnLCAnPG91dGZpbGUubWFlPic=

> <r_lp_tautomer_probability>
1

> <r_epik_Ionization_Penalty>
0.00349036

> <r_epik_Ionization_Penalty_Charging>
0

> <r_epik_Ionization_Penalty_Neutral>
0.00349036

> <r_epik_State_Penalty>
0.00229798

> <r_epik_Charging_Adjusted_Penalty>
0.00229798

> <i_epik_Tot_Q>
0

> <i_epik_Tot_abs_Q>
0

> <r_epik_Metal_State_Penalty>
-0

> <b_epik_Metal_Only>
0

> <s_lp_Force_Field>
OPLS_2005

> <r_lp_Energy>
44.143

> <b_lp_Chiralities_Consistent>
1

> <s_lp_Variant>
AV-unprocessed.smi:258-6

> <Gold.Version>
5.8.1

> <Gold.Id.Protein>
6NUR|6NUR_protein|mol2

> <Gold.PLP.Fitness>
44.8285

> <Gold.PLP.PLP>
-42.4957

> <Gold.PLP.part.hbond>
-4.1021

> <Gold.PLP.part.metal>
0.0000

> <Gold.PLP.part.buried>
-6.3917

> <Gold.PLP.part.nonpolar>
-32.4893

> <Gold.PLP.part.repulsive>
0.0650

> <Gold.PLP.ligand.clash>
0.0000

> <Gold.PLP.ligand.torsion>
2.3377

> <Gold.PLP.Chemscore.Hbond>
2.1427

> <Gold.PLP.Chemscore.CHOScore>
0.0000

> <Gold.PLP.Chemscore.Metal>
0.0000

> <Gold.Chemscore.Hbonds>
donor molecule, donor type, donor heavy atom, donor atom, acceptor molecule, acceptor atom, score
      P1  H  6896  6909       L1    13  0.09
      P1  H  6931  6943       L1    16  0.75
      P1  H  6933  6945       L1     1  0.83
      P1  H  6934  6947       L1    16  0.12

> <Gold.PLP.Chemscore.Internal.Correction>
0.5801

> <Gold.Rescore>
     Score         DG    S(hbond)    S(metal)    S(lipo)     H(rot)  DE(clash)    DE(int)     intcor
      7.84     -10.85       1.87        0.00      84.99       4.22       0.57       2.44       ----

> <Gold.Chemscore.Fitness>
7.8382

> <Gold.Chemscore.DG>
-10.8454

> <Gold.Chemscore.ZeroCoef>
-5.4800

> <Gold.Chemscore.Hbond>
1.8670

> <Gold.Chemscore.Metal>
0.0000

> <Gold.Chemscore.Lipo>
84.9944

> <Gold.Chemscore.Internal_Hbond>
0.0000

> <Gold.Chemscore.DEClash>
0.5715

> <Gold.Chemscore.DEInternal>
2.4357

> <Gold.Chemscore.Rot>
4.2246

> <Gold.Chemscore.Internal.Correction>
   9.000000E+99

> <Gold.Chemscore.Hbonds>
donor molecule, donor type, donor heavy atom, donor atom, acceptor molecule, acceptor atom, score
      P1  H  6931  6943       L1    16  0.59
      P1  H  6933  6945       L1     1  0.80
      P1  H  6934  6947       L1    16  0.09

> <Gold.Chemscore.Hbond.Weighted>
-6.2359

> <Gold.Chemscore.Metal.Weighted>
-0.0000

> <Gold.Chemscore.Lipo.Weighted>
-9.9443

> <Gold.Chemscore.Internal_Hbond.Weighted>
0.0000

> <Gold.Chemscore.DEClash.Weighted>
0.5715

> <Gold.Chemscore.DEInternal.Weighted>
2.4357

> <Gold.Chemscore.Rot.Weighted>
10.8149

> <Gold.Chemscore.Internal.Correction.Weighted>
   9.000000E+99

> <Gold.Protein.RotatedTorsions>
[ 6907 6896 6895 6894 ] final   14.62 input  -60.11 | X-H torsion
[ 7974 7965 7964 7962 ] final   95.74 input  175.53 | X-H torsion
[ 8008 7997 7996 7995 ] final   53.60 input   59.86 | X-H torsion
[ 10167 10162 10161 10158 ] final   76.66 input  -65.29 | X-H torsion
[ 10718 10713 10712 10709 ] final -114.13 input   66.30 | X-H torsion
[ 10763 10752 10751 10750 ] final    6.18 input  -60.55 | X-H torsion
[ 11005 11000 10999 10996 ] final -109.66 input  -57.11 | X-H torsion

> <Gold.Protein.ActiveResidues>
 VAL166  LYS551  ARG553  GLY616  TRP617  ASP618  TYR619  PRO620  LYS621  CYS622 
 ASP623  PHE694  ASN695  SER759  ASP760  ASP761  ALA762  ILE779  LEU786  VAL792 
 PHE793  MET794  SER795  GLU796  ALA797  LYS798  CYS799  TRP800  GLU811  SER814 

> <Gold.Protein.RotatedAtoms>
  151.8052  135.0697  160.0405 H   0  0  0  0  0  0  0  0  0  0  0  0  # atno 6907 bound_to 6896
  152.3060  133.5699  159.5658 H   0  0  0  0  0  0  0  0  0  0  0  0  # atno 6908 bound_to 6896
  150.7296  134.0138  159.3720 H   0  0  0  0  0  0  0  0  0  0  0  0  # atno 6909 bound_to 6896
  145.4481  139.2295  143.3055 H   0  0  0  0  0  0  0  0  0  0  0  0  # atno 7974 bound_to 7965
  155.4710  140.3465  155.4326 H   0  0  0  0  0  0  0  0  0  0  0  0  # atno 8008 bound_to 7997
  156.1100  140.1458  156.9380 H   0  0  0  0  0  0  0  0  0  0  0  0  # atno 8009 bound_to 7997
  154.4750  140.0888  156.7218 H   0  0  0  0  0  0  0  0  0  0  0  0  # atno 8010 bound_to 7997
  139.9899  144.5765  150.7827 H   0  0  0  0  0  0  0  0  0  0  0  0  # atno 10167 bound_to 10162
  156.0810  130.6010  150.8734 H   0  0  0  0  0  0  0  0  0  0  0  0  # atno 10718 bound_to 10713
  153.2507  135.6913  153.7682 H   0  0  0  0  0  0  0  0  0  0  0  0  # atno 10763 bound_to 10752
  153.6778  135.3333  155.3171 H   0  0  0  0  0  0  0  0  0  0  0  0  # atno 10764 bound_to 10752
  154.8393  135.4515  154.1463 H   0  0  0  0  0  0  0  0  0  0  0  0  # atno 10765 bound_to 10752
  141.0835  133.9178  157.2236 H   0  0  0  0  0  0  0  0  0  0  0  0  # atno 11005 bound_to 11000
  146.2519  140.5237  142.8890 LP  0  0  0  0  0  0  0  0  0  0  0  0  # atno 17320 bound_to 7965
  144.8079  140.6332  143.6435 LP  0  0  0  0  0  0  0  0  0  0  0  0  # atno 17321 bound_to 7965
  140.7458  143.2882  151.3405 LP  0  0  0  0  0  0  0  0  0  0  0  0  # atno 17342 bound_to 10162
  139.6348  144.0652  152.2506 LP  0  0  0  0  0  0  0  0  0  0  0  0  # atno 17343 bound_to 10162
  157.5927  131.0944  150.9092 LP  0  0  0  0  0  0  0  0  0  0  0  0  # atno 17370 bound_to 10713
  156.9265  130.5334  149.5279 LP  0  0  0  0  0  0  0  0  0  0  0  0  # atno 17371 bound_to 10713
  139.9651  135.0144  156.9366 LP  0  0  0  0  0  0  0  0  0  0  0  0  # atno 17394 bound_to 11000
  140.5415  134.0716  155.7343 LP  0  0  0  0  0  0  0  0  0  0  0  0  # atno 17395 bound_to 11000

$$$$
