AV-unprocessed.smi:3243|AV-procd|sdf|12396|dock8
  -GOLD-   2272018263D 1   1.00000     0.00000
 Structure written by MMmdl.
 37 38  0  0  0  0  0  0  0  0  1 V2000
  151.9018  145.8608  159.6057 C   0  0  0  0  0  0  0  0  0  0  0  0
  151.2572  144.4858  159.3789 C   0  0  0  0  0  0  0  0  0  0  0  0
  149.7894  144.4270  159.8261 C   0  0  0  0  0  0  0  0  0  0  0  0
  152.0709  143.3781  159.9711 C   0  0  0  0  0  0  0  0  0  0  0  0
  152.5226  142.3330  159.2710 N   0  0  0  0  0  0  0  0  0  0  0  0
  153.2539  141.4333  160.0521 C   0  0  0  0  0  0  0  0  0  0  0  0
  153.8256  140.1964  159.4289 C   0  0  0  0  0  0  0  0  0  0  0  0
  152.7320  139.1929  159.0266 C   0  0  0  0  0  0  0  0  0  0  0  0
  152.6961  138.9850  157.5838 N   0  0  0  0  0  0  0  0  0  0  0  0
  152.0253  139.7512  156.7101 C   0  0  0  0  0  0  0  0  0  0  0  0
  151.3320  140.7110  157.0460 O   0  0  0  0  0  0  0  0  0  0  0  0
  152.1338  139.3024  155.2919 C   0  0  2  0  0  0  0  0  0  0  0  0
  150.8561  139.0091  154.5320 C   0  0  0  0  0  0  0  0  0  0  0  0
  151.7563  137.8689  154.9398 C   0  0  2  0  0  0  0  0  0  0  0  0
  151.2667  136.8424  155.9463 C   0  0  0  0  0  0  0  0  0  0  0  0
  153.3544  141.8159  161.3665 C   0  0  0  0  0  0  0  0  0  0  0  0
  152.5311  143.3210  161.6694 S   0  0  0  0  0  0  0  0  0  0  0  0
  152.9147  145.8902  159.2031 H   0  0  0  0  0  0  0  0  0  0  0  0
  151.9581  146.1021  160.6679 H   0  0  0  0  0  0  0  0  0  0  0  0
  151.3287  146.6487  159.1163 H   0  0  0  0  0  0  0  0  0  0  0  0
  151.2561  144.3224  158.3005 H   0  0  0  0  0  0  0  0  0  0  0  0
  149.3404  143.4664  159.5714 H   0  0  0  0  0  0  0  0  0  0  0  0
  149.1996  145.2059  159.3420 H   0  0  0  0  0  0  0  0  0  0  0  0
  149.6973  144.5625  160.9043 H   0  0  0  0  0  0  0  0  0  0  0  0
  154.4184  140.4664  158.5539 H   0  0  0  0  0  0  0  0  0  0  0  0
  154.5192  139.7184  160.1221 H   0  0  0  0  0  0  0  0  0  0  0  0
  152.9216  138.2295  159.5007 H   0  0  0  0  0  0  0  0  0  0  0  0
  151.7551  139.5264  159.3812 H   0  0  0  0  0  0  0  0  0  0  0  0
  153.2222  138.2028  157.2217 H   0  0  0  0  0  0  0  0  0  0  0  0
  152.9759  139.7128  154.7383 H   0  0  0  0  0  0  0  0  0  0  0  0
  149.9082  139.1151  155.0574 H   0  0  0  0  0  0  0  0  0  0  0  0
  150.8310  139.2888  153.4809 H   0  0  0  0  0  0  0  0  0  0  0  0
  152.3627  137.4250  154.1525 H   0  0  0  0  0  0  0  0  0  0  0  0
  150.5683  137.2848  156.6575 H   0  0  0  0  0  0  0  0  0  0  0  0
  152.1104  136.4265  156.4972 H   0  0  0  0  0  0  0  0  0  0  0  0
  150.7572  136.0293  155.4291 H   0  0  0  0  0  0  0  0  0  0  0  0
  153.8588  141.3046  162.1729 H   0  0  0  0  0  0  0  0  0  0  0  0
  1  2  1  0  0  0  0
  1 18  1  0  0  0  0
  1 19  1  0  0  0  0
  1 20  1  0  0  0  0
  2  3  1  0  0  0  0
  2  4  1  0  0  0  0
  2 21  1  0  0  0  0
  3 22  1  0  0  0  0
  3 23  1  0  0  0  0
  3 24  1  0  0  0  0
  4 17  1  0  0  0  0
  4  5  2  0  0  0  0
  5  6  1  0  0  0  0
  6  7  1  0  0  0  0
  6 16  2  0  0  0  0
  7  8  1  0  0  0  0
  7 25  1  0  0  0  0
  7 26  1  0  0  0  0
  8  9  1  0  0  0  0
  8 27  1  0  0  0  0
  8 28  1  0  0  0  0
  9 10  1  0  0  0  0
  9 29  1  0  0  0  0
 10 11  2  0  0  0  0
 10 12  1  0  0  0  0
 12 14  1  0  0  0  0
 12 13  1  0  0  0  0
 12 30  1  0  0  0  0
 13 14  1  0  0  0  0
 13 31  1  0  0  0  0
 13 32  1  0  0  0  0
 14 15  1  0  0  0  0
 14 33  1  0  0  0  0
 15 34  1  0  0  0  0
 15 35  1  0  0  0  0
 15 36  1  0  0  0  0
 16 17  1  0  0  0  0
 16 37  1  0  0  0  0
M  END
> <s_m_source_file>
AV-unprocessed.smi

> <i_m_source_file_index>
3243

> <i_lp_mmshare_version>
43012

> <i_f3d_flags>
0

> <s_epik_input>
W0NIM11bQ0hdKFtDSDNdKWMxbmMoW2NIXXMxKVtDSDJdW0NIMl1bTkhdQyg9TylbQ0BASF0yW0NIMl1bQ0BIXTJbQ0gzXQ==

> <s_epik_cmdline>
J2VwaWtfcHl0aG9uJywgJy1waCcsICc3LjAnLCAnLXRuJywgJzgnLCAnLW1hJywgJzIwMCcsICctbWV0YWxfYmluZGluZycsICctaW1hZScsICc8aW5maWxlLm1hZT4nLCAnLW9tYWUnLCAnPG91dGZpbGUubWFlPic=

> <r_epik_Ionization_Penalty>
0.00084212

> <r_epik_Ionization_Penalty_Charging>
0

> <r_epik_Ionization_Penalty_Neutral>
0.00084212

> <r_epik_State_Penalty>
0.000542609

> <r_epik_Charging_Adjusted_Penalty>
0.000542609

> <i_epik_Tot_Q>
0

> <i_epik_Tot_abs_Q>
0

> <r_epik_Metal_State_Penalty>
-0

> <b_epik_Metal_Only>
0

> <s_lp_Force_Field>
OPLS_2005

> <r_lp_Energy>
-0.500157

> <b_lp_Chiralities_Consistent>
1

> <s_lp_Variant>
AV-unprocessed.smi:3243-3

> <Gold.Version>
5.8.1

> <Gold.Id.Protein>
6NUR|6NUR_protein|mol2

> <Gold.PLP.Fitness>
39.2832

> <Gold.PLP.PLP>
-40.7533

> <Gold.PLP.part.hbond>
0.0000

> <Gold.PLP.part.metal>
0.0000

> <Gold.PLP.part.buried>
-3.9956

> <Gold.PLP.part.nonpolar>
-36.8827

> <Gold.PLP.part.repulsive>
0.0978

> <Gold.PLP.ligand.clash>
0.0000

> <Gold.PLP.ligand.torsion>
0.8183

> <Gold.PLP.Chemscore.Hbond>
0.0000

> <Gold.PLP.Chemscore.CHOScore>
0.0000

> <Gold.PLP.Chemscore.Metal>
0.0000

> <Gold.PLP.Chemscore.Internal.Correction>
0.1665

> <Gold.Rescore>
     Score         DG    S(hbond)    S(metal)    S(lipo)     H(rot)  DE(clash)    DE(int)     intcor
     14.33     -15.51       0.00        0.00     118.26       1.49       0.43       0.75       ----

> <Gold.Chemscore.Fitness>
14.3349

> <Gold.Chemscore.DG>
-15.5095

> <Gold.Chemscore.ZeroCoef>
-5.4800

> <Gold.Chemscore.Hbond>
0.0000

> <Gold.Chemscore.Metal>
0.0000

> <Gold.Chemscore.Lipo>
118.2580

> <Gold.Chemscore.Internal_Hbond>
0.0000

> <Gold.Chemscore.DEClash>
0.4290

> <Gold.Chemscore.DEInternal>
0.7456

> <Gold.Chemscore.Rot>
1.4870

> <Gold.Chemscore.Internal.Correction>
   9.000000E+99

> <Gold.Chemscore.Hbond.Weighted>
-0.0000

> <Gold.Chemscore.Metal.Weighted>
-0.0000

> <Gold.Chemscore.Lipo.Weighted>
-13.8362

> <Gold.Chemscore.Internal_Hbond.Weighted>
0.0000

> <Gold.Chemscore.DEClash.Weighted>
0.4290

> <Gold.Chemscore.DEInternal.Weighted>
0.7456

> <Gold.Chemscore.Rot.Weighted>
3.8067

> <Gold.Chemscore.Internal.Correction.Weighted>
   9.000000E+99

> <Gold.Protein.RotatedTorsions>
[ 6907 6896 6895 6894 ] final   70.17 input  -60.11 | X-H torsion
[ 7974 7965 7964 7962 ] final  -25.52 input  175.53 | X-H torsion
[ 8008 7997 7996 7995 ] final   15.31 input   59.86 | X-H torsion
[ 10167 10162 10161 10158 ] final   33.26 input  -65.29 | X-H torsion
[ 10718 10713 10712 10709 ] final -121.63 input   66.30 | X-H torsion
[ 10763 10752 10751 10750 ] final -100.91 input  -60.55 | X-H torsion
[ 11005 11000 10999 10996 ] final -157.96 input  -57.11 | X-H torsion

> <Gold.Protein.ActiveResidues>
 VAL166  LYS551  ARG553  GLY616  TRP617  ASP618  TYR619  PRO620  LYS621  CYS622 
 ASP623  PHE694  ASN695  SER759  ASP760  ASP761  ALA762  ILE779  LEU786  VAL792 
 PHE793  MET794  SER795  GLU796  ALA797  LYS798  CYS799  TRP800  GLU811  SER814 

> <Gold.Protein.RotatedAtoms>
  152.4732  134.4908  159.9694 H   0  0  0  0  0  0  0  0  0  0  0  0  # atno 6907 bound_to 6896
  151.4930  133.3515  159.2864 H   0  0  0  0  0  0  0  0  0  0  0  0  # atno 6908 bound_to 6896
  150.8755  134.8164  159.7248 H   0  0  0  0  0  0  0  0  0  0  0  0  # atno 6909 bound_to 6896
  146.1486  140.4897  142.8621 H   0  0  0  0  0  0  0  0  0  0  0  0  # atno 7974 bound_to 7965
  154.8608  140.2944  155.5540 H   0  0  0  0  0  0  0  0  0  0  0  0  # atno 8008 bound_to 7997
  156.3019  140.2478  156.3515 H   0  0  0  0  0  0  0  0  0  0  0  0  # atno 8009 bound_to 7997
  154.8920  140.0394  157.1833 H   0  0  0  0  0  0  0  0  0  0  0  0  # atno 8010 bound_to 7997
  140.4424  144.1168  150.6176 H   0  0  0  0  0  0  0  0  0  0  0  0  # atno 10167 bound_to 10162
  156.1353  130.6426  150.9686 H   0  0  0  0  0  0  0  0  0  0  0  0  # atno 10718 bound_to 10713
  154.7616  135.4917  153.9475 H   0  0  0  0  0  0  0  0  0  0  0  0  # atno 10763 bound_to 10752
  153.1258  135.6742  153.9267 H   0  0  0  0  0  0  0  0  0  0  0  0  # atno 10764 bound_to 10752
  153.8985  135.3112  155.3427 H   0  0  0  0  0  0  0  0  0  0  0  0  # atno 10765 bound_to 10752
  140.6589  134.4371  157.5234 H   0  0  0  0  0  0  0  0  0  0  0  0  # atno 11005 bound_to 11000
  144.7876  140.5967  143.6563 LP  0  0  0  0  0  0  0  0  0  0  0  0  # atno 17320 bound_to 7965
  145.4879  139.1490  143.3726 LP  0  0  0  0  0  0  0  0  0  0  0  0  # atno 17321 bound_to 7965
  140.4303  143.2571  151.9604 LP  0  0  0  0  0  0  0  0  0  0  0  0  # atno 17342 bound_to 10162
  139.4790  144.5750  151.8027 LP  0  0  0  0  0  0  0  0  0  0  0  0  # atno 17343 bound_to 10162
  157.6526  131.0894  150.8017 LP  0  0  0  0  0  0  0  0  0  0  0  0  # atno 17370 bound_to 10713
  156.8097  130.4948  149.5357 LP  0  0  0  0  0  0  0  0  0  0  0  0  # atno 17371 bound_to 10713
  139.9020  134.8535  156.1858 LP  0  0  0  0  0  0  0  0  0  0  0  0  # atno 17394 bound_to 11000
  141.0480  133.6903  156.1719 LP  0  0  0  0  0  0  0  0  0  0  0  0  # atno 17395 bound_to 11000

$$$$
