AV-unprocessed.smi:1459|AV-procd|sdf|5924|dock10
  -GOLD-   22720 6 03D 1   1.00000     0.00000
 Structure written by MMmdl.
 34 35  0  0  0  0  0  0  0  0  1 V2000
  153.5403  141.9926  161.0331 C   0  0  0  0  0  0  0  0  0  0  0  0
  152.6337  142.5503  159.9901 C   0  0  0  0  0  0  0  0  0  0  0  0
  151.7172  141.9797  159.1524 C   0  0  0  0  0  0  0  0  0  0  0  0
  151.2167  143.0899  158.4215 C   0  0  0  0  0  0  0  0  0  0  0  0
  150.2213  142.9172  157.4258 N   0  0  0  0  0  0  0  0  0  0  0  0
  149.6516  141.7672  157.0270 C   0  0  0  0  0  0  0  0  0  0  0  0
  149.9126  140.6530  157.4809 O   0  0  0  0  0  0  0  0  0  0  0  0
  148.7442  141.9851  156.0630 N   0  0  0  0  0  0  0  0  0  0  0  0
  147.9348  140.9638  155.3994 C   0  0  2  0  0  0  0  0  0  0  0  0
  148.7889  140.2805  154.3214 C   0  0  0  0  0  0  0  0  0  0  0  0
  146.6551  141.5899  154.8066 C   0  0  2  0  0  0  0  0  0  0  0  0
  146.8928  142.6795  153.7583 C   0  0  0  0  0  0  0  0  0  0  0  0
  145.6031  143.4632  153.8332 C   0  0  0  0  0  0  0  0  0  0  0  0
  145.3151  143.4405  155.3309 C   0  0  0  0  0  0  0  0  0  0  0  0
  145.8931  142.2348  155.8253 O   0  0  0  0  0  0  0  0  0  0  0  0
  151.7772  144.2348  158.7806 N   0  0  0  0  0  0  0  0  0  0  0  0
  152.6878  143.8948  159.7880 O   0  0  0  0  0  0  0  0  0  0  0  0
  153.3653  140.9256  161.1720 H   0  0  0  0  0  0  0  0  0  0  0  0
  153.3795  142.4880  161.9906 H   0  0  0  0  0  0  0  0  0  0  0  0
  154.5842  142.1305  160.7510 H   0  0  0  0  0  0  0  0  0  0  0  0
  151.4503  140.9360  159.0775 H   0  0  0  0  0  0  0  0  0  0  0  0
  149.9087  143.7604  156.9682 H   0  0  0  0  0  0  0  0  0  0  0  0
  148.5984  142.9371  155.7609 H   0  0  0  0  0  0  0  0  0  0  0  0
  147.6413  140.1976  156.1190 H   0  0  0  0  0  0  0  0  0  0  0  0
  148.2347  139.4837  153.8246 H   0  0  0  0  0  0  0  0  0  0  0  0
  149.6838  139.8330  154.7554 H   0  0  0  0  0  0  0  0  0  0  0  0
  149.1076  140.9895  153.5567 H   0  0  0  0  0  0  0  0  0  0  0  0
  146.0264  140.8127  154.3687 H   0  0  0  0  0  0  0  0  0  0  0  0
  147.7311  143.3156  154.0468 H   0  0  0  0  0  0  0  0  0  0  0  0
  147.0930  142.2800  152.7637 H   0  0  0  0  0  0  0  0  0  0  0  0
  145.6884  144.4726  153.4304 H   0  0  0  0  0  0  0  0  0  0  0  0
  144.8149  142.9412  153.2890 H   0  0  0  0  0  0  0  0  0  0  0  0
  145.8008  144.2828  155.8245 H   0  0  0  0  0  0  0  0  0  0  0  0
  144.2479  143.4894  155.5488 H   0  0  0  0  0  0  0  0  0  0  0  0
  1  2  1  0  0  0  0
  1 18  1  0  0  0  0
  1 19  1  0  0  0  0
  1 20  1  0  0  0  0
  2 17  1  0  0  0  0
  2  3  2  0  0  0  0
  3  4  1  0  0  0  0
  3 21  1  0  0  0  0
  4  5  1  0  0  0  0
  4 16  2  0  0  0  0
  5  6  1  0  0  0  0
  5 22  1  0  0  0  0
  6  7  2  0  0  0  0
  6  8  1  0  0  0  0
  8  9  1  0  0  0  0
  8 23  1  0  0  0  0
  9 10  1  0  0  0  0
  9 11  1  0  0  0  0
  9 24  1  0  0  0  0
 10 25  1  0  0  0  0
 10 26  1  0  0  0  0
 10 27  1  0  0  0  0
 11 15  1  0  0  0  0
 11 12  1  0  0  0  0
 11 28  1  0  0  0  0
 12 13  1  0  0  0  0
 12 29  1  0  0  0  0
 12 30  1  0  0  0  0
 13 14  1  0  0  0  0
 13 31  1  0  0  0  0
 13 32  1  0  0  0  0
 14 15  1  0  0  0  0
 14 33  1  0  0  0  0
 14 34  1  0  0  0  0
 16 17  1  0  0  0  0
M  END
> <s_m_source_file>
AV-unprocessed.smi

> <i_m_source_file_index>
1459

> <i_lp_mmshare_version>
43012

> <i_f3d_flags>
0

> <s_epik_input>
W0NIM11jMVtjSF1jKG5vMSlbTkhdQyg9TylbTkhdW0NASF0oW0NIM10pW0NAQEhdMltDSDJdW0NIMl1bQ0gyXU8y

> <s_epik_cmdline>
J2VwaWtfcHl0aG9uJywgJy1waCcsICc3LjAnLCAnLXRuJywgJzgnLCAnLW1hJywgJzIwMCcsICctbWV0YWxfYmluZGluZycsICctaW1hZScsICc8aW5maWxlLm1hZT4nLCAnLW9tYWUnLCAnPG91dGZpbGUubWFlPic=

> <r_lp_tautomer_probability>
1

> <r_epik_Ionization_Penalty>
2.20869e-05

> <r_epik_Ionization_Penalty_Charging>
0

> <r_epik_Ionization_Penalty_Neutral>
2.20869e-05

> <r_epik_State_Penalty>
-0

> <r_epik_Charging_Adjusted_Penalty>
0

> <i_epik_Tot_Q>
0

> <i_epik_Tot_abs_Q>
0

> <r_epik_Metal_State_Penalty>
-0

> <b_epik_Metal_Only>
0

> <s_lp_Force_Field>
OPLS_2005

> <r_lp_Energy>
15.5661

> <b_lp_Chiralities_Consistent>
1

> <s_lp_Variant>
AV-unprocessed.smi:1459-1

> <Gold.Version>
5.8.1

> <Gold.Id.Protein>
6NUR|6NUR_protein|mol2

> <Gold.PLP.Fitness>
37.3157

> <Gold.PLP.PLP>
-31.9234

> <Gold.PLP.part.hbond>
-2.0000

> <Gold.PLP.part.metal>
0.0000

> <Gold.PLP.part.buried>
-6.7802

> <Gold.PLP.part.nonpolar>
-23.7569

> <Gold.PLP.part.repulsive>
0.2837

> <Gold.PLP.ligand.clash>
0.0000

> <Gold.PLP.ligand.torsion>
0.3079

> <Gold.PLP.Chemscore.Hbond>
2.0000

> <Gold.PLP.Chemscore.CHOScore>
0.0000

> <Gold.PLP.Chemscore.Metal>
0.0000

> <Gold.Chemscore.Hbonds>
donor molecule, donor type, donor heavy atom, donor atom, acceptor molecule, acceptor atom, score
      L1  H     5    22       P1  8028  1.00
      L1  H     8    23       P1  8028  1.00

> <Gold.PLP.Chemscore.Internal.Correction>
0.0082

> <Gold.Rescore>
     Score         DG    S(hbond)    S(metal)    S(lipo)     H(rot)  DE(clash)    DE(int)     intcor
     14.65     -16.44       1.94        0.00      66.23       1.28       0.03       1.76       ----

> <Gold.Chemscore.Fitness>
14.6475

> <Gold.Chemscore.DG>
-16.4381

> <Gold.Chemscore.ZeroCoef>
-5.4800

> <Gold.Chemscore.Hbond>
1.9400

> <Gold.Chemscore.Metal>
0.0000

> <Gold.Chemscore.Lipo>
66.2336

> <Gold.Chemscore.Internal_Hbond>
0.0000

> <Gold.Chemscore.DEClash>
0.0263

> <Gold.Chemscore.DEInternal>
1.7643

> <Gold.Chemscore.Rot>
1.2776

> <Gold.Chemscore.Internal.Correction>
   9.000000E+99

> <Gold.Chemscore.Hbonds>
donor molecule, donor type, donor heavy atom, donor atom, acceptor molecule, acceptor atom, score
      L1  H     5    22       P1  8028  0.95
      L1  H     8    23       P1  8028  0.99

> <Gold.Chemscore.Hbond.Weighted>
-6.4794

> <Gold.Chemscore.Metal.Weighted>
-0.0000

> <Gold.Chemscore.Lipo.Weighted>
-7.7493

> <Gold.Chemscore.Internal_Hbond.Weighted>
0.0000

> <Gold.Chemscore.DEClash.Weighted>
0.0263

> <Gold.Chemscore.DEInternal.Weighted>
1.7643

> <Gold.Chemscore.Rot.Weighted>
3.2707

> <Gold.Chemscore.Internal.Correction.Weighted>
   9.000000E+99

> <Gold.Protein.RotatedTorsions>
[ 6907 6896 6895 6894 ] final  -20.05 input  -60.11 | X-H torsion
[ 7974 7965 7964 7962 ] final -162.73 input  175.53 | X-H torsion
[ 8008 7997 7996 7995 ] final   -7.29 input   59.86 | X-H torsion
[ 10167 10162 10161 10158 ] final -130.17 input  -65.29 | X-H torsion
[ 10718 10713 10712 10709 ] final   92.20 input   66.30 | X-H torsion
[ 10763 10752 10751 10750 ] final  -33.66 input  -60.55 | X-H torsion
[ 11005 11000 10999 10996 ] final  112.95 input  -57.11 | X-H torsion

> <Gold.Protein.ActiveResidues>
 VAL166  LYS551  ARG553  GLY616  TRP617  ASP618  TYR619  PRO620  LYS621  CYS622 
 ASP623  PHE694  ASN695  SER759  ASP760  ASP761  ALA762  ILE779  LEU786  VAL792 
 PHE793  MET794  SER795  GLU796  ALA797  LYS798  CYS799  TRP800  GLU811  SER814 

> <Gold.Protein.RotatedAtoms>
  151.2539  135.0631  159.9072 H   0  0  0  0  0  0  0  0  0  0  0  0  # atno 6907 bound_to 6896
  152.5376  134.0303  159.8032 H   0  0  0  0  0  0  0  0  0  0  0  0  # atno 6908 bound_to 6896
  151.0515  133.5570  159.2673 H   0  0  0  0  0  0  0  0  0  0  0  0  # atno 6909 bound_to 6896
  144.7348  140.3210  143.6171 H   0  0  0  0  0  0  0  0  0  0  0  0  # atno 7974 bound_to 7965
  154.5852  140.2411  155.7997 H   0  0  0  0  0  0  0  0  0  0  0  0  # atno 8008 bound_to 7997
  156.2208  140.2998  155.9904 H   0  0  0  0  0  0  0  0  0  0  0  0  # atno 8009 bound_to 7997
  155.2470  140.0409  157.2972 H   0  0  0  0  0  0  0  0  0  0  0  0  # atno 8010 bound_to 7997
  139.9321  143.6260  152.2527 H   0  0  0  0  0  0  0  0  0  0  0  0  # atno 10167 bound_to 10162
  157.6959  131.0434  150.3845 H   0  0  0  0  0  0  0  0  0  0  0  0  # atno 10718 bound_to 10713
  153.8339  135.6863  153.4811 H   0  0  0  0  0  0  0  0  0  0  0  0  # atno 10763 bound_to 10752
  153.1494  135.4624  154.9613 H   0  0  0  0  0  0  0  0  0  0  0  0  # atno 10764 bound_to 10752
  154.7875  135.3290  154.7799 H   0  0  0  0  0  0  0  0  0  0  0  0  # atno 10765 bound_to 10752
  139.8940  134.9540  156.6664 H   0  0  0  0  0  0  0  0  0  0  0  0  # atno 11005 bound_to 11000
  145.7568  139.1811  143.2290 LP  0  0  0  0  0  0  0  0  0  0  0  0  # atno 17320 bound_to 7965
  146.1017  140.7535  142.9546 LP  0  0  0  0  0  0  0  0  0  0  0  0  # atno 17321 bound_to 7965
  139.6774  144.7658  151.1672 LP  0  0  0  0  0  0  0  0  0  0  0  0  # atno 17342 bound_to 10162
  140.7634  143.5775  150.8929 LP  0  0  0  0  0  0  0  0  0  0  0  0  # atno 17343 bound_to 10162
  156.4255  130.3961  149.6796 LP  0  0  0  0  0  0  0  0  0  0  0  0  # atno 17370 bound_to 10713
  156.4031  130.7685  151.2694 LP  0  0  0  0  0  0  0  0  0  0  0  0  # atno 17371 bound_to 10713
  140.7407  133.8980  155.8276 LP  0  0  0  0  0  0  0  0  0  0  0  0  # atno 17394 bound_to 11000
  141.0080  134.1059  157.4250 LP  0  0  0  0  0  0  0  0  0  0  0  0  # atno 17395 bound_to 11000

$$$$
