AV-unprocessed.smi:1033|AV-procd|sdf|4495|dock5
  -GOLD-   22720 2483D 1   1.00000     0.00000
 Structure written by MMmdl.
 56 58  0  0  0  0  0  0  0  0  2 V2000
  152.5045  143.8199  161.4168 C   0  0  0  0  0  0  0  0  0  0  0  0
  152.1929  143.0394  160.1518 C   0  0  0  0  0  0  0  0  0  0  0  0
  152.3881  141.6399  160.1427 C   0  0  0  0  0  0  0  0  0  0  0  0
  152.1132  140.8779  158.9862 C   0  0  0  0  0  0  0  0  0  0  0  0
  152.2316  139.5179  158.7564 N   0  0  0  0  0  0  0  0  0  0  0  0
  151.8280  139.4231  157.4930 C   0  0  0  0  0  0  0  0  0  0  0  0
  151.4650  140.5636  156.8744 N   0  0  0  0  0  0  0  0  0  0  0  0
  150.9974  140.7087  155.5077 C   0  0  0  0  0  0  0  0  0  0  0  0
  149.5238  141.1544  155.4421 C   0  0  1  0  0  0  0  0  0  0  0  0
  149.4056  142.3742  154.7370 O   0  0  0  0  0  0  0  0  0  0  0  0
  148.5193  140.1334  154.8617 C   0  0  0  0  0  0  0  0  0  0  0  0
  147.2544  140.6772  154.3444 N   0  0  0  0  0  0  0  0  0  0  0  0
  147.0814  140.5604  152.8914 C   0  0  0  0  0  0  0  0  0  0  0  0
  146.8244  139.1172  152.4070 C   0  0  0  0  0  0  0  0  0  0  0  0
  145.6508  138.5332  153.1087 N   0  3  0  0  0  0  0  0  0  0  0  0
  145.3120  137.1576  152.6639 C   0  0  0  0  0  0  0  0  0  0  0  0
  143.8519  136.7702  152.9732 C   0  0  2  0  0  0  0  0  0  0  0  0
  143.4112  135.4737  152.2779 C   0  0  0  0  0  0  0  0  0  0  0  0
  143.0112  137.8144  152.5306 O   0  0  0  0  0  0  0  0  0  0  0  0
  145.8287  138.6262  154.5794 C   0  0  0  0  0  0  0  0  0  0  0  0
  146.0800  140.0897  154.9896 C   0  0  0  0  0  0  0  0  0  0  0  0
  151.6338  141.5598  157.8296 C   0  0  0  0  0  0  0  0  0  0  0  0
  151.4333  142.9513  157.8268 C   0  0  0  0  0  0  0  0  0  0  0  0
  151.7139  143.6977  158.9906 C   0  0  0  0  0  0  0  0  0  0  0  0
  151.4963  145.2003  158.9771 C   0  0  0  0  0  0  0  0  0  0  0  0
  152.8293  143.1598  162.2217 H   0  0  0  0  0  0  0  0  0  0  0  0
  151.6215  144.3580  161.7626 H   0  0  0  0  0  0  0  0  0  0  0  0
  153.3009  144.5413  161.2334 H   0  0  0  0  0  0  0  0  0  0  0  0
  152.7531  141.1381  161.0269 H   0  0  0  0  0  0  0  0  0  0  0  0
  151.7981  138.4698  156.9855 H   0  0  0  0  0  0  0  0  0  0  0  0
  151.6415  141.4333  155.0093 H   0  0  0  0  0  0  0  0  0  0  0  0
  151.1289  139.7525  155.0000 H   0  0  0  0  0  0  0  0  0  0  0  0
  149.1961  141.3633  156.4612 H   0  0  0  0  0  0  0  0  0  0  0  0
  149.2676  143.0701  155.3616 H   0  0  0  0  0  0  0  0  0  0  0  0
  149.0143  139.5317  154.1006 H   0  0  0  0  0  0  0  0  0  0  0  0
  148.2988  139.4330  155.6686 H   0  0  0  0  0  0  0  0  0  0  0  0
  146.2372  141.1821  152.5900 H   0  0  0  0  0  0  0  0  0  0  0  0
  147.9393  140.9642  152.3609 H   0  0  0  0  0  0  0  0  0  0  0  0
  146.6471  139.1382  151.3326 H   0  0  0  0  0  0  0  0  0  0  0  0
  147.7023  138.4897  152.5626 H   0  0  0  0  0  0  0  0  0  0  0  0
  145.5151  137.0673  151.5954 H   0  0  0  0  0  0  0  0  0  0  0  0
  145.9711  136.4437  153.1607 H   0  0  0  0  0  0  0  0  0  0  0  0
  143.6985  136.6767  154.0478 H   0  0  0  0  0  0  0  0  0  0  0  0
  144.0004  134.6218  152.6180 H   0  0  0  0  0  0  0  0  0  0  0  0
  143.5217  135.5437  151.1952 H   0  0  0  0  0  0  0  0  0  0  0  0
  142.3650  135.2510  152.4911 H   0  0  0  0  0  0  0  0  0  0  0  0
  143.4203  138.6425  152.7318 H   0  0  0  0  0  0  0  0  0  0  0  0
  144.9311  138.2626  155.0810 H   0  0  0  0  0  0  0  0  0  0  0  0
  146.6523  137.9852  154.8979 H   0  0  0  0  0  0  0  0  0  0  0  0
  146.1773  140.1607  156.0736 H   0  0  0  0  0  0  0  0  0  0  0  0
  145.2008  140.6838  154.7353 H   0  0  0  0  0  0  0  0  0  0  0  0
  151.0682  143.4399  156.9357 H   0  0  0  0  0  0  0  0  0  0  0  0
  151.1420  145.5421  158.0042 H   0  0  0  0  0  0  0  0  0  0  0  0
  152.4266  145.7243  159.1973 H   0  0  0  0  0  0  0  0  0  0  0  0
  150.7530  145.4845  159.7221 H   0  0  0  0  0  0  0  0  0  0  0  0
  144.8544  139.1134  152.8864 H   0  0  0  0  0  0  0  0  0  0  0  0
  1  2  1  0  0  0  0
  1 26  1  0  0  0  0
  1 27  1  0  0  0  0
  1 28  1  0  0  0  0
  2 24  1  0  0  0  0
  2  3  2  0  0  0  0
  3  4  1  0  0  0  0
  3 29  1  0  0  0  0
  4 22  2  0  0  0  0
  4  5  1  0  0  0  0
  5  6  2  0  0  0  0
  6  7  1  0  0  0  0
  6 30  1  0  0  0  0
  7  8  1  0  0  0  0
  7 22  1  0  0  0  0
  8  9  1  0  0  0  0
  8 31  1  0  0  0  0
  8 32  1  0  0  0  0
  9 10  1  0  0  0  0
  9 11  1  0  0  0  0
  9 33  1  0  0  0  0
 10 34  1  0  0  0  0
 11 12  1  0  0  0  0
 11 35  1  0  0  0  0
 11 36  1  0  0  0  0
 12 21  1  0  0  0  0
 12 13  1  0  0  0  0
 13 14  1  0  0  0  0
 13 37  1  0  0  0  0
 13 38  1  0  0  0  0
 14 15  1  0  0  0  0
 14 39  1  0  0  0  0
 14 40  1  0  0  0  0
 15 16  1  0  0  0  0
 15 20  1  0  0  0  0
 15 56  1  0  0  0  0
 16 17  1  0  0  0  0
 16 41  1  0  0  0  0
 16 42  1  0  0  0  0
 17 18  1  0  0  0  0
 17 19  1  0  0  0  0
 17 43  1  0  0  0  0
 18 44  1  0  0  0  0
 18 45  1  0  0  0  0
 18 46  1  0  0  0  0
 19 47  1  0  0  0  0
 20 21  1  0  0  0  0
 20 48  1  0  0  0  0
 20 49  1  0  0  0  0
 21 50  1  0  0  0  0
 21 51  1  0  0  0  0
 22 23  1  0  0  0  0
 23 24  2  0  0  0  0
 23 52  1  0  0  0  0
 24 25  1  0  0  0  0
 25 53  1  0  0  0  0
 25 54  1  0  0  0  0
 25 55  1  0  0  0  0
M  CHG  1  15   1
M  END
> <s_m_source_file>
AV-unprocessed.smi

> <i_m_source_file_index>
1033

> <i_lp_mmshare_version>
43012

> <i_f3d_flags>
0

> <s_epik_input>
W0NIM11jKFtjSF0xKWMoW0NIM10pW2NIXWMoYzEyKW4oW2NIXW4yKVtDSDJdW0NASF0oW09IXSlbQ0gyXU4zW0NIMl1bQ0gyXU4oW0NIMl1bQ0gyXTMpW0NIMl1bQ0BIXShbQ0gzXSlbT0hd

> <s_epik_cmdline>
J2VwaWtfcHl0aG9uJywgJy1waCcsICc3LjAnLCAnLXRuJywgJzgnLCAnLW1hJywgJzIwMCcsICctbWV0YWxfYmluZGluZycsICctaW1hZScsICc8aW5maWxlLm1hZT4nLCAnLW9tYWUnLCAnPG91dGZpbGUubWFlPic=

> <r_epik_Ionization_Penalty>
0.129152

> <r_epik_Ionization_Penalty_Charging>
0.00083231

> <r_epik_Ionization_Penalty_Neutral>
0.128319

> <r_epik_State_Penalty>
0.556973

> <r_epik_Charging_Adjusted_Penalty>
0.557805

> <i_epik_Tot_Q>
1

> <i_epik_Tot_abs_Q>
1

> <r_epik_Metal_State_Penalty>
0.490047

> <b_epik_Metal_Only>
0

> <s_lp_Force_Field>
OPLS_2005

> <r_lp_Energy>
40.305

> <b_lp_Chiralities_Consistent>
1

> <s_lp_Variant>
AV-unprocessed.smi:1033-6

> <Gold.Version>
5.8.1

> <Gold.Id.Protein>
6NUR|6NUR_protein|mol2

> <Gold.PLP.Fitness>
57.5912

> <Gold.PLP.PLP>
-49.3320

> <Gold.PLP.part.hbond>
-5.1332

> <Gold.PLP.part.metal>
0.0000

> <Gold.PLP.part.buried>
-2.8390

> <Gold.PLP.part.nonpolar>
-40.3979

> <Gold.PLP.part.repulsive>
0.1238

> <Gold.PLP.ligand.clash>
0.0000

> <Gold.PLP.ligand.torsion>
2.0110

> <Gold.PLP.Chemscore.Hbond>
4.0014

> <Gold.PLP.Chemscore.CHOScore>
0.0000

> <Gold.PLP.Chemscore.Metal>
0.0000

> <Gold.Chemscore.Hbonds>
donor molecule, donor type, donor heavy atom, donor atom, acceptor molecule, acceptor atom, score
      L1  H    10    34       P1  8028  0.96
      L1  H    15    56       P1 10175  2.00
      L1  H    19    47       P1 10175  1.00

> <Gold.PLP.Chemscore.Internal.Correction>
0.2771

> <Gold.Rescore>
     Score         DG    S(hbond)    S(metal)    S(lipo)     H(rot)  DE(clash)    DE(int)     intcor
     18.58     -21.00       2.31        0.00     133.77       3.07       0.45       1.97       ----

> <Gold.Chemscore.Fitness>
18.5809

> <Gold.Chemscore.DG>
-21.0047

> <Gold.Chemscore.ZeroCoef>
-5.4800

> <Gold.Chemscore.Hbond>
2.3114

> <Gold.Chemscore.Metal>
0.0000

> <Gold.Chemscore.Lipo>
133.7695

> <Gold.Chemscore.Internal_Hbond>
0.0000

> <Gold.Chemscore.DEClash>
0.4491

> <Gold.Chemscore.DEInternal>
1.9747

> <Gold.Chemscore.Rot>
3.0650

> <Gold.Chemscore.Internal.Correction>
   9.000000E+99

> <Gold.Chemscore.Hbonds>
donor molecule, donor type, donor heavy atom, donor atom, acceptor molecule, acceptor atom, score
      L1  H    10    34       P1  8028  0.92
      L1  H    15    56       P1 10175  1.00
      L1  H    19    47       P1 10175  0.95
      P1  H  8011  8017       L1    10  0.01

> <Gold.Chemscore.Hbond.Weighted>
-7.7202

> <Gold.Chemscore.Metal.Weighted>
-0.0000

> <Gold.Chemscore.Lipo.Weighted>
-15.6510

> <Gold.Chemscore.Internal_Hbond.Weighted>
0.0000

> <Gold.Chemscore.DEClash.Weighted>
0.4491

> <Gold.Chemscore.DEInternal.Weighted>
1.9747

> <Gold.Chemscore.Rot.Weighted>
7.8465

> <Gold.Chemscore.Internal.Correction.Weighted>
   9.000000E+99

> <Gold.Protein.RotatedTorsions>
[ 6907 6896 6895 6894 ] final  -33.28 input  -60.11 | X-H torsion
[ 7974 7965 7964 7962 ] final -169.29 input  175.53 | X-H torsion
[ 8008 7997 7996 7995 ] final -162.47 input   59.86 | X-H torsion
[ 10167 10162 10161 10158 ] final  111.29 input  -65.29 | X-H torsion
[ 10718 10713 10712 10709 ] final  113.20 input   66.30 | X-H torsion
[ 10763 10752 10751 10750 ] final   54.78 input  -60.55 | X-H torsion
[ 11005 11000 10999 10996 ] final  -18.08 input  -57.11 | X-H torsion

> <Gold.Protein.ActiveResidues>
 VAL166  LYS551  ARG553  GLY616  TRP617  ASP618  TYR619  PRO620  LYS621  CYS622 
 ASP623  PHE694  ASN695  SER759  ASP760  ASP761  ALA762  ILE779  LEU786  VAL792 
 PHE793  MET794  SER795  GLU796  ALA797  LYS798  CYS799  TRP800  GLU811  SER814 

> <Gold.Protein.RotatedAtoms>
  151.0677  134.9778  159.8292 H   0  0  0  0  0  0  0  0  0  0  0  0  # atno 6907 bound_to 6896
  152.5404  134.2338  159.8845 H   0  0  0  0  0  0  0  0  0  0  0  0  # atno 6908 bound_to 6896
  151.2361  133.4381  159.2639 H   0  0  0  0  0  0  0  0  0  0  0  0  # atno 6909 bound_to 6896
  144.7188  140.2243  143.6312 H   0  0  0  0  0  0  0  0  0  0  0  0  # atno 7974 bound_to 7965
  155.8073  140.0900  157.1924 H   0  0  0  0  0  0  0  0  0  0  0  0  # atno 8008 bound_to 7997
  154.3980  140.1461  156.3404 H   0  0  0  0  0  0  0  0  0  0  0  0  # atno 8009 bound_to 7997
  155.8402  140.3439  155.5629 H   0  0  0  0  0  0  0  0  0  0  0  0  # atno 8010 bound_to 7997
  139.6622  144.7128  151.1843 H   0  0  0  0  0  0  0  0  0  0  0  0  # atno 10167 bound_to 10162
  157.6351  131.0980  150.7005 H   0  0  0  0  0  0  0  0  0  0  0  0  # atno 10718 bound_to 10713
  152.9808  135.5733  154.4961 H   0  0  0  0  0  0  0  0  0  0  0  0  # atno 10763 bound_to 10752
  154.4487  135.2778  155.1798 H   0  0  0  0  0  0  0  0  0  0  0  0  # atno 10764 bound_to 10752
  154.3435  135.6224  153.5661 H   0  0  0  0  0  0  0  0  0  0  0  0  # atno 10765 bound_to 10752
  140.8232  133.8052  155.9681 H   0  0  0  0  0  0  0  0  0  0  0  0  # atno 11005 bound_to 11000
  145.8471  139.2157  143.1794 LP  0  0  0  0  0  0  0  0  0  0  0  0  # atno 17320 bound_to 7965
  146.0294  140.8272  142.9883 LP  0  0  0  0  0  0  0  0  0  0  0  0  # atno 17321 bound_to 7965
  140.7585  143.5975  150.8733 LP  0  0  0  0  0  0  0  0  0  0  0  0  # atno 17342 bound_to 10162
  139.9634  143.6138  152.2995 LP  0  0  0  0  0  0  0  0  0  0  0  0  # atno 17343 bound_to 10162
  156.7338  130.4718  149.5493 LP  0  0  0  0  0  0  0  0  0  0  0  0  # atno 17370 bound_to 10713
  156.1584  130.6357  151.0687 LP  0  0  0  0  0  0  0  0  0  0  0  0  # atno 17371 bound_to 10713
  140.9077  134.2300  157.5004 LP  0  0  0  0  0  0  0  0  0  0  0  0  # atno 17394 bound_to 11000
  139.8707  134.9736  156.4814 LP  0  0  0  0  0  0  0  0  0  0  0  0  # atno 17395 bound_to 11000

$$$$
