AV-unprocessed.smi:2164|AV-procd|sdf|8811|dock7
  -GOLD-   2272012 03D 1   1.00000     0.00000
 Structure written by MMmdl.
 39 41  0  0  0  0  0  0  0  0  3 V2000
  148.8322  139.0831  153.7755 O   0  0  0  0  0  0  0  0  0  0  0  0
  149.7546  139.1566  154.5978 C   0  0  0  0  0  0  0  0  0  0  0  0
  150.3715  140.3152  154.9833 N   0  5  0  0  0  0  0  0  0  0  0  0
  150.4682  140.8022  156.3583 C   0  0  0  0  0  0  0  0  0  0  0  0
  150.6422  142.3337  156.3539 C   0  0  0  0  0  0  0  0  0  0  0  0
  151.3298  142.8721  157.6008 C   0  0  0  0  0  0  0  0  0  0  0  0
  151.6677  144.2415  157.7062 C   0  0  0  0  0  0  0  0  0  0  0  0
  152.3119  144.7092  158.8703 C   0  0  0  0  0  0  0  0  0  0  0  0
  152.6080  143.7979  159.9043 C   0  0  0  0  0  0  0  0  0  0  0  0
  152.2765  142.4954  159.7679 N   0  3  0  0  0  0  0  0  0  0  0  0
  151.6606  142.0076  158.6691 C   0  0  0  0  0  0  0  0  0  0  0  0
  150.2343  137.9111  155.2149 C   0  0  0  0  0  0  0  0  0  0  0  0
  149.5920  136.7285  155.0936 C   0  0  0  0  0  0  0  0  0  0  0  0
  150.0409  135.5409  155.6774 N   0  0  0  0  0  0  0  0  0  0  0  0
  149.2010  134.3551  155.5525 C   0  0  0  0  0  0  0  0  0  0  0  0
  150.0565  133.1254  155.2911 C   0  0  0  0  0  0  0  0  0  0  0  0
  151.1225  132.9153  156.7680 S   0  0  0  0  0  0  0  0  0  0  0  0
  150.2493  132.7172  157.9355 O   0  0  0  0  0  0  0  0  0  0  0  0
  152.1452  131.9059  156.4537 O   0  0  0  0  0  0  0  0  0  0  0  0
  151.8291  134.4326  156.8596 N   0  0  0  0  0  0  0  0  0  0  0  0
  151.2678  135.5047  156.3879 C   0  0  0  0  0  0  0  0  0  0  0  0
  151.9403  136.7823  156.5549 C   0  0  0  0  0  0  0  0  0  0  0  0
  151.4564  137.9138  156.0034 C   0  0  0  0  0  0  0  0  0  0  0  0
  149.5794  140.5496  156.9380 H   0  0  0  0  0  0  0  0  0  0  0  0
  151.3099  140.3536  156.8875 H   0  0  0  0  0  0  0  0  0  0  0  0
  151.2213  142.6383  155.4808 H   0  0  0  0  0  0  0  0  0  0  0  0
  149.6692  142.8176  156.2565 H   0  0  0  0  0  0  0  0  0  0  0  0
  151.4318  144.9267  156.9047 H   0  0  0  0  0  0  0  0  0  0  0  0
  152.5738  145.7526  158.9677 H   0  0  0  0  0  0  0  0  0  0  0  0
  153.0972  144.0689  160.8284 H   0  0  0  0  0  0  0  0  0  0  0  0
  151.4461  140.9488  158.6778 H   0  0  0  0  0  0  0  0  0  0  0  0
  148.6760  136.6158  154.5317 H   0  0  0  0  0  0  0  0  0  0  0  0
  148.6139  134.2326  156.4633 H   0  0  0  0  0  0  0  0  0  0  0  0
  148.4897  134.4727  154.7345 H   0  0  0  0  0  0  0  0  0  0  0  0
  149.4489  132.2294  155.1668 H   0  0  0  0  0  0  0  0  0  0  0  0
  150.6829  133.2442  154.4063 H   0  0  0  0  0  0  0  0  0  0  0  0
  152.8570  136.8599  157.1215 H   0  0  0  0  0  0  0  0  0  0  0  0
  152.0026  138.8321  156.1618 H   0  0  0  0  0  0  0  0  0  0  0  0
  152.5000  141.8514  160.5270 H   0  0  0  0  0  0  0  0  0  0  0  0
  1  2  2  0  0  0  0
  2  3  1  0  0  0  0
  2 12  1  0  0  0  0
  3  4  1  0  0  0  0
  4  5  1  0  0  0  0
  4 24  1  0  0  0  0
  4 25  1  0  0  0  0
  5  6  1  0  0  0  0
  5 26  1  0  0  0  0
  5 27  1  0  0  0  0
  6 11  1  0  0  0  0
  6  7  2  0  0  0  0
  7  8  1  0  0  0  0
  7 28  1  0  0  0  0
  8  9  2  0  0  0  0
  8 29  1  0  0  0  0
  9 10  1  0  0  0  0
  9 30  1  0  0  0  0
 10 11  2  0  0  0  0
 10 39  1  0  0  0  0
 11 31  1  0  0  0  0
 12 23  1  0  0  0  0
 12 13  2  0  0  0  0
 13 14  1  0  0  0  0
 13 32  1  0  0  0  0
 14 21  1  0  0  0  0
 14 15  1  0  0  0  0
 15 16  1  0  0  0  0
 15 33  1  0  0  0  0
 15 34  1  0  0  0  0
 16 17  1  0  0  0  0
 16 35  1  0  0  0  0
 16 36  1  0  0  0  0
 17 18  2  0  0  0  0
 17 19  2  0  0  0  0
 17 20  1  0  0  0  0
 20 21  2  0  0  0  0
 21 22  1  0  0  0  0
 22 23  2  0  0  0  0
 22 37  1  0  0  0  0
 23 38  1  0  0  0  0
M  CHG  1   3  -1
M  CHG  1  10   1
M  END
> <s_m_source_file>
AV-unprocessed.smi

> <i_m_source_file_index>
2164

> <i_lp_mmshare_version>
43012

> <i_f3d_flags>
0

> <s_epik_input>
W0NIMl0xW0NIMl1TKD1PKSg9TylOPUMoTjEyKVtDSF09W0NIXUMoPVtDSF0yKUMoPU8pW05IXVtDSDJdW0NIMl1jM1tjSF1bY0hdW2NIXW5bY0hdMw==

> <s_epik_cmdline>
J2VwaWtfcHl0aG9uJywgJy1waCcsICc3LjAnLCAnLXRuJywgJzgnLCAnLW1hJywgJzIwMCcsICctbWV0YWxfYmluZGluZycsICctaW1hZScsICc8aW5maWxlLm1hZT4nLCAnLW9tYWUnLCAnPG91dGZpbGUubWFlPic=

> <r_epik_Ionization_Penalty>
6.83439

> <r_epik_Ionization_Penalty_Charging>
6.83439

> <r_epik_Ionization_Penalty_Neutral>
0

> <r_epik_State_Penalty>
7.45298

> <r_epik_Charging_Adjusted_Penalty>
14.2874

> <i_epik_Tot_Q>
0

> <i_epik_Tot_abs_Q>
2

> <r_epik_Metal_State_Penalty>
3.5959

> <b_epik_Metal_Only>
1

> <s_lp_Force_Field>
OPLS_2005

> <r_lp_Energy>
30.4634

> <b_lp_Chiralities_Consistent>
1

> <s_lp_Variant>
AV-unprocessed.smi:2164-4

> <Gold.Version>
5.8.1

> <Gold.Id.Protein>
6NUR|6NUR_protein|mol2

> <Gold.PLP.Fitness>
46.9550

> <Gold.PLP.PLP>
-39.7417

> <Gold.PLP.part.hbond>
-3.1110

> <Gold.PLP.part.metal>
0.0000

> <Gold.PLP.part.buried>
-6.4736

> <Gold.PLP.part.nonpolar>
-32.1308

> <Gold.PLP.part.repulsive>
2.9564

> <Gold.PLP.ligand.clash>
0.0000

> <Gold.PLP.ligand.torsion>
0.9183

> <Gold.PLP.Chemscore.Hbond>
2.0000

> <Gold.PLP.Chemscore.CHOScore>
1.0000

> <Gold.PLP.Chemscore.Metal>
0.0000

> <Gold.Chemscore.Hbonds>
donor molecule, donor type, donor heavy atom, donor atom, acceptor molecule, acceptor atom, score
      P1  H  6896  6908       L1    18  1.00
      P1  H  7989  7998       L1     3  1.00
      L1  C    13    32       P1  7948  0.41

> <Gold.PLP.Chemscore.Internal.Correction>
0.0500

> <Gold.Rescore>
     Score         DG    S(hbond)    S(metal)    S(lipo)     H(rot)  DE(clash)    DE(int)     intcor
     17.65     -19.28       1.60        0.00     105.31       1.51       0.52       1.11       ----

> <Gold.Chemscore.Fitness>
17.6481

> <Gold.Chemscore.DG>
-19.2764

> <Gold.Chemscore.ZeroCoef>
-5.4800

> <Gold.Chemscore.Hbond>
1.5998

> <Gold.Chemscore.Metal>
0.0000

> <Gold.Chemscore.Lipo>
105.3082

> <Gold.Chemscore.Internal_Hbond>
0.0000

> <Gold.Chemscore.DEClash>
0.5170

> <Gold.Chemscore.DEInternal>
1.1112

> <Gold.Chemscore.Rot>
1.5109

> <Gold.Chemscore.Internal.Correction>
   9.000000E+99

> <Gold.Chemscore.Hbonds>
donor molecule, donor type, donor heavy atom, donor atom, acceptor molecule, acceptor atom, score
      P1  H  6896  6908       L1    18  0.40
      P1  H  7989  7998       L1     3  0.59

> <Gold.Chemscore.Hbond.Weighted>
-5.3433

> <Gold.Chemscore.Metal.Weighted>
-0.0000

> <Gold.Chemscore.Lipo.Weighted>
-12.3211

> <Gold.Chemscore.Internal_Hbond.Weighted>
0.0000

> <Gold.Chemscore.DEClash.Weighted>
0.5170

> <Gold.Chemscore.DEInternal.Weighted>
1.1112

> <Gold.Chemscore.Rot.Weighted>
3.8680

> <Gold.Chemscore.Internal.Correction.Weighted>
   9.000000E+99

> <Gold.Protein.RotatedTorsions>
[ 6907 6896 6895 6894 ] final   92.68 input  -60.11 | X-H torsion
[ 7974 7965 7964 7962 ] final  -14.51 input  175.53 | X-H torsion
[ 8008 7997 7996 7995 ] final    6.20 input   59.86 | X-H torsion
[ 10167 10162 10161 10158 ] final -128.56 input  -65.29 | X-H torsion
[ 10718 10713 10712 10709 ] final   75.19 input   66.30 | X-H torsion
[ 10763 10752 10751 10750 ] final -166.72 input  -60.55 | X-H torsion
[ 11005 11000 10999 10996 ] final  -21.92 input  -57.11 | X-H torsion

> <Gold.Protein.ActiveResidues>
 VAL166  LYS551  ARG553  GLY616  TRP617  ASP618  TYR619  PRO620  LYS621  CYS622 
 ASP623  PHE694  ASN695  SER759  ASP760  ASP761  ALA762  ILE779  LEU786  VAL792 
 PHE793  MET794  SER795  GLU796  ALA797  LYS798  CYS799  TRP800  GLU811  SER814 

> <Gold.Protein.RotatedAtoms>
  152.5453  134.1465  159.8500 H   0  0  0  0  0  0  0  0  0  0  0  0  # atno 6907 bound_to 6896
  151.1496  133.4909  159.2603 H   0  0  0  0  0  0  0  0  0  0  0  0  # atno 6908 bound_to 6896
  151.1486  135.0226  159.8713 H   0  0  0  0  0  0  0  0  0  0  0  0  # atno 6909 bound_to 6896
  146.2071  140.3359  142.8403 H   0  0  0  0  0  0  0  0  0  0  0  0  # atno 7974 bound_to 7965
  154.7379  140.2743  155.6398 H   0  0  0  0  0  0  0  0  0  0  0  0  # atno 8008 bound_to 7997
  156.2866  140.2703  156.2024 H   0  0  0  0  0  0  0  0  0  0  0  0  # atno 8009 bound_to 7997
  155.0296  140.0371  157.2459 H   0  0  0  0  0  0  0  0  0  0  0  0  # atno 8010 bound_to 7997
  139.9491  143.6077  152.2481 H   0  0  0  0  0  0  0  0  0  0  0  0  # atno 10167 bound_to 10162
  157.6624  130.9714  150.1318 H   0  0  0  0  0  0  0  0  0  0  0  0  # atno 10718 bound_to 10713
  154.6805  135.2954  154.9620 H   0  0  0  0  0  0  0  0  0  0  0  0  # atno 10763 bound_to 10752
  154.0616  135.6630  153.4816 H   0  0  0  0  0  0  0  0  0  0  0  0  # atno 10764 bound_to 10752
  153.0544  135.5154  154.7845 H   0  0  0  0  0  0  0  0  0  0  0  0  # atno 10765 bound_to 10752
  140.8608  133.7790  156.0072 H   0  0  0  0  0  0  0  0  0  0  0  0  # atno 11005 bound_to 11000
  144.8820  140.7412  143.5981 LP  0  0  0  0  0  0  0  0  0  0  0  0  # atno 17320 bound_to 7965
  145.3279  139.1768  143.4552 LP  0  0  0  0  0  0  0  0  0  0  0  0  # atno 17321 bound_to 7965
  139.6643  144.7662  151.1903 LP  0  0  0  0  0  0  0  0  0  0  0  0  # atno 17342 bound_to 10162
  140.7588  143.5962  150.8746 LP  0  0  0  0  0  0  0  0  0  0  0  0  # atno 17343 bound_to 10162
  156.2162  130.3670  149.8610 LP  0  0  0  0  0  0  0  0  0  0  0  0  # atno 17370 bound_to 10713
  156.6475  130.8730  151.3525 LP  0  0  0  0  0  0  0  0  0  0  0  0  # atno 17371 bound_to 10713
  140.8685  134.2755  157.5202 LP  0  0  0  0  0  0  0  0  0  0  0  0  # atno 17394 bound_to 11000
  139.8707  134.9555  156.4209 LP  0  0  0  0  0  0  0  0  0  0  0  0  # atno 17395 bound_to 11000

$$$$
