AV-unprocessed.smi:3232|AV-procd|sdf|12342|dock9
  -GOLD-   2272018203D 1   1.00000     0.00000
 Structure written by MMmdl.
 40 41  0  0  0  0  0  0  0  0  2 V2000
  148.1691  141.0237  154.8983 C   0  0  0  0  0  0  0  0  0  0  0  0
  148.8878  139.8706  154.1849 C   0  0  0  0  0  0  0  0  0  0  0  0
  149.7342  139.0792  155.1105 N   0  3  1  0  0  0  0  0  0  0  0  0
  150.4366  137.9384  154.4865 C   0  0  0  0  0  0  0  0  0  0  0  0
  151.6152  137.6512  155.4072 C   0  0  0  0  0  0  0  0  0  0  0  0
  152.0388  139.0427  155.8629 C   0  0  0  0  0  0  0  0  0  0  0  0
  150.7429  139.8792  155.8502 C   0  0  2  0  0  0  0  0  0  0  0  0
  150.2197  140.2343  157.2581 C   0  0  0  0  0  0  0  0  0  0  0  0
  151.0523  141.2328  157.9183 N   0  0  0  0  0  0  0  0  0  0  0  0
  152.2386  140.9874  158.4961 C   0  0  0  0  0  0  0  0  0  0  0  0
  152.7776  139.8800  158.4765 O   0  0  0  0  0  0  0  0  0  0  0  0
  152.8919  142.1723  159.2235 C   0  0  2  0  0  0  0  0  0  0  0  0
  153.0376  141.9434  160.7392 C   0  0  0  0  0  0  0  0  0  0  0  0
  152.1486  143.3946  158.9490 N   0  0  0  0  0  0  0  0  0  0  0  0
  152.5410  144.5600  158.4262 C   0  0  0  0  0  0  0  0  0  0  0  0
  151.5747  145.4630  158.3416 N   0  0  0  0  0  0  0  0  0  0  0  0
  150.5387  144.7371  158.8575 C   0  0  0  0  0  0  0  0  0  0  0  0
  150.8299  143.4942  159.2415 N   0  0  0  0  0  0  0  0  0  0  0  0
  147.6064  141.6263  154.1850 H   0  0  0  0  0  0  0  0  0  0  0  0
  148.8796  141.6820  155.3987 H   0  0  0  0  0  0  0  0  0  0  0  0
  147.4637  140.6589  155.6449 H   0  0  0  0  0  0  0  0  0  0  0  0
  148.1657  139.2206  153.6888 H   0  0  0  0  0  0  0  0  0  0  0  0
  149.5223  140.2880  153.4020 H   0  0  0  0  0  0  0  0  0  0  0  0
  149.7823  137.0743  154.3690 H   0  0  0  0  0  0  0  0  0  0  0  0
  150.8046  138.2228  153.4991 H   0  0  0  0  0  0  0  0  0  0  0  0
  151.2824  137.0653  156.2650 H   0  0  0  0  0  0  0  0  0  0  0  0
  152.4175  137.1022  154.9129 H   0  0  0  0  0  0  0  0  0  0  0  0
  152.5405  139.0203  156.8308 H   0  0  0  0  0  0  0  0  0  0  0  0
  152.7460  139.4598  155.1446 H   0  0  0  0  0  0  0  0  0  0  0  0
  150.9442  140.7994  155.2986 H   0  0  0  0  0  0  0  0  0  0  0  0
  149.1918  140.5975  157.2041 H   0  0  0  0  0  0  0  0  0  0  0  0
  150.1987  139.3423  157.8850 H   0  0  0  0  0  0  0  0  0  0  0  0
  150.6834  142.1715  157.9767 H   0  0  0  0  0  0  0  0  0  0  0  0
  153.8966  142.2870  158.8120 H   0  0  0  0  0  0  0  0  0  0  0  0
  153.6068  141.0372  160.9496 H   0  0  0  0  0  0  0  0  0  0  0  0
  152.0682  141.8503  161.2307 H   0  0  0  0  0  0  0  0  0  0  0  0
  153.5648  142.7752  161.2074 H   0  0  0  0  0  0  0  0  0  0  0  0
  153.5551  144.7528  158.1075 H   0  0  0  0  0  0  0  0  0  0  0  0
  149.5410  145.1383  158.9578 H   0  0  0  0  0  0  0  0  0  0  0  0
  149.1260  138.6861  155.8143 H   0  0  0  0  0  0  0  0  0  0  0  0
  1  2  1  0  0  0  0
  1 19  1  0  0  0  0
  1 20  1  0  0  0  0
  1 21  1  0  0  0  0
  2  3  1  0  0  0  0
  2 22  1  0  0  0  0
  2 23  1  0  0  0  0
  3  7  1  0  0  0  0
  3  4  1  0  0  0  0
  3 40  1  0  0  0  0
  4  5  1  0  0  0  0
  4 24  1  0  0  0  0
  4 25  1  0  0  0  0
  5  6  1  0  0  0  0
  5 26  1  0  0  0  0
  5 27  1  0  0  0  0
  6  7  1  0  0  0  0
  6 28  1  0  0  0  0
  6 29  1  0  0  0  0
  7  8  1  0  0  0  0
  7 30  1  0  0  0  0
  8  9  1  0  0  0  0
  8 31  1  0  0  0  0
  8 32  1  0  0  0  0
  9 10  1  0  0  0  0
  9 33  1  0  0  0  0
 10 11  2  0  0  0  0
 10 12  1  0  0  0  0
 12 13  1  0  0  0  0
 12 14  1  0  0  0  0
 12 34  1  0  0  0  0
 13 35  1  0  0  0  0
 13 36  1  0  0  0  0
 13 37  1  0  0  0  0
 14 18  1  0  0  0  0
 14 15  1  0  0  0  0
 15 16  2  0  0  0  0
 15 38  1  0  0  0  0
 16 17  1  0  0  0  0
 17 18  2  0  0  0  0
 17 39  1  0  0  0  0
M  CHG  1   3   1
M  END
> <s_m_source_file>
AV-unprocessed.smi

> <i_m_source_file_index>
3232

> <i_lp_mmshare_version>
43012

> <i_f3d_flags>
0

> <s_epik_input>
W0NIM11bQ0gyXU4xW0NIMl1bQ0gyXVtDSDJdW0NASF0xW0NIMl1bTkhdQyg9TylbQ0BIXShbQ0gzXSluMltjSF1uW2NIXW4y

> <s_epik_cmdline>
J2VwaWtfcHl0aG9uJywgJy1waCcsICc3LjAnLCAnLXRuJywgJzgnLCAnLW1hJywgJzIwMCcsICctbWV0YWxfYmluZGluZycsICctaW1hZScsICc8aW5maWxlLm1hZT4nLCAnLW9tYWUnLCAnPG91dGZpbGUubWFlPic=

> <r_lp_tautomer_probability>
1

> <r_epik_Ionization_Penalty>
0.00177695

> <r_epik_Ionization_Penalty_Charging>
0.00176881

> <r_epik_Ionization_Penalty_Neutral>
8.13528e-06

> <r_epik_State_Penalty>
0.00119827

> <r_epik_Charging_Adjusted_Penalty>
0.00296709

> <i_epik_Tot_Q>
1

> <i_epik_Tot_abs_Q>
1

> <r_epik_Metal_State_Penalty>
-0

> <b_epik_Metal_Only>
0

> <s_lp_Force_Field>
OPLS_2005

> <r_lp_Energy>
32.398

> <b_lp_Chiralities_Consistent>
1

> <s_lp_Variant>
AV-unprocessed.smi:3232-4

> <Gold.Version>
5.8.1

> <Gold.Id.Protein>
6NUR|6NUR_protein|mol2

> <Gold.PLP.Fitness>
43.9325

> <Gold.PLP.PLP>
-40.2838

> <Gold.PLP.part.hbond>
-2.0000

> <Gold.PLP.part.metal>
0.0000

> <Gold.PLP.part.buried>
-2.1990

> <Gold.PLP.part.nonpolar>
-35.7898

> <Gold.PLP.part.repulsive>
0.3427

> <Gold.PLP.ligand.clash>
0.0000

> <Gold.PLP.ligand.torsion>
0.3469

> <Gold.PLP.Chemscore.Hbond>
1.0000

> <Gold.PLP.Chemscore.CHOScore>
0.4212

> <Gold.PLP.Chemscore.Metal>
0.0000

> <Gold.Chemscore.Hbonds>
donor molecule, donor type, donor heavy atom, donor atom, acceptor molecule, acceptor atom, score
      P1  H  7997  8010       L1    11  0.26
      L1  C    17    39       P1  8029  1.00

> <Gold.PLP.Chemscore.Internal.Correction>
0.0788

> <Gold.Rescore>
     Score         DG    S(hbond)    S(metal)    S(lipo)     H(rot)  DE(clash)    DE(int)     intcor
      7.24     -10.41       0.94        0.00      69.79       2.49       0.10       3.07       ----

> <Gold.Chemscore.Fitness>
7.2420

> <Gold.Chemscore.DG>
-10.4116

> <Gold.Chemscore.ZeroCoef>
-5.4800

> <Gold.Chemscore.Hbond>
0.9389

> <Gold.Chemscore.Metal>
0.0000

> <Gold.Chemscore.Lipo>
69.7900

> <Gold.Chemscore.Internal_Hbond>
0.0000

> <Gold.Chemscore.DEClash>
0.0969

> <Gold.Chemscore.DEInternal>
3.0727

> <Gold.Chemscore.Rot>
2.4882

> <Gold.Chemscore.Internal.Correction>
   9.000000E+99

> <Gold.Chemscore.Hbonds>
donor molecule, donor type, donor heavy atom, donor atom, acceptor molecule, acceptor atom, score
      P1  H  7997  8010       L1    11  0.12

> <Gold.Chemscore.Hbond.Weighted>
-3.1359

> <Gold.Chemscore.Metal.Weighted>
-0.0000

> <Gold.Chemscore.Lipo.Weighted>
-8.1654

> <Gold.Chemscore.Internal_Hbond.Weighted>
0.0000

> <Gold.Chemscore.DEClash.Weighted>
0.0969

> <Gold.Chemscore.DEInternal.Weighted>
3.0727

> <Gold.Chemscore.Rot.Weighted>
6.3697

> <Gold.Chemscore.Internal.Correction.Weighted>
   9.000000E+99

> <Gold.Protein.RotatedTorsions>
[ 6907 6896 6895 6894 ] final  -22.18 input  -60.11 | X-H torsion
[ 7974 7965 7964 7962 ] final -158.58 input  175.53 | X-H torsion
[ 8008 7997 7996 7995 ] final   41.93 input   59.86 | X-H torsion
[ 10167 10162 10161 10158 ] final   73.97 input  -65.29 | X-H torsion
[ 10718 10713 10712 10709 ] final -148.07 input   66.30 | X-H torsion
[ 10763 10752 10751 10750 ] final  172.28 input  -60.55 | X-H torsion
[ 11005 11000 10999 10996 ] final -158.06 input  -57.11 | X-H torsion

> <Gold.Protein.ActiveResidues>
 VAL166  LYS551  ARG553  GLY616  TRP617  ASP618  TYR619  PRO620  LYS621  CYS622 
 ASP623  PHE694  ASN695  SER759  ASP760  ASP761  ALA762  ILE779  LEU786  VAL792 
 PHE793  MET794  SER795  GLU796  ALA797  LYS798  CYS799  TRP800  GLU811  SER814 

> <Gold.Protein.RotatedAtoms>
  151.2224  135.0523  159.8954 H   0  0  0  0  0  0  0  0  0  0  0  0  # atno 6907 bound_to 6896
  152.5414  134.0626  159.8169 H   0  0  0  0  0  0  0  0  0  0  0  0  # atno 6908 bound_to 6896
  151.0794  133.5354  159.2653 H   0  0  0  0  0  0  0  0  0  0  0  0  # atno 6909 bound_to 6896
  144.7500  140.3808  143.6055 H   0  0  0  0  0  0  0  0  0  0  0  0  # atno 7974 bound_to 7965
  155.2777  140.3370  155.4260 H   0  0  0  0  0  0  0  0  0  0  0  0  # atno 8008 bound_to 7997
  156.2104  140.1767  156.7749 H   0  0  0  0  0  0  0  0  0  0  0  0  # atno 8009 bound_to 7997
  154.5678  140.0675  156.8903 H   0  0  0  0  0  0  0  0  0  0  0  0  # atno 8010 bound_to 7997
  140.0187  144.5557  150.7599 H   0  0  0  0  0  0  0  0  0  0  0  0  # atno 10167 bound_to 10162
  156.4155  130.8003  151.2223 H   0  0  0  0  0  0  0  0  0  0  0  0  # atno 10718 bound_to 10713
  154.4238  135.2758  155.1957 H   0  0  0  0  0  0  0  0  0  0  0  0  # atno 10763 bound_to 10752
  154.3892  135.6070  153.5837 H   0  0  0  0  0  0  0  0  0  0  0  0  # atno 10764 bound_to 10752
  152.9834  135.5899  154.4539 H   0  0  0  0  0  0  0  0  0  0  0  0  # atno 10765 bound_to 10752
  140.6578  134.4382  157.5235 H   0  0  0  0  0  0  0  0  0  0  0  0  # atno 11005 bound_to 11000
  145.6980  139.1654  143.2609 LP  0  0  0  0  0  0  0  0  0  0  0  0  # atno 17320 bound_to 7965
  146.1436  140.7024  142.9355 LP  0  0  0  0  0  0  0  0  0  0  0  0  # atno 17321 bound_to 7965
  140.7351  143.2737  151.3807 LP  0  0  0  0  0  0  0  0  0  0  0  0  # atno 17342 bound_to 10162
  139.6155  144.1012  152.2341 LP  0  0  0  0  0  0  0  0  0  0  0  0  # atno 17343 bound_to 10162
  157.7508  131.0244  150.3875 LP  0  0  0  0  0  0  0  0  0  0  0  0  # atno 17370 bound_to 10713
  156.4182  130.3947  149.6843 LP  0  0  0  0  0  0  0  0  0  0  0  0  # atno 17371 bound_to 10713
  139.9023  134.8527  156.1844 LP  0  0  0  0  0  0  0  0  0  0  0  0  # atno 17394 bound_to 11000
  141.0488  133.6899  156.1733 LP  0  0  0  0  0  0  0  0  0  0  0  0  # atno 17395 bound_to 11000

$$$$
