AV-unprocessed.smi:3270|AV-procd|sdf|12513|dock3
  -GOLD-   2272018423D 1   1.00000     0.00000
 Structure written by MMmdl.
 38 39  0  0  0  0  0  0  0  0  1 V2000
  152.2640  144.7106  158.2182 C   0  0  0  0  0  0  0  0  0  0  0  0
  151.5487  143.4575  158.7630 C   0  0  1  0  0  0  0  0  0  0  0  0
  151.2993  142.3879  157.6806 C   0  0  0  0  0  0  0  0  0  0  0  0
  151.8663  141.2959  157.7341 O   0  0  0  0  0  0  0  0  0  0  0  0
  150.4594  142.7190  156.6867 N   0  0  0  0  0  0  0  0  0  0  0  0
  150.0931  141.8416  155.5843 C   0  0  0  0  0  0  0  0  0  0  0  0
  149.8343  140.4172  156.1008 C   0  0  0  0  0  0  0  0  0  0  0  0
  150.3602  139.3498  155.2519 N   0  0  0  0  0  0  0  0  0  0  0  0
  149.9153  138.0233  155.6749 C   0  0  0  0  0  0  0  0  0  0  0  0
  150.5013  136.9107  154.7876 C   0  0  0  0  0  0  0  0  0  0  0  0
  151.9226  136.9957  154.7866 O   0  0  0  0  0  0  0  0  0  0  0  0
  152.3957  138.2599  154.3333 C   0  0  0  0  0  0  0  0  0  0  0  0
  151.8189  139.3734  155.2246 C   0  0  0  0  0  0  0  0  0  0  0  0
  152.2566  142.9026  159.9132 N   0  0  0  0  0  0  0  0  0  0  0  0
  153.4870  142.2772  159.9322 C   0  0  0  0  0  0  0  0  0  0  0  0
  153.7576  141.9428  161.2281 C   0  0  0  0  0  0  0  0  0  0  0  0
  152.6217  142.4141  161.9429 C   0  0  0  0  0  0  0  0  0  0  0  0
  151.7276  142.9897  161.1561 N   0  0  0  0  0  0  0  0  0  0  0  0
  151.6801  145.1907  157.4321 H   0  0  0  0  0  0  0  0  0  0  0  0
  153.2442  144.4703  157.8042 H   0  0  0  0  0  0  0  0  0  0  0  0
  152.4114  145.4477  159.0080 H   0  0  0  0  0  0  0  0  0  0  0  0
  150.5650  143.7720  159.1147 H   0  0  0  0  0  0  0  0  0  0  0  0
  150.0326  143.6338  156.7076 H   0  0  0  0  0  0  0  0  0  0  0  0
  149.2073  142.2530  155.1005 H   0  0  0  0  0  0  0  0  0  0  0  0
  150.8925  141.8236  154.8414 H   0  0  0  0  0  0  0  0  0  0  0  0
  150.2935  140.3362  157.0874 H   0  0  0  0  0  0  0  0  0  0  0  0
  148.7641  140.2714  156.2556 H   0  0  0  0  0  0  0  0  0  0  0  0
  150.2065  137.8480  156.7119 H   0  0  0  0  0  0  0  0  0  0  0  0
  148.8284  137.9581  155.6394 H   0  0  0  0  0  0  0  0  0  0  0  0
  150.2029  135.9309  155.1609 H   0  0  0  0  0  0  0  0  0  0  0  0
  150.1252  136.9931  153.7666 H   0  0  0  0  0  0  0  0  0  0  0  0
  153.4849  138.2680  154.3722 H   0  0  0  0  0  0  0  0  0  0  0  0
  152.1104  138.4112  153.2912 H   0  0  0  0  0  0  0  0  0  0  0  0
  152.1669  140.3407  154.8605 H   0  0  0  0  0  0  0  0  0  0  0  0
  152.2098  139.2624  156.2374 H   0  0  0  0  0  0  0  0  0  0  0  0
  154.0620  142.1232  159.0306 H   0  0  0  0  0  0  0  0  0  0  0  0
  154.6340  141.4391  161.6079 H   0  0  0  0  0  0  0  0  0  0  0  0
  152.4225  142.3569  163.0030 H   0  0  0  0  0  0  0  0  0  0  0  0
  1  2  1  0  0  0  0
  1 19  1  0  0  0  0
  1 20  1  0  0  0  0
  1 21  1  0  0  0  0
  2  3  1  0  0  0  0
  2 14  1  0  0  0  0
  2 22  1  0  0  0  0
  3  4  2  0  0  0  0
  3  5  1  0  0  0  0
  5  6  1  0  0  0  0
  5 23  1  0  0  0  0
  6  7  1  0  0  0  0
  6 24  1  0  0  0  0
  6 25  1  0  0  0  0
  7  8  1  0  0  0  0
  7 26  1  0  0  0  0
  7 27  1  0  0  0  0
  8 13  1  0  0  0  0
  8  9  1  0  0  0  0
  9 10  1  0  0  0  0
  9 28  1  0  0  0  0
  9 29  1  0  0  0  0
 10 11  1  0  0  0  0
 10 30  1  0  0  0  0
 10 31  1  0  0  0  0
 11 12  1  0  0  0  0
 12 13  1  0  0  0  0
 12 32  1  0  0  0  0
 12 33  1  0  0  0  0
 13 34  1  0  0  0  0
 13 35  1  0  0  0  0
 14 18  1  0  0  0  0
 14 15  1  0  0  0  0
 15 16  2  0  0  0  0
 15 36  1  0  0  0  0
 16 17  1  0  0  0  0
 16 37  1  0  0  0  0
 17 18  2  0  0  0  0
 17 38  1  0  0  0  0
M  END
> <s_m_source_file>
AV-unprocessed.smi

> <i_m_source_file_index>
3270

> <i_lp_mmshare_version>
43012

> <i_f3d_flags>
0

> <s_epik_input>
bjFbY0hdW2NIXVtjSF1uMVtDQEhdKFtDSDNdKUMoPU8pW05IXVtDSDJdW0NIMl1OMltDSDJdW0NIMl1PW0NIMl1bQ0gyXTI=

> <s_epik_cmdline>
J2VwaWtfcHl0aG9uJywgJy1waCcsICc3LjAnLCAnLXRuJywgJzgnLCAnLW1hJywgJzIwMCcsICctbWV0YWxfYmluZGluZycsICctaW1hZScsICc8aW5maWxlLm1hZT4nLCAnLW9tYWUnLCAnPG91dGZpbGUubWFlPic=

> <r_lp_tautomer_probability>
1

> <r_epik_Ionization_Penalty>
0.203323

> <r_epik_Ionization_Penalty_Charging>
0

> <r_epik_Ionization_Penalty_Neutral>
0.203323

> <r_epik_State_Penalty>
0.193192

> <r_epik_Charging_Adjusted_Penalty>
0.193192

> <i_epik_Tot_Q>
0

> <i_epik_Tot_abs_Q>
0

> <r_epik_Metal_State_Penalty>
0.193187

> <b_epik_Metal_Only>
0

> <s_lp_Force_Field>
OPLS_2005

> <r_lp_Energy>
25.3567

> <b_lp_Chiralities_Consistent>
1

> <s_lp_Variant>
AV-unprocessed.smi:3270-2

> <Gold.Version>
5.8.1

> <Gold.Id.Protein>
6NUR|6NUR_protein|mol2

> <Gold.PLP.Fitness>
46.4931

> <Gold.PLP.PLP>
-42.0305

> <Gold.PLP.part.hbond>
-3.0000

> <Gold.PLP.part.metal>
0.0000

> <Gold.PLP.part.buried>
-5.3897

> <Gold.PLP.part.nonpolar>
-34.5913

> <Gold.PLP.part.repulsive>
0.3201

> <Gold.PLP.ligand.clash>
0.0000

> <Gold.PLP.ligand.torsion>
0.6850

> <Gold.PLP.Chemscore.Hbond>
1.8990

> <Gold.PLP.Chemscore.CHOScore>
0.0000

> <Gold.PLP.Chemscore.Metal>
0.0000

> <Gold.Chemscore.Hbonds>
donor molecule, donor type, donor heavy atom, donor atom, acceptor molecule, acceptor atom, score
      L1  H     5    23       P1  8028  0.82
      P1  H  6933  6945       L1    18  0.05
      P1  H 10752 10764       L1    11  1.00

> <Gold.PLP.Chemscore.Internal.Correction>
0.1356

> <Gold.Rescore>
     Score         DG    S(hbond)    S(metal)    S(lipo)     H(rot)  DE(clash)    DE(int)     intcor
     15.36     -18.31       1.81        0.00      98.03       1.83       0.08       2.87       ----

> <Gold.Chemscore.Fitness>
15.3580

> <Gold.Chemscore.DG>
-18.3070

> <Gold.Chemscore.ZeroCoef>
-5.4800

> <Gold.Chemscore.Hbond>
1.8082

> <Gold.Chemscore.Metal>
0.0000

> <Gold.Chemscore.Lipo>
98.0328

> <Gold.Chemscore.Internal_Hbond>
0.0000

> <Gold.Chemscore.DEClash>
0.0751

> <Gold.Chemscore.DEInternal>
2.8739

> <Gold.Chemscore.Rot>
1.8290

> <Gold.Chemscore.Internal.Correction>
   9.000000E+99

> <Gold.Chemscore.Hbonds>
donor molecule, donor type, donor heavy atom, donor atom, acceptor molecule, acceptor atom, score
      L1  H     5    23       P1  8028  0.81
      P1  H 10752 10764       L1    11  0.89

> <Gold.Chemscore.Hbond.Weighted>
-6.0393

> <Gold.Chemscore.Metal.Weighted>
-0.0000

> <Gold.Chemscore.Lipo.Weighted>
-11.4698

> <Gold.Chemscore.Internal_Hbond.Weighted>
0.0000

> <Gold.Chemscore.DEClash.Weighted>
0.0751

> <Gold.Chemscore.DEInternal.Weighted>
2.8739

> <Gold.Chemscore.Rot.Weighted>
4.6821

> <Gold.Chemscore.Internal.Correction.Weighted>
   9.000000E+99

> <Gold.Protein.RotatedTorsions>
[ 6907 6896 6895 6894 ] final  115.65 input  -60.11 | X-H torsion
[ 7974 7965 7964 7962 ] final   36.95 input  175.53 | X-H torsion
[ 8008 7997 7996 7995 ] final  154.22 input   59.86 | X-H torsion
[ 10167 10162 10161 10158 ] final  -96.48 input  -65.29 | X-H torsion
[ 10718 10713 10712 10709 ] final -130.94 input   66.30 | X-H torsion
[ 10763 10752 10751 10750 ] final  -64.37 input  -60.55 | X-H torsion
[ 11005 11000 10999 10996 ] final  128.07 input  -57.11 | X-H torsion

> <Gold.Protein.ActiveResidues>
 VAL166  LYS551  ARG553  GLY616  TRP617  ASP618  TYR619  PRO620  LYS621  CYS622 
 ASP623  PHE694  ASN695  SER759  ASP760  ASP761  ALA762  ILE779  LEU786  VAL792 
 PHE793  MET794  SER795  GLU796  ALA797  LYS798  CYS799  TRP800  GLU811  SER814 

> <Gold.Protein.RotatedAtoms>
  152.4728  133.8068  159.6982 H   0  0  0  0  0  0  0  0  0  0  0  0  # atno 6907 bound_to 6896
  150.8727  133.7473  159.2963 H   0  0  0  0  0  0  0  0  0  0  0  0  # atno 6908 bound_to 6896
  151.5003  135.1065  159.9879 H   0  0  0  0  0  0  0  0  0  0  0  0  # atno 6909 bound_to 6896
  146.1174  139.5954  142.9312 H   0  0  0  0  0  0  0  0  0  0  0  0  # atno 7974 bound_to 7965
  156.2542  140.1972  156.6612 H   0  0  0  0  0  0  0  0  0  0  0  0  # atno 8008 bound_to 7997
  154.6463  140.0577  156.9929 H   0  0  0  0  0  0  0  0  0  0  0  0  # atno 8009 bound_to 7997
  155.1486  140.3249  155.4439 H   0  0  0  0  0  0  0  0  0  0  0  0  # atno 8010 bound_to 7997
  140.2934  143.3207  152.0322 H   0  0  0  0  0  0  0  0  0  0  0  0  # atno 10167 bound_to 10162
  156.2194  130.6969  151.0739 H   0  0  0  0  0  0  0  0  0  0  0  0  # atno 10718 bound_to 10713
  154.3291  135.6180  153.5543 H   0  0  0  0  0  0  0  0  0  0  0  0  # atno 10763 bound_to 10752
  152.9813  135.5742  154.4982 H   0  0  0  0  0  0  0  0  0  0  0  0  # atno 10764 bound_to 10752
  154.4665  135.2858  155.1651 H   0  0  0  0  0  0  0  0  0  0  0  0  # atno 10765 bound_to 10752
  139.9541  134.9616  156.8948 H   0  0  0  0  0  0  0  0  0  0  0  0  # atno 11005 bound_to 11000
  145.5538  141.0411  143.2263 LP  0  0  0  0  0  0  0  0  0  0  0  0  # atno 17320 bound_to 7965
  144.7565  139.7061  143.7252 LP  0  0  0  0  0  0  0  0  0  0  0  0  # atno 17321 bound_to 7965
  139.4932  144.6508  151.6679 LP  0  0  0  0  0  0  0  0  0  0  0  0  # atno 17342 bound_to 10162
  140.5713  144.0104  150.6218 LP  0  0  0  0  0  0  0  0  0  0  0  0  # atno 17343 bound_to 10162
  157.7080  131.0747  150.6601 LP  0  0  0  0  0  0  0  0  0  0  0  0  # atno 17370 bound_to 10713
  156.6664  130.4527  149.5671 LP  0  0  0  0  0  0  0  0  0  0  0  0  # atno 17371 bound_to 10713
  140.5650  134.0498  155.7411 LP  0  0  0  0  0  0  0  0  0  0  0  0  # atno 17394 bound_to 11000
  141.1209  133.9462  157.2730 LP  0  0  0  0  0  0  0  0  0  0  0  0  # atno 17395 bound_to 11000

$$$$
