AV-unprocessed.smi:158|AV-procd|sdf|1334|dock7
  -GOLD-   2262019 33D 1   1.00000     0.00000
 Structure written by MMmdl.
 31 33  0  0  0  0  0  0  0  0  1 V2000
  154.8159  141.8747  160.7760 N   0  0  0  0  0  0  0  0  0  0  0  0
  153.9649  142.2813  159.8234 C   0  0  0  0  0  0  0  0  0  0  0  0
  153.6011  143.5843  159.7996 N   0  0  0  0  0  0  0  0  0  0  0  0
  152.7501  144.0292  158.8679 C   0  0  0  0  0  0  0  0  0  0  0  0
  152.3531  145.7060  158.9245 Cl  0  0  0  0  0  0  0  0  0  0  0  0
  152.1717  143.3192  157.8948 N   0  0  0  0  0  0  0  0  0  0  0  0
  152.5386  142.0045  157.9061 C   0  0  0  0  0  0  0  0  0  0  0  0
  153.4284  141.4109  158.8428 C   0  0  0  0  0  0  0  0  0  0  0  0
  153.5714  140.0581  158.5721 N   0  0  0  0  0  0  0  0  0  0  0  0
  152.8083  139.8670  157.5303 C   0  0  0  0  0  0  0  0  0  0  0  0
  152.1541  140.9834  157.0541 N   0  0  0  0  0  0  0  0  0  0  0  0
  151.2226  141.0369  155.8748 C   0  0  1  0  0  0  0  0  0  0  0  0
  151.5354  139.9982  154.9918 O   0  0  0  0  0  0  0  0  0  0  0  0
  150.4138  139.1290  154.8209 C   0  0  1  0  0  0  0  0  0  0  0  0
  150.8504  137.6813  154.5308 C   0  0  0  0  0  0  0  0  0  0  0  0
  152.1590  137.4607  155.0134 O   0  0  0  0  0  0  0  0  0  0  0  0
  149.5214  139.3577  156.0502 C   0  0  1  0  0  0  0  0  0  0  0  0
  149.9174  138.5603  157.1513 O   0  0  0  0  0  0  0  0  0  0  0  0
  149.7596  140.8352  156.2999 C   0  0  1  0  0  0  0  0  0  0  0  0
  149.5103  141.2328  157.5501 F   0  0  0  0  0  0  0  0  0  0  0  0
  151.4155  142.0128  155.4281 H   0  0  0  0  0  0  0  0  0  0  0  0
  149.8826  139.5099  153.9468 H   0  0  0  0  0  0  0  0  0  0  0  0
  148.4734  139.1468  155.8344 H   0  0  0  0  0  0  0  0  0  0  0  0
  149.1308  141.4296  155.6361 H   0  0  0  0  0  0  0  0  0  0  0  0
  155.1011  140.9065  160.8148 H   0  0  0  0  0  0  0  0  0  0  0  0
  155.1711  142.5361  161.4511 H   0  0  0  0  0  0  0  0  0  0  0  0
  152.7043  138.8957  157.0688 H   0  0  0  0  0  0  0  0  0  0  0  0
  150.1800  136.9852  155.0357 H   0  0  0  0  0  0  0  0  0  0  0  0
  150.8072  137.4458  153.4678 H   0  0  0  0  0  0  0  0  0  0  0  0
  152.1917  137.7220  155.9212 H   0  0  0  0  0  0  0  0  0  0  0  0
  149.3659  137.7934  157.1791 H   0  0  0  0  0  0  0  0  0  0  0  0
  1  2  1  0  0  0  0
  1 25  1  0  0  0  0
  1 26  1  0  0  0  0
  2  8  1  0  0  0  0
  2  3  2  0  0  0  0
  3  4  1  0  0  0  0
  4  5  1  0  0  0  0
  4  6  2  0  0  0  0
  6  7  1  0  0  0  0
  7 11  1  0  0  0  0
  7  8  2  0  0  0  0
  8  9  1  0  0  0  0
  9 10  2  0  0  0  0
 10 11  1  0  0  0  0
 10 27  1  0  0  0  0
 11 12  1  0  0  0  0
 12 21  1  0  0  0  0
 12 19  1  0  0  0  0
 12 13  1  0  0  0  0
 13 14  1  0  0  0  0
 14 22  1  0  0  0  0
 14 15  1  0  0  0  0
 14 17  1  0  0  0  0
 15 16  1  0  0  0  0
 15 28  1  0  0  0  0
 15 29  1  0  0  0  0
 16 30  1  0  0  0  0
 17 23  1  0  0  0  0
 17 18  1  0  0  0  0
 17 19  1  0  0  0  0
 18 31  1  0  0  0  0
 19 24  1  0  0  0  0
 19 20  1  0  0  0  0
M  END
> <s_m_source_file>
AV-unprocessed.smi

> <i_m_source_file_index>
158

> <i_lp_mmshare_version>
43012

> <i_f3d_flags>
0

> <s_epik_input>
Q2xjKG4xKW5jKFtOSDJdKWMoYzEyKW5bY0hdbjJbQ0BASF0zT1tDQEhdKFtDSDJdW09IXSlbQ0BASF0oW09IXSlbQ0BASF0zRg==

> <s_epik_cmdline>
J2VwaWtfcHl0aG9uJywgJy1waCcsICc3LjAnLCAnLXRuJywgJzgnLCAnLW1hJywgJzIwMCcsICctbWV0YWxfYmluZGluZycsICctaW1hZScsICc8aW5maWxlLm1hZT4nLCAnLW9tYWUnLCAnPG91dGZpbGUubWFlPic=

> <r_lp_tautomer_probability>
1

> <r_epik_Ionization_Penalty>
6.51543e-05

> <r_epik_Ionization_Penalty_Charging>
0

> <r_epik_Ionization_Penalty_Neutral>
6.51543e-05

> <r_epik_State_Penalty>
-0

> <r_epik_Charging_Adjusted_Penalty>
0

> <i_epik_Tot_Q>
0

> <i_epik_Tot_abs_Q>
0

> <r_epik_Metal_State_Penalty>
-0

> <b_epik_Metal_Only>
0

> <s_epik_Chemistry_Notes>
This compound contains an acetal/aminal-like group ( X-CH(R)-Y where X, Y are N, S, or O) that may be acid/base labile, releasing an aldehyde.

> <s_lp_Force_Field>
OPLS_2005

> <r_lp_Energy>
41.2986

> <b_lp_Chiralities_Consistent>
1

> <s_lp_Variant>
AV-unprocessed.smi:158-12

> <Gold.Version>
5.8.1

> <Gold.Id.Protein>
6NUR|6NUR_protein|mol2

> <Gold.PLP.Fitness>
39.3497

> <Gold.PLP.PLP>
-36.3715

> <Gold.PLP.part.hbond>
-2.0000

> <Gold.PLP.part.metal>
0.0000

> <Gold.PLP.part.buried>
-7.8368

> <Gold.PLP.part.nonpolar>
-27.1027

> <Gold.PLP.part.repulsive>
0.0846

> <Gold.PLP.ligand.clash>
0.0000

> <Gold.PLP.ligand.torsion>
1.2440

> <Gold.PLP.Chemscore.Hbond>
1.5589

> <Gold.PLP.Chemscore.CHOScore>
0.0000

> <Gold.PLP.Chemscore.Metal>
0.0000

> <Gold.Chemscore.Hbonds>
donor molecule, donor type, donor heavy atom, donor atom, acceptor molecule, acceptor atom, score
      P1  H  7989  7998       L1    13  1.00
      P1  H 10752 10765       L1    16  0.70

> <Gold.PLP.Chemscore.Internal.Correction>
0.7897

> <Gold.Rescore>
     Score         DG    S(hbond)    S(metal)    S(lipo)     H(rot)  DE(clash)    DE(int)     intcor
      4.55      -5.79       0.95        0.00      43.94       3.12       0.00       1.24       ----

> <Gold.Chemscore.Fitness>
4.5463

> <Gold.Chemscore.DG>
-5.7892

> <Gold.Chemscore.ZeroCoef>
-5.4800

> <Gold.Chemscore.Hbond>
0.9470

> <Gold.Chemscore.Metal>
0.0000

> <Gold.Chemscore.Lipo>
43.9424

> <Gold.Chemscore.Internal_Hbond>
0.0000

> <Gold.Chemscore.DEClash>
0.0000

> <Gold.Chemscore.DEInternal>
1.2428

> <Gold.Chemscore.Rot>
3.1230

> <Gold.Chemscore.Internal.Correction>
   9.000000E+99

> <Gold.Chemscore.Hbonds>
donor molecule, donor type, donor heavy atom, donor atom, acceptor molecule, acceptor atom, score
      P1  H  7989  7998       L1    13  0.15
      P1  H 10752 10765       L1    16  0.51

> <Gold.Chemscore.Hbond.Weighted>
-3.1629

> <Gold.Chemscore.Metal.Weighted>
-0.0000

> <Gold.Chemscore.Lipo.Weighted>
-5.1413

> <Gold.Chemscore.Internal_Hbond.Weighted>
0.0000

> <Gold.Chemscore.DEClash.Weighted>
0.0000

> <Gold.Chemscore.DEInternal.Weighted>
1.2428

> <Gold.Chemscore.Rot.Weighted>
7.9950

> <Gold.Chemscore.Internal.Correction.Weighted>
   9.000000E+99

> <Gold.Protein.RotatedTorsions>
[ 6907 6896 6895 6894 ] final   21.37 input  -60.11 | X-H torsion
[ 7974 7965 7964 7962 ] final   84.35 input  175.53 | X-H torsion
[ 8008 7997 7996 7995 ] final  -69.40 input   59.86 | X-H torsion
[ 10167 10162 10161 10158 ] final   -9.98 input  -65.29 | X-H torsion
[ 10718 10713 10712 10709 ] final -178.66 input   66.30 | X-H torsion
[ 10763 10752 10751 10750 ] final -172.94 input  -60.55 | X-H torsion
[ 11005 11000 10999 10996 ] final   20.81 input  -57.11 | X-H torsion

> <Gold.Protein.ActiveResidues>
 VAL166  LYS551  ARG553  GLY616  TRP617  ASP618  TYR619  PRO620  LYS621  CYS622 
 ASP623  PHE694  ASN695  SER759  ASP760  ASP761  ALA762  ILE779  LEU786  VAL792 
 PHE793  MET794  SER795  GLU796  ALA797  LYS798  CYS799  TRP800  GLU811  SER814 

> <Gold.Protein.RotatedAtoms>
  151.9107  135.0340  160.0513 H   0  0  0  0  0  0  0  0  0  0  0  0  # atno 6907 bound_to 6896
  152.2282  133.5032  159.5209 H   0  0  0  0  0  0  0  0  0  0  0  0  # atno 6908 bound_to 6896
  150.7018  134.1169  159.4063 H   0  0  0  0  0  0  0  0  0  0  0  0  # atno 6909 bound_to 6896
  145.5999  139.2351  143.2251 H   0  0  0  0  0  0  0  0  0  0  0  0  # atno 7974 bound_to 7965
  154.4936  140.0854  156.7647 H   0  0  0  0  0  0  0  0  0  0  0  0  # atno 8008 bound_to 7997
  155.4172  140.3444  155.4250 H   0  0  0  0  0  0  0  0  0  0  0  0  # atno 8009 bound_to 7997
  156.1363  140.1516  156.8977 H   0  0  0  0  0  0  0  0  0  0  0  0  # atno 8010 bound_to 7997
  140.7102  143.5798  150.9004 H   0  0  0  0  0  0  0  0  0  0  0  0  # atno 10167 bound_to 10162
  156.8476  130.9708  151.3095 H   0  0  0  0  0  0  0  0  0  0  0  0  # atno 10718 bound_to 10713
  154.6136  135.2867  155.0405 H   0  0  0  0  0  0  0  0  0  0  0  0  # atno 10763 bound_to 10752
  154.1626  135.6485  153.4993 H   0  0  0  0  0  0  0  0  0  0  0  0  # atno 10764 bound_to 10752
  153.0205  135.5382  154.6899 H   0  0  0  0  0  0  0  0  0  0  0  0  # atno 10765 bound_to 10752
  140.3985  134.1743  155.7663 H   0  0  0  0  0  0  0  0  0  0  0  0  # atno 11005 bound_to 11000
  146.1584  140.6825  142.9289 LP  0  0  0  0  0  0  0  0  0  0  0  0  # atno 17320 bound_to 7965
  144.7314  140.4683  143.6935 LP  0  0  0  0  0  0  0  0  0  0  0  0  # atno 17321 bound_to 7965
  139.9524  143.6257  152.3025 LP  0  0  0  0  0  0  0  0  0  0  0  0  # atno 17342 bound_to 10162
  139.6780  144.7657  151.1660 LP  0  0  0  0  0  0  0  0  0  0  0  0  # atno 17343 bound_to 10162
  157.6321  130.8737  149.9293 LP  0  0  0  0  0  0  0  0  0  0  0  0  # atno 17370 bound_to 10713
  156.0846  130.3669  150.0513 LP  0  0  0  0  0  0  0  0  0  0  0  0  # atno 17371 bound_to 10713
  141.1865  133.8301  157.1066 LP  0  0  0  0  0  0  0  0  0  0  0  0  # atno 17394 bound_to 11000
  140.0353  134.9881  157.0860 LP  0  0  0  0  0  0  0  0  0  0  0  0  # atno 17395 bound_to 11000

$$$$
