AV-unprocessed.smi:109|AV-procd|sdf|1056|dock2
  -GOLD-   2262018123D 1   1.00000     0.00000
 Structure written by MMmdl.
 58 61  0  0  0  0  0  0  0  0  1 V2000
  149.9889  130.8374  155.0216 O   0  0  0  0  0  0  0  0  0  0  0  0
  149.4734  132.1442  154.8872 C   0  0  0  0  0  0  0  0  0  0  0  0
  148.6463  132.2489  153.5959 C   0  0  0  0  0  0  0  0  0  0  0  0
  147.6937  133.4652  153.5875 C   0  0  1  0  0  0  0  0  0  0  0  0
  148.4315  134.6756  153.9484 N   0  0  0  0  0  0  0  0  0  0  0  0
  148.3817  135.1883  155.1978 C   0  0  0  0  0  0  0  0  0  0  0  0
  147.6785  134.5763  156.1865 N   0  0  0  0  0  0  0  0  0  0  0  0
  147.6502  135.1050  157.4137 C   0  0  0  0  0  0  0  0  0  0  0  0
  148.2427  136.2158  157.8583 N   0  0  0  0  0  0  0  0  0  0  0  0
  148.9507  136.8323  156.8677 C   0  0  0  0  0  0  0  0  0  0  0  0
  149.0688  136.3859  155.5226 C   0  0  0  0  0  0  0  0  0  0  0  0
  149.8641  137.2676  154.8027 N   0  0  0  0  0  0  0  0  0  0  0  0
  150.1961  138.1787  155.6778 C   0  0  0  0  0  0  0  0  0  0  0  0
  149.6938  137.9897  156.9483 N   0  0  0  0  0  0  0  0  0  0  0  0
  149.8766  138.8289  158.1764 C   0  0  2  0  0  0  0  0  0  0  0  0
  149.6816  140.1626  157.8069 O   0  0  0  0  0  0  0  0  0  0  0  0
  150.8687  140.9272  158.0108 C   0  0  2  0  0  0  0  0  0  0  0  0
  151.0021  142.0294  156.9450 C   0  0  0  0  0  0  0  0  0  0  0  0
  149.7291  142.4004  156.4605 O   0  0  0  0  0  0  0  0  0  0  0  0
  152.0148  139.9084  158.1145 C   0  0  2  0  0  0  0  0  0  0  0  0
  152.5752  139.6097  156.8470 O   0  0  0  0  0  0  0  0  0  0  0  0
  151.3043  138.7172  158.7439 C   0  0  2  0  0  0  0  0  0  0  0  0
  151.9621  137.4825  158.5167 O   0  0  0  0  0  0  0  0  0  0  0  0
  146.9330  133.6644  152.2473 C   0  0  0  0  0  0  0  0  0  0  0  0
  145.9654  134.8672  152.2799 C   0  0  0  0  0  0  0  0  0  0  0  0
  145.3093  135.0970  150.9085 C   0  0  0  0  0  0  0  0  0  0  0  0
  144.5868  133.8326  150.4182 C   0  0  0  0  0  0  0  0  0  0  0  0
  145.5397  132.6274  150.3838 C   0  0  0  0  0  0  0  0  0  0  0  0
  146.1974  132.3974  151.7541 C   0  0  0  0  0  0  0  0  0  0  0  0
  149.1016  138.4875  158.8634 H   0  0  0  0  0  0  0  0  0  0  0  0
  150.7507  141.3987  158.9882 H   0  0  0  0  0  0  0  0  0  0  0  0
  152.8178  140.2771  158.7537 H   0  0  0  0  0  0  0  0  0  0  0  0
  151.2340  138.8795  159.8202 H   0  0  0  0  0  0  0  0  0  0  0  0
  149.4538  130.3658  155.6417 H   0  0  0  0  0  0  0  0  0  0  0  0
  148.8584  132.3740  155.7579 H   0  0  0  0  0  0  0  0  0  0  0  0
  150.3044  132.8501  154.8784 H   0  0  0  0  0  0  0  0  0  0  0  0
  149.3182  132.2915  152.7377 H   0  0  0  0  0  0  0  0  0  0  0  0
  148.0740  131.3285  153.4886 H   0  0  0  0  0  0  0  0  0  0  0  0
  146.9488  133.2758  154.3612 H   0  0  0  0  0  0  0  0  0  0  0  0
  148.8737  135.1602  153.1805 H   0  0  0  0  0  0  0  0  0  0  0  0
  147.0714  134.5596  158.1443 H   0  0  0  0  0  0  0  0  0  0  0  0
  150.8226  139.0176  155.4143 H   0  0  0  0  0  0  0  0  0  0  0  0
  151.5191  142.9069  157.3337 H   0  0  0  0  0  0  0  0  0  0  0  0
  151.5926  141.6622  156.1054 H   0  0  0  0  0  0  0  0  0  0  0  0
  149.7161  143.3375  156.3386 H   0  0  0  0  0  0  0  0  0  0  0  0
  151.9141  139.1876  156.3198 H   0  0  0  0  0  0  0  0  0  0  0  0
  152.1780  137.4222  157.5991 H   0  0  0  0  0  0  0  0  0  0  0  0
  147.6809  133.9079  151.4911 H   0  0  0  0  0  0  0  0  0  0  0  0
  145.1828  134.7104  153.0215 H   0  0  0  0  0  0  0  0  0  0  0  0
  146.5014  135.7679  152.5813 H   0  0  0  0  0  0  0  0  0  0  0  0
  144.6056  135.9276  150.9682 H   0  0  0  0  0  0  0  0  0  0  0  0
  146.0701  135.3882  150.1832 H   0  0  0  0  0  0  0  0  0  0  0  0
  143.7452  133.6142  151.0767 H   0  0  0  0  0  0  0  0  0  0  0  0
  144.1674  134.0041  149.4264 H   0  0  0  0  0  0  0  0  0  0  0  0
  144.9962  131.7328  150.0785 H   0  0  0  0  0  0  0  0  0  0  0  0
  146.3115  132.7921  149.6310 H   0  0  0  0  0  0  0  0  0  0  0  0
  146.8919  131.5597  151.6845 H   0  0  0  0  0  0  0  0  0  0  0  0
  145.4290  132.1045  152.4700 H   0  0  0  0  0  0  0  0  0  0  0  0
  1  2  1  0  0  0  0
  1 34  1  0  0  0  0
  2  3  1  0  0  0  0
  2 35  1  0  0  0  0
  2 36  1  0  0  0  0
  3  4  1  0  0  0  0
  3 37  1  0  0  0  0
  3 38  1  0  0  0  0
  4  5  1  0  0  0  0
  4 24  1  0  0  0  0
  4 39  1  0  0  0  0
  5  6  1  0  0  0  0
  5 40  1  0  0  0  0
  6 11  1  0  0  0  0
  6  7  2  0  0  0  0
  7  8  1  0  0  0  0
  8  9  2  0  0  0  0
  8 41  1  0  0  0  0
  9 10  1  0  0  0  0
 10 14  1  0  0  0  0
 10 11  2  0  0  0  0
 11 12  1  0  0  0  0
 12 13  2  0  0  0  0
 13 14  1  0  0  0  0
 13 42  1  0  0  0  0
 14 15  1  0  0  0  0
 15 30  1  0  0  0  0
 15 22  1  0  0  0  0
 15 16  1  0  0  0  0
 16 17  1  0  0  0  0
 17 31  1  0  0  0  0
 17 18  1  0  0  0  0
 17 20  1  0  0  0  0
 18 19  1  0  0  0  0
 18 43  1  0  0  0  0
 18 44  1  0  0  0  0
 19 45  1  0  0  0  0
 20 32  1  0  0  0  0
 20 21  1  0  0  0  0
 20 22  1  0  0  0  0
 21 46  1  0  0  0  0
 22 33  1  0  0  0  0
 22 23  1  0  0  0  0
 23 47  1  0  0  0  0
 24 29  1  0  0  0  0
 24 25  1  0  0  0  0
 24 48  1  0  0  0  0
 25 26  1  0  0  0  0
 25 49  1  0  0  0  0
 25 50  1  0  0  0  0
 26 27  1  0  0  0  0
 26 51  1  0  0  0  0
 26 52  1  0  0  0  0
 27 28  1  0  0  0  0
 27 53  1  0  0  0  0
 27 54  1  0  0  0  0
 28 29  1  0  0  0  0
 28 55  1  0  0  0  0
 28 56  1  0  0  0  0
 29 57  1  0  0  0  0
 29 58  1  0  0  0  0
M  END
> <s_m_source_file>
AV-unprocessed.smi

> <i_m_source_file_index>
109

> <i_lp_mmshare_version>
43012

> <i_f3d_flags>
0

> <s_epik_input>
W0NIMl0xW0NIMl1bQ0gyXVtDSDJdW0NIMl1bQ0hdMVtDQEhdKFtDSDJdW0NIMl1bT0hdKVtOSF1jKG5bY0hdbjIpYyhjMjMpbltjSF1uM1tDQEBIXTRPW0NASF0oW0NIMl1bT0hdKVtDQEBIXShbT0hdKVtDQEhdNFtPSF0=

> <s_epik_cmdline>
J2VwaWtfcHl0aG9uJywgJy1waCcsICc3LjAnLCAnLXRuJywgJzgnLCAnLW1hJywgJzIwMCcsICctbWV0YWxfYmluZGluZycsICctaW1hZScsICc8aW5maWxlLm1hZT4nLCAnLW9tYWUnLCAnPG91dGZpbGUubWFlPic=

> <r_lp_tautomer_probability>
1

> <r_epik_Ionization_Penalty>
0.000793976

> <r_epik_Ionization_Penalty_Charging>
0

> <r_epik_Ionization_Penalty_Neutral>
0.000793976

> <r_epik_State_Penalty>
-0

> <r_epik_Charging_Adjusted_Penalty>
0

> <i_epik_Tot_Q>
0

> <i_epik_Tot_abs_Q>
0

> <r_epik_Metal_State_Penalty>
-0

> <b_epik_Metal_Only>
0

> <s_epik_Chemistry_Notes>
This compound contains an acetal/aminal-like group ( X-CH(R)-Y where X, Y are N, S, or O) that may be acid/base labile, releasing an aldehyde.

> <s_lp_Force_Field>
OPLS_2005

> <r_lp_Energy>
58.3807

> <b_lp_Chiralities_Consistent>
1

> <s_lp_Variant>
AV-unprocessed.smi:109-26

> <Gold.Version>
5.8.1

> <Gold.Id.Protein>
6NUR|6NUR_protein|mol2

> <Gold.PLP.Fitness>
44.7388

> <Gold.PLP.PLP>
-36.9341

> <Gold.PLP.part.hbond>
-3.0000

> <Gold.PLP.part.metal>
0.0000

> <Gold.PLP.part.buried>
-6.6889

> <Gold.PLP.part.nonpolar>
-27.3239

> <Gold.PLP.part.repulsive>
0.2033

> <Gold.PLP.ligand.clash>
0.0000

> <Gold.PLP.ligand.torsion>
1.0630

> <Gold.PLP.Chemscore.Hbond>
3.0000

> <Gold.PLP.Chemscore.CHOScore>
0.0000

> <Gold.PLP.Chemscore.Metal>
0.0000

> <Gold.Chemscore.Hbonds>
donor molecule, donor type, donor heavy atom, donor atom, acceptor molecule, acceptor atom, score
      L1  H     5    40       P1  7948  1.00
      L1  H    19    45       P1  8028  0.96
      P1  H  7997  8009       L1    21  1.00

> <Gold.PLP.Chemscore.Internal.Correction>
0.9306

> <Gold.Rescore>
     Score         DG    S(hbond)    S(metal)    S(lipo)     H(rot)  DE(clash)    DE(int)     intcor
      7.59     -10.10       2.92        0.00      75.74       5.47       0.00       2.51       ----

> <Gold.Chemscore.Fitness>
7.5891

> <Gold.Chemscore.DG>
-10.1000

> <Gold.Chemscore.ZeroCoef>
-5.4800

> <Gold.Chemscore.Hbond>
2.9198

> <Gold.Chemscore.Metal>
0.0000

> <Gold.Chemscore.Lipo>
75.7383

> <Gold.Chemscore.Internal_Hbond>
0.0000

> <Gold.Chemscore.DEClash>
0.0000

> <Gold.Chemscore.DEInternal>
2.5109

> <Gold.Chemscore.Rot>
5.4662

> <Gold.Chemscore.Internal.Correction>
   9.000000E+99

> <Gold.Chemscore.Hbonds>
donor molecule, donor type, donor heavy atom, donor atom, acceptor molecule, acceptor atom, score
      L1  H     5    40       P1  7948  0.44
      L1  H    19    45       P1  8028  0.92
      P1  H  7997  8009       L1    21  0.88

> <Gold.Chemscore.Hbond.Weighted>
-9.7521

> <Gold.Chemscore.Metal.Weighted>
-0.0000

> <Gold.Chemscore.Lipo.Weighted>
-8.8614

> <Gold.Chemscore.Internal_Hbond.Weighted>
0.0000

> <Gold.Chemscore.DEClash.Weighted>
0.0000

> <Gold.Chemscore.DEInternal.Weighted>
2.5109

> <Gold.Chemscore.Rot.Weighted>
13.9935

> <Gold.Chemscore.Internal.Correction.Weighted>
   9.000000E+99

> <Gold.Protein.RotatedTorsions>
[ 6907 6896 6895 6894 ] final -137.77 input  -60.11 | X-H torsion
[ 7974 7965 7964 7962 ] final  -71.50 input  175.53 | X-H torsion
[ 8008 7997 7996 7995 ] final  176.16 input   59.86 | X-H torsion
[ 10167 10162 10161 10158 ] final  164.79 input  -65.29 | X-H torsion
[ 10718 10713 10712 10709 ] final   85.95 input   66.30 | X-H torsion
[ 10763 10752 10751 10750 ] final -111.07 input  -60.55 | X-H torsion
[ 11005 11000 10999 10996 ] final -118.41 input  -57.11 | X-H torsion

> <Gold.Protein.ActiveResidues>
 VAL166  LYS551  ARG553  GLY616  TRP617  ASP618  TYR619  PRO620  LYS621  CYS622 
 ASP623  PHE694  ASN695  SER759  ASP760  ASP761  ALA762  ILE779  LEU786  VAL792 
 PHE793  MET794  SER795  GLU796  ALA797  LYS798  CYS799  TRP800  GLU811  SER814 

> <Gold.Protein.RotatedAtoms>
  151.0267  133.5828  159.2665 H   0  0  0  0  0  0  0  0  0  0  0  0  # atno 6907 bound_to 6896
  151.2924  135.0745  159.9219 H   0  0  0  0  0  0  0  0  0  0  0  0  # atno 6908 bound_to 6896
  152.5335  133.9962  159.7928 H   0  0  0  0  0  0  0  0  0  0  0  0  # atno 6909 bound_to 6896
  145.6772  140.9200  143.0851 H   0  0  0  0  0  0  0  0  0  0  0  0  # atno 7974 bound_to 7965
  156.0794  140.1390  156.9731 H   0  0  0  0  0  0  0  0  0  0  0  0  # atno 8008 bound_to 7997
  154.4576  140.0955  156.6851 H   0  0  0  0  0  0  0  0  0  0  0  0  # atno 8009 bound_to 7997
  155.5101  140.3453  155.4389 H   0  0  0  0  0  0  0  0  0  0  0  0  # atno 8010 bound_to 7997
  139.4895  144.4198  151.9200 H   0  0  0  0  0  0  0  0  0  0  0  0  # atno 10167 bound_to 10162
  157.6922  131.0196  150.2900 H   0  0  0  0  0  0  0  0  0  0  0  0  # atno 10718 bound_to 10713
  154.8281  135.4541  154.0982 H   0  0  0  0  0  0  0  0  0  0  0  0  # atno 10763 bound_to 10752
  153.2279  135.6902  153.7930 H   0  0  0  0  0  0  0  0  0  0  0  0  # atno 10764 bound_to 10752
  153.7324  135.3325  155.3265 H   0  0  0  0  0  0  0  0  0  0  0  0  # atno 10765 bound_to 10752
  141.0288  134.0013  157.3174 H   0  0  0  0  0  0  0  0  0  0  0  0  # atno 11005 bound_to 11000
  144.7037  139.8649  143.7436 LP  0  0  0  0  0  0  0  0  0  0  0  0  # atno 17320 bound_to 7965
  146.0995  139.3989  143.0356 LP  0  0  0  0  0  0  0  0  0  0  0  0  # atno 17321 bound_to 7965
  140.3642  144.2935  150.5929 LP  0  0  0  0  0  0  0  0  0  0  0  0  # atno 17342 bound_to 10162
  140.5376  143.2230  151.8138 LP  0  0  0  0  0  0  0  0  0  0  0  0  # atno 17343 bound_to 10162
  156.3432  130.3819  149.7391 LP  0  0  0  0  0  0  0  0  0  0  0  0  # atno 17370 bound_to 10713
  156.4893  130.8077  151.3088 LP  0  0  0  0  0  0  0  0  0  0  0  0  # atno 17371 bound_to 10713
  139.9194  135.0199  156.8005 LP  0  0  0  0  0  0  0  0  0  0  0  0  # atno 17394 bound_to 11000
  140.6444  133.9789  155.7723 LP  0  0  0  0  0  0  0  0  0  0  0  0  # atno 17395 bound_to 11000

$$$$
