AV-unprocessed.smi:1934|AV-procd|sdf|7825|dock10
  -GOLD-   22720 9573D 1   1.00000     0.00000
 Structure written by MMmdl.
 46 47  0  0  0  0  0  0  0  0  2 V2000
  146.4097  129.5265  152.3237 C   0  0  0  0  0  0  0  0  0  0  0  0
  146.2001  130.9621  151.9409 C   0  0  0  0  0  0  0  0  0  0  0  0
  146.9201  132.1055  152.3935 C   0  0  0  0  0  0  0  0  0  0  0  0
  146.3100  133.1313  151.7243 C   0  0  0  0  0  0  0  0  0  0  0  0
  146.5904  134.4613  151.7645 N   0  0  0  0  0  0  0  0  0  0  0  0
  145.7728  135.4854  152.0651 C   0  0  0  0  0  0  0  0  0  0  0  0
  144.5724  135.3925  152.3230 O   0  0  0  0  0  0  0  0  0  0  0  0
  146.4309  136.6533  152.0445 N   0  0  0  0  0  0  0  0  0  0  0  0
  145.8344  137.9510  152.3387 C   0  0  0  0  0  0  0  0  0  0  0  0
  146.9087  139.0455  152.4835 C   0  0  0  0  0  0  0  0  0  0  0  0
  146.4791  140.1362  153.3939 N   0  3  1  0  0  0  0  0  0  0  0  0
  146.1044  139.6335  154.7408 C   0  0  0  0  0  0  0  0  0  0  0  0
  145.5127  140.7573  155.6062 C   0  0  0  0  0  0  0  0  0  0  0  0
  146.4842  141.9412  155.7119 C   0  0  0  0  0  0  0  0  0  0  0  0
  146.9301  142.4258  154.3197 C   0  0  2  0  0  0  0  0  0  0  0  0
  145.8335  143.2136  153.5819 C   0  0  0  0  0  0  0  0  0  0  0  0
  147.4662  141.2470  153.4808 C   0  0  0  0  0  0  0  0  0  0  0  0
  145.3055  132.6121  150.9357 N   0  0  0  0  0  0  0  0  0  0  0  0
  144.3755  133.2806  150.0456 C   0  0  0  0  0  0  0  0  0  0  0  0
  145.2401  131.2708  151.0769 N   0  0  0  0  0  0  0  0  0  0  0  0
  147.3136  129.4056  152.9211 H   0  0  0  0  0  0  0  0  0  0  0  0
  146.5096  128.8941  151.4412 H   0  0  0  0  0  0  0  0  0  0  0  0
  145.5711  129.1513  152.9103 H   0  0  0  0  0  0  0  0  0  0  0  0
  147.7438  132.1421  153.0902 H   0  0  0  0  0  0  0  0  0  0  0  0
  147.5472  134.7033  151.5524 H   0  0  0  0  0  0  0  0  0  0  0  0
  147.4157  136.6425  151.8211 H   0  0  0  0  0  0  0  0  0  0  0  0
  145.1105  138.1987  151.5616 H   0  0  0  0  0  0  0  0  0  0  0  0
  145.2703  137.8602  153.2672 H   0  0  0  0  0  0  0  0  0  0  0  0
  147.8109  138.5768  152.8795 H   0  0  0  0  0  0  0  0  0  0  0  0
  147.1816  139.4644  151.5135 H   0  0  0  0  0  0  0  0  0  0  0  0
  145.3683  138.8341  154.6472 H   0  0  0  0  0  0  0  0  0  0  0  0
  146.9814  139.2023  155.2268 H   0  0  0  0  0  0  0  0  0  0  0  0
  144.5649  141.0895  155.1814 H   0  0  0  0  0  0  0  0  0  0  0  0
  145.2835  140.3772  156.6021 H   0  0  0  0  0  0  0  0  0  0  0  0
  146.0289  142.7569  156.2748 H   0  0  0  0  0  0  0  0  0  0  0  0
  147.3611  141.6303  156.2815 H   0  0  0  0  0  0  0  0  0  0  0  0
  147.7570  143.1212  154.4695 H   0  0  0  0  0  0  0  0  0  0  0  0
  144.9637  142.5948  153.3622 H   0  0  0  0  0  0  0  0  0  0  0  0
  146.2053  143.6063  152.6351 H   0  0  0  0  0  0  0  0  0  0  0  0
  145.4948  144.0628  154.1760 H   0  0  0  0  0  0  0  0  0  0  0  0
  148.3874  140.8684  153.9267 H   0  0  0  0  0  0  0  0  0  0  0  0
  147.7316  141.6047  152.4864 H   0  0  0  0  0  0  0  0  0  0  0  0
  144.7112  134.2952  149.8316 H   0  0  0  0  0  0  0  0  0  0  0  0
  143.3905  133.3230  150.5108 H   0  0  0  0  0  0  0  0  0  0  0  0
  144.3022  132.7326  149.1055 H   0  0  0  0  0  0  0  0  0  0  0  0
  145.6352  140.5225  152.9956 H   0  0  0  0  0  0  0  0  0  0  0  0
  1  2  1  0  0  0  0
  1 21  1  0  0  0  0
  1 22  1  0  0  0  0
  1 23  1  0  0  0  0
  2 20  2  0  0  0  0
  2  3  1  0  0  0  0
  3  4  2  0  0  0  0
  3 24  1  0  0  0  0
  4  5  1  0  0  0  0
  4 18  1  0  0  0  0
  5  6  1  0  0  0  0
  5 25  1  0  0  0  0
  6  7  2  0  0  0  0
  6  8  1  0  0  0  0
  8  9  1  0  0  0  0
  8 26  1  0  0  0  0
  9 10  1  0  0  0  0
  9 27  1  0  0  0  0
  9 28  1  0  0  0  0
 10 11  1  0  0  0  0
 10 29  1  0  0  0  0
 10 30  1  0  0  0  0
 11 17  1  0  0  0  0
 11 12  1  0  0  0  0
 11 46  1  0  0  0  0
 12 13  1  0  0  0  0
 12 31  1  0  0  0  0
 12 32  1  0  0  0  0
 13 14  1  0  0  0  0
 13 33  1  0  0  0  0
 13 34  1  0  0  0  0
 14 15  1  0  0  0  0
 14 35  1  0  0  0  0
 14 36  1  0  0  0  0
 15 16  1  0  0  0  0
 15 17  1  0  0  0  0
 15 37  1  0  0  0  0
 16 38  1  0  0  0  0
 16 39  1  0  0  0  0
 16 40  1  0  0  0  0
 17 41  1  0  0  0  0
 17 42  1  0  0  0  0
 18 19  1  0  0  0  0
 18 20  1  0  0  0  0
 19 43  1  0  0  0  0
 19 44  1  0  0  0  0
 19 45  1  0  0  0  0
M  CHG  1  11   1
M  END
> <s_m_source_file>
AV-unprocessed.smi

> <i_m_source_file_index>
1934

> <i_lp_mmshare_version>
43012

> <i_f3d_flags>
0

> <s_epik_input>
W0NIM11jMVtjSF1jKG4objEpW0NIM10pW05IXUMoPU8pW05IXVtDSDJdW0NIMl1OMltDSDJdW0NIMl1bQ0gyXVtDQEBIXShbQ0gzXSlbQ0gyXTI=

> <s_epik_cmdline>
J2VwaWtfcHl0aG9uJywgJy1waCcsICc3LjAnLCAnLXRuJywgJzgnLCAnLW1hJywgJzIwMCcsICctbWV0YWxfYmluZGluZycsICctaW1hZScsICc8aW5maWxlLm1hZT4nLCAnLW9tYWUnLCAnPG91dGZpbGUubWFlPic=

> <r_lp_tautomer_probability>
1

> <r_epik_Ionization_Penalty>
0.00202955

> <r_epik_Ionization_Penalty_Charging>
0.00195276

> <r_epik_Ionization_Penalty_Neutral>
7.67968e-05

> <r_epik_State_Penalty>
0.00133177

> <r_epik_Charging_Adjusted_Penalty>
0.00328452

> <i_epik_Tot_Q>
1

> <i_epik_Tot_abs_Q>
1

> <r_epik_Metal_State_Penalty>
-0

> <b_epik_Metal_Only>
0

> <s_lp_Force_Field>
OPLS_2005

> <r_lp_Energy>
20.4325

> <b_lp_Chiralities_Consistent>
1

> <s_lp_Variant>
AV-unprocessed.smi:1934-3

> <Gold.Version>
5.8.1

> <Gold.Id.Protein>
6NUR|6NUR_protein|mol2

> <Gold.PLP.Fitness>
46.6925

> <Gold.PLP.PLP>
-36.5904

> <Gold.PLP.part.hbond>
-3.0000

> <Gold.PLP.part.metal>
0.0000

> <Gold.PLP.part.buried>
-3.3801

> <Gold.PLP.part.nonpolar>
-29.8329

> <Gold.PLP.part.repulsive>
0.3155

> <Gold.PLP.ligand.clash>
0.0000

> <Gold.PLP.ligand.torsion>
0.7483

> <Gold.PLP.Chemscore.Hbond>
3.8564

> <Gold.PLP.Chemscore.CHOScore>
0.0000

> <Gold.PLP.Chemscore.Metal>
0.0000

> <Gold.Chemscore.Hbonds>
donor molecule, donor type, donor heavy atom, donor atom, acceptor molecule, acceptor atom, score
      L1  H     5    25       P1  7948  0.84
      L1  H     8    26       P1  7948  1.00
      L1  H    11    46       P1 10175  2.00

> <Gold.PLP.Chemscore.Internal.Correction>
0.0293

> <Gold.Rescore>
     Score         DG    S(hbond)    S(metal)    S(lipo)     H(rot)  DE(clash)    DE(int)     intcor
     17.52     -18.33       2.64        0.00      66.98       1.48       0.01       0.80       ----

> <Gold.Chemscore.Fitness>
17.5188

> <Gold.Chemscore.DG>
-18.3251

> <Gold.Chemscore.ZeroCoef>
-5.4800

> <Gold.Chemscore.Hbond>
2.6369

> <Gold.Chemscore.Metal>
0.0000

> <Gold.Chemscore.Lipo>
66.9756

> <Gold.Chemscore.Internal_Hbond>
0.0000

> <Gold.Chemscore.DEClash>
0.0050

> <Gold.Chemscore.DEInternal>
0.8012

> <Gold.Chemscore.Rot>
1.4838

> <Gold.Chemscore.Internal.Correction>
   9.000000E+99

> <Gold.Chemscore.Hbonds>
donor molecule, donor type, donor heavy atom, donor atom, acceptor molecule, acceptor atom, score
      L1  H     5    25       P1  7948  0.27
      L1  H     8    26       P1  7948  0.96
      L1  H    11    46       P1 10175  0.76

> <Gold.Chemscore.Hbond.Weighted>
-8.8074

> <Gold.Chemscore.Metal.Weighted>
-0.0000

> <Gold.Chemscore.Lipo.Weighted>
-7.8361

> <Gold.Chemscore.Internal_Hbond.Weighted>
0.0000

> <Gold.Chemscore.DEClash.Weighted>
0.0050

> <Gold.Chemscore.DEInternal.Weighted>
0.8012

> <Gold.Chemscore.Rot.Weighted>
3.7985

> <Gold.Chemscore.Internal.Correction.Weighted>
   9.000000E+99

> <Gold.Protein.RotatedTorsions>
[ 6907 6896 6895 6894 ] final   91.73 input  -60.11 | X-H torsion
[ 7974 7965 7964 7962 ] final  -33.89 input  175.53 | X-H torsion
[ 8008 7997 7996 7995 ] final  -65.19 input   59.86 | X-H torsion
[ 10167 10162 10161 10158 ] final  -43.40 input  -65.29 | X-H torsion
[ 10718 10713 10712 10709 ] final   46.64 input   66.30 | X-H torsion
[ 10763 10752 10751 10750 ] final   98.45 input  -60.55 | X-H torsion
[ 11005 11000 10999 10996 ] final  136.49 input  -57.11 | X-H torsion

> <Gold.Protein.ActiveResidues>
 VAL166  LYS551  ARG553  GLY616  TRP617  ASP618  TYR619  PRO620  LYS621  CYS622 
 ASP623  PHE694  ASN695  SER759  ASP760  ASP761  ALA762  ILE779  LEU786  VAL792 
 PHE793  MET794  SER795  GLU796  ALA797  LYS798  CYS799  TRP800  GLU811  SER814 

> <Gold.Protein.RotatedAtoms>
  152.5451  134.1612  159.8558 H   0  0  0  0  0  0  0  0  0  0  0  0  # atno 6907 bound_to 6896
  151.1630  133.4826  159.2601 H   0  0  0  0  0  0  0  0  0  0  0  0  # atno 6908 bound_to 6896
  151.1353  135.0163  159.8656 H   0  0  0  0  0  0  0  0  0  0  0  0  # atno 6909 bound_to 6896
  146.0874  140.5971  142.8880 H   0  0  0  0  0  0  0  0  0  0  0  0  # atno 7974 bound_to 7965
  154.4657  140.0938  156.7013 H   0  0  0  0  0  0  0  0  0  0  0  0  # atno 8008 bound_to 7997
  155.4866  140.3469  155.4330 H   0  0  0  0  0  0  0  0  0  0  0  0  # atno 8009 bound_to 7997
  156.0951  140.1407  156.9530 H   0  0  0  0  0  0  0  0  0  0  0  0  # atno 8010 bound_to 7997
  140.6935  143.2985  151.3347 H   0  0  0  0  0  0  0  0  0  0  0  0  # atno 10167 bound_to 10162
  157.4502  130.8134  149.7781 H   0  0  0  0  0  0  0  0  0  0  0  0  # atno 10718 bound_to 10713
  153.2892  135.4148  155.1151 H   0  0  0  0  0  0  0  0  0  0  0  0  # atno 10763 bound_to 10752
  154.8515  135.3514  154.6004 H   0  0  0  0  0  0  0  0  0  0  0  0  # atno 10764 bound_to 10752
  153.6427  135.7056  153.5294 H   0  0  0  0  0  0  0  0  0  0  0  0  # atno 10765 bound_to 10752
  140.0050  134.9463  157.0155 H   0  0  0  0  0  0  0  0  0  0  0  0  # atno 11005 bound_to 11000
  144.7335  140.4742  143.6920 LP  0  0  0  0  0  0  0  0  0  0  0  0  # atno 17320 bound_to 7965
  145.6104  139.1512  143.3079 LP  0  0  0  0  0  0  0  0  0  0  0  0  # atno 17321 bound_to 7965
  139.6363  144.0624  152.2518 LP  0  0  0  0  0  0  0  0  0  0  0  0  # atno 17342 bound_to 10162
  140.0115  144.6220  150.7643 LP  0  0  0  0  0  0  0  0  0  0  0  0  # atno 17343 bound_to 10162
  155.9984  130.3894  150.2703 LP  0  0  0  0  0  0  0  0  0  0  0  0  # atno 17370 bound_to 10713
  157.0874  131.0160  151.3134 LP  0  0  0  0  0  0  0  0  0  0  0  0  # atno 17371 bound_to 10713
  140.4658  134.1437  155.7197 LP  0  0  0  0  0  0  0  0  0  0  0  0  # atno 17394 bound_to 11000
  141.1670  133.8683  157.1685 LP  0  0  0  0  0  0  0  0  0  0  0  0  # atno 17395 bound_to 11000

$$$$
