AV-unprocessed.smi:2061|AV-procd|sdf|8378|dock4
  -GOLD-   2272011 53D 1   1.00000     0.00000
 Structure written by MMmdl.
 44 45  0  0  0  0  0  0  0  0  2 V2000
  146.0931  132.8304  162.2201 C   0  0  0  0  0  0  0  0  0  0  0  0
  146.8023  134.1271  162.0270 C   0  0  0  0  0  0  0  0  0  0  0  0
  147.1606  134.8321  160.9133 C   0  0  0  0  0  0  0  0  0  0  0  0
  147.8025  135.9822  161.4490 C   0  0  0  0  0  0  0  0  0  0  0  0
  148.3500  136.9828  160.7421 N   0  5  0  0  0  0  0  0  0  0  0  0
  148.7396  136.7812  159.4621 C   0  0  0  0  0  0  0  0  0  0  0  0
  149.8109  136.2958  159.0913 O   0  0  0  0  0  0  0  0  0  0  0  0
  147.8323  137.1710  158.5549 N   0  0  0  0  0  0  0  0  0  0  0  0
  147.9837  137.0945  157.1035 C   0  0  0  0  0  0  0  0  0  0  0  0
  147.9542  138.4847  156.4026 C   0  0  2  0  0  0  0  0  0  0  0  0
  147.3671  138.3125  154.9780 C   0  0  0  0  0  0  0  0  0  0  0  0
  149.2680  139.1715  156.4012 N   0  0  0  0  0  0  0  0  0  0  0  0
  150.2519  138.4952  155.5509 C   0  0  0  0  0  0  0  0  0  0  0  0
  151.6259  139.1886  155.5538 C   0  0  1  0  0  0  0  0  0  0  0  0
  152.6122  138.5145  154.5939 C   0  0  0  0  0  0  0  0  0  0  0  0
  151.4764  140.5451  155.1490 O   0  0  0  0  0  0  0  0  0  0  0  0
  150.5357  141.2946  155.9144 C   0  0  2  0  0  0  0  0  0  0  0  0
  151.0830  141.6517  157.3073 C   0  0  0  0  0  0  0  0  0  0  0  0
  149.1764  140.5681  155.9598 C   0  0  0  0  0  0  0  0  0  0  0  0
  147.8456  135.9670  162.7707 N   0  0  0  0  0  0  0  0  0  0  0  0
  147.2016  134.7832  163.1494 O   0  0  0  0  0  0  0  0  0  0  0  0
  146.7511  131.9937  161.9853 H   0  0  0  0  0  0  0  0  0  0  0  0
  145.2198  132.7674  161.5709 H   0  0  0  0  0  0  0  0  0  0  0  0
  145.7556  132.7169  163.2506 H   0  0  0  0  0  0  0  0  0  0  0  0
  146.9888  134.5706  159.8801 H   0  0  0  0  0  0  0  0  0  0  0  0
  146.9689  137.5614  158.9025 H   0  0  0  0  0  0  0  0  0  0  0  0
  148.9131  136.5587  156.9168 H   0  0  0  0  0  0  0  0  0  0  0  0
  147.1830  136.4657  156.7133 H   0  0  0  0  0  0  0  0  0  0  0  0
  147.2539  139.1092  156.9596 H   0  0  0  0  0  0  0  0  0  0  0  0
  146.4292  137.7582  154.9777 H   0  0  0  0  0  0  0  0  0  0  0  0
  148.0614  137.7800  154.3273 H   0  0  0  0  0  0  0  0  0  0  0  0
  147.1282  139.2661  154.5100 H   0  0  0  0  0  0  0  0  0  0  0  0
  150.4144  137.4744  155.8906 H   0  0  0  0  0  0  0  0  0  0  0  0
  149.8736  138.4323  154.5293 H   0  0  0  0  0  0  0  0  0  0  0  0
  152.0493  139.1527  156.5580 H   0  0  0  0  0  0  0  0  0  0  0  0
  152.7762  137.4718  154.8669 H   0  0  0  0  0  0  0  0  0  0  0  0
  153.5789  139.0183  154.6122 H   0  0  0  0  0  0  0  0  0  0  0  0
  152.2436  138.5383  153.5679 H   0  0  0  0  0  0  0  0  0  0  0  0
  150.3921  142.2350  155.3819 H   0  0  0  0  0  0  0  0  0  0  0  0
  150.4022  142.3239  157.8298 H   0  0  0  0  0  0  0  0  0  0  0  0
  152.0475  142.1540  157.2289 H   0  0  0  0  0  0  0  0  0  0  0  0
  151.2135  140.7708  157.9355 H   0  0  0  0  0  0  0  0  0  0  0  0
  148.7229  140.6036  154.9680 H   0  0  0  0  0  0  0  0  0  0  0  0
  148.5302  141.1443  156.6184 H   0  0  0  0  0  0  0  0  0  0  0  0
  1  2  1  0  0  0  0
  1 22  1  0  0  0  0
  1 23  1  0  0  0  0
  1 24  1  0  0  0  0
  2 21  1  0  0  0  0
  2  3  2  0  0  0  0
  3  4  1  0  0  0  0
  3 25  1  0  0  0  0
  4  5  1  0  0  0  0
  4 20  2  0  0  0  0
  5  6  1  0  0  0  0
  6  7  2  0  0  0  0
  6  8  1  0  0  0  0
  8  9  1  0  0  0  0
  8 26  1  0  0  0  0
  9 10  1  0  0  0  0
  9 27  1  0  0  0  0
  9 28  1  0  0  0  0
 10 11  1  0  0  0  0
 10 12  1  0  0  0  0
 10 29  1  0  0  0  0
 11 30  1  0  0  0  0
 11 31  1  0  0  0  0
 11 32  1  0  0  0  0
 12 19  1  0  0  0  0
 12 13  1  0  0  0  0
 13 14  1  0  0  0  0
 13 33  1  0  0  0  0
 13 34  1  0  0  0  0
 14 15  1  0  0  0  0
 14 16  1  0  0  0  0
 14 35  1  0  0  0  0
 15 36  1  0  0  0  0
 15 37  1  0  0  0  0
 15 38  1  0  0  0  0
 16 17  1  0  0  0  0
 17 18  1  0  0  0  0
 17 19  1  0  0  0  0
 17 39  1  0  0  0  0
 18 40  1  0  0  0  0
 18 41  1  0  0  0  0
 18 42  1  0  0  0  0
 19 43  1  0  0  0  0
 19 44  1  0  0  0  0
 20 21  1  0  0  0  0
M  CHG  1   5  -1
M  END
> <s_m_source_file>
AV-unprocessed.smi

> <i_m_source_file_index>
2061

> <i_lp_mmshare_version>
43012

> <i_f3d_flags>
0

> <s_epik_input>
W0NIM11jMVtjSF1jKG5vMSlbTkhdQyg9TylbTkhdW0NIMl1bQ0BIXShbQ0gzXSlOMltDSDJdW0NAQEhdKFtDSDNdKU9bQ0BASF0oW0NIM10pW0NIMl0y

> <s_epik_cmdline>
J2VwaWtfcHl0aG9uJywgJy1waCcsICc3LjAnLCAnLXRuJywgJzgnLCAnLW1hJywgJzIwMCcsICctbWV0YWxfYmluZGluZycsICctaW1hZScsICc8aW5maWxlLm1hZT4nLCAnLW9tYWUnLCAnPG91dGZpbGUubWFlPic=

> <r_epik_Ionization_Penalty>
6.88367

> <r_epik_Ionization_Penalty_Charging>
6.57198

> <r_epik_Ionization_Penalty_Neutral>
0.311681

> <r_epik_State_Penalty>
6.77619

> <r_epik_Charging_Adjusted_Penalty>
13.3482

> <i_epik_Tot_Q>
-1

> <i_epik_Tot_abs_Q>
1

> <r_epik_Metal_State_Penalty>
2.70524

> <b_epik_Metal_Only>
1

> <s_lp_Force_Field>
OPLS_2005

> <r_lp_Energy>
23.679

> <b_lp_Chiralities_Consistent>
1

> <s_lp_Variant>
AV-unprocessed.smi:2061-19

> <Gold.Version>
5.8.1

> <Gold.Id.Protein>
6NUR|6NUR_protein|mol2

> <Gold.PLP.Fitness>
43.7072

> <Gold.PLP.PLP>
-31.7906

> <Gold.PLP.part.hbond>
-4.2997

> <Gold.PLP.part.metal>
0.0000

> <Gold.PLP.part.buried>
-5.4471

> <Gold.PLP.part.nonpolar>
-22.6949

> <Gold.PLP.part.repulsive>
0.1392

> <Gold.PLP.ligand.clash>
0.0000

> <Gold.PLP.ligand.torsion>
1.2374

> <Gold.PLP.Chemscore.Hbond>
4.7854

> <Gold.PLP.Chemscore.CHOScore>
0.0000

> <Gold.PLP.Chemscore.Metal>
0.0000

> <Gold.Chemscore.Hbonds>
donor molecule, donor type, donor heavy atom, donor atom, acceptor molecule, acceptor atom, score
      P1  H  6896  6909       L1     7  1.00
      P1  H  6931  6943       L1     5  1.86
      P1  H  6934  6947       L1     5  0.27
      P1  H  7989  7998       L1    16  0.85

> <Gold.PLP.Chemscore.Internal.Correction>
0.0352

> <Gold.Rescore>
     Score         DG    S(hbond)    S(metal)    S(lipo)     H(rot)  DE(clash)    DE(int)     intcor
     17.14     -18.31       2.80        0.00      62.89       1.52       0.02       1.15       ----

> <Gold.Chemscore.Fitness>
17.1382

> <Gold.Chemscore.DG>
-18.3122

> <Gold.Chemscore.ZeroCoef>
-5.4800

> <Gold.Chemscore.Hbond>
2.8033

> <Gold.Chemscore.Metal>
0.0000

> <Gold.Chemscore.Lipo>
62.8880

> <Gold.Chemscore.Internal_Hbond>
0.0000

> <Gold.Chemscore.DEClash>
0.0203

> <Gold.Chemscore.DEInternal>
1.1537

> <Gold.Chemscore.Rot>
1.5190

> <Gold.Chemscore.Internal.Correction>
   9.000000E+99

> <Gold.Chemscore.Hbonds>
donor molecule, donor type, donor heavy atom, donor atom, acceptor molecule, acceptor atom, score
      P1  H  6896  6909       L1     7  1.00
      P1  H  6931  6943       L1     5  0.67
      P1  H  6934  6947       L1     5  0.09
      P1  H  7989  7998       L1    16  0.78

> <Gold.Chemscore.Hbond.Weighted>
-9.3629

> <Gold.Chemscore.Metal.Weighted>
-0.0000

> <Gold.Chemscore.Lipo.Weighted>
-7.3579

> <Gold.Chemscore.Internal_Hbond.Weighted>
0.0000

> <Gold.Chemscore.DEClash.Weighted>
0.0203

> <Gold.Chemscore.DEInternal.Weighted>
1.1537

> <Gold.Chemscore.Rot.Weighted>
3.8886

> <Gold.Chemscore.Internal.Correction.Weighted>
   9.000000E+99

> <Gold.Protein.RotatedTorsions>
[ 6907 6896 6895 6894 ] final   75.64 input  -60.11 | X-H torsion
[ 7974 7965 7964 7962 ] final  -55.81 input  175.53 | X-H torsion
[ 8008 7997 7996 7995 ] final   24.18 input   59.86 | X-H torsion
[ 10167 10162 10161 10158 ] final  -23.31 input  -65.29 | X-H torsion
[ 10718 10713 10712 10709 ] final -155.14 input   66.30 | X-H torsion
[ 10763 10752 10751 10750 ] final   -1.98 input  -60.55 | X-H torsion
[ 11005 11000 10999 10996 ] final -162.44 input  -57.11 | X-H torsion

> <Gold.Protein.ActiveResidues>
 VAL166  LYS551  ARG553  GLY616  TRP617  ASP618  TYR619  PRO620  LYS621  CYS622 
 ASP623  PHE694  ASN695  SER759  ASP760  ASP761  ALA762  ILE779  LEU786  VAL792 
 PHE793  MET794  SER795  GLU796  ALA797  LYS798  CYS799  TRP800  GLU811  SER814 

> <Gold.Protein.RotatedAtoms>
  152.5035  134.4090  159.9442 H   0  0  0  0  0  0  0  0  0  0  0  0  # atno 6907 bound_to 6896
  151.4057  133.3737  159.2745 H   0  0  0  0  0  0  0  0  0  0  0  0  # atno 6908 bound_to 6896
  150.9328  134.8764  159.7621 H   0  0  0  0  0  0  0  0  0  0  0  0  # atno 6909 bound_to 6896
  145.8698  140.8224  142.9894 H   0  0  0  0  0  0  0  0  0  0  0  0  # atno 7974 bound_to 7965
  154.9923  140.3115  155.4901 H   0  0  0  0  0  0  0  0  0  0  0  0  # atno 8008 bound_to 7997
  156.2938  140.2247  156.4969 H   0  0  0  0  0  0  0  0  0  0  0  0  # atno 8009 bound_to 7997
  154.7692  140.0453  157.1026 H   0  0  0  0  0  0  0  0  0  0  0  0  # atno 8010 bound_to 7997
  140.7288  143.4455  151.0593 H   0  0  0  0  0  0  0  0  0  0  0  0  # atno 10167 bound_to 10162
  156.5088  130.8425  151.2638 H   0  0  0  0  0  0  0  0  0  0  0  0  # atno 10718 bound_to 10713
  153.3520  135.6986  153.6781 H   0  0  0  0  0  0  0  0  0  0  0  0  # atno 10763 bound_to 10752
  153.5504  135.3555  155.2757 H   0  0  0  0  0  0  0  0  0  0  0  0  # atno 10764 bound_to 10752
  154.8655  135.4225  154.2758 H   0  0  0  0  0  0  0  0  0  0  0  0  # atno 10765 bound_to 10752
  140.6092  134.4866  157.5214 H   0  0  0  0  0  0  0  0  0  0  0  0  # atno 11005 bound_to 11000
  144.6726  140.1222  143.7449 LP  0  0  0  0  0  0  0  0  0  0  0  0  # atno 17320 bound_to 7965
  145.9150  139.2510  143.1415 LP  0  0  0  0  0  0  0  0  0  0  0  0  # atno 17321 bound_to 7965
  139.8126  143.7930  152.3172 LP  0  0  0  0  0  0  0  0  0  0  0  0  # atno 17342 bound_to 10162
  139.7985  144.7383  150.9858 LP  0  0  0  0  0  0  0  0  0  0  0  0  # atno 17343 bound_to 10162
  157.7453  130.9956  150.2751 LP  0  0  0  0  0  0  0  0  0  0  0  0  # atno 17370 bound_to 10713
  156.3260  130.3793  149.7533 LP  0  0  0  0  0  0  0  0  0  0  0  0  # atno 17371 bound_to 10713
  139.9199  134.8170  156.1245 LP  0  0  0  0  0  0  0  0  0  0  0  0  # atno 17394 bound_to 11000
  141.0819  133.6750  156.2355 LP  0  0  0  0  0  0  0  0  0  0  0  0  # atno 17395 bound_to 11000

$$$$
