AV-unprocessed.smi:821|AV-procd|sdf|3838|dock9
  -GOLD-   22720 1283D 1   1.00000     0.00000
 Structure written by MMmdl.
 44 45  0  0  0  0  0  0  0  0  1 V2000
  147.3625  135.9399  156.2403 C   0  0  0  0  0  0  0  0  0  0  0  0
  148.4083  136.3571  155.1919 C   0  0  2  0  0  0  0  0  0  0  0  0
  147.8505  137.4443  154.2473 C   0  0  0  0  0  0  0  0  0  0  0  0
  148.2622  138.8143  154.5547 N   0  0  0  0  0  0  0  0  0  0  0  0
  149.7115  138.9940  154.5067 C   0  0  0  0  0  0  0  0  0  0  0  0
  150.1216  140.4480  154.7992 C   0  0  0  0  0  0  0  0  0  0  0  0
  149.4690  141.3235  153.8857 O   0  0  0  0  0  0  0  0  0  0  0  0
  148.0507  141.2141  153.9408 C   0  0  0  0  0  0  0  0  0  0  0  0
  147.6357  139.7637  153.6404 C   0  0  0  0  0  0  0  0  0  0  0  0
  148.8020  135.1852  154.4133 N   0  0  0  0  0  0  0  0  0  0  0  0
  149.2369  134.0222  154.9214 C   0  0  0  0  0  0  0  0  0  0  0  0
  149.3744  133.8200  156.1283 O   0  0  0  0  0  0  0  0  0  0  0  0
  149.5872  132.9281  153.9043 C   0  0  0  0  0  0  0  0  0  0  0  0
  148.3946  132.3212  153.2890 N   0  0  0  0  0  0  0  0  0  0  0  0
  147.5337  133.1777  152.5799 C   0  0  0  0  0  0  0  0  0  0  0  0
  146.4242  132.7246  151.9810 C   0  0  0  0  0  0  0  0  0  0  0  0
  146.1227  131.3171  152.0779 C   0  0  0  0  0  0  0  0  0  0  0  0
  146.9329  130.4680  152.7513 C   0  0  0  0  0  0  0  0  0  0  0  0
  146.6311  128.9750  152.8608 C   0  0  0  0  0  0  0  0  0  0  0  0
  147.5603  128.2607  152.2246 F   0  0  0  0  0  0  0  0  0  0  0  0
  146.6146  128.5933  154.1385 F   0  0  0  0  0  0  0  0  0  0  0  0
  145.4469  128.6688  152.3286 F   0  0  0  0  0  0  0  0  0  0  0  0
  148.1542  130.9781  153.4071 C   0  0  0  0  0  0  0  0  0  0  0  0
  148.9232  130.2444  154.0309 O   0  0  0  0  0  0  0  0  0  0  0  0
  147.0563  136.7915  156.8484 H   0  0  0  0  0  0  0  0  0  0  0  0
  147.7588  135.1836  156.9188 H   0  0  0  0  0  0  0  0  0  0  0  0
  146.4694  135.5286  155.7687 H   0  0  0  0  0  0  0  0  0  0  0  0
  149.2735  136.7582  155.7240 H   0  0  0  0  0  0  0  0  0  0  0  0
  148.0828  137.2021  153.2086 H   0  0  0  0  0  0  0  0  0  0  0  0
  146.7620  137.4083  154.3114 H   0  0  0  0  0  0  0  0  0  0  0  0
  150.1958  138.3442  155.2353 H   0  0  0  0  0  0  0  0  0  0  0  0
  150.0891  138.7021  153.5255 H   0  0  0  0  0  0  0  0  0  0  0  0
  149.8649  140.7226  155.8235 H   0  0  0  0  0  0  0  0  0  0  0  0
  151.2004  140.5657  154.6974 H   0  0  0  0  0  0  0  0  0  0  0  0
  147.6926  141.5238  154.9236 H   0  0  0  0  0  0  0  0  0  0  0  0
  147.6113  141.8934  153.2101 H   0  0  0  0  0  0  0  0  0  0  0  0
  147.9053  139.5193  152.6117 H   0  0  0  0  0  0  0  0  0  0  0  0
  146.5503  139.6804  153.7059 H   0  0  0  0  0  0  0  0  0  0  0  0
  148.7282  135.2635  153.4094 H   0  0  0  0  0  0  0  0  0  0  0  0
  150.2414  133.3341  153.1300 H   0  0  0  0  0  0  0  0  0  0  0  0
  150.1861  132.1728  154.4147 H   0  0  0  0  0  0  0  0  0  0  0  0
  147.8346  134.2149  152.5488 H   0  0  0  0  0  0  0  0  0  0  0  0
  145.7748  133.3942  151.4368 H   0  0  0  0  0  0  0  0  0  0  0  0
  145.2289  130.9499  151.5961 H   0  0  0  0  0  0  0  0  0  0  0  0
  1  2  1  0  0  0  0
  1 25  1  0  0  0  0
  1 26  1  0  0  0  0
  1 27  1  0  0  0  0
  2  3  1  0  0  0  0
  2 10  1  0  0  0  0
  2 28  1  0  0  0  0
  3  4  1  0  0  0  0
  3 29  1  0  0  0  0
  3 30  1  0  0  0  0
  4  9  1  0  0  0  0
  4  5  1  0  0  0  0
  5  6  1  0  0  0  0
  5 31  1  0  0  0  0
  5 32  1  0  0  0  0
  6  7  1  0  0  0  0
  6 33  1  0  0  0  0
  6 34  1  0  0  0  0
  7  8  1  0  0  0  0
  8  9  1  0  0  0  0
  8 35  1  0  0  0  0
  8 36  1  0  0  0  0
  9 37  1  0  0  0  0
  9 38  1  0  0  0  0
 10 11  1  0  0  0  0
 10 39  1  0  0  0  0
 11 12  2  0  0  0  0
 11 13  1  0  0  0  0
 13 14  1  0  0  0  0
 13 40  1  0  0  0  0
 13 41  1  0  0  0  0
 14 23  1  0  0  0  0
 14 15  1  0  0  0  0
 15 16  2  0  0  0  0
 15 42  1  0  0  0  0
 16 17  1  0  0  0  0
 16 43  1  0  0  0  0
 17 18  2  0  0  0  0
 17 44  1  0  0  0  0
 18 19  1  0  0  0  0
 18 23  1  0  0  0  0
 19 20  1  0  0  0  0
 19 21  1  0  0  0  0
 19 22  1  0  0  0  0
 23 24  2  0  0  0  0
M  END
> <s_m_source_file>
AV-unprocessed.smi

> <i_m_source_file_index>
821

> <i_lp_mmshare_version>
43012

> <i_f3d_flags>
0

> <s_epik_input>
W0NIMl0xW0NIMl1PW0NIMl1bQ0gyXU4xW0NIMl1bQ0BASF0oW0NIM10pW05IXUMoPU8pW0NIMl1uMltjSF1bY0hdW2NIXWMoQyhGKShGKUYpYzI9Tw==

> <s_epik_cmdline>
J2VwaWtfcHl0aG9uJywgJy1waCcsICc3LjAnLCAnLXRuJywgJzgnLCAnLW1hJywgJzIwMCcsICctbWV0YWxfYmluZGluZycsICctaW1hZScsICc8aW5maWxlLm1hZT4nLCAnLW9tYWUnLCAnPG91dGZpbGUubWFlPic=

> <r_lp_tautomer_probability>
1

> <r_epik_Ionization_Penalty>
0.237382

> <r_epik_Ionization_Penalty_Charging>
1.90699e-09

> <r_epik_Ionization_Penalty_Neutral>
0.237382

> <r_epik_State_Penalty>
0.228245

> <r_epik_Charging_Adjusted_Penalty>
0.228245

> <i_epik_Tot_Q>
0

> <i_epik_Tot_abs_Q>
0

> <r_epik_Metal_State_Penalty>
0.228219

> <b_epik_Metal_Only>
0

> <s_lp_Force_Field>
OPLS_2005

> <r_lp_Energy>
36.3962

> <b_lp_Chiralities_Consistent>
1

> <s_lp_Variant>
AV-unprocessed.smi:821-1

> <Gold.Version>
5.8.1

> <Gold.Id.Protein>
6NUR|6NUR_protein|mol2

> <Gold.PLP.Fitness>
46.1892

> <Gold.PLP.PLP>
-39.5913

> <Gold.PLP.part.hbond>
-3.0000

> <Gold.PLP.part.metal>
0.0000

> <Gold.PLP.part.buried>
0.8869

> <Gold.PLP.part.nonpolar>
-36.5153

> <Gold.PLP.part.repulsive>
0.3957

> <Gold.PLP.ligand.clash>
0.1959

> <Gold.PLP.ligand.torsion>
0.8536

> <Gold.PLP.Chemscore.Hbond>
1.7200

> <Gold.PLP.Chemscore.CHOScore>
1.0000

> <Gold.PLP.Chemscore.Metal>
0.0000

> <Gold.Chemscore.Hbonds>
donor molecule, donor type, donor heavy atom, donor atom, acceptor molecule, acceptor atom, score
      L1  H    10    39       P1  7948  1.00
      P1  H  8011  8017       L1     7  0.80
      L1  C    15    42       P1  7948  1.00

> <Gold.PLP.Chemscore.Internal.Correction>
0.3410

> <Gold.Rescore>
     Score         DG    S(hbond)    S(metal)    S(lipo)     H(rot)  DE(clash)    DE(int)     intcor
      8.91     -13.41       1.53        0.00      69.97       2.09       0.10       4.40       ----

> <Gold.Chemscore.Fitness>
8.9120

> <Gold.Chemscore.DG>
-13.4111

> <Gold.Chemscore.ZeroCoef>
-5.4800

> <Gold.Chemscore.Hbond>
1.5274

> <Gold.Chemscore.Metal>
0.0000

> <Gold.Chemscore.Lipo>
69.9670

> <Gold.Chemscore.Internal_Hbond>
0.0000

> <Gold.Chemscore.DEClash>
0.0953

> <Gold.Chemscore.DEInternal>
4.4038

> <Gold.Chemscore.Rot>
2.0924

> <Gold.Chemscore.Internal.Correction>
   9.000000E+99

> <Gold.Chemscore.Hbonds>
donor molecule, donor type, donor heavy atom, donor atom, acceptor molecule, acceptor atom, score
      L1  H    10    39       P1  7948  0.78
      P1  H  8011  8017       L1     7  0.35

> <Gold.Chemscore.Hbond.Weighted>
-5.1016

> <Gold.Chemscore.Metal.Weighted>
-0.0000

> <Gold.Chemscore.Lipo.Weighted>
-8.1861

> <Gold.Chemscore.Internal_Hbond.Weighted>
0.0000

> <Gold.Chemscore.DEClash.Weighted>
0.0953

> <Gold.Chemscore.DEInternal.Weighted>
4.4038

> <Gold.Chemscore.Rot.Weighted>
5.3566

> <Gold.Chemscore.Internal.Correction.Weighted>
   9.000000E+99

> <Gold.Protein.RotatedTorsions>
[ 6907 6896 6895 6894 ] final -141.88 input  -60.11 | X-H torsion
[ 7974 7965 7964 7962 ] final   94.18 input  175.53 | X-H torsion
[ 8008 7997 7996 7995 ] final    4.50 input   59.86 | X-H torsion
[ 10167 10162 10161 10158 ] final   96.68 input  -65.29 | X-H torsion
[ 10718 10713 10712 10709 ] final -119.29 input   66.30 | X-H torsion
[ 10763 10752 10751 10750 ] final  169.54 input  -60.55 | X-H torsion
[ 11005 11000 10999 10996 ] final   26.54 input  -57.11 | X-H torsion

> <Gold.Protein.ActiveResidues>
 VAL166  LYS551  ARG553  GLY616  TRP617  ASP618  TYR619  PRO620  LYS621  CYS622 
 ASP623  PHE694  ASN695  SER759  ASP760  ASP761  ALA762  ILE779  LEU786  VAL792 
 PHE793  MET794  SER795  GLU796  ALA797  LYS798  CYS799  TRP800  GLU811  SER814 

> <Gold.Protein.RotatedAtoms>
  151.0796  133.5400  159.2621 H   0  0  0  0  0  0  0  0  0  0  0  0  # atno 6907 bound_to 6896
  151.2309  135.0553  159.8997 H   0  0  0  0  0  0  0  0  0  0  0  0  # atno 6908 bound_to 6896
  152.5422  134.0585  159.8195 H   0  0  0  0  0  0  0  0  0  0  0  0  # atno 6909 bound_to 6896
  145.4690  139.2283  143.2945 H   0  0  0  0  0  0  0  0  0  0  0  0  # atno 7974 bound_to 7965
  154.7167  140.2703  155.6579 H   0  0  0  0  0  0  0  0  0  0  0  0  # atno 8008 bound_to 7997
  156.2812  140.2742  156.1751 H   0  0  0  0  0  0  0  0  0  0  0  0  # atno 8009 bound_to 7997
  155.0561  140.0371  157.2551 H   0  0  0  0  0  0  0  0  0  0  0  0  # atno 8010 bound_to 7997
  139.7871  144.6866  150.9942 H   0  0  0  0  0  0  0  0  0  0  0  0  # atno 10167 bound_to 10162
  156.1170  130.6293  150.9398 H   0  0  0  0  0  0  0  0  0  0  0  0  # atno 10718 bound_to 10713
  154.3846  135.2753  155.2191 H   0  0  0  0  0  0  0  0  0  0  0  0  # atno 10763 bound_to 10752
  154.4283  135.5983  153.6056 H   0  0  0  0  0  0  0  0  0  0  0  0  # atno 10764 bound_to 10752
  152.9833  135.5989  154.4093 H   0  0  0  0  0  0  0  0  0  0  0  0  # atno 10765 bound_to 10752
  140.3359  134.2386  155.7696 H   0  0  0  0  0  0  0  0  0  0  0  0  # atno 11005 bound_to 11000
  146.2407  140.5467  142.8935 LP  0  0  0  0  0  0  0  0  0  0  0  0  # atno 17320 bound_to 7965
  144.7956  140.6117  143.6512 LP  0  0  0  0  0  0  0  0  0  0  0  0  # atno 17321 bound_to 7965
  140.7820  143.4420  151.0538 LP  0  0  0  0  0  0  0  0  0  0  0  0  # atno 17342 bound_to 10162
  139.8098  143.7967  152.3170 LP  0  0  0  0  0  0  0  0  0  0  0  0  # atno 17343 bound_to 10162
  157.6353  131.0916  150.8360 LP  0  0  0  0  0  0  0  0  0  0  0  0  # atno 17370 bound_to 10713
  156.8462  130.5065  149.5316 LP  0  0  0  0  0  0  0  0  0  0  0  0  # atno 17371 bound_to 10713
  141.2051  133.7868  157.0250 LP  0  0  0  0  0  0  0  0  0  0  0  0  # atno 17394 bound_to 11000
  140.0821  134.9642  157.1641 LP  0  0  0  0  0  0  0  0  0  0  0  0  # atno 17395 bound_to 11000

$$$$
