AV-unprocessed.smi:701|AV-procd|sdf|3410|dock2
  -GOLD-   22720 0393D 1   1.00000     0.00000
 Structure written by MMmdl.
 49 51  0  0  0  0  0  0  0  0  1 V2000
  147.7713  135.7759  162.3474 C   0  0  0  0  0  0  0  0  0  0  0  0
  147.0543  136.0609  161.0260 C   0  0  0  0  0  0  0  0  0  0  0  0
  147.7737  137.0604  160.3244 O   0  0  0  0  0  0  0  0  0  0  0  0
  148.9152  136.5558  159.6517 C   0  0  2  0  0  0  0  0  0  0  0  0
  149.8540  137.6423  159.1193 C   0  0  0  0  0  0  0  0  0  0  0  0
  150.0593  136.7196  157.9192 C   0  0  2  0  0  0  0  0  0  0  0  0
  150.1867  137.4500  156.6631 N   0  0  0  0  0  0  0  0  0  0  0  0
  150.7280  136.9433  155.5460 C   0  0  0  0  0  0  0  0  0  0  0  0
  151.1604  135.7925  155.4694 O   0  0  0  0  0  0  0  0  0  0  0  0
  150.7606  137.8704  154.3236 C   0  0  0  0  0  0  0  0  0  0  0  0
  149.7410  138.9268  154.3923 N   0  0  0  0  0  0  0  0  0  0  0  0
  148.4390  138.6754  153.9831 C   0  0  0  0  0  0  0  0  0  0  0  0
  147.4571  139.6078  154.0062 C   0  0  0  0  0  0  0  0  0  0  0  0
  147.7339  140.9606  154.4772 C   0  0  0  0  0  0  0  0  0  0  0  0
  146.9127  141.8730  154.5372 O   0  0  0  0  0  0  0  0  0  0  0  0
  149.0552  141.1745  154.8783 N   0  0  0  0  0  0  0  0  0  0  0  0
  150.0722  140.2191  154.8552 C   0  0  0  0  0  0  0  0  0  0  0  0
  151.2070  140.5150  155.2277 O   0  0  0  0  0  0  0  0  0  0  0  0
  148.6536  136.1132  158.1857 C   0  0  0  0  0  0  0  0  0  0  0  0
  147.4584  136.7760  157.4519 C   0  0  0  0  0  0  0  0  0  0  0  0
  146.0848  136.2004  157.8475 C   0  0  0  0  0  0  0  0  0  0  0  0
  146.0405  134.6775  157.6771 C   0  0  0  0  0  0  0  0  0  0  0  0
  147.2110  134.0066  158.4049 C   0  0  0  0  0  0  0  0  0  0  0  0
  148.5534  134.5978  157.9480 C   0  0  0  0  0  0  0  0  0  0  0  0
  149.2948  142.0974  155.2104 H   0  0  0  0  0  0  0  0  0  0  0  0
  147.2460  135.0102  162.9187 H   0  0  0  0  0  0  0  0  0  0  0  0
  147.8282  136.6737  162.9633 H   0  0  0  0  0  0  0  0  0  0  0  0
  148.7884  135.4245  162.1718 H   0  0  0  0  0  0  0  0  0  0  0  0
  146.9935  135.1476  160.4327 H   0  0  0  0  0  0  0  0  0  0  0  0
  146.0350  136.3980  161.2198 H   0  0  0  0  0  0  0  0  0  0  0  0
  149.4428  135.7890  160.2245 H   0  0  0  0  0  0  0  0  0  0  0  0
  149.3425  138.5764  158.8803 H   0  0  0  0  0  0  0  0  0  0  0  0
  150.7454  137.8105  159.7239 H   0  0  0  0  0  0  0  0  0  0  0  0
  150.8681  136.0077  158.1025 H   0  0  0  0  0  0  0  0  0  0  0  0
  149.8466  138.4004  156.6444 H   0  0  0  0  0  0  0  0  0  0  0  0
  151.7579  138.3081  154.2599 H   0  0  0  0  0  0  0  0  0  0  0  0
  150.6414  137.2916  153.4052 H   0  0  0  0  0  0  0  0  0  0  0  0
  148.1893  137.6880  153.6216 H   0  0  0  0  0  0  0  0  0  0  0  0
  146.4617  139.3523  153.6727 H   0  0  0  0  0  0  0  0  0  0  0  0
  147.4468  137.8524  157.6235 H   0  0  0  0  0  0  0  0  0  0  0  0
  147.5751  136.6546  156.3743 H   0  0  0  0  0  0  0  0  0  0  0  0
  145.8507  136.4548  158.8806 H   0  0  0  0  0  0  0  0  0  0  0  0
  145.3041  136.6611  157.2419 H   0  0  0  0  0  0  0  0  0  0  0  0
  145.0931  134.2862  158.0486 H   0  0  0  0  0  0  0  0  0  0  0  0
  146.0838  134.4297  156.6157 H   0  0  0  0  0  0  0  0  0  0  0  0
  147.0999  134.1377  159.4821 H   0  0  0  0  0  0  0  0  0  0  0  0
  147.1948  132.9323  158.2197 H   0  0  0  0  0  0  0  0  0  0  0  0
  148.6986  134.3783  156.8894 H   0  0  0  0  0  0  0  0  0  0  0  0
  149.3609  134.0792  158.4657 H   0  0  0  0  0  0  0  0  0  0  0  0
  1  2  1  0  0  0  0
  1 26  1  0  0  0  0
  1 27  1  0  0  0  0
  1 28  1  0  0  0  0
  2  3  1  0  0  0  0
  2 29  1  0  0  0  0
  2 30  1  0  0  0  0
  3  4  1  0  0  0  0
  4 19  1  0  0  0  0
  4  5  1  0  0  0  0
  4 31  1  0  0  0  0
  5  6  1  0  0  0  0
  5 32  1  0  0  0  0
  5 33  1  0  0  0  0
  6  7  1  0  0  0  0
  6 19  1  0  0  0  0
  6 34  1  0  0  0  0
  7  8  1  0  0  0  0
  7 35  1  0  0  0  0
  8  9  2  0  0  0  0
  8 10  1  0  0  0  0
 10 11  1  0  0  0  0
 10 36  1  0  0  0  0
 10 37  1  0  0  0  0
 11 17  1  0  0  0  0
 11 12  1  0  0  0  0
 12 13  2  0  0  0  0
 12 38  1  0  0  0  0
 13 14  1  0  0  0  0
 13 39  1  0  0  0  0
 14 15  2  0  0  0  0
 14 16  1  0  0  0  0
 16 25  1  0  0  0  0
 16 17  1  0  0  0  0
 17 18  2  0  0  0  0
 19 24  1  0  0  0  0
 19 20  1  0  0  0  0
 20 21  1  0  0  0  0
 20 40  1  0  0  0  0
 20 41  1  0  0  0  0
 21 22  1  0  0  0  0
 21 42  1  0  0  0  0
 21 43  1  0  0  0  0
 22 23  1  0  0  0  0
 22 44  1  0  0  0  0
 22 45  1  0  0  0  0
 23 24  1  0  0  0  0
 23 46  1  0  0  0  0
 23 47  1  0  0  0  0
 24 48  1  0  0  0  0
 24 49  1  0  0  0  0
M  END
> <s_m_source_file>
AV-unprocessed.smi

> <i_m_source_file_index>
701

> <i_lp_mmshare_version>
43012

> <i_f3d_flags>
0

> <s_epik_input>
W0NIMl0xW0NIMl1bQ0gyXVtDSDJdW0NIMl1DMTJbQ0BIXShPW0NIMl1bQ0gzXSlbQ0gyXVtDQEhdMltOSF1DKD1PKVtDSDJdbjNbY0hdW2NIXWMoPU8pW25IXWMzPU8=

> <s_epik_cmdline>
J2VwaWtfcHl0aG9uJywgJy1waCcsICc3LjAnLCAnLXRuJywgJzgnLCAnLW1hJywgJzIwMCcsICctbWV0YWxfYmluZGluZycsICctaW1hZScsICc8aW5maWxlLm1hZT4nLCAnLW9tYWUnLCAnPG91dGZpbGUubWFlPic=

> <r_lp_tautomer_probability>
0.999537

> <r_epik_Ionization_Penalty>
0.00304597

> <r_epik_Ionization_Penalty_Charging>
0.00304595

> <r_epik_Ionization_Penalty_Neutral>
1.88422e-08

> <r_epik_State_Penalty>
0.00214084

> <r_epik_Charging_Adjusted_Penalty>
0.00518679

> <i_epik_Tot_Q>
0

> <i_epik_Tot_abs_Q>
0

> <r_epik_Metal_State_Penalty>
0.361872

> <b_epik_Metal_Only>
0

> <s_lp_Force_Field>
OPLS_2005

> <r_lp_Energy>
27.3359

> <b_lp_Chiralities_Consistent>
1

> <s_lp_Variant>
AV-unprocessed.smi:701-3

> <Gold.Version>
5.8.1

> <Gold.Id.Protein>
6NUR|6NUR_protein|mol2

> <Gold.PLP.Fitness>
39.2947

> <Gold.PLP.PLP>
-30.0504

> <Gold.PLP.part.hbond>
-4.0000

> <Gold.PLP.part.metal>
0.0000

> <Gold.PLP.part.buried>
-3.4802

> <Gold.PLP.part.nonpolar>
-23.4159

> <Gold.PLP.part.repulsive>
0.4376

> <Gold.PLP.ligand.clash>
0.0000

> <Gold.PLP.ligand.torsion>
1.2685

> <Gold.PLP.Chemscore.Hbond>
2.8115

> <Gold.PLP.Chemscore.CHOScore>
1.0000

> <Gold.PLP.Chemscore.Metal>
0.0000

> <Gold.Chemscore.Hbonds>
donor molecule, donor type, donor heavy atom, donor atom, acceptor molecule, acceptor atom, score
      P1  H  6931  6943       L1     3  0.12
      P1  H  6934  6947       L1     3  0.67
      P1  H  7989  7998       L1    18  0.42
      P1  H 10752 10763       L1     9  1.00
      L1  C    12    38       P1  7948  1.00

> <Gold.PLP.Chemscore.Internal.Correction>
0.3467

> <Gold.Rescore>
     Score         DG    S(hbond)    S(metal)    S(lipo)     H(rot)  DE(clash)    DE(int)     intcor
     12.94     -14.77       2.53        0.00      53.09       2.09       0.56       1.27       ----

> <Gold.Chemscore.Fitness>
12.9366

> <Gold.Chemscore.DG>
-14.7673

> <Gold.Chemscore.ZeroCoef>
-5.4800

> <Gold.Chemscore.Hbond>
2.5253

> <Gold.Chemscore.Metal>
0.0000

> <Gold.Chemscore.Lipo>
53.0905

> <Gold.Chemscore.Internal_Hbond>
0.0000

> <Gold.Chemscore.DEClash>
0.5599

> <Gold.Chemscore.DEInternal>
1.2708

> <Gold.Chemscore.Rot>
2.0933

> <Gold.Chemscore.Internal.Correction>
   9.000000E+99

> <Gold.Chemscore.Hbonds>
donor molecule, donor type, donor heavy atom, donor atom, acceptor molecule, acceptor atom, score
      P1  H  6931  6943       L1     3  0.01
      P1  H  6934  6947       L1     3  0.54
      P1  H  7989  7998       L1    18  0.01
      P1  H 10752 10763       L1     9  0.89

> <Gold.Chemscore.Hbond.Weighted>
-8.4345

> <Gold.Chemscore.Metal.Weighted>
-0.0000

> <Gold.Chemscore.Lipo.Weighted>
-6.2116

> <Gold.Chemscore.Internal_Hbond.Weighted>
0.0000

> <Gold.Chemscore.DEClash.Weighted>
0.5599

> <Gold.Chemscore.DEInternal.Weighted>
1.2708

> <Gold.Chemscore.Rot.Weighted>
5.3588

> <Gold.Chemscore.Internal.Correction.Weighted>
   9.000000E+99

> <Gold.Protein.RotatedTorsions>
[ 6907 6896 6895 6894 ] final -167.61 input  -60.11 | X-H torsion
[ 7974 7965 7964 7962 ] final    5.99 input  175.53 | X-H torsion
[ 8008 7997 7996 7995 ] final   96.36 input   59.86 | X-H torsion
[ 10167 10162 10161 10158 ] final  -81.34 input  -65.29 | X-H torsion
[ 10718 10713 10712 10709 ] final  -35.54 input   66.30 | X-H torsion
[ 10763 10752 10751 10750 ] final   57.24 input  -60.55 | X-H torsion
[ 11005 11000 10999 10996 ] final  -37.17 input  -57.11 | X-H torsion

> <Gold.Protein.ActiveResidues>
 VAL166  LYS551  ARG553  GLY616  TRP617  ASP618  TYR619  PRO620  LYS621  CYS622 
 ASP623  PHE694  ASN695  SER759  ASP760  ASP761  ALA762  ILE779  LEU786  VAL792 
 PHE793  MET794  SER795  GLU796  ALA797  LYS798  CYS799  TRP800  GLU811  SER814 

> <Gold.Protein.RotatedAtoms>
  151.4624  133.3589  159.2810 H   0  0  0  0  0  0  0  0  0  0  0  0  # atno 6907 bound_to 6896
  150.9017  134.8431  159.7375 H   0  0  0  0  0  0  0  0  0  0  0  0  # atno 6908 bound_to 6896
  152.4883  134.4544  159.9637 H   0  0  0  0  0  0  0  0  0  0  0  0  # atno 6909 bound_to 6896
  146.2437  140.0301  142.8390 H   0  0  0  0  0  0  0  0  0  0  0  0  # atno 7974 bound_to 7965
  156.0788  140.3273  155.7668 H   0  0  0  0  0  0  0  0  0  0  0  0  # atno 8008 bound_to 7997
  155.5186  140.0583  157.2928 H   0  0  0  0  0  0  0  0  0  0  0  0  # atno 8009 bound_to 7997
  154.4570  140.1948  156.0367 H   0  0  0  0  0  0  0  0  0  0  0  0  # atno 8010 bound_to 7997
  140.4421  143.2511  151.8611 H   0  0  0  0  0  0  0  0  0  0  0  0  # atno 10167 bound_to 10162
  156.3374  130.4288  149.7817 H   0  0  0  0  0  0  0  0  0  0  0  0  # atno 10718 bound_to 10713
  152.9846  135.5648  154.5359 H   0  0  0  0  0  0  0  0  0  0  0  0  # atno 10763 bound_to 10752
  154.4822  135.2789  155.1563 H   0  0  0  0  0  0  0  0  0  0  0  0  # atno 10764 bound_to 10752
  154.3067  135.6296  153.5501 H   0  0  0  0  0  0  0  0  0  0  0  0  # atno 10765 bound_to 10752
  140.9931  133.6994  156.1885 H   0  0  0  0  0  0  0  0  0  0  0  0  # atno 11005 bound_to 11000
  145.1163  140.9435  143.4627 LP  0  0  0  0  0  0  0  0  0  0  0  0  # atno 17320 bound_to 7965
  145.0526  139.3169  143.5921 LP  0  0  0  0  0  0  0  0  0  0  0  0  # atno 17321 bound_to 7965
  139.4790  144.5217  151.8792 LP  0  0  0  0  0  0  0  0  0  0  0  0  # atno 17342 bound_to 10162
  140.4306  144.2120  150.5888 LP  0  0  0  0  0  0  0  0  0  0  0  0  # atno 17343 bound_to 10162
  156.5067  130.8153  151.3153 LP  0  0  0  0  0  0  0  0  0  0  0  0  # atno 17370 bound_to 10713
  157.7441  130.9927  150.2646 LP  0  0  0  0  0  0  0  0  0  0  0  0  # atno 17371 bound_to 10713
  140.7009  134.4565  157.5586 LP  0  0  0  0  0  0  0  0  0  0  0  0  # atno 17394 bound_to 11000
  139.9001  134.8575  156.1931 LP  0  0  0  0  0  0  0  0  0  0  0  0  # atno 17395 bound_to 11000

$$$$
