AV-unprocessed.smi:759|AV-procd|sdf|3620|dock1
  -GOLD-   22720 1 13D 1   1.00000     0.00000
 Structure written by MMmdl.
 24 25  0  0  0  0  0  0  0  0  2 V2000
  153.0035  138.6664  158.4592 C   0  0  0  0  0  0  0  0  0  0  0  0
  152.0598  138.3973  159.3595 N   0  0  0  0  0  0  0  0  0  0  0  0
  151.4608  139.5527  159.7199 N   0  0  0  0  0  0  0  0  0  0  0  0
  152.1165  140.4510  158.9828 C   0  0  0  0  0  0  0  0  0  0  0  0
  151.7776  141.9082  159.0571 C   0  0  1  0  0  0  0  0  0  0  0  0
  152.9694  142.7591  159.5351 C   0  0  0  0  0  0  0  0  0  0  0  0
  152.5820  144.2452  159.5829 C   0  0  0  0  0  0  0  0  0  0  0  0
  152.0142  144.7099  158.2311 C   0  0  0  0  0  0  0  0  0  0  0  0
  150.8620  143.8727  157.8311 N   0  3  0  0  0  0  0  0  0  0  0  0
  151.1990  142.4355  157.7283 C   0  0  0  0  0  0  0  0  0  0  0  0
  153.0991  139.9567  158.1672 N   0  0  0  0  0  0  0  0  0  0  0  0
  151.8019  137.4963  159.7368 H   0  0  0  0  0  0  0  0  0  0  0  0
  153.6288  137.9085  158.0105 H   0  0  0  0  0  0  0  0  0  0  0  0
  150.9923  142.0172  159.8078 H   0  0  0  0  0  0  0  0  0  0  0  0
  153.3014  142.4276  160.5197 H   0  0  0  0  0  0  0  0  0  0  0  0
  153.8160  142.6281  158.8595 H   0  0  0  0  0  0  0  0  0  0  0  0
  151.8407  144.4060  160.3669 H   0  0  0  0  0  0  0  0  0  0  0  0
  153.4503  144.8482  159.8505 H   0  0  0  0  0  0  0  0  0  0  0  0
  151.6935  145.7500  158.2928 H   0  0  0  0  0  0  0  0  0  0  0  0
  152.7823  144.6581  157.4582 H   0  0  0  0  0  0  0  0  0  0  0  0
  150.1307  143.9832  158.5192 H   0  0  0  0  0  0  0  0  0  0  0  0
  151.9150  142.2988  156.9165 H   0  0  0  0  0  0  0  0  0  0  0  0
  150.3001  141.8811  157.4573 H   0  0  0  0  0  0  0  0  0  0  0  0
  150.5184  144.1929  156.9369 H   0  0  0  0  0  0  0  0  0  0  0  0
  1 11  2  0  0  0  0
  1 13  1  0  0  0  0
  1  2  1  0  0  0  0
  2 12  1  0  0  0  0
  2  3  1  0  0  0  0
  3  4  2  0  0  0  0
  4 11  1  0  0  0  0
  4  5  1  0  0  0  0
  5 10  1  0  0  0  0
  5  6  1  0  0  0  0
  5 14  1  0  0  0  0
  6  7  1  0  0  0  0
  6 15  1  0  0  0  0
  6 16  1  0  0  0  0
  7  8  1  0  0  0  0
  7 17  1  0  0  0  0
  7 18  1  0  0  0  0
  8  9  1  0  0  0  0
  8 19  1  0  0  0  0
  8 20  1  0  0  0  0
  9 10  1  0  0  0  0
  9 21  1  0  0  0  0
  9 24  1  0  0  0  0
 10 22  1  0  0  0  0
 10 23  1  0  0  0  0
M  CHG  1   9   1
M  END
> <s_m_source_file>
AV-unprocessed.smi

> <i_m_source_file_index>
759

> <i_lp_mmshare_version>
43012

> <i_f3d_flags>
0

> <s_epik_input>
W25IXTFbY0hdbm5jMVtDQEBIXTJbQ0gyXVtDSDJdW0NIMl1bTkhdW0NIMl0y

> <s_epik_cmdline>
J2VwaWtfcHl0aG9uJywgJy1waCcsICc3LjAnLCAnLXRuJywgJzgnLCAnLW1hJywgJzIwMCcsICctbWV0YWxfYmluZGluZycsICctaW1hZScsICc8aW5maWxlLm1hZT4nLCAnLW9tYWUnLCAnPG91dGZpbGUubWFlPic=

> <r_lp_tautomer_probability>
0.948284

> <r_epik_Ionization_Penalty>
0.0050177

> <r_epik_Ionization_Penalty_Charging>
0.000345518

> <r_epik_Ionization_Penalty_Neutral>
0.00467218

> <r_epik_State_Penalty>
0.271452

> <r_epik_Charging_Adjusted_Penalty>
0.271797

> <i_epik_Tot_Q>
1

> <i_epik_Tot_abs_Q>
1

> <r_epik_Metal_State_Penalty>
0.537172

> <b_epik_Metal_Only>
0

> <s_lp_Force_Field>
OPLS_2005

> <r_lp_Energy>
9.69095

> <b_lp_Chiralities_Consistent>
1

> <s_lp_Variant>
AV-unprocessed.smi:759-2

> <Gold.Version>
5.8.1

> <Gold.Id.Protein>
6NUR|6NUR_protein|mol2

> <Gold.PLP.Fitness>
32.4118

> <Gold.PLP.PLP>
-23.4560

> <Gold.PLP.part.hbond>
-2.2776

> <Gold.PLP.part.metal>
0.0000

> <Gold.PLP.part.buried>
-3.4411

> <Gold.PLP.part.nonpolar>
-18.4755

> <Gold.PLP.part.repulsive>
0.1068

> <Gold.PLP.ligand.clash>
0.0000

> <Gold.PLP.ligand.torsion>
0.0315

> <Gold.PLP.Chemscore.Hbond>
2.9920

> <Gold.PLP.Chemscore.CHOScore>
0.0000

> <Gold.PLP.Chemscore.Metal>
0.0000

> <Gold.Chemscore.Hbonds>
donor molecule, donor type, donor heavy atom, donor atom, acceptor molecule, acceptor atom, score
      L1  H     9    24       P1  8028  1.59
      P1  H  7997  8010       L1    11  1.00

> <Gold.PLP.Chemscore.Internal.Correction>
0.0427

> <Gold.Rescore>
     Score         DG    S(hbond)    S(metal)    S(lipo)     H(rot)  DE(clash)    DE(int)     intcor
     15.71     -15.77       1.86        0.00      56.70       1.00       0.03       0.03       ----

> <Gold.Chemscore.Fitness>
15.7139

> <Gold.Chemscore.DG>
-15.7697

> <Gold.Chemscore.ZeroCoef>
-5.4800

> <Gold.Chemscore.Hbond>
1.8609

> <Gold.Chemscore.Metal>
0.0000

> <Gold.Chemscore.Lipo>
56.7017

> <Gold.Chemscore.Internal_Hbond>
0.0000

> <Gold.Chemscore.DEClash>
0.0275

> <Gold.Chemscore.DEInternal>
0.0282

> <Gold.Chemscore.Rot>
1.0000

> <Gold.Chemscore.Internal.Correction>
   9.000000E+99

> <Gold.Chemscore.Hbonds>
donor molecule, donor type, donor heavy atom, donor atom, acceptor molecule, acceptor atom, score
      L1  H     9    24       P1  8028  0.73
      P1  H  7997  8010       L1    11  0.44

> <Gold.Chemscore.Hbond.Weighted>
-6.2156

> <Gold.Chemscore.Metal.Weighted>
-0.0000

> <Gold.Chemscore.Lipo.Weighted>
-6.6341

> <Gold.Chemscore.Internal_Hbond.Weighted>
0.0000

> <Gold.Chemscore.DEClash.Weighted>
0.0275

> <Gold.Chemscore.DEInternal.Weighted>
0.0282

> <Gold.Chemscore.Rot.Weighted>
2.5600

> <Gold.Chemscore.Internal.Correction.Weighted>
   9.000000E+99

> <Gold.Protein.RotatedTorsions>
[ 6907 6896 6895 6894 ] final  -56.48 input  -60.11 | X-H torsion
[ 7974 7965 7964 7962 ] final  141.14 input  175.53 | X-H torsion
[ 8008 7997 7996 7995 ] final   33.39 input   59.86 | X-H torsion
[ 10167 10162 10161 10158 ] final  133.46 input  -65.29 | X-H torsion
[ 10718 10713 10712 10709 ] final  -42.89 input   66.30 | X-H torsion
[ 10763 10752 10751 10750 ] final   98.35 input  -60.55 | X-H torsion
[ 11005 11000 10999 10996 ] final   61.93 input  -57.11 | X-H torsion

> <Gold.Protein.ActiveResidues>
 VAL166  LYS551  ARG553  GLY616  TRP617  ASP618  TYR619  PRO620  LYS621  CYS622 
 ASP623  PHE694  ASN695  SER759  ASP760  ASP761  ALA762  ILE779  LEU786  VAL792 
 PHE793  MET794  SER795  GLU796  ALA797  LYS798  CYS799  TRP800  GLU811  SER814 

> <Gold.Protein.RotatedAtoms>
  150.8164  134.7348  159.6733 H   0  0  0  0  0  0  0  0  0  0  0  0  # atno 6907 bound_to 6896
  152.4282  134.5824  159.9961 H   0  0  0  0  0  0  0  0  0  0  0  0  # atno 6908 bound_to 6896
  151.6020  133.3318  159.3085 H   0  0  0  0  0  0  0  0  0  0  0  0  # atno 6909 bound_to 6896
  144.9123  139.5276  143.5703 H   0  0  0  0  0  0  0  0  0  0  0  0  # atno 7974 bound_to 7965
  155.1379  140.3263  155.4459 H   0  0  0  0  0  0  0  0  0  0  0  0  # atno 8008 bound_to 7997
  156.2614  140.1999  156.6445 H   0  0  0  0  0  0  0  0  0  0  0  0  # atno 8009 bound_to 7997
  154.6564  140.0552  157.0000 H   0  0  0  0  0  0  0  0  0  0  0  0  # atno 8010 bound_to 7997
  139.5296  144.6614  151.4999 H   0  0  0  0  0  0  0  0  0  0  0  0  # atno 10167 bound_to 10162
  156.2547  130.4191  149.8609 H   0  0  0  0  0  0  0  0  0  0  0  0  # atno 10718 bound_to 10713
  153.2880  135.4151  155.1141 H   0  0  0  0  0  0  0  0  0  0  0  0  # atno 10763 bound_to 10752
  154.8511  135.3511  154.6020 H   0  0  0  0  0  0  0  0  0  0  0  0  # atno 10764 bound_to 10752
  153.6442  135.7055  153.5289 H   0  0  0  0  0  0  0  0  0  0  0  0  # atno 10765 bound_to 10752
  140.0127  134.6271  155.9756 H   0  0  0  0  0  0  0  0  0  0  0  0  # atno 11005 bound_to 11000
  146.3165  139.7939  142.8979 LP  0  0  0  0  0  0  0  0  0  0  0  0  # atno 17320 bound_to 7965
  145.3433  141.0292  143.3380 LP  0  0  0  0  0  0  0  0  0  0  0  0  # atno 17321 bound_to 7965
  140.6465  143.8784  150.6742 LP  0  0  0  0  0  0  0  0  0  0  0  0  # atno 17342 bound_to 10162
  140.2135  143.3864  152.1699 LP  0  0  0  0  0  0  0  0  0  0  0  0  # atno 17343 bound_to 10162
  156.6145  130.8600  151.3462 LP  0  0  0  0  0  0  0  0  0  0  0  0  # atno 17370 bound_to 10713
  157.7228  130.9581  150.1509 LP  0  0  0  0  0  0  0  0  0  0  0  0  # atno 17371 bound_to 10713
  141.1722  133.6538  156.4694 LP  0  0  0  0  0  0  0  0  0  0  0  0  # atno 17394 bound_to 11000
  140.4525  134.6915  157.5047 LP  0  0  0  0  0  0  0  0  0  0  0  0  # atno 17395 bound_to 11000

$$$$
