AV-unprocessed.smi:786|AV-procd|sdf|3723|dock10
  -GOLD-   22720 1153D 1   1.00000     0.00000
 Structure written by MMmdl.
 38 39  0  0  0  0  0  0  0  0  2 V2000
  151.7865  137.1252  157.6517 O   0  0  0  0  0  0  0  0  0  0  0  0
  152.8301  137.8581  156.9150 S   0  0  0  0  0  0  0  0  0  0  0  0
  154.0736  137.1260  156.6341 O   0  0  0  0  0  0  0  0  0  0  0  0
  152.0871  138.2768  155.2625 C   0  0  0  0  0  0  0  0  0  0  0  0
  150.7908  139.1128  155.3530 C   0  0  0  0  0  0  0  0  0  0  0  0
  149.8779  138.8418  154.1455 C   0  0  0  0  0  0  0  0  0  0  0  0
  148.6125  139.7132  154.2021 C   0  0  0  0  0  0  0  0  0  0  0  0
  148.9705  141.0886  154.2653 O   0  0  0  0  0  0  0  0  0  0  0  0
  149.7173  141.4083  155.4340 C   0  0  0  0  0  0  0  0  0  0  0  0
  151.0434  140.6301  155.4419 C   0  0  0  0  0  0  0  0  0  0  0  0
  153.1539  139.3249  157.5408 N   0  5  0  0  0  0  0  0  0  0  0  0
  152.2900  139.9324  158.5448 C   0  0  0  0  0  0  0  0  0  0  0  0
  151.9798  141.4038  158.1854 C   0  0  0  0  0  0  0  0  0  0  0  0
  152.0771  142.3945  159.3441 C   0  0  0  0  0  0  0  0  0  0  0  0
  151.7450  143.7564  159.1589 C   0  0  0  0  0  0  0  0  0  0  0  0
  151.8348  144.6295  160.2601 C   0  0  0  0  0  0  0  0  0  0  0  0
  152.2444  144.1127  161.5039 C   0  0  0  0  0  0  0  0  0  0  0  0
  152.5481  142.7398  161.5908 C   0  0  0  0  0  0  0  0  0  0  0  0
  152.4668  141.8948  160.5418 N   0  0  0  0  0  0  0  0  0  0  0  0
  152.8410  138.8139  154.6872 H   0  0  0  0  0  0  0  0  0  0  0  0
  151.9113  137.3420  154.7314 H   0  0  0  0  0  0  0  0  0  0  0  0
  150.2436  138.8035  156.2444 H   0  0  0  0  0  0  0  0  0  0  0  0
  150.4177  139.0486  153.2204 H   0  0  0  0  0  0  0  0  0  0  0  0
  149.5991  137.7885  154.1139 H   0  0  0  0  0  0  0  0  0  0  0  0
  148.0038  139.5471  153.3132 H   0  0  0  0  0  0  0  0  0  0  0  0
  147.9953  139.4515  155.0623 H   0  0  0  0  0  0  0  0  0  0  0  0
  149.9128  142.4806  155.4436 H   0  0  0  0  0  0  0  0  0  0  0  0
  149.1308  141.1841  156.3264 H   0  0  0  0  0  0  0  0  0  0  0  0
  151.5995  140.8858  156.3416 H   0  0  0  0  0  0  0  0  0  0  0  0
  151.6549  140.9536  154.5987 H   0  0  0  0  0  0  0  0  0  0  0  0
  151.3472  139.3967  158.6593 H   0  0  0  0  0  0  0  0  0  0  0  0
  152.7616  139.9054  159.5274 H   0  0  0  0  0  0  0  0  0  0  0  0
  152.6741  141.7290  157.4100 H   0  0  0  0  0  0  0  0  0  0  0  0
  150.9876  141.4731  157.7362 H   0  0  0  0  0  0  0  0  0  0  0  0
  151.4329  144.1238  158.1922 H   0  0  0  0  0  0  0  0  0  0  0  0
  151.5945  145.6767  160.1524 H   0  0  0  0  0  0  0  0  0  0  0  0
  152.3273  144.7526  162.3696 H   0  0  0  0  0  0  0  0  0  0  0  0
  152.8684  142.3091  162.5278 H   0  0  0  0  0  0  0  0  0  0  0  0
  1  2  2  0  0  0  0
  2  3  2  0  0  0  0
  2  4  1  0  0  0  0
  2 11  1  0  0  0  0
  4  5  1  0  0  0  0
  4 20  1  0  0  0  0
  4 21  1  0  0  0  0
  5 10  1  0  0  0  0
  5  6  1  0  0  0  0
  5 22  1  0  0  0  0
  6  7  1  0  0  0  0
  6 23  1  0  0  0  0
  6 24  1  0  0  0  0
  7  8  1  0  0  0  0
  7 25  1  0  0  0  0
  7 26  1  0  0  0  0
  8  9  1  0  0  0  0
  9 10  1  0  0  0  0
  9 27  1  0  0  0  0
  9 28  1  0  0  0  0
 10 29  1  0  0  0  0
 10 30  1  0  0  0  0
 11 12  1  0  0  0  0
 12 13  1  0  0  0  0
 12 31  1  0  0  0  0
 12 32  1  0  0  0  0
 13 14  1  0  0  0  0
 13 33  1  0  0  0  0
 13 34  1  0  0  0  0
 14 19  1  0  0  0  0
 14 15  2  0  0  0  0
 15 16  1  0  0  0  0
 15 35  1  0  0  0  0
 16 17  2  0  0  0  0
 16 36  1  0  0  0  0
 17 18  1  0  0  0  0
 17 37  1  0  0  0  0
 18 19  2  0  0  0  0
 18 38  1  0  0  0  0
M  CHG  1  11  -1
M  END
> <s_m_source_file>
AV-unprocessed.smi

> <i_m_source_file_index>
786

> <i_lp_mmshare_version>
43012

> <i_f3d_flags>
0

> <s_epik_input>
W0NIMl0xW0NIMl1PW0NIMl1bQ0gyXVtDSF0xW0NIMl1TKD1PKSg9TylbTkhdW0NIMl1bQ0gyXWMyW2NIXVtjSF1bY0hdW2NIXW4y

> <s_epik_cmdline>
J2VwaWtfcHl0aG9uJywgJy1waCcsICc3LjAnLCAnLXRuJywgJzgnLCAnLW1hJywgJzIwMCcsICctbWV0YWxfYmluZGluZycsICctaW1hZScsICc8aW5maWxlLm1hZT4nLCAnLW9tYWUnLCAnPG91dGZpbGUubWFlPic=

> <r_epik_Ionization_Penalty>
6.60618

> <r_epik_Ionization_Penalty_Charging>
6.53386

> <r_epik_Ionization_Penalty_Neutral>
0.0723214

> <r_epik_State_Penalty>
6.55045

> <r_epik_Charging_Adjusted_Penalty>
13.0843

> <i_epik_Tot_Q>
-1

> <i_epik_Tot_abs_Q>
1

> <r_epik_Metal_State_Penalty>
2.49618

> <b_epik_Metal_Only>
1

> <s_lp_Force_Field>
OPLS_2005

> <r_lp_Energy>
5.55421

> <b_lp_Chiralities_Consistent>
1

> <s_lp_Variant>
AV-unprocessed.smi:786-3

> <Gold.Version>
5.8.1

> <Gold.Id.Protein>
6NUR|6NUR_protein|mol2

> <Gold.PLP.Fitness>
46.5072

> <Gold.PLP.PLP>
-39.7937

> <Gold.PLP.part.hbond>
-3.2169

> <Gold.PLP.part.metal>
0.0000

> <Gold.PLP.part.buried>
-1.3822

> <Gold.PLP.part.nonpolar>
-35.3171

> <Gold.PLP.part.repulsive>
0.1764

> <Gold.PLP.ligand.clash>
0.0000

> <Gold.PLP.ligand.torsion>
1.2245

> <Gold.PLP.Chemscore.Hbond>
2.7067

> <Gold.PLP.Chemscore.CHOScore>
0.0000

> <Gold.PLP.Chemscore.Metal>
0.0000

> <Gold.Chemscore.Hbonds>
donor molecule, donor type, donor heavy atom, donor atom, acceptor molecule, acceptor atom, score
      P1  H  7997  8009       L1    11  2.00
      P1  H 10752 10763       L1     3  0.43

> <Gold.PLP.Chemscore.Internal.Correction>
1.0425

> <Gold.Rescore>
     Score         DG    S(hbond)    S(metal)    S(lipo)     H(rot)  DE(clash)    DE(int)     intcor
     18.71     -20.06       1.59        0.00     113.66       1.57       0.06       1.29       ----

> <Gold.Chemscore.Fitness>
18.7085

> <Gold.Chemscore.DG>
-20.0567

> <Gold.Chemscore.ZeroCoef>
-5.4800

> <Gold.Chemscore.Hbond>
1.5891

> <Gold.Chemscore.Metal>
0.0000

> <Gold.Chemscore.Lipo>
113.6614

> <Gold.Chemscore.Internal_Hbond>
0.0000

> <Gold.Chemscore.DEClash>
0.0558

> <Gold.Chemscore.DEInternal>
1.2924

> <Gold.Chemscore.Rot>
1.5740

> <Gold.Chemscore.Internal.Correction>
   9.000000E+99

> <Gold.Chemscore.Hbonds>
donor molecule, donor type, donor heavy atom, donor atom, acceptor molecule, acceptor atom, score
      P1  H  7997  8009       L1    11  0.89
      P1  H  8011  8017       L1     8  0.01
      P1  H 10752 10763       L1     3  0.39

> <Gold.Chemscore.Hbond.Weighted>
-5.3076

> <Gold.Chemscore.Metal.Weighted>
-0.0000

> <Gold.Chemscore.Lipo.Weighted>
-13.2984

> <Gold.Chemscore.Internal_Hbond.Weighted>
0.0000

> <Gold.Chemscore.DEClash.Weighted>
0.0558

> <Gold.Chemscore.DEInternal.Weighted>
1.2924

> <Gold.Chemscore.Rot.Weighted>
4.0293

> <Gold.Chemscore.Internal.Correction.Weighted>
   9.000000E+99

> <Gold.Protein.RotatedTorsions>
[ 6907 6896 6895 6894 ] final  -51.23 input  -60.11 | X-H torsion
[ 7974 7965 7964 7962 ] final  111.43 input  175.53 | X-H torsion
[ 8008 7997 7996 7995 ] final  149.03 input   59.86 | X-H torsion
[ 10167 10162 10161 10158 ] final -120.49 input  -65.29 | X-H torsion
[ 10718 10713 10712 10709 ] final -107.18 input   66.30 | X-H torsion
[ 10763 10752 10751 10750 ] final  135.35 input  -60.55 | X-H torsion
[ 11005 11000 10999 10996 ] final  -86.31 input  -57.11 | X-H torsion

> <Gold.Protein.ActiveResidues>
 VAL166  LYS551  ARG553  GLY616  TRP617  ASP618  TYR619  PRO620  LYS621  CYS622 
 ASP623  PHE694  ASN695  SER759  ASP760  ASP761  ALA762  ILE779  LEU786  VAL792 
 PHE793  MET794  SER795  GLU796  ALA797  LYS798  CYS799  TRP800  GLU811  SER814 

> <Gold.Protein.RotatedAtoms>
  150.8631  134.7987  159.7097 H   0  0  0  0  0  0  0  0  0  0  0  0  # atno 6907 bound_to 6896
  152.4661  134.5068  159.9751 H   0  0  0  0  0  0  0  0  0  0  0  0  # atno 6908 bound_to 6896
  151.5169  133.3436  159.2930 H   0  0  0  0  0  0  0  0  0  0  0  0  # atno 6909 bound_to 6896
  145.2423  139.2774  143.4111 H   0  0  0  0  0  0  0  0  0  0  0  0  # atno 7974 bound_to 7965
  156.2770  140.2113  156.5792 H   0  0  0  0  0  0  0  0  0  0  0  0  # atno 8008 bound_to 7997
  154.7072  140.0515  157.0538 H   0  0  0  0  0  0  0  0  0  0  0  0  # atno 8009 bound_to 7997
  155.0654  140.3171  155.4650 H   0  0  0  0  0  0  0  0  0  0  0  0  # atno 8010 bound_to 7997
  140.0353  143.5207  152.2156 H   0  0  0  0  0  0  0  0  0  0  0  0  # atno 10167 bound_to 10162
  156.0424  130.5649  150.7785 H   0  0  0  0  0  0  0  0  0  0  0  0  # atno 10718 bound_to 10713
  153.8385  135.3094  155.3424 H   0  0  0  0  0  0  0  0  0  0  0  0  # atno 10763 bound_to 10752
  154.7943  135.4764  154.0127 H   0  0  0  0  0  0  0  0  0  0  0  0  # atno 10764 bound_to 10752
  153.1590  135.6857  153.8862 H   0  0  0  0  0  0  0  0  0  0  0  0  # atno 10765 bound_to 10752
  141.1631  133.7447  156.9142 H   0  0  0  0  0  0  0  0  0  0  0  0  # atno 11005 bound_to 11000
  146.3325  140.2790  142.8609 LP  0  0  0  0  0  0  0  0  0  0  0  0  # atno 17320 bound_to 7965
  144.9578  140.8244  143.5532 LP  0  0  0  0  0  0  0  0  0  0  0  0  # atno 17321 bound_to 7965
  139.6049  144.7593  151.3085 LP  0  0  0  0  0  0  0  0  0  0  0  0  # atno 17342 bound_to 10162
  140.7284  143.6936  150.7902 LP  0  0  0  0  0  0  0  0  0  0  0  0  # atno 17343 bound_to 10162
  157.5259  131.0934  151.0018 LP  0  0  0  0  0  0  0  0  0  0  0  0  # atno 17370 bound_to 10713
  157.0337  130.5721  149.5346 LP  0  0  0  0  0  0  0  0  0  0  0  0  # atno 17371 bound_to 10713
  140.1496  134.9239  157.2574 LP  0  0  0  0  0  0  0  0  0  0  0  0  # atno 17394 bound_to 11000
  140.2739  134.3428  155.7364 LP  0  0  0  0  0  0  0  0  0  0  0  0  # atno 17395 bound_to 11000

$$$$
