AV-unprocessed.smi:1530|AV-procd|sdf|6155|dock8
  -GOLD-   22720 6303D 1   1.00000     0.00000
 Structure written by MMmdl.
 42 43  0  0  0  0  0  0  0  0  1 V2000
  153.2448  137.6704  159.9509 C   0  0  0  0  0  0  0  0  0  0  0  0
  152.7198  138.7268  159.1543 O   0  0  0  0  0  0  0  0  0  0  0  0
  152.8839  140.0279  159.5914 C   0  0  0  0  0  0  0  0  0  0  0  0
  153.6169  140.2423  160.7128 N   0  0  0  0  0  0  0  0  0  0  0  0
  153.7835  141.5104  161.1395 C   0  0  0  0  0  0  0  0  0  0  0  0
  153.2383  142.6234  160.4747 C   0  0  0  0  0  0  0  0  0  0  0  0
  152.4783  142.4043  159.3109 C   0  0  0  0  0  0  0  0  0  0  0  0
  152.2835  141.0766  158.8554 C   0  0  0  0  0  0  0  0  0  0  0  0
  151.5431  140.7274  157.6901 N   0  0  0  0  0  0  0  0  0  0  0  0
  150.8214  141.5083  156.8679 C   0  0  0  0  0  0  0  0  0  0  0  0
  150.6721  142.7242  156.9818 O   0  0  0  0  0  0  0  0  0  0  0  0
  150.2675  140.7841  155.8851 N   0  0  0  0  0  0  0  0  0  0  0  0
  149.4419  141.3084  154.7954 C   0  0  0  0  0  0  0  0  0  0  0  0
  148.0535  140.6114  154.6563 C   0  0  0  0  0  0  0  0  0  0  0  0
  148.2783  139.1195  154.2852 C   0  0  0  0  0  0  0  0  0  0  0  0
  148.9296  138.8325  153.1529 N   0  0  0  0  0  0  0  0  0  0  0  0
  147.8544  138.2220  155.0126 O   0  0  0  0  0  0  0  0  0  0  0  0
  147.2598  140.7321  155.9888 C   0  0  0  0  0  0  0  0  0  0  0  0
  146.7354  142.1557  156.2543 C   0  0  0  0  0  0  0  0  0  0  0  0
  145.9421  142.5975  155.1618 O   0  0  0  0  0  0  0  0  0  0  0  0
  146.6780  142.6728  153.9488 C   0  0  0  0  0  0  0  0  0  0  0  0
  147.1782  141.2725  153.5546 C   0  0  0  0  0  0  0  0  0  0  0  0
  153.0353  136.7167  159.4668 H   0  0  0  0  0  0  0  0  0  0  0  0
  152.7837  137.6476  160.9392 H   0  0  0  0  0  0  0  0  0  0  0  0
  154.3269  137.7541  160.0617 H   0  0  0  0  0  0  0  0  0  0  0  0
  154.3730  141.6425  162.0346 H   0  0  0  0  0  0  0  0  0  0  0  0
  153.4023  143.6237  160.8470 H   0  0  0  0  0  0  0  0  0  0  0  0
  152.0752  143.2609  158.7956 H   0  0  0  0  0  0  0  0  0  0  0  0
  151.5320  139.7405  157.4764 H   0  0  0  0  0  0  0  0  0  0  0  0
  150.4481  139.7908  155.8738 H   0  0  0  0  0  0  0  0  0  0  0  0
  149.2953  142.3713  154.9913 H   0  0  0  0  0  0  0  0  0  0  0  0
  149.9943  141.2707  153.8569 H   0  0  0  0  0  0  0  0  0  0  0  0
  149.0822  137.8701  152.8885 H   0  0  0  0  0  0  0  0  0  0  0  0
  149.2619  139.5812  152.5625 H   0  0  0  0  0  0  0  0  0  0  0  0
  146.4000  140.0599  155.9722 H   0  0  0  0  0  0  0  0  0  0  0  0
  147.8761  140.4198  156.8331 H   0  0  0  0  0  0  0  0  0  0  0  0
  146.1186  142.1593  157.1530 H   0  0  0  0  0  0  0  0  0  0  0  0
  147.5492  142.8576  156.4367 H   0  0  0  0  0  0  0  0  0  0  0  0
  146.0235  143.0642  153.1700 H   0  0  0  0  0  0  0  0  0  0  0  0
  147.5019  143.3800  154.0486 H   0  0  0  0  0  0  0  0  0  0  0  0
  147.7137  141.3363  152.6070 H   0  0  0  0  0  0  0  0  0  0  0  0
  146.3047  140.6486  153.3571 H   0  0  0  0  0  0  0  0  0  0  0  0
  1  2  1  0  0  0  0
  1 23  1  0  0  0  0
  1 24  1  0  0  0  0
  1 25  1  0  0  0  0
  2  3  1  0  0  0  0
  3  8  1  0  0  0  0
  3  4  2  0  0  0  0
  4  5  1  0  0  0  0
  5  6  2  0  0  0  0
  5 26  1  0  0  0  0
  6  7  1  0  0  0  0
  6 27  1  0  0  0  0
  7  8  2  0  0  0  0
  7 28  1  0  0  0  0
  8  9  1  0  0  0  0
  9 10  1  0  0  0  0
  9 29  1  0  0  0  0
 10 11  2  0  0  0  0
 10 12  1  0  0  0  0
 12 13  1  0  0  0  0
 12 30  1  0  0  0  0
 13 14  1  0  0  0  0
 13 31  1  0  0  0  0
 13 32  1  0  0  0  0
 14 22  1  0  0  0  0
 14 15  1  0  0  0  0
 14 18  1  0  0  0  0
 15 16  1  0  0  0  0
 15 17  2  0  0  0  0
 16 33  1  0  0  0  0
 16 34  1  0  0  0  0
 18 19  1  0  0  0  0
 18 35  1  0  0  0  0
 18 36  1  0  0  0  0
 19 20  1  0  0  0  0
 19 37  1  0  0  0  0
 19 38  1  0  0  0  0
 20 21  1  0  0  0  0
 21 22  1  0  0  0  0
 21 39  1  0  0  0  0
 21 40  1  0  0  0  0
 22 41  1  0  0  0  0
 22 42  1  0  0  0  0
M  END
> <s_m_source_file>
AV-unprocessed.smi

> <i_m_source_file_index>
1530

> <i_lp_mmshare_version>
43012

> <i_f3d_flags>
0

> <s_epik_input>
W0NIM11PYzFuW2NIXVtjSF1bY0hdYzFbTkhdQyg9TylbTkhdW0NIMl1DMihDKD1PKVtOSDJdKVtDSDJdW0NIMl1PW0NIMl1bQ0gyXTI=

> <s_epik_cmdline>
J2VwaWtfcHl0aG9uJywgJy1waCcsICc3LjAnLCAnLXRuJywgJzgnLCAnLW1hJywgJzIwMCcsICctbWV0YWxfYmluZGluZycsICctaW1hZScsICc8aW5maWxlLm1hZT4nLCAnLW9tYWUnLCAnPG91dGZpbGUubWFlPic=

> <r_lp_tautomer_probability>
1

> <r_epik_Ionization_Penalty>
8.83779e-05

> <r_epik_Ionization_Penalty_Charging>
0

> <r_epik_Ionization_Penalty_Neutral>
8.83779e-05

> <r_epik_State_Penalty>
-0

> <r_epik_Charging_Adjusted_Penalty>
0

> <i_epik_Tot_Q>
0

> <i_epik_Tot_abs_Q>
0

> <r_epik_Metal_State_Penalty>
-0

> <b_epik_Metal_Only>
0

> <s_lp_Force_Field>
OPLS_2005

> <r_lp_Energy>
14.5365

> <b_lp_Chiralities_Consistent>
1

> <s_lp_Variant>
AV-unprocessed.smi:1530-1

> <Gold.Version>
5.8.1

> <Gold.Id.Protein>
6NUR|6NUR_protein|mol2

> <Gold.PLP.Fitness>
42.1517

> <Gold.PLP.PLP>
-36.2794

> <Gold.PLP.part.hbond>
-1.7688

> <Gold.PLP.part.metal>
0.0000

> <Gold.PLP.part.buried>
-7.4502

> <Gold.PLP.part.nonpolar>
-27.8783

> <Gold.PLP.part.repulsive>
1.3570

> <Gold.PLP.ligand.clash>
0.0000

> <Gold.PLP.ligand.torsion>
0.0614

> <Gold.PLP.Chemscore.Hbond>
1.9920

> <Gold.PLP.Chemscore.CHOScore>
0.0000

> <Gold.PLP.Chemscore.Metal>
0.0000

> <Gold.Chemscore.Hbonds>
donor molecule, donor type, donor heavy atom, donor atom, acceptor molecule, acceptor atom, score
      L1  H    16    33       P1  7948  1.00
      L1  H    16    34       P1  7957  0.89

> <Gold.PLP.Chemscore.Internal.Correction>
0.0191

> <Gold.Rescore>
     Score         DG    S(hbond)    S(metal)    S(lipo)     H(rot)  DE(clash)    DE(int)     intcor
     14.25     -15.64       1.95        0.00      79.84       2.23       0.11       1.28       ----

> <Gold.Chemscore.Fitness>
14.2543

> <Gold.Chemscore.DG>
-15.6436

> <Gold.Chemscore.ZeroCoef>
-5.4800

> <Gold.Chemscore.Hbond>
1.9549

> <Gold.Chemscore.Metal>
0.0000

> <Gold.Chemscore.Lipo>
79.8425

> <Gold.Chemscore.Internal_Hbond>
0.0000

> <Gold.Chemscore.DEClash>
0.1130

> <Gold.Chemscore.DEInternal>
1.2764

> <Gold.Chemscore.Rot>
2.2294

> <Gold.Chemscore.Internal.Correction>
   9.000000E+99

> <Gold.Chemscore.Hbonds>
donor molecule, donor type, donor heavy atom, donor atom, acceptor molecule, acceptor atom, score
      L1  H    16    33       P1  7948  0.99
      L1  H    16    34       P1  7957  0.83

> <Gold.Chemscore.Hbond.Weighted>
-6.5294

> <Gold.Chemscore.Metal.Weighted>
-0.0000

> <Gold.Chemscore.Lipo.Weighted>
-9.3416

> <Gold.Chemscore.Internal_Hbond.Weighted>
0.0000

> <Gold.Chemscore.DEClash.Weighted>
0.1130

> <Gold.Chemscore.DEInternal.Weighted>
1.2764

> <Gold.Chemscore.Rot.Weighted>
5.7073

> <Gold.Chemscore.Internal.Correction.Weighted>
   9.000000E+99

> <Gold.Protein.RotatedTorsions>
[ 6907 6896 6895 6894 ] final  177.33 input  -60.11 | X-H torsion
[ 7974 7965 7964 7962 ] final   69.69 input  175.53 | X-H torsion
[ 8008 7997 7996 7995 ] final  127.59 input   59.86 | X-H torsion
[ 10167 10162 10161 10158 ] final  -11.45 input  -65.29 | X-H torsion
[ 10718 10713 10712 10709 ] final  -62.44 input   66.30 | X-H torsion
[ 10763 10752 10751 10750 ] final   61.39 input  -60.55 | X-H torsion
[ 11005 11000 10999 10996 ] final  178.43 input  -57.11 | X-H torsion

> <Gold.Protein.ActiveResidues>
 VAL166  LYS551  ARG553  GLY616  TRP617  ASP618  TYR619  PRO620  LYS621  CYS622 
 ASP623  PHE694  ASN695  SER759  ASP760  ASP761  ALA762  ILE779  LEU786  VAL792 
 PHE793  MET794  SER795  GLU796  ALA797  LYS798  CYS799  TRP800  GLU811  SER814 

> <Gold.Protein.RotatedAtoms>
  151.7057  133.3311  159.3277 H   0  0  0  0  0  0  0  0  0  0  0  0  # atno 6907 bound_to 6896
  150.7716  134.6576  159.6332 H   0  0  0  0  0  0  0  0  0  0  0  0  # atno 6908 bound_to 6896
  152.3742  134.6691  160.0217 H   0  0  0  0  0  0  0  0  0  0  0  0  # atno 6909 bound_to 6896
  145.7873  139.2917  143.1231 H   0  0  0  0  0  0  0  0  0  0  0  0  # atno 7974 bound_to 7965
  156.2894  140.2665  156.2299 H   0  0  0  0  0  0  0  0  0  0  0  0  # atno 8008 bound_to 7997
  155.0083  140.0387  157.2407 H   0  0  0  0  0  0  0  0  0  0  0  0  # atno 8009 bound_to 7997
  154.7540  140.2748  155.6274 H   0  0  0  0  0  0  0  0  0  0  0  0  # atno 8010 bound_to 7997
  140.7138  143.5638  150.9166 H   0  0  0  0  0  0  0  0  0  0  0  0  # atno 10167 bound_to 10162
  156.0855  130.4209  150.1135 H   0  0  0  0  0  0  0  0  0  0  0  0  # atno 10718 bound_to 10713
  152.9949  135.5502  154.6026 H   0  0  0  0  0  0  0  0  0  0  0  0  # atno 10763 bound_to 10752
  154.5364  135.2817  155.1136 H   0  0  0  0  0  0  0  0  0  0  0  0  # atno 10764 bound_to 10752
  154.2431  135.6412  153.5267 H   0  0  0  0  0  0  0  0  0  0  0  0  # atno 10765 bound_to 10752
  140.3950  134.6828  157.4529 H   0  0  0  0  0  0  0  0  0  0  0  0  # atno 11005 bound_to 11000
  146.0013  140.8518  143.0017 LP  0  0  0  0  0  0  0  0  0  0  0  0  # atno 17320 bound_to 7965
  144.6787  140.2356  143.7350 LP  0  0  0  0  0  0  0  0  0  0  0  0  # atno 17321 bound_to 7965
  139.9364  143.6433  152.3064 LP  0  0  0  0  0  0  0  0  0  0  0  0  # atno 17342 bound_to 10162
  139.6902  144.7647  151.1452 LP  0  0  0  0  0  0  0  0  0  0  0  0  # atno 17343 bound_to 10162
  156.9157  130.9666  151.3556 LP  0  0  0  0  0  0  0  0  0  0  0  0  # atno 17370 bound_to 10713
  157.5988  130.8497  149.8770 LP  0  0  0  0  0  0  0  0  0  0  0  0  # atno 17371 bound_to 10713
  140.0378  134.6312  155.9020 LP  0  0  0  0  0  0  0  0  0  0  0  0  # atno 17394 bound_to 11000
  141.1877  133.6560  156.5293 LP  0  0  0  0  0  0  0  0  0  0  0  0  # atno 17395 bound_to 11000

$$$$
