AV-unprocessed.smi:3332|AV-procd|sdf|12830|dock10
  -GOLD-   2272019213D 1   1.00000     0.00000
 Structure written by MMmdl.
 41 42  0  0  0  0  0  0  0  0  1 V2000
  153.8290  139.5607  160.1540 C   0  0  0  0  0  0  0  0  0  0  0  0
  154.5012  140.8343  160.6774 C   0  0  0  0  0  0  0  0  0  0  0  0
  153.5823  142.0197  160.6422 C   0  0  0  0  0  0  0  0  0  0  0  0
  153.0194  142.4120  159.4248 N   0  0  0  0  0  0  0  0  0  0  0  0
  152.2242  143.4779  159.5418 C   0  0  0  0  0  0  0  0  0  0  0  0
  151.5519  144.1358  158.3787 C   0  0  0  0  0  0  0  0  0  0  0  0
  151.7861  143.4219  157.0333 C   0  0  0  0  0  0  0  0  0  0  0  0
  150.5431  142.9027  156.4658 N   0  0  0  0  0  0  0  0  0  0  0  0
  150.3784  141.6788  155.9396 C   0  0  0  0  0  0  0  0  0  0  0  0
  151.3035  140.8833  155.7721 O   0  0  0  0  0  0  0  0  0  0  0  0
  148.9407  141.2937  155.5690 C   0  0  0  0  0  0  0  0  0  0  0  0
  148.7875  140.6689  154.1628 C   0  0  1  0  0  0  0  0  0  0  0  0
  148.9112  139.1637  154.1417 C   0  0  0  0  0  0  0  0  0  0  0  0
  147.8732  138.5684  153.5600 C   0  0  0  0  0  0  0  0  0  0  0  0
  146.8428  139.5507  153.0779 C   0  0  0  0  0  0  0  0  0  0  0  0
  147.3915  140.9210  153.5365 C   0  0  0  0  0  0  0  0  0  0  0  0
  152.1275  144.0883  161.1868 S   0  0  0  0  0  0  0  0  0  0  0  0
  153.2057  142.8150  161.6995 C   0  0  0  0  0  0  0  0  0  0  0  0
  153.6189  142.6920  163.1282 C   0  0  0  0  0  0  0  0  0  0  0  0
  154.5158  138.7152  160.1928 H   0  0  0  0  0  0  0  0  0  0  0  0
  153.5075  139.6813  159.1190 H   0  0  0  0  0  0  0  0  0  0  0  0
  152.9524  139.3064  160.7507 H   0  0  0  0  0  0  0  0  0  0  0  0
  154.8567  140.6598  161.6931 H   0  0  0  0  0  0  0  0  0  0  0  0
  155.3939  141.0390  160.0848 H   0  0  0  0  0  0  0  0  0  0  0  0
  150.4815  144.1810  158.5836 H   0  0  0  0  0  0  0  0  0  0  0  0
  151.8942  145.1688  158.3153 H   0  0  0  0  0  0  0  0  0  0  0  0
  152.2364  144.1133  156.3207 H   0  0  0  0  0  0  0  0  0  0  0  0
  152.5115  142.6190  157.1736 H   0  0  0  0  0  0  0  0  0  0  0  0
  149.7265  143.4900  156.5526 H   0  0  0  0  0  0  0  0  0  0  0  0
  148.5644  140.5929  156.3165 H   0  0  0  0  0  0  0  0  0  0  0  0
  148.3203  142.1874  155.6428 H   0  0  0  0  0  0  0  0  0  0  0  0
  149.5554  141.0686  153.4986 H   0  0  0  0  0  0  0  0  0  0  0  0
  149.7717  138.6489  154.5430 H   0  0  0  0  0  0  0  0  0  0  0  0
  147.7631  137.5025  153.4243 H   0  0  0  0  0  0  0  0  0  0  0  0
  146.7542  139.4937  151.9926 H   0  0  0  0  0  0  0  0  0  0  0  0
  145.8699  139.3338  153.5203 H   0  0  0  0  0  0  0  0  0  0  0  0
  146.7100  141.3622  154.2652 H   0  0  0  0  0  0  0  0  0  0  0  0
  147.4566  141.6192  152.7013 H   0  0  0  0  0  0  0  0  0  0  0  0
  153.3887  141.6981  163.5126 H   0  0  0  0  0  0  0  0  0  0  0  0
  153.1039  143.4217  163.7534 H   0  0  0  0  0  0  0  0  0  0  0  0
  154.6917  142.8562  163.2341 H   0  0  0  0  0  0  0  0  0  0  0  0
  1  2  1  0  0  0  0
  1 20  1  0  0  0  0
  1 21  1  0  0  0  0
  1 22  1  0  0  0  0
  2  3  1  0  0  0  0
  2 23  1  0  0  0  0
  2 24  1  0  0  0  0
  3 18  2  0  0  0  0
  3  4  1  0  0  0  0
  4  5  2  0  0  0  0
  5  6  1  0  0  0  0
  5 17  1  0  0  0  0
  6  7  1  0  0  0  0
  6 25  1  0  0  0  0
  6 26  1  0  0  0  0
  7  8  1  0  0  0  0
  7 27  1  0  0  0  0
  7 28  1  0  0  0  0
  8  9  1  0  0  0  0
  8 29  1  0  0  0  0
  9 10  2  0  0  0  0
  9 11  1  0  0  0  0
 11 12  1  0  0  0  0
 11 30  1  0  0  0  0
 11 31  1  0  0  0  0
 12 16  1  0  0  0  0
 12 13  1  0  0  0  0
 12 32  1  0  0  0  0
 13 14  2  0  0  0  0
 13 33  1  0  0  0  0
 14 15  1  0  0  0  0
 14 34  1  0  0  0  0
 15 16  1  0  0  0  0
 15 35  1  0  0  0  0
 15 36  1  0  0  0  0
 16 37  1  0  0  0  0
 16 38  1  0  0  0  0
 17 18  1  0  0  0  0
 18 19  1  0  0  0  0
 19 39  1  0  0  0  0
 19 40  1  0  0  0  0
 19 41  1  0  0  0  0
M  END
> <s_m_source_file>
AV-unprocessed.smi

> <i_m_source_file_index>
3332

> <i_lp_mmshare_version>
43012

> <i_f3d_flags>
0

> <s_epik_input>
W0NIM11bQ0gyXWMxbmMoc2MxW0NIM10pW0NIMl1bQ0gyXVtOSF1DKD1PKVtDSDJdW0NAQEhdMltDSF09W0NIXVtDSDJdW0NIMl0y

> <s_epik_cmdline>
J2VwaWtfcHl0aG9uJywgJy1waCcsICc3LjAnLCAnLXRuJywgJzgnLCAnLW1hJywgJzIwMCcsICctbWV0YWxfYmluZGluZycsICctaW1hZScsICc8aW5maWxlLm1hZT4nLCAnLW9tYWUnLCAnPG91dGZpbGUubWFlPic=

> <r_epik_Ionization_Penalty>
0.00221844

> <r_epik_Ionization_Penalty_Charging>
0

> <r_epik_Ionization_Penalty_Neutral>
0.00221844

> <r_epik_State_Penalty>
0.00152607

> <r_epik_Charging_Adjusted_Penalty>
0.00152607

> <i_epik_Tot_Q>
0

> <i_epik_Tot_abs_Q>
0

> <r_epik_Metal_State_Penalty>
-0

> <b_epik_Metal_Only>
0

> <s_lp_Force_Field>
OPLS_2005

> <r_lp_Energy>
6.79719

> <b_lp_Chiralities_Consistent>
1

> <s_lp_Variant>
AV-unprocessed.smi:3332-2

> <Gold.Version>
5.8.1

> <Gold.Id.Protein>
6NUR|6NUR_protein|mol2

> <Gold.PLP.Fitness>
48.3095

> <Gold.PLP.PLP>
-46.9110

> <Gold.PLP.part.hbond>
-1.8764

> <Gold.PLP.part.metal>
0.0000

> <Gold.PLP.part.buried>
-3.5680

> <Gold.PLP.part.nonpolar>
-41.0714

> <Gold.PLP.part.repulsive>
0.1061

> <Gold.PLP.ligand.clash>
0.0000

> <Gold.PLP.ligand.torsion>
0.9663

> <Gold.PLP.Chemscore.Hbond>
1.0992

> <Gold.PLP.Chemscore.CHOScore>
0.0000

> <Gold.PLP.Chemscore.Metal>
0.0000

> <Gold.Chemscore.Hbonds>
donor molecule, donor type, donor heavy atom, donor atom, acceptor molecule, acceptor atom, score
      L1  H     8    29       P1  8028  0.80
      P1  H  7989  7998       L1    10  0.25

> <Gold.PLP.Chemscore.Internal.Correction>
0.0336

> <Gold.Rescore>
     Score         DG    S(hbond)    S(metal)    S(lipo)     H(rot)  DE(clash)    DE(int)     intcor
     19.05     -21.49       1.08        0.00     138.98       1.51       1.44       1.00       ----

> <Gold.Chemscore.Fitness>
19.0518

> <Gold.Chemscore.DG>
-21.4851

> <Gold.Chemscore.ZeroCoef>
-5.4800

> <Gold.Chemscore.Hbond>
1.0811

> <Gold.Chemscore.Metal>
0.0000

> <Gold.Chemscore.Lipo>
138.9793

> <Gold.Chemscore.Internal_Hbond>
0.0000

> <Gold.Chemscore.DEClash>
1.4355

> <Gold.Chemscore.DEInternal>
0.9978

> <Gold.Chemscore.Rot>
1.5103

> <Gold.Chemscore.Internal.Correction>
   9.000000E+99

> <Gold.Chemscore.Hbonds>
donor molecule, donor type, donor heavy atom, donor atom, acceptor molecule, acceptor atom, score
      L1  H     8    29       P1  8028  0.80
      P1  H  7989  7998       L1    10  0.11

> <Gold.Chemscore.Hbond.Weighted>
-3.6109

> <Gold.Chemscore.Metal.Weighted>
-0.0000

> <Gold.Chemscore.Lipo.Weighted>
-16.2606

> <Gold.Chemscore.Internal_Hbond.Weighted>
0.0000

> <Gold.Chemscore.DEClash.Weighted>
1.4355

> <Gold.Chemscore.DEInternal.Weighted>
0.9978

> <Gold.Chemscore.Rot.Weighted>
3.8664

> <Gold.Chemscore.Internal.Correction.Weighted>
   9.000000E+99

> <Gold.Protein.RotatedTorsions>
[ 6907 6896 6895 6894 ] final   58.82 input  -60.11 | X-H torsion
[ 7974 7965 7964 7962 ] final   45.96 input  175.53 | X-H torsion
[ 8008 7997 7996 7995 ] final  178.13 input   59.86 | X-H torsion
[ 10167 10162 10161 10158 ] final  -80.74 input  -65.29 | X-H torsion
[ 10718 10713 10712 10709 ] final   36.77 input   66.30 | X-H torsion
[ 10763 10752 10751 10750 ] final   20.52 input  -60.55 | X-H torsion
[ 11005 11000 10999 10996 ] final  142.00 input  -57.11 | X-H torsion

> <Gold.Protein.ActiveResidues>
 VAL166  LYS551  ARG553  GLY616  TRP617  ASP618  TYR619  PRO620  LYS621  CYS622 
 ASP623  PHE694  ASN695  SER759  ASP760  ASP761  ALA762  ILE779  LEU786  VAL792 
 PHE793  MET794  SER795  GLU796  ALA797  LYS798  CYS799  TRP800  GLU811  SER814 

> <Gold.Protein.RotatedAtoms>
  152.3859  134.6518  160.0125 H   0  0  0  0  0  0  0  0  0  0  0  0  # atno 6907 bound_to 6896
  151.6767  133.3307  159.3217 H   0  0  0  0  0  0  0  0  0  0  0  0  # atno 6908 bound_to 6896
  150.7785  134.6752  159.6458 H   0  0  0  0  0  0  0  0  0  0  0  0  # atno 6909 bound_to 6896
  146.0433  139.4907  142.9764 H   0  0  0  0  0  0  0  0  0  0  0  0  # atno 7974 bound_to 7965
  156.0580  140.1341  156.9974 H   0  0  0  0  0  0  0  0  0  0  0  0  # atno 8008 bound_to 7997
  154.4467  140.0997  156.6545 H   0  0  0  0  0  0  0  0  0  0  0  0  # atno 8009 bound_to 7997
  155.5421  140.3461  155.4451 H   0  0  0  0  0  0  0  0  0  0  0  0  # atno 8010 bound_to 7997
  140.4475  143.2494  151.8537 H   0  0  0  0  0  0  0  0  0  0  0  0  # atno 10167 bound_to 10162
  157.3389  130.7537  149.6898 H   0  0  0  0  0  0  0  0  0  0  0  0  # atno 10718 bound_to 10713
  153.1071  135.6687  153.9567 H   0  0  0  0  0  0  0  0  0  0  0  0  # atno 10763 bound_to 10752
  153.9121  135.3024  155.3450 H   0  0  0  0  0  0  0  0  0  0  0  0  # atno 10764 bound_to 10752
  154.7492  135.5043  153.9334 H   0  0  0  0  0  0  0  0  0  0  0  0  # atno 10765 bound_to 10752
  140.0443  134.9288  157.0902 H   0  0  0  0  0  0  0  0  0  0  0  0  # atno 11005 bound_to 11000
  145.6848  141.0181  143.1587 LP  0  0  0  0  0  0  0  0  0  0  0  0  # atno 17320 bound_to 7965
  144.7085  139.8464  143.7422 LP  0  0  0  0  0  0  0  0  0  0  0  0  # atno 17321 bound_to 7965
  139.4794  144.5158  151.8870 LP  0  0  0  0  0  0  0  0  0  0  0  0  # atno 17342 bound_to 10162
  140.4246  144.2197  150.5887 LP  0  0  0  0  0  0  0  0  0  0  0  0  # atno 17343 bound_to 10162
  155.9705  130.4173  150.4274 LP  0  0  0  0  0  0  0  0  0  0  0  0  # atno 17370 bound_to 10713
  157.2318  131.0506  151.2487 LP  0  0  0  0  0  0  0  0  0  0  0  0  # atno 17371 bound_to 10713
  140.4018  134.2074  155.7163 LP  0  0  0  0  0  0  0  0  0  0  0  0  # atno 17394 bound_to 11000
  141.1899  133.8228  157.0938 LP  0  0  0  0  0  0  0  0  0  0  0  0  # atno 17395 bound_to 11000

$$$$
