AV-unprocessed.smi:2397|AV-procd|sdf|9493|dock3
  -GOLD-   2272013123D 1   1.00000     0.00000
 Structure written by MMmdl.
 36 37  0  0  0  0  0  0  0  0  1 V2000
  146.3828  138.8250  151.9480 C   0  0  0  0  0  0  0  0  0  0  0  0
  146.5858  138.5965  153.4540 C   0  0  0  0  0  0  0  0  0  0  0  0
  145.2648  138.4238  154.2191 C   0  0  0  0  0  0  0  0  0  0  0  0
  147.4698  139.6679  154.0787 C   0  0  0  0  0  0  0  0  0  0  0  0
  147.1076  140.9392  153.8827 N   0  0  0  0  0  0  0  0  0  0  0  0
  147.8896  141.8884  154.4380 C   0  0  0  0  0  0  0  0  0  0  0  0
  149.0364  141.5624  155.1887 C   0  0  0  0  0  0  0  0  0  0  0  0
  149.3345  140.1850  155.3273 C   0  0  0  0  0  0  0  0  0  0  0  0
  150.4428  139.7070  156.0557 N   0  0  0  0  0  0  0  0  0  0  0  0
  150.9751  140.7286  156.9551 C   0  0  0  0  0  0  0  0  0  0  0  0
  152.0272  140.1281  157.8983 C   0  0  0  0  0  0  0  0  0  0  0  0
  153.0421  139.5010  157.1266 O   0  0  0  0  0  0  0  0  0  0  0  0
  152.5220  138.4198  156.3623 C   0  0  0  0  0  0  0  0  0  0  0  0
  151.4697  138.9273  155.3481 C   0  0  1  0  0  0  0  0  0  0  0  0
  150.9368  137.7132  154.5650 C   0  0  0  0  0  0  0  0  0  0  0  0
  150.2334  137.9673  153.4588 N   0  0  0  0  0  0  0  0  0  0  0  0
  151.1662  136.5656  154.9436 O   0  0  0  0  0  0  0  0  0  0  0  0
  148.5338  139.2476  154.7710 N   0  0  0  0  0  0  0  0  0  0  0  0
  147.3393  138.8687  151.4266 H   0  0  0  0  0  0  0  0  0  0  0  0
  145.8544  139.7589  151.7543 H   0  0  0  0  0  0  0  0  0  0  0  0
  145.8007  138.0175  151.5037 H   0  0  0  0  0  0  0  0  0  0  0  0
  147.1166  137.6472  153.5477 H   0  0  0  0  0  0  0  0  0  0  0  0
  145.4481  138.1937  155.2689 H   0  0  0  0  0  0  0  0  0  0  0  0
  144.6731  137.6093  153.8007 H   0  0  0  0  0  0  0  0  0  0  0  0
  144.6586  139.3291  154.1772 H   0  0  0  0  0  0  0  0  0  0  0  0
  147.5970  142.9166  154.2855 H   0  0  0  0  0  0  0  0  0  0  0  0
  149.6425  142.3387  155.6303 H   0  0  0  0  0  0  0  0  0  0  0  0
  151.4206  141.5305  156.3643 H   0  0  0  0  0  0  0  0  0  0  0  0
  150.1789  141.1777  157.5505 H   0  0  0  0  0  0  0  0  0  0  0  0
  152.4774  140.9121  158.5075 H   0  0  0  0  0  0  0  0  0  0  0  0
  151.5743  139.4108  158.5849 H   0  0  0  0  0  0  0  0  0  0  0  0
  153.3527  137.9411  155.8421 H   0  0  0  0  0  0  0  0  0  0  0  0
  152.0976  137.6696  157.0329 H   0  0  0  0  0  0  0  0  0  0  0  0
  151.9779  139.5974  154.6525 H   0  0  0  0  0  0  0  0  0  0  0  0
  149.8621  137.2056  152.9100 H   0  0  0  0  0  0  0  0  0  0  0  0
  150.0758  138.9235  153.1755 H   0  0  0  0  0  0  0  0  0  0  0  0
  1  2  1  0  0  0  0
  1 19  1  0  0  0  0
  1 20  1  0  0  0  0
  1 21  1  0  0  0  0
  2  3  1  0  0  0  0
  2  4  1  0  0  0  0
  2 22  1  0  0  0  0
  3 23  1  0  0  0  0
  3 24  1  0  0  0  0
  3 25  1  0  0  0  0
  4 18  1  0  0  0  0
  4  5  2  0  0  0  0
  5  6  1  0  0  0  0
  6  7  2  0  0  0  0
  6 26  1  0  0  0  0
  7  8  1  0  0  0  0
  7 27  1  0  0  0  0
  8  9  1  0  0  0  0
  8 18  2  0  0  0  0
  9 14  1  0  0  0  0
  9 10  1  0  0  0  0
 10 11  1  0  0  0  0
 10 28  1  0  0  0  0
 10 29  1  0  0  0  0
 11 12  1  0  0  0  0
 11 30  1  0  0  0  0
 11 31  1  0  0  0  0
 12 13  1  0  0  0  0
 13 14  1  0  0  0  0
 13 32  1  0  0  0  0
 13 33  1  0  0  0  0
 14 15  1  0  0  0  0
 14 34  1  0  0  0  0
 15 16  1  0  0  0  0
 15 17  2  0  0  0  0
 16 35  1  0  0  0  0
 16 36  1  0  0  0  0
M  END
> <s_m_source_file>
AV-unprocessed.smi

> <i_m_source_file_index>
2397

> <i_lp_mmshare_version>
43012

> <i_f3d_flags>
0

> <s_epik_input>
W0NIM11bQ0hdKFtDSDNdKWMxbltjSF1bY0hdYyhuMSlOMltDSDJdW0NIMl1PW0NIMl1bQ0BIXTJDKD1PKVtOSDJd

> <s_epik_cmdline>
J2VwaWtfcHl0aG9uJywgJy1waCcsICc3LjAnLCAnLXRuJywgJzgnLCAnLW1hJywgJzIwMCcsICctbWV0YWxfYmluZGluZycsICctaW1hZScsICc8aW5maWxlLm1hZT4nLCAnLW9tYWUnLCAnPG91dGZpbGUubWFlPic=

> <r_lp_tautomer_probability>
1

> <r_epik_Ionization_Penalty>
0.0323151

> <r_epik_Ionization_Penalty_Charging>
0

> <r_epik_Ionization_Penalty_Neutral>
0.0323151

> <r_epik_State_Penalty>
0.0267324

> <r_epik_Charging_Adjusted_Penalty>
0.0267324

> <i_epik_Tot_Q>
0

> <i_epik_Tot_abs_Q>
0

> <r_epik_Metal_State_Penalty>
0.0253461

> <b_epik_Metal_Only>
0

> <s_lp_Force_Field>
OPLS_2005

> <r_lp_Energy>
6.33426

> <b_lp_Chiralities_Consistent>
1

> <s_lp_Variant>
AV-unprocessed.smi:2397-1

> <Gold.Version>
5.8.1

> <Gold.Id.Protein>
6NUR|6NUR_protein|mol2

> <Gold.PLP.Fitness>
36.9455

> <Gold.PLP.PLP>
-26.8493

> <Gold.PLP.part.hbond>
-4.9807

> <Gold.PLP.part.metal>
0.0000

> <Gold.PLP.part.buried>
-0.5519

> <Gold.PLP.part.nonpolar>
-23.9913

> <Gold.PLP.part.repulsive>
0.5201

> <Gold.PLP.ligand.clash>
0.0004

> <Gold.PLP.ligand.torsion>
0.7235

> <Gold.PLP.Chemscore.Hbond>
2.9558

> <Gold.PLP.Chemscore.CHOScore>
0.7817

> <Gold.PLP.Chemscore.Metal>
0.0000

> <Gold.Chemscore.Hbonds>
donor molecule, donor type, donor heavy atom, donor atom, acceptor molecule, acceptor atom, score
      L1  H    16    35       P1  7948  0.95
      L1  H    16    36       P1  7957  0.16
      P1  H  7997  8010       L1    12  1.00
      P1  H 10752 10763       L1    17  0.76
      L1  C     6    26       P1  8028  0.70

> <Gold.PLP.Chemscore.Internal.Correction>
0.3314

> <Gold.Rescore>
     Score         DG    S(hbond)    S(metal)    S(lipo)     H(rot)  DE(clash)    DE(int)     intcor
      9.95     -15.20       2.31        0.00      55.23       1.74       1.21       4.04       ----

> <Gold.Chemscore.Fitness>
9.9521

> <Gold.Chemscore.DG>
-15.2031

> <Gold.Chemscore.ZeroCoef>
-5.4800

> <Gold.Chemscore.Hbond>
2.3120

> <Gold.Chemscore.Metal>
0.0000

> <Gold.Chemscore.Lipo>
55.2302

> <Gold.Chemscore.Internal_Hbond>
0.0000

> <Gold.Chemscore.DEClash>
1.2076

> <Gold.Chemscore.DEInternal>
4.0434

> <Gold.Chemscore.Rot>
1.7426

> <Gold.Chemscore.Internal.Correction>
   9.000000E+99

> <Gold.Chemscore.Hbonds>
donor molecule, donor type, donor heavy atom, donor atom, acceptor molecule, acceptor atom, score
      L1  H    16    35       P1  7948  0.21
      L1  H    16    36       P1  7957  0.14
      P1  H  7997  8010       L1    12  0.88
      P1  H 10752 10763       L1    17  0.68

> <Gold.Chemscore.Hbond.Weighted>
-7.7222

> <Gold.Chemscore.Metal.Weighted>
-0.0000

> <Gold.Chemscore.Lipo.Weighted>
-6.4619

> <Gold.Chemscore.Internal_Hbond.Weighted>
0.0000

> <Gold.Chemscore.DEClash.Weighted>
1.2076

> <Gold.Chemscore.DEInternal.Weighted>
4.0434

> <Gold.Chemscore.Rot.Weighted>
4.4610

> <Gold.Chemscore.Internal.Correction.Weighted>
   9.000000E+99

> <Gold.Protein.RotatedTorsions>
[ 6907 6896 6895 6894 ] final  -43.50 input  -60.11 | X-H torsion
[ 7974 7965 7964 7962 ] final  -96.10 input  175.53 | X-H torsion
[ 8008 7997 7996 7995 ] final   58.01 input   59.86 | X-H torsion
[ 10167 10162 10161 10158 ] final   30.31 input  -65.29 | X-H torsion
[ 10718 10713 10712 10709 ] final   73.30 input   66.30 | X-H torsion
[ 10763 10752 10751 10750 ] final   36.59 input  -60.55 | X-H torsion
[ 11005 11000 10999 10996 ] final   95.88 input  -57.11 | X-H torsion

> <Gold.Protein.ActiveResidues>
 VAL166  LYS551  ARG553  GLY616  TRP617  ASP618  TYR619  PRO620  LYS621  CYS622 
 ASP623  PHE694  ASN695  SER759  ASP760  ASP761  ALA762  ILE779  LEU786  VAL792 
 PHE793  MET794  SER795  GLU796  ALA797  LYS798  CYS799  TRP800  GLU811  SER814 

> <Gold.Protein.RotatedAtoms>
  150.9432  134.8839  159.7625 H   0  0  0  0  0  0  0  0  0  0  0  0  # atno 6907 bound_to 6896
  152.5089  134.3912  159.9394 H   0  0  0  0  0  0  0  0  0  0  0  0  # atno 6908 bound_to 6896
  151.3932  133.3742  159.2758 H   0  0  0  0  0  0  0  0  0  0  0  0  # atno 6909 bound_to 6896
  145.3514  140.9477  143.2552 H   0  0  0  0  0  0  0  0  0  0  0  0  # atno 7974 bound_to 7965
  155.5431  140.3485  155.4451 H   0  0  0  0  0  0  0  0  0  0  0  0  # atno 8008 bound_to 7997
  156.0637  140.1346  156.9938 H   0  0  0  0  0  0  0  0  0  0  0  0  # atno 8009 bound_to 7997
  154.4492  140.0980  156.6539 H   0  0  0  0  0  0  0  0  0  0  0  0  # atno 8010 bound_to 7997
  140.4689  144.0792  150.6232 H   0  0  0  0  0  0  0  0  0  0  0  0  # atno 10167 bound_to 10162
  157.6541  130.9622  150.1050 H   0  0  0  0  0  0  0  0  0  0  0  0  # atno 10718 bound_to 10713
  153.0071  135.6301  154.2009 H   0  0  0  0  0  0  0  0  0  0  0  0  # atno 10763 bound_to 10752
  154.1753  135.2816  155.3070 H   0  0  0  0  0  0  0  0  0  0  0  0  # atno 10764 bound_to 10752
  154.5877  135.5627  153.7307 H   0  0  0  0  0  0  0  0  0  0  0  0  # atno 10765 bound_to 10752
  139.8785  134.8922  156.4077 H   0  0  0  0  0  0  0  0  0  0  0  0  # atno 11005 bound_to 11000
  144.8715  139.5031  143.6765 LP  0  0  0  0  0  0  0  0  0  0  0  0  # atno 17320 bound_to 7965
  146.2966  139.7298  142.9122 LP  0  0  0  0  0  0  0  0  0  0  0  0  # atno 17321 bound_to 7965
  140.4001  143.2708  151.9958 LP  0  0  0  0  0  0  0  0  0  0  0  0  # atno 17342 bound_to 10162
  139.4816  144.6004  151.7615 LP  0  0  0  0  0  0  0  0  0  0  0  0  # atno 17343 bound_to 10162
  156.1962  130.3657  149.8846 LP  0  0  0  0  0  0  0  0  0  0  0  0  # atno 17370 bound_to 10713
  156.6762  130.8840  151.3569 LP  0  0  0  0  0  0  0  0  0  0  0  0  # atno 17371 bound_to 10713
  140.9223  133.7637  155.9921 LP  0  0  0  0  0  0  0  0  0  0  0  0  # atno 17394 bound_to 11000
  140.8426  134.3049  157.5307 LP  0  0  0  0  0  0  0  0  0  0  0  0  # atno 17395 bound_to 11000

$$$$
