AV-unprocessed.smi:2520|AV-procd|sdf|9911|dock1
  -GOLD-   2272013543D 1   1.00000     0.00000
 Structure written by MMmdl.
 41 44  0  0  0  0  0  0  0  0  1 V2000
  145.3051  138.1476  153.5880 O   0  0  0  0  0  0  0  0  0  0  0  0
  146.2624  137.5117  153.1507 C   0  0  0  0  0  0  0  0  0  0  0  0
  147.5241  137.9721  153.2845 N   0  0  0  0  0  0  0  0  0  0  0  0
  148.0322  139.1614  153.8837 C   0  0  0  0  0  0  0  0  0  0  0  0
  149.4040  139.1188  154.2127 C   0  0  0  0  0  0  0  0  0  0  0  0
  149.9832  140.2476  154.8169 C   0  0  0  0  0  0  0  0  0  0  0  0
  149.1456  141.3500  155.0568 C   0  0  0  0  0  0  0  0  0  0  0  0
  147.8352  141.3479  154.7305 N   0  0  0  0  0  0  0  0  0  0  0  0
  147.2923  140.2693  154.1564 N   0  0  0  0  0  0  0  0  0  0  0  0
  146.1240  136.3332  152.5233 N   0  0  0  0  0  0  0  0  0  0  0  0
  144.8495  135.6810  152.2499 C   0  0  2  0  0  0  0  0  0  0  0  0
  144.1864  135.1335  153.5242 C   0  0  1  0  0  0  0  0  0  0  0  0
  142.8893  135.7247  154.0043 C   0  0  0  0  0  0  0  0  0  0  0  0
  141.8423  134.7871  153.3961 C   0  0  0  0  0  0  0  0  0  0  0  0
  142.5092  134.1640  152.3001 O   0  0  0  0  0  0  0  0  0  0  0  0
  143.8471  133.8927  152.7118 C   0  0  1  0  0  0  0  0  0  0  0  0
  144.9713  134.2363  151.7110 C   0  0  0  0  0  0  0  0  0  0  0  0
  146.2777  133.4610  151.9057 C   0  0  0  0  0  0  0  0  0  0  0  0
  146.1693  132.2050  151.0404 C   0  0  0  0  0  0  0  0  0  0  0  0
  145.2122  132.5770  149.9035 C   0  0  0  0  0  0  0  0  0  0  0  0
  144.6975  133.9832  150.2311 C   0  0  0  0  0  0  0  0  0  0  0  0
  148.2349  137.3463  152.9350 H   0  0  0  0  0  0  0  0  0  0  0  0
  150.0020  138.2430  154.0068 H   0  0  0  0  0  0  0  0  0  0  0  0
  151.0289  140.2675  155.0861 H   0  0  0  0  0  0  0  0  0  0  0  0
  149.5308  142.2473  155.5179 H   0  0  0  0  0  0  0  0  0  0  0  0
  146.9583  135.8685  152.1939 H   0  0  0  0  0  0  0  0  0  0  0  0
  144.1572  136.2836  151.6572 H   0  0  0  0  0  0  0  0  0  0  0  0
  144.9078  134.9107  154.3128 H   0  0  0  0  0  0  0  0  0  0  0  0
  142.8181  135.7542  155.0919 H   0  0  0  0  0  0  0  0  0  0  0  0
  142.7641  136.7418  153.6321 H   0  0  0  0  0  0  0  0  0  0  0  0
  141.5508  134.0206  154.1156 H   0  0  0  0  0  0  0  0  0  0  0  0
  140.9431  135.3123  153.0738 H   0  0  0  0  0  0  0  0  0  0  0  0
  143.9558  132.9554  153.2595 H   0  0  0  0  0  0  0  0  0  0  0  0
  147.1291  134.0485  151.5602 H   0  0  0  0  0  0  0  0  0  0  0  0
  146.4679  133.2122  152.9502 H   0  0  0  0  0  0  0  0  0  0  0  0
  147.1427  131.8778  150.6739 H   0  0  0  0  0  0  0  0  0  0  0  0
  145.7448  131.3875  151.6245 H   0  0  0  0  0  0  0  0  0  0  0  0
  145.7099  132.5590  148.9334 H   0  0  0  0  0  0  0  0  0  0  0  0
  144.3863  131.8658  149.8618 H   0  0  0  0  0  0  0  0  0  0  0  0
  143.6437  134.0899  149.9735 H   0  0  0  0  0  0  0  0  0  0  0  0
  145.2383  134.7138  149.6281 H   0  0  0  0  0  0  0  0  0  0  0  0
  1  2  2  0  0  0  0
  2  3  1  0  0  0  0
  2 10  1  0  0  0  0
  3  4  1  0  0  0  0
  3 22  1  0  0  0  0
  4  9  1  0  0  0  0
  4  5  2  0  0  0  0
  5  6  1  0  0  0  0
  5 23  1  0  0  0  0
  6  7  2  0  0  0  0
  6 24  1  0  0  0  0
  7  8  1  0  0  0  0
  7 25  1  0  0  0  0
  8  9  2  0  0  0  0
 10 11  1  0  0  0  0
 10 26  1  0  0  0  0
 11 17  1  0  0  0  0
 11 12  1  0  0  0  0
 11 27  1  0  0  0  0
 12 16  1  0  0  0  0
 12 13  1  0  0  0  0
 12 28  1  0  0  0  0
 13 14  1  0  0  0  0
 13 29  1  0  0  0  0
 13 30  1  0  0  0  0
 14 15  1  0  0  0  0
 14 31  1  0  0  0  0
 14 32  1  0  0  0  0
 15 16  1  0  0  0  0
 16 17  1  0  0  0  0
 16 33  1  0  0  0  0
 17 21  1  0  0  0  0
 17 18  1  0  0  0  0
 18 19  1  0  0  0  0
 18 34  1  0  0  0  0
 18 35  1  0  0  0  0
 19 20  1  0  0  0  0
 19 36  1  0  0  0  0
 19 37  1  0  0  0  0
 20 21  1  0  0  0  0
 20 38  1  0  0  0  0
 20 39  1  0  0  0  0
 21 40  1  0  0  0  0
 21 41  1  0  0  0  0
M  END
> <s_m_source_file>
AV-unprocessed.smi

> <i_m_source_file_index>
2520

> <i_lp_mmshare_version>
43012

> <i_f3d_flags>
0

> <s_epik_input>
bjFuW2NIXVtjSF1bY0hdYzFbTkhdQyg9TylbTkhdW0NAQEhdMltDQEBIXShbQ0gyXVtDSDJdTzMpW0NASF0zQzI0W0NIMl1bQ0gyXVtDSDJdW0NIMl00

> <s_epik_cmdline>
J2VwaWtfcHl0aG9uJywgJy1waCcsICc3LjAnLCAnLXRuJywgJzgnLCAnLW1hJywgJzIwMCcsICctbWV0YWxfYmluZGluZycsICctaW1hZScsICc8aW5maWxlLm1hZT4nLCAnLW9tYWUnLCAnPG91dGZpbGUubWFlPic=

> <r_lp_tautomer_probability>
1

> <r_epik_Ionization_Penalty>
0.00552561

> <r_epik_Ionization_Penalty_Charging>
0

> <r_epik_Ionization_Penalty_Neutral>
0.00552561

> <r_epik_State_Penalty>
-0

> <r_epik_Charging_Adjusted_Penalty>
0

> <i_epik_Tot_Q>
0

> <i_epik_Tot_abs_Q>
0

> <r_epik_Metal_State_Penalty>
-0

> <b_epik_Metal_Only>
0

> <s_lp_Force_Field>
OPLS_2005

> <r_lp_Energy>
61.2745

> <b_lp_Chiralities_Consistent>
1

> <s_lp_Variant>
AV-unprocessed.smi:2520-5

> <Gold.Version>
5.8.1

> <Gold.Id.Protein>
6NUR|6NUR_protein|mol2

> <Gold.PLP.Fitness>
37.4977

> <Gold.PLP.PLP>
-29.1562

> <Gold.PLP.part.hbond>
-2.0000

> <Gold.PLP.part.metal>
0.0000

> <Gold.PLP.part.buried>
-0.8126

> <Gold.PLP.part.nonpolar>
-27.5848

> <Gold.PLP.part.repulsive>
1.7919

> <Gold.PLP.ligand.clash>
0.0000

> <Gold.PLP.ligand.torsion>
0.1700

> <Gold.PLP.Chemscore.Hbond>
1.8320

> <Gold.PLP.Chemscore.CHOScore>
1.0000

> <Gold.PLP.Chemscore.Metal>
0.0000

> <Gold.Chemscore.Hbonds>
donor molecule, donor type, donor heavy atom, donor atom, acceptor molecule, acceptor atom, score
      L1  H     3    22       P1  7948  1.00
      L1  H    10    26       P1  7948  0.82
      L1  C     7    25       P1  8028  0.93

> <Gold.PLP.Chemscore.Internal.Correction>
0.1856

> <Gold.Rescore>
     Score         DG    S(hbond)    S(metal)    S(lipo)     H(rot)  DE(clash)    DE(int)     intcor
     16.29     -17.69       1.80        0.00      74.86       1.00       0.07       1.33       ----

> <Gold.Chemscore.Fitness>
16.2894

> <Gold.Chemscore.DG>
-17.6936

> <Gold.Chemscore.ZeroCoef>
-5.4800

> <Gold.Chemscore.Hbond>
1.8009

> <Gold.Chemscore.Metal>
0.0000

> <Gold.Chemscore.Lipo>
74.8606

> <Gold.Chemscore.Internal_Hbond>
0.0000

> <Gold.Chemscore.DEClash>
0.0713

> <Gold.Chemscore.DEInternal>
1.3328

> <Gold.Chemscore.Rot>
1.0000

> <Gold.Chemscore.Internal.Correction>
   9.000000E+99

> <Gold.Chemscore.Hbonds>
donor molecule, donor type, donor heavy atom, donor atom, acceptor molecule, acceptor atom, score
      L1  H     3    22       P1  7948  0.99
      L1  H    10    26       P1  7948  0.77

> <Gold.Chemscore.Hbond.Weighted>
-6.0149

> <Gold.Chemscore.Metal.Weighted>
-0.0000

> <Gold.Chemscore.Lipo.Weighted>
-8.7587

> <Gold.Chemscore.Internal_Hbond.Weighted>
0.0000

> <Gold.Chemscore.DEClash.Weighted>
0.0713

> <Gold.Chemscore.DEInternal.Weighted>
1.3328

> <Gold.Chemscore.Rot.Weighted>
2.5600

> <Gold.Chemscore.Internal.Correction.Weighted>
   9.000000E+99

> <Gold.Protein.RotatedTorsions>
[ 6907 6896 6895 6894 ] final   79.06 input  -60.11 | X-H torsion
[ 7974 7965 7964 7962 ] final  -62.14 input  175.53 | X-H torsion
[ 8008 7997 7996 7995 ] final  -97.43 input   59.86 | X-H torsion
[ 10167 10162 10161 10158 ] final  171.24 input  -65.29 | X-H torsion
[ 10718 10713 10712 10709 ] final  -88.59 input   66.30 | X-H torsion
[ 10763 10752 10751 10750 ] final  131.38 input  -60.55 | X-H torsion
[ 11005 11000 10999 10996 ] final -123.40 input  -57.11 | X-H torsion

> <Gold.Protein.ActiveResidues>
 VAL166  LYS551  ARG553  GLY616  TRP617  ASP618  TYR619  PRO620  LYS621  CYS622 
 ASP623  PHE694  ASN695  SER759  ASP760  ASP761  ALA762  ILE779  LEU786  VAL792 
 PHE793  MET794  SER795  GLU796  ALA797  LYS798  CYS799  TRP800  GLU811  SER814 

> <Gold.Protein.RotatedAtoms>
  152.5184  134.3569  159.9270 H   0  0  0  0  0  0  0  0  0  0  0  0  # atno 6907 bound_to 6896
  151.3520  133.3915  159.2689 H   0  0  0  0  0  0  0  0  0  0  0  0  # atno 6908 bound_to 6896
  150.9719  134.9109  159.7851 H   0  0  0  0  0  0  0  0  0  0  0  0  # atno 6909 bound_to 6896
  145.7949  140.8688  143.0261 H   0  0  0  0  0  0  0  0  0  0  0  0  # atno 7974 bound_to 7965
  154.7876  140.0463  157.1176 H   0  0  0  0  0  0  0  0  0  0  0  0  # atno 8008 bound_to 7997
  154.9629  140.3080  155.5003 H   0  0  0  0  0  0  0  0  0  0  0  0  # atno 8009 bound_to 7997
  156.2945  140.2267  156.4716 H   0  0  0  0  0  0  0  0  0  0  0  0  # atno 8010 bound_to 7997
  139.5041  144.3507  151.9925 H   0  0  0  0  0  0  0  0  0  0  0  0  # atno 10167 bound_to 10162
  155.9983  130.4841  150.5043 H   0  0  0  0  0  0  0  0  0  0  0  0  # atno 10718 bound_to 10713
  153.7734  135.3179  155.3355 H   0  0  0  0  0  0  0  0  0  0  0  0  # atno 10763 bound_to 10752
  154.8188  135.4618  154.0722 H   0  0  0  0  0  0  0  0  0  0  0  0  # atno 10764 bound_to 10752
  153.1988  135.6919  153.8342 H   0  0  0  0  0  0  0  0  0  0  0  0  # atno 10765 bound_to 10752
  140.9922  134.0523  157.3641 H   0  0  0  0  0  0  0  0  0  0  0  0  # atno 11005 bound_to 11000
  144.6776  140.0176  143.7484 LP  0  0  0  0  0  0  0  0  0  0  0  0  # atno 17320 bound_to 7965
  145.9938  139.3036  143.0969 LP  0  0  0  0  0  0  0  0  0  0  0  0  # atno 17321 bound_to 7965
  140.2944  144.3717  150.6079 LP  0  0  0  0  0  0  0  0  0  0  0  0  # atno 17342 bound_to 10162
  140.5922  143.2168  151.7232 LP  0  0  0  0  0  0  0  0  0  0  0  0  # atno 17343 bound_to 10162
  157.3024  131.0648  151.2059 LP  0  0  0  0  0  0  0  0  0  0  0  0  # atno 17370 bound_to 10713
  157.3034  130.6854  149.6176 LP  0  0  0  0  0  0  0  0  0  0  0  0  # atno 17371 bound_to 10713
  139.8997  135.0160  156.7210 LP  0  0  0  0  0  0  0  0  0  0  0  0  # atno 17394 bound_to 11000
  140.7022  133.9296  155.8031 LP  0  0  0  0  0  0  0  0  0  0  0  0  # atno 17395 bound_to 11000

$$$$
