AV-unprocessed.smi:102|AV-procd|sdf|958|dock4
  -GOLD-   2262017493D 1   1.00000     0.00000
 Structure written by MMmdl.
 44 45  0  0  0  0  0  0  0  0  1 V2000
  149.2845  134.1071  153.9223 C   0  0  0  0  0  0  0  0  0  0  0  0
  148.4347  134.6759  155.0507 C   0  0  0  0  0  0  0  0  0  0  0  0
  147.9092  133.9449  155.8908 O   0  0  0  0  0  0  0  0  0  0  0  0
  148.3474  136.0179  154.9996 O   0  0  0  0  0  0  0  0  0  0  0  0
  147.5929  136.7258  155.9735 C   0  0  0  0  0  0  0  0  0  0  0  0
  148.0110  136.3236  157.3962 C   0  0  1  0  0  0  0  0  0  0  0  0
  149.4185  136.4638  157.5656 O   0  0  0  0  0  0  0  0  0  0  0  0
  149.7213  136.8087  158.8840 C   0  0  1  0  0  0  0  0  0  0  0  0
  150.5690  138.0586  158.8770 N   0  0  0  0  0  0  0  0  0  0  0  0
  150.0565  139.2763  158.4478 C   0  0  0  0  0  0  0  0  0  0  0  0
  150.7826  140.4190  158.4393 C   0  0  0  0  0  0  0  0  0  0  0  0
  150.2184  141.5609  158.0100 F   0  0  0  0  0  0  0  0  0  0  0  0
  152.1685  140.4237  158.8982 C   0  0  0  0  0  0  0  0  0  0  0  0
  152.9071  141.4060  158.9249 O   0  0  0  0  0  0  0  0  0  0  0  0
  152.6361  139.1807  159.3350 N   0  0  0  0  0  0  0  0  0  0  0  0
  151.8977  137.9961  159.3522 C   0  0  0  0  0  0  0  0  0  0  0  0
  152.4092  136.9601  159.7744 O   0  0  0  0  0  0  0  0  0  0  0  0
  148.4028  137.0756  159.6221 C   0  0  2  0  0  0  0  0  0  0  0  0
  148.0723  135.9466  160.4256 O   0  0  0  0  0  0  0  0  0  0  0  0
  147.7098  136.1084  161.7094 C   0  0  0  0  0  0  0  0  0  0  0  0
  147.2806  134.7999  162.3591 C   0  0  0  0  0  0  0  0  0  0  0  0
  147.7080  137.1678  162.3360 O   0  0  0  0  0  0  0  0  0  0  0  0
  147.4246  137.2402  158.4669 C   0  0  2  0  0  0  0  0  0  0  0  0
  146.0939  136.8756  158.8149 O   0  0  0  0  0  0  0  0  0  0  0  0
  145.4950  137.4425  159.8763 C   0  0  0  0  0  0  0  0  0  0  0  0
  144.0460  137.0006  160.0304 C   0  0  0  0  0  0  0  0  0  0  0  0
  146.0165  138.2269  160.6689 O   0  0  0  0  0  0  0  0  0  0  0  0
  153.5874  139.1379  159.6706 H   0  0  0  0  0  0  0  0  0  0  0  0
  150.3080  134.4744  153.9982 H   0  0  0  0  0  0  0  0  0  0  0  0
  148.8791  134.4045  152.9550 H   0  0  0  0  0  0  0  0  0  0  0  0
  149.3036  133.0180  153.9692 H   0  0  0  0  0  0  0  0  0  0  0  0
  147.6598  137.8054  155.8313 H   0  0  0  0  0  0  0  0  0  0  0  0
  146.5465  136.4604  155.8222 H   0  0  0  0  0  0  0  0  0  0  0  0
  147.7358  135.2885  157.6062 H   0  0  0  0  0  0  0  0  0  0  0  0
  150.3295  136.0150  159.3219 H   0  0  0  0  0  0  0  0  0  0  0  0
  149.0337  139.3336  158.1058 H   0  0  0  0  0  0  0  0  0  0  0  0
  148.4614  137.9885  160.2173 H   0  0  0  0  0  0  0  0  0  0  0  0
  146.6430  134.2292  161.6836 H   0  0  0  0  0  0  0  0  0  0  0  0
  146.7245  134.9930  163.2768 H   0  0  0  0  0  0  0  0  0  0  0  0
  148.1542  134.1962  162.6047 H   0  0  0  0  0  0  0  0  0  0  0  0
  147.4632  138.2688  158.1047 H   0  0  0  0  0  0  0  0  0  0  0  0
  143.5380  137.0126  159.0658 H   0  0  0  0  0  0  0  0  0  0  0  0
  143.5129  137.6669  160.7092 H   0  0  0  0  0  0  0  0  0  0  0  0
  144.0024  135.9889  160.4341 H   0  0  0  0  0  0  0  0  0  0  0  0
  1  2  1  0  0  0  0
  1 29  1  0  0  0  0
  1 30  1  0  0  0  0
  1 31  1  0  0  0  0
  2  3  2  0  0  0  0
  2  4  1  0  0  0  0
  4  5  1  0  0  0  0
  5  6  1  0  0  0  0
  5 32  1  0  0  0  0
  5 33  1  0  0  0  0
  6 23  1  0  0  0  0
  6  7  1  0  0  0  0
  6 34  1  0  0  0  0
  7  8  1  0  0  0  0
  8  9  1  0  0  0  0
  8 18  1  0  0  0  0
  8 35  1  0  0  0  0
  9 16  1  0  0  0  0
  9 10  1  0  0  0  0
 10 11  2  0  0  0  0
 10 36  1  0  0  0  0
 11 12  1  0  0  0  0
 11 13  1  0  0  0  0
 13 14  2  0  0  0  0
 13 15  1  0  0  0  0
 15 28  1  0  0  0  0
 15 16  1  0  0  0  0
 16 17  2  0  0  0  0
 18 19  1  0  0  0  0
 18 23  1  0  0  0  0
 18 37  1  0  0  0  0
 19 20  1  0  0  0  0
 20 21  1  0  0  0  0
 20 22  2  0  0  0  0
 21 38  1  0  0  0  0
 21 39  1  0  0  0  0
 21 40  1  0  0  0  0
 23 24  1  0  0  0  0
 23 41  1  0  0  0  0
 24 25  1  0  0  0  0
 25 26  1  0  0  0  0
 25 27  2  0  0  0  0
 26 42  1  0  0  0  0
 26 43  1  0  0  0  0
 26 44  1  0  0  0  0
M  END
> <s_m_source_file>
AV-unprocessed.smi

> <i_m_source_file_index>
102

> <i_lp_mmshare_version>
43012

> <i_f3d_flags>
0

> <s_epik_input>
W0NIM11DKD1PKU9bQ0gyXVtDQEBIXTFPW0NASF0oW0NAQEhdKE9DKD1PKVtDSDNdKVtDQEhdMU9DKD1PKVtDSDNdKW4yW2NIXWMoRiljKD1PKVtuSF1jMj1P

> <s_epik_cmdline>
J2VwaWtfcHl0aG9uJywgJy1waCcsICc3LjAnLCAnLXRuJywgJzgnLCAnLW1hJywgJzIwMCcsICctbWV0YWxfYmluZGluZycsICctaW1hZScsICc8aW5maWxlLm1hZT4nLCAnLW9tYWUnLCAnPG91dGZpbGUubWFlPic=

> <r_lp_tautomer_probability>
0.999537

> <r_epik_Ionization_Penalty>
0.058267

> <r_epik_Ionization_Penalty_Charging>
0.058267

> <r_epik_Ionization_Penalty_Neutral>
6.57791e-16

> <r_epik_State_Penalty>
0.0503774

> <r_epik_Charging_Adjusted_Penalty>
0.108644

> <i_epik_Tot_Q>
0

> <i_epik_Tot_abs_Q>
0

> <r_epik_Metal_State_Penalty>
2.6644

> <b_epik_Metal_Only>
0

> <s_epik_Chemistry_Notes>
This compound has an ester and may undergo hydrolysis at high or low pH. This compound contains an acetal/aminal-like group ( X-CH(R)-Y where X, Y are N, S, or O) that may be acid/base labile, releasing an aldehyde.

> <s_lp_Force_Field>
OPLS_2005

> <r_lp_Energy>
14.1022

> <b_lp_Chiralities_Consistent>
1

> <s_lp_Variant>
AV-unprocessed.smi:102-14

> <Gold.Version>
5.8.1

> <Gold.Id.Protein>
6NUR|6NUR_protein|mol2

> <Gold.PLP.Fitness>
37.7525

> <Gold.PLP.PLP>
-30.5304

> <Gold.PLP.part.hbond>
-3.8931

> <Gold.PLP.part.metal>
0.0000

> <Gold.PLP.part.buried>
-5.7095

> <Gold.PLP.part.nonpolar>
-21.4982

> <Gold.PLP.part.repulsive>
0.2160

> <Gold.PLP.ligand.clash>
0.0000

> <Gold.PLP.ligand.torsion>
0.9317

> <Gold.PLP.Chemscore.Hbond>
2.9440

> <Gold.PLP.Chemscore.CHOScore>
0.0000

> <Gold.PLP.Chemscore.Metal>
0.0000

> <Gold.Chemscore.Hbonds>
donor molecule, donor type, donor heavy atom, donor atom, acceptor molecule, acceptor atom, score
      P1  H  6896  6909       L1    17  1.00
      P1  H  6931  6943       L1    22  0.93
      P1  H  6934  6947       L1    27  0.62

> <Gold.PLP.Chemscore.Internal.Correction>
0.2534

> <Gold.Rescore>
     Score         DG    S(hbond)    S(metal)    S(lipo)     H(rot)  DE(clash)    DE(int)     intcor
      5.52      -7.72       2.71        0.00      30.31       4.05       0.03       2.17       ----

> <Gold.Chemscore.Fitness>
5.5184

> <Gold.Chemscore.DG>
-7.7151

> <Gold.Chemscore.ZeroCoef>
-5.4800

> <Gold.Chemscore.Hbond>
2.7130

> <Gold.Chemscore.Metal>
0.0000

> <Gold.Chemscore.Lipo>
30.3145

> <Gold.Chemscore.Internal_Hbond>
0.0000

> <Gold.Chemscore.DEClash>
0.0270

> <Gold.Chemscore.DEInternal>
2.1697

> <Gold.Chemscore.Rot>
4.0520

> <Gold.Chemscore.Internal.Correction>
   9.000000E+99

> <Gold.Chemscore.Hbonds>
donor molecule, donor type, donor heavy atom, donor atom, acceptor molecule, acceptor atom, score
      P1  H  6896  6909       L1    17  0.94
      P1  H  6931  6943       L1    22  0.82
      P1  H  6934  6947       L1    27  0.62

> <Gold.Chemscore.Hbond.Weighted>
-9.0615

> <Gold.Chemscore.Metal.Weighted>
-0.0000

> <Gold.Chemscore.Lipo.Weighted>
-3.5468

> <Gold.Chemscore.Internal_Hbond.Weighted>
0.0000

> <Gold.Chemscore.DEClash.Weighted>
0.0270

> <Gold.Chemscore.DEInternal.Weighted>
2.1697

> <Gold.Chemscore.Rot.Weighted>
10.3732

> <Gold.Chemscore.Internal.Correction.Weighted>
   9.000000E+99

> <Gold.Protein.RotatedTorsions>
[ 6907 6896 6895 6894 ] final  117.78 input  -60.11 | X-H torsion
[ 7974 7965 7964 7962 ] final -168.87 input  175.53 | X-H torsion
[ 8008 7997 7996 7995 ] final  100.22 input   59.86 | X-H torsion
[ 10167 10162 10161 10158 ] final -160.42 input  -65.29 | X-H torsion
[ 10718 10713 10712 10709 ] final  -79.38 input   66.30 | X-H torsion
[ 10763 10752 10751 10750 ] final   10.41 input  -60.55 | X-H torsion
[ 11005 11000 10999 10996 ] final  -27.23 input  -57.11 | X-H torsion

> <Gold.Protein.ActiveResidues>
 VAL166  LYS551  ARG553  GLY616  TRP617  ASP618  TYR619  PRO620  LYS621  CYS622 
 ASP623  PHE694  ASN695  SER759  ASP760  ASP761  ALA762  ILE779  LEU786  VAL792 
 PHE793  MET794  SER795  GLU796  ALA797  LYS798  CYS799  TRP800  GLU811  SER814 

> <Gold.Protein.RotatedAtoms>
  152.4589  133.7780  159.6834 H   0  0  0  0  0  0  0  0  0  0  0  0  # atno 6907 bound_to 6896
  150.8525  133.7755  159.3027 H   0  0  0  0  0  0  0  0  0  0  0  0  # atno 6908 bound_to 6896
  151.5346  135.1071  159.9963 H   0  0  0  0  0  0  0  0  0  0  0  0  # atno 6909 bound_to 6896
  144.7195  140.2306  143.6304 H   0  0  0  0  0  0  0  0  0  0  0  0  # atno 7974 bound_to 7965
  156.1182  140.3216  155.8169 H   0  0  0  0  0  0  0  0  0  0  0  0  # atno 8008 bound_to 7997
  155.4552  140.0535  157.3014 H   0  0  0  0  0  0  0  0  0  0  0  0  # atno 8009 bound_to 7997
  154.4808  140.2052  155.9782 H   0  0  0  0  0  0  0  0  0  0  0  0  # atno 8010 bound_to 7997
  139.6541  144.0031  152.2181 H   0  0  0  0  0  0  0  0  0  0  0  0  # atno 10167 bound_to 10162
  156.0094  130.4544  150.3640 H   0  0  0  0  0  0  0  0  0  0  0  0  # atno 10718 bound_to 10713
  153.2035  135.6859  153.8201 H   0  0  0  0  0  0  0  0  0  0  0  0  # atno 10763 bound_to 10752
  153.7459  135.3231  155.3313 H   0  0  0  0  0  0  0  0  0  0  0  0  # atno 10764 bound_to 10752
  154.8184  135.4669  154.0812 H   0  0  0  0  0  0  0  0  0  0  0  0  # atno 10765 bound_to 10752
  140.9100  133.7467  156.0658 H   0  0  0  0  0  0  0  0  0  0  0  0  # atno 11005 bound_to 11000
  145.8414  139.2132  143.1825 LP  0  0  0  0  0  0  0  0  0  0  0  0  # atno 17320 bound_to 7965
  146.0342  140.8228  142.9860 LP  0  0  0  0  0  0  0  0  0  0  0  0  # atno 17321 bound_to 7965
  139.9753  144.6466  150.7951 LP  0  0  0  0  0  0  0  0  0  0  0  0  # atno 17342 bound_to 10162
  140.7551  143.3039  151.3010 LP  0  0  0  0  0  0  0  0  0  0  0  0  # atno 17343 bound_to 10162
  157.1727  131.0373  151.2787 LP  0  0  0  0  0  0  0  0  0  0  0  0  # atno 17370 bound_to 10713
  157.4215  130.7440  149.6917 LP  0  0  0  0  0  0  0  0  0  0  0  0  # atno 17371 bound_to 10713
  140.8122  134.3386  157.5408 LP  0  0  0  0  0  0  0  0  0  0  0  0  # atno 17394 bound_to 11000
  139.8756  134.9260  156.3390 LP  0  0  0  0  0  0  0  0  0  0  0  0  # atno 17395 bound_to 11000

$$$$
