AV-unprocessed.smi:48|AV-procd|sdf|459|dock7
  -GOLD-   2262016323D 1   1.00000     0.00000
 Structure written by MMmdl.
 30 32  0  0  0  0  0  0  0  0  1 V2000
  144.8263  140.3616  154.8099 O   0  0  0  0  0  0  0  0  0  0  0  0
  144.9993  141.6886  155.2582 C   0  0  0  0  0  0  0  0  0  0  0  0
  146.4870  142.0776  155.1929 C   0  0  1  0  0  0  0  0  0  0  0  0
  147.2614  141.2895  156.0963 O   0  0  0  0  0  0  0  0  0  0  0  0
  148.5495  141.0762  155.5996 C   0  0  1  0  0  0  0  0  0  0  0  0
  148.7527  139.5954  155.5007 N   0  0  0  0  0  0  0  0  0  0  0  0
  147.8461  138.6021  155.6218 C   0  0  0  0  0  0  0  0  0  0  0  0
  148.2857  137.3510  155.4894 N   0  0  0  0  0  0  0  0  0  0  0  0
  149.6369  137.5558  155.2637 C   0  0  0  0  0  0  0  0  0  0  0  0
  150.7190  136.6712  155.0375 C   0  0  0  0  0  0  0  0  0  0  0  0
  150.4783  134.9627  155.0048 Cl  0  0  0  0  0  0  0  0  0  0  0  0
  151.9523  137.1975  154.8452 N   0  0  0  0  0  0  0  0  0  0  0  0
  152.1110  138.5268  154.8750 C   0  0  0  0  0  0  0  0  0  0  0  0
  151.1926  139.4790  155.0766 N   0  0  0  0  0  0  0  0  0  0  0  0
  149.9509  138.9441  155.2697 C   0  0  0  0  0  0  0  0  0  0  0  0
  148.6279  141.7620  154.2229 C   0  0  1  0  0  0  0  0  0  0  0  0
  149.4137  141.0966  153.2492 O   0  0  0  0  0  0  0  0  0  0  0  0
  147.1633  141.8899  153.8269 C   0  0  1  0  0  0  0  0  0  0  0  0
  146.6762  140.7387  153.1571 O   0  0  0  0  0  0  0  0  0  0  0  0
  146.6108  143.1239  155.4790 H   0  0  0  0  0  0  0  0  0  0  0  0
  149.3107  141.4148  156.3035 H   0  0  0  0  0  0  0  0  0  0  0  0
  149.0395  142.7595  154.3832 H   0  0  0  0  0  0  0  0  0  0  0  0
  146.9966  142.7500  153.1777 H   0  0  0  0  0  0  0  0  0  0  0  0
  144.5033  140.3846  153.9222 H   0  0  0  0  0  0  0  0  0  0  0  0
  144.3830  142.3695  154.6703 H   0  0  0  0  0  0  0  0  0  0  0  0
  144.6434  141.7325  156.2880 H   0  0  0  0  0  0  0  0  0  0  0  0
  146.8037  138.8065  155.8173 H   0  0  0  0  0  0  0  0  0  0  0  0
  153.1191  138.8790  154.7127 H   0  0  0  0  0  0  0  0  0  0  0  0
  149.5395  140.2031  153.5300 H   0  0  0  0  0  0  0  0  0  0  0  0
  145.7680  140.8838  152.9390 H   0  0  0  0  0  0  0  0  0  0  0  0
  1  2  1  0  0  0  0
  1 24  1  0  0  0  0
  2  3  1  0  0  0  0
  2 25  1  0  0  0  0
  2 26  1  0  0  0  0
  3 20  1  0  0  0  0
  3 18  1  0  0  0  0
  3  4  1  0  0  0  0
  4  5  1  0  0  0  0
  5 21  1  0  0  0  0
  5  6  1  0  0  0  0
  5 16  1  0  0  0  0
  6 15  1  0  0  0  0
  6  7  1  0  0  0  0
  7  8  2  0  0  0  0
  7 27  1  0  0  0  0
  8  9  1  0  0  0  0
  9 15  2  0  0  0  0
  9 10  1  0  0  0  0
 10 11  1  0  0  0  0
 10 12  2  0  0  0  0
 12 13  1  0  0  0  0
 13 14  2  0  0  0  0
 13 28  1  0  0  0  0
 14 15  1  0  0  0  0
 16 22  1  0  0  0  0
 16 17  1  0  0  0  0
 16 18  1  0  0  0  0
 17 29  1  0  0  0  0
 18 23  1  0  0  0  0
 18 19  1  0  0  0  0
 19 30  1  0  0  0  0
M  END
> <s_m_source_file>
AV-unprocessed.smi

> <i_m_source_file_index>
48

> <i_lp_mmshare_version>
43012

> <i_f3d_flags>
0

> <s_epik_input>
W09IXVtDSDJdW0NASF0xT1tDQEhdKFtDQEhdKFtPSF0pW0NAQEhdMVtPSF0pbihbY0hdbjIpYyhjMjMpbltjSF1uYzNDbA==

> <s_epik_cmdline>
J2VwaWtfcHl0aG9uJywgJy1waCcsICc3LjAnLCAnLXRuJywgJzgnLCAnLW1hJywgJzIwMCcsICctbWV0YWxfYmluZGluZycsICctaW1hZScsICc8aW5maWxlLm1hZT4nLCAnLW9tYWUnLCAnPG91dGZpbGUubWFlPic=

> <r_lp_tautomer_probability>
1

> <r_epik_Ionization_Penalty>
3.45505e-06

> <r_epik_Ionization_Penalty_Charging>
0

> <r_epik_Ionization_Penalty_Neutral>
3.45505e-06

> <r_epik_State_Penalty>
-0

> <r_epik_Charging_Adjusted_Penalty>
0

> <i_epik_Tot_Q>
0

> <i_epik_Tot_abs_Q>
0

> <r_epik_Metal_State_Penalty>
-0

> <b_epik_Metal_Only>
0

> <s_epik_Chemistry_Notes>
This compound contains an acetal/aminal-like group ( X-CH(R)-Y where X, Y are N, S, or O) that may be acid/base labile, releasing an aldehyde.

> <s_lp_Force_Field>
OPLS_2005

> <r_lp_Energy>
40.6027

> <b_lp_Chiralities_Consistent>
1

> <s_lp_Variant>
AV-unprocessed.smi:48-13

> <Gold.Version>
5.8.1

> <Gold.Id.Protein>
6NUR|6NUR_protein|mol2

> <Gold.PLP.Fitness>
42.7189

> <Gold.PLP.PLP>
-28.1406

> <Gold.PLP.part.hbond>
-6.2387

> <Gold.PLP.part.metal>
0.0000

> <Gold.PLP.part.buried>
-5.5258

> <Gold.PLP.part.nonpolar>
-18.0679

> <Gold.PLP.part.repulsive>
0.3216

> <Gold.PLP.ligand.clash>
0.0000

> <Gold.PLP.ligand.torsion>
0.2887

> <Gold.PLP.Chemscore.Hbond>
5.0000

> <Gold.PLP.Chemscore.CHOScore>
0.0000

> <Gold.PLP.Chemscore.Metal>
0.0000

> <Gold.Chemscore.Hbonds>
donor molecule, donor type, donor heavy atom, donor atom, acceptor molecule, acceptor atom, score
      L1  H     1    24       P1 10175  1.00
      L1  H    19    30       P1 10175  0.67
      P1  H  7989  7998       L1    14  0.71
      P1  H  8011  8017       L1    17  0.90
      P1  H 10752 10763       L1    12  0.93

> <Gold.PLP.Chemscore.Internal.Correction>
0.1557

> <Gold.Rescore>
     Score         DG    S(hbond)    S(metal)    S(lipo)     H(rot)  DE(clash)    DE(int)     intcor
     10.13     -11.53       3.44        0.00      36.56       3.80       0.75       0.64       ----

> <Gold.Chemscore.Fitness>
10.1328

> <Gold.Chemscore.DG>
-11.5273

> <Gold.Chemscore.ZeroCoef>
-5.4800

> <Gold.Chemscore.Hbond>
3.4439

> <Gold.Chemscore.Metal>
0.0000

> <Gold.Chemscore.Lipo>
36.5576

> <Gold.Chemscore.Internal_Hbond>
0.0000

> <Gold.Chemscore.DEClash>
0.7505

> <Gold.Chemscore.DEInternal>
0.6440

> <Gold.Chemscore.Rot>
3.8017

> <Gold.Chemscore.Internal.Correction>
   9.000000E+99

> <Gold.Chemscore.Hbonds>
donor molecule, donor type, donor heavy atom, donor atom, acceptor molecule, acceptor atom, score
      L1  H     1    24       P1 10175  1.00
      L1  H    19    30       P1 10175  0.26
      P1  H  7989  7998       L1    14  0.24
      P1  H  8011  8017       L1    17  0.18
      P1  H 10752 10763       L1    12  0.27

> <Gold.Chemscore.Hbond.Weighted>
-11.5025

> <Gold.Chemscore.Metal.Weighted>
-0.0000

> <Gold.Chemscore.Lipo.Weighted>
-4.2772

> <Gold.Chemscore.Internal_Hbond.Weighted>
0.0000

> <Gold.Chemscore.DEClash.Weighted>
0.7505

> <Gold.Chemscore.DEInternal.Weighted>
0.6440

> <Gold.Chemscore.Rot.Weighted>
9.7324

> <Gold.Chemscore.Internal.Correction.Weighted>
   9.000000E+99

> <Gold.Protein.RotatedTorsions>
[ 6907 6896 6895 6894 ] final   98.34 input  -60.11 | X-H torsion
[ 7974 7965 7964 7962 ] final  -92.28 input  175.53 | X-H torsion
[ 8008 7997 7996 7995 ] final   16.03 input   59.86 | X-H torsion
[ 10167 10162 10161 10158 ] final -114.52 input  -65.29 | X-H torsion
[ 10718 10713 10712 10709 ] final   38.07 input   66.30 | X-H torsion
[ 10763 10752 10751 10750 ] final   47.36 input  -60.55 | X-H torsion
[ 11005 11000 10999 10996 ] final   63.95 input  -57.11 | X-H torsion

> <Gold.Protein.ActiveResidues>
 VAL166  LYS551  ARG553  GLY616  TRP617  ASP618  TYR619  PRO620  LYS621  CYS622 
 ASP623  PHE694  ASN695  SER759  ASP760  ASP761  ALA762  ILE779  LEU786  VAL792 
 PHE793  MET794  SER795  GLU796  ALA797  LYS798  CYS799  TRP800  GLU811  SER814 

> <Gold.Protein.RotatedAtoms>
  152.5410  134.0595  159.8145 H   0  0  0  0  0  0  0  0  0  0  0  0  # atno 6907 bound_to 6896
  151.0725  133.5447  159.2633 H   0  0  0  0  0  0  0  0  0  0  0  0  # atno 6908 bound_to 6896
  151.2305  135.0560  159.9039 H   0  0  0  0  0  0  0  0  0  0  0  0  # atno 6909 bound_to 6896
  145.4020  140.9538  143.2282 H   0  0  0  0  0  0  0  0  0  0  0  0  # atno 7974 bound_to 7965
  154.8711  140.2959  155.5481 H   0  0  0  0  0  0  0  0  0  0  0  0  # atno 8008 bound_to 7997
  156.3021  140.2460  156.3633 H   0  0  0  0  0  0  0  0  0  0  0  0  # atno 8009 bound_to 7997
  154.8816  140.0397  157.1775 H   0  0  0  0  0  0  0  0  0  0  0  0  # atno 8010 bound_to 7997
  140.1000  143.4621  152.1818 H   0  0  0  0  0  0  0  0  0  0  0  0  # atno 10167 bound_to 10162
  157.3544  130.7616  149.7002 H   0  0  0  0  0  0  0  0  0  0  0  0  # atno 10718 bound_to 10713
  152.9801  135.5979  154.3749 H   0  0  0  0  0  0  0  0  0  0  0  0  # atno 10763 bound_to 10752
  154.3419  135.2767  155.2420 H   0  0  0  0  0  0  0  0  0  0  0  0  # atno 10764 bound_to 10752
  154.4497  135.5993  153.6239 H   0  0  0  0  0  0  0  0  0  0  0  0  # atno 10765 bound_to 10752
  139.9991  134.6471  155.9961 H   0  0  0  0  0  0  0  0  0  0  0  0  # atno 11005 bound_to 11000
  144.8367  139.5538  143.6919 LP  0  0  0  0  0  0  0  0  0  0  0  0  # atno 17320 bound_to 7965
  146.2747  139.6723  142.9271 LP  0  0  0  0  0  0  0  0  0  0  0  0  # atno 17321 bound_to 7965
  139.5676  144.7444  151.3978 LP  0  0  0  0  0  0  0  0  0  0  0  0  # atno 17342 bound_to 10162
  140.6983  143.7695  150.7361 LP  0  0  0  0  0  0  0  0  0  0  0  0  # atno 17343 bound_to 10162
  155.9727  130.4131  150.4067 LP  0  0  0  0  0  0  0  0  0  0  0  0  # atno 17370 bound_to 10713
  157.2134  131.0466  151.2586 LP  0  0  0  0  0  0  0  0  0  0  0  0  # atno 17371 bound_to 10713
  141.1628  133.6538  156.4375 LP  0  0  0  0  0  0  0  0  0  0  0  0  # atno 17394 bound_to 11000
  140.4762  134.6707  157.5151 LP  0  0  0  0  0  0  0  0  0  0  0  0  # atno 17395 bound_to 11000

$$$$
