AV-unprocessed.smi:1125|AV-procd|sdf|4834|dock4
  -GOLD-   22720 3393D 1   1.00000     0.00000
 Structure written by MMmdl.
 46 47  0  0  0  0  0  0  0  0  2 V2000
  145.4189  135.2315  152.3539 C   0  0  0  0  0  0  0  0  0  0  0  0
  146.3032  136.3903  152.6028 N   0  3  2  0  0  0  0  0  0  0  0  0
  146.5795  136.5891  154.0475 C   0  0  0  0  0  0  0  0  0  0  0  0
  147.5947  137.7237  154.2666 C   0  0  0  0  0  0  0  0  0  0  0  0
  147.1104  139.0314  153.6192 C   0  0  1  0  0  0  0  0  0  0  0  0
  148.1199  140.0716  153.7862 N   0  0  0  0  0  0  0  0  0  0  0  0
  148.5143  140.5862  154.9621 C   0  0  0  0  0  0  0  0  0  0  0  0
  148.0222  140.2619  156.0427 O   0  0  0  0  0  0  0  0  0  0  0  0
  149.6362  141.6246  154.9123 C   0  0  0  0  0  0  0  0  0  0  0  0
  150.4623  141.5521  156.1638 C   0  0  0  0  0  0  0  0  0  0  0  0
  151.0769  140.4406  156.6826 C   0  0  0  0  0  0  0  0  0  0  0  0
  151.9552  140.8068  158.1400 S   0  0  0  0  0  0  0  0  0  0  0  0
  151.4464  142.4937  158.0000 C   0  0  0  0  0  0  0  0  0  0  0  0
  151.8105  143.5914  158.9705 C   0  0  0  0  0  0  0  0  0  0  0  0
  150.5298  144.2208  159.5528 C   0  0  0  0  0  0  0  0  0  0  0  0
  152.6043  144.7170  158.2728 C   0  0  0  0  0  0  0  0  0  0  0  0
  152.6958  143.0210  160.0950 C   0  0  0  0  0  0  0  0  0  0  0  0
  150.6742  142.7041  156.9275 N   0  0  0  0  0  0  0  0  0  0  0  0
  146.8053  138.7855  152.1298 C   0  0  0  0  0  0  0  0  0  0  0  0
  145.8060  137.6296  151.9551 C   0  0  0  0  0  0  0  0  0  0  0  0
  144.4353  135.3871  152.7988 H   0  0  0  0  0  0  0  0  0  0  0  0
  145.8467  134.3224  152.7778 H   0  0  0  0  0  0  0  0  0  0  0  0
  145.2884  135.0688  151.2834 H   0  0  0  0  0  0  0  0  0  0  0  0
  145.6482  136.8136  154.5702 H   0  0  0  0  0  0  0  0  0  0  0  0
  146.9686  135.6647  154.4758 H   0  0  0  0  0  0  0  0  0  0  0  0
  147.7567  137.8717  155.3352 H   0  0  0  0  0  0  0  0  0  0  0  0
  148.5587  137.4339  153.8457 H   0  0  0  0  0  0  0  0  0  0  0  0
  146.1947  139.3446  154.1247 H   0  0  0  0  0  0  0  0  0  0  0  0
  148.5841  140.3998  152.9512 H   0  0  0  0  0  0  0  0  0  0  0  0
  150.2484  141.4481  154.0267 H   0  0  0  0  0  0  0  0  0  0  0  0
  149.2052  142.6196  154.7960 H   0  0  0  0  0  0  0  0  0  0  0  0
  151.0724  139.4335  156.2924 H   0  0  0  0  0  0  0  0  0  0  0  0
  150.7635  145.0307  160.2449 H   0  0  0  0  0  0  0  0  0  0  0  0
  149.9370  143.4879  160.1013 H   0  0  0  0  0  0  0  0  0  0  0  0
  149.8969  144.6322  158.7656 H   0  0  0  0  0  0  0  0  0  0  0  0
  152.0290  145.1751  157.4672 H   0  0  0  0  0  0  0  0  0  0  0  0
  153.5387  144.3482  157.8479 H   0  0  0  0  0  0  0  0  0  0  0  0
  152.8636  145.5113  158.9735 H   0  0  0  0  0  0  0  0  0  0  0  0
  152.9873  143.7957  160.8050 H   0  0  0  0  0  0  0  0  0  0  0  0
  153.6096  142.5806  159.6943 H   0  0  0  0  0  0  0  0  0  0  0  0
  152.1764  142.2444  160.6574 H   0  0  0  0  0  0  0  0  0  0  0  0
  146.4013  139.6888  151.6715 H   0  0  0  0  0  0  0  0  0  0  0  0
  147.7272  138.5535  151.5946 H   0  0  0  0  0  0  0  0  0  0  0  0
  145.6436  137.4474  150.8921 H   0  0  0  0  0  0  0  0  0  0  0  0
  144.8392  137.9022  152.3816 H   0  0  0  0  0  0  0  0  0  0  0  0
  147.1882  136.1733  152.1669 H   0  0  0  0  0  0  0  0  0  0  0  0
  1  2  1  0  0  0  0
  1 21  1  0  0  0  0
  1 22  1  0  0  0  0
  1 23  1  0  0  0  0
  2 20  1  0  0  0  0
  2  3  1  0  0  0  0
  2 46  1  0  0  0  0
  3  4  1  0  0  0  0
  3 24  1  0  0  0  0
  3 25  1  0  0  0  0
  4  5  1  0  0  0  0
  4 26  1  0  0  0  0
  4 27  1  0  0  0  0
  5  6  1  0  0  0  0
  5 19  1  0  0  0  0
  5 28  1  0  0  0  0
  6  7  1  0  0  0  0
  6 29  1  0  0  0  0
  7  8  2  0  0  0  0
  7  9  1  0  0  0  0
  9 10  1  0  0  0  0
  9 30  1  0  0  0  0
  9 31  1  0  0  0  0
 10 18  1  0  0  0  0
 10 11  2  0  0  0  0
 11 12  1  0  0  0  0
 11 32  1  0  0  0  0
 12 13  1  0  0  0  0
 13 14  1  0  0  0  0
 13 18  2  0  0  0  0
 14 15  1  0  0  0  0
 14 16  1  0  0  0  0
 14 17  1  0  0  0  0
 15 33  1  0  0  0  0
 15 34  1  0  0  0  0
 15 35  1  0  0  0  0
 16 36  1  0  0  0  0
 16 37  1  0  0  0  0
 16 38  1  0  0  0  0
 17 39  1  0  0  0  0
 17 40  1  0  0  0  0
 17 41  1  0  0  0  0
 19 20  1  0  0  0  0
 19 42  1  0  0  0  0
 19 43  1  0  0  0  0
 20 44  1  0  0  0  0
 20 45  1  0  0  0  0
M  CHG  1   2   1
M  END
> <s_m_source_file>
AV-unprocessed.smi

> <i_m_source_file_index>
1125

> <i_lp_mmshare_version>
43012

> <i_f3d_flags>
0

> <s_epik_input>
W0NIM11OMVtDSDJdW0NIMl1bQ0hdKFtDSDJdW0NIMl0xKVtOSF1DKD1PKVtDSDJdYzJbY0hdc2MobjIpQyhbQ0gzXSkoW0NIM10pW0NIM10=

> <s_epik_cmdline>
J2VwaWtfcHl0aG9uJywgJy1waCcsICc3LjAnLCAnLXRuJywgJzgnLCAnLW1hJywgJzIwMCcsICctbWV0YWxfYmluZGluZycsICctaW1hZScsICc8aW5maWxlLm1hZT4nLCAnLW9tYWUnLCAnPG91dGZpbGUubWFlPic=

> <r_epik_Ionization_Penalty>
0.00829478

> <r_epik_Ionization_Penalty_Charging>
0.0082618

> <r_epik_Ionization_Penalty_Neutral>
3.29858e-05

> <r_epik_State_Penalty>
0.00621662

> <r_epik_Charging_Adjusted_Penalty>
0.0144784

> <i_epik_Tot_Q>
1

> <i_epik_Tot_abs_Q>
1

> <r_epik_Metal_State_Penalty>
0.00621672

> <b_epik_Metal_Only>
0

> <s_lp_Force_Field>
OPLS_2005

> <r_lp_Energy>
7.4161

> <b_lp_Chiralities_Consistent>
1

> <s_lp_Variant>
AV-unprocessed.smi:1125-1

> <Gold.Version>
5.8.1

> <Gold.Id.Protein>
6NUR|6NUR_protein|mol2

> <Gold.PLP.Fitness>
45.3022

> <Gold.PLP.PLP>
-37.1974

> <Gold.PLP.part.hbond>
-2.0000

> <Gold.PLP.part.metal>
0.0000

> <Gold.PLP.part.buried>
-1.0318

> <Gold.PLP.part.nonpolar>
-35.1629

> <Gold.PLP.part.repulsive>
0.9109

> <Gold.PLP.ligand.clash>
0.0000

> <Gold.PLP.ligand.torsion>
0.4437

> <Gold.PLP.Chemscore.Hbond>
2.9913

> <Gold.PLP.Chemscore.CHOScore>
0.0000

> <Gold.PLP.Chemscore.Metal>
0.0000

> <Gold.Chemscore.Hbonds>
donor molecule, donor type, donor heavy atom, donor atom, acceptor molecule, acceptor atom, score
      L1  H     2    46       P1  7948  2.00
      L1  H     6    29       P1  7957  0.84

> <Gold.PLP.Chemscore.Internal.Correction>
0.0185

> <Gold.Rescore>
     Score         DG    S(hbond)    S(metal)    S(lipo)     H(rot)  DE(clash)    DE(int)     intcor
     20.57     -21.21       1.88        0.00     111.42       1.40       0.30       0.35       ----

> <Gold.Chemscore.Fitness>
20.5707

> <Gold.Chemscore.DG>
-21.2142

> <Gold.Chemscore.ZeroCoef>
-5.4800

> <Gold.Chemscore.Hbond>
1.8832

> <Gold.Chemscore.Metal>
0.0000

> <Gold.Chemscore.Lipo>
111.4180

> <Gold.Chemscore.Internal_Hbond>
0.0000

> <Gold.Chemscore.DEClash>
0.2961

> <Gold.Chemscore.DEInternal>
0.3474

> <Gold.Chemscore.Rot>
1.4030

> <Gold.Chemscore.Internal.Correction>
   9.000000E+99

> <Gold.Chemscore.Hbonds>
donor molecule, donor type, donor heavy atom, donor atom, acceptor molecule, acceptor atom, score
      L1  H     2    46       P1  7948  1.00
      L1  H     6    29       P1  7957  0.80

> <Gold.Chemscore.Hbond.Weighted>
-6.2900

> <Gold.Chemscore.Metal.Weighted>
-0.0000

> <Gold.Chemscore.Lipo.Weighted>
-13.0359

> <Gold.Chemscore.Internal_Hbond.Weighted>
0.0000

> <Gold.Chemscore.DEClash.Weighted>
0.2961

> <Gold.Chemscore.DEInternal.Weighted>
0.3474

> <Gold.Chemscore.Rot.Weighted>
3.5917

> <Gold.Chemscore.Internal.Correction.Weighted>
   9.000000E+99

> <Gold.Protein.RotatedTorsions>
[ 6907 6896 6895 6894 ] final  147.45 input  -60.11 | X-H torsion
[ 7974 7965 7964 7962 ] final -176.66 input  175.53 | X-H torsion
[ 8008 7997 7996 7995 ] final  -11.01 input   59.86 | X-H torsion
[ 10167 10162 10161 10158 ] final  -74.75 input  -65.29 | X-H torsion
[ 10718 10713 10712 10709 ] final  148.48 input   66.30 | X-H torsion
[ 10763 10752 10751 10750 ] final  -93.06 input  -60.55 | X-H torsion
[ 11005 11000 10999 10996 ] final   37.76 input  -57.11 | X-H torsion

> <Gold.Protein.ActiveResidues>
 VAL166  LYS551  ARG553  GLY616  TRP617  ASP618  TYR619  PRO620  LYS621  CYS622 
 ASP623  PHE694  ASN695  SER759  ASP760  ASP761  ALA762  ILE779  LEU786  VAL792 
 PHE793  MET794  SER795  GLU796  ALA797  LYS798  CYS799  TRP800  GLU811  SER814 

> <Gold.Protein.RotatedAtoms>
  152.1546  133.4543  159.4830 H   0  0  0  0  0  0  0  0  0  0  0  0  # atno 6907 bound_to 6896
  150.6899  134.2147  159.4382 H   0  0  0  0  0  0  0  0  0  0  0  0  # atno 6908 bound_to 6896
  152.0046  134.9909  160.0617 H   0  0  0  0  0  0  0  0  0  0  0  0  # atno 6909 bound_to 6896
  144.7127  140.1136  143.6409 H   0  0  0  0  0  0  0  0  0  0  0  0  # atno 7974 bound_to 7965
  154.5503  140.2314  155.8496 H   0  0  0  0  0  0  0  0  0  0  0  0  # atno 8008 bound_to 7997
  156.1940  140.3070  155.9351 H   0  0  0  0  0  0  0  0  0  0  0  0  # atno 8009 bound_to 7997
  155.3084  140.0434  157.3024 H   0  0  0  0  0  0  0  0  0  0  0  0  # atno 8010 bound_to 7997
  140.5001  143.2363  151.7766 H   0  0  0  0  0  0  0  0  0  0  0  0  # atno 10167 bound_to 10162
  157.3081  131.0883  151.1338 H   0  0  0  0  0  0  0  0  0  0  0  0  # atno 10718 bound_to 10713
  154.6922  135.5208  153.8408 H   0  0  0  0  0  0  0  0  0  0  0  0  # atno 10763 bound_to 10752
  153.0640  135.6578  154.0405 H   0  0  0  0  0  0  0  0  0  0  0  0  # atno 10764 bound_to 10752
  154.0278  135.2988  155.3352 H   0  0  0  0  0  0  0  0  0  0  0  0  # atno 10765 bound_to 10752
  140.2193  134.3660  155.8012 H   0  0  0  0  0  0  0  0  0  0  0  0  # atno 11005 bound_to 11000
  145.9432  139.2683  143.1256 LP  0  0  0  0  0  0  0  0  0  0  0  0  # atno 17320 bound_to 7965
  145.9401  140.8986  143.0312 LP  0  0  0  0  0  0  0  0  0  0  0  0  # atno 17321 bound_to 7965
  139.4870  144.4533  151.9628 LP  0  0  0  0  0  0  0  0  0  0  0  0  # atno 17342 bound_to 10162
  140.3622  144.2959  150.5932 LP  0  0  0  0  0  0  0  0  0  0  0  0  # atno 17343 bound_to 10162
  157.2671  130.6686  149.6002 LP  0  0  0  0  0  0  0  0  0  0  0  0  # atno 17370 bound_to 10713
  155.9676  130.4490  150.5644 LP  0  0  0  0  0  0  0  0  0  0  0  0  # atno 17371 bound_to 10713
  141.2223  133.7185  156.8549 LP  0  0  0  0  0  0  0  0  0  0  0  0  # atno 17394 bound_to 11000
  140.1866  134.8995  157.3012 LP  0  0  0  0  0  0  0  0  0  0  0  0  # atno 17395 bound_to 11000

$$$$
