AV-unprocessed.smi:1686|AV-procd|sdf|6765|dock6
  -GOLD-   22720 7523D 1   1.00000     0.00000
 Structure written by MMmdl.
 41 43  0  0  0  0  0  0  0  0  1 V2000
  144.4872  140.9686  159.3210 C   0  0  0  0  0  0  0  0  0  0  0  0
  144.5765  141.2592  157.8505 C   0  0  0  0  0  0  0  0  0  0  0  0
  143.9758  140.4438  156.9936 N   0  0  0  0  0  0  0  0  0  0  0  0
  144.2366  140.9524  155.7160 O   0  0  0  0  0  0  0  0  0  0  0  0
  144.9898  142.0641  155.8784 C   0  0  0  0  0  0  0  0  0  0  0  0
  145.5447  143.0021  154.5487 Cl  0  0  0  0  0  0  0  0  0  0  0  0
  145.2460  142.3327  157.1920 C   0  0  0  0  0  0  0  0  0  0  0  0
  146.0382  143.4649  157.8008 C   0  0  0  0  0  0  0  0  0  0  0  0
  147.2613  142.9554  158.5726 C   0  0  0  0  0  0  0  0  0  0  0  0
  147.1679  142.5798  159.7424 O   0  0  0  0  0  0  0  0  0  0  0  0
  148.4167  142.9608  157.8896 N   0  0  0  0  0  0  0  0  0  0  0  0
  149.7237  142.5445  158.3969 C   0  0  1  0  0  0  0  0  0  0  0  0
  150.1843  141.3083  157.6094 C   0  0  0  0  0  0  0  0  0  0  0  0
  150.7233  143.7221  158.2898 C   0  0  1  0  0  0  0  0  0  0  0  0
  150.4873  144.8748  159.2940 C   0  0  0  0  0  0  0  0  0  0  0  0
  151.8870  145.1073  159.8920 C   0  0  1  0  0  0  0  0  0  0  0  0
  152.2148  143.9565  160.8607 C   0  0  0  0  0  0  0  0  0  0  0  0
  152.4726  142.7759  159.9068 C   0  0  0  0  0  0  0  0  0  0  0  0
  152.2210  143.3967  158.5171 C   0  0  2  0  0  0  0  0  0  0  0  0
  152.7992  144.7951  158.7113 C   0  0  0  0  0  0  0  0  0  0  0  0
  145.1488  141.6156  159.8969 H   0  0  0  0  0  0  0  0  0  0  0  0
  144.7703  139.9379  159.5358 H   0  0  0  0  0  0  0  0  0  0  0  0
  143.4721  141.1195  159.6882 H   0  0  0  0  0  0  0  0  0  0  0  0
  146.3801  144.1607  157.0338 H   0  0  0  0  0  0  0  0  0  0  0  0
  145.4200  144.0497  158.4826 H   0  0  0  0  0  0  0  0  0  0  0  0
  148.3912  143.2879  156.9347 H   0  0  0  0  0  0  0  0  0  0  0  0
  149.6278  142.2505  159.4421 H   0  0  0  0  0  0  0  0  0  0  0  0
  151.1256  140.9188  157.9969 H   0  0  0  0  0  0  0  0  0  0  0  0
  150.3281  141.5395  156.5535 H   0  0  0  0  0  0  0  0  0  0  0  0
  149.4501  140.5048  157.6782 H   0  0  0  0  0  0  0  0  0  0  0  0
  150.6343  144.1350  157.2828 H   0  0  0  0  0  0  0  0  0  0  0  0
  150.1272  145.7645  158.7764 H   0  0  0  0  0  0  0  0  0  0  0  0
  149.7604  144.6280  160.0685 H   0  0  0  0  0  0  0  0  0  0  0  0
  152.0174  146.0975  160.3297 H   0  0  0  0  0  0  0  0  0  0  0  0
  153.1083  144.1801  161.4450 H   0  0  0  0  0  0  0  0  0  0  0  0
  151.4005  143.7574  161.5584 H   0  0  0  0  0  0  0  0  0  0  0  0
  153.5084  142.4446  159.9912 H   0  0  0  0  0  0  0  0  0  0  0  0
  151.8422  141.9135  160.1189 H   0  0  0  0  0  0  0  0  0  0  0  0
  152.6748  142.8350  157.7002 H   0  0  0  0  0  0  0  0  0  0  0  0
  152.6416  145.4548  157.8562 H   0  0  0  0  0  0  0  0  0  0  0  0
  153.8592  144.7950  158.9719 H   0  0  0  0  0  0  0  0  0  0  0  0
  1  2  1  0  0  0  0
  1 21  1  0  0  0  0
  1 22  1  0  0  0  0
  1 23  1  0  0  0  0
  2  7  1  0  0  0  0
  2  3  2  0  0  0  0
  3  4  1  0  0  0  0
  4  5  1  0  0  0  0
  5  6  1  0  0  0  0
  5  7  2  0  0  0  0
  7  8  1  0  0  0  0
  8  9  1  0  0  0  0
  8 24  1  0  0  0  0
  8 25  1  0  0  0  0
  9 10  2  0  0  0  0
  9 11  1  0  0  0  0
 11 12  1  0  0  0  0
 11 26  1  0  0  0  0
 12 13  1  0  0  0  0
 12 14  1  0  0  0  0
 12 27  1  0  0  0  0
 13 28  1  0  0  0  0
 13 29  1  0  0  0  0
 13 30  1  0  0  0  0
 14 19  1  0  0  0  0
 14 15  1  0  0  0  0
 14 31  1  0  0  0  0
 15 16  1  0  0  0  0
 15 32  1  0  0  0  0
 15 33  1  0  0  0  0
 16 20  1  0  0  0  0
 16 17  1  0  0  0  0
 16 34  1  0  0  0  0
 17 18  1  0  0  0  0
 17 35  1  0  0  0  0
 17 36  1  0  0  0  0
 18 19  1  0  0  0  0
 18 37  1  0  0  0  0
 18 38  1  0  0  0  0
 19 20  1  0  0  0  0
 19 39  1  0  0  0  0
 20 40  1  0  0  0  0
 20 41  1  0  0  0  0
M  END
> <s_m_source_file>
AV-unprocessed.smi

> <i_m_source_file_index>
1686

> <i_lp_mmshare_version>
43012

> <i_f3d_flags>
0

> <s_epik_input>
W0NIM11jMW5vYyhDbCljMVtDSDJdQyg9TylbTkhdW0NASF0oW0NIM10pW0NASF0oW0NIMl1bQ0BIXTIzKVtDQEhdKFtDSDJdMylbQ0gyXVtDSDJdMg==

> <s_epik_cmdline>
J2VwaWtfcHl0aG9uJywgJy1waCcsICc3LjAnLCAnLXRuJywgJzgnLCAnLW1hJywgJzIwMCcsICctbWV0YWxfYmluZGluZycsICctaW1hZScsICc8aW5maWxlLm1hZT4nLCAnLW9tYWUnLCAnPG91dGZpbGUubWFlPic=

> <r_lp_tautomer_probability>
1

> <r_epik_Ionization_Penalty>
2.01576e-08

> <r_epik_Ionization_Penalty_Charging>
0

> <r_epik_Ionization_Penalty_Neutral>
2.01576e-08

> <r_epik_State_Penalty>
-0

> <r_epik_Charging_Adjusted_Penalty>
0

> <i_epik_Tot_Q>
0

> <i_epik_Tot_abs_Q>
0

> <r_epik_Metal_State_Penalty>
-0

> <b_epik_Metal_Only>
0

> <s_lp_Force_Field>
OPLS_2005

> <r_lp_Energy>
47.064

> <b_lp_Chiralities_Consistent>
1

> <s_lp_Variant>
AV-unprocessed.smi:1686-8

> <Gold.Version>
5.8.1

> <Gold.Id.Protein>
6NUR|6NUR_protein|mol2

> <Gold.PLP.Fitness>
41.4725

> <Gold.PLP.PLP>
-35.9433

> <Gold.PLP.part.hbond>
-3.8511

> <Gold.PLP.part.metal>
0.0000

> <Gold.PLP.part.buried>
-3.7147

> <Gold.PLP.part.nonpolar>
-29.0015

> <Gold.PLP.part.repulsive>
0.2740

> <Gold.PLP.ligand.clash>
0.0000

> <Gold.PLP.ligand.torsion>
0.5035

> <Gold.PLP.Chemscore.Hbond>
2.1706

> <Gold.PLP.Chemscore.CHOScore>
0.0000

> <Gold.PLP.Chemscore.Metal>
0.0000

> <Gold.Chemscore.Hbonds>
donor molecule, donor type, donor heavy atom, donor atom, acceptor molecule, acceptor atom, score
      L1  H    11    26       P1  8028  0.93
      P1  H  6933  6944       L1    10  0.45
      P1  H  6934  6946       L1    10  0.77

> <Gold.PLP.Chemscore.Internal.Correction>
0.0242

> <Gold.Rescore>
     Score         DG    S(hbond)    S(metal)    S(lipo)     H(rot)  DE(clash)    DE(int)     intcor
     18.20     -18.67       1.59        0.00      99.23       1.46       0.02       0.44       ----

> <Gold.Chemscore.Fitness>
18.1974

> <Gold.Chemscore.DG>
-18.6652

> <Gold.Chemscore.ZeroCoef>
-5.4800

> <Gold.Chemscore.Hbond>
1.5945

> <Gold.Chemscore.Metal>
0.0000

> <Gold.Chemscore.Lipo>
99.2267

> <Gold.Chemscore.Internal_Hbond>
0.0000

> <Gold.Chemscore.DEClash>
0.0237

> <Gold.Chemscore.DEInternal>
0.4440

> <Gold.Chemscore.Rot>
1.4648

> <Gold.Chemscore.Internal.Correction>
   9.000000E+99

> <Gold.Chemscore.Hbonds>
donor molecule, donor type, donor heavy atom, donor atom, acceptor molecule, acceptor atom, score
      L1  H    11    26       P1  8028  0.23
      P1  H  6933  6944       L1    10  0.45
      P1  H  6934  6946       L1    10  0.76

> <Gold.Chemscore.Hbond.Weighted>
-5.3256

> <Gold.Chemscore.Metal.Weighted>
-0.0000

> <Gold.Chemscore.Lipo.Weighted>
-11.6095

> <Gold.Chemscore.Internal_Hbond.Weighted>
0.0000

> <Gold.Chemscore.DEClash.Weighted>
0.0237

> <Gold.Chemscore.DEInternal.Weighted>
0.4440

> <Gold.Chemscore.Rot.Weighted>
3.7500

> <Gold.Chemscore.Internal.Correction.Weighted>
   9.000000E+99

> <Gold.Protein.RotatedTorsions>
[ 6907 6896 6895 6894 ] final -140.05 input  -60.11 | X-H torsion
[ 7974 7965 7964 7962 ] final   57.52 input  175.53 | X-H torsion
[ 8008 7997 7996 7995 ] final  -95.03 input   59.86 | X-H torsion
[ 10167 10162 10161 10158 ] final  -83.42 input  -65.29 | X-H torsion
[ 10718 10713 10712 10709 ] final   49.25 input   66.30 | X-H torsion
[ 10763 10752 10751 10750 ] final  132.15 input  -60.55 | X-H torsion
[ 11005 11000 10999 10996 ] final  150.18 input  -57.11 | X-H torsion

> <Gold.Protein.ActiveResidues>
 VAL166  LYS551  ARG553  GLY616  TRP617  ASP618  TYR619  PRO620  LYS621  CYS622 
 ASP623  PHE694  ASN695  SER759  ASP760  ASP761  ALA762  ILE779  LEU786  VAL792 
 PHE793  MET794  SER795  GLU796  ALA797  LYS798  CYS799  TRP800  GLU811  SER814 

> <Gold.Protein.RotatedAtoms>
  151.0557  133.5587  159.2638 H   0  0  0  0  0  0  0  0  0  0  0  0  # atno 6907 bound_to 6896
  151.2581  135.0644  159.9097 H   0  0  0  0  0  0  0  0  0  0  0  0  # atno 6908 bound_to 6896
  152.5389  134.0306  159.8077 H   0  0  0  0  0  0  0  0  0  0  0  0  # atno 6909 bound_to 6896
  145.9281  139.3785  143.0438 H   0  0  0  0  0  0  0  0  0  0  0  0  # atno 7974 bound_to 7965
  154.7561  140.0484  157.0934 H   0  0  0  0  0  0  0  0  0  0  0  0  # atno 8008 bound_to 7997
  154.9996  140.3123  155.4853 H   0  0  0  0  0  0  0  0  0  0  0  0  # atno 8009 bound_to 7997
  156.2895  140.2204  156.5105 H   0  0  0  0  0  0  0  0  0  0  0  0  # atno 8010 bound_to 7997
  140.4229  143.2578  151.8866 H   0  0  0  0  0  0  0  0  0  0  0  0  # atno 10167 bound_to 10162
  157.4768  130.8290  149.8049 H   0  0  0  0  0  0  0  0  0  0  0  0  # atno 10718 bound_to 10713
  153.7860  135.3162  155.3372 H   0  0  0  0  0  0  0  0  0  0  0  0  # atno 10763 bound_to 10752
  154.8144  135.4646  154.0605 H   0  0  0  0  0  0  0  0  0  0  0  0  # atno 10764 bound_to 10752
  153.1908  135.6908  153.8441 H   0  0  0  0  0  0  0  0  0  0  0  0  # atno 10765 bound_to 10752
  140.1109  134.8925  157.1934 H   0  0  0  0  0  0  0  0  0  0  0  0  # atno 11005 bound_to 11000
  145.8462  140.9554  143.0773 LP  0  0  0  0  0  0  0  0  0  0  0  0  # atno 17320 bound_to 7965
  144.6761  140.0348  143.7482 LP  0  0  0  0  0  0  0  0  0  0  0  0  # atno 17321 bound_to 7965
  139.4783  144.5418  151.8516 LP  0  0  0  0  0  0  0  0  0  0  0  0  # atno 17342 bound_to 10162
  140.4514  144.1850  150.5898 LP  0  0  0  0  0  0  0  0  0  0  0  0  # atno 17343 bound_to 10162
  156.0101  130.3837  150.2294 LP  0  0  0  0  0  0  0  0  0  0  0  0  # atno 17370 bound_to 10713
  157.0479  131.0054  151.3263 LP  0  0  0  0  0  0  0  0  0  0  0  0  # atno 17371 bound_to 10713
  140.3092  134.3043  155.7271 LP  0  0  0  0  0  0  0  0  0  0  0  0  # atno 17394 bound_to 11000
  141.2130  133.7640  156.9753 LP  0  0  0  0  0  0  0  0  0  0  0  0  # atno 17395 bound_to 11000

$$$$
