AV-unprocessed.smi:1629|AV-procd|sdf|6524|dock3
  -GOLD-   22720 7203D 1   1.00000     0.00000
 Structure written by MMmdl.
 44 45  0  0  0  0  0  0  0  0  3 V2000
  147.0894  135.4687  160.0148 C   0  0  0  0  0  0  0  0  0  0  0  0
  148.1275  136.4571  158.8665 S   0  0  0  0  0  0  0  0  0  0  0  0
  147.1902  137.2945  158.1006 O   0  0  0  0  0  0  0  0  0  0  0  0
  149.1118  137.1508  159.7127 O   0  0  0  0  0  0  0  0  0  0  0  0
  148.7916  135.2771  157.9741 N   0  5  0  0  0  0  0  0  0  0  0  0
  149.7892  135.6062  156.9663 C   0  0  0  0  0  0  0  0  0  0  0  0
  150.9187  136.4861  157.5683 C   0  0  0  0  0  0  0  0  0  0  0  0
  151.8754  137.0762  156.4956 C   0  0  0  0  0  0  0  0  0  0  0  0
  151.1194  137.8564  155.4911 N   0  0  0  0  0  0  0  0  0  0  0  0
  151.1268  139.2030  155.3299 C   0  0  0  0  0  0  0  0  0  0  0  0
  150.6615  139.7687  154.3393 O   0  0  0  0  0  0  0  0  0  0  0  0
  151.6837  139.8866  156.3440 N   0  0  0  0  0  0  0  0  0  0  0  0
  151.7851  141.3387  156.4254 C   0  0  0  0  0  0  0  0  0  0  0  0
  150.6024  141.9454  157.1995 C   0  0  0  0  0  0  0  0  0  0  0  0
  151.0434  143.0294  158.1630 C   0  0  0  0  0  0  0  0  0  0  0  0
  151.9030  142.7629  159.2508 C   0  0  0  0  0  0  0  0  0  0  0  0
  152.2684  143.8168  160.1144 C   0  0  0  0  0  0  0  0  0  0  0  0
  151.7664  145.1124  159.8731 C   0  0  0  0  0  0  0  0  0  0  0  0
  150.9097  145.3217  158.7731 C   0  0  0  0  0  0  0  0  0  0  0  0
  150.5827  144.2862  157.9687 N   0  3  0  0  0  0  0  0  0  0  0  0
  150.1623  136.9772  154.7941 C   0  0  0  0  0  0  0  0  0  0  0  0
  149.1318  136.3842  155.7959 C   0  0  0  0  0  0  0  0  0  0  0  0
  146.5743  136.1389  160.7023 H   0  0  0  0  0  0  0  0  0  0  0  0
  147.7225  134.7853  160.5797 H   0  0  0  0  0  0  0  0  0  0  0  0
  146.3562  134.8999  159.4439 H   0  0  0  0  0  0  0  0  0  0  0  0
  150.2462  134.7099  156.5449 H   0  0  0  0  0  0  0  0  0  0  0  0
  150.4795  137.3105  158.1326 H   0  0  0  0  0  0  0  0  0  0  0  0
  151.4992  135.9044  158.2848 H   0  0  0  0  0  0  0  0  0  0  0  0
  152.6538  137.6525  156.9949 H   0  0  0  0  0  0  0  0  0  0  0  0
  152.4146  136.2763  155.9831 H   0  0  0  0  0  0  0  0  0  0  0  0
  152.0491  139.3567  157.1221 H   0  0  0  0  0  0  0  0  0  0  0  0
  152.7234  141.5825  156.9244 H   0  0  0  0  0  0  0  0  0  0  0  0
  151.8461  141.7646  155.4224 H   0  0  0  0  0  0  0  0  0  0  0  0
  149.8720  142.3666  156.5075 H   0  0  0  0  0  0  0  0  0  0  0  0
  150.0811  141.1662  157.7577 H   0  0  0  0  0  0  0  0  0  0  0  0
  152.2773  141.7641  159.4237 H   0  0  0  0  0  0  0  0  0  0  0  0
  152.9253  143.6331  160.9520 H   0  0  0  0  0  0  0  0  0  0  0  0
  152.0344  145.9331  160.5225 H   0  0  0  0  0  0  0  0  0  0  0  0
  150.4793  146.2782  158.5145 H   0  0  0  0  0  0  0  0  0  0  0  0
  149.6271  137.5005  154.0009 H   0  0  0  0  0  0  0  0  0  0  0  0
  150.7121  136.1816  154.2864 H   0  0  0  0  0  0  0  0  0  0  0  0
  148.4407  135.7298  155.2633 H   0  0  0  0  0  0  0  0  0  0  0  0
  148.5287  137.2025  156.1928 H   0  0  0  0  0  0  0  0  0  0  0  0
  149.9615  144.4603  157.1782 H   0  0  0  0  0  0  0  0  0  0  0  0
  1  2  1  0  0  0  0
  1 23  1  0  0  0  0
  1 24  1  0  0  0  0
  1 25  1  0  0  0  0
  2  3  2  0  0  0  0
  2  4  2  0  0  0  0
  2  5  1  0  0  0  0
  5  6  1  0  0  0  0
  6 22  1  0  0  0  0
  6  7  1  0  0  0  0
  6 26  1  0  0  0  0
  7  8  1  0  0  0  0
  7 27  1  0  0  0  0
  7 28  1  0  0  0  0
  8  9  1  0  0  0  0
  8 29  1  0  0  0  0
  8 30  1  0  0  0  0
  9 10  1  0  0  0  0
  9 21  1  0  0  0  0
 10 11  2  0  0  0  0
 10 12  1  0  0  0  0
 12 13  1  0  0  0  0
 12 31  1  0  0  0  0
 13 14  1  0  0  0  0
 13 32  1  0  0  0  0
 13 33  1  0  0  0  0
 14 15  1  0  0  0  0
 14 34  1  0  0  0  0
 14 35  1  0  0  0  0
 15 20  1  0  0  0  0
 15 16  2  0  0  0  0
 16 17  1  0  0  0  0
 16 36  1  0  0  0  0
 17 18  2  0  0  0  0
 17 37  1  0  0  0  0
 18 19  1  0  0  0  0
 18 38  1  0  0  0  0
 19 20  2  0  0  0  0
 19 39  1  0  0  0  0
 20 44  1  0  0  0  0
 21 22  1  0  0  0  0
 21 40  1  0  0  0  0
 21 41  1  0  0  0  0
 22 42  1  0  0  0  0
 22 43  1  0  0  0  0
M  CHG  1   5  -1
M  CHG  1  20   1
M  END
> <s_m_source_file>
AV-unprocessed.smi

> <i_m_source_file_index>
1629

> <i_lp_mmshare_version>
43012

> <i_f3d_flags>
0

> <s_epik_input>
W0NIM11TKD1PKSg9TylbTkhdW0NIXTFbQ0gyXVtDSDJdTihbQ0gyXVtDSDJdMSlDKD1PKVtOSF1bQ0gyXVtDSDJdYzJbY0hdW2NIXVtjSF1bY0hdbjI=

> <s_epik_cmdline>
J2VwaWtfcHl0aG9uJywgJy1waCcsICc3LjAnLCAnLXRuJywgJzgnLCAnLW1hJywgJzIwMCcsICctbWV0YWxfYmluZGluZycsICctaW1hZScsICc8aW5maWxlLm1hZT4nLCAnLW9tYWUnLCAnPG91dGZpbGUubWFlPic=

> <r_epik_Ionization_Penalty>
8.25917

> <r_epik_Ionization_Penalty_Charging>
8.2591

> <r_epik_Ionization_Penalty_Neutral>
6.17235e-05

> <r_epik_State_Penalty>
8.35449

> <r_epik_Charging_Adjusted_Penalty>
16.6136

> <i_epik_Tot_Q>
0

> <i_epik_Tot_abs_Q>
2

> <r_epik_Metal_State_Penalty>
4.3175

> <b_epik_Metal_Only>
1

> <s_lp_Force_Field>
OPLS_2005

> <r_lp_Energy>
28.7999

> <b_lp_Chiralities_Consistent>
1

> <s_lp_Variant>
AV-unprocessed.smi:1629-4

> <Gold.Version>
5.8.1

> <Gold.Id.Protein>
6NUR|6NUR_protein|mol2

> <Gold.PLP.Fitness>
48.5113

> <Gold.PLP.PLP>
-35.2406

> <Gold.PLP.part.hbond>
-4.0658

> <Gold.PLP.part.metal>
0.0000

> <Gold.PLP.part.buried>
-6.7231

> <Gold.PLP.part.nonpolar>
-25.5941

> <Gold.PLP.part.repulsive>
0.3376

> <Gold.PLP.ligand.clash>
0.0000

> <Gold.PLP.ligand.torsion>
1.3630

> <Gold.PLP.Chemscore.Hbond>
4.9840

> <Gold.PLP.Chemscore.CHOScore>
0.0000

> <Gold.PLP.Chemscore.Metal>
0.0000

> <Gold.Chemscore.Hbonds>
donor molecule, donor type, donor heavy atom, donor atom, acceptor molecule, acceptor atom, score
      L1  H    20    44       P1  8028  2.00
      P1  H  6931  6943       L1     4  0.01
      P1  H  7989  7998       L1    11  1.00

> <Gold.PLP.Chemscore.Internal.Correction>
1.0445

> <Gold.Rescore>
     Score         DG    S(hbond)    S(metal)    S(lipo)     H(rot)  DE(clash)    DE(int)     intcor
     15.02     -19.63       2.13        0.00      98.85       1.77       1.99       2.62       ----

> <Gold.Chemscore.Fitness>
15.0225

> <Gold.Chemscore.DG>
-19.6274

> <Gold.Chemscore.ZeroCoef>
-5.4800

> <Gold.Chemscore.Hbond>
2.1267

> <Gold.Chemscore.Metal>
0.0000

> <Gold.Chemscore.Lipo>
98.8481

> <Gold.Chemscore.Internal_Hbond>
0.0000

> <Gold.Chemscore.DEClash>
1.9858

> <Gold.Chemscore.DEInternal>
2.6191

> <Gold.Chemscore.Rot>
1.7661

> <Gold.Chemscore.Internal.Correction>
   9.000000E+99

> <Gold.Chemscore.Hbonds>
donor molecule, donor type, donor heavy atom, donor atom, acceptor molecule, acceptor atom, score
      L1  H    20    44       P1  8028  0.45
      P1  H  6931  6943       L1     4  0.03
      P1  H  7989  7998       L1    11  0.97

> <Gold.Chemscore.Hbond.Weighted>
-7.1033

> <Gold.Chemscore.Metal.Weighted>
-0.0000

> <Gold.Chemscore.Lipo.Weighted>
-11.5652

> <Gold.Chemscore.Internal_Hbond.Weighted>
0.0000

> <Gold.Chemscore.DEClash.Weighted>
1.9858

> <Gold.Chemscore.DEInternal.Weighted>
2.6191

> <Gold.Chemscore.Rot.Weighted>
4.5211

> <Gold.Chemscore.Internal.Correction.Weighted>
   9.000000E+99

> <Gold.Protein.RotatedTorsions>
[ 6907 6896 6895 6894 ] final   21.32 input  -60.11 | X-H torsion
[ 7974 7965 7964 7962 ] final -175.38 input  175.53 | X-H torsion
[ 8008 7997 7996 7995 ] final -172.61 input   59.86 | X-H torsion
[ 10167 10162 10161 10158 ] final -173.91 input  -65.29 | X-H torsion
[ 10718 10713 10712 10709 ] final  -87.98 input   66.30 | X-H torsion
[ 10763 10752 10751 10750 ] final  -54.14 input  -60.55 | X-H torsion
[ 11005 11000 10999 10996 ] final -125.13 input  -57.11 | X-H torsion

> <Gold.Protein.ActiveResidues>
 VAL166  LYS551  ARG553  GLY616  TRP617  ASP618  TYR619  PRO620  LYS621  CYS622 
 ASP623  PHE694  ASN695  SER759  ASP760  ASP761  ALA762  ILE779  LEU786  VAL792 
 PHE793  MET794  SER795  GLU796  ALA797  LYS798  CYS799  TRP800  GLU811  SER814 

> <Gold.Protein.RotatedAtoms>
  151.9100  135.0343  160.0513 H   0  0  0  0  0  0  0  0  0  0  0  0  # atno 6907 bound_to 6896
  152.2287  133.5037  159.5212 H   0  0  0  0  0  0  0  0  0  0  0  0  # atno 6908 bound_to 6896
  150.7019  134.1161  159.4060 H   0  0  0  0  0  0  0  0  0  0  0  0  # atno 6909 bound_to 6896
  144.7128  140.1330  143.6397 H   0  0  0  0  0  0  0  0  0  0  0  0  # atno 7974 bound_to 7965
  155.9468  140.1119  157.1010 H   0  0  0  0  0  0  0  0  0  0  0  0  # atno 8008 bound_to 7997
  154.4101  140.1208  156.5066 H   0  0  0  0  0  0  0  0  0  0  0  0  # atno 8009 bound_to 7997
  155.6892  140.3472  155.4889 H   0  0  0  0  0  0  0  0  0  0  0  0  # atno 8010 bound_to 7997
  139.5662  144.1750  152.1316 H   0  0  0  0  0  0  0  0  0  0  0  0  # atno 10167 bound_to 10162
  155.9984  130.4819  150.4949 H   0  0  0  0  0  0  0  0  0  0  0  0  # atno 10718 bound_to 10713
  154.1701  135.6460  153.5007 H   0  0  0  0  0  0  0  0  0  0  0  0  # atno 10763 bound_to 10752
  153.0086  135.5381  154.6621 H   0  0  0  0  0  0  0  0  0  0  0  0  # atno 10764 bound_to 10752
  154.5958  135.2939  155.0559 H   0  0  0  0  0  0  0  0  0  0  0  0  # atno 10765 bound_to 10752
  140.9786  134.0705  157.3790 H   0  0  0  0  0  0  0  0  0  0  0  0  # atno 11005 bound_to 11000
  145.9270  139.2581  143.1348 LP  0  0  0  0  0  0  0  0  0  0  0  0  # atno 17320 bound_to 7965
  145.9562  140.8871  143.0234 LP  0  0  0  0  0  0  0  0  0  0  0  0  # atno 17321 bound_to 7965
  140.1273  144.5320  150.6824 LP  0  0  0  0  0  0  0  0  0  0  0  0  # atno 17342 bound_to 10162
  140.6946  143.2396  151.5038 LP  0  0  0  0  0  0  0  0  0  0  0  0  # atno 17343 bound_to 10162
  157.2940  131.0632  151.2114 LP  0  0  0  0  0  0  0  0  0  0  0  0  # atno 17370 bound_to 10713
  157.3117  130.6893  149.6219 LP  0  0  0  0  0  0  0  0  0  0  0  0  # atno 17371 bound_to 10713
  139.8941  135.0134  156.6932 LP  0  0  0  0  0  0  0  0  0  0  0  0  # atno 17394 bound_to 11000
  140.7221  133.9132  155.8153 LP  0  0  0  0  0  0  0  0  0  0  0  0  # atno 17395 bound_to 11000

$$$$
