AV-unprocessed.smi:2027|AV-procd|sdf|8214|dock8
  -GOLD-   2272010483D 1   1.00000     0.00000
 Structure written by MMmdl.
 50 52  0  0  0  0  0  0  0  0  2 V2000
  152.7931  142.3214  161.1027 C   0  0  0  0  0  0  0  0  0  0  0  0
  152.4725  141.6358  159.7861 C   0  0  0  0  0  0  0  0  0  0  0  0
  151.4350  142.1520  158.9774 C   0  0  0  0  0  0  0  0  0  0  0  0
  151.1074  141.5457  157.7450 C   0  0  0  0  0  0  0  0  0  0  0  0
  150.1469  141.8802  156.8059 N   0  0  0  0  0  0  0  0  0  0  0  0
  150.3368  140.9427  155.8823 C   0  0  0  0  0  0  0  0  0  0  0  0
  151.3085  140.0387  156.1116 N   0  0  0  0  0  0  0  0  0  0  0  0
  151.6961  138.9356  155.2507 C   0  0  0  0  0  0  0  0  0  0  0  0
  150.5073  138.0268  154.8823 C   0  0  1  0  0  0  0  0  0  0  0  0
  150.1554  138.2331  153.5267 O   0  0  0  0  0  0  0  0  0  0  0  0
  150.8435  136.5374  155.0795 C   0  0  0  0  0  0  0  0  0  0  0  0
  149.6707  135.6664  154.8000 N   0  3  2  0  0  0  0  0  0  0  0  0
  148.4658  136.0711  155.5604 C   0  0  0  0  0  0  0  0  0  0  0  0
  149.9585  134.2170  154.9388 C   0  0  0  0  0  0  0  0  0  0  0  0
  148.9897  133.3914  154.1343 C   0  0  0  0  0  0  0  0  0  0  0  0
  148.9526  131.9742  153.9926 C   0  0  0  0  0  0  0  0  0  0  0  0
  147.9832  131.5623  153.1931 N   0  0  0  0  0  0  0  0  0  0  0  0
  147.3613  132.6951  152.8068 N   0  0  0  0  0  0  0  0  0  0  0  0
  146.2303  132.6176  151.9071 C   0  0  0  0  0  0  0  0  0  0  0  0
  147.9436  133.8137  153.3624 C   0  0  0  0  0  0  0  0  0  0  0  0
  151.8504  140.3980  157.3414 C   0  0  0  0  0  0  0  0  0  0  0  0
  152.8841  139.8741  158.1381 C   0  0  0  0  0  0  0  0  0  0  0  0
  153.2003  140.4938  159.3651 C   0  0  0  0  0  0  0  0  0  0  0  0
  154.3215  139.9239  160.2159 C   0  0  0  0  0  0  0  0  0  0  0  0
  152.1265  143.1648  161.2849 H   0  0  0  0  0  0  0  0  0  0  0  0
  153.8161  142.6984  161.0977 H   0  0  0  0  0  0  0  0  0  0  0  0
  152.6838  141.6244  161.9339 H   0  0  0  0  0  0  0  0  0  0  0  0
  150.8811  143.0223  159.2972 H   0  0  0  0  0  0  0  0  0  0  0  0
  149.7356  140.9115  154.9853 H   0  0  0  0  0  0  0  0  0  0  0  0
  152.1617  139.3428  154.3521 H   0  0  0  0  0  0  0  0  0  0  0  0
  152.4661  138.3577  155.7634 H   0  0  0  0  0  0  0  0  0  0  0  0
  149.6513  138.3014  155.4995 H   0  0  0  0  0  0  0  0  0  0  0  0
  149.6766  137.4784  153.2182 H   0  0  0  0  0  0  0  0  0  0  0  0
  151.6817  136.2866  154.4292 H   0  0  0  0  0  0  0  0  0  0  0  0
  151.1971  136.3542  156.0952 H   0  0  0  0  0  0  0  0  0  0  0  0
  148.6085  135.9140  156.6304 H   0  0  0  0  0  0  0  0  0  0  0  0
  147.5976  135.4916  155.2443 H   0  0  0  0  0  0  0  0  0  0  0  0
  148.2317  137.1230  155.3981 H   0  0  0  0  0  0  0  0  0  0  0  0
  150.9917  134.0248  154.6456 H   0  0  0  0  0  0  0  0  0  0  0  0
  149.8886  133.9368  155.9907 H   0  0  0  0  0  0  0  0  0  0  0  0
  149.6057  131.2377  154.4374 H   0  0  0  0  0  0  0  0  0  0  0  0
  145.7233  133.5819  151.8601 H   0  0  0  0  0  0  0  0  0  0  0  0
  145.5244  131.8646  152.2594 H   0  0  0  0  0  0  0  0  0  0  0  0
  146.5737  132.3476  150.9083 H   0  0  0  0  0  0  0  0  0  0  0  0
  147.5746  134.8081  153.1576 H   0  0  0  0  0  0  0  0  0  0  0  0
  153.4313  139.0043  157.8065 H   0  0  0  0  0  0  0  0  0  0  0  0
  154.7734  139.0500  159.7458 H   0  0  0  0  0  0  0  0  0  0  0  0
  153.9441  139.6205  161.1927 H   0  0  0  0  0  0  0  0  0  0  0  0
  155.1052  140.6675  160.3627 H   0  0  0  0  0  0  0  0  0  0  0  0
  149.4497  135.8041  153.8237 H   0  0  0  0  0  0  0  0  0  0  0  0
  1  2  1  0  0  0  0
  1 25  1  0  0  0  0
  1 26  1  0  0  0  0
  1 27  1  0  0  0  0
  2 23  1  0  0  0  0
  2  3  2  0  0  0  0
  3  4  1  0  0  0  0
  3 28  1  0  0  0  0
  4 21  2  0  0  0  0
  4  5  1  0  0  0  0
  5  6  2  0  0  0  0
  6  7  1  0  0  0  0
  6 29  1  0  0  0  0
  7  8  1  0  0  0  0
  7 21  1  0  0  0  0
  8  9  1  0  0  0  0
  8 30  1  0  0  0  0
  8 31  1  0  0  0  0
  9 10  1  0  0  0  0
  9 11  1  0  0  0  0
  9 32  1  0  0  0  0
 10 33  1  0  0  0  0
 11 12  1  0  0  0  0
 11 34  1  0  0  0  0
 11 35  1  0  0  0  0
 12 13  1  0  0  0  0
 12 14  1  0  0  0  0
 12 50  1  0  0  0  0
 13 36  1  0  0  0  0
 13 37  1  0  0  0  0
 13 38  1  0  0  0  0
 14 15  1  0  0  0  0
 14 39  1  0  0  0  0
 14 40  1  0  0  0  0
 15 20  2  0  0  0  0
 15 16  1  0  0  0  0
 16 17  2  0  0  0  0
 16 41  1  0  0  0  0
 17 18  1  0  0  0  0
 18 19  1  0  0  0  0
 18 20  1  0  0  0  0
 19 42  1  0  0  0  0
 19 43  1  0  0  0  0
 19 44  1  0  0  0  0
 20 45  1  0  0  0  0
 21 22  1  0  0  0  0
 22 23  2  0  0  0  0
 22 46  1  0  0  0  0
 23 24  1  0  0  0  0
 24 47  1  0  0  0  0
 24 48  1  0  0  0  0
 24 49  1  0  0  0  0
M  CHG  1  12   1
M  END
> <s_m_source_file>
AV-unprocessed.smi

> <i_m_source_file_index>
2027

> <i_lp_mmshare_version>
43012

> <i_f3d_flags>
0

> <s_epik_input>
W0NIM11jKFtjSF0xKWMoW0NIM10pW2NIXWMoYzEyKW4oW2NIXW4yKVtDSDJdW0NASF0oW09IXSlbQ0gyXU4oW0NIM10pW0NIMl1jM1tjSF1ubihbQ0gzXSlbY0hdMw==

> <s_epik_cmdline>
J2VwaWtfcHl0aG9uJywgJy1waCcsICc3LjAnLCAnLXRuJywgJzgnLCAnLW1hJywgJzIwMCcsICctbWV0YWxfYmluZGluZycsICctaW1hZScsICc8aW5maWxlLm1hZT4nLCAnLW9tYWUnLCAnPG91dGZpbGUubWFlPic=

> <r_lp_tautomer_probability>
1

> <r_epik_Ionization_Penalty>
0.646578

> <r_epik_Ionization_Penalty_Charging>
0.559419

> <r_epik_Ionization_Penalty_Neutral>
0.087159

> <r_epik_State_Penalty>
0.661677

> <r_epik_Charging_Adjusted_Penalty>
1.2211

> <i_epik_Tot_Q>
1

> <i_epik_Tot_abs_Q>
1

> <r_epik_Metal_State_Penalty>
0.649174

> <b_epik_Metal_Only>
0

> <s_lp_Force_Field>
OPLS_2005

> <r_lp_Energy>
10.2185

> <b_lp_Chiralities_Consistent>
1

> <s_lp_Variant>
AV-unprocessed.smi:2027-6

> <Gold.Version>
5.8.1

> <Gold.Id.Protein>
6NUR|6NUR_protein|mol2

> <Gold.PLP.Fitness>
56.9667

> <Gold.PLP.PLP>
-46.9993

> <Gold.PLP.part.hbond>
-3.9989

> <Gold.PLP.part.metal>
0.0000

> <Gold.PLP.part.buried>
-0.8447

> <Gold.PLP.part.nonpolar>
-42.2961

> <Gold.PLP.part.repulsive>
0.5804

> <Gold.PLP.ligand.clash>
0.0000

> <Gold.PLP.ligand.torsion>
0.9040

> <Gold.PLP.Chemscore.Hbond>
3.0000

> <Gold.PLP.Chemscore.CHOScore>
0.8669

> <Gold.PLP.Chemscore.Metal>
0.0000

> <Gold.Chemscore.Hbonds>
donor molecule, donor type, donor heavy atom, donor atom, acceptor molecule, acceptor atom, score
      L1  H    10    33       P1  7948  1.00
      L1  H    12    50       P1  7948  1.98
      L1  C    20    45       P1  7948  0.72

> <Gold.PLP.Chemscore.Internal.Correction>
0.1748

> <Gold.Rescore>
     Score         DG    S(hbond)    S(metal)    S(lipo)     H(rot)  DE(clash)    DE(int)     intcor
     16.20     -17.35       1.85        0.00     103.38       2.50       0.24       0.91       ----

> <Gold.Chemscore.Fitness>
16.2017

> <Gold.Chemscore.DG>
-17.3545

> <Gold.Chemscore.ZeroCoef>
-5.4800

> <Gold.Chemscore.Hbond>
1.8537

> <Gold.Chemscore.Metal>
0.0000

> <Gold.Chemscore.Lipo>
103.3776

> <Gold.Chemscore.Internal_Hbond>
0.0000

> <Gold.Chemscore.DEClash>
0.2446

> <Gold.Chemscore.DEInternal>
0.9083

> <Gold.Chemscore.Rot>
2.5047

> <Gold.Chemscore.Internal.Correction>
   9.000000E+99

> <Gold.Chemscore.Hbonds>
donor molecule, donor type, donor heavy atom, donor atom, acceptor molecule, acceptor atom, score
      L1  H    10    33       P1  7948  0.68
      L1  H    12    50       P1  7948  0.46

> <Gold.Chemscore.Hbond.Weighted>
-6.1914

> <Gold.Chemscore.Metal.Weighted>
-0.0000

> <Gold.Chemscore.Lipo.Weighted>
-12.0952

> <Gold.Chemscore.Internal_Hbond.Weighted>
0.0000

> <Gold.Chemscore.DEClash.Weighted>
0.2446

> <Gold.Chemscore.DEInternal.Weighted>
0.9083

> <Gold.Chemscore.Rot.Weighted>
6.4120

> <Gold.Chemscore.Internal.Correction.Weighted>
   9.000000E+99

> <Gold.Protein.RotatedTorsions>
[ 6907 6896 6895 6894 ] final  -47.62 input  -60.11 | X-H torsion
[ 7974 7965 7964 7962 ] final -122.26 input  175.53 | X-H torsion
[ 8008 7997 7996 7995 ] final  -96.46 input   59.86 | X-H torsion
[ 10167 10162 10161 10158 ] final  162.63 input  -65.29 | X-H torsion
[ 10718 10713 10712 10709 ] final  -12.11 input   66.30 | X-H torsion
[ 10763 10752 10751 10750 ] final   28.41 input  -60.55 | X-H torsion
[ 11005 11000 10999 10996 ] final -158.79 input  -57.11 | X-H torsion

> <Gold.Protein.ActiveResidues>
 VAL166  LYS551  ARG553  GLY616  TRP617  ASP618  TYR619  PRO620  LYS621  CYS622 
 ASP623  PHE694  ASN695  SER759  ASP760  ASP761  ALA762  ILE779  LEU786  VAL792 
 PHE793  MET794  SER795  GLU796  ALA797  LYS798  CYS799  TRP800  GLU811  SER814 

> <Gold.Protein.RotatedAtoms>
  150.8989  134.8400  159.7345 H   0  0  0  0  0  0  0  0  0  0  0  0  # atno 6907 bound_to 6896
  152.4881  134.4533  159.9591 H   0  0  0  0  0  0  0  0  0  0  0  0  # atno 6908 bound_to 6896
  151.4587  133.3559  159.2841 H   0  0  0  0  0  0  0  0  0  0  0  0  # atno 6909 bound_to 6896
  145.0313  140.8070  143.4322 H   0  0  0  0  0  0  0  0  0  0  0  0  # atno 7974 bound_to 7965
  154.7748  140.0471  157.1080 H   0  0  0  0  0  0  0  0  0  0  0  0  # atno 8008 bound_to 7997
  154.9776  140.3097  155.4940 H   0  0  0  0  0  0  0  0  0  0  0  0  # atno 8009 bound_to 7997
  156.2927  140.2242  156.4873 H   0  0  0  0  0  0  0  0  0  0  0  0  # atno 8010 bound_to 7997
  139.4863  144.4418  151.8942 H   0  0  0  0  0  0  0  0  0  0  0  0  # atno 10167 bound_to 10162
  156.6493  130.4950  149.6067 H   0  0  0  0  0  0  0  0  0  0  0  0  # atno 10718 bound_to 10713
  153.0493  135.6514  154.0734 H   0  0  0  0  0  0  0  0  0  0  0  0  # atno 10763 bound_to 10752
  154.0425  135.2902  155.3354 H   0  0  0  0  0  0  0  0  0  0  0  0  # atno 10764 bound_to 10752
  154.6772  135.5334  153.8281 H   0  0  0  0  0  0  0  0  0  0  0  0  # atno 10765 bound_to 10752
  140.6497  134.4463  157.5235 H   0  0  0  0  0  0  0  0  0  0  0  0  # atno 11005 bound_to 11000
  145.1766  139.2374  143.5314 LP  0  0  0  0  0  0  0  0  0  0  0  0  # atno 17320 bound_to 7965
  146.3499  140.1530  142.8592 LP  0  0  0  0  0  0  0  0  0  0  0  0  # atno 17321 bound_to 7965
  140.3870  144.2664  150.5903 LP  0  0  0  0  0  0  0  0  0  0  0  0  # atno 17342 bound_to 10162
  140.5181  143.2273  151.8432 LP  0  0  0  0  0  0  0  0  0  0  0  0  # atno 17343 bound_to 10162
  156.2097  130.6671  151.1256 LP  0  0  0  0  0  0  0  0  0  0  0  0  # atno 17370 bound_to 10713
  157.7146  131.0716  150.6375 LP  0  0  0  0  0  0  0  0  0  0  0  0  # atno 17371 bound_to 10713
  139.9050  134.8469  156.1742 LP  0  0  0  0  0  0  0  0  0  0  0  0  # atno 17394 bound_to 11000
  141.0546  133.6872  156.1835 LP  0  0  0  0  0  0  0  0  0  0  0  0  # atno 17395 bound_to 11000

$$$$
