AV-unprocessed.smi:2217|AV-procd|sdf|8969|dock3
  -GOLD-   2272012183D 1   1.00000     0.00000
 Structure written by MMmdl.
 45 48  0  0  0  0  0  0  0  0  1 V2000
  142.8771  145.7047  154.4852 C   0  0  0  0  0  0  0  0  0  0  0  0
  144.0224  144.7259  154.6369 C   0  0  0  0  0  0  0  0  0  0  0  0
  144.7960  144.3324  153.5289 C   0  0  0  0  0  0  0  0  0  0  0  0
  145.8528  143.4230  153.7279 C   0  0  0  0  0  0  0  0  0  0  0  0
  146.1153  142.9275  155.0253 C   0  0  0  0  0  0  0  0  0  0  0  0
  147.2137  142.0198  155.0996 N   0  0  0  0  0  0  0  0  0  0  0  0
  147.9562  141.5984  156.1460 C   0  0  0  0  0  0  0  0  0  0  0  0
  147.7328  141.9978  157.2876 O   0  0  0  0  0  0  0  0  0  0  0  0
  148.9330  140.7241  155.8642 N   0  0  0  0  0  0  0  0  0  0  0  0
  149.8283  140.1085  156.8479 C   0  0  1  0  0  0  0  0  0  0  0  0
  150.8322  139.1238  156.2410 C   0  0  1  0  0  0  0  0  0  0  0  0
  150.9162  138.3342  154.9848 C   0  0  0  0  0  0  0  0  0  0  0  0
  152.4195  138.5859  154.6944 C   0  0  0  0  0  0  0  0  0  0  0  0
  152.8416  139.6083  155.6321 O   0  0  0  0  0  0  0  0  0  0  0  0
  151.6619  140.3433  155.8960 C   0  0  2  0  0  0  0  0  0  0  0  0
  151.1014  140.9732  157.1935 C   0  0  0  0  0  0  0  0  0  0  0  0
  150.9416  142.4991  157.2142 C   0  0  0  0  0  0  0  0  0  0  0  0
  151.9314  143.0549  158.2335 C   0  0  0  0  0  0  0  0  0  0  0  0
  152.0152  141.9617  159.2885 C   0  0  0  0  0  0  0  0  0  0  0  0
  151.8567  140.6608  158.5012 C   0  0  0  0  0  0  0  0  0  0  0  0
  145.3611  143.3159  156.0856 N   0  0  0  0  0  0  0  0  0  0  0  0
  144.3482  144.1868  155.8956 C   0  0  0  0  0  0  0  0  0  0  0  0
  142.5407  145.7587  153.4492 H   0  0  0  0  0  0  0  0  0  0  0  0
  143.1907  146.7011  154.7975 H   0  0  0  0  0  0  0  0  0  0  0  0
  142.0303  145.4016  155.1015 H   0  0  0  0  0  0  0  0  0  0  0  0
  144.5880  144.7193  152.5422 H   0  0  0  0  0  0  0  0  0  0  0  0
  146.4564  143.1128  152.8872 H   0  0  0  0  0  0  0  0  0  0  0  0
  147.5116  141.6557  154.2064 H   0  0  0  0  0  0  0  0  0  0  0  0
  149.0532  140.4481  154.8996 H   0  0  0  0  0  0  0  0  0  0  0  0
  149.3151  139.7243  157.7308 H   0  0  0  0  0  0  0  0  0  0  0  0
  151.2723  138.5413  157.0570 H   0  0  0  0  0  0  0  0  0  0  0  0
  150.6851  137.2788  155.1303 H   0  0  0  0  0  0  0  0  0  0  0  0
  150.2762  138.7375  154.1991 H   0  0  0  0  0  0  0  0  0  0  0  0
  153.0192  137.6870  154.8402 H   0  0  0  0  0  0  0  0  0  0  0  0
  152.5640  138.9276  153.6686 H   0  0  0  0  0  0  0  0  0  0  0  0
  151.3348  140.8729  154.9952 H   0  0  0  0  0  0  0  0  0  0  0  0
  151.0961  142.9487  156.2326 H   0  0  0  0  0  0  0  0  0  0  0  0
  149.9294  142.7635  157.5233 H   0  0  0  0  0  0  0  0  0  0  0  0
  152.9069  143.1884  157.7639 H   0  0  0  0  0  0  0  0  0  0  0  0
  151.6212  144.0163  158.6441 H   0  0  0  0  0  0  0  0  0  0  0  0
  152.9418  141.9979  159.8619 H   0  0  0  0  0  0  0  0  0  0  0  0
  151.1855  142.0676  159.9884 H   0  0  0  0  0  0  0  0  0  0  0  0
  151.3466  139.9095  159.1047 H   0  0  0  0  0  0  0  0  0  0  0  0
  152.8455  140.2597  158.2764 H   0  0  0  0  0  0  0  0  0  0  0  0
  143.7839  144.4603  156.7751 H   0  0  0  0  0  0  0  0  0  0  0  0
  1  2  1  0  0  0  0
  1 23  1  0  0  0  0
  1 24  1  0  0  0  0
  1 25  1  0  0  0  0
  2 22  1  0  0  0  0
  2  3  2  0  0  0  0
  3  4  1  0  0  0  0
  3 26  1  0  0  0  0
  4  5  2  0  0  0  0
  4 27  1  0  0  0  0
  5  6  1  0  0  0  0
  5 21  1  0  0  0  0
  6  7  1  0  0  0  0
  6 28  1  0  0  0  0
  7  8  2  0  0  0  0
  7  9  1  0  0  0  0
  9 10  1  0  0  0  0
  9 29  1  0  0  0  0
 10 16  1  0  0  0  0
 10 11  1  0  0  0  0
 10 30  1  0  0  0  0
 11 15  1  0  0  0  0
 11 12  1  0  0  0  0
 11 31  1  0  0  0  0
 12 13  1  0  0  0  0
 12 32  1  0  0  0  0
 12 33  1  0  0  0  0
 13 14  1  0  0  0  0
 13 34  1  0  0  0  0
 13 35  1  0  0  0  0
 14 15  1  0  0  0  0
 15 16  1  0  0  0  0
 15 36  1  0  0  0  0
 16 20  1  0  0  0  0
 16 17  1  0  0  0  0
 17 18  1  0  0  0  0
 17 37  1  0  0  0  0
 17 38  1  0  0  0  0
 18 19  1  0  0  0  0
 18 39  1  0  0  0  0
 18 40  1  0  0  0  0
 19 20  1  0  0  0  0
 19 41  1  0  0  0  0
 19 42  1  0  0  0  0
 20 43  1  0  0  0  0
 20 44  1  0  0  0  0
 21 22  2  0  0  0  0
 22 45  1  0  0  0  0
M  END
> <s_m_source_file>
AV-unprocessed.smi

> <i_m_source_file_index>
2217

> <i_lp_mmshare_version>
43012

> <i_f3d_flags>
0

> <s_epik_input>
W0NIM11jMVtjSF1bY0hdYyhuW2NIXTEpW05IXUMoPU8pW05IXVtDQEBIXTJbQ0BASF0oW0NIMl1bQ0gyXU8zKVtDQEhdM0MyNFtDSDJdW0NIMl1bQ0gyXVtDSDJdNA==

> <s_epik_cmdline>
J2VwaWtfcHl0aG9uJywgJy1waCcsICc3LjAnLCAnLXRuJywgJzgnLCAnLW1hJywgJzIwMCcsICctbWV0YWxfYmluZGluZycsICctaW1hZScsICc8aW5maWxlLm1hZT4nLCAnLW9tYWUnLCAnPG91dGZpbGUubWFlPic=

> <r_lp_tautomer_probability>
1

> <r_epik_Ionization_Penalty>
6.14796e-05

> <r_epik_Ionization_Penalty_Charging>
0

> <r_epik_Ionization_Penalty_Neutral>
6.14796e-05

> <r_epik_State_Penalty>
-0

> <r_epik_Charging_Adjusted_Penalty>
0

> <i_epik_Tot_Q>
0

> <i_epik_Tot_abs_Q>
0

> <r_epik_Metal_State_Penalty>
-0

> <b_epik_Metal_Only>
0

> <s_lp_Force_Field>
OPLS_2005

> <r_lp_Energy>
82.2592

> <b_lp_Chiralities_Consistent>
1

> <s_lp_Variant>
AV-unprocessed.smi:2217-2

> <Gold.Version>
5.8.1

> <Gold.Id.Protein>
6NUR|6NUR_protein|mol2

> <Gold.PLP.Fitness>
42.2642

> <Gold.PLP.PLP>
-39.4913

> <Gold.PLP.part.hbond>
-1.6554

> <Gold.PLP.part.metal>
0.0000

> <Gold.PLP.part.buried>
-5.5756

> <Gold.PLP.part.nonpolar>
-33.3343

> <Gold.PLP.part.repulsive>
0.4148

> <Gold.PLP.ligand.clash>
0.0000

> <Gold.PLP.ligand.torsion>
0.2503

> <Gold.PLP.Chemscore.Hbond>
1.0000

> <Gold.PLP.Chemscore.CHOScore>
0.0000

> <Gold.PLP.Chemscore.Metal>
0.0000

> <Gold.Chemscore.Hbonds>
donor molecule, donor type, donor heavy atom, donor atom, acceptor molecule, acceptor atom, score
      P1  H  7997  8008       L1    14  1.00

> <Gold.PLP.Chemscore.Internal.Correction>
0.2736

> <Gold.Rescore>
     Score         DG    S(hbond)    S(metal)    S(lipo)     H(rot)  DE(clash)    DE(int)     intcor
     17.31     -18.59       0.99        0.00     105.63       1.00       0.10       1.18       ----

> <Gold.Chemscore.Fitness>
17.3102

> <Gold.Chemscore.DG>
-18.5912

> <Gold.Chemscore.ZeroCoef>
-5.4800

> <Gold.Chemscore.Hbond>
0.9916

> <Gold.Chemscore.Metal>
0.0000

> <Gold.Chemscore.Lipo>
105.6341

> <Gold.Chemscore.Internal_Hbond>
0.0000

> <Gold.Chemscore.DEClash>
0.1006

> <Gold.Chemscore.DEInternal>
1.1804

> <Gold.Chemscore.Rot>
1.0000

> <Gold.Chemscore.Internal.Correction>
   9.000000E+99

> <Gold.Chemscore.Hbonds>
donor molecule, donor type, donor heavy atom, donor atom, acceptor molecule, acceptor atom, score
      P1  H  7997  8008       L1    14  0.98

> <Gold.Chemscore.Hbond.Weighted>
-3.3120

> <Gold.Chemscore.Metal.Weighted>
-0.0000

> <Gold.Chemscore.Lipo.Weighted>
-12.3592

> <Gold.Chemscore.Internal_Hbond.Weighted>
0.0000

> <Gold.Chemscore.DEClash.Weighted>
0.1006

> <Gold.Chemscore.DEInternal.Weighted>
1.1804

> <Gold.Chemscore.Rot.Weighted>
2.5600

> <Gold.Chemscore.Internal.Correction.Weighted>
   9.000000E+99

> <Gold.Protein.RotatedTorsions>
[ 6907 6896 6895 6894 ] final -101.20 input  -60.11 | X-H torsion
[ 7974 7965 7964 7962 ] final  140.25 input  175.53 | X-H torsion
[ 8008 7997 7996 7995 ] final  -33.11 input   59.86 | X-H torsion
[ 10167 10162 10161 10158 ] final    5.33 input  -65.29 | X-H torsion
[ 10718 10713 10712 10709 ] final  -35.78 input   66.30 | X-H torsion
[ 10763 10752 10751 10750 ] final   30.73 input  -60.55 | X-H torsion
[ 11005 11000 10999 10996 ] final   54.19 input  -57.11 | X-H torsion

> <Gold.Protein.ActiveResidues>
 VAL166  LYS551  ARG553  GLY616  TRP617  ASP618  TYR619  PRO620  LYS621  CYS622 
 ASP623  PHE694  ASN695  SER759  ASP760  ASP761  ALA762  ILE779  LEU786  VAL792 
 PHE793  MET794  SER795  GLU796  ALA797  LYS798  CYS799  TRP800  GLU811  SER814 

> <Gold.Protein.RotatedAtoms>
  150.7145  134.0771  159.3884 H   0  0  0  0  0  0  0  0  0  0  0  0  # atno 6907 bound_to 6896
  151.8754  135.0471  160.0493 H   0  0  0  0  0  0  0  0  0  0  0  0  # atno 6908 bound_to 6896
  152.2610  133.5262  159.5418 H   0  0  0  0  0  0  0  0  0  0  0  0  # atno 6909 bound_to 6896
  144.9204  139.5175  143.5666 H   0  0  0  0  0  0  0  0  0  0  0  0  # atno 7974 bound_to 7965
  154.4159  140.1719  156.1834 H   0  0  0  0  0  0  0  0  0  0  0  0  # atno 8008 bound_to 7997
  155.9663  140.3389  155.6511 H   0  0  0  0  0  0  0  0  0  0  0  0  # atno 8009 bound_to 7997
  155.6684  140.0709  157.2520 H   0  0  0  0  0  0  0  0  0  0  0  0  # atno 8010 bound_to 7997
  140.6488  143.7597  150.7541 H   0  0  0  0  0  0  0  0  0  0  0  0  # atno 10167 bound_to 10162
  156.3345  130.4284  149.7842 H   0  0  0  0  0  0  0  0  0  0  0  0  # atno 10718 bound_to 10713
  153.0355  135.6456  154.1090 H   0  0  0  0  0  0  0  0  0  0  0  0  # atno 10763 bound_to 10752
  154.0806  135.2873  155.3292 H   0  0  0  0  0  0  0  0  0  0  0  0  # atno 10764 bound_to 10752
  154.6532  135.5418  153.7992 H   0  0  0  0  0  0  0  0  0  0  0  0  # atno 10765 bound_to 10752
  140.0706  134.5474  155.9050 H   0  0  0  0  0  0  0  0  0  0  0  0  # atno 11005 bound_to 11000
  146.3202  139.8079  142.8952 LP  0  0  0  0  0  0  0  0  0  0  0  0  # atno 17320 bound_to 7965
  145.3306  141.0265  143.3448 LP  0  0  0  0  0  0  0  0  0  0  0  0  # atno 17321 bound_to 7965
  140.1244  143.4583  152.2293 LP  0  0  0  0  0  0  0  0  0  0  0  0  # atno 17342 bound_to 10162
  139.5700  144.7457  151.3916 LP  0  0  0  0  0  0  0  0  0  0  0  0  # atno 17343 bound_to 10162
  156.5102  130.8168  151.3166 LP  0  0  0  0  0  0  0  0  0  0  0  0  # atno 17370 bound_to 10713
  157.7436  130.9916  150.2608 LP  0  0  0  0  0  0  0  0  0  0  0  0  # atno 17371 bound_to 10713
  141.2010  133.6616  156.5929 LP  0  0  0  0  0  0  0  0  0  0  0  0  # atno 17394 bound_to 11000
  140.3632  134.7669  157.4548 LP  0  0  0  0  0  0  0  0  0  0  0  0  # atno 17395 bound_to 11000

$$$$
