AV-unprocessed.smi:1302|AV-procd|sdf|5425|dock2
  -GOLD-   22720 4583D 1   1.00000     0.00000
 Structure written by MMmdl.
 43 44  0  0  0  0  0  0  0  0  1 V2000
  146.6865  139.2091  151.7010 C   0  0  0  0  0  0  0  0  0  0  0  0
  147.2539  138.2441  152.7539 C   0  0  0  0  0  0  0  0  0  0  0  0
  146.1403  137.4705  153.4719 C   0  0  0  0  0  0  0  0  0  0  0  0
  148.0495  138.9742  153.7363 N   0  0  0  0  0  0  0  0  0  0  0  0
  147.5632  139.8201  154.6600 C   0  0  0  0  0  0  0  0  0  0  0  0
  146.3692  140.1016  154.7653 O   0  0  0  0  0  0  0  0  0  0  0  0
  148.5867  140.4730  155.5433 C   0  0  0  0  0  0  0  0  0  0  0  0
  149.9502  140.4776  155.1827 C   0  0  0  0  0  0  0  0  0  0  0  0
  150.8803  141.1202  156.0221 C   0  0  0  0  0  0  0  0  0  0  0  0
  150.4246  141.7515  157.2035 C   0  0  0  0  0  0  0  0  0  0  0  0
  151.3402  142.3990  158.0613 N   0  0  0  0  0  0  0  0  0  0  0  0
  152.1588  141.5194  158.8915 C   0  0  0  0  0  0  0  0  0  0  0  0
  153.3161  142.3082  159.5329 C   0  0  2  0  0  0  0  0  0  0  0  0
  154.1245  141.4489  160.5107 C   0  0  0  0  0  0  0  0  0  0  0  0
  152.7868  143.4207  160.2487 O   0  0  0  0  0  0  0  0  0  0  0  0
  152.0860  144.3284  159.4031 C   0  0  2  0  0  0  0  0  0  0  0  0
  151.6440  145.5285  160.2468 C   0  0  0  0  0  0  0  0  0  0  0  0
  150.8904  143.5997  158.7627 C   0  0  0  0  0  0  0  0  0  0  0  0
  149.1109  141.7622  157.5389 N   0  0  0  0  0  0  0  0  0  0  0  0
  148.2230  141.1444  156.7317 C   0  0  0  0  0  0  0  0  0  0  0  0
  146.0976  138.6727  150.9569 H   0  0  0  0  0  0  0  0  0  0  0  0
  147.4842  139.7320  151.1724 H   0  0  0  0  0  0  0  0  0  0  0  0
  146.0410  139.9604  152.1576 H   0  0  0  0  0  0  0  0  0  0  0  0
  147.8903  137.5152  152.2490 H   0  0  0  0  0  0  0  0  0  0  0  0
  145.5462  136.8922  152.7636 H   0  0  0  0  0  0  0  0  0  0  0  0
  145.4646  138.1435  154.0008 H   0  0  0  0  0  0  0  0  0  0  0  0
  146.5540  136.7722  154.2006 H   0  0  0  0  0  0  0  0  0  0  0  0
  149.0479  138.8248  153.7116 H   0  0  0  0  0  0  0  0  0  0  0  0
  150.2875  139.9965  154.2759 H   0  0  0  0  0  0  0  0  0  0  0  0
  151.9232  141.1342  155.7426 H   0  0  0  0  0  0  0  0  0  0  0  0
  151.5263  141.0831  159.6660 H   0  0  0  0  0  0  0  0  0  0  0  0
  152.5701  140.6912  158.3161 H   0  0  0  0  0  0  0  0  0  0  0  0
  153.9886  142.6716  158.7537 H   0  0  0  0  0  0  0  0  0  0  0  0
  154.5646  140.5887  160.0060 H   0  0  0  0  0  0  0  0  0  0  0  0
  153.4969  141.0772  161.3212 H   0  0  0  0  0  0  0  0  0  0  0  0
  154.9365  142.0247  160.9556 H   0  0  0  0  0  0  0  0  0  0  0  0
  152.7604  144.6842  158.6222 H   0  0  0  0  0  0  0  0  0  0  0  0
  151.1078  146.2586  159.6400 H   0  0  0  0  0  0  0  0  0  0  0  0
  152.5042  146.0315  160.6890 H   0  0  0  0  0  0  0  0  0  0  0  0
  150.9853  145.2189  161.0588 H   0  0  0  0  0  0  0  0  0  0  0  0
  150.3863  144.2735  158.0686 H   0  0  0  0  0  0  0  0  0  0  0  0
  150.1668  143.3175  159.5289 H   0  0  0  0  0  0  0  0  0  0  0  0
  147.1922  141.1975  157.0507 H   0  0  0  0  0  0  0  0  0  0  0  0
  1  2  1  0  0  0  0
  1 21  1  0  0  0  0
  1 22  1  0  0  0  0
  1 23  1  0  0  0  0
  2  3  1  0  0  0  0
  2  4  1  0  0  0  0
  2 24  1  0  0  0  0
  3 25  1  0  0  0  0
  3 26  1  0  0  0  0
  3 27  1  0  0  0  0
  4  5  1  0  0  0  0
  4 28  1  0  0  0  0
  5  6  2  0  0  0  0
  5  7  1  0  0  0  0
  7 20  1  0  0  0  0
  7  8  2  0  0  0  0
  8  9  1  0  0  0  0
  8 29  1  0  0  0  0
  9 10  2  0  0  0  0
  9 30  1  0  0  0  0
 10 11  1  0  0  0  0
 10 19  1  0  0  0  0
 11 18  1  0  0  0  0
 11 12  1  0  0  0  0
 12 13  1  0  0  0  0
 12 31  1  0  0  0  0
 12 32  1  0  0  0  0
 13 14  1  0  0  0  0
 13 15  1  0  0  0  0
 13 33  1  0  0  0  0
 14 34  1  0  0  0  0
 14 35  1  0  0  0  0
 14 36  1  0  0  0  0
 15 16  1  0  0  0  0
 16 17  1  0  0  0  0
 16 18  1  0  0  0  0
 16 37  1  0  0  0  0
 17 38  1  0  0  0  0
 17 39  1  0  0  0  0
 17 40  1  0  0  0  0
 18 41  1  0  0  0  0
 18 42  1  0  0  0  0
 19 20  2  0  0  0  0
 20 43  1  0  0  0  0
M  END
> <s_m_source_file>
AV-unprocessed.smi

> <i_m_source_file_index>
1302

> <i_lp_mmshare_version>
43012

> <i_f3d_flags>
0

> <s_epik_input>
W0NIM11bQ0hdKFtDSDNdKVtOSF1DKD1PKWMxW2NIXVtjSF1jKG5bY0hdMSlOMltDSDJdW0NAQEhdKFtDSDNdKU9bQ0BASF0oW0NIM10pW0NIMl0y

> <s_epik_cmdline>
J2VwaWtfcHl0aG9uJywgJy1waCcsICc3LjAnLCAnLXRuJywgJzgnLCAnLW1hJywgJzIwMCcsICctbWV0YWxfYmluZGluZycsICctaW1hZScsICc8aW5maWxlLm1hZT4nLCAnLW9tYWUnLCAnPG91dGZpbGUubWFlPic=

> <r_lp_tautomer_probability>
1

> <r_epik_Ionization_Penalty>
2.23089e-05

> <r_epik_Ionization_Penalty_Charging>
0

> <r_epik_Ionization_Penalty_Neutral>
2.23089e-05

> <r_epik_State_Penalty>
-0

> <r_epik_Charging_Adjusted_Penalty>
0

> <i_epik_Tot_Q>
0

> <i_epik_Tot_abs_Q>
0

> <r_epik_Metal_State_Penalty>
-0

> <b_epik_Metal_Only>
0

> <s_lp_Force_Field>
OPLS_2005

> <r_lp_Energy>
16.9164

> <b_lp_Chiralities_Consistent>
1

> <s_lp_Variant>
AV-unprocessed.smi:1302-1

> <Gold.Version>
5.8.1

> <Gold.Id.Protein>
6NUR|6NUR_protein|mol2

> <Gold.PLP.Fitness>
38.3889

> <Gold.PLP.PLP>
-39.5542

> <Gold.PLP.part.hbond>
-1.0000

> <Gold.PLP.part.metal>
0.0000

> <Gold.PLP.part.buried>
-0.4062

> <Gold.PLP.part.nonpolar>
-37.9385

> <Gold.PLP.part.repulsive>
0.9739

> <Gold.PLP.ligand.clash>
0.0000

> <Gold.PLP.ligand.torsion>
0.7526

> <Gold.PLP.Chemscore.Hbond>
0.0000

> <Gold.PLP.Chemscore.CHOScore>
0.0000

> <Gold.PLP.Chemscore.Metal>
0.0000

> <Gold.PLP.Chemscore.Internal.Correction>
0.3399

> <Gold.Rescore>
     Score         DG    S(hbond)    S(metal)    S(lipo)     H(rot)  DE(clash)    DE(int)     intcor
     12.96     -14.98       0.00        0.00     106.39       1.15       0.09       1.93       ----

> <Gold.Chemscore.Fitness>
12.9598

> <Gold.Chemscore.DG>
-14.9815

> <Gold.Chemscore.ZeroCoef>
-5.4800

> <Gold.Chemscore.Hbond>
0.0000

> <Gold.Chemscore.Metal>
0.0000

> <Gold.Chemscore.Lipo>
106.3899

> <Gold.Chemscore.Internal_Hbond>
0.0000

> <Gold.Chemscore.DEClash>
0.0891

> <Gold.Chemscore.DEInternal>
1.9326

> <Gold.Chemscore.Rot>
1.1508

> <Gold.Chemscore.Internal.Correction>
   9.000000E+99

> <Gold.Chemscore.Hbond.Weighted>
-0.0000

> <Gold.Chemscore.Metal.Weighted>
-0.0000

> <Gold.Chemscore.Lipo.Weighted>
-12.4476

> <Gold.Chemscore.Internal_Hbond.Weighted>
0.0000

> <Gold.Chemscore.DEClash.Weighted>
0.0891

> <Gold.Chemscore.DEInternal.Weighted>
1.9326

> <Gold.Chemscore.Rot.Weighted>
2.9461

> <Gold.Chemscore.Internal.Correction.Weighted>
   9.000000E+99

> <Gold.Protein.RotatedTorsions>
[ 6907 6896 6895 6894 ] final   52.82 input  -60.11 | X-H torsion
[ 7974 7965 7964 7962 ] final  120.72 input  175.53 | X-H torsion
[ 8008 7997 7996 7995 ] final   11.65 input   59.86 | X-H torsion
[ 10167 10162 10161 10158 ] final -156.70 input  -65.29 | X-H torsion
[ 10718 10713 10712 10709 ] final  -51.50 input   66.30 | X-H torsion
[ 10763 10752 10751 10750 ] final   18.16 input  -60.55 | X-H torsion
[ 11005 11000 10999 10996 ] final -175.37 input  -57.11 | X-H torsion

> <Gold.Protein.ActiveResidues>
 VAL166  LYS551  ARG553  GLY616  TRP617  ASP618  TYR619  PRO620  LYS621  CYS622 
 ASP623  PHE694  ASN695  SER759  ASP760  ASP761  ALA762  ILE779  LEU786  VAL792 
 PHE793  MET794  SER795  GLU796  ALA797  LYS798  CYS799  TRP800  GLU811  SER814 

> <Gold.Protein.RotatedAtoms>
  152.3273  134.7304  160.0298 H   0  0  0  0  0  0  0  0  0  0  0  0  # atno 6907 bound_to 6896
  151.7732  133.3337  159.3458 H   0  0  0  0  0  0  0  0  0  0  0  0  # atno 6908 bound_to 6896
  150.7403  134.5930  159.6042 H   0  0  0  0  0  0  0  0  0  0  0  0  # atno 6909 bound_to 6896
  145.1278  139.3347  143.4680 H   0  0  0  0  0  0  0  0  0  0  0  0  # atno 7974 bound_to 7965
  154.8098  140.2866  155.5861 H   0  0  0  0  0  0  0  0  0  0  0  0  # atno 8008 bound_to 7997
  156.2987  140.2570  156.2913 H   0  0  0  0  0  0  0  0  0  0  0  0  # atno 8009 bound_to 7997
  154.9461  140.0380  157.2110 H   0  0  0  0  0  0  0  0  0  0  0  0  # atno 8010 bound_to 7997
  139.6829  143.9550  152.2346 H   0  0  0  0  0  0  0  0  0  0  0  0  # atno 10167 bound_to 10162
  156.1705  130.4149  149.9655 H   0  0  0  0  0  0  0  0  0  0  0  0  # atno 10718 bound_to 10713
  153.1274  135.6732  153.9235 H   0  0  0  0  0  0  0  0  0  0  0  0  # atno 10763 bound_to 10752
  153.8732  135.3067  155.3444 H   0  0  0  0  0  0  0  0  0  0  0  0  # atno 10764 bound_to 10752
  154.7677  135.4956  153.9667 H   0  0  0  0  0  0  0  0  0  0  0  0  # atno 10765 bound_to 10752
  140.4641  134.6227  157.4855 H   0  0  0  0  0  0  0  0  0  0  0  0  # atno 11005 bound_to 11000
  146.3516  140.1265  142.8598 LP  0  0  0  0  0  0  0  0  0  0  0  0  # atno 17320 bound_to 7965
  145.0668  140.9127  143.4905 LP  0  0  0  0  0  0  0  0  0  0  0  0  # atno 17321 bound_to 7965
  139.9345  144.6721  150.8329 LP  0  0  0  0  0  0  0  0  0  0  0  0  # atno 17342 bound_to 10162
  140.7658  143.3286  151.2460 LP  0  0  0  0  0  0  0  0  0  0  0  0  # atno 17343 bound_to 10162
  156.7456  130.9096  151.3634 LP  0  0  0  0  0  0  0  0  0  0  0  0  # atno 17370 bound_to 10713
  157.6799  130.9130  150.0241 LP  0  0  0  0  0  0  0  0  0  0  0  0  # atno 17371 bound_to 10713
  139.9927  134.6960  155.9663 LP  0  0  0  0  0  0  0  0  0  0  0  0  # atno 17394 bound_to 11000
  141.1608  133.6539  156.4311 LP  0  0  0  0  0  0  0  0  0  0  0  0  # atno 17395 bound_to 11000

$$$$
