AV-unprocessed.smi:1971|AV-procd|sdf|7973|dock1
  -GOLD-   2272010143D 1   1.00000     0.00000
 Structure written by MMmdl.
 42 43  0  0  0  0  0  0  0  0  2 V2000
  151.5178  145.4053  160.0437 C   0  0  0  0  0  0  0  0  0  0  0  0
  152.3840  144.1416  160.1428 C   0  0  0  0  0  0  0  0  0  0  0  0
  151.7431  142.9180  159.6652 N   0  0  0  0  0  0  0  0  0  0  0  0
  152.6368  141.7617  159.7123 C   0  0  0  0  0  0  0  0  0  0  0  0
  151.9435  140.4844  159.2021 C   0  0  0  0  0  0  0  0  0  0  0  0
  151.4609  140.6171  157.8186 N   0  0  0  0  0  0  0  0  0  0  0  0
  150.7851  139.3925  157.3268 C   0  0  1  0  0  0  0  0  0  0  0  0
  150.2440  139.5492  155.8827 C   0  0  0  0  0  0  0  0  0  0  0  0
  151.6821  138.1236  157.4003 C   0  0  0  0  0  0  0  0  0  0  0  0
  150.9978  136.9744  157.9912 N   0  0  0  0  0  0  0  0  0  0  0  0
  150.2077  136.9831  159.0750 C   0  0  0  0  0  0  0  0  0  0  0  0
  149.9899  138.0386  159.6743 O   0  0  0  0  0  0  0  0  0  0  0  0
  149.7276  135.7622  159.4043 N   0  5  0  0  0  0  0  0  0  0  0  0
  149.0998  135.5801  160.5774 C   0  0  0  0  0  0  0  0  0  0  0  0
  148.8870  136.5701  161.4518 N   0  0  0  0  0  0  0  0  0  0  0  0
  148.2095  136.1590  162.6012 C   0  0  0  0  0  0  0  0  0  0  0  0
  147.8910  134.8268  162.5979 C   0  0  0  0  0  0  0  0  0  0  0  0
  148.4343  134.0443  161.1415 S   0  0  0  0  0  0  0  0  0  0  0  0
  150.5863  141.7995  157.7747 C   0  0  0  0  0  0  0  0  0  0  0  0
  151.2879  143.0704  158.2868 C   0  0  0  0  0  0  0  0  0  0  0  0
  152.0975  146.2880  160.3142 H   0  0  0  0  0  0  0  0  0  0  0  0
  150.6593  145.3649  160.7135 H   0  0  0  0  0  0  0  0  0  0  0  0
  151.1492  145.5505  159.0280 H   0  0  0  0  0  0  0  0  0  0  0  0
  153.2854  144.3179  159.5544 H   0  0  0  0  0  0  0  0  0  0  0  0
  152.7197  144.0087  161.1723 H   0  0  0  0  0  0  0  0  0  0  0  0
  153.5319  141.9543  159.1189 H   0  0  0  0  0  0  0  0  0  0  0  0
  152.9717  141.5863  160.7341 H   0  0  0  0  0  0  0  0  0  0  0  0
  152.6749  139.6828  159.2783 H   0  0  0  0  0  0  0  0  0  0  0  0
  151.1163  140.2241  159.8644 H   0  0  0  0  0  0  0  0  0  0  0  0
  149.9225  139.2063  157.9686 H   0  0  0  0  0  0  0  0  0  0  0  0
  149.7644  138.6417  155.5191 H   0  0  0  0  0  0  0  0  0  0  0  0
  151.0452  139.7979  155.1861 H   0  0  0  0  0  0  0  0  0  0  0  0
  149.4765  140.3173  155.8053 H   0  0  0  0  0  0  0  0  0  0  0  0
  152.0860  137.8904  156.4138 H   0  0  0  0  0  0  0  0  0  0  0  0
  152.5403  138.2857  158.0492 H   0  0  0  0  0  0  0  0  0  0  0  0
  151.1432  136.0834  157.5399 H   0  0  0  0  0  0  0  0  0  0  0  0
  147.9944  136.8833  163.3726 H   0  0  0  0  0  0  0  0  0  0  0  0
  147.3721  134.2614  163.3570 H   0  0  0  0  0  0  0  0  0  0  0  0
  150.2711  142.0064  156.7539 H   0  0  0  0  0  0  0  0  0  0  0  0
  149.6810  141.6182  158.3561 H   0  0  0  0  0  0  0  0  0  0  0  0
  150.5951  143.9100  158.2192 H   0  0  0  0  0  0  0  0  0  0  0  0
  152.1312  143.3102  157.6369 H   0  0  0  0  0  0  0  0  0  0  0  0
  1  2  1  0  0  0  0
  1 21  1  0  0  0  0
  1 22  1  0  0  0  0
  1 23  1  0  0  0  0
  2  3  1  0  0  0  0
  2 24  1  0  0  0  0
  2 25  1  0  0  0  0
  3 20  1  0  0  0  0
  3  4  1  0  0  0  0
  4  5  1  0  0  0  0
  4 26  1  0  0  0  0
  4 27  1  0  0  0  0
  5  6  1  0  0  0  0
  5 28  1  0  0  0  0
  5 29  1  0  0  0  0
  6  7  1  0  0  0  0
  6 19  1  0  0  0  0
  7  8  1  0  0  0  0
  7  9  1  0  0  0  0
  7 30  1  0  0  0  0
  8 31  1  0  0  0  0
  8 32  1  0  0  0  0
  8 33  1  0  0  0  0
  9 10  1  0  0  0  0
  9 34  1  0  0  0  0
  9 35  1  0  0  0  0
 10 11  1  0  0  0  0
 10 36  1  0  0  0  0
 11 12  2  0  0  0  0
 11 13  1  0  0  0  0
 13 14  1  0  0  0  0
 14 18  1  0  0  0  0
 14 15  2  0  0  0  0
 15 16  1  0  0  0  0
 16 17  2  0  0  0  0
 16 37  1  0  0  0  0
 17 18  1  0  0  0  0
 17 38  1  0  0  0  0
 19 20  1  0  0  0  0
 19 39  1  0  0  0  0
 19 40  1  0  0  0  0
 20 41  1  0  0  0  0
 20 42  1  0  0  0  0
M  CHG  1  13  -1
M  END
> <s_m_source_file>
AV-unprocessed.smi

> <i_m_source_file_index>
1971

> <i_lp_mmshare_version>
43012

> <i_f3d_flags>
0

> <s_epik_input>
W0NIM11bQ0gyXU4xW0NIMl1bQ0gyXU4oW0NIMl1bQ0gyXTEpW0NASF0oW0NIM10pW0NIMl1bTkhdQyg9TylbTkhdYzJuW2NIXVtjSF1zMg==

> <s_epik_cmdline>
J2VwaWtfcHl0aG9uJywgJy1waCcsICc3LjAnLCAnLXRuJywgJzgnLCAnLW1hJywgJzIwMCcsICctbWV0YWxfYmluZGluZycsICctaW1hZScsICc8aW5maWxlLm1hZT4nLCAnLW9tYWUnLCAnPG91dGZpbGUubWFlPic=

> <r_lp_tautomer_probability>
0.999

> <r_epik_Ionization_Penalty>
9.52272

> <r_epik_Ionization_Penalty_Charging>
5.92713

> <r_epik_Ionization_Penalty_Neutral>
3.59559

> <r_epik_State_Penalty>
7.69531

> <r_epik_Charging_Adjusted_Penalty>
13.6224

> <i_epik_Tot_Q>
-1

> <i_epik_Tot_abs_Q>
1

> <r_epik_Metal_State_Penalty>
3.66212

> <b_epik_Metal_Only>
1

> <s_lp_Force_Field>
OPLS_2005

> <r_lp_Energy>
38.2579

> <b_lp_Chiralities_Consistent>
1

> <s_lp_Variant>
AV-unprocessed.smi:1971-12

> <Gold.Version>
5.8.1

> <Gold.Id.Protein>
6NUR|6NUR_protein|mol2

> <Gold.PLP.Fitness>
44.8537

> <Gold.PLP.PLP>
-37.6750

> <Gold.PLP.part.hbond>
-4.2544

> <Gold.PLP.part.metal>
0.0000

> <Gold.PLP.part.buried>
-4.7309

> <Gold.PLP.part.nonpolar>
-30.1518

> <Gold.PLP.part.repulsive>
0.0822

> <Gold.PLP.ligand.clash>
0.0000

> <Gold.PLP.ligand.torsion>
0.7720

> <Gold.PLP.Chemscore.Hbond>
2.8699

> <Gold.PLP.Chemscore.CHOScore>
0.0000

> <Gold.PLP.Chemscore.Metal>
0.0000

> <Gold.Chemscore.Hbonds>
donor molecule, donor type, donor heavy atom, donor atom, acceptor molecule, acceptor atom, score
      P1  H  6896  6909       L1    13  1.24
      P1  H  6931  6943       L1    15  0.85

> <Gold.PLP.Chemscore.Internal.Correction>
0.1131

> <Gold.Rescore>
     Score         DG    S(hbond)    S(metal)    S(lipo)     H(rot)  DE(clash)    DE(int)     intcor
     11.77     -14.44       0.90        0.00      88.17       1.70       0.24       2.43       ----

> <Gold.Chemscore.Fitness>
11.7678

> <Gold.Chemscore.DG>
-14.4356

> <Gold.Chemscore.ZeroCoef>
-5.4800

> <Gold.Chemscore.Hbond>
0.8987

> <Gold.Chemscore.Metal>
0.0000

> <Gold.Chemscore.Lipo>
88.1659

> <Gold.Chemscore.Internal_Hbond>
0.0000

> <Gold.Chemscore.DEClash>
0.2415

> <Gold.Chemscore.DEInternal>
2.4263

> <Gold.Chemscore.Rot>
1.7037

> <Gold.Chemscore.Internal.Correction>
   9.000000E+99

> <Gold.Chemscore.Hbonds>
donor molecule, donor type, donor heavy atom, donor atom, acceptor molecule, acceptor atom, score
      P1  H  6896  6909       L1    13  0.05
      P1  H  6931  6943       L1    15  0.15

> <Gold.Chemscore.Hbond.Weighted>
-3.0016

> <Gold.Chemscore.Metal.Weighted>
-0.0000

> <Gold.Chemscore.Lipo.Weighted>
-10.3154

> <Gold.Chemscore.Internal_Hbond.Weighted>
0.0000

> <Gold.Chemscore.DEClash.Weighted>
0.2415

> <Gold.Chemscore.DEInternal.Weighted>
2.4263

> <Gold.Chemscore.Rot.Weighted>
4.3614

> <Gold.Chemscore.Internal.Correction.Weighted>
   9.000000E+99

> <Gold.Protein.RotatedTorsions>
[ 6907 6896 6895 6894 ] final   73.68 input  -60.11 | X-H torsion
[ 7974 7965 7964 7962 ] final  -26.33 input  175.53 | X-H torsion
[ 8008 7997 7996 7995 ] final   63.82 input   59.86 | X-H torsion
[ 10167 10162 10161 10158 ] final    2.82 input  -65.29 | X-H torsion
[ 10718 10713 10712 10709 ] final  168.22 input   66.30 | X-H torsion
[ 10763 10752 10751 10750 ] final -164.95 input  -60.55 | X-H torsion
[ 11005 11000 10999 10996 ] final  143.58 input  -57.11 | X-H torsion

> <Gold.Protein.ActiveResidues>
 VAL166  LYS551  ARG553  GLY616  TRP617  ASP618  TYR619  PRO620  LYS621  CYS622 
 ASP623  PHE694  ASN695  SER759  ASP760  ASP761  ALA762  ILE779  LEU786  VAL792 
 PHE793  MET794  SER795  GLU796  ALA797  LYS798  CYS799  TRP800  GLU811  SER814 

> <Gold.Protein.RotatedAtoms>
  152.4936  134.4386  159.9535 H   0  0  0  0  0  0  0  0  0  0  0  0  # atno 6907 bound_to 6896
  151.4368  133.3648  159.2784 H   0  0  0  0  0  0  0  0  0  0  0  0  # atno 6908 bound_to 6896
  150.9115  134.8556  159.7488 H   0  0  0  0  0  0  0  0  0  0  0  0  # atno 6909 bound_to 6896
  146.1432  140.5006  142.8643 H   0  0  0  0  0  0  0  0  0  0  0  0  # atno 7974 bound_to 7965
  155.6362  140.3496  155.4699 H   0  0  0  0  0  0  0  0  0  0  0  0  # atno 8008 bound_to 7997
  155.9963  140.1204  157.0614 H   0  0  0  0  0  0  0  0  0  0  0  0  # atno 8009 bound_to 7997
  154.4234  140.1109  156.5621 H   0  0  0  0  0  0  0  0  0  0  0  0  # atno 8010 bound_to 7997
  140.6616  143.7289  150.7749 H   0  0  0  0  0  0  0  0  0  0  0  0  # atno 10167 bound_to 10162
  157.0402  131.0284  151.2716 H   0  0  0  0  0  0  0  0  0  0  0  0  # atno 10718 bound_to 10713
  154.6979  135.2982  154.9385 H   0  0  0  0  0  0  0  0  0  0  0  0  # atno 10763 bound_to 10752
  154.0327  135.6668  153.4786 H   0  0  0  0  0  0  0  0  0  0  0  0  # atno 10764 bound_to 10752
  153.0659  135.5088  154.8106 H   0  0  0  0  0  0  0  0  0  0  0  0  # atno 10765 bound_to 10752
  140.0565  134.9228  157.1109 H   0  0  0  0  0  0  0  0  0  0  0  0  # atno 11005 bound_to 11000
  144.7816  140.5852  143.6601 LP  0  0  0  0  0  0  0  0  0  0  0  0  # atno 17320 bound_to 7965
  145.4998  139.1484  143.3664 LP  0  0  0  0  0  0  0  0  0  0  0  0  # atno 17321 bound_to 7965
  140.0958  143.4834  152.2453 LP  0  0  0  0  0  0  0  0  0  0  0  0  # atno 17342 bound_to 10162
  139.5852  144.7528  151.3539 LP  0  0  0  0  0  0  0  0  0  0  0  0  # atno 17343 bound_to 10162
  157.5110  130.7939  149.7705 LP  0  0  0  0  0  0  0  0  0  0  0  0  # atno 17370 bound_to 10713
  156.0040  130.3865  150.2497 LP  0  0  0  0  0  0  0  0  0  0  0  0  # atno 17371 bound_to 10713
  140.3836  134.2260  155.7169 LP  0  0  0  0  0  0  0  0  0  0  0  0  # atno 17394 bound_to 11000
  141.1954  133.8106  157.0716 LP  0  0  0  0  0  0  0  0  0  0  0  0  # atno 17395 bound_to 11000

$$$$
