AV-unprocessed.smi:3116|AV-procd|sdf|11865|dock3
  -GOLD-   2272017243D 1   1.00000     0.00000
 Structure written by MMmdl.
 34 34  0  0  0  0  0  0  0  0  2 V2000
  146.7334  137.8968  154.4841 C   0  0  0  0  0  0  0  0  0  0  0  0
  147.1211  138.8647  153.3560 C   0  0  1  0  0  0  0  0  0  0  0  0
  148.5913  138.8491  153.1711 N   0  3  0  0  0  0  0  0  0  0  0  0
  149.4025  139.2409  154.3508 C   0  0  1  0  0  0  0  0  0  0  0  0
  150.8100  138.6257  154.2326 C   0  0  0  0  0  0  0  0  0  0  0  0
  149.4357  140.7867  154.4794 C   0  0  2  0  0  0  0  0  0  0  0  0
  150.2860  141.2867  155.6631 C   0  0  0  0  0  0  0  0  0  0  0  0
  148.0832  141.3262  154.5773 N   0  0  0  0  0  0  0  0  0  0  0  0
  147.4143  142.1592  153.7012 C   0  0  0  0  0  0  0  0  0  0  0  0
  146.1901  142.4258  154.2436 C   0  0  0  0  0  0  0  0  0  0  0  0
  146.2040  141.7146  155.4751 C   0  0  0  0  0  0  0  0  0  0  0  0
  147.3396  141.0654  155.6753 N   0  0  0  0  0  0  0  0  0  0  0  0
  146.3876  138.4819  152.0625 C   0  0  0  0  0  0  0  0  0  0  0  0
  145.0619  138.3366  152.1340 N   0  0  0  0  0  0  0  0  0  0  0  0
  147.0082  138.3057  151.0158 O   0  0  0  0  0  0  0  0  0  0  0  0
  145.6566  137.9016  154.6589 H   0  0  0  0  0  0  0  0  0  0  0  0
  147.2154  138.1766  155.4216 H   0  0  0  0  0  0  0  0  0  0  0  0
  147.0282  136.8719  154.2535 H   0  0  0  0  0  0  0  0  0  0  0  0
  146.8131  139.8677  153.6541 H   0  0  0  0  0  0  0  0  0  0  0  0
  148.8789  137.9230  152.8896 H   0  0  0  0  0  0  0  0  0  0  0  0
  148.9281  138.8438  155.2496 H   0  0  0  0  0  0  0  0  0  0  0  0
  151.4055  138.8065  155.1270 H   0  0  0  0  0  0  0  0  0  0  0  0
  151.3519  139.0389  153.3812 H   0  0  0  0  0  0  0  0  0  0  0  0
  150.7674  137.5445  154.1019 H   0  0  0  0  0  0  0  0  0  0  0  0
  149.8850  141.1948  153.5716 H   0  0  0  0  0  0  0  0  0  0  0  0
  151.3434  141.0649  155.5212 H   0  0  0  0  0  0  0  0  0  0  0  0
  149.9738  140.8312  156.6032 H   0  0  0  0  0  0  0  0  0  0  0  0
  150.2038  142.3686  155.7743 H   0  0  0  0  0  0  0  0  0  0  0  0
  147.8588  142.4928  152.7752 H   0  0  0  0  0  0  0  0  0  0  0  0
  145.4061  143.0408  153.8272 H   0  0  0  0  0  0  0  0  0  0  0  0
  145.4305  141.6555  156.2267 H   0  0  0  0  0  0  0  0  0  0  0  0
  144.5311  138.0935  151.3100 H   0  0  0  0  0  0  0  0  0  0  0  0
  144.5905  138.4792  153.0160 H   0  0  0  0  0  0  0  0  0  0  0  0
  148.8018  139.4893  152.4175 H   0  0  0  0  0  0  0  0  0  0  0  0
  1  2  1  0  0  0  0
  1 16  1  0  0  0  0
  1 17  1  0  0  0  0
  1 18  1  0  0  0  0
  2  3  1  0  0  0  0
  2 13  1  0  0  0  0
  2 19  1  0  0  0  0
  3  4  1  0  0  0  0
  3 20  1  0  0  0  0
  3 34  1  0  0  0  0
  4  5  1  0  0  0  0
  4  6  1  0  0  0  0
  4 21  1  0  0  0  0
  5 22  1  0  0  0  0
  5 23  1  0  0  0  0
  5 24  1  0  0  0  0
  6  7  1  0  0  0  0
  6  8  1  0  0  0  0
  6 25  1  0  0  0  0
  7 26  1  0  0  0  0
  7 27  1  0  0  0  0
  7 28  1  0  0  0  0
  8 12  1  0  0  0  0
  8  9  1  0  0  0  0
  9 10  2  0  0  0  0
  9 29  1  0  0  0  0
 10 11  1  0  0  0  0
 10 30  1  0  0  0  0
 11 12  2  0  0  0  0
 11 31  1  0  0  0  0
 13 14  1  0  0  0  0
 13 15  2  0  0  0  0
 14 32  1  0  0  0  0
 14 33  1  0  0  0  0
M  CHG  1   3   1
M  END
> <s_m_source_file>
AV-unprocessed.smi

> <i_m_source_file_index>
3116

> <i_lp_mmshare_version>
43012

> <i_f3d_flags>
0

> <s_epik_input>
W05IMl1DKD1PKVtDQEhdKFtDSDNdKVtOSF1bQ0BIXShbQ0gzXSlbQ0BIXShbQ0gzXSluMVtjSF1bY0hdW2NIXW4x

> <s_epik_cmdline>
J2VwaWtfcHl0aG9uJywgJy1waCcsICc3LjAnLCAnLXRuJywgJzgnLCAnLW1hJywgJzIwMCcsICctbWV0YWxfYmluZGluZycsICctaW1hZScsICc8aW5maWxlLm1hZT4nLCAnLW9tYWUnLCAnPG91dGZpbGUubWFlPic=

> <r_lp_tautomer_probability>
1

> <r_epik_Ionization_Penalty>
0.15658

> <r_epik_Ionization_Penalty_Charging>
0.156568

> <r_epik_Ionization_Penalty_Neutral>
1.19778e-05

> <r_epik_State_Penalty>
0.145866

> <r_epik_Charging_Adjusted_Penalty>
0.302434

> <i_epik_Tot_Q>
1

> <i_epik_Tot_abs_Q>
1

> <r_epik_Metal_State_Penalty>
0.146064

> <b_epik_Metal_Only>
0

> <s_lp_Force_Field>
OPLS_2005

> <r_lp_Energy>
9.00386

> <b_lp_Chiralities_Consistent>
1

> <s_lp_Variant>
AV-unprocessed.smi:3116-4

> <Gold.Version>
5.8.1

> <Gold.Id.Protein>
6NUR|6NUR_protein|mol2

> <Gold.PLP.Fitness>
45.5747

> <Gold.PLP.PLP>
-31.1678

> <Gold.PLP.part.hbond>
-4.8797

> <Gold.PLP.part.metal>
0.0000

> <Gold.PLP.part.buried>
-5.5123

> <Gold.PLP.part.nonpolar>
-23.7455

> <Gold.PLP.part.repulsive>
1.9457

> <Gold.PLP.ligand.clash>
0.0000

> <Gold.PLP.ligand.torsion>
0.3578

> <Gold.PLP.Chemscore.Hbond>
5.0000

> <Gold.PLP.Chemscore.CHOScore>
0.0000

> <Gold.PLP.Chemscore.Metal>
0.0000

> <Gold.Chemscore.Hbonds>
donor molecule, donor type, donor heavy atom, donor atom, acceptor molecule, acceptor atom, score
      L1  H     3    20       P1  7948  2.00
      L1  H     3    34       P1  7957  1.00
      L1  H    14    32       P1 10171  0.94
      P1  H  7954  7966       L1    15  1.00

> <Gold.PLP.Chemscore.Internal.Correction>
0.1225

> <Gold.Rescore>
     Score         DG    S(hbond)    S(metal)    S(lipo)     H(rot)  DE(clash)    DE(int)     intcor
     16.63     -18.46       3.94        0.00      51.96       2.45       0.32       1.51       ----

> <Gold.Chemscore.Fitness>
16.6337

> <Gold.Chemscore.DG>
-18.4637

> <Gold.Chemscore.ZeroCoef>
-5.4800

> <Gold.Chemscore.Hbond>
3.9423

> <Gold.Chemscore.Metal>
0.0000

> <Gold.Chemscore.Lipo>
51.9613

> <Gold.Chemscore.Internal_Hbond>
0.0000

> <Gold.Chemscore.DEClash>
0.3235

> <Gold.Chemscore.DEInternal>
1.5064

> <Gold.Chemscore.Rot>
2.4465

> <Gold.Chemscore.Internal.Correction>
   9.000000E+99

> <Gold.Chemscore.Hbonds>
donor molecule, donor type, donor heavy atom, donor atom, acceptor molecule, acceptor atom, score
      L1  H     3    20       P1  7948  0.98
      L1  H     3    34       P1  7957  0.96
      L1  H    14    32       P1 10171  0.92
      L1  H    14    33       P1 10175  0.01
      P1  H  7954  7966       L1    15  0.99

> <Gold.Chemscore.Hbond.Weighted>
-13.1673

> <Gold.Chemscore.Metal.Weighted>
-0.0000

> <Gold.Chemscore.Lipo.Weighted>
-6.0795

> <Gold.Chemscore.Internal_Hbond.Weighted>
0.0000

> <Gold.Chemscore.DEClash.Weighted>
0.3235

> <Gold.Chemscore.DEInternal.Weighted>
1.5064

> <Gold.Chemscore.Rot.Weighted>
6.2631

> <Gold.Chemscore.Internal.Correction.Weighted>
   9.000000E+99

> <Gold.Protein.RotatedTorsions>
[ 6907 6896 6895 6894 ] final   17.94 input  -60.11 | X-H torsion
[ 7974 7965 7964 7962 ] final   40.03 input  175.53 | X-H torsion
[ 8008 7997 7996 7995 ] final  100.16 input   59.86 | X-H torsion
[ 10167 10162 10161 10158 ] final -143.60 input  -65.29 | X-H torsion
[ 10718 10713 10712 10709 ] final  116.01 input   66.30 | X-H torsion
[ 10763 10752 10751 10750 ] final  166.25 input  -60.55 | X-H torsion
[ 11005 11000 10999 10996 ] final -166.81 input  -57.11 | X-H torsion

> <Gold.Protein.ActiveResidues>
 VAL166  LYS551  ARG553  GLY616  TRP617  ASP618  TYR619  PRO620  LYS621  CYS622 
 ASP623  PHE694  ASN695  SER759  ASP760  ASP761  ALA762  ILE779  LEU786  VAL792 
 PHE793  MET794  SER795  GLU796  ALA797  LYS798  CYS799  TRP800  GLU811  SER814 

> <Gold.Protein.RotatedAtoms>
  151.8575  135.0536  160.0465 H   0  0  0  0  0  0  0  0  0  0  0  0  # atno 6907 bound_to 6896
  152.2689  133.5360  159.5435 H   0  0  0  0  0  0  0  0  0  0  0  0  # atno 6908 bound_to 6896
  150.7144  134.0642  159.3884 H   0  0  0  0  0  0  0  0  0  0  0  0  # atno 6909 bound_to 6896
  146.0937  139.5581  142.9459 H   0  0  0  0  0  0  0  0  0  0  0  0  # atno 7974 bound_to 7965
  156.1176  140.3217  155.8161 H   0  0  0  0  0  0  0  0  0  0  0  0  # atno 8008 bound_to 7997
  155.4563  140.0536  157.3013 H   0  0  0  0  0  0  0  0  0  0  0  0  # atno 8009 bound_to 7997
  154.4804  140.2050  155.9792 H   0  0  0  0  0  0  0  0  0  0  0  0  # atno 8010 bound_to 7997
  139.7978  143.7876  152.2656 H   0  0  0  0  0  0  0  0  0  0  0  0  # atno 10167 bound_to 10162
  157.6187  131.1020  150.7412 H   0  0  0  0  0  0  0  0  0  0  0  0  # atno 10718 bound_to 10713
  154.3362  135.2754  155.2446 H   0  0  0  0  0  0  0  0  0  0  0  0  # atno 10763 bound_to 10752
  154.4737  135.5876  153.6343 H   0  0  0  0  0  0  0  0  0  0  0  0  # atno 10764 bound_to 10752
  152.9862  135.6094  154.3559 H   0  0  0  0  0  0  0  0  0  0  0  0  # atno 10765 bound_to 10752
  140.5603  134.5340  157.5141 H   0  0  0  0  0  0  0  0  0  0  0  0  # atno 11005 bound_to 11000
  145.5990  141.0358  143.2029 LP  0  0  0  0  0  0  0  0  0  0  0  0  # atno 17320 bound_to 7965
  144.7379  139.7532  143.7322 LP  0  0  0  0  0  0  0  0  0  0  0  0  # atno 17321 bound_to 7965
  139.7986  144.7382  150.9855 LP  0  0  0  0  0  0  0  0  0  0  0  0  # atno 17342 bound_to 10162
  140.7820  143.4368  151.0612 LP  0  0  0  0  0  0  0  0  0  0  0  0  # atno 17343 bound_to 10162
  156.7773  130.4848  149.5407 LP  0  0  0  0  0  0  0  0  0  0  0  0  # atno 17370 bound_to 10713
  156.1321  130.6185  151.0348 LP  0  0  0  0  0  0  0  0  0  0  0  0  # atno 17371 bound_to 10713
  139.9411  134.7785  156.0676 LP  0  0  0  0  0  0  0  0  0  0  0  0  # atno 17394 bound_to 11000
  141.1118  133.6640  156.2998 LP  0  0  0  0  0  0  0  0  0  0  0  0  # atno 17395 bound_to 11000

$$$$
