AV-unprocessed.smi:3199|AV-procd|sdf|12231|dock1
  -GOLD-   2272018 63D 1   1.00000     0.00000
 Structure written by MMmdl.
 35 36  0  0  0  0  0  0  0  0  1 V2000
  151.2594  145.5233  159.6912 C   0  0  0  0  0  0  0  0  0  0  0  0
  151.9929  144.3128  160.2296 C   0  0  0  0  0  0  0  0  0  0  0  0
  152.4434  143.2945  159.3631 C   0  0  0  0  0  0  0  0  0  0  0  0
  153.1218  142.1927  159.9190 C   0  0  0  0  0  0  0  0  0  0  0  0
  153.3217  142.1504  161.3140 C   0  0  0  0  0  0  0  0  0  0  0  0
  154.0523  140.9910  161.9622 C   0  0  0  0  0  0  0  0  0  0  0  0
  154.4985  139.9414  160.9313 C   0  0  0  0  0  0  0  0  0  0  0  0
  154.1852  138.5869  161.3702 N   0  0  0  0  0  0  0  0  0  0  0  0
  154.8506  137.9051  162.3154 C   0  0  0  0  0  0  0  0  0  0  0  0
  155.8107  138.3734  162.9279 O   0  0  0  0  0  0  0  0  0  0  0  0
  154.3338  136.4874  162.6020 C   0  0  2  0  0  0  0  0  0  0  0  0
  154.0898  136.1406  164.0862 C   0  0  0  0  0  0  0  0  0  0  0  0
  155.1274  135.0752  164.3837 C   0  0  0  0  0  0  0  0  0  0  0  0
  155.3261  134.4357  163.0175 C   0  0  0  0  0  0  0  0  0  0  0  0
  155.3098  135.5525  162.1437 O   0  0  0  0  0  0  0  0  0  0  0  0
  152.8306  143.2202  162.0918 C   0  0  0  0  0  0  0  0  0  0  0  0
  152.1797  144.2810  161.5676 N   0  0  0  0  0  0  0  0  0  0  0  0
  151.1887  145.4920  158.6035 H   0  0  0  0  0  0  0  0  0  0  0  0
  151.7805  146.4393  159.9714 H   0  0  0  0  0  0  0  0  0  0  0  0
  150.2481  145.5647  160.0970 H   0  0  0  0  0  0  0  0  0  0  0  0
  152.2759  143.3541  158.2977 H   0  0  0  0  0  0  0  0  0  0  0  0
  153.4827  141.3972  159.2836 H   0  0  0  0  0  0  0  0  0  0  0  0
  154.9147  141.3816  162.5041 H   0  0  0  0  0  0  0  0  0  0  0  0
  153.4024  140.5311  162.7080 H   0  0  0  0  0  0  0  0  0  0  0  0
  153.9881  140.1126  159.9831 H   0  0  0  0  0  0  0  0  0  0  0  0
  155.5672  140.0310  160.7294 H   0  0  0  0  0  0  0  0  0  0  0  0
  153.4104  138.1266  160.9145 H   0  0  0  0  0  0  0  0  0  0  0  0
  153.4113  136.3326  162.0400 H   0  0  0  0  0  0  0  0  0  0  0  0
  154.1653  136.9793  164.7785 H   0  0  0  0  0  0  0  0  0  0  0  0
  153.0885  135.7233  164.2007 H   0  0  0  0  0  0  0  0  0  0  0  0
  156.0567  135.5395  164.7163 H   0  0  0  0  0  0  0  0  0  0  0  0
  154.8056  134.3645  165.1457 H   0  0  0  0  0  0  0  0  0  0  0  0
  156.2602  133.8790  162.9421 H   0  0  0  0  0  0  0  0  0  0  0  0
  154.5001  133.7659  162.7736 H   0  0  0  0  0  0  0  0  0  0  0  0
  152.9662  143.2275  163.1634 H   0  0  0  0  0  0  0  0  0  0  0  0
  1  2  1  0  0  0  0
  1 18  1  0  0  0  0
  1 19  1  0  0  0  0
  1 20  1  0  0  0  0
  2 17  1  0  0  0  0
  2  3  2  0  0  0  0
  3  4  1  0  0  0  0
  3 21  1  0  0  0  0
  4  5  2  0  0  0  0
  4 22  1  0  0  0  0
  5  6  1  0  0  0  0
  5 16  1  0  0  0  0
  6  7  1  0  0  0  0
  6 23  1  0  0  0  0
  6 24  1  0  0  0  0
  7  8  1  0  0  0  0
  7 25  1  0  0  0  0
  7 26  1  0  0  0  0
  8  9  1  0  0  0  0
  8 27  1  0  0  0  0
  9 10  2  0  0  0  0
  9 11  1  0  0  0  0
 11 15  1  0  0  0  0
 11 12  1  0  0  0  0
 11 28  1  0  0  0  0
 12 13  1  0  0  0  0
 12 29  1  0  0  0  0
 12 30  1  0  0  0  0
 13 14  1  0  0  0  0
 13 31  1  0  0  0  0
 13 32  1  0  0  0  0
 14 15  1  0  0  0  0
 14 33  1  0  0  0  0
 14 34  1  0  0  0  0
 16 17  2  0  0  0  0
 16 35  1  0  0  0  0
M  END
> <s_m_source_file>
AV-unprocessed.smi

> <i_m_source_file_index>
3199

> <i_lp_mmshare_version>
43012

> <i_f3d_flags>
0

> <s_epik_input>
W0NIM11jMVtjSF1bY0hdYyhbY0hdbjEpW0NIMl1bQ0gyXVtOSF1DKD1PKVtDQEBIXTJbQ0gyXVtDSDJdW0NIMl1PMg==

> <s_epik_cmdline>
J2VwaWtfcHl0aG9uJywgJy1waCcsICc3LjAnLCAnLXRuJywgJzgnLCAnLW1hJywgJzIwMCcsICctbWV0YWxfYmluZGluZycsICctaW1hZScsICc8aW5maWxlLm1hZT4nLCAnLW9tYWUnLCAnPG91dGZpbGUubWFlPic=

> <r_epik_Ionization_Penalty>
0.0519155

> <r_epik_Ionization_Penalty_Charging>
0

> <r_epik_Ionization_Penalty_Neutral>
0.0519155

> <r_epik_State_Penalty>
0.0445047

> <r_epik_Charging_Adjusted_Penalty>
0.0445047

> <i_epik_Tot_Q>
0

> <i_epik_Tot_abs_Q>
0

> <r_epik_Metal_State_Penalty>
0.0408967

> <b_epik_Metal_Only>
0

> <s_lp_Force_Field>
OPLS_2005

> <r_lp_Energy>
17.3487

> <b_lp_Chiralities_Consistent>
1

> <s_lp_Variant>
AV-unprocessed.smi:3199-1

> <Gold.Version>
5.8.1

> <Gold.Id.Protein>
6NUR|6NUR_protein|mol2

> <Gold.PLP.Fitness>
41.1845

> <Gold.PLP.PLP>
-42.3652

> <Gold.PLP.part.hbond>
0.0000

> <Gold.PLP.part.metal>
0.0000

> <Gold.PLP.part.buried>
-4.4515

> <Gold.PLP.part.nonpolar>
-37.0432

> <Gold.PLP.part.repulsive>
0.1857

> <Gold.PLP.ligand.clash>
0.0000

> <Gold.PLP.ligand.torsion>
0.6019

> <Gold.PLP.Chemscore.Hbond>
0.0000

> <Gold.PLP.Chemscore.CHOScore>
0.0000

> <Gold.PLP.Chemscore.Metal>
0.0000

> <Gold.PLP.Chemscore.Internal.Correction>
0.0230

> <Gold.Rescore>
     Score         DG    S(hbond)    S(metal)    S(lipo)     H(rot)  DE(clash)    DE(int)     intcor
     15.38     -15.87       0.00        0.00     121.33       1.49       0.06       0.44       ----

> <Gold.Chemscore.Fitness>
15.3753

> <Gold.Chemscore.DG>
-15.8712

> <Gold.Chemscore.ZeroCoef>
-5.4800

> <Gold.Chemscore.Hbond>
0.0000

> <Gold.Chemscore.Metal>
0.0000

> <Gold.Chemscore.Lipo>
121.3255

> <Gold.Chemscore.Internal_Hbond>
0.0000

> <Gold.Chemscore.DEClash>
0.0553

> <Gold.Chemscore.DEInternal>
0.4406

> <Gold.Chemscore.Rot>
1.4859

> <Gold.Chemscore.Internal.Correction>
   9.000000E+99

> <Gold.Chemscore.Hbond.Weighted>
-0.0000

> <Gold.Chemscore.Metal.Weighted>
-0.0000

> <Gold.Chemscore.Lipo.Weighted>
-14.1951

> <Gold.Chemscore.Internal_Hbond.Weighted>
0.0000

> <Gold.Chemscore.DEClash.Weighted>
0.0553

> <Gold.Chemscore.DEInternal.Weighted>
0.4406

> <Gold.Chemscore.Rot.Weighted>
3.8039

> <Gold.Chemscore.Internal.Correction.Weighted>
   9.000000E+99

> <Gold.Protein.RotatedTorsions>
[ 6907 6896 6895 6894 ] final  126.24 input  -60.11 | X-H torsion
[ 7974 7965 7964 7962 ] final  -36.11 input  175.53 | X-H torsion
[ 8008 7997 7996 7995 ] final  173.69 input   59.86 | X-H torsion
[ 10167 10162 10161 10158 ] final   98.64 input  -65.29 | X-H torsion
[ 10718 10713 10712 10709 ] final  163.41 input   66.30 | X-H torsion
[ 10763 10752 10751 10750 ] final   51.45 input  -60.55 | X-H torsion
[ 11005 11000 10999 10996 ] final -120.21 input  -57.11 | X-H torsion

> <Gold.Protein.ActiveResidues>
 VAL166  LYS551  ARG553  GLY616  TRP617  ASP618  TYR619  PRO620  LYS621  CYS622 
 ASP623  PHE694  ASN695  SER759  ASP760  ASP761  ALA762  ILE779  LEU786  VAL792 
 PHE793  MET794  SER795  GLU796  ALA797  LYS798  CYS799  TRP800  GLU811  SER814 

> <Gold.Protein.RotatedAtoms>
  152.3921  133.6693  159.6245 H   0  0  0  0  0  0  0  0  0  0  0  0  # atno 6907 bound_to 6896
  150.7827  133.8937  159.3329 H   0  0  0  0  0  0  0  0  0  0  0  0  # atno 6908 bound_to 6896
  151.6721  135.0976  160.0251 H   0  0  0  0  0  0  0  0  0  0  0  0  # atno 6909 bound_to 6896
  146.0689  140.6240  142.8962 H   0  0  0  0  0  0  0  0  0  0  0  0  # atno 7974 bound_to 7965
  156.1050  140.1453  156.9417 H   0  0  0  0  0  0  0  0  0  0  0  0  # atno 8008 bound_to 7997
  154.4727  140.0904  156.7231 H   0  0  0  0  0  0  0  0  0  0  0  0  # atno 8009 bound_to 7997
  155.4695  140.3441  155.4326 H   0  0  0  0  0  0  0  0  0  0  0  0  # atno 8010 bound_to 7997
  139.7690  144.6929  151.0183 H   0  0  0  0  0  0  0  0  0  0  0  0  # atno 10167 bound_to 10162
  157.1088  131.0462  151.2466 H   0  0  0  0  0  0  0  0  0  0  0  0  # atno 10718 bound_to 10713
  152.9785  135.5845  154.4417 H   0  0  0  0  0  0  0  0  0  0  0  0  # atno 10763 bound_to 10752
  154.4017  135.2769  155.2094 H   0  0  0  0  0  0  0  0  0  0  0  0  # atno 10764 bound_to 10752
  154.3922  135.6122  153.5904 H   0  0  0  0  0  0  0  0  0  0  0  0  # atno 10765 bound_to 10752
  141.0160  134.0195  157.3349 H   0  0  0  0  0  0  0  0  0  0  0  0  # atno 11005 bound_to 11000
  144.7219  140.4402  143.7001 LP  0  0  0  0  0  0  0  0  0  0  0  0  # atno 17320 bound_to 7965
  145.6427  139.1552  143.2906 LP  0  0  0  0  0  0  0  0  0  0  0  0  # atno 17321 bound_to 7965
  140.7813  143.4610  151.0278 LP  0  0  0  0  0  0  0  0  0  0  0  0  # atno 17342 bound_to 10162
  139.8294  143.7712  152.3179 LP  0  0  0  0  0  0  0  0  0  0  0  0  # atno 17343 bound_to 10162
  157.4577  130.7635  149.7207 LP  0  0  0  0  0  0  0  0  0  0  0  0  # atno 17370 bound_to 10713
  155.9855  130.3982  150.3257 LP  0  0  0  0  0  0  0  0  0  0  0  0  # atno 17371 bound_to 10713
  139.9117  135.0191  156.7719 LP  0  0  0  0  0  0  0  0  0  0  0  0  # atno 17394 bound_to 11000
  140.6654  133.9607  155.7827 LP  0  0  0  0  0  0  0  0  0  0  0  0  # atno 17395 bound_to 11000

$$$$
