AV-unprocessed.smi:3250|AV-procd|sdf|12432|dock4
  -GOLD-   2272018323D 1   1.00000     0.00000
 Structure written by MMmdl.
 40 41  0  0  0  0  0  0  0  0  3 V2000
  146.3129  143.2843  153.7246 C   0  0  0  0  0  0  0  0  0  0  0  0
  146.3277  141.7530  153.6202 C   0  0  0  0  0  0  0  0  0  0  0  0
  147.6289  141.2304  153.1243 N   0  3  2  0  0  0  0  0  0  0  0  0
  147.6343  139.7809  152.8001 C   0  0  0  0  0  0  0  0  0  0  0  0
  147.7320  138.9182  154.0727 C   0  0  0  0  0  0  0  0  0  0  0  0
  148.8709  139.3080  154.8308 O   0  0  0  0  0  0  0  0  0  0  0  0
  148.8050  140.6655  155.2558 C   0  0  1  0  0  0  0  0  0  0  0  0
  150.0341  140.9541  156.1349 C   0  0  0  0  0  0  0  0  0  0  0  0
  150.1246  142.3562  156.5213 N   0  0  0  0  0  0  0  0  0  0  0  0
  150.8419  142.8207  157.6099 C   0  0  0  0  0  0  0  0  0  0  0  0
  150.8405  144.1423  157.8376 N   0  3  0  0  0  0  0  0  0  0  0  0
  151.5360  144.6459  158.8872 C   0  0  0  0  0  0  0  0  0  0  0  0
  152.2611  143.7899  159.7359 C   0  0  0  0  0  0  0  0  0  0  0  0
  152.2207  142.4176  159.4411 C   0  0  0  0  0  0  0  0  0  0  0  0
  152.9173  141.5281  160.2328 O   0  0  0  0  0  0  0  0  0  0  0  0
  152.8739  140.1455  159.8950 C   0  0  0  0  0  0  0  0  0  0  0  0
  151.5113  141.9551  158.3849 N   0  0  0  0  0  0  0  0  0  0  0  0
  148.7756  141.5667  154.0038 C   0  0  0  0  0  0  0  0  0  0  0  0
  145.3842  143.6274  154.1810 H   0  0  0  0  0  0  0  0  0  0  0  0
  146.3872  143.7625  152.7485 H   0  0  0  0  0  0  0  0  0  0  0  0
  147.1359  143.6461  154.3416 H   0  0  0  0  0  0  0  0  0  0  0  0
  146.1420  141.3536  154.6180 H   0  0  0  0  0  0  0  0  0  0  0  0
  145.5036  141.4081  152.9958 H   0  0  0  0  0  0  0  0  0  0  0  0
  146.7610  139.5015  152.2123 H   0  0  0  0  0  0  0  0  0  0  0  0
  148.5005  139.5800  152.1680 H   0  0  0  0  0  0  0  0  0  0  0  0
  146.8299  138.9977  154.6805 H   0  0  0  0  0  0  0  0  0  0  0  0
  147.8346  137.8671  153.8024 H   0  0  0  0  0  0  0  0  0  0  0  0
  147.8956  140.8236  155.8372 H   0  0  0  0  0  0  0  0  0  0  0  0
  150.0024  140.3423  157.0368 H   0  0  0  0  0  0  0  0  0  0  0  0
  150.9473  140.6769  155.6069 H   0  0  0  0  0  0  0  0  0  0  0  0
  149.7003  143.0436  155.9152 H   0  0  0  0  0  0  0  0  0  0  0  0
  151.4909  145.7180  159.0117 H   0  0  0  0  0  0  0  0  0  0  0  0
  152.8236  144.1709  160.5757 H   0  0  0  0  0  0  0  0  0  0  0  0
  153.4759  139.5811  160.6070 H   0  0  0  0  0  0  0  0  0  0  0  0
  153.2815  139.9635  158.8993 H   0  0  0  0  0  0  0  0  0  0  0  0
  151.8558  139.7560  159.9411 H   0  0  0  0  0  0  0  0  0  0  0  0
  149.6958  141.4306  153.4335 H   0  0  0  0  0  0  0  0  0  0  0  0
  148.7437  142.6205  154.2834 H   0  0  0  0  0  0  0  0  0  0  0  0
  147.7937  141.7203  152.2560 H   0  0  0  0  0  0  0  0  0  0  0  0
  150.3215  144.7780  157.2312 H   0  0  0  0  0  0  0  0  0  0  0  0
  1  2  1  0  0  0  0
  1 19  1  0  0  0  0
  1 20  1  0  0  0  0
  1 21  1  0  0  0  0
  2  3  1  0  0  0  0
  2 22  1  0  0  0  0
  2 23  1  0  0  0  0
  3 18  1  0  0  0  0
  3  4  1  0  0  0  0
  3 39  1  0  0  0  0
  4  5  1  0  0  0  0
  4 24  1  0  0  0  0
  4 25  1  0  0  0  0
  5  6  1  0  0  0  0
  5 26  1  0  0  0  0
  5 27  1  0  0  0  0
  6  7  1  0  0  0  0
  7  8  1  0  0  0  0
  7 18  1  0  0  0  0
  7 28  1  0  0  0  0
  8  9  1  0  0  0  0
  8 29  1  0  0  0  0
  8 30  1  0  0  0  0
  9 10  1  0  0  0  0
  9 31  1  0  0  0  0
 10 17  1  0  0  0  0
 10 11  2  0  0  0  0
 11 12  1  0  0  0  0
 11 40  1  0  0  0  0
 12 13  2  0  0  0  0
 12 32  1  0  0  0  0
 13 14  1  0  0  0  0
 13 33  1  0  0  0  0
 14 15  1  0  0  0  0
 14 17  2  0  0  0  0
 15 16  1  0  0  0  0
 16 34  1  0  0  0  0
 16 35  1  0  0  0  0
 16 36  1  0  0  0  0
 18 37  1  0  0  0  0
 18 38  1  0  0  0  0
M  CHG  1   3   1
M  CHG  1  11   1
M  END
> <s_m_source_file>
AV-unprocessed.smi

> <i_m_source_file_index>
3250

> <i_lp_mmshare_version>
43012

> <i_f3d_flags>
0

> <s_epik_input>
W0NIM11bQ0gyXU4xW0NIMl1bQ0gyXU9bQ0BIXShbQ0gyXTEpW0NIMl1bTkhdYzJuW2NIXVtjSF1jKG4yKU9bQ0gzXQ==

> <s_epik_cmdline>
J2VwaWtfcHl0aG9uJywgJy1waCcsICc3LjAnLCAnLXRuJywgJzgnLCAnLW1hJywgJzIwMCcsICctbWV0YWxfYmluZGluZycsICctaW1hZScsICc8aW5maWxlLm1hZT4nLCAnLW9tYWUnLCAnPG91dGZpbGUubWFlPic=

> <r_lp_tautomer_probability>
0.999985

> <r_epik_Ionization_Penalty>
2.24691

> <r_epik_Ionization_Penalty_Charging>
2.24686

> <r_epik_Ionization_Penalty_Neutral>
4.52111e-05

> <r_epik_State_Penalty>
2.24709

> <r_epik_Charging_Adjusted_Penalty>
4.49395

> <i_epik_Tot_Q>
2

> <i_epik_Tot_abs_Q>
2

> <r_epik_Metal_State_Penalty>
2.26327

> <b_epik_Metal_Only>
0

> <s_lp_Force_Field>
OPLS_2005

> <r_lp_Energy>
19.5656

> <b_lp_Chiralities_Consistent>
1

> <s_lp_Variant>
AV-unprocessed.smi:3250-8

> <Gold.Version>
5.8.1

> <Gold.Id.Protein>
6NUR|6NUR_protein|mol2

> <Gold.PLP.Fitness>
44.9073

> <Gold.PLP.PLP>
-34.2120

> <Gold.PLP.part.hbond>
-2.0000

> <Gold.PLP.part.metal>
0.0000

> <Gold.PLP.part.buried>
-3.8524

> <Gold.PLP.part.nonpolar>
-29.5323

> <Gold.PLP.part.repulsive>
0.2818

> <Gold.PLP.ligand.clash>
0.0000

> <Gold.PLP.ligand.torsion>
0.1863

> <Gold.PLP.Chemscore.Hbond>
3.6800

> <Gold.PLP.Chemscore.CHOScore>
0.0000

> <Gold.PLP.Chemscore.Metal>
0.0000

> <Gold.Chemscore.Hbonds>
donor molecule, donor type, donor heavy atom, donor atom, acceptor molecule, acceptor atom, score
      L1  H     9    31       P1  8028  2.00
      L1  H    11    40       P1  8028  1.43

> <Gold.PLP.Chemscore.Internal.Correction>
0.0278

> <Gold.Rescore>
     Score         DG    S(hbond)    S(metal)    S(lipo)     H(rot)  DE(clash)    DE(int)     intcor
     14.39     -14.72       1.54        0.00      73.50       1.75       0.08       0.26       ----

> <Gold.Chemscore.Fitness>
14.3864

> <Gold.Chemscore.DG>
-14.7200

> <Gold.Chemscore.ZeroCoef>
-5.4800

> <Gold.Chemscore.Hbond>
1.5355

> <Gold.Chemscore.Metal>
0.0000

> <Gold.Chemscore.Lipo>
73.4956

> <Gold.Chemscore.Internal_Hbond>
0.0000

> <Gold.Chemscore.DEClash>
0.0751

> <Gold.Chemscore.DEInternal>
0.2585

> <Gold.Chemscore.Rot>
1.7530

> <Gold.Chemscore.Internal.Correction>
   9.000000E+99

> <Gold.Chemscore.Hbonds>
donor molecule, donor type, donor heavy atom, donor atom, acceptor molecule, acceptor atom, score
      L1  H     9    31       P1  8028  0.95
      L1  H    11    40       P1  8028  0.24

> <Gold.Chemscore.Hbond.Weighted>
-5.1286

> <Gold.Chemscore.Metal.Weighted>
-0.0000

> <Gold.Chemscore.Lipo.Weighted>
-8.5990

> <Gold.Chemscore.Internal_Hbond.Weighted>
0.0000

> <Gold.Chemscore.DEClash.Weighted>
0.0751

> <Gold.Chemscore.DEInternal.Weighted>
0.2585

> <Gold.Chemscore.Rot.Weighted>
4.4876

> <Gold.Chemscore.Internal.Correction.Weighted>
   9.000000E+99

> <Gold.Protein.RotatedTorsions>
[ 6907 6896 6895 6894 ] final   17.35 input  -60.11 | X-H torsion
[ 7974 7965 7964 7962 ] final   22.00 input  175.53 | X-H torsion
[ 8008 7997 7996 7995 ] final   -2.08 input   59.86 | X-H torsion
[ 10167 10162 10161 10158 ] final    5.15 input  -65.29 | X-H torsion
[ 10718 10713 10712 10709 ] final   95.47 input   66.30 | X-H torsion
[ 10763 10752 10751 10750 ] final -100.63 input  -60.55 | X-H torsion
[ 11005 11000 10999 10996 ] final  179.94 input  -57.11 | X-H torsion

> <Gold.Protein.ActiveResidues>
 VAL166  LYS551  ARG553  GLY616  TRP617  ASP618  TYR619  PRO620  LYS621  CYS622 
 ASP623  PHE694  ASN695  SER759  ASP760  ASP761  ALA762  ILE779  LEU786  VAL792 
 PHE793  MET794  SER795  GLU796  ALA797  LYS798  CYS799  TRP800  GLU811  SER814 

> <Gold.Protein.RotatedAtoms>
  151.8483  135.0566  160.0455 H   0  0  0  0  0  0  0  0  0  0  0  0  # atno 6907 bound_to 6896
  152.2756  133.5418  159.5474 H   0  0  0  0  0  0  0  0  0  0  0  0  # atno 6908 bound_to 6896
  150.7169  134.0552  159.3854 H   0  0  0  0  0  0  0  0  0  0  0  0  # atno 6909 bound_to 6896
  146.2047  139.7946  142.8735 H   0  0  0  0  0  0  0  0  0  0  0  0  # atno 7974 bound_to 7965
  154.6396  140.2543  155.7337 H   0  0  0  0  0  0  0  0  0  0  0  0  # atno 8008 bound_to 7997
  156.2522  140.2890  156.0704 H   0  0  0  0  0  0  0  0  0  0  0  0  # atno 8009 bound_to 7997
  155.1617  140.0384  157.2834 H   0  0  0  0  0  0  0  0  0  0  0  0  # atno 8010 bound_to 7997
  140.6497  143.7575  150.7555 H   0  0  0  0  0  0  0  0  0  0  0  0  # atno 10167 bound_to 10162
  157.6938  131.0546  150.4344 H   0  0  0  0  0  0  0  0  0  0  0  0  # atno 10718 bound_to 10713
  154.7594  135.4928  153.9436 H   0  0  0  0  0  0  0  0  0  0  0  0  # atno 10763 bound_to 10752
  153.1234  135.6737  153.9306 H   0  0  0  0  0  0  0  0  0  0  0  0  # atno 10764 bound_to 10752
  153.9031  135.3107  155.3427 H   0  0  0  0  0  0  0  0  0  0  0  0  # atno 10765 bound_to 10752
  140.4117  134.6686  157.4617 H   0  0  0  0  0  0  0  0  0  0  0  0  # atno 11005 bound_to 11000
  145.3360  141.0277  143.3419 LP  0  0  0  0  0  0  0  0  0  0  0  0  # atno 17320 bound_to 7965
  144.8765  139.4964  143.6743 LP  0  0  0  0  0  0  0  0  0  0  0  0  # atno 17321 bound_to 7965
  140.1223  143.4600  152.2305 LP  0  0  0  0  0  0  0  0  0  0  0  0  # atno 17342 bound_to 10162
  139.5711  144.7463  151.3889 LP  0  0  0  0  0  0  0  0  0  0  0  0  # atno 17343 bound_to 10162
  156.4707  130.4052  149.6519 LP  0  0  0  0  0  0  0  0  0  0  0  0  # atno 17370 bound_to 10713
  156.3601  130.7477  151.2448 LP  0  0  0  0  0  0  0  0  0  0  0  0  # atno 17371 bound_to 10713
  140.0263  134.6473  155.9169 LP  0  0  0  0  0  0  0  0  0  0  0  0  # atno 17394 bound_to 11000
  141.1818  133.6548  156.5053 LP  0  0  0  0  0  0  0  0  0  0  0  0  # atno 17395 bound_to 11000

$$$$
