AV-unprocessed.smi:2237|AV-procd|sdf|9049|dock9
  -GOLD-   2272012253D 1   1.00000     0.00000
 Structure written by MMmdl.
 55 57  0  0  0  0  0  0  0  0  3 V2000
  153.1031  142.3342  161.4045 C   0  0  0  0  0  0  0  0  0  0  0  0
  152.3282  143.3187  160.5540 C   0  0  0  0  0  0  0  0  0  0  0  0
  152.2478  144.6793  160.9104 C   0  0  0  0  0  0  0  0  0  0  0  0
  151.5077  145.5393  160.0795 C   0  0  0  0  0  0  0  0  0  0  0  0
  150.8840  145.0079  158.9343 C   0  0  0  0  0  0  0  0  0  0  0  0
  151.0145  143.6304  158.6479 C   0  0  0  0  0  0  0  0  0  0  0  0
  150.3506  143.1947  157.4704 N   0  0  0  0  0  0  0  0  0  0  0  0
  150.5276  142.0462  156.7939 C   0  0  0  0  0  0  0  0  0  0  0  0
  151.3130  141.1493  157.1018 O   0  0  0  0  0  0  0  0  0  0  0  0
  149.7268  141.9862  155.7194 N   0  0  0  0  0  0  0  0  0  0  0  0
  149.6785  140.8784  154.7697 C   0  0  2  0  0  0  0  0  0  0  0  0
  148.3753  140.9482  153.9546 C   0  0  0  0  0  0  0  0  0  0  0  0
  148.2455  139.7276  153.0255 C   0  0  0  0  0  0  0  0  0  0  0  0
  148.2717  138.4475  153.7894 N   0  3  2  0  0  0  0  0  0  0  0  0
  147.0511  138.1415  154.6149 C   0  0  2  0  0  0  0  0  0  0  0  0
  147.0792  136.7106  155.2047 C   0  0  0  0  0  0  0  0  0  0  0  0
  146.8969  135.6337  154.1184 C   0  0  0  0  0  0  0  0  0  0  0  0
  145.6283  135.8339  153.3748 N   0  3  2  0  0  0  0  0  0  0  0  0
  145.3790  134.7638  152.3847 C   0  0  0  0  0  0  0  0  0  0  0  0
  145.5359  137.1894  152.7785 C   0  0  0  0  0  0  0  0  0  0  0  0
  145.7081  138.2772  153.8549 C   0  0  0  0  0  0  0  0  0  0  0  0
  149.5633  138.3423  154.5289 C   0  0  0  0  0  0  0  0  0  0  0  0
  149.7829  139.5229  155.4974 C   0  0  0  0  0  0  0  0  0  0  0  0
  151.7297  142.8087  159.4560 N   0  0  0  0  0  0  0  0  0  0  0  0
  153.6552  142.8431  162.1951 H   0  0  0  0  0  0  0  0  0  0  0  0
  153.8175  141.7816  160.7934 H   0  0  0  0  0  0  0  0  0  0  0  0
  152.4227  141.6195  161.8685 H   0  0  0  0  0  0  0  0  0  0  0  0
  152.7375  145.0563  161.7962 H   0  0  0  0  0  0  0  0  0  0  0  0
  151.4187  146.5893  160.3154 H   0  0  0  0  0  0  0  0  0  0  0  0
  150.3120  145.6557  158.2859 H   0  0  0  0  0  0  0  0  0  0  0  0
  149.6631  143.8339  157.1001 H   0  0  0  0  0  0  0  0  0  0  0  0
  149.1137  142.7684  155.5414 H   0  0  0  0  0  0  0  0  0  0  0  0
  150.5160  140.9689  154.0749 H   0  0  0  0  0  0  0  0  0  0  0  0
  147.5139  141.0023  154.6215 H   0  0  0  0  0  0  0  0  0  0  0  0
  148.3604  141.8630  153.3609 H   0  0  0  0  0  0  0  0  0  0  0  0
  147.3694  139.8084  152.3854 H   0  0  0  0  0  0  0  0  0  0  0  0
  149.0874  139.7232  152.3315 H   0  0  0  0  0  0  0  0  0  0  0  0
  147.0196  138.8502  155.4419 H   0  0  0  0  0  0  0  0  0  0  0  0
  147.9819  136.5151  155.7799 H   0  0  0  0  0  0  0  0  0  0  0  0
  146.2665  136.6135  155.9264 H   0  0  0  0  0  0  0  0  0  0  0  0
  147.7380  135.6491  153.4237 H   0  0  0  0  0  0  0  0  0  0  0  0
  146.8901  134.6472  154.5838 H   0  0  0  0  0  0  0  0  0  0  0  0
  146.1452  134.7607  151.6082 H   0  0  0  0  0  0  0  0  0  0  0  0
  144.4083  134.8995  151.9061 H   0  0  0  0  0  0  0  0  0  0  0  0
  145.3766  133.7858  152.8671 H   0  0  0  0  0  0  0  0  0  0  0  0
  146.2898  137.3003  151.9977 H   0  0  0  0  0  0  0  0  0  0  0  0
  144.5640  137.3065  152.2975 H   0  0  0  0  0  0  0  0  0  0  0  0
  144.8931  138.1763  154.5734 H   0  0  0  0  0  0  0  0  0  0  0  0
  145.5695  139.2715  153.4331 H   0  0  0  0  0  0  0  0  0  0  0  0
  149.6564  137.3972  155.0587 H   0  0  0  0  0  0  0  0  0  0  0  0
  150.3714  138.3347  153.7958 H   0  0  0  0  0  0  0  0  0  0  0  0
  150.7645  139.4273  155.9633 H   0  0  0  0  0  0  0  0  0  0  0  0
  149.0617  139.4785  156.3137 H   0  0  0  0  0  0  0  0  0  0  0  0
  148.2995  137.7234  153.0858 H   0  0  0  0  0  0  0  0  0  0  0  0
  144.8836  135.7687  154.0547 H   0  0  0  0  0  0  0  0  0  0  0  0
  1  2  1  0  0  0  0
  1 25  1  0  0  0  0
  1 26  1  0  0  0  0
  1 27  1  0  0  0  0
  2 24  1  0  0  0  0
  2  3  2  0  0  0  0
  3  4  1  0  0  0  0
  3 28  1  0  0  0  0
  4  5  2  0  0  0  0
  4 29  1  0  0  0  0
  5  6  1  0  0  0  0
  5 30  1  0  0  0  0
  6  7  1  0  0  0  0
  6 24  2  0  0  0  0
  7  8  1  0  0  0  0
  7 31  1  0  0  0  0
  8  9  2  0  0  0  0
  8 10  1  0  0  0  0
 10 11  1  0  0  0  0
 10 32  1  0  0  0  0
 11 23  1  0  0  0  0
 11 12  1  0  0  0  0
 11 33  1  0  0  0  0
 12 13  1  0  0  0  0
 12 34  1  0  0  0  0
 12 35  1  0  0  0  0
 13 14  1  0  0  0  0
 13 36  1  0  0  0  0
 13 37  1  0  0  0  0
 14 15  1  0  0  0  0
 14 22  1  0  0  0  0
 14 54  1  0  0  0  0
 15 21  1  0  0  0  0
 15 16  1  0  0  0  0
 15 38  1  0  0  0  0
 16 17  1  0  0  0  0
 16 39  1  0  0  0  0
 16 40  1  0  0  0  0
 17 18  1  0  0  0  0
 17 41  1  0  0  0  0
 17 42  1  0  0  0  0
 18 19  1  0  0  0  0
 18 20  1  0  0  0  0
 18 55  1  0  0  0  0
 19 43  1  0  0  0  0
 19 44  1  0  0  0  0
 19 45  1  0  0  0  0
 20 21  1  0  0  0  0
 20 46  1  0  0  0  0
 20 47  1  0  0  0  0
 21 48  1  0  0  0  0
 21 49  1  0  0  0  0
 22 23  1  0  0  0  0
 22 50  1  0  0  0  0
 22 51  1  0  0  0  0
 23 52  1  0  0  0  0
 23 53  1  0  0  0  0
M  CHG  1  14   1
M  CHG  1  18   1
M  END
> <s_m_source_file>
AV-unprocessed.smi

> <i_m_source_file_index>
2237

> <i_lp_mmshare_version>
43012

> <i_f3d_flags>
0

> <s_epik_input>
W0NIM11jMVtjSF1bY0hdW2NIXWMobjEpW05IXUMoPU8pW05IXVtDSF0yW0NIMl1bQ0gyXU4oW0NIMl1bQ0gyXTIpW0NIXTNbQ0gyXVtDSDJdTihbQ0gzXSlbQ0gyXVtDSDJdMw==

> <s_epik_cmdline>
J2VwaWtfcHl0aG9uJywgJy1waCcsICc3LjAnLCAnLXRuJywgJzgnLCAnLW1hJywgJzIwMCcsICctbWV0YWxfYmluZGluZycsICctaW1hZScsICc8aW5maWxlLm1hZT4nLCAnLW9tYWUnLCAnPG91dGZpbGUubWFlPic=

> <r_epik_Ionization_Penalty>
0.180851

> <r_epik_Ionization_Penalty_Charging>
0.180787

> <r_epik_Ionization_Penalty_Neutral>
6.38624e-05

> <r_epik_State_Penalty>
0.153592

> <r_epik_Charging_Adjusted_Penalty>
0.334379

> <i_epik_Tot_Q>
2

> <i_epik_Tot_abs_Q>
2

> <r_epik_Metal_State_Penalty>
0.153595

> <b_epik_Metal_Only>
0

> <s_lp_Force_Field>
OPLS_2005

> <r_lp_Energy>
48.731

> <b_lp_Chiralities_Consistent>
1

> <s_lp_Variant>
AV-unprocessed.smi:2237-4

> <Gold.Version>
5.8.1

> <Gold.Id.Protein>
6NUR|6NUR_protein|mol2

> <Gold.PLP.Fitness>
49.4666

> <Gold.PLP.PLP>
-38.3146

> <Gold.PLP.part.hbond>
-3.0000

> <Gold.PLP.part.metal>
0.0000

> <Gold.PLP.part.buried>
0.5590

> <Gold.PLP.part.nonpolar>
-35.9203

> <Gold.PLP.part.repulsive>
0.1846

> <Gold.PLP.ligand.clash>
0.0096

> <Gold.PLP.ligand.torsion>
0.3585

> <Gold.PLP.Chemscore.Hbond>
3.9440

> <Gold.PLP.Chemscore.CHOScore>
0.0000

> <Gold.PLP.Chemscore.Metal>
0.0000

> <Gold.Chemscore.Hbonds>
donor molecule, donor type, donor heavy atom, donor atom, acceptor molecule, acceptor atom, score
      L1  H     7    31       P1  8028  1.00
      L1  H    10    32       P1  8028  0.93
      L1  H    14    54       P1  7948  2.00

> <Gold.PLP.Chemscore.Internal.Correction>
0.0465

> <Gold.Rescore>
     Score         DG    S(hbond)    S(metal)    S(lipo)     H(rot)  DE(clash)    DE(int)     intcor
     18.74     -24.42       2.79        0.00     109.05       1.23       2.62       3.06       ----

> <Gold.Chemscore.Fitness>
18.7386

> <Gold.Chemscore.DG>
-24.4162

> <Gold.Chemscore.ZeroCoef>
-5.4800

> <Gold.Chemscore.Hbond>
2.7920

> <Gold.Chemscore.Metal>
0.0000

> <Gold.Chemscore.Lipo>
109.0474

> <Gold.Chemscore.Internal_Hbond>
0.0000

> <Gold.Chemscore.DEClash>
2.6175

> <Gold.Chemscore.DEInternal>
3.0602

> <Gold.Chemscore.Rot>
1.2295

> <Gold.Chemscore.Internal.Correction>
   9.000000E+99

> <Gold.Chemscore.Hbonds>
donor molecule, donor type, donor heavy atom, donor atom, acceptor molecule, acceptor atom, score
      L1  H     7    31       P1  8028  0.78
      L1  H    10    32       P1  8028  0.88
      L1  H    14    54       P1  7948  0.93

> <Gold.Chemscore.Hbond.Weighted>
-9.3251

> <Gold.Chemscore.Metal.Weighted>
-0.0000

> <Gold.Chemscore.Lipo.Weighted>
-12.7585

> <Gold.Chemscore.Internal_Hbond.Weighted>
0.0000

> <Gold.Chemscore.DEClash.Weighted>
2.6175

> <Gold.Chemscore.DEInternal.Weighted>
3.0602

> <Gold.Chemscore.Rot.Weighted>
3.1474

> <Gold.Chemscore.Internal.Correction.Weighted>
   9.000000E+99

> <Gold.Protein.RotatedTorsions>
[ 6907 6896 6895 6894 ] final   -3.89 input  -60.11 | X-H torsion
[ 7974 7965 7964 7962 ] final -135.68 input  175.53 | X-H torsion
[ 8008 7997 7996 7995 ] final  -12.08 input   59.86 | X-H torsion
[ 10167 10162 10161 10158 ] final    1.28 input  -65.29 | X-H torsion
[ 10718 10713 10712 10709 ] final   -7.18 input   66.30 | X-H torsion
[ 10763 10752 10751 10750 ] final  177.32 input  -60.55 | X-H torsion
[ 11005 11000 10999 10996 ] final -150.18 input  -57.11 | X-H torsion

> <Gold.Protein.ActiveResidues>
 VAL166  LYS551  ARG553  GLY616  TRP617  ASP618  TYR619  PRO620  LYS621  CYS622 
 ASP623  PHE694  ASN695  SER759  ASP760  ASP761  ALA762  ILE779  LEU786  VAL792 
 PHE793  MET794  SER795  GLU796  ALA797  LYS798  CYS799  TRP800  GLU811  SER814 

> <Gold.Protein.RotatedAtoms>
  151.5065  135.1063  159.9842 H   0  0  0  0  0  0  0  0  0  0  0  0  # atno 6907 bound_to 6896
  152.4679  133.7961  159.6938 H   0  0  0  0  0  0  0  0  0  0  0  0  # atno 6908 bound_to 6896
  150.8673  133.7493  159.2998 H   0  0  0  0  0  0  0  0  0  0  0  0  # atno 6909 bound_to 6896
  144.8992  140.6749  143.5095 H   0  0  0  0  0  0  0  0  0  0  0  0  # atno 7974 bound_to 7965
  154.5409  140.2285  155.8643 H   0  0  0  0  0  0  0  0  0  0  0  0  # atno 8008 bound_to 7997
  156.1857  140.3089  155.9196 H   0  0  0  0  0  0  0  0  0  0  0  0  # atno 8009 bound_to 7997
  155.3261  140.0443  157.3031 H   0  0  0  0  0  0  0  0  0  0  0  0  # atno 8010 bound_to 7997
  140.6690  143.7101  150.7884 H   0  0  0  0  0  0  0  0  0  0  0  0  # atno 10167 bound_to 10162
  156.7209  130.5151  149.5868 H   0  0  0  0  0  0  0  0  0  0  0  0  # atno 10718 bound_to 10713
  154.4929  135.2780  155.1482 H   0  0  0  0  0  0  0  0  0  0  0  0  # atno 10763 bound_to 10752
  154.3147  135.6222  153.5484 H   0  0  0  0  0  0  0  0  0  0  0  0  # atno 10764 bound_to 10752
  152.9890  135.5728  154.5354 H   0  0  0  0  0  0  0  0  0  0  0  0  # atno 10765 bound_to 10752
  140.7429  134.3493  157.5143 H   0  0  0  0  0  0  0  0  0  0  0  0  # atno 11005 bound_to 11000
  145.3645  139.1673  143.4365 LP  0  0  0  0  0  0  0  0  0  0  0  0  # atno 17320 bound_to 7965
  146.3099  140.3711  142.8674 LP  0  0  0  0  0  0  0  0  0  0  0  0  # atno 17321 bound_to 7965
  140.0783  143.4993  152.2543 LP  0  0  0  0  0  0  0  0  0  0  0  0  # atno 17342 bound_to 10162
  139.5950  144.7564  151.3308 LP  0  0  0  0  0  0  0  0  0  0  0  0  # atno 17343 bound_to 10162
  156.1595  130.6364  151.0700 LP  0  0  0  0  0  0  0  0  0  0  0  0  # atno 17370 bound_to 10713
  157.6898  131.0813  150.7140 LP  0  0  0  0  0  0  0  0  0  0  0  0  # atno 17371 bound_to 10713
  139.8802  134.9092  156.2986 LP  0  0  0  0  0  0  0  0  0  0  0  0  # atno 17394 bound_to 11000
  140.9820  133.7261  156.0686 LP  0  0  0  0  0  0  0  0  0  0  0  0  # atno 17395 bound_to 11000

$$$$
