AV-unprocessed.smi:1107|AV-procd|sdf|4781|dock2
  -GOLD-   22720 3323D 1   1.00000     0.00000
 Structure written by MMmdl.
 49 50  0  0  0  0  0  0  0  0  2 V2000
  151.5817  143.5115  158.0158 C   0  0  0  0  0  0  0  0  0  0  0  0
  151.3162  142.3193  157.1213 C   0  0  0  0  0  0  0  0  0  0  0  0
  151.8738  141.1635  157.2757 N   0  0  0  0  0  0  0  0  0  0  0  0
  151.5457  140.1314  156.3854 C   0  0  0  0  0  0  0  0  0  0  0  0
  152.2389  138.8038  156.6400 C   0  0  0  0  0  0  0  0  0  0  0  0
  150.6546  140.3216  155.3684 C   0  0  0  0  0  0  0  0  0  0  0  0
  150.2664  139.2275  154.3763 C   0  0  0  0  0  0  0  0  0  0  0  0
  148.8430  138.6849  154.5193 C   0  0  0  0  0  0  0  0  0  0  0  0
  148.4422  138.2726  155.6072 O   0  0  0  0  0  0  0  0  0  0  0  0
  148.0866  138.6943  153.4101 N   0  0  0  0  0  0  0  0  0  0  0  0
  146.7148  138.1973  153.2995 C   0  0  2  0  0  0  0  0  0  0  0  0
  145.7997  139.0542  154.1846 C   0  0  0  0  0  0  0  0  0  0  0  0
  146.6260  136.7020  153.6815 C   0  0  0  0  0  0  0  0  0  0  0  0
  146.4076  135.8126  152.5116 N   0  3  0  0  0  0  0  0  0  0  0  0
  146.3559  134.3750  152.8822 C   0  0  0  0  0  0  0  0  0  0  0  0
  146.2955  133.4851  151.6291 C   0  0  0  0  0  0  0  0  0  0  0  0
  145.1049  133.8658  150.7390 C   0  0  0  0  0  0  0  0  0  0  0  0
  145.1572  135.3624  150.4042 C   0  0  0  0  0  0  0  0  0  0  0  0
  145.2364  136.2085  151.6855 C   0  0  0  0  0  0  0  0  0  0  0  0
  150.0312  141.6476  155.1958 C   0  0  0  0  0  0  0  0  0  0  0  0
  149.2313  141.9280  154.3043 O   0  0  0  0  0  0  0  0  0  0  0  0
  150.4033  142.5801  156.1007 N   0  0  0  0  0  0  0  0  0  0  0  0
  150.0029  143.5039  156.0261 H   0  0  0  0  0  0  0  0  0  0  0  0
  151.3392  143.2656  159.0499 H   0  0  0  0  0  0  0  0  0  0  0  0
  150.9851  144.3766  157.7227 H   0  0  0  0  0  0  0  0  0  0  0  0
  152.6345  143.7901  157.9673 H   0  0  0  0  0  0  0  0  0  0  0  0
  152.7611  138.4602  155.7476 H   0  0  0  0  0  0  0  0  0  0  0  0
  151.5127  138.0451  156.9323 H   0  0  0  0  0  0  0  0  0  0  0  0
  152.9734  138.8885  157.4415 H   0  0  0  0  0  0  0  0  0  0  0  0
  150.3707  139.6022  153.3586 H   0  0  0  0  0  0  0  0  0  0  0  0
  150.9842  138.4079  154.4409 H   0  0  0  0  0  0  0  0  0  0  0  0
  148.5081  139.0459  152.5620 H   0  0  0  0  0  0  0  0  0  0  0  0
  146.3681  138.3272  152.2734 H   0  0  0  0  0  0  0  0  0  0  0  0
  144.7606  138.7356  154.0982 H   0  0  0  0  0  0  0  0  0  0  0  0
  145.8454  140.1050  153.8960 H   0  0  0  0  0  0  0  0  0  0  0  0
  146.0825  138.9853  155.2356 H   0  0  0  0  0  0  0  0  0  0  0  0
  147.5612  136.4262  154.1715 H   0  0  0  0  0  0  0  0  0  0  0  0
  145.8395  136.5367  154.4192 H   0  0  0  0  0  0  0  0  0  0  0  0
  147.2408  134.1109  153.4625 H   0  0  0  0  0  0  0  0  0  0  0  0
  145.4896  134.1926  153.5203 H   0  0  0  0  0  0  0  0  0  0  0  0
  147.2225  133.5884  151.0630 H   0  0  0  0  0  0  0  0  0  0  0  0
  146.2247  132.4362  151.9185 H   0  0  0  0  0  0  0  0  0  0  0  0
  145.1126  133.2737  149.8235 H   0  0  0  0  0  0  0  0  0  0  0  0
  144.1710  133.6351  151.2534 H   0  0  0  0  0  0  0  0  0  0  0  0
  146.0247  135.5687  149.7752 H   0  0  0  0  0  0  0  0  0  0  0  0
  144.2792  135.6456  149.8230 H   0  0  0  0  0  0  0  0  0  0  0  0
  144.3214  136.0934  152.2686 H   0  0  0  0  0  0  0  0  0  0  0  0
  145.3044  137.2611  151.4122 H   0  0  0  0  0  0  0  0  0  0  0  0
  147.2241  135.9193  151.9260 H   0  0  0  0  0  0  0  0  0  0  0  0
  1  2  1  0  0  0  0
  1 24  1  0  0  0  0
  1 25  1  0  0  0  0
  1 26  1  0  0  0  0
  2 22  1  0  0  0  0
  2  3  2  0  0  0  0
  3  4  1  0  0  0  0
  4  5  1  0  0  0  0
  4  6  2  0  0  0  0
  5 27  1  0  0  0  0
  5 28  1  0  0  0  0
  5 29  1  0  0  0  0
  6  7  1  0  0  0  0
  6 20  1  0  0  0  0
  7  8  1  0  0  0  0
  7 30  1  0  0  0  0
  7 31  1  0  0  0  0
  8  9  2  0  0  0  0
  8 10  1  0  0  0  0
 10 11  1  0  0  0  0
 10 32  1  0  0  0  0
 11 12  1  0  0  0  0
 11 13  1  0  0  0  0
 11 33  1  0  0  0  0
 12 34  1  0  0  0  0
 12 35  1  0  0  0  0
 12 36  1  0  0  0  0
 13 14  1  0  0  0  0
 13 37  1  0  0  0  0
 13 38  1  0  0  0  0
 14 19  1  0  0  0  0
 14 15  1  0  0  0  0
 14 49  1  0  0  0  0
 15 16  1  0  0  0  0
 15 39  1  0  0  0  0
 15 40  1  0  0  0  0
 16 17  1  0  0  0  0
 16 41  1  0  0  0  0
 16 42  1  0  0  0  0
 17 18  1  0  0  0  0
 17 43  1  0  0  0  0
 17 44  1  0  0  0  0
 18 19  1  0  0  0  0
 18 45  1  0  0  0  0
 18 46  1  0  0  0  0
 19 47  1  0  0  0  0
 19 48  1  0  0  0  0
 20 21  2  0  0  0  0
 20 22  1  0  0  0  0
 22 23  1  0  0  0  0
M  CHG  1  14   1
M  END
> <s_m_source_file>
AV-unprocessed.smi

> <i_m_source_file_index>
1107

> <i_lp_mmshare_version>
43012

> <i_f3d_flags>
0

> <s_epik_input>
W0NIM11jMW5jKFtDSDNdKWMoYyg9TylbbkhdMSlbQ0gyXUMoPU8pW05IXVtDQEhdKFtDSDNdKVtDSDJdTjJbQ0gyXVtDSDJdW0NIMl1bQ0gyXVtDSDJdMg==

> <s_epik_cmdline>
J2VwaWtfcHl0aG9uJywgJy1waCcsICc3LjAnLCAnLXRuJywgJzgnLCAnLW1hJywgJzIwMCcsICctbWV0YWxfYmluZGluZycsICctaW1hZScsICc8aW5maWxlLm1hZT4nLCAnLW9tYWUnLCAnPG91dGZpbGUubWFlPic=

> <r_lp_tautomer_probability>
0.839158

> <r_epik_Ionization_Penalty>
0.00280224

> <r_epik_Ionization_Penalty_Charging>
0.00277925

> <r_epik_Ionization_Penalty_Neutral>
2.29856e-05

> <r_epik_State_Penalty>
0.09125

> <r_epik_Charging_Adjusted_Penalty>
0.0940293

> <i_epik_Tot_Q>
1

> <i_epik_Tot_abs_Q>
1

> <r_epik_Metal_State_Penalty>
0.283823

> <b_epik_Metal_Only>
0

> <s_lp_Force_Field>
OPLS_2005

> <r_lp_Energy>
24.1286

> <b_lp_Chiralities_Consistent>
1

> <s_lp_Variant>
AV-unprocessed.smi:1107-1

> <Gold.Version>
5.8.1

> <Gold.Id.Protein>
6NUR|6NUR_protein|mol2

> <Gold.PLP.Fitness>
43.7123

> <Gold.PLP.PLP>
-32.6495

> <Gold.PLP.part.hbond>
-5.3441

> <Gold.PLP.part.metal>
0.0000

> <Gold.PLP.part.buried>
2.3793

> <Gold.PLP.part.nonpolar>
-28.1082

> <Gold.PLP.part.repulsive>
0.6020

> <Gold.PLP.ligand.clash>
0.0000

> <Gold.PLP.ligand.torsion>
0.8586

> <Gold.PLP.Chemscore.Hbond>
4.2347

> <Gold.PLP.Chemscore.CHOScore>
0.0000

> <Gold.PLP.Chemscore.Metal>
0.0000

> <Gold.Chemscore.Hbonds>
donor molecule, donor type, donor heavy atom, donor atom, acceptor molecule, acceptor atom, score
      L1  H    10    32       P1  7957  1.00
      L1  H    14    49       P1  7948  1.92
      L1  H    22    23       P1  8028  1.00
      P1  H  8011  8017       L1    21  0.33

> <Gold.PLP.Chemscore.Internal.Correction>
0.0758

> <Gold.Rescore>
     Score         DG    S(hbond)    S(metal)    S(lipo)     H(rot)  DE(clash)    DE(int)     intcor
     17.02     -19.85       3.26        0.00      73.24       1.98       1.03       1.80       ----

> <Gold.Chemscore.Fitness>
17.0184

> <Gold.Chemscore.DG>
-19.8521

> <Gold.Chemscore.ZeroCoef>
-5.4800

> <Gold.Chemscore.Hbond>
3.2579

> <Gold.Chemscore.Metal>
0.0000

> <Gold.Chemscore.Lipo>
73.2398

> <Gold.Chemscore.Internal_Hbond>
0.0000

> <Gold.Chemscore.DEClash>
1.0307

> <Gold.Chemscore.DEInternal>
1.8030

> <Gold.Chemscore.Rot>
1.9837

> <Gold.Chemscore.Internal.Correction>
   9.000000E+99

> <Gold.Chemscore.Hbonds>
donor molecule, donor type, donor heavy atom, donor atom, acceptor molecule, acceptor atom, score
      L1  H    10    32       P1  7957  0.93
      L1  H    14    49       P1  7948  0.92
      L1  H    22    23       P1  8028  1.00
      P1  H  8011  8017       L1    21  0.32

> <Gold.Chemscore.Hbond.Weighted>
-10.8814

> <Gold.Chemscore.Metal.Weighted>
-0.0000

> <Gold.Chemscore.Lipo.Weighted>
-8.5691

> <Gold.Chemscore.Internal_Hbond.Weighted>
0.0000

> <Gold.Chemscore.DEClash.Weighted>
1.0307

> <Gold.Chemscore.DEInternal.Weighted>
1.8030

> <Gold.Chemscore.Rot.Weighted>
5.0783

> <Gold.Chemscore.Internal.Correction.Weighted>
   9.000000E+99

> <Gold.Protein.RotatedTorsions>
[ 6907 6896 6895 6894 ] final  -18.75 input  -60.11 | X-H torsion
[ 7974 7965 7964 7962 ] final -168.35 input  175.53 | X-H torsion
[ 8008 7997 7996 7995 ] final  -57.55 input   59.86 | X-H torsion
[ 10167 10162 10161 10158 ] final -161.88 input  -65.29 | X-H torsion
[ 10718 10713 10712 10709 ] final  133.77 input   66.30 | X-H torsion
[ 10763 10752 10751 10750 ] final  112.37 input  -60.55 | X-H torsion
[ 11005 11000 10999 10996 ] final   86.68 input  -57.11 | X-H torsion

> <Gold.Protein.ActiveResidues>
 VAL166  LYS551  ARG553  GLY616  TRP617  ASP618  TYR619  PRO620  LYS621  CYS622 
 ASP623  PHE694  ASN695  SER759  ASP760  ASP761  ALA762  ILE779  LEU786  VAL792 
 PHE793  MET794  SER795  GLU796  ALA797  LYS798  CYS799  TRP800  GLU811  SER814 

> <Gold.Protein.RotatedAtoms>
  151.2734  135.0692  159.9142 H   0  0  0  0  0  0  0  0  0  0  0  0  # atno 6907 bound_to 6896
  152.5346  134.0106  159.7947 H   0  0  0  0  0  0  0  0  0  0  0  0  # atno 6908 bound_to 6896
  151.0348  133.5708  159.2688 H   0  0  0  0  0  0  0  0  0  0  0  0  # atno 6909 bound_to 6896
  144.7205  140.2383  143.6295 H   0  0  0  0  0  0  0  0  0  0  0  0  # atno 7974 bound_to 7965
  154.4272  140.1104  156.5815 H   0  0  0  0  0  0  0  0  0  0  0  0  # atno 8008 bound_to 7997
  155.6107  140.3494  155.4602 H   0  0  0  0  0  0  0  0  0  0  0  0  # atno 8009 bound_to 7997
  156.0101  140.1217  157.0452 H   0  0  0  0  0  0  0  0  0  0  0  0  # atno 8010 bound_to 7997
  139.6433  144.0219  152.2108 H   0  0  0  0  0  0  0  0  0  0  0  0  # atno 10167 bound_to 10162
  157.4740  131.1082  150.9767 H   0  0  0  0  0  0  0  0  0  0  0  0  # atno 10718 bound_to 10713
  153.4768  135.3688  155.2421 H   0  0  0  0  0  0  0  0  0  0  0  0  # atno 10763 bound_to 10752
  154.8756  135.3945  154.3747 H   0  0  0  0  0  0  0  0  0  0  0  0  # atno 10764 bound_to 10752
  153.4344  135.7083  153.6275 H   0  0  0  0  0  0  0  0  0  0  0  0  # atno 10765 bound_to 10752
  139.8938  134.8371  156.2754 H   0  0  0  0  0  0  0  0  0  0  0  0  # atno 11005 bound_to 11000
  145.8344  139.2100  143.1864 LP  0  0  0  0  0  0  0  0  0  0  0  0  # atno 17320 bound_to 7965
  146.0402  140.8172  142.9832 LP  0  0  0  0  0  0  0  0  0  0  0  0  # atno 17321 bound_to 7965
  139.9914  144.6358  150.7811 LP  0  0  0  0  0  0  0  0  0  0  0  0  # atno 17342 bound_to 10162
  140.7502  143.2951  151.3226 LP  0  0  0  0  0  0  0  0  0  0  0  0  # atno 17343 bound_to 10162
  157.0523  130.5792  149.5372 LP  0  0  0  0  0  0  0  0  0  0  0  0  # atno 17370 bound_to 10713
  156.0087  130.5177  150.7917 LP  0  0  0  0  0  0  0  0  0  0  0  0  # atno 17371 bound_to 10713
  141.0073  133.7116  156.1056 LP  0  0  0  0  0  0  0  0  0  0  0  0  # atno 17394 bound_to 11000
  140.7415  134.4144  157.5554 LP  0  0  0  0  0  0  0  0  0  0  0  0  # atno 17395 bound_to 11000

$$$$
