AV-unprocessed.smi:2270|AV-procd|sdf|9154|dock7
  -GOLD-   2272012363D 1   1.00000     0.00000
 Structure written by MMmdl.
 53 54  0  0  0  0  0  0  0  0  2 V2000
  153.3485  141.8693  161.2734 C   0  0  0  0  0  0  0  0  0  0  0  0
  152.4573  142.8970  160.6083 C   0  0  0  0  0  0  0  0  0  0  0  0
  152.2176  144.1466  161.2116 C   0  0  0  0  0  0  0  0  0  0  0  0
  151.3853  145.0582  160.5385 C   0  0  0  0  0  0  0  0  0  0  0  0
  150.8246  144.6836  159.3024 C   0  0  0  0  0  0  0  0  0  0  0  0
  151.1026  143.3969  158.7739 C   0  0  0  0  0  0  0  0  0  0  0  0
  150.5748  143.0039  157.5157 N   0  0  0  0  0  0  0  0  0  0  0  0
  150.7383  141.8334  156.8749 C   0  0  0  0  0  0  0  0  0  0  0  0
  151.3984  140.8814  157.2918 O   0  0  0  0  0  0  0  0  0  0  0  0
  150.0941  141.8298  155.6994 N   0  0  0  0  0  0  0  0  0  0  0  0
  150.0417  140.7057  154.7727 C   0  0  0  0  0  0  0  0  0  0  0  0
  148.5840  140.2449  154.4638 C   0  0  2  0  0  0  0  0  0  0  0  0
  147.7922  141.2567  153.5631 C   0  0  0  0  0  0  0  0  0  0  0  0
  146.9808  142.2882  154.3684 C   0  0  0  0  0  0  0  0  0  0  0  0
  146.9231  140.5840  152.4842 C   0  0  0  0  0  0  0  0  0  0  0  0
  147.7993  139.9693  155.6925 N   0  0  0  0  0  0  0  0  0  0  0  0
  146.4699  139.3763  155.4589 C   0  0  0  0  0  0  0  0  0  0  0  0
  146.5469  137.8900  155.0456 C   0  0  0  0  0  0  0  0  0  0  0  0
  147.2600  137.1010  156.0749 N   0  3  0  0  0  0  0  0  0  0  0  0
  147.3245  135.6603  155.7504 C   0  0  0  0  0  0  0  0  0  0  0  0
  148.5898  137.6910  156.3445 C   0  0  0  0  0  0  0  0  0  0  0  0
  148.4358  139.1715  156.7518 C   0  0  0  0  0  0  0  0  0  0  0  0
  151.9223  142.5366  159.4212 N   0  0  0  0  0  0  0  0  0  0  0  0
  153.7538  142.2460  162.2130 H   0  0  0  0  0  0  0  0  0  0  0  0
  154.1837  141.6120  160.6214 H   0  0  0  0  0  0  0  0  0  0  0  0
  152.7851  140.9605  161.4865 H   0  0  0  0  0  0  0  0  0  0  0  0
  152.6621  144.4050  162.1616 H   0  0  0  0  0  0  0  0  0  0  0  0
  151.1833  146.0316  160.9602 H   0  0  0  0  0  0  0  0  0  0  0  0
  150.2023  145.3907  158.7749 H   0  0  0  0  0  0  0  0  0  0  0  0
  150.0983  143.7307  157.0026 H   0  0  0  0  0  0  0  0  0  0  0  0
  149.5823  142.6594  155.4365 H   0  0  0  0  0  0  0  0  0  0  0  0
  150.5426  141.0617  153.8740 H   0  0  0  0  0  0  0  0  0  0  0  0
  150.6316  139.8652  155.1424 H   0  0  0  0  0  0  0  0  0  0  0  0
  148.6718  139.3060  153.9191 H   0  0  0  0  0  0  0  0  0  0  0  0
  148.4975  141.8686  153.0074 H   0  0  0  0  0  0  0  0  0  0  0  0
  146.1081  141.8533  154.8520 H   0  0  0  0  0  0  0  0  0  0  0  0
  146.6155  143.0818  153.7160 H   0  0  0  0  0  0  0  0  0  0  0  0
  147.5932  142.7589  155.1379 H   0  0  0  0  0  0  0  0  0  0  0  0
  146.0771  140.0480  152.9138 H   0  0  0  0  0  0  0  0  0  0  0  0
  147.5053  139.8747  151.8953 H   0  0  0  0  0  0  0  0  0  0  0  0
  146.5177  141.3248  151.7944 H   0  0  0  0  0  0  0  0  0  0  0  0
  145.8932  139.4595  156.3812 H   0  0  0  0  0  0  0  0  0  0  0  0
  145.8970  139.9248  154.7153 H   0  0  0  0  0  0  0  0  0  0  0  0
  145.5361  137.4956  154.9342 H   0  0  0  0  0  0  0  0  0  0  0  0
  147.0329  137.7719  154.0768 H   0  0  0  0  0  0  0  0  0  0  0  0
  147.8953  135.4889  154.8367 H   0  0  0  0  0  0  0  0  0  0  0  0
  146.3227  135.2535  155.6095 H   0  0  0  0  0  0  0  0  0  0  0  0
  147.7987  135.1050  156.5602 H   0  0  0  0  0  0  0  0  0  0  0  0
  149.0693  137.1400  157.1543 H   0  0  0  0  0  0  0  0  0  0  0  0
  149.2288  137.5839  155.4671 H   0  0  0  0  0  0  0  0  0  0  0  0
  149.3917  139.5990  157.0516 H   0  0  0  0  0  0  0  0  0  0  0  0
  147.8138  139.2307  157.6463 H   0  0  0  0  0  0  0  0  0  0  0  0
  146.7270  137.1861  156.9287 H   0  0  0  0  0  0  0  0  0  0  0  0
  1  2  1  0  0  0  0
  1 24  1  0  0  0  0
  1 25  1  0  0  0  0
  1 26  1  0  0  0  0
  2 23  1  0  0  0  0
  2  3  2  0  0  0  0
  3  4  1  0  0  0  0
  3 27  1  0  0  0  0
  4  5  2  0  0  0  0
  4 28  1  0  0  0  0
  5  6  1  0  0  0  0
  5 29  1  0  0  0  0
  6  7  1  0  0  0  0
  6 23  2  0  0  0  0
  7  8  1  0  0  0  0
  7 30  1  0  0  0  0
  8  9  2  0  0  0  0
  8 10  1  0  0  0  0
 10 11  1  0  0  0  0
 10 31  1  0  0  0  0
 11 12  1  0  0  0  0
 11 32  1  0  0  0  0
 11 33  1  0  0  0  0
 12 13  1  0  0  0  0
 12 16  1  0  0  0  0
 12 34  1  0  0  0  0
 13 14  1  0  0  0  0
 13 15  1  0  0  0  0
 13 35  1  0  0  0  0
 14 36  1  0  0  0  0
 14 37  1  0  0  0  0
 14 38  1  0  0  0  0
 15 39  1  0  0  0  0
 15 40  1  0  0  0  0
 15 41  1  0  0  0  0
 16 22  1  0  0  0  0
 16 17  1  0  0  0  0
 17 18  1  0  0  0  0
 17 42  1  0  0  0  0
 17 43  1  0  0  0  0
 18 19  1  0  0  0  0
 18 44  1  0  0  0  0
 18 45  1  0  0  0  0
 19 20  1  0  0  0  0
 19 21  1  0  0  0  0
 19 53  1  0  0  0  0
 20 46  1  0  0  0  0
 20 47  1  0  0  0  0
 20 48  1  0  0  0  0
 21 22  1  0  0  0  0
 21 49  1  0  0  0  0
 21 50  1  0  0  0  0
 22 51  1  0  0  0  0
 22 52  1  0  0  0  0
M  CHG  1  19   1
M  END
> <s_m_source_file>
AV-unprocessed.smi

> <i_m_source_file_index>
2270

> <i_lp_mmshare_version>
43012

> <i_f3d_flags>
0

> <s_epik_input>
W0NIM11jMVtjSF1bY0hdW2NIXWMobjEpW05IXUMoPU8pW05IXVtDSDJdW0NASF0oW0NIXShbQ0gzXSlbQ0gzXSlOMltDSDJdW0NIMl1OKFtDSDNdKVtDSDJdW0NIMl0y

> <s_epik_cmdline>
J2VwaWtfcHl0aG9uJywgJy1waCcsICc3LjAnLCAnLXRuJywgJzgnLCAnLW1hJywgJzIwMCcsICctbWV0YWxfYmluZGluZycsICctaW1hZScsICc8aW5maWxlLm1hZT4nLCAnLW9tYWUnLCAnPG91dGZpbGUubWFlPic=

> <r_epik_Ionization_Penalty>
0.0278292

> <r_epik_Ionization_Penalty_Charging>
0.0272987

> <r_epik_Ionization_Penalty_Neutral>
0.000530468

> <r_epik_State_Penalty>
0.0776825

> <r_epik_Charging_Adjusted_Penalty>
0.104981

> <i_epik_Tot_Q>
1

> <i_epik_Tot_abs_Q>
1

> <r_epik_Metal_State_Penalty>
0.0776809

> <b_epik_Metal_Only>
0

> <s_lp_Force_Field>
OPLS_2005

> <r_lp_Energy>
34.9975

> <b_lp_Chiralities_Consistent>
1

> <s_lp_Variant>
AV-unprocessed.smi:2270-1

> <Gold.Version>
5.8.1

> <Gold.Id.Protein>
6NUR|6NUR_protein|mol2

> <Gold.PLP.Fitness>
43.3065

> <Gold.PLP.PLP>
-39.8070

> <Gold.PLP.part.hbond>
-2.0000

> <Gold.PLP.part.metal>
0.0000

> <Gold.PLP.part.buried>
-3.4182

> <Gold.PLP.part.nonpolar>
-34.0181

> <Gold.PLP.part.repulsive>
0.1839

> <Gold.PLP.ligand.clash>
0.0000

> <Gold.PLP.ligand.torsion>
1.0025

> <Gold.PLP.Chemscore.Hbond>
1.7644

> <Gold.PLP.Chemscore.CHOScore>
0.0000

> <Gold.PLP.Chemscore.Metal>
0.0000

> <Gold.Chemscore.Hbonds>
donor molecule, donor type, donor heavy atom, donor atom, acceptor molecule, acceptor atom, score
      L1  H     7    30       P1  8028  0.96
      L1  H    10    31       P1  8028  0.62

> <Gold.PLP.Chemscore.Internal.Correction>
0.2113

> <Gold.Rescore>
     Score         DG    S(hbond)    S(metal)    S(lipo)     H(rot)  DE(clash)    DE(int)     intcor
     15.97     -18.64       1.87        0.00      94.17       1.61       0.23       2.45       ----

> <Gold.Chemscore.Fitness>
15.9650

> <Gold.Chemscore.DG>
-18.6449

> <Gold.Chemscore.ZeroCoef>
-5.4800

> <Gold.Chemscore.Hbond>
1.8745

> <Gold.Chemscore.Metal>
0.0000

> <Gold.Chemscore.Lipo>
94.1701

> <Gold.Chemscore.Internal_Hbond>
0.0000

> <Gold.Chemscore.DEClash>
0.2283

> <Gold.Chemscore.DEInternal>
2.4515

> <Gold.Chemscore.Rot>
1.6070

> <Gold.Chemscore.Internal.Correction>
   9.000000E+99

> <Gold.Chemscore.Hbonds>
donor molecule, donor type, donor heavy atom, donor atom, acceptor molecule, acceptor atom, score
      L1  H     7    30       P1  8028  0.90
      L1  H    10    31       P1  8028  0.62

> <Gold.Chemscore.Hbond.Weighted>
-6.2609

> <Gold.Chemscore.Metal.Weighted>
-0.0000

> <Gold.Chemscore.Lipo.Weighted>
-11.0179

> <Gold.Chemscore.Internal_Hbond.Weighted>
0.0000

> <Gold.Chemscore.DEClash.Weighted>
0.2283

> <Gold.Chemscore.DEInternal.Weighted>
2.4515

> <Gold.Chemscore.Rot.Weighted>
4.1140

> <Gold.Chemscore.Internal.Correction.Weighted>
   9.000000E+99

> <Gold.Protein.RotatedTorsions>
[ 6907 6896 6895 6894 ] final  121.96 input  -60.11 | X-H torsion
[ 7974 7965 7964 7962 ] final  131.80 input  175.53 | X-H torsion
[ 8008 7997 7996 7995 ] final   43.75 input   59.86 | X-H torsion
[ 10167 10162 10161 10158 ] final -149.30 input  -65.29 | X-H torsion
[ 10718 10713 10712 10709 ] final  116.82 input   66.30 | X-H torsion
[ 10763 10752 10751 10750 ] final  129.89 input  -60.55 | X-H torsion
[ 11005 11000 10999 10996 ] final  164.92 input  -57.11 | X-H torsion

> <Gold.Protein.ActiveResidues>
 VAL166  LYS551  ARG553  GLY616  TRP617  ASP618  TYR619  PRO620  LYS621  CYS622 
 ASP623  PHE694  ASN695  SER759  ASP760  ASP761  ALA762  ILE779  LEU786  VAL792 
 PHE793  MET794  SER795  GLU796  ALA797  LYS798  CYS799  TRP800  GLU811  SER814 

> <Gold.Protein.RotatedAtoms>
  152.4281  133.7230  159.6543 H   0  0  0  0  0  0  0  0  0  0  0  0  # atno 6907 bound_to 6896
  150.8158  133.8328  159.3167 H   0  0  0  0  0  0  0  0  0  0  0  0  # atno 6908 bound_to 6896
  151.6025  135.1048  160.0115 H   0  0  0  0  0  0  0  0  0  0  0  0  # atno 6909 bound_to 6896
  145.0035  139.4289  143.5280 H   0  0  0  0  0  0  0  0  0  0  0  0  # atno 7974 bound_to 7965
  155.3079  140.3389  155.4245 H   0  0  0  0  0  0  0  0  0  0  0  0  # atno 8008 bound_to 7997
  156.1970  140.1718  156.8016 H   0  0  0  0  0  0  0  0  0  0  0  0  # atno 8009 bound_to 7997
  154.5511  140.0705  156.8653 H   0  0  0  0  0  0  0  0  0  0  0  0  # atno 8010 bound_to 7997
  139.7455  143.8597  152.2573 H   0  0  0  0  0  0  0  0  0  0  0  0  # atno 10167 bound_to 10162
  157.6136  131.1030  150.7528 H   0  0  0  0  0  0  0  0  0  0  0  0  # atno 10718 bound_to 10713
  153.7491  135.3212  155.3318 H   0  0  0  0  0  0  0  0  0  0  0  0  # atno 10763 bound_to 10752
  154.8269  135.4563  154.0949 H   0  0  0  0  0  0  0  0  0  0  0  0  # atno 10764 bound_to 10752
  153.2147  135.6940  153.8154 H   0  0  0  0  0  0  0  0  0  0  0  0  # atno 10765 bound_to 10752
  140.2509  134.7978  157.3500 H   0  0  0  0  0  0  0  0  0  0  0  0  # atno 11005 bound_to 11000
  146.3456  139.9437  142.8737 LP  0  0  0  0  0  0  0  0  0  0  0  0  # atno 17320 bound_to 7965
  145.2121  140.9900  143.4095 LP  0  0  0  0  0  0  0  0  0  0  0  0  # atno 17321 bound_to 7965
  139.8560  144.7141  150.9156 LP  0  0  0  0  0  0  0  0  0  0  0  0  # atno 17342 bound_to 10162
  140.7791  143.3858  151.1396 LP  0  0  0  0  0  0  0  0  0  0  0  0  # atno 17343 bound_to 10162
  156.7900  130.4887  149.5386 LP  0  0  0  0  0  0  0  0  0  0  0  0  # atno 17370 bound_to 10713
  156.1248  130.6136  151.0248 LP  0  0  0  0  0  0  0  0  0  0  0  0  # atno 17371 bound_to 10713
  140.1559  134.4790  155.7928 LP  0  0  0  0  0  0  0  0  0  0  0  0  # atno 17394 bound_to 11000
  141.2201  133.6881  156.7460 LP  0  0  0  0  0  0  0  0  0  0  0  0  # atno 17395 bound_to 11000

$$$$
