AV-unprocessed.smi:3261|AV-procd|sdf|12478|dock1
  -GOLD-   2272018383D 1   1.00000     0.00000
 Structure written by MMmdl.
 30 31  0  0  0  0  0  0  0  0  1 V2000
  147.1246  132.4224  154.0275 O   0  0  0  0  0  0  0  0  0  0  0  0
  147.5301  133.3697  153.3580 C   0  0  0  0  0  0  0  0  0  0  0  0
  147.0107  133.7568  152.1756 N   0  0  0  0  0  0  0  0  0  0  0  0
  145.9649  133.1649  151.4165 C   0  0  0  0  0  0  0  0  0  0  0  0
  145.8012  131.7674  151.5125 C   0  0  0  0  0  0  0  0  0  0  0  0
  144.7617  131.1530  150.7864 C   0  0  0  0  0  0  0  0  0  0  0  0
  143.9009  131.8357  150.0029 N   0  0  0  0  0  0  0  0  0  0  0  0
  144.0507  133.1746  149.9215 C   0  0  0  0  0  0  0  0  0  0  0  0
  145.0562  133.8869  150.6054 C   0  0  0  0  0  0  0  0  0  0  0  0
  148.5444  134.1396  153.7925 N   0  0  0  0  0  0  0  0  0  0  0  0
  149.3246  134.0019  155.0234 C   0  0  2  0  0  0  0  0  0  0  0  0
  150.6363  134.8041  154.9378 C   0  0  0  0  0  0  0  0  0  0  0  0
  151.5636  134.3525  156.0728 C   0  0  0  0  0  0  0  0  0  0  0  0
  151.1705  132.5884  156.3806 S   0  0  0  0  0  0  0  0  0  0  0  0
  152.2189  131.7382  155.7967 O   0  0  0  0  0  0  0  0  0  0  0  0
  150.7605  132.4299  157.7840 O   0  0  0  0  0  0  0  0  0  0  0  0
  149.6886  132.5352  155.3049 C   0  0  0  0  0  0  0  0  0  0  0  0
  147.3946  134.6050  151.7863 H   0  0  0  0  0  0  0  0  0  0  0  0
  146.4602  131.1718  152.1274 H   0  0  0  0  0  0  0  0  0  0  0  0
  144.6167  130.0841  150.8384 H   0  0  0  0  0  0  0  0  0  0  0  0
  143.3427  133.6976  149.2960 H   0  0  0  0  0  0  0  0  0  0  0  0
  145.0972  134.9599  150.5023 H   0  0  0  0  0  0  0  0  0  0  0  0
  148.7834  134.9301  153.2109 H   0  0  0  0  0  0  0  0  0  0  0  0
  148.7608  134.3948  155.8716 H   0  0  0  0  0  0  0  0  0  0  0  0
  151.1249  134.5944  153.9849 H   0  0  0  0  0  0  0  0  0  0  0  0
  150.4579  135.8794  154.9730 H   0  0  0  0  0  0  0  0  0  0  0  0
  152.6202  134.4673  155.8306 H   0  0  0  0  0  0  0  0  0  0  0  0
  151.3542  134.9079  156.9874 H   0  0  0  0  0  0  0  0  0  0  0  0
  148.8901  131.9780  155.7950 H   0  0  0  0  0  0  0  0  0  0  0  0
  149.9643  132.0143  154.3872 H   0  0  0  0  0  0  0  0  0  0  0  0
  1  2  2  0  0  0  0
  2  3  1  0  0  0  0
  2 10  1  0  0  0  0
  3  4  1  0  0  0  0
  3 18  1  0  0  0  0
  4  9  1  0  0  0  0
  4  5  2  0  0  0  0
  5  6  1  0  0  0  0
  5 19  1  0  0  0  0
  6  7  2  0  0  0  0
  6 20  1  0  0  0  0
  7  8  1  0  0  0  0
  8  9  2  0  0  0  0
  8 21  1  0  0  0  0
  9 22  1  0  0  0  0
 10 11  1  0  0  0  0
 10 23  1  0  0  0  0
 11 17  1  0  0  0  0
 11 12  1  0  0  0  0
 11 24  1  0  0  0  0
 12 13  1  0  0  0  0
 12 25  1  0  0  0  0
 12 26  1  0  0  0  0
 13 14  1  0  0  0  0
 13 27  1  0  0  0  0
 13 28  1  0  0  0  0
 14 15  2  0  0  0  0
 14 16  2  0  0  0  0
 14 17  1  0  0  0  0
 17 29  1  0  0  0  0
 17 30  1  0  0  0  0
M  END
> <s_m_source_file>
AV-unprocessed.smi

> <i_m_source_file_index>
3261

> <i_lp_mmshare_version>
43012

> <i_f3d_flags>
0

> <s_epik_input>
Tz1TMSg9TylbQ0gyXVtDSDJdW0NASF0oW0NIMl0xKVtOSF1DKD1PKVtOSF1jMltjSF1bY0hdbltjSF1bY0hdMg==

> <s_epik_cmdline>
J2VwaWtfcHl0aG9uJywgJy1waCcsICc3LjAnLCAnLXRuJywgJzgnLCAnLW1hJywgJzIwMCcsICctbWV0YWxfYmluZGluZycsICctaW1hZScsICc8aW5maWxlLm1hZT4nLCAnLW9tYWUnLCAnPG91dGZpbGUubWFlPic=

> <r_epik_Ionization_Penalty>
0.0999693

> <r_epik_Ionization_Penalty_Charging>
0

> <r_epik_Ionization_Penalty_Neutral>
0.0999693

> <r_epik_State_Penalty>
0.0899812

> <r_epik_Charging_Adjusted_Penalty>
0.0899812

> <i_epik_Tot_Q>
0

> <i_epik_Tot_abs_Q>
0

> <r_epik_Metal_State_Penalty>
0.0778619

> <b_epik_Metal_Only>
0

> <s_lp_Force_Field>
OPLS_2005

> <r_lp_Energy>
18.6703

> <b_lp_Chiralities_Consistent>
1

> <s_lp_Variant>
AV-unprocessed.smi:3261-1

> <Gold.Version>
5.8.1

> <Gold.Id.Protein>
6NUR|6NUR_protein|mol2

> <Gold.PLP.Fitness>
37.5503

> <Gold.PLP.PLP>
-26.4481

> <Gold.PLP.part.hbond>
-3.7071

> <Gold.PLP.part.metal>
0.0000

> <Gold.PLP.part.buried>
-3.6181

> <Gold.PLP.part.nonpolar>
-18.9815

> <Gold.PLP.part.repulsive>
0.2614

> <Gold.PLP.ligand.clash>
0.0000

> <Gold.PLP.ligand.torsion>
0.4397

> <Gold.PLP.Chemscore.Hbond>
3.0452

> <Gold.PLP.Chemscore.CHOScore>
0.9485

> <Gold.PLP.Chemscore.Metal>
0.0000

> <Gold.Chemscore.Hbonds>
donor molecule, donor type, donor heavy atom, donor atom, acceptor molecule, acceptor atom, score
      L1  H     3    18       P1  7948  0.56
      L1  H    10    23       P1  7948  1.00
      P1  H  6896  6908       L1    16  1.00
      P1  H 10785 10796       L1     7  0.38
      L1  C     8    21       P1 10186  1.00

> <Gold.PLP.Chemscore.Internal.Correction>
0.0006

> <Gold.Rescore>
     Score         DG    S(hbond)    S(metal)    S(lipo)     H(rot)  DE(clash)    DE(int)     intcor
     15.53     -18.73       2.54        0.00      62.59       1.00       0.17       3.03       ----

> <Gold.Chemscore.Fitness>
15.5342

> <Gold.Chemscore.DG>
-18.7336

> <Gold.Chemscore.ZeroCoef>
-5.4800

> <Gold.Chemscore.Hbond>
2.5420

> <Gold.Chemscore.Metal>
0.0000

> <Gold.Chemscore.Lipo>
62.5914

> <Gold.Chemscore.Internal_Hbond>
0.0000

> <Gold.Chemscore.DEClash>
0.1699

> <Gold.Chemscore.DEInternal>
3.0295

> <Gold.Chemscore.Rot>
1.0000

> <Gold.Chemscore.Internal.Correction>
   9.000000E+99

> <Gold.Chemscore.Hbonds>
donor molecule, donor type, donor heavy atom, donor atom, acceptor molecule, acceptor atom, score
      L1  H     3    18       P1  7948  0.29
      L1  H    10    23       P1  7948  0.40
      P1  H  6896  6908       L1    16  1.00
      P1  H 10785 10796       L1     7  0.08

> <Gold.Chemscore.Hbond.Weighted>
-8.4904

> <Gold.Chemscore.Metal.Weighted>
-0.0000

> <Gold.Chemscore.Lipo.Weighted>
-7.3232

> <Gold.Chemscore.Internal_Hbond.Weighted>
0.0000

> <Gold.Chemscore.DEClash.Weighted>
0.1699

> <Gold.Chemscore.DEInternal.Weighted>
3.0295

> <Gold.Chemscore.Rot.Weighted>
2.5600

> <Gold.Chemscore.Internal.Correction.Weighted>
   9.000000E+99

> <Gold.Protein.RotatedTorsions>
[ 6907 6896 6895 6894 ] final   87.25 input  -60.11 | X-H torsion
[ 7974 7965 7964 7962 ] final  -32.38 input  175.53 | X-H torsion
[ 8008 7997 7996 7995 ] final  154.00 input   59.86 | X-H torsion
[ 10167 10162 10161 10158 ] final   44.61 input  -65.29 | X-H torsion
[ 10718 10713 10712 10709 ] final -108.52 input   66.30 | X-H torsion
[ 10763 10752 10751 10750 ] final   82.34 input  -60.55 | X-H torsion
[ 11005 11000 10999 10996 ] final  -89.12 input  -57.11 | X-H torsion

> <Gold.Protein.ActiveResidues>
 VAL166  LYS551  ARG553  GLY616  TRP617  ASP618  TYR619  PRO620  LYS621  CYS622 
 ASP623  PHE694  ASN695  SER759  ASP760  ASP761  ALA762  ILE779  LEU786  VAL792 
 PHE793  MET794  SER795  GLU796  ALA797  LYS798  CYS799  TRP800  GLU811  SER814 

> <Gold.Protein.RotatedAtoms>
  152.5408  134.2305  159.8822 H   0  0  0  0  0  0  0  0  0  0  0  0  # atno 6907 bound_to 6896
  151.2277  133.4460  159.2610 H   0  0  0  0  0  0  0  0  0  0  0  0  # atno 6908 bound_to 6896
  151.0745  134.9832  159.8381 H   0  0  0  0  0  0  0  0  0  0  0  0  # atno 6909 bound_to 6896
  146.0994  140.5785  142.8828 H   0  0  0  0  0  0  0  0  0  0  0  0  # atno 7974 bound_to 7965
  156.2554  140.1978  156.6577 H   0  0  0  0  0  0  0  0  0  0  0  0  # atno 8008 bound_to 7997
  154.6488  140.0574  156.9957 H   0  0  0  0  0  0  0  0  0  0  0  0  # atno 8009 bound_to 7997
  155.1450  140.3246  155.4446 H   0  0  0  0  0  0  0  0  0  0  0  0  # atno 8010 bound_to 7997
  140.3326  144.2570  150.6166 H   0  0  0  0  0  0  0  0  0  0  0  0  # atno 10167 bound_to 10162
  156.0490  130.5717  150.7972 H   0  0  0  0  0  0  0  0  0  0  0  0  # atno 10718 bound_to 10713
  153.1195  135.4732  154.9171 H   0  0  0  0  0  0  0  0  0  0  0  0  # atno 10763 bound_to 10752
  154.7561  135.3119  154.8469 H   0  0  0  0  0  0  0  0  0  0  0  0  # atno 10764 bound_to 10752
  153.9038  135.6872  153.4807 H   0  0  0  0  0  0  0  0  0  0  0  0  # atno 10765 bound_to 10752
  141.1590  133.7611  156.9550 H   0  0  0  0  0  0  0  0  0  0  0  0  # atno 11005 bound_to 11000
  144.7421  140.4970  143.6862 LP  0  0  0  0  0  0  0  0  0  0  0  0  # atno 17320 bound_to 7965
  145.5884  139.1494  143.3196 LP  0  0  0  0  0  0  0  0  0  0  0  0  # atno 17321 bound_to 7965
  140.5383  143.2228  151.8126 LP  0  0  0  0  0  0  0  0  0  0  0  0  # atno 17342 bound_to 10162
  139.4854  144.4632  151.9515 LP  0  0  0  0  0  0  0  0  0  0  0  0  # atno 17343 bound_to 10162
  157.5396  131.0940  150.9846 LP  0  0  0  0  0  0  0  0  0  0  0  0  # atno 17370 bound_to 10713
  157.0132  130.5645  149.5323 LP  0  0  0  0  0  0  0  0  0  0  0  0  # atno 17371 bound_to 10713
  140.1231  134.9404  157.2232 LP  0  0  0  0  0  0  0  0  0  0  0  0  # atno 17394 bound_to 11000
  140.3046  134.3092  155.7281 LP  0  0  0  0  0  0  0  0  0  0  0  0  # atno 17395 bound_to 11000

$$$$
