AV-unprocessed.smi:2195|AV-procd|sdf|8904|dock2
  -GOLD-   2272012113D 1   1.00000     0.00000
 Structure written by MMmdl.
 39 41  0  0  0  0  0  0  0  0  1 V2000
  150.2299  135.5135  154.4954 C   0  0  0  0  0  0  0  0  0  0  0  0
  150.4702  136.9771  154.8026 C   0  0  0  0  0  0  0  0  0  0  0  0
  151.5667  137.6568  154.2361 C   0  0  0  0  0  0  0  0  0  0  0  0
  151.7799  139.0178  154.5269 C   0  0  0  0  0  0  0  0  0  0  0  0
  150.9063  139.7199  155.3821 C   0  0  0  0  0  0  0  0  0  0  0  0
  151.1905  141.0490  155.6087 O   0  0  0  0  0  0  0  0  0  0  0  0
  150.1258  141.9130  155.9865 C   0  0  0  0  0  0  0  0  0  0  0  0
  150.2903  142.3346  157.4559 C   0  0  2  0  0  0  0  0  0  0  0  0
  149.2385  143.2103  157.8117 O   0  0  0  0  0  0  0  0  0  0  0  0
  151.6674  142.9497  157.7729 C   0  0  0  0  0  0  0  0  0  0  0  0
  151.8527  143.1843  159.1936 N   0  0  0  0  0  0  0  0  0  0  0  0
  151.2613  144.1371  159.9395 C   0  0  0  0  0  0  0  0  0  0  0  0
  151.5717  144.1799  161.2320 N   0  0  0  0  0  0  0  0  0  0  0  0
  152.4684  143.1306  161.3385 C   0  0  0  0  0  0  0  0  0  0  0  0
  153.1754  142.6391  162.4590 C   0  0  0  0  0  0  0  0  0  0  0  0
  154.0509  141.5412  162.3258 C   0  0  0  0  0  0  0  0  0  0  0  0
  154.2331  140.9194  161.0733 C   0  0  0  0  0  0  0  0  0  0  0  0
  153.5395  141.3915  159.9424 C   0  0  0  0  0  0  0  0  0  0  0  0
  152.6664  142.4866  160.0796 C   0  0  0  0  0  0  0  0  0  0  0  0
  149.8061  139.0298  155.9507 C   0  0  0  0  0  0  0  0  0  0  0  0
  149.5927  137.6679  155.6610 C   0  0  0  0  0  0  0  0  0  0  0  0
  150.9564  135.1327  153.7768 H   0  0  0  0  0  0  0  0  0  0  0  0
  149.2328  135.3744  154.0770 H   0  0  0  0  0  0  0  0  0  0  0  0
  150.3068  134.9193  155.4062 H   0  0  0  0  0  0  0  0  0  0  0  0
  152.2484  137.1398  153.5767 H   0  0  0  0  0  0  0  0  0  0  0  0
  152.6226  139.5303  154.0865 H   0  0  0  0  0  0  0  0  0  0  0  0
  150.0843  142.7931  155.3423 H   0  0  0  0  0  0  0  0  0  0  0  0
  149.1805  141.3784  155.8789 H   0  0  0  0  0  0  0  0  0  0  0  0
  150.1602  141.4424  158.0696 H   0  0  0  0  0  0  0  0  0  0  0  0
  148.9142  143.6247  157.0268 H   0  0  0  0  0  0  0  0  0  0  0  0
  152.4622  142.2856  157.4306 H   0  0  0  0  0  0  0  0  0  0  0  0
  151.8018  143.8941  157.2444 H   0  0  0  0  0  0  0  0  0  0  0  0
  150.5644  144.8407  159.5077 H   0  0  0  0  0  0  0  0  0  0  0  0
  153.0443  143.1080  163.4229 H   0  0  0  0  0  0  0  0  0  0  0  0
  154.5861  141.1746  163.1893 H   0  0  0  0  0  0  0  0  0  0  0  0
  154.9065  140.0797  160.9814 H   0  0  0  0  0  0  0  0  0  0  0  0
  153.6783  140.9187  158.9815 H   0  0  0  0  0  0  0  0  0  0  0  0
  149.1109  139.5222  156.6132 H   0  0  0  0  0  0  0  0  0  0  0  0
  148.7504  137.1537  156.1005 H   0  0  0  0  0  0  0  0  0  0  0  0
  1  2  1  0  0  0  0
  1 22  1  0  0  0  0
  1 23  1  0  0  0  0
  1 24  1  0  0  0  0
  2 21  1  0  0  0  0
  2  3  2  0  0  0  0
  3  4  1  0  0  0  0
  3 25  1  0  0  0  0
  4  5  2  0  0  0  0
  4 26  1  0  0  0  0
  5  6  1  0  0  0  0
  5 20  1  0  0  0  0
  6  7  1  0  0  0  0
  7  8  1  0  0  0  0
  7 27  1  0  0  0  0
  7 28  1  0  0  0  0
  8  9  1  0  0  0  0
  8 10  1  0  0  0  0
  8 29  1  0  0  0  0
  9 30  1  0  0  0  0
 10 11  1  0  0  0  0
 10 31  1  0  0  0  0
 10 32  1  0  0  0  0
 11 19  1  0  0  0  0
 11 12  1  0  0  0  0
 12 13  2  0  0  0  0
 12 33  1  0  0  0  0
 13 14  1  0  0  0  0
 14 19  2  0  0  0  0
 14 15  1  0  0  0  0
 15 16  2  0  0  0  0
 15 34  1  0  0  0  0
 16 17  1  0  0  0  0
 16 35  1  0  0  0  0
 17 18  2  0  0  0  0
 17 36  1  0  0  0  0
 18 19  1  0  0  0  0
 18 37  1  0  0  0  0
 20 21  2  0  0  0  0
 20 38  1  0  0  0  0
 21 39  1  0  0  0  0
M  END
> <s_m_source_file>
AV-unprocessed.smi

> <i_m_source_file_index>
2195

> <i_lp_mmshare_version>
43012

> <i_f3d_flags>
0

> <s_epik_input>
W0NIM11jMVtjSF1bY0hdYyhbY0hdW2NIXTEpT1tDSDJdW0NASF0oW09IXSlbQ0gyXW4oW2NIXW4yKWMoYzIzKVtjSF1bY0hdW2NIXVtjSF0z

> <s_epik_cmdline>
J2VwaWtfcHl0aG9uJywgJy1waCcsICc3LjAnLCAnLXRuJywgJzgnLCAnLW1hJywgJzIwMCcsICctbWV0YWxfYmluZGluZycsICctaW1hZScsICc8aW5maWxlLm1hZT4nLCAnLW9tYWUnLCAnPG91dGZpbGUubWFlPic=

> <r_lp_tautomer_probability>
1

> <r_epik_Ionization_Penalty>
0.0609831

> <r_epik_Ionization_Penalty_Charging>
0

> <r_epik_Ionization_Penalty_Neutral>
0.0609831

> <r_epik_State_Penalty>
0.0529032

> <r_epik_Charging_Adjusted_Penalty>
0.0529032

> <i_epik_Tot_Q>
0

> <i_epik_Tot_abs_Q>
0

> <r_epik_Metal_State_Penalty>
5.53344e-05

> <b_epik_Metal_Only>
0

> <s_lp_Force_Field>
OPLS_2005

> <r_lp_Energy>
15.928

> <b_lp_Chiralities_Consistent>
1

> <s_lp_Variant>
AV-unprocessed.smi:2195-1

> <Gold.Version>
5.8.1

> <Gold.Id.Protein>
6NUR|6NUR_protein|mol2

> <Gold.PLP.Fitness>
50.4248

> <Gold.PLP.PLP>
-48.8534

> <Gold.PLP.part.hbond>
-2.7717

> <Gold.PLP.part.metal>
0.0000

> <Gold.PLP.part.buried>
-1.5542

> <Gold.PLP.part.nonpolar>
-44.1876

> <Gold.PLP.part.repulsive>
0.2103

> <Gold.PLP.ligand.clash>
0.0000

> <Gold.PLP.ligand.torsion>
0.8591

> <Gold.PLP.Chemscore.Hbond>
1.0746

> <Gold.PLP.Chemscore.CHOScore>
0.0000

> <Gold.PLP.Chemscore.Metal>
0.0000

> <Gold.Chemscore.Hbonds>
donor molecule, donor type, donor heavy atom, donor atom, acceptor molecule, acceptor atom, score
      L1  H     9    30       P1  8028  1.00

> <Gold.PLP.Chemscore.Internal.Correction>
0.0659

> <Gold.Rescore>
     Score         DG    S(hbond)    S(metal)    S(lipo)     H(rot)  DE(clash)    DE(int)     intcor
     16.38     -17.39       0.64        0.00     131.55       2.19       0.12       0.89       ----

> <Gold.Chemscore.Fitness>
16.3850

> <Gold.Chemscore.DG>
-17.3944

> <Gold.Chemscore.ZeroCoef>
-5.4800

> <Gold.Chemscore.Hbond>
0.6359

> <Gold.Chemscore.Metal>
0.0000

> <Gold.Chemscore.Lipo>
131.5481

> <Gold.Chemscore.Internal_Hbond>
0.0000

> <Gold.Chemscore.DEClash>
0.1168

> <Gold.Chemscore.DEInternal>
0.8927

> <Gold.Chemscore.Rot>
2.1877

> <Gold.Chemscore.Internal.Correction>
   9.000000E+99

> <Gold.Chemscore.Hbonds>
donor molecule, donor type, donor heavy atom, donor atom, acceptor molecule, acceptor atom, score
      L1  H     9    30       P1  8028  0.39

> <Gold.Chemscore.Hbond.Weighted>
-2.1238

> <Gold.Chemscore.Metal.Weighted>
-0.0000

> <Gold.Chemscore.Lipo.Weighted>
-15.3911

> <Gold.Chemscore.Internal_Hbond.Weighted>
0.0000

> <Gold.Chemscore.DEClash.Weighted>
0.1168

> <Gold.Chemscore.DEInternal.Weighted>
0.8927

> <Gold.Chemscore.Rot.Weighted>
5.6005

> <Gold.Chemscore.Internal.Correction.Weighted>
   9.000000E+99

> <Gold.Protein.RotatedTorsions>
[ 6907 6896 6895 6894 ] final  -54.78 input  -60.11 | X-H torsion
[ 7974 7965 7964 7962 ] final -112.67 input  175.53 | X-H torsion
[ 8008 7997 7996 7995 ] final -146.78 input   59.86 | X-H torsion
[ 10167 10162 10161 10158 ] final   70.73 input  -65.29 | X-H torsion
[ 10718 10713 10712 10709 ] final   -6.08 input   66.30 | X-H torsion
[ 10763 10752 10751 10750 ] final  -71.55 input  -60.55 | X-H torsion
[ 11005 11000 10999 10996 ] final   -2.89 input  -57.11 | X-H torsion

> <Gold.Protein.ActiveResidues>
 VAL166  LYS551  ARG553  GLY616  TRP617  ASP618  TYR619  PRO620  LYS621  CYS622 
 ASP623  PHE694  ASN695  SER759  ASP760  ASP761  ALA762  ILE779  LEU786  VAL792 
 PHE793  MET794  SER795  GLU796  ALA797  LYS798  CYS799  TRP800  GLU811  SER814 

> <Gold.Protein.RotatedAtoms>
  150.8308  134.7561  159.6851 H   0  0  0  0  0  0  0  0  0  0  0  0  # atno 6907 bound_to 6896
  152.4413  134.5582  159.9896 H   0  0  0  0  0  0  0  0  0  0  0  0  # atno 6908 bound_to 6896
  151.5743  133.3348  159.3031 H   0  0  0  0  0  0  0  0  0  0  0  0  # atno 6909 bound_to 6896
  145.1412  140.8778  143.3701 H   0  0  0  0  0  0  0  0  0  0  0  0  # atno 7974 bound_to 7965
  155.5649  140.0629  157.2820 H   0  0  0  0  0  0  0  0  0  0  0  0  # atno 8008 bound_to 7997
  154.4379  140.1879  156.0866 H   0  0  0  0  0  0  0  0  0  0  0  0  # atno 8009 bound_to 7997
  156.0419  140.3294  155.7257 H   0  0  0  0  0  0  0  0  0  0  0  0  # atno 8010 bound_to 7997
  140.0537  144.5290  150.7344 H   0  0  0  0  0  0  0  0  0  0  0  0  # atno 10167 bound_to 10162
  156.7372  130.5198  149.5832 H   0  0  0  0  0  0  0  0  0  0  0  0  # atno 10718 bound_to 10713
  154.4332  135.5958  153.6082 H   0  0  0  0  0  0  0  0  0  0  0  0  # atno 10763 bound_to 10752
  152.9800  135.5980  154.3813 H   0  0  0  0  0  0  0  0  0  0  0  0  # atno 10764 bound_to 10752
  154.3653  135.2841  155.2275 H   0  0  0  0  0  0  0  0  0  0  0  0  # atno 10765 bound_to 10752
  140.6633  133.9301  155.8449 H   0  0  0  0  0  0  0  0  0  0  0  0  # atno 11005 bound_to 11000
  145.0531  139.3166  143.5919 LP  0  0  0  0  0  0  0  0  0  0  0  0  # atno 17320 bound_to 7965
  146.3505  139.9946  142.8682 LP  0  0  0  0  0  0  0  0  0  0  0  0  # atno 17321 bound_to 7965
  140.7204  143.2584  151.4296 LP  0  0  0  0  0  0  0  0  0  0  0  0  # atno 17342 bound_to 10162
  139.5937  144.1444  152.2118 LP  0  0  0  0  0  0  0  0  0  0  0  0  # atno 17343 bound_to 10162
  156.1489  130.6296  151.0569 LP  0  0  0  0  0  0  0  0  0  0  0  0  # atno 17370 bound_to 10713
  157.6834  131.0832  150.7309 LP  0  0  0  0  0  0  0  0  0  0  0  0  # atno 17371 bound_to 10713
  141.0448  134.0569  157.3857 LP  0  0  0  0  0  0  0  0  0  0  0  0  # atno 17394 bound_to 11000
  139.9006  135.0163  156.7247 LP  0  0  0  0  0  0  0  0  0  0  0  0  # atno 17395 bound_to 11000

$$$$
