AV-unprocessed.smi:2671|AV-procd|sdf|10351|dock8
  -GOLD-   2272014373D 1   1.00000     0.00000
 Structure written by MMmdl.
 29 30  0  0  0  0  0  0  0  0  1 V2000
  154.2992  140.0344  160.2826 O   0  0  0  0  0  0  0  0  0  0  0  0
  153.5356  140.6979  159.5843 C   0  0  0  0  0  0  0  0  0  0  0  0
  153.0948  142.0332  160.0058 C   0  0  0  0  0  0  0  0  0  0  0  0
  152.2565  142.7388  159.2201 C   0  0  0  0  0  0  0  0  0  0  0  0
  151.7542  144.1279  159.5800 C   0  0  0  0  0  0  0  0  0  0  0  0
  152.2048  145.0209  158.6997 F   0  0  0  0  0  0  0  0  0  0  0  0
  150.4222  144.1564  159.5548 F   0  0  0  0  0  0  0  0  0  0  0  0
  152.1573  144.5000  160.7967 F   0  0  0  0  0  0  0  0  0  0  0  0
  151.8129  142.2099  158.0190 N   0  0  0  0  0  0  0  0  0  0  0  0
  152.2438  140.9438  157.6428 C   0  0  0  0  0  0  0  0  0  0  0  0
  151.5170  140.4920  156.0402 S   0  0  0  0  0  0  0  0  0  0  0  0
  149.7624  140.8752  156.3128 C   0  0  0  0  0  0  0  0  0  0  0  0
  149.0702  141.3310  155.0212 C   0  0  1  0  0  0  0  0  0  0  0  0
  148.7171  140.2012  154.0521 C   0  0  0  0  0  0  0  0  0  0  0  0
  147.5052  140.7322  153.2998 C   0  0  0  0  0  0  0  0  0  0  0  0
  147.0906  141.9790  154.0854 C   0  0  0  0  0  0  0  0  0  0  0  0
  147.7999  141.8904  155.3125 O   0  0  0  0  0  0  0  0  0  0  0  0
  153.0511  140.2135  158.3584 N   0  0  0  0  0  0  0  0  0  0  0  0
  151.1869  142.7695  157.4574 H   0  0  0  0  0  0  0  0  0  0  0  0
  153.4422  142.4466  160.9416 H   0  0  0  0  0  0  0  0  0  0  0  0
  149.6935  141.6641  157.0620 H   0  0  0  0  0  0  0  0  0  0  0  0
  149.2595  139.9990  156.7236 H   0  0  0  0  0  0  0  0  0  0  0  0
  149.6737  142.0866  154.5144 H   0  0  0  0  0  0  0  0  0  0  0  0
  149.5458  139.9446  153.3916 H   0  0  0  0  0  0  0  0  0  0  0  0
  148.4373  139.3019  154.6027 H   0  0  0  0  0  0  0  0  0  0  0  0
  147.7475  140.9861  152.2674 H   0  0  0  0  0  0  0  0  0  0  0  0
  146.7080  139.9882  153.2845 H   0  0  0  0  0  0  0  0  0  0  0  0
  147.3988  142.8836  153.5591 H   0  0  0  0  0  0  0  0  0  0  0  0
  146.0148  142.0325  154.2528 H   0  0  0  0  0  0  0  0  0  0  0  0
  1  2  2  0  0  0  0
  2 18  1  0  0  0  0
  2  3  1  0  0  0  0
  3 20  1  0  0  0  0
  3  4  2  0  0  0  0
  4  5  1  0  0  0  0
  4  9  1  0  0  0  0
  5  6  1  0  0  0  0
  5  7  1  0  0  0  0
  5  8  1  0  0  0  0
  9 10  1  0  0  0  0
  9 19  1  0  0  0  0
 10 11  1  0  0  0  0
 10 18  2  0  0  0  0
 11 12  1  0  0  0  0
 12 13  1  0  0  0  0
 12 21  1  0  0  0  0
 12 22  1  0  0  0  0
 13 17  1  0  0  0  0
 13 14  1  0  0  0  0
 13 23  1  0  0  0  0
 14 15  1  0  0  0  0
 14 24  1  0  0  0  0
 14 25  1  0  0  0  0
 15 16  1  0  0  0  0
 15 26  1  0  0  0  0
 15 27  1  0  0  0  0
 16 17  1  0  0  0  0
 16 28  1  0  0  0  0
 16 29  1  0  0  0  0
M  END
> <s_m_source_file>
AV-unprocessed.smi

> <i_m_source_file_index>
2671

> <i_lp_mmshare_version>
43012

> <i_f3d_flags>
0

> <s_epik_input>
W09IXWMxW2NIXWMoQyhGKShGKUYpbmMobjEpU1tDSDJdW0NAQEhdMltDSDJdW0NIMl1bQ0gyXU8y

> <s_epik_cmdline>
J2VwaWtfcHl0aG9uJywgJy1waCcsICc3LjAnLCAnLXRuJywgJzgnLCAnLW1hJywgJzIwMCcsICctbWV0YWxfYmluZGluZycsICctaW1hZScsICc8aW5maWxlLm1hZT4nLCAnLW9tYWUnLCAnPG91dGZpbGUubWFlPic=

> <r_lp_tautomer_probability>
0.273662

> <r_epik_Ionization_Penalty>
1.33793

> <r_epik_Ionization_Penalty_Charging>
1.33793

> <r_epik_Ionization_Penalty_Neutral>
8.2996e-08

> <r_epik_State_Penalty>
1.59174

> <r_epik_Charging_Adjusted_Penalty>
2.92967

> <i_epik_Tot_Q>
0

> <i_epik_Tot_abs_Q>
0

> <r_epik_Metal_State_Penalty>
2.31522

> <b_epik_Metal_Only>
0

> <s_lp_Force_Field>
OPLS_2005

> <r_lp_Energy>
25.3569

> <b_lp_Chiralities_Consistent>
1

> <s_lp_Variant>
AV-unprocessed.smi:2671-6

> <Gold.Version>
5.8.1

> <Gold.Id.Protein>
6NUR|6NUR_protein|mol2

> <Gold.PLP.Fitness>
43.3666

> <Gold.PLP.PLP>
-41.4141

> <Gold.PLP.part.hbond>
-1.0000

> <Gold.PLP.part.metal>
0.0000

> <Gold.PLP.part.buried>
-4.4506

> <Gold.PLP.part.nonpolar>
-35.1659

> <Gold.PLP.part.repulsive>
0.9918

> <Gold.PLP.ligand.clash>
0.0000

> <Gold.PLP.ligand.torsion>
0.4961

> <Gold.PLP.Chemscore.Hbond>
0.9760

> <Gold.PLP.Chemscore.CHOScore>
0.0000

> <Gold.PLP.Chemscore.Metal>
0.0000

> <Gold.Chemscore.Hbonds>
donor molecule, donor type, donor heavy atom, donor atom, acceptor molecule, acceptor atom, score
      P1  H  7997  8008       L1    18  0.84

> <Gold.PLP.Chemscore.Internal.Correction>
0.0167

> <Gold.Rescore>
     Score         DG    S(hbond)    S(metal)    S(lipo)     H(rot)  DE(clash)    DE(int)     intcor
     10.35     -10.83       0.37        0.00      72.21       1.69       0.23       0.26       ----

> <Gold.Chemscore.Fitness>
10.3488

> <Gold.Chemscore.DG>
-10.8306

> <Gold.Chemscore.ZeroCoef>
-5.4800

> <Gold.Chemscore.Hbond>
0.3697

> <Gold.Chemscore.Metal>
0.0000

> <Gold.Chemscore.Lipo>
72.2089

> <Gold.Chemscore.Internal_Hbond>
0.0000

> <Gold.Chemscore.DEClash>
0.2258

> <Gold.Chemscore.DEInternal>
0.2561

> <Gold.Chemscore.Rot>
1.6924

> <Gold.Chemscore.Internal.Correction>
   9.000000E+99

> <Gold.Chemscore.Hbonds>
donor molecule, donor type, donor heavy atom, donor atom, acceptor molecule, acceptor atom, score
      P1  H  7997  8008       L1    18  0.11

> <Gold.Chemscore.Hbond.Weighted>
-1.2346

> <Gold.Chemscore.Metal.Weighted>
-0.0000

> <Gold.Chemscore.Lipo.Weighted>
-8.4484

> <Gold.Chemscore.Internal_Hbond.Weighted>
0.0000

> <Gold.Chemscore.DEClash.Weighted>
0.2258

> <Gold.Chemscore.DEInternal.Weighted>
0.2561

> <Gold.Chemscore.Rot.Weighted>
4.3324

> <Gold.Chemscore.Internal.Correction.Weighted>
   9.000000E+99

> <Gold.Protein.RotatedTorsions>
[ 6907 6896 6895 6894 ] final  -23.89 input  -60.11 | X-H torsion
[ 7974 7965 7964 7962 ] final  175.31 input  175.53 | X-H torsion
[ 8008 7997 7996 7995 ] final  -85.02 input   59.86 | X-H torsion
[ 10167 10162 10161 10158 ] final   12.10 input  -65.29 | X-H torsion
[ 10718 10713 10712 10709 ] final   -3.95 input   66.30 | X-H torsion
[ 10763 10752 10751 10750 ] final  -79.91 input  -60.55 | X-H torsion
[ 11005 11000 10999 10996 ] final  176.98 input  -57.11 | X-H torsion

> <Gold.Protein.ActiveResidues>
 VAL166  LYS551  ARG553  GLY616  TRP617  ASP618  TYR619  PRO620  LYS621  CYS622 
 ASP623  PHE694  ASN695  SER759  ASP760  ASP761  ALA762  ILE779  LEU786  VAL792 
 PHE793  MET794  SER795  GLU796  ALA797  LYS798  CYS799  TRP800  GLU811  SER814 

> <Gold.Protein.RotatedAtoms>
  151.1974  135.0428  159.8857 H   0  0  0  0  0  0  0  0  0  0  0  0  # atno 6907 bound_to 6896
  152.5435  134.0888  159.8278 H   0  0  0  0  0  0  0  0  0  0  0  0  # atno 6908 bound_to 6896
  151.1024  133.5186  159.2641 H   0  0  0  0  0  0  0  0  0  0  0  0  # atno 6909 bound_to 6896
  144.7204  139.9927  143.6440 H   0  0  0  0  0  0  0  0  0  0  0  0  # atno 7974 bound_to 7965
  154.6361  140.0597  156.9790 H   0  0  0  0  0  0  0  0  0  0  0  0  # atno 8008 bound_to 7997
  155.1589  140.3281  155.4397 H   0  0  0  0  0  0  0  0  0  0  0  0  # atno 8009 bound_to 7997
  156.2508  140.1934  156.6697 H   0  0  0  0  0  0  0  0  0  0  0  0  # atno 8010 bound_to 7997
  140.6090  143.8448  150.7044 H   0  0  0  0  0  0  0  0  0  0  0  0  # atno 10167 bound_to 10162
  156.7685  130.5292  149.5772 H   0  0  0  0  0  0  0  0  0  0  0  0  # atno 10718 bound_to 10713
  154.5446  135.5679  153.6869 H   0  0  0  0  0  0  0  0  0  0  0  0  # atno 10763 bound_to 10752
  152.9973  135.6236  154.2456 H   0  0  0  0  0  0  0  0  0  0  0  0  # atno 10764 bound_to 10752
  154.2388  135.2863  155.2841 H   0  0  0  0  0  0  0  0  0  0  0  0  # atno 10765 bound_to 10752
  140.3790  134.6963  157.4439 H   0  0  0  0  0  0  0  0  0  0  0  0  # atno 11005 bound_to 11000
  146.0399  139.3412  143.0704 LP  0  0  0  0  0  0  0  0  0  0  0  0  # atno 17320 bound_to 7965
  145.8348  140.9612  143.0830 LP  0  0  0  0  0  0  0  0  0  0  0  0  # atno 17321 bound_to 7965
  140.2012  143.3958  152.1790 LP  0  0  0  0  0  0  0  0  0  0  0  0  # atno 17342 bound_to 10162
  139.5346  144.7196  151.4936 LP  0  0  0  0  0  0  0  0  0  0  0  0  # atno 17343 bound_to 10162
  156.1293  130.6166  151.0310 LP  0  0  0  0  0  0  0  0  0  0  0  0  # atno 17370 bound_to 10713
  157.6702  131.0863  150.7631 LP  0  0  0  0  0  0  0  0  0  0  0  0  # atno 17371 bound_to 10713
  140.0493  134.6154  155.8882 LP  0  0  0  0  0  0  0  0  0  0  0  0  # atno 17394 bound_to 11000
  141.1929  133.6577  156.5526 LP  0  0  0  0  0  0  0  0  0  0  0  0  # atno 17395 bound_to 11000

$$$$
