AV-unprocessed.smi:1686|AV-procd|sdf|6762|dock5
  -GOLD-   22720 7523D 1   1.00000     0.00000
 Structure written by MMmdl.
 41 43  0  0  0  0  0  0  0  0  1 V2000
  149.6054  140.4694  154.6387 C   0  0  0  0  0  0  0  0  0  0  0  0
  150.4123  139.2539  154.9951 C   0  0  0  0  0  0  0  0  0  0  0  0
  150.7231  138.3793  154.0475 N   0  0  0  0  0  0  0  0  0  0  0  0
  151.4740  137.3749  154.6688 O   0  0  0  0  0  0  0  0  0  0  0  0
  151.5732  137.7060  155.9764 C   0  0  0  0  0  0  0  0  0  0  0  0
  152.4363  136.7406  157.1067 Cl  0  0  0  0  0  0  0  0  0  0  0  0
  150.9313  138.8754  156.2681 C   0  0  0  0  0  0  0  0  0  0  0  0
  150.8132  139.6018  157.5866 C   0  0  0  0  0  0  0  0  0  0  0  0
  152.2036  139.9956  158.0886 C   0  0  0  0  0  0  0  0  0  0  0  0
  153.2078  139.5714  157.5182 O   0  0  0  0  0  0  0  0  0  0  0  0
  152.2408  140.8223  159.1454 N   0  0  0  0  0  0  0  0  0  0  0  0
  153.4333  141.4500  159.7074 C   0  0  2  0  0  0  0  0  0  0  0  0
  153.6844  140.8655  161.1076 C   0  0  0  0  0  0  0  0  0  0  0  0
  153.2332  142.9859  159.7159 C   0  0  2  0  0  0  0  0  0  0  0  0
  152.5731  143.5196  161.0140 C   0  0  0  0  0  0  0  0  0  0  0  0
  151.3818  144.3419  160.4938 C   0  0  1  0  0  0  0  0  0  0  0  0
  151.8988  145.6070  159.7856 C   0  0  0  0  0  0  0  0  0  0  0  0
  152.4881  145.0449  158.4786 C   0  0  0  0  0  0  0  0  0  0  0  0
  152.2686  143.5270  158.6305 C   0  0  2  0  0  0  0  0  0  0  0  0
  150.9107  143.4884  159.3243 C   0  0  0  0  0  0  0  0  0  0  0  0
  149.9009  141.3291  155.2402 H   0  0  0  0  0  0  0  0  0  0  0  0
  148.5429  140.2943  154.8078 H   0  0  0  0  0  0  0  0  0  0  0  0
  149.7352  140.7436  153.5911 H   0  0  0  0  0  0  0  0  0  0  0  0
  150.2060  140.5028  157.4966 H   0  0  0  0  0  0  0  0  0  0  0  0
  150.3231  138.9793  158.3364 H   0  0  0  0  0  0  0  0  0  0  0  0
  151.3578  141.1025  159.5467 H   0  0  0  0  0  0  0  0  0  0  0  0
  154.2975  141.2191  159.0825 H   0  0  0  0  0  0  0  0  0  0  0  0
  154.6079  141.2433  161.5444 H   0  0  0  0  0  0  0  0  0  0  0  0
  153.7731  139.7793  161.0666 H   0  0  0  0  0  0  0  0  0  0  0  0
  152.8694  141.1055  161.7908 H   0  0  0  0  0  0  0  0  0  0  0  0
  154.2132  143.4502  159.5932 H   0  0  0  0  0  0  0  0  0  0  0  0
  152.2077  142.7077  161.6444 H   0  0  0  0  0  0  0  0  0  0  0  0
  153.2611  144.1154  161.6152 H   0  0  0  0  0  0  0  0  0  0  0  0
  150.6247  144.5422  161.2524 H   0  0  0  0  0  0  0  0  0  0  0  0
  151.0816  146.2973  159.5725 H   0  0  0  0  0  0  0  0  0  0  0  0
  152.6408  146.1385  160.3828 H   0  0  0  0  0  0  0  0  0  0  0  0
  151.9408  145.4297  157.6173 H   0  0  0  0  0  0  0  0  0  0  0  0
  153.5389  145.3058  158.3476 H   0  0  0  0  0  0  0  0  0  0  0  0
  152.3079  142.9992  157.6787 H   0  0  0  0  0  0  0  0  0  0  0  0
  150.5976  142.4850  159.6174 H   0  0  0  0  0  0  0  0  0  0  0  0
  150.1140  143.9544  158.7415 H   0  0  0  0  0  0  0  0  0  0  0  0
  1  2  1  0  0  0  0
  1 21  1  0  0  0  0
  1 22  1  0  0  0  0
  1 23  1  0  0  0  0
  2  7  1  0  0  0  0
  2  3  2  0  0  0  0
  3  4  1  0  0  0  0
  4  5  1  0  0  0  0
  5  6  1  0  0  0  0
  5  7  2  0  0  0  0
  7  8  1  0  0  0  0
  8  9  1  0  0  0  0
  8 24  1  0  0  0  0
  8 25  1  0  0  0  0
  9 10  2  0  0  0  0
  9 11  1  0  0  0  0
 11 12  1  0  0  0  0
 11 26  1  0  0  0  0
 12 13  1  0  0  0  0
 12 14  1  0  0  0  0
 12 27  1  0  0  0  0
 13 28  1  0  0  0  0
 13 29  1  0  0  0  0
 13 30  1  0  0  0  0
 14 19  1  0  0  0  0
 14 15  1  0  0  0  0
 14 31  1  0  0  0  0
 15 16  1  0  0  0  0
 15 32  1  0  0  0  0
 15 33  1  0  0  0  0
 16 20  1  0  0  0  0
 16 17  1  0  0  0  0
 16 34  1  0  0  0  0
 17 18  1  0  0  0  0
 17 35  1  0  0  0  0
 17 36  1  0  0  0  0
 18 19  1  0  0  0  0
 18 37  1  0  0  0  0
 18 38  1  0  0  0  0
 19 20  1  0  0  0  0
 19 39  1  0  0  0  0
 20 40  1  0  0  0  0
 20 41  1  0  0  0  0
M  END
> <s_m_source_file>
AV-unprocessed.smi

> <i_m_source_file_index>
1686

> <i_lp_mmshare_version>
43012

> <i_f3d_flags>
0

> <s_epik_input>
W0NIM11jMW5vYyhDbCljMVtDSDJdQyg9TylbTkhdW0NASF0oW0NIM10pW0NASF0oW0NIMl1bQ0BIXTIzKVtDQEhdKFtDSDJdMylbQ0gyXVtDSDJdMg==

> <s_epik_cmdline>
J2VwaWtfcHl0aG9uJywgJy1waCcsICc3LjAnLCAnLXRuJywgJzgnLCAnLW1hJywgJzIwMCcsICctbWV0YWxfYmluZGluZycsICctaW1hZScsICc8aW5maWxlLm1hZT4nLCAnLW9tYWUnLCAnPG91dGZpbGUubWFlPic=

> <r_lp_tautomer_probability>
1

> <r_epik_Ionization_Penalty>
2.01576e-08

> <r_epik_Ionization_Penalty_Charging>
0

> <r_epik_Ionization_Penalty_Neutral>
2.01576e-08

> <r_epik_State_Penalty>
-0

> <r_epik_Charging_Adjusted_Penalty>
0

> <i_epik_Tot_Q>
0

> <i_epik_Tot_abs_Q>
0

> <r_epik_Metal_State_Penalty>
-0

> <b_epik_Metal_Only>
0

> <s_lp_Force_Field>
OPLS_2005

> <r_lp_Energy>
45.7389

> <b_lp_Chiralities_Consistent>
1

> <s_lp_Variant>
AV-unprocessed.smi:1686-5

> <Gold.Version>
5.8.1

> <Gold.Id.Protein>
6NUR|6NUR_protein|mol2

> <Gold.PLP.Fitness>
48.3556

> <Gold.PLP.PLP>
-44.6226

> <Gold.PLP.part.hbond>
-1.9249

> <Gold.PLP.part.metal>
0.0000

> <Gold.PLP.part.buried>
-5.3993

> <Gold.PLP.part.nonpolar>
-37.6439

> <Gold.PLP.part.repulsive>
0.4498

> <Gold.PLP.ligand.clash>
0.5051

> <Gold.PLP.ligand.torsion>
0.8954

> <Gold.PLP.Chemscore.Hbond>
2.0000

> <Gold.PLP.Chemscore.CHOScore>
0.0000

> <Gold.PLP.Chemscore.Metal>
0.0000

> <Gold.Chemscore.Hbonds>
donor molecule, donor type, donor heavy atom, donor atom, acceptor molecule, acceptor atom, score
      P1  H  7997  8008       L1    10  0.96
      P1  H 10752 10765       L1     4  0.32

> <Gold.PLP.Chemscore.Internal.Correction>
0.0288

> <Gold.Rescore>
     Score         DG    S(hbond)    S(metal)    S(lipo)     H(rot)  DE(clash)    DE(int)     intcor
     20.91     -23.88       1.94        0.00     133.84       1.46       0.01       2.96       ----

> <Gold.Chemscore.Fitness>
20.9112

> <Gold.Chemscore.DG>
-23.8802

> <Gold.Chemscore.ZeroCoef>
-5.4800

> <Gold.Chemscore.Hbond>
1.9432

> <Gold.Chemscore.Metal>
0.0000

> <Gold.Chemscore.Lipo>
133.8439

> <Gold.Chemscore.Internal_Hbond>
0.0000

> <Gold.Chemscore.DEClash>
0.0077

> <Gold.Chemscore.DEInternal>
2.9613

> <Gold.Chemscore.Rot>
1.4648

> <Gold.Chemscore.Internal.Correction>
   9.000000E+99

> <Gold.Chemscore.Hbonds>
donor molecule, donor type, donor heavy atom, donor atom, acceptor molecule, acceptor atom, score
      P1  H  7997  8008       L1    10  0.91
      P1  H 10752 10765       L1     4  0.08

> <Gold.Chemscore.Hbond.Weighted>
-6.4904

> <Gold.Chemscore.Metal.Weighted>
-0.0000

> <Gold.Chemscore.Lipo.Weighted>
-15.6597

> <Gold.Chemscore.Internal_Hbond.Weighted>
0.0000

> <Gold.Chemscore.DEClash.Weighted>
0.0077

> <Gold.Chemscore.DEInternal.Weighted>
2.9613

> <Gold.Chemscore.Rot.Weighted>
3.7500

> <Gold.Chemscore.Internal.Correction.Weighted>
   9.000000E+99

> <Gold.Protein.RotatedTorsions>
[ 6907 6896 6895 6894 ] final -139.00 input  -60.11 | X-H torsion
[ 7974 7965 7964 7962 ] final   97.76 input  175.53 | X-H torsion
[ 8008 7997 7996 7995 ] final  -65.96 input   59.86 | X-H torsion
[ 10167 10162 10161 10158 ] final  -60.78 input  -65.29 | X-H torsion
[ 10718 10713 10712 10709 ] final  144.27 input   66.30 | X-H torsion
[ 10763 10752 10751 10750 ] final -178.97 input  -60.55 | X-H torsion
[ 11005 11000 10999 10996 ] final  163.00 input  -57.11 | X-H torsion

> <Gold.Protein.ActiveResidues>
 VAL166  LYS551  ARG553  GLY616  TRP617  ASP618  TYR619  PRO620  LYS621  CYS622 
 ASP623  PHE694  ASN695  SER759  ASP760  ASP761  ALA762  ILE779  LEU786  VAL792 
 PHE793  MET794  SER795  GLU796  ALA797  LYS798  CYS799  TRP800  GLU811  SER814 

> <Gold.Protein.RotatedAtoms>
  151.0421  133.5697  159.2649 H   0  0  0  0  0  0  0  0  0  0  0  0  # atno 6907 bound_to 6896
  151.2739  135.0692  159.9154 H   0  0  0  0  0  0  0  0  0  0  0  0  # atno 6908 bound_to 6896
  152.5366  134.0147  159.8008 H   0  0  0  0  0  0  0  0  0  0  0  0  # atno 6909 bound_to 6896
  145.4211  139.2321  143.3195 H   0  0  0  0  0  0  0  0  0  0  0  0  # atno 7974 bound_to 7965
  154.4704  140.0922  156.7130 H   0  0  0  0  0  0  0  0  0  0  0  0  # atno 8008 bound_to 7997
  155.4739  140.3465  155.4311 H   0  0  0  0  0  0  0  0  0  0  0  0  # atno 8009 bound_to 7997
  156.1030  140.1427  156.9431 H   0  0  0  0  0  0  0  0  0  0  0  0  # atno 8010 bound_to 7997
  140.6049  143.2371  151.5844 H   0  0  0  0  0  0  0  0  0  0  0  0  # atno 10167 bound_to 10162
  157.3592  131.0962  151.0931 H   0  0  0  0  0  0  0  0  0  0  0  0  # atno 10718 bound_to 10713
  154.5410  135.2806  155.1095 H   0  0  0  0  0  0  0  0  0  0  0  0  # atno 10763 bound_to 10752
  154.2578  135.6327  153.5267 H   0  0  0  0  0  0  0  0  0  0  0  0  # atno 10764 bound_to 10752
  152.9979  135.5598  154.5949 H   0  0  0  0  0  0  0  0  0  0  0  0  # atno 10765 bound_to 10752
  140.2314  134.8121  157.3320 H   0  0  0  0  0  0  0  0  0  0  0  0  # atno 11005 bound_to 11000
  146.2656  140.4936  142.8835 LP  0  0  0  0  0  0  0  0  0  0  0  0  # atno 17320 bound_to 7965
  144.8244  140.6604  143.6331 LP  0  0  0  0  0  0  0  0  0  0  0  0  # atno 17321 bound_to 7965
  139.5318  144.2895  152.1163 LP  0  0  0  0  0  0  0  0  0  0  0  0  # atno 17342 bound_to 10162
  140.2083  144.4588  150.6398 LP  0  0  0  0  0  0  0  0  0  0  0  0  # atno 17343 bound_to 10162
  157.2077  130.6423  149.5762 LP  0  0  0  0  0  0  0  0  0  0  0  0  # atno 17370 bound_to 10713
  155.9734  130.4670  150.6309 LP  0  0  0  0  0  0  0  0  0  0  0  0  # atno 17371 bound_to 10713
  140.1747  134.4565  155.7809 LP  0  0  0  0  0  0  0  0  0  0  0  0  # atno 17394 bound_to 11000
  141.2217  133.6957  156.7767 LP  0  0  0  0  0  0  0  0  0  0  0  0  # atno 17395 bound_to 11000

$$$$
