AV-unprocessed.smi:203|AV-procd|sdf|1595|dock7
  -GOLD-   2262019503D 1   1.00000     0.00000
 Structure written by MMmdl.
 57 61  0  0  0  0  0  0  0  0  1 V2000
  150.7540  140.5745  154.7109 O   0  0  0  0  0  0  0  0  0  0  0  0
  150.4724  140.8136  155.8828 C   0  0  0  0  0  0  0  0  0  0  0  0
  151.0750  141.9626  156.6731 C   0  0  0  0  0  0  0  0  0  0  0  0
  150.6112  141.6928  158.1181 C   0  0  2  0  0  0  0  0  0  0  0  0
  151.7637  141.2752  159.0868 C   0  0  2  0  0  0  0  0  0  0  0  0
  152.4535  142.4920  159.7588 C   0  0  0  0  0  0  0  0  0  0  0  0
  153.5824  142.0577  160.7027 C   0  0  0  0  0  0  0  0  0  0  0  0
  154.5908  141.1895  159.9433 C   0  0  0  0  0  0  0  0  0  0  0  0
  153.8825  139.9900  159.3003 C   0  0  0  0  0  0  0  0  0  0  0  0
  152.7777  140.4196  158.4432 N   0  0  0  0  0  0  0  0  0  0  0  0
  152.3106  139.3751  157.7234 C   0  0  0  0  0  0  0  0  0  0  0  0
  152.7001  139.2922  156.4276 N   0  0  0  0  0  0  0  0  0  0  0  0
  152.2599  138.2889  155.6620 C   0  0  0  0  0  0  0  0  0  0  0  0
  151.4439  137.2841  155.9891 N   0  0  0  0  0  0  0  0  0  0  0  0
  151.0591  137.3620  157.2953 C   0  0  0  0  0  0  0  0  0  0  0  0
  151.4433  138.3655  158.2281 C   0  0  0  0  0  0  0  0  0  0  0  0
  150.8558  138.1165  159.4627 N   0  0  0  0  0  0  0  0  0  0  0  0
  150.1596  137.0297  159.2697 C   0  0  0  0  0  0  0  0  0  0  0  0
  150.2223  136.5118  157.9961 N   0  0  0  0  0  0  0  0  0  0  0  0
  149.5455  135.3212  157.5122 C   0  0  0  0  0  0  0  0  0  0  0  0
  150.5262  134.2893  156.9147 C   0  0  1  0  0  0  0  0  0  0  0  0
  151.0865  133.5470  157.9811 O   0  0  0  0  0  0  0  0  0  0  0  0
  149.8477  133.2934  155.9526 C   0  0  1  0  0  0  0  0  0  0  0  0
  149.5333  133.8534  154.5637 C   0  0  0  0  0  0  0  0  0  0  0  0
  149.4785  132.6167  153.6824 C   0  0  0  0  0  0  0  0  0  0  0  0
  150.2223  131.5550  154.4957 C   0  0  0  0  0  0  0  0  0  0  0  0
  150.7504  132.2492  155.6177 O   0  0  0  0  0  0  0  0  0  0  0  0
  149.4918  140.6358  157.9842 C   0  0  0  0  0  0  0  0  0  0  0  0
  149.6129  140.1268  156.6321 N   0  0  0  0  0  0  0  0  0  0  0  0
  152.1587  142.0051  156.5648 H   0  0  0  0  0  0  0  0  0  0  0  0
  150.6639  142.9006  156.2984 H   0  0  0  0  0  0  0  0  0  0  0  0
  150.1654  142.6208  158.4774 H   0  0  0  0  0  0  0  0  0  0  0  0
  151.3151  140.6862  159.8874 H   0  0  0  0  0  0  0  0  0  0  0  0
  152.8678  143.1582  159.0020 H   0  0  0  0  0  0  0  0  0  0  0  0
  151.7339  143.0835  160.3239 H   0  0  0  0  0  0  0  0  0  0  0  0
  154.0797  142.9323  161.1232 H   0  0  0  0  0  0  0  0  0  0  0  0
  153.1686  141.4976  161.5421 H   0  0  0  0  0  0  0  0  0  0  0  0
  155.0828  141.7836  159.1720 H   0  0  0  0  0  0  0  0  0  0  0  0
  155.3738  140.8437  160.6186 H   0  0  0  0  0  0  0  0  0  0  0  0
  154.6029  139.4132  158.7182 H   0  0  0  0  0  0  0  0  0  0  0  0
  153.5012  139.3283  160.0794 H   0  0  0  0  0  0  0  0  0  0  0  0
  152.6104  138.2925  154.6404 H   0  0  0  0  0  0  0  0  0  0  0  0
  149.5742  136.5742  160.0552 H   0  0  0  0  0  0  0  0  0  0  0  0
  148.9774  134.8792  158.3317 H   0  0  0  0  0  0  0  0  0  0  0  0
  148.8171  135.6383  156.7656 H   0  0  0  0  0  0  0  0  0  0  0  0
  151.3268  134.8150  156.3927 H   0  0  0  0  0  0  0  0  0  0  0  0
  151.1589  132.6438  157.7128 H   0  0  0  0  0  0  0  0  0  0  0  0
  148.9409  132.8745  156.3944 H   0  0  0  0  0  0  0  0  0  0  0  0
  148.6079  134.4295  154.5381 H   0  0  0  0  0  0  0  0  0  0  0  0
  150.3442  134.5016  154.2280 H   0  0  0  0  0  0  0  0  0  0  0  0
  148.4488  132.3056  153.5025 H   0  0  0  0  0  0  0  0  0  0  0  0
  149.9496  132.7987  152.7158 H   0  0  0  0  0  0  0  0  0  0  0  0
  149.5332  130.7831  154.8409 H   0  0  0  0  0  0  0  0  0  0  0  0
  151.0177  131.0735  153.9265 H   0  0  0  0  0  0  0  0  0  0  0  0
  149.5688  139.8296  158.7139 H   0  0  0  0  0  0  0  0  0  0  0  0
  148.5096  141.0944  158.1027 H   0  0  0  0  0  0  0  0  0  0  0  0
  149.0969  139.3222  156.3067 H   0  0  0  0  0  0  0  0  0  0  0  0
  1  2  2  0  0  0  0
  2 29  1  0  0  0  0
  2  3  1  0  0  0  0
  3  4  1  0  0  0  0
  3 30  1  0  0  0  0
  3 31  1  0  0  0  0
  4  5  1  0  0  0  0
  4 28  1  0  0  0  0
  4 32  1  0  0  0  0
  5 10  1  0  0  0  0
  5  6  1  0  0  0  0
  5 33  1  0  0  0  0
  6  7  1  0  0  0  0
  6 34  1  0  0  0  0
  6 35  1  0  0  0  0
  7  8  1  0  0  0  0
  7 36  1  0  0  0  0
  7 37  1  0  0  0  0
  8  9  1  0  0  0  0
  8 38  1  0  0  0  0
  8 39  1  0  0  0  0
  9 10  1  0  0  0  0
  9 40  1  0  0  0  0
  9 41  1  0  0  0  0
 10 11  1  0  0  0  0
 11 16  1  0  0  0  0
 11 12  2  0  0  0  0
 12 13  1  0  0  0  0
 13 14  2  0  0  0  0
 13 42  1  0  0  0  0
 14 15  1  0  0  0  0
 15 19  1  0  0  0  0
 15 16  2  0  0  0  0
 16 17  1  0  0  0  0
 17 18  2  0  0  0  0
 18 19  1  0  0  0  0
 18 43  1  0  0  0  0
 19 20  1  0  0  0  0
 20 21  1  0  0  0  0
 20 44  1  0  0  0  0
 20 45  1  0  0  0  0
 21 22  1  0  0  0  0
 21 23  1  0  0  0  0
 21 46  1  0  0  0  0
 22 47  1  0  0  0  0
 23 27  1  0  0  0  0
 23 24  1  0  0  0  0
 23 48  1  0  0  0  0
 24 25  1  0  0  0  0
 24 49  1  0  0  0  0
 24 50  1  0  0  0  0
 25 26  1  0  0  0  0
 25 51  1  0  0  0  0
 25 52  1  0  0  0  0
 26 27  1  0  0  0  0
 26 53  1  0  0  0  0
 26 54  1  0  0  0  0
 28 29  1  0  0  0  0
 28 55  1  0  0  0  0
 28 56  1  0  0  0  0
 29 57  1  0  0  0  0
M  END
> <s_m_source_file>
AV-unprocessed.smi

> <i_m_source_file_index>
203

> <i_lp_mmshare_version>
43012

> <i_f3d_flags>
0

> <s_epik_input>
Tz1DMVtDSDJdW0NASF0oW0NIMl1bTkhdMSlbQ0BASF0yW0NIMl1bQ0gyXVtDSDJdW0NIMl1OMmMobltjSF1uMyljKGMzNCluW2NIXW40W0NIMl1bQ0BIXShbT0hdKVtDQEBIXTVbQ0gyXVtDSDJdW0NIMl1PNQ==

> <s_epik_cmdline>
J2VwaWtfcHl0aG9uJywgJy1waCcsICc3LjAnLCAnLXRuJywgJzgnLCAnLW1hJywgJzIwMCcsICctbWV0YWxfYmluZGluZycsICctaW1hZScsICc8aW5maWxlLm1hZT4nLCAnLW9tYWUnLCAnPG91dGZpbGUubWFlPic=

> <r_lp_tautomer_probability>
1

> <r_epik_Ionization_Penalty>
0.00175146

> <r_epik_Ionization_Penalty_Charging>
0

> <r_epik_Ionization_Penalty_Neutral>
0.00175146

> <r_epik_State_Penalty>
0.00109045

> <r_epik_Charging_Adjusted_Penalty>
0.00109045

> <i_epik_Tot_Q>
0

> <i_epik_Tot_abs_Q>
0

> <r_epik_Metal_State_Penalty>
-0

> <b_epik_Metal_Only>
0

> <s_lp_Force_Field>
OPLS_2005

> <r_lp_Energy>
56.5765

> <b_lp_Chiralities_Consistent>
1

> <s_lp_Variant>
AV-unprocessed.smi:203-14

> <Gold.Version>
5.8.1

> <Gold.Id.Protein>
6NUR|6NUR_protein|mol2

> <Gold.PLP.Fitness>
48.5222

> <Gold.PLP.PLP>
-43.4352

> <Gold.PLP.part.hbond>
-3.4287

> <Gold.PLP.part.metal>
0.0000

> <Gold.PLP.part.buried>
-5.5065

> <Gold.PLP.part.nonpolar>
-34.7568

> <Gold.PLP.part.repulsive>
0.1686

> <Gold.PLP.ligand.clash>
0.9125

> <Gold.PLP.ligand.torsion>
1.2726

> <Gold.PLP.Chemscore.Hbond>
2.7513

> <Gold.PLP.Chemscore.CHOScore>
0.0000

> <Gold.PLP.Chemscore.Metal>
0.0000

> <Gold.Chemscore.Hbonds>
donor molecule, donor type, donor heavy atom, donor atom, acceptor molecule, acceptor atom, score
      P1  H  6896  6908       L1    22  0.14
      P1  H  7989  7998       L1     1  0.98
      P1  H  7997  8010       L1    12  1.00

> <Gold.PLP.Chemscore.Internal.Correction>
0.2910

> <Gold.Rescore>
     Score         DG    S(hbond)    S(metal)    S(lipo)     H(rot)  DE(clash)    DE(int)     intcor
      5.75     -16.10       2.16        0.00      88.65       2.72       0.02      10.33       ----

> <Gold.Chemscore.Fitness>
5.7510

> <Gold.Chemscore.DG>
-16.1033

> <Gold.Chemscore.ZeroCoef>
-5.4800

> <Gold.Chemscore.Hbond>
2.1579

> <Gold.Chemscore.Metal>
0.0000

> <Gold.Chemscore.Lipo>
88.6475

> <Gold.Chemscore.Internal_Hbond>
0.0000

> <Gold.Chemscore.DEClash>
0.0178

> <Gold.Chemscore.DEInternal>
10.3346

> <Gold.Chemscore.Rot>
2.7171

> <Gold.Chemscore.Internal.Correction>
   9.000000E+99

> <Gold.Chemscore.Hbonds>
donor molecule, donor type, donor heavy atom, donor atom, acceptor molecule, acceptor atom, score
      P1  H  6896  6908       L1    22  0.08
      P1  H  7989  7998       L1     1  0.88
      P1  H  7997  8010       L1    12  0.45

> <Gold.Chemscore.Hbond.Weighted>
-7.2073

> <Gold.Chemscore.Metal.Weighted>
-0.0000

> <Gold.Chemscore.Lipo.Weighted>
-10.3718

> <Gold.Chemscore.Internal_Hbond.Weighted>
0.0000

> <Gold.Chemscore.DEClash.Weighted>
0.0178

> <Gold.Chemscore.DEInternal.Weighted>
10.3346

> <Gold.Chemscore.Rot.Weighted>
6.9557

> <Gold.Chemscore.Internal.Correction.Weighted>
   9.000000E+99

> <Gold.Protein.RotatedTorsions>
[ 6907 6896 6895 6894 ] final   97.24 input  -60.11 | X-H torsion
[ 7974 7965 7964 7962 ] final  102.58 input  175.53 | X-H torsion
[ 8008 7997 7996 7995 ] final   73.43 input   59.86 | X-H torsion
[ 10167 10162 10161 10158 ] final  -91.88 input  -65.29 | X-H torsion
[ 10718 10713 10712 10709 ] final  -61.51 input   66.30 | X-H torsion
[ 10763 10752 10751 10750 ] final -171.19 input  -60.55 | X-H torsion
[ 11005 11000 10999 10996 ] final -143.61 input  -57.11 | X-H torsion

> <Gold.Protein.ActiveResidues>
 VAL166  LYS551  ARG553  GLY616  TRP617  ASP618  TYR619  PRO620  LYS621  CYS622 
 ASP623  PHE694  ASN695  SER759  ASP760  ASP761  ALA762  ILE779  LEU786  VAL792 
 PHE793  MET794  SER795  GLU796  ALA797  LYS798  CYS799  TRP800  GLU811  SER814 

> <Gold.Protein.RotatedAtoms>
  152.5426  134.0764  159.8215 H   0  0  0  0  0  0  0  0  0  0  0  0  # atno 6907 bound_to 6896
  151.0871  133.5337  159.2624 H   0  0  0  0  0  0  0  0  0  0  0  0  # atno 6908 bound_to 6896
  151.2142  135.0502  159.8978 H   0  0  0  0  0  0  0  0  0  0  0  0  # atno 6909 bound_to 6896
  145.3572  139.2426  143.3526 H   0  0  0  0  0  0  0  0  0  0  0  0  # atno 7974 bound_to 7965
  155.7836  140.3481  155.5311 H   0  0  0  0  0  0  0  0  0  0  0  0  # atno 8008 bound_to 7997
  155.8704  140.0985  157.1574 H   0  0  0  0  0  0  0  0  0  0  0  0  # atno 8009 bound_to 7997
  154.4017  140.1341  156.4058 H   0  0  0  0  0  0  0  0  0  0  0  0  # atno 8010 bound_to 7997
  140.3404  143.2945  151.9841 H   0  0  0  0  0  0  0  0  0  0  0  0  # atno 10167 bound_to 10162
  156.0917  130.4199  150.1005 H   0  0  0  0  0  0  0  0  0  0  0  0  # atno 10718 bound_to 10713
  154.6333  135.2889  155.0191 H   0  0  0  0  0  0  0  0  0  0  0  0  # atno 10763 bound_to 10752
  154.1344  135.6528  153.4932 H   0  0  0  0  0  0  0  0  0  0  0  0  # atno 10764 bound_to 10752
  153.0290  135.5318  154.7169 H   0  0  0  0  0  0  0  0  0  0  0  0  # atno 10765 bound_to 10752
  140.8107  134.2747  157.4942 H   0  0  0  0  0  0  0  0  0  0  0  0  # atno 11005 bound_to 11000
  146.2943  140.4199  142.8728 LP  0  0  0  0  0  0  0  0  0  0  0  0  # atno 17320 bound_to 7965
  144.8673  140.7224  143.6069 LP  0  0  0  0  0  0  0  0  0  0  0  0  # atno 17321 bound_to 7965
  139.4841  144.6161  151.7343 LP  0  0  0  0  0  0  0  0  0  0  0  0  # atno 17342 bound_to 10162
  140.5314  144.0725  150.6055 LP  0  0  0  0  0  0  0  0  0  0  0  0  # atno 17343 bound_to 10162
  156.9013  130.9621  151.3576 LP  0  0  0  0  0  0  0  0  0  0  0  0  # atno 17370 bound_to 10713
  157.6067  130.8553  149.8887 LP  0  0  0  0  0  0  0  0  0  0  0  0  # atno 17371 bound_to 10713
  139.8714  134.9482  156.3988 LP  0  0  0  0  0  0  0  0  0  0  0  0  # atno 17394 bound_to 11000
  140.9200  133.7651  155.9895 LP  0  0  0  0  0  0  0  0  0  0  0  0  # atno 17395 bound_to 11000

$$$$
