AV-unprocessed.smi:901|AV-procd|sdf|4092|dock1
  -GOLD-   22720 1583D 1   1.00000     0.00000
 Structure written by MMmdl.
 43 44  0  0  0  0  0  0  0  0  1 V2000
  152.8814  143.5914  160.9813 C   0  0  0  0  0  0  0  0  0  0  0  0
  152.6497  143.1859  159.5394 C   0  0  0  0  0  0  0  0  0  0  0  0
  153.6578  143.7477  158.5525 C   0  0  0  0  0  0  0  0  0  0  0  0
  151.6214  142.3922  159.1829 C   0  0  0  0  0  0  0  0  0  0  0  0
  151.2996  141.9230  157.8035 C   0  0  2  0  0  0  0  0  0  0  0  0
  150.0716  142.3500  157.0029 C   0  0  2  0  0  0  0  0  0  0  0  0
  149.0372  143.2557  157.5940 C   0  0  0  0  0  0  0  0  0  0  0  0
  147.8514  142.9408  157.6864 O   0  0  0  0  0  0  0  0  0  0  0  0
  149.5584  144.3989  158.0733 N   0  0  0  0  0  0  0  0  0  0  0  0
  148.8846  145.4914  158.6761 C   0  0  0  0  0  0  0  0  0  0  0  0
  149.4955  146.6769  159.1841 C   0  0  0  0  0  0  0  0  0  0  0  0
  148.4363  147.3920  159.6653 C   0  0  0  0  0  0  0  0  0  0  0  0
  147.2958  146.6445  159.4477 N   0  0  0  0  0  0  0  0  0  0  0  0
  145.9222  146.9760  159.7871 C   0  0  0  0  0  0  0  0  0  0  0  0
  145.7972  148.4081  160.3171 C   0  0  0  0  0  0  0  0  0  0  0  0
  145.9608  149.3973  159.4350 N   0  0  0  0  0  0  0  0  0  0  0  0
  145.5540  148.6236  161.5032 O   0  0  0  0  0  0  0  0  0  0  0  0
  147.5729  145.4703  158.8389 N   0  0  0  0  0  0  0  0  0  0  0  0
  150.1898  140.9239  157.5282 C   0  0  0  0  0  0  0  0  0  0  0  0
  150.4312  139.8118  156.5231 C   0  0  0  0  0  0  0  0  0  0  0  0
  149.3104  140.3994  158.6614 C   0  0  0  0  0  0  0  0  0  0  0  0
  152.8276  144.6756  161.0809 H   0  0  0  0  0  0  0  0  0  0  0  0
  153.8677  143.2653  161.3114 H   0  0  0  0  0  0  0  0  0  0  0  0
  152.1378  143.1527  161.6474 H   0  0  0  0  0  0  0  0  0  0  0  0
  153.6380  144.8374  158.5803 H   0  0  0  0  0  0  0  0  0  0  0  0
  153.4573  143.4377  157.5274 H   0  0  0  0  0  0  0  0  0  0  0  0
  154.6637  143.4180  158.8131 H   0  0  0  0  0  0  0  0  0  0  0  0
  150.9587  142.0415  159.9601 H   0  0  0  0  0  0  0  0  0  0  0  0
  152.2132  141.7974  157.2249 H   0  0  0  0  0  0  0  0  0  0  0  0
  150.2503  142.5110  155.9411 H   0  0  0  0  0  0  0  0  0  0  0  0
  150.5606  144.4969  158.0001 H   0  0  0  0  0  0  0  0  0  0  0  0
  150.5350  146.9675  159.2040 H   0  0  0  0  0  0  0  0  0  0  0  0
  148.3994  148.3588  160.1454 H   0  0  0  0  0  0  0  0  0  0  0  0
  145.3060  146.8407  158.8971 H   0  0  0  0  0  0  0  0  0  0  0  0
  145.5539  146.2790  160.5418 H   0  0  0  0  0  0  0  0  0  0  0  0
  145.8904  150.3590  159.7340 H   0  0  0  0  0  0  0  0  0  0  0  0
  146.1571  149.1778  158.4690 H   0  0  0  0  0  0  0  0  0  0  0  0
  149.4856  139.4643  156.1060 H   0  0  0  0  0  0  0  0  0  0  0  0
  150.9333  138.9699  157.0007 H   0  0  0  0  0  0  0  0  0  0  0  0
  151.0581  140.1609  155.7019 H   0  0  0  0  0  0  0  0  0  0  0  0
  148.3507  140.0619  158.2690 H   0  0  0  0  0  0  0  0  0  0  0  0
  149.1152  141.1632  159.4141 H   0  0  0  0  0  0  0  0  0  0  0  0
  149.7955  139.5578  159.1564 H   0  0  0  0  0  0  0  0  0  0  0  0
  1  2  1  0  0  0  0
  1 22  1  0  0  0  0
  1 23  1  0  0  0  0
  1 24  1  0  0  0  0
  2  3  1  0  0  0  0
  2  4  2  0  0  0  0
  3 25  1  0  0  0  0
  3 26  1  0  0  0  0
  3 27  1  0  0  0  0
  4  5  1  0  0  0  0
  4 28  1  0  0  0  0
  5 19  1  0  0  0  0
  5  6  1  0  0  0  0
  5 29  1  0  0  0  0
  6  7  1  0  0  0  0
  6 19  1  0  0  0  0
  6 30  1  0  0  0  0
  7  8  2  0  0  0  0
  7  9  1  0  0  0  0
  9 10  1  0  0  0  0
  9 31  1  0  0  0  0
 10 18  2  0  0  0  0
 10 11  1  0  0  0  0
 11 12  2  0  0  0  0
 11 32  1  0  0  0  0
 12 13  1  0  0  0  0
 12 33  1  0  0  0  0
 13 14  1  0  0  0  0
 13 18  1  0  0  0  0
 14 15  1  0  0  0  0
 14 34  1  0  0  0  0
 14 35  1  0  0  0  0
 15 16  1  0  0  0  0
 15 17  2  0  0  0  0
 16 36  1  0  0  0  0
 16 37  1  0  0  0  0
 19 20  1  0  0  0  0
 19 21  1  0  0  0  0
 20 38  1  0  0  0  0
 20 39  1  0  0  0  0
 20 40  1  0  0  0  0
 21 41  1  0  0  0  0
 21 42  1  0  0  0  0
 21 43  1  0  0  0  0
M  END
> <s_m_source_file>
AV-unprocessed.smi

> <i_m_source_file_index>
901

> <i_lp_mmshare_version>
43012

> <i_f3d_flags>
0

> <s_epik_input>
W0NIM11DKFtDSDNdKT1bQ0hdW0NAQEhdKEMxKFtDSDNdKVtDSDNdKVtDQEhdMUMoPU8pW05IXWMyW2NIXVtjSF1uKG4yKVtDSDJdQyg9TylbTkgyXQ==

> <s_epik_cmdline>
J2VwaWtfcHl0aG9uJywgJy1waCcsICc3LjAnLCAnLXRuJywgJzgnLCAnLW1hJywgJzIwMCcsICctbWV0YWxfYmluZGluZycsICctaW1hZScsICc8aW5maWxlLm1hZT4nLCAnLW9tYWUnLCAnPG91dGZpbGUubWFlPic=

> <r_lp_tautomer_probability>
1

> <r_epik_Ionization_Penalty>
1.01454e-05

> <r_epik_Ionization_Penalty_Charging>
0

> <r_epik_Ionization_Penalty_Neutral>
1.01454e-05

> <r_epik_State_Penalty>
-0

> <r_epik_Charging_Adjusted_Penalty>
0

> <i_epik_Tot_Q>
0

> <i_epik_Tot_abs_Q>
0

> <r_epik_Metal_State_Penalty>
-0

> <b_epik_Metal_Only>
0

> <s_lp_Force_Field>
OPLS_2005

> <r_lp_Energy>
21.7989

> <b_lp_Chiralities_Consistent>
1

> <s_lp_Variant>
AV-unprocessed.smi:901-3

> <Gold.Version>
5.8.1

> <Gold.Id.Protein>
6NUR|6NUR_protein|mol2

> <Gold.PLP.Fitness>
45.6646

> <Gold.PLP.PLP>
-42.9349

> <Gold.PLP.part.hbond>
-3.8906

> <Gold.PLP.part.metal>
0.0000

> <Gold.PLP.part.buried>
-5.2516

> <Gold.PLP.part.nonpolar>
-34.3425

> <Gold.PLP.part.repulsive>
0.3430

> <Gold.PLP.ligand.clash>
0.0000

> <Gold.PLP.ligand.torsion>
0.2575

> <Gold.PLP.Chemscore.Hbond>
1.0000

> <Gold.PLP.Chemscore.CHOScore>
0.0000

> <Gold.PLP.Chemscore.Metal>
0.0000

> <Gold.PLP.Chemscore.Internal.Correction>
0.2447

> <Gold.Rescore>
     Score         DG    S(hbond)    S(metal)    S(lipo)     H(rot)  DE(clash)    DE(int)     intcor
      9.65     -12.39       0.79        0.00      83.23       2.13       0.13       2.61       ----

> <Gold.Chemscore.Fitness>
9.6488

> <Gold.Chemscore.DG>
-12.3867

> <Gold.Chemscore.ZeroCoef>
-5.4800

> <Gold.Chemscore.Hbond>
0.7856

> <Gold.Chemscore.Metal>
0.0000

> <Gold.Chemscore.Lipo>
83.2293

> <Gold.Chemscore.Internal_Hbond>
0.0000

> <Gold.Chemscore.DEClash>
0.1325

> <Gold.Chemscore.DEInternal>
2.6054

> <Gold.Chemscore.Rot>
2.1309

> <Gold.Chemscore.Internal.Correction>
   9.000000E+99

> <Gold.Chemscore.Hbond.Weighted>
-2.6240

> <Gold.Chemscore.Metal.Weighted>
-0.0000

> <Gold.Chemscore.Lipo.Weighted>
-9.7378

> <Gold.Chemscore.Internal_Hbond.Weighted>
0.0000

> <Gold.Chemscore.DEClash.Weighted>
0.1325

> <Gold.Chemscore.DEInternal.Weighted>
2.6054

> <Gold.Chemscore.Rot.Weighted>
5.4552

> <Gold.Chemscore.Internal.Correction.Weighted>
   9.000000E+99

> <Gold.Protein.RotatedTorsions>
[ 6907 6896 6895 6894 ] final   -0.96 input  -60.11 | X-H torsion
[ 7974 7965 7964 7962 ] final -143.07 input  175.53 | X-H torsion
[ 8008 7997 7996 7995 ] final   86.21 input   59.86 | X-H torsion
[ 10167 10162 10161 10158 ] final  -88.34 input  -65.29 | X-H torsion
[ 10718 10713 10712 10709 ] final    3.16 input   66.30 | X-H torsion
[ 10763 10752 10751 10750 ] final -177.07 input  -60.55 | X-H torsion
[ 11005 11000 10999 10996 ] final  -66.78 input  -57.11 | X-H torsion

> <Gold.Protein.ActiveResidues>
 VAL166  LYS551  ARG553  GLY616  TRP617  ASP618  TYR619  PRO620  LYS621  CYS622 
 ASP623  PHE694  ASN695  SER759  ASP760  ASP761  ALA762  ILE779  LEU786  VAL792 
 PHE793  MET794  SER795  GLU796  ALA797  LYS798  CYS799  TRP800  GLU811  SER814 

> <Gold.Protein.RotatedAtoms>
  151.5538  135.1067  159.9955 H   0  0  0  0  0  0  0  0  0  0  0  0  # atno 6907 bound_to 6896
  152.4479  133.7567  159.6735 H   0  0  0  0  0  0  0  0  0  0  0  0  # atno 6908 bound_to 6896
  150.8399  133.7885  159.3089 H   0  0  0  0  0  0  0  0  0  0  0  0  # atno 6909 bound_to 6896
  144.8396  140.5880  143.5461 H   0  0  0  0  0  0  0  0  0  0  0  0  # atno 7974 bound_to 7965
  155.9599  140.3394  155.6481 H   0  0  0  0  0  0  0  0  0  0  0  0  # atno 8008 bound_to 7997
  155.6811  140.0738  157.2502 H   0  0  0  0  0  0  0  0  0  0  0  0  # atno 8009 bound_to 7997
  154.4141  140.1674  156.1971 H   0  0  0  0  0  0  0  0  0  0  0  0  # atno 8010 bound_to 7997
  140.3756  143.2773  151.9446 H   0  0  0  0  0  0  0  0  0  0  0  0  # atno 10167 bound_to 10162
  156.8737  130.5629  149.5656 H   0  0  0  0  0  0  0  0  0  0  0  0  # atno 10718 bound_to 10713
  154.5646  135.2823  155.0886 H   0  0  0  0  0  0  0  0  0  0  0  0  # atno 10763 bound_to 10752
  154.2281  135.6379  153.5170 H   0  0  0  0  0  0  0  0  0  0  0  0  # atno 10764 bound_to 10752
  153.0039  135.5530  154.6251 H   0  0  0  0  0  0  0  0  0  0  0  0  # atno 10765 bound_to 10752
  141.1491  133.6706  156.6192 H   0  0  0  0  0  0  0  0  0  0  0  0  # atno 11005 bound_to 11000
  145.4722  139.1502  143.3808 LP  0  0  0  0  0  0  0  0  0  0  0  0  # atno 17320 bound_to 7965
  146.2690  140.4855  142.8822 LP  0  0  0  0  0  0  0  0  0  0  0  0  # atno 17321 bound_to 7965
  139.4799  144.5866  151.7843 LP  0  0  0  0  0  0  0  0  0  0  0  0  # atno 17342 bound_to 10162
  140.4989  144.1199  150.5966 LP  0  0  0  0  0  0  0  0  0  0  0  0  # atno 17343 bound_to 10162
  156.0713  130.5745  150.9388 LP  0  0  0  0  0  0  0  0  0  0  0  0  # atno 17370 bound_to 10713
  157.6181  131.0932  150.8674 LP  0  0  0  0  0  0  0  0  0  0  0  0  # atno 17371 bound_to 10713
  140.3554  134.7733  157.4496 LP  0  0  0  0  0  0  0  0  0  0  0  0  # atno 17394 bound_to 11000
  140.0827  134.5708  155.8524 LP  0  0  0  0  0  0  0  0  0  0  0  0  # atno 17395 bound_to 11000

$$$$
