AV-unprocessed.smi:3254|AV-procd|sdf|12453|dock1
  -GOLD-   2272018343D 1   1.00000     0.00000
 Structure written by MMmdl.
 37 38  0  0  0  0  0  0  0  0  2 V2000
  147.4276  124.1628  148.4300 C   0  0  0  0  0  0  0  0  0  0  0  0
  148.6439  125.0984  148.4571 C   0  0  0  0  0  0  0  0  0  0  0  0
  148.7816  125.7595  149.7517 N   0  0  0  0  0  0  0  0  0  0  0  0
  148.7459  127.2089  149.8514 C   0  0  0  0  0  0  0  0  0  0  0  0
  148.7277  127.5214  151.3637 C   0  0  1  0  0  0  0  0  0  0  0  0
  147.3707  128.0706  151.8314 C   0  0  0  0  0  0  0  0  0  0  0  0
  146.7342  127.4847  152.7075 O   0  0  0  0  0  0  0  0  0  0  0  0
  146.9438  129.1933  151.2340 N   0  0  0  0  0  0  0  0  0  0  0  0
  145.6880  129.8810  151.5199 C   0  0  0  0  0  0  0  0  0  0  0  0
  145.8933  131.4015  151.6147 C   0  0  0  0  0  0  0  0  0  0  0  0
  144.8739  132.1560  150.8787 N   0  0  0  0  0  0  0  0  0  0  0  0
  144.8738  132.4666  149.5429 C   0  0  0  0  0  0  0  0  0  0  0  0
  143.7242  133.1756  149.3065 C   0  0  0  0  0  0  0  0  0  0  0  0
  143.0696  133.2642  150.5058 N   0  3  0  0  0  0  0  0  0  0  0  0
  143.7689  132.6413  151.4601 C   0  0  0  0  0  0  0  0  0  0  0  0
  149.0638  126.1836  152.0529 C   0  0  0  0  0  0  0  0  0  0  0  0
  148.9951  125.1627  150.9293 C   0  0  0  0  0  0  0  0  0  0  0  0
  149.1145  123.9533  151.1194 O   0  0  0  0  0  0  0  0  0  0  0  0
  147.3216  123.6928  147.4522 H   0  0  0  0  0  0  0  0  0  0  0  0
  146.5073  124.7095  148.6378 H   0  0  0  0  0  0  0  0  0  0  0  0
  147.5195  123.3680  149.1707 H   0  0  0  0  0  0  0  0  0  0  0  0
  149.5526  124.5370  148.2344 H   0  0  0  0  0  0  0  0  0  0  0  0
  148.5475  125.8503  147.6730 H   0  0  0  0  0  0  0  0  0  0  0  0
  149.6376  127.6253  149.3812 H   0  0  0  0  0  0  0  0  0  0  0  0
  147.8787  127.6062  149.3206 H   0  0  0  0  0  0  0  0  0  0  0  0
  149.5041  128.2545  151.5898 H   0  0  0  0  0  0  0  0  0  0  0  0
  147.5319  129.5966  150.5197 H   0  0  0  0  0  0  0  0  0  0  0  0
  144.9686  129.6407  150.7364 H   0  0  0  0  0  0  0  0  0  0  0  0
  145.2551  129.5280  152.4572 H   0  0  0  0  0  0  0  0  0  0  0  0
  145.8437  131.7209  152.6562 H   0  0  0  0  0  0  0  0  0  0  0  0
  146.8798  131.6841  151.2435 H   0  0  0  0  0  0  0  0  0  0  0  0
  145.6713  132.1686  148.8777 H   0  0  0  0  0  0  0  0  0  0  0  0
  143.3328  133.6109  148.3986 H   0  0  0  0  0  0  0  0  0  0  0  0
  143.4944  132.5503  152.4960 H   0  0  0  0  0  0  0  0  0  0  0  0
  150.0717  126.1974  152.4692 H   0  0  0  0  0  0  0  0  0  0  0  0
  148.3724  125.9158  152.8536 H   0  0  0  0  0  0  0  0  0  0  0  0
  142.1825  133.7299  150.6509 H   0  0  0  0  0  0  0  0  0  0  0  0
  1  2  1  0  0  0  0
  1 19  1  0  0  0  0
  1 20  1  0  0  0  0
  1 21  1  0  0  0  0
  2  3  1  0  0  0  0
  2 22  1  0  0  0  0
  2 23  1  0  0  0  0
  3 17  1  0  0  0  0
  3  4  1  0  0  0  0
  4  5  1  0  0  0  0
  4 24  1  0  0  0  0
  4 25  1  0  0  0  0
  5  6  1  0  0  0  0
  5 16  1  0  0  0  0
  5 26  1  0  0  0  0
  6  7  2  0  0  0  0
  6  8  1  0  0  0  0
  8  9  1  0  0  0  0
  8 27  1  0  0  0  0
  9 10  1  0  0  0  0
  9 28  1  0  0  0  0
  9 29  1  0  0  0  0
 10 11  1  0  0  0  0
 10 30  1  0  0  0  0
 10 31  1  0  0  0  0
 11 15  1  0  0  0  0
 11 12  1  0  0  0  0
 12 13  2  0  0  0  0
 12 32  1  0  0  0  0
 13 14  1  0  0  0  0
 13 33  1  0  0  0  0
 14 15  2  0  0  0  0
 14 37  1  0  0  0  0
 15 34  1  0  0  0  0
 16 17  1  0  0  0  0
 16 35  1  0  0  0  0
 16 36  1  0  0  0  0
 17 18  2  0  0  0  0
M  CHG  1  14   1
M  END
> <s_m_source_file>
AV-unprocessed.smi

> <i_m_source_file_index>
3254

> <i_lp_mmshare_version>
43012

> <i_f3d_flags>
0

> <s_epik_input>
W0NIM11bQ0gyXU4xW0NIMl1bQ0BIXShbQ0gyXUMxPU8pQyg9TylbTkhdW0NIMl1bQ0gyXW4yW2NIXVtjSF1uW2NIXTI=

> <s_epik_cmdline>
J2VwaWtfcHl0aG9uJywgJy1waCcsICc3LjAnLCAnLXRuJywgJzgnLCAnLW1hJywgJzIwMCcsICctbWV0YWxfYmluZGluZycsICctaW1hZScsICc8aW5maWxlLm1hZT4nLCAnLW9tYWUnLCAnPG91dGZpbGUubWFlPic=

> <r_lp_tautomer_probability>
1

> <r_epik_Ionization_Penalty>
0.274742

> <r_epik_Ionization_Penalty_Charging>
0

> <r_epik_Ionization_Penalty_Neutral>
0.274742

> <r_epik_State_Penalty>
0.267046

> <r_epik_Charging_Adjusted_Penalty>
0.267046

> <i_epik_Tot_Q>
1

> <i_epik_Tot_abs_Q>
1

> <r_epik_Metal_State_Penalty>
0.550456

> <b_epik_Metal_Only>
0

> <s_lp_Force_Field>
OPLS_2005

> <r_lp_Energy>
18.3055

> <b_lp_Chiralities_Consistent>
1

> <s_lp_Variant>
AV-unprocessed.smi:3254-1

> <Gold.Version>
5.8.1

> <Gold.Id.Protein>
6NUR|6NUR_protein|mol2

> <Gold.PLP.Fitness>
49.6054

> <Gold.PLP.PLP>
-42.6363

> <Gold.PLP.part.hbond>
-1.9654

> <Gold.PLP.part.metal>
0.0000

> <Gold.PLP.part.buried>
-7.6389

> <Gold.PLP.part.nonpolar>
-34.1951

> <Gold.PLP.part.repulsive>
0.2098

> <Gold.PLP.ligand.clash>
0.0000

> <Gold.PLP.ligand.torsion>
0.7974

> <Gold.PLP.Chemscore.Hbond>
2.8480

> <Gold.PLP.Chemscore.CHOScore>
0.0000

> <Gold.PLP.Chemscore.Metal>
0.0000

> <Gold.Chemscore.Hbonds>
donor molecule, donor type, donor heavy atom, donor atom, acceptor molecule, acceptor atom, score
      L1  H     8    27       P1 10747  0.86
      L1  H    14    37       P1 10186  1.34
      L1  C    15    34       P1 10957  0.54

> <Gold.PLP.Chemscore.Internal.Correction>
0.0199

> <Gold.Rescore>
     Score         DG    S(hbond)    S(metal)    S(lipo)     H(rot)  DE(clash)    DE(int)     intcor
     13.99     -14.78       1.61        0.00      83.28       2.28       0.14       0.65       ----

> <Gold.Chemscore.Fitness>
13.9891

> <Gold.Chemscore.DG>
-14.7809

> <Gold.Chemscore.ZeroCoef>
-5.4800

> <Gold.Chemscore.Hbond>
1.6132

> <Gold.Chemscore.Metal>
0.0000

> <Gold.Chemscore.Lipo>
83.2785

> <Gold.Chemscore.Internal_Hbond>
0.0000

> <Gold.Chemscore.DEClash>
0.1403

> <Gold.Chemscore.DEInternal>
0.6515

> <Gold.Chemscore.Rot>
2.2776

> <Gold.Chemscore.Internal.Correction>
   9.000000E+99

> <Gold.Chemscore.Hbonds>
donor molecule, donor type, donor heavy atom, donor atom, acceptor molecule, acceptor atom, score
      L1  H     8    27       P1 10747  0.82
      L1  H    14    37       P1 10186  0.58

> <Gold.Chemscore.Hbond.Weighted>
-5.3881

> <Gold.Chemscore.Metal.Weighted>
-0.0000

> <Gold.Chemscore.Lipo.Weighted>
-9.7436

> <Gold.Chemscore.Internal_Hbond.Weighted>
0.0000

> <Gold.Chemscore.DEClash.Weighted>
0.1403

> <Gold.Chemscore.DEInternal.Weighted>
0.6515

> <Gold.Chemscore.Rot.Weighted>
5.8307

> <Gold.Chemscore.Internal.Correction.Weighted>
   9.000000E+99

> <Gold.Protein.RotatedTorsions>
[ 6907 6896 6895 6894 ] final  -26.68 input  -60.11 | X-H torsion
[ 7974 7965 7964 7962 ] final  -38.91 input  175.53 | X-H torsion
[ 8008 7997 7996 7995 ] final  116.48 input   59.86 | X-H torsion
[ 10167 10162 10161 10158 ] final  174.96 input  -65.29 | X-H torsion
[ 10718 10713 10712 10709 ] final -136.25 input   66.30 | X-H torsion
[ 10763 10752 10751 10750 ] final  116.43 input  -60.55 | X-H torsion
[ 11005 11000 10999 10996 ] final  -49.19 input  -57.11 | X-H torsion

> <Gold.Protein.ActiveResidues>
 VAL166  LYS551  ARG553  GLY616  TRP617  ASP618  TYR619  PRO620  LYS621  CYS622 
 ASP623  PHE694  ASN695  SER759  ASP760  ASP761  ALA762  ILE779  LEU786  VAL792 
 PHE793  MET794  SER795  GLU796  ALA797  LYS798  CYS799  TRP800  GLU811  SER814 

> <Gold.Protein.RotatedAtoms>
  151.1575  135.0257  159.8695 H   0  0  0  0  0  0  0  0  0  0  0  0  # atno 6907 bound_to 6896
  152.5452  134.1317  159.8452 H   0  0  0  0  0  0  0  0  0  0  0  0  # atno 6908 bound_to 6896
  151.1409  133.4926  159.2629 H   0  0  0  0  0  0  0  0  0  0  0  0  # atno 6909 bound_to 6896
  146.0444  140.6565  142.9071 H   0  0  0  0  0  0  0  0  0  0  0  0  # atno 7974 bound_to 7965
  156.2441  140.2916  156.0530 H   0  0  0  0  0  0  0  0  0  0  0  0  # atno 8008 bound_to 7997
  155.1860  140.0405  157.2908 H   0  0  0  0  0  0  0  0  0  0  0  0  # atno 8009 bound_to 7997
  154.6227  140.2480  155.7537 H   0  0  0  0  0  0  0  0  0  0  0  0  # atno 8010 bound_to 7997
  139.5160  144.3086  152.0312 H   0  0  0  0  0  0  0  0  0  0  0  0  # atno 10167 bound_to 10162
  156.2750  130.7287  151.1267 H   0  0  0  0  0  0  0  0  0  0  0  0  # atno 10718 bound_to 10713
  153.5372  135.3566  155.2702 H   0  0  0  0  0  0  0  0  0  0  0  0  # atno 10763 bound_to 10752
  154.8721  135.4082  154.3085 H   0  0  0  0  0  0  0  0  0  0  0  0  # atno 10764 bound_to 10752
  153.3785  135.7067  153.6651 H   0  0  0  0  0  0  0  0  0  0  0  0  # atno 10765 bound_to 10752
  141.0745  133.6670  156.3550 H   0  0  0  0  0  0  0  0  0  0  0  0  # atno 11005 bound_to 11000
  144.7090  140.3967  143.7095 LP  0  0  0  0  0  0  0  0  0  0  0  0  # atno 17320 bound_to 7965
  145.6830  139.1622  143.2690 LP  0  0  0  0  0  0  0  0  0  0  0  0  # atno 17321 bound_to 7965
  140.2532  144.4147  150.6214 LP  0  0  0  0  0  0  0  0  0  0  0  0  # atno 17342 bound_to 10162
  140.6210  143.2176  151.6694 LP  0  0  0  0  0  0  0  0  0  0  0  0  # atno 17343 bound_to 10162
  157.7296  131.0623  150.5765 LP  0  0  0  0  0  0  0  0  0  0  0  0  # atno 17370 bound_to 10713
  156.5865  130.4318  149.5955 LP  0  0  0  0  0  0  0  0  0  0  0  0  # atno 17371 bound_to 10713
  140.5603  134.5941  157.5432 LP  0  0  0  0  0  0  0  0  0  0  0  0  # atno 17394 bound_to 11000
  139.9557  134.7539  156.0347 LP  0  0  0  0  0  0  0  0  0  0  0  0  # atno 17395 bound_to 11000

$$$$
