AV-unprocessed.smi:3231|AV-procd|sdf|12338|dock6
  -GOLD-   2272018193D 1   1.00000     0.00000
 Structure written by MMmdl.
 40 41  0  0  0  0  0  0  0  0  1 V2000
  146.8896  140.3107  152.2460 O   0  0  0  0  0  0  0  0  0  0  0  0
  146.9035  139.0744  152.9324 C   0  0  1  0  0  0  0  0  0  0  0  0
  146.0295  138.0998  152.1222 C   0  0  0  0  0  0  0  0  0  0  0  0
  146.4010  136.7113  152.3819 N   0  0  0  0  0  0  0  0  0  0  0  0
  145.4844  135.7462  151.7839 C   0  0  0  0  0  0  0  0  0  0  0  0
  145.9943  134.3110  151.9736 C   0  0  0  0  0  0  0  0  0  0  0  0
  145.2897  133.3774  151.1166 N   0  0  0  0  0  0  0  0  0  0  0  0
  145.8132  132.3742  150.3286 C   0  0  0  0  0  0  0  0  0  0  0  0
  144.7653  131.7579  149.7067 C   0  0  0  0  0  0  0  0  0  0  0  0
  143.6259  132.4641  150.1841 C   0  0  0  0  0  0  0  0  0  0  0  0
  143.9431  133.4330  151.0278 N   0  0  0  0  0  0  0  0  0  0  0  0
  148.3671  138.5900  153.0312 C   0  0  0  0  0  0  0  0  0  0  0  0
  149.1251  139.1129  154.1692 N   0  0  0  0  0  0  0  0  0  0  0  0
  149.1393  140.5735  154.2140 C   0  0  0  0  0  0  0  0  0  0  0  0
  149.9668  141.1055  155.3975 C   0  0  0  0  0  0  0  0  0  0  0  0
  151.2903  140.5848  155.3311 O   0  0  0  0  0  0  0  0  0  0  0  0
  151.3196  139.1614  155.3357 C   0  0  0  0  0  0  0  0  0  0  0  0
  150.5009  138.6270  154.1479 C   0  0  0  0  0  0  0  0  0  0  0  0
  147.7089  140.4016  151.7835 H   0  0  0  0  0  0  0  0  0  0  0  0
  146.4863  139.1978  153.9333 H   0  0  0  0  0  0  0  0  0  0  0  0
  144.9722  138.2660  152.3332 H   0  0  0  0  0  0  0  0  0  0  0  0
  146.1653  138.3001  151.0588 H   0  0  0  0  0  0  0  0  0  0  0  0
  147.3432  136.5417  152.0441 H   0  0  0  0  0  0  0  0  0  0  0  0
  144.4946  135.8463  152.2308 H   0  0  0  0  0  0  0  0  0  0  0  0
  145.3704  135.9533  150.7190 H   0  0  0  0  0  0  0  0  0  0  0  0
  147.0613  134.2493  151.7541 H   0  0  0  0  0  0  0  0  0  0  0  0
  145.8648  133.9948  153.0096 H   0  0  0  0  0  0  0  0  0  0  0  0
  146.8753  132.1842  150.2770 H   0  0  0  0  0  0  0  0  0  0  0  0
  144.8059  130.9288  149.0159 H   0  0  0  0  0  0  0  0  0  0  0  0
  142.5853  132.3023  149.9444 H   0  0  0  0  0  0  0  0  0  0  0  0
  148.3460  137.5041  153.1300 H   0  0  0  0  0  0  0  0  0  0  0  0
  148.8976  138.7816  152.0967 H   0  0  0  0  0  0  0  0  0  0  0  0
  149.5460  140.9683  153.2818 H   0  0  0  0  0  0  0  0  0  0  0  0
  148.1234  140.9580  154.3006 H   0  0  0  0  0  0  0  0  0  0  0  0
  150.0102  142.1943  155.3707 H   0  0  0  0  0  0  0  0  0  0  0  0
  149.5065  140.8262  156.3465 H   0  0  0  0  0  0  0  0  0  0  0  0
  152.3543  138.8255  155.2650 H   0  0  0  0  0  0  0  0  0  0  0  0
  150.9232  138.7848  156.2798 H   0  0  0  0  0  0  0  0  0  0  0  0
  150.5092  137.5365  154.1685 H   0  0  0  0  0  0  0  0  0  0  0  0
  150.9841  138.9249  153.2159 H   0  0  0  0  0  0  0  0  0  0  0  0
  1  2  1  0  0  0  0
  1 19  1  0  0  0  0
  2  3  1  0  0  0  0
  2 12  1  0  0  0  0
  2 20  1  0  0  0  0
  3  4  1  0  0  0  0
  3 21  1  0  0  0  0
  3 22  1  0  0  0  0
  4  5  1  0  0  0  0
  4 23  1  0  0  0  0
  5  6  1  0  0  0  0
  5 24  1  0  0  0  0
  5 25  1  0  0  0  0
  6  7  1  0  0  0  0
  6 26  1  0  0  0  0
  6 27  1  0  0  0  0
  7 11  1  0  0  0  0
  7  8  1  0  0  0  0
  8  9  2  0  0  0  0
  8 28  1  0  0  0  0
  9 10  1  0  0  0  0
  9 29  1  0  0  0  0
 10 11  2  0  0  0  0
 10 30  1  0  0  0  0
 12 13  1  0  0  0  0
 12 31  1  0  0  0  0
 12 32  1  0  0  0  0
 13 18  1  0  0  0  0
 13 14  1  0  0  0  0
 14 15  1  0  0  0  0
 14 33  1  0  0  0  0
 14 34  1  0  0  0  0
 15 16  1  0  0  0  0
 15 35  1  0  0  0  0
 15 36  1  0  0  0  0
 16 17  1  0  0  0  0
 17 18  1  0  0  0  0
 17 37  1  0  0  0  0
 17 38  1  0  0  0  0
 18 39  1  0  0  0  0
 18 40  1  0  0  0  0
M  END
> <s_m_source_file>
AV-unprocessed.smi

> <i_m_source_file_index>
3231

> <i_lp_mmshare_version>
43012

> <i_f3d_flags>
0

> <s_epik_input>
W0NIMl0xW0NIMl1PW0NIMl1bQ0gyXU4xW0NIMl1bQ0BIXShbT0hdKVtDSDJdW05IXVtDSDJdW0NIMl1uMltjSF1bY0hdW2NIXW4y

> <s_epik_cmdline>
J2VwaWtfcHl0aG9uJywgJy1waCcsICc3LjAnLCAnLXRuJywgJzgnLCAnLW1hJywgJzIwMCcsICctbWV0YWxfYmluZGluZycsICctaW1hZScsICc8aW5maWxlLm1hZT4nLCAnLW9tYWUnLCAnPG91dGZpbGUubWFlPic=

> <r_lp_tautomer_probability>
1

> <r_epik_Ionization_Penalty>
2.37071

> <r_epik_Ionization_Penalty_Charging>
0

> <r_epik_Ionization_Penalty_Neutral>
2.37071

> <r_epik_State_Penalty>
1.72455

> <r_epik_Charging_Adjusted_Penalty>
1.72455

> <i_epik_Tot_Q>
0

> <i_epik_Tot_abs_Q>
0

> <r_epik_Metal_State_Penalty>
1.72366

> <b_epik_Metal_Only>
0

> <s_lp_Force_Field>
OPLS_2005

> <r_lp_Energy>
35.5688

> <b_lp_Chiralities_Consistent>
1

> <s_lp_Variant>
AV-unprocessed.smi:3231-8

> <Gold.Version>
5.8.1

> <Gold.Id.Protein>
6NUR|6NUR_protein|mol2

> <Gold.PLP.Fitness>
44.9565

> <Gold.PLP.PLP>
-30.5749

> <Gold.PLP.part.hbond>
-3.4977

> <Gold.PLP.part.metal>
0.0000

> <Gold.PLP.part.buried>
3.7094

> <Gold.PLP.part.nonpolar>
-32.3630

> <Gold.PLP.part.repulsive>
0.3896

> <Gold.PLP.ligand.clash>
0.0000

> <Gold.PLP.ligand.torsion>
0.7601

> <Gold.PLP.Chemscore.Hbond>
2.8800

> <Gold.PLP.Chemscore.CHOScore>
2.3658

> <Gold.PLP.Chemscore.Metal>
0.0000

> <Gold.Chemscore.Hbonds>
donor molecule, donor type, donor heavy atom, donor atom, acceptor molecule, acceptor atom, score
      L1  H     1    19       P1  7957  1.00
      L1  H     4    23       P1  7948  1.00
      P1  H  7989  7998       L1    16  0.78
      L1  C     8    28       P1 10747  1.00
      L1  C    10    30       P1 10186  0.53
      L1  C    10    30       P1 10952  0.69

> <Gold.PLP.Chemscore.Internal.Correction>
0.1643

> <Gold.Rescore>
     Score         DG    S(hbond)    S(metal)    S(lipo)     H(rot)  DE(clash)    DE(int)     intcor
     13.05     -15.44       2.00        0.00      87.52       2.72       1.56       0.82       ----

> <Gold.Chemscore.Fitness>
13.0484

> <Gold.Chemscore.DG>
-15.4372

> <Gold.Chemscore.ZeroCoef>
-5.4800

> <Gold.Chemscore.Hbond>
1.9987

> <Gold.Chemscore.Metal>
0.0000

> <Gold.Chemscore.Lipo>
87.5233

> <Gold.Chemscore.Internal_Hbond>
0.0000

> <Gold.Chemscore.DEClash>
1.5641

> <Gold.Chemscore.DEInternal>
0.8246

> <Gold.Chemscore.Rot>
2.7183

> <Gold.Chemscore.Internal.Correction>
   9.000000E+99

> <Gold.Chemscore.Hbonds>
donor molecule, donor type, donor heavy atom, donor atom, acceptor molecule, acceptor atom, score
      L1  H     1    19       P1  7957  0.96
      L1  H     4    23       P1  7948  0.99
      P1  H  7989  7998       L1    16  0.04

> <Gold.Chemscore.Hbond.Weighted>
-6.6758

> <Gold.Chemscore.Metal.Weighted>
-0.0000

> <Gold.Chemscore.Lipo.Weighted>
-10.2402

> <Gold.Chemscore.Internal_Hbond.Weighted>
0.0000

> <Gold.Chemscore.DEClash.Weighted>
1.5641

> <Gold.Chemscore.DEInternal.Weighted>
0.8246

> <Gold.Chemscore.Rot.Weighted>
6.9589

> <Gold.Chemscore.Internal.Correction.Weighted>
   9.000000E+99

> <Gold.Protein.RotatedTorsions>
[ 6907 6896 6895 6894 ] final  174.19 input  -60.11 | X-H torsion
[ 7974 7965 7964 7962 ] final   84.69 input  175.53 | X-H torsion
[ 8008 7997 7996 7995 ] final   49.05 input   59.86 | X-H torsion
[ 10167 10162 10161 10158 ] final  -69.07 input  -65.29 | X-H torsion
[ 10718 10713 10712 10709 ] final   95.19 input   66.30 | X-H torsion
[ 10763 10752 10751 10750 ] final   55.03 input  -60.55 | X-H torsion
[ 11005 11000 10999 10996 ] final   13.04 input  -57.11 | X-H torsion

> <Gold.Protein.ActiveResidues>
 VAL166  LYS551  ARG553  GLY616  TRP617  ASP618  TYR619  PRO620  LYS621  CYS622 
 ASP623  PHE694  ASN695  SER759  ASP760  ASP761  ALA762  ILE779  LEU786  VAL792 
 PHE793  MET794  SER795  GLU796  ALA797  LYS798  CYS799  TRP800  GLU811  SER814 

> <Gold.Protein.RotatedAtoms>
  151.7563  133.3330  159.3405 H   0  0  0  0  0  0  0  0  0  0  0  0  # atno 6907 bound_to 6896
  150.7515  134.6147  159.6114 H   0  0  0  0  0  0  0  0  0  0  0  0  # atno 6908 bound_to 6896
  152.3435  134.7104  160.0308 H   0  0  0  0  0  0  0  0  0  0  0  0  # atno 6909 bound_to 6896
  145.5954  139.2344  143.2275 H   0  0  0  0  0  0  0  0  0  0  0  0  # atno 7974 bound_to 7965
  155.3957  140.3435  155.4254 H   0  0  0  0  0  0  0  0  0  0  0  0  # atno 8008 bound_to 7997
  156.1532  140.1577  156.8768 H   0  0  0  0  0  0  0  0  0  0  0  0  # atno 8009 bound_to 7997
  154.5071  140.0799  156.7898 H   0  0  0  0  0  0  0  0  0  0  0  0  # atno 8010 bound_to 7997
  140.5459  143.2313  151.7003 H   0  0  0  0  0  0  0  0  0  0  0  0  # atno 10167 bound_to 10162
  157.6941  131.0537  150.4301 H   0  0  0  0  0  0  0  0  0  0  0  0  # atno 10718 bound_to 10713
  152.9811  135.5724  154.5001 H   0  0  0  0  0  0  0  0  0  0  0  0  # atno 10763 bound_to 10752
  154.4521  135.2779  155.1775 H   0  0  0  0  0  0  0  0  0  0  0  0  # atno 10764 bound_to 10752
  154.3399  135.6231  153.5644 H   0  0  0  0  0  0  0  0  0  0  0  0  # atno 10765 bound_to 10752
  140.4853  134.0895  155.7759 H   0  0  0  0  0  0  0  0  0  0  0  0  # atno 11005 bound_to 11000
  146.1616  140.6780  142.9275 LP  0  0  0  0  0  0  0  0  0  0  0  0  # atno 17320 bound_to 7965
  144.7333  140.4735  143.6922 LP  0  0  0  0  0  0  0  0  0  0  0  0  # atno 17321 bound_to 7965
  139.5007  144.3895  152.0294 LP  0  0  0  0  0  0  0  0  0  0  0  0  # atno 17342 bound_to 10162
  140.3008  144.3648  150.6061 LP  0  0  0  0  0  0  0  0  0  0  0  0  # atno 17343 bound_to 10162
  156.4668  130.4044  149.6542 LP  0  0  0  0  0  0  0  0  0  0  0  0  # atno 17370 bound_to 10713
  156.3637  130.7495  151.2470 LP  0  0  0  0  0  0  0  0  0  0  0  0  # atno 17371 bound_to 10713
  141.1511  133.8967  157.2095 LP  0  0  0  0  0  0  0  0  0  0  0  0  # atno 17394 bound_to 11000
  139.9802  135.0101  156.9730 LP  0  0  0  0  0  0  0  0  0  0  0  0  # atno 17395 bound_to 11000

$$$$
