AV-unprocessed.smi:1793|AV-procd|sdf|7224|dock3
  -GOLD-   22720 8463D 1   1.00000     0.00000
 Structure written by MMmdl.
 46 48  0  0  0  0  0  0  0  0  1 V2000
  148.8520  136.1267  157.6857 C   0  0  0  0  0  0  0  0  0  0  0  0
  148.5025  137.0782  158.8448 C   0  0  2  0  0  0  0  0  0  0  0  0
  149.4562  138.1838  158.8814 N   0  0  0  0  0  0  0  0  0  0  0  0
  150.7481  138.0858  159.2240 C   0  0  0  0  0  0  0  0  0  0  0  0
  151.2846  137.0323  159.5670 O   0  0  0  0  0  0  0  0  0  0  0  0
  151.3567  139.2814  159.1596 N   0  0  0  0  0  0  0  0  0  0  0  0
  152.6874  139.6107  159.5427 C   0  0  0  0  0  0  0  0  0  0  0  0
  153.6512  138.6071  159.8071 C   0  0  0  0  0  0  0  0  0  0  0  0
  154.9699  138.9818  160.1173 C   0  0  0  0  0  0  0  0  0  0  0  0
  155.2847  140.3504  160.1355 C   0  0  0  0  0  0  0  0  0  0  0  0
  154.3833  141.3171  159.8718 N   0  0  0  0  0  0  0  0  0  0  0  0
  153.1032  140.9727  159.5858 C   0  0  0  0  0  0  0  0  0  0  0  0
  152.1995  142.0308  159.3338 N   0  0  0  0  0  0  0  0  0  0  0  0
  151.4531  142.0852  158.0815 C   0  0  0  0  0  0  0  0  0  0  0  0
  150.9044  143.5073  158.0110 C   0  0  0  0  0  0  0  0  0  0  0  0
  152.0299  144.3202  158.6436 C   0  0  0  0  0  0  0  0  0  0  0  0
  152.5958  143.3831  159.7161 C   0  0  0  0  0  0  0  0  0  0  0  0
  148.5115  136.3614  160.2090 C   0  0  2  0  0  0  0  0  0  0  0  0
  147.7080  135.0612  160.2538 C   0  0  0  0  0  0  0  0  0  0  0  0
  147.4342  134.9228  161.7338 C   0  0  0  0  0  0  0  0  0  0  0  0
  147.2021  136.3722  162.1523 C   0  0  0  0  0  0  0  0  0  0  0  0
  147.9038  137.1777  161.2079 O   0  0  0  0  0  0  0  0  0  0  0  0
  148.1307  135.3134  157.6078 H   0  0  0  0  0  0  0  0  0  0  0  0
  149.8395  135.6843  157.8203 H   0  0  0  0  0  0  0  0  0  0  0  0
  148.8498  136.6490  156.7286 H   0  0  0  0  0  0  0  0  0  0  0  0
  147.5021  137.4821  158.6773 H   0  0  0  0  0  0  0  0  0  0  0  0
  149.1049  139.0907  158.6106 H   0  0  0  0  0  0  0  0  0  0  0  0
  150.7648  140.0685  158.9377 H   0  0  0  0  0  0  0  0  0  0  0  0
  153.4068  137.5572  159.7546 H   0  0  0  0  0  0  0  0  0  0  0  0
  155.7244  138.2369  160.3230 H   0  0  0  0  0  0  0  0  0  0  0  0
  156.2884  140.6787  160.3619 H   0  0  0  0  0  0  0  0  0  0  0  0
  152.1124  141.9090  157.2306 H   0  0  0  0  0  0  0  0  0  0  0  0
  150.6568  141.3407  158.0600 H   0  0  0  0  0  0  0  0  0  0  0  0
  150.6665  143.8217  156.9945 H   0  0  0  0  0  0  0  0  0  0  0  0
  149.9994  143.5898  158.6146 H   0  0  0  0  0  0  0  0  0  0  0  0
  152.7964  144.5264  157.8950 H   0  0  0  0  0  0  0  0  0  0  0  0
  151.6922  145.2739  159.0502 H   0  0  0  0  0  0  0  0  0  0  0  0
  152.1530  143.6191  160.6839 H   0  0  0  0  0  0  0  0  0  0  0  0
  153.6785  143.4859  159.8047 H   0  0  0  0  0  0  0  0  0  0  0  0
  149.5371  136.1585  160.5232 H   0  0  0  0  0  0  0  0  0  0  0  0
  146.7692  135.1687  159.7081 H   0  0  0  0  0  0  0  0  0  0  0  0
  148.2497  134.2092  159.8419 H   0  0  0  0  0  0  0  0  0  0  0  0
  146.5870  134.2734  161.9560 H   0  0  0  0  0  0  0  0  0  0  0  0
  148.3143  134.5226  162.2391 H   0  0  0  0  0  0  0  0  0  0  0  0
  146.1419  136.6223  162.0996 H   0  0  0  0  0  0  0  0  0  0  0  0
  147.5446  136.5651  163.1692 H   0  0  0  0  0  0  0  0  0  0  0  0
  1  2  1  0  0  0  0
  1 23  1  0  0  0  0
  1 24  1  0  0  0  0
  1 25  1  0  0  0  0
  2  3  1  0  0  0  0
  2 18  1  0  0  0  0
  2 26  1  0  0  0  0
  3  4  1  0  0  0  0
  3 27  1  0  0  0  0
  4  5  2  0  0  0  0
  4  6  1  0  0  0  0
  6  7  1  0  0  0  0
  6 28  1  0  0  0  0
  7 12  1  0  0  0  0
  7  8  2  0  0  0  0
  8  9  1  0  0  0  0
  8 29  1  0  0  0  0
  9 10  2  0  0  0  0
  9 30  1  0  0  0  0
 10 11  1  0  0  0  0
 10 31  1  0  0  0  0
 11 12  2  0  0  0  0
 12 13  1  0  0  0  0
 13 17  1  0  0  0  0
 13 14  1  0  0  0  0
 14 15  1  0  0  0  0
 14 32  1  0  0  0  0
 14 33  1  0  0  0  0
 15 16  1  0  0  0  0
 15 34  1  0  0  0  0
 15 35  1  0  0  0  0
 16 17  1  0  0  0  0
 16 36  1  0  0  0  0
 16 37  1  0  0  0  0
 17 38  1  0  0  0  0
 17 39  1  0  0  0  0
 18 22  1  0  0  0  0
 18 19  1  0  0  0  0
 18 40  1  0  0  0  0
 19 20  1  0  0  0  0
 19 41  1  0  0  0  0
 19 42  1  0  0  0  0
 20 21  1  0  0  0  0
 20 43  1  0  0  0  0
 20 44  1  0  0  0  0
 21 22  1  0  0  0  0
 21 45  1  0  0  0  0
 21 46  1  0  0  0  0
M  END
> <s_m_source_file>
AV-unprocessed.smi

> <i_m_source_file_index>
1793

> <i_lp_mmshare_version>
43012

> <i_f3d_flags>
0

> <s_epik_input>
TzFbQ0gyXVtDSDJdW0NIMl1bQ0BIXTFbQ0BIXShbQ0gzXSlbTkhdQyg9TylbTkhdYzJbY0hdW2NIXVtjSF1uYzJOM1tDSDJdW0NIMl1bQ0gyXVtDSDJdMw==

> <s_epik_cmdline>
J2VwaWtfcHl0aG9uJywgJy1waCcsICc3LjAnLCAnLXRuJywgJzgnLCAnLW1hJywgJzIwMCcsICctbWV0YWxfYmluZGluZycsICctaW1hZScsICc8aW5maWxlLm1hZT4nLCAnLW9tYWUnLCAnPG91dGZpbGUubWFlPic=

> <r_lp_tautomer_probability>
1

> <r_epik_Ionization_Penalty>
0.0992086

> <r_epik_Ionization_Penalty_Charging>
0

> <r_epik_Ionization_Penalty_Neutral>
0.0992086

> <r_epik_State_Penalty>
0.0887141

> <r_epik_Charging_Adjusted_Penalty>
0.0887141

> <i_epik_Tot_Q>
0

> <i_epik_Tot_abs_Q>
0

> <r_epik_Metal_State_Penalty>
0.075945

> <b_epik_Metal_Only>
0

> <s_lp_Force_Field>
OPLS_2005

> <r_lp_Energy>
46.4352

> <b_lp_Chiralities_Consistent>
1

> <s_lp_Variant>
AV-unprocessed.smi:1793-1

> <Gold.Version>
5.8.1

> <Gold.Id.Protein>
6NUR|6NUR_protein|mol2

> <Gold.PLP.Fitness>
46.6069

> <Gold.PLP.PLP>
-38.8797

> <Gold.PLP.part.hbond>
-3.0000

> <Gold.PLP.part.metal>
0.0000

> <Gold.PLP.part.buried>
-4.7146

> <Gold.PLP.part.nonpolar>
-31.4276

> <Gold.PLP.part.repulsive>
0.3496

> <Gold.PLP.ligand.clash>
0.0000

> <Gold.PLP.ligand.torsion>
0.4051

> <Gold.PLP.Chemscore.Hbond>
2.7280

> <Gold.PLP.Chemscore.CHOScore>
0.0000

> <Gold.PLP.Chemscore.Metal>
0.0000

> <Gold.Chemscore.Hbonds>
donor molecule, donor type, donor heavy atom, donor atom, acceptor molecule, acceptor atom, score
      P1  H  6896  6907       L1     5  1.00
      P1  H  6931  6943       L1    22  1.00
      P1  H  6934  6947       L1    22  0.75

> <Gold.PLP.Chemscore.Internal.Correction>
0.3533

> <Gold.Rescore>
     Score         DG    S(hbond)    S(metal)    S(lipo)     H(rot)  DE(clash)    DE(int)     intcor
     17.72     -21.66       2.41        0.00      99.25       1.36       0.07       3.87       ----

> <Gold.Chemscore.Fitness>
17.7191

> <Gold.Chemscore.DG>
-21.6553

> <Gold.Chemscore.ZeroCoef>
-5.4800

> <Gold.Chemscore.Hbond>
2.4073

> <Gold.Chemscore.Metal>
0.0000

> <Gold.Chemscore.Lipo>
99.2477

> <Gold.Chemscore.Internal_Hbond>
0.0000

> <Gold.Chemscore.DEClash>
0.0706

> <Gold.Chemscore.DEInternal>
3.8656

> <Gold.Chemscore.Rot>
1.3582

> <Gold.Chemscore.Internal.Correction>
   9.000000E+99

> <Gold.Chemscore.Hbonds>
donor molecule, donor type, donor heavy atom, donor atom, acceptor molecule, acceptor atom, score
      P1  H  6896  6907       L1     5  1.00
      P1  H  6931  6943       L1    22  0.65
      P1  H  6934  6947       L1    22  0.68

> <Gold.Chemscore.Hbond.Weighted>
-8.0403

> <Gold.Chemscore.Metal.Weighted>
-0.0000

> <Gold.Chemscore.Lipo.Weighted>
-11.6120

> <Gold.Chemscore.Internal_Hbond.Weighted>
0.0000

> <Gold.Chemscore.DEClash.Weighted>
0.0706

> <Gold.Chemscore.DEInternal.Weighted>
3.8656

> <Gold.Chemscore.Rot.Weighted>
3.4771

> <Gold.Chemscore.Internal.Correction.Weighted>
   9.000000E+99

> <Gold.Protein.RotatedTorsions>
[ 6907 6896 6895 6894 ] final   -4.12 input  -60.11 | X-H torsion
[ 7974 7965 7964 7962 ] final   45.83 input  175.53 | X-H torsion
[ 8008 7997 7996 7995 ] final -132.20 input   59.86 | X-H torsion
[ 10167 10162 10161 10158 ] final -133.12 input  -65.29 | X-H torsion
[ 10718 10713 10712 10709 ] final   59.55 input   66.30 | X-H torsion
[ 10763 10752 10751 10750 ] final   55.42 input  -60.55 | X-H torsion
[ 11005 11000 10999 10996 ] final  -64.12 input  -57.11 | X-H torsion

> <Gold.Protein.ActiveResidues>
 VAL166  LYS551  ARG553  GLY616  TRP617  ASP618  TYR619  PRO620  LYS621  CYS622 
 ASP623  PHE694  ASN695  SER759  ASP760  ASP761  ALA762  ILE779  LEU786  VAL792 
 PHE793  MET794  SER795  GLU796  ALA797  LYS798  CYS799  TRP800  GLU811  SER814 

> <Gold.Protein.RotatedAtoms>
  151.5027  135.1062  159.9832 H   0  0  0  0  0  0  0  0  0  0  0  0  # atno 6907 bound_to 6896
  152.4695  133.7993  159.6955 H   0  0  0  0  0  0  0  0  0  0  0  0  # atno 6908 bound_to 6896
  150.8696  133.7461  159.2991 H   0  0  0  0  0  0  0  0  0  0  0  0  # atno 6909 bound_to 6896
  146.0444  139.4921  142.9758 H   0  0  0  0  0  0  0  0  0  0  0  0  # atno 7974 bound_to 7965
  155.3250  140.0464  157.3040 H   0  0  0  0  0  0  0  0  0  0  0  0  # atno 8008 bound_to 7997
  154.5359  140.2272  155.8689 H   0  0  0  0  0  0  0  0  0  0  0  0  # atno 8009 bound_to 7997
  156.1834  140.3068  155.9199 H   0  0  0  0  0  0  0  0  0  0  0  0  # atno 8010 bound_to 7997
  139.9015  143.6601  152.2594 H   0  0  0  0  0  0  0  0  0  0  0  0  # atno 10167 bound_to 10162
  157.5684  130.8888  149.9225 H   0  0  0  0  0  0  0  0  0  0  0  0  # atno 10718 bound_to 10713
  152.9817  135.5711  154.5064 H   0  0  0  0  0  0  0  0  0  0  0  0  # atno 10763 bound_to 10752
  154.4575  135.2780  155.1738 H   0  0  0  0  0  0  0  0  0  0  0  0  # atno 10764 bound_to 10752
  154.3340  135.6243  153.5618 H   0  0  0  0  0  0  0  0  0  0  0  0  # atno 10765 bound_to 10752
  141.1415  133.6661  156.5784 H   0  0  0  0  0  0  0  0  0  0  0  0  # atno 11005 bound_to 11000
  145.6830  141.0186  143.1596 LP  0  0  0  0  0  0  0  0  0  0  0  0  # atno 17320 bound_to 7965
  144.7090  139.8443  143.7420 LP  0  0  0  0  0  0  0  0  0  0  0  0  # atno 17321 bound_to 7965
  139.7021  144.7633  151.1256 LP  0  0  0  0  0  0  0  0  0  0  0  0  # atno 17342 bound_to 10162
  140.7705  143.5444  150.9275 LP  0  0  0  0  0  0  0  0  0  0  0  0  # atno 17343 bound_to 10162
  156.0731  130.3682  150.0735 LP  0  0  0  0  0  0  0  0  0  0  0  0  # atno 17370 bound_to 10713
  156.8891  130.9582  151.3590 LP  0  0  0  0  0  0  0  0  0  0  0  0  # atno 17371 bound_to 10713
  140.3857  134.7484  157.4690 LP  0  0  0  0  0  0  0  0  0  0  0  0  # atno 17394 bound_to 11000
  140.0604  134.6004  155.8756 LP  0  0  0  0  0  0  0  0  0  0  0  0  # atno 17395 bound_to 11000

$$$$
