AV-unprocessed.smi:937|AV-procd|sdf|4216|dock7
  -GOLD-   22720 2123D 1   1.00000     0.00000
 Structure written by MMmdl.
 46 47  0  0  0  0  0  0  0  0  2 V2000
  151.7004  143.7844  158.2546 C   0  0  0  0  0  0  0  0  0  0  0  0
  151.3245  142.5814  157.4157 C   0  0  0  0  0  0  0  0  0  0  0  0
  151.8670  141.2991  157.6482 C   0  0  0  0  0  0  0  0  0  0  0  0
  151.4743  140.2251  156.8224 C   0  0  0  0  0  0  0  0  0  0  0  0
  150.5468  140.4542  155.7823 C   0  0  0  0  0  0  0  0  0  0  0  0
  150.1123  139.3251  154.8682 C   0  0  0  0  0  0  0  0  0  0  0  0
  148.8876  139.7069  154.0262 C   0  0  0  0  0  0  0  0  0  0  0  0
  148.2877  138.5248  153.4238 N   0  0  0  0  0  0  0  0  0  0  0  0
  147.0807  138.0343  153.7489 C   0  0  0  0  0  0  0  0  0  0  0  0
  146.3481  138.5472  154.5924 O   0  0  0  0  0  0  0  0  0  0  0  0
  146.7272  136.9180  153.0869 N   0  0  0  0  0  0  0  0  0  0  0  0
  145.4913  136.1369  153.2026 C   0  0  1  0  0  0  0  0  0  0  0  0
  144.5359  136.3933  152.0167 C   0  0  0  0  0  0  0  0  0  0  0  0
  145.0750  135.8054  150.7028 C   0  0  0  0  0  0  0  0  0  0  0  0
  145.3813  134.3068  150.8470 C   0  0  0  0  0  0  0  0  0  0  0  0
  146.3682  134.0348  152.0017 C   0  0  2  0  0  0  0  0  0  0  0  0
  146.6917  132.5331  152.1443 C   0  0  0  0  0  0  0  0  0  0  0  0
  145.6488  131.8674  152.6416 F   0  0  0  0  0  0  0  0  0  0  0  0
  147.0045  132.0178  150.9553 F   0  0  0  0  0  0  0  0  0  0  0  0
  147.7358  132.3673  152.9566 F   0  0  0  0  0  0  0  0  0  0  0  0
  145.8258  134.6359  153.3194 C   0  0  0  0  0  0  0  0  0  0  0  0
  150.0366  141.7572  155.5986 C   0  0  0  0  0  0  0  0  0  0  0  0
  150.4387  142.7595  156.4102 N   0  3  0  0  0  0  0  0  0  0  0  0
  152.4131  143.5135  159.0340 H   0  0  0  0  0  0  0  0  0  0  0  0
  150.8161  144.2061  158.7332 H   0  0  0  0  0  0  0  0  0  0  0  0
  152.1552  144.5542  157.6306 H   0  0  0  0  0  0  0  0  0  0  0  0
  152.5773  141.1380  158.4463 H   0  0  0  0  0  0  0  0  0  0  0  0
  151.8844  139.2390  156.9858 H   0  0  0  0  0  0  0  0  0  0  0  0
  150.9434  139.0476  154.2182 H   0  0  0  0  0  0  0  0  0  0  0  0
  149.8897  138.4469  155.4760 H   0  0  0  0  0  0  0  0  0  0  0  0
  148.1538  140.2158  154.6539 H   0  0  0  0  0  0  0  0  0  0  0  0
  149.1727  140.4018  153.2350 H   0  0  0  0  0  0  0  0  0  0  0  0
  148.8254  138.0402  152.7198 H   0  0  0  0  0  0  0  0  0  0  0  0
  147.4114  136.5514  152.4409 H   0  0  0  0  0  0  0  0  0  0  0  0
  144.9886  136.4282  154.1263 H   0  0  0  0  0  0  0  0  0  0  0  0
  143.5690  135.9387  152.2366 H   0  0  0  0  0  0  0  0  0  0  0  0
  144.3429  137.4594  151.8949 H   0  0  0  0  0  0  0  0  0  0  0  0
  144.3484  135.9586  149.9045 H   0  0  0  0  0  0  0  0  0  0  0  0
  145.9777  136.3385  150.4015 H   0  0  0  0  0  0  0  0  0  0  0  0
  144.4523  133.7617  151.0183 H   0  0  0  0  0  0  0  0  0  0  0  0
  145.7892  133.9311  149.9083 H   0  0  0  0  0  0  0  0  0  0  0  0
  147.3038  134.5422  151.7612 H   0  0  0  0  0  0  0  0  0  0  0  0
  146.5432  134.4819  154.1265 H   0  0  0  0  0  0  0  0  0  0  0  0
  144.9246  134.0966  153.6139 H   0  0  0  0  0  0  0  0  0  0  0  0
  149.3282  142.0279  154.8293 H   0  0  0  0  0  0  0  0  0  0  0  0
  150.0583  143.6934  156.2553 H   0  0  0  0  0  0  0  0  0  0  0  0
  1  2  1  0  0  0  0
  1 24  1  0  0  0  0
  1 25  1  0  0  0  0
  1 26  1  0  0  0  0
  2 23  1  0  0  0  0
  2  3  2  0  0  0  0
  3  4  1  0  0  0  0
  3 27  1  0  0  0  0
  4  5  2  0  0  0  0
  4 28  1  0  0  0  0
  5  6  1  0  0  0  0
  5 22  1  0  0  0  0
  6  7  1  0  0  0  0
  6 29  1  0  0  0  0
  6 30  1  0  0  0  0
  7  8  1  0  0  0  0
  7 31  1  0  0  0  0
  7 32  1  0  0  0  0
  8  9  1  0  0  0  0
  8 33  1  0  0  0  0
  9 10  2  0  0  0  0
  9 11  1  0  0  0  0
 11 12  1  0  0  0  0
 11 34  1  0  0  0  0
 12 21  1  0  0  0  0
 12 13  1  0  0  0  0
 12 35  1  0  0  0  0
 13 14  1  0  0  0  0
 13 36  1  0  0  0  0
 13 37  1  0  0  0  0
 14 15  1  0  0  0  0
 14 38  1  0  0  0  0
 14 39  1  0  0  0  0
 15 16  1  0  0  0  0
 15 40  1  0  0  0  0
 15 41  1  0  0  0  0
 16 17  1  0  0  0  0
 16 21  1  0  0  0  0
 16 42  1  0  0  0  0
 17 18  1  0  0  0  0
 17 19  1  0  0  0  0
 17 20  1  0  0  0  0
 21 43  1  0  0  0  0
 21 44  1  0  0  0  0
 22 23  2  0  0  0  0
 22 45  1  0  0  0  0
 23 46  1  0  0  0  0
M  CHG  1  23   1
M  END
> <s_m_source_file>
AV-unprocessed.smi

> <i_m_source_file_index>
937

> <i_lp_mmshare_version>
43012

> <i_f3d_flags>
0

> <s_epik_input>
W0NIM11jMVtjSF1bY0hdYyhbY0hdbjEpW0NIMl1bQ0gyXVtOSF1DKD1PKVtOSF1bQ0BASF0yW0NIMl1bQ0gyXVtDSDJdW0NAQEhdKEMoRikoRilGKVtDSDJdMg==

> <s_epik_cmdline>
J2VwaWtfcHl0aG9uJywgJy1waCcsICc3LjAnLCAnLXRuJywgJzgnLCAnLW1hJywgJzIwMCcsICctbWV0YWxfYmluZGluZycsICctaW1hZScsICc8aW5maWxlLm1hZT4nLCAnLW9tYWUnLCAnPG91dGZpbGUubWFlPic=

> <r_epik_Ionization_Penalty>
1.4226

> <r_epik_Ionization_Penalty_Charging>
1.42255

> <r_epik_Ionization_Penalty_Neutral>
5.16456e-05

> <r_epik_State_Penalty>
1.50646

> <r_epik_Charging_Adjusted_Penalty>
2.92901

> <i_epik_Tot_Q>
1

> <i_epik_Tot_abs_Q>
1

> <r_epik_Metal_State_Penalty>
1.55846

> <b_epik_Metal_Only>
0

> <s_lp_Force_Field>
OPLS_2005

> <r_lp_Energy>
25.1059

> <b_lp_Chiralities_Consistent>
1

> <s_lp_Variant>
AV-unprocessed.smi:937-8

> <Gold.Version>
5.8.1

> <Gold.Id.Protein>
6NUR|6NUR_protein|mol2

> <Gold.PLP.Fitness>
47.2636

> <Gold.PLP.PLP>
-36.8628

> <Gold.PLP.part.hbond>
-4.0000

> <Gold.PLP.part.metal>
0.0000

> <Gold.PLP.part.buried>
3.6523

> <Gold.PLP.part.nonpolar>
-36.5570

> <Gold.PLP.part.repulsive>
0.2230

> <Gold.PLP.ligand.clash>
0.0000

> <Gold.PLP.ligand.torsion>
0.5635

> <Gold.PLP.Chemscore.Hbond>
3.8320

> <Gold.PLP.Chemscore.CHOScore>
0.0000

> <Gold.PLP.Chemscore.Metal>
0.0000

> <Gold.Chemscore.Hbonds>
donor molecule, donor type, donor heavy atom, donor atom, acceptor molecule, acceptor atom, score
      L1  H     8    33       P1  7948  0.83
      L1  H    11    34       P1  7948  1.00
      L1  H    23    46       P1  8028  2.00

> <Gold.PLP.Chemscore.Internal.Correction>
0.0318

> <Gold.Rescore>
     Score         DG    S(hbond)    S(metal)    S(lipo)     H(rot)  DE(clash)    DE(int)     intcor
     20.12     -21.47       2.86        0.00      91.21       1.66       0.97       0.38       ----

> <Gold.Chemscore.Fitness>
20.1227

> <Gold.Chemscore.DG>
-21.4671

> <Gold.Chemscore.ZeroCoef>
-5.4800

> <Gold.Chemscore.Hbond>
2.8625

> <Gold.Chemscore.Metal>
0.0000

> <Gold.Chemscore.Lipo>
91.2132

> <Gold.Chemscore.Internal_Hbond>
0.0000

> <Gold.Chemscore.DEClash>
0.9689

> <Gold.Chemscore.DEInternal>
0.3755

> <Gold.Chemscore.Rot>
1.6585

> <Gold.Chemscore.Internal.Correction>
   9.000000E+99

> <Gold.Chemscore.Hbonds>
donor molecule, donor type, donor heavy atom, donor atom, acceptor molecule, acceptor atom, score
      L1  H     8    33       P1  7948  0.81
      L1  H    11    34       P1  7948  0.99
      L1  H    23    46       P1  8028  0.97

> <Gold.Chemscore.Hbond.Weighted>
-9.5608

> <Gold.Chemscore.Metal.Weighted>
-0.0000

> <Gold.Chemscore.Lipo.Weighted>
-10.6719

> <Gold.Chemscore.Internal_Hbond.Weighted>
0.0000

> <Gold.Chemscore.DEClash.Weighted>
0.9689

> <Gold.Chemscore.DEInternal.Weighted>
0.3755

> <Gold.Chemscore.Rot.Weighted>
4.2457

> <Gold.Chemscore.Internal.Correction.Weighted>
   9.000000E+99

> <Gold.Protein.RotatedTorsions>
[ 6907 6896 6895 6894 ] final  145.44 input  -60.11 | X-H torsion
[ 7974 7965 7964 7962 ] final  -71.17 input  175.53 | X-H torsion
[ 8008 7997 7996 7995 ] final   12.62 input   59.86 | X-H torsion
[ 10167 10162 10161 10158 ] final -157.62 input  -65.29 | X-H torsion
[ 10718 10713 10712 10709 ] final  163.47 input   66.30 | X-H torsion
[ 10763 10752 10751 10750 ] final  138.64 input  -60.55 | X-H torsion
[ 11005 11000 10999 10996 ] final   99.02 input  -57.11 | X-H torsion

> <Gold.Protein.ActiveResidues>
 VAL166  LYS551  ARG553  GLY616  TRP617  ASP618  TYR619  PRO620  LYS621  CYS622 
 ASP623  PHE694  ASN695  SER759  ASP760  ASP761  ALA762  ILE779  LEU786  VAL792 
 PHE793  MET794  SER795  GLU796  ALA797  LYS798  CYS799  TRP800  GLU811  SER814 

> <Gold.Protein.RotatedAtoms>
  152.1808  133.4706  159.4957 H   0  0  0  0  0  0  0  0  0  0  0  0  # atno 6907 bound_to 6896
  150.6934  134.1835  159.4267 H   0  0  0  0  0  0  0  0  0  0  0  0  # atno 6908 bound_to 6896
  151.9746  135.0059  160.0605 H   0  0  0  0  0  0  0  0  0  0  0  0  # atno 6909 bound_to 6896
  145.6815  140.9186  143.0830 H   0  0  0  0  0  0  0  0  0  0  0  0  # atno 7974 bound_to 7965
  154.8231  140.2887  155.5773 H   0  0  0  0  0  0  0  0  0  0  0  0  # atno 8008 bound_to 7997
  156.2999  140.2546  156.3073 H   0  0  0  0  0  0  0  0  0  0  0  0  # atno 8009 bound_to 7997
  154.9316  140.0383  157.2040 H   0  0  0  0  0  0  0  0  0  0  0  0  # atno 8010 bound_to 7997
  139.6756  143.9669  152.2309 H   0  0  0  0  0  0  0  0  0  0  0  0  # atno 10167 bound_to 10162
  157.1080  131.0460  151.2469 H   0  0  0  0  0  0  0  0  0  0  0  0  # atno 10718 bound_to 10713
  153.8930  135.3031  155.3447 H   0  0  0  0  0  0  0  0  0  0  0  0  # atno 10763 bound_to 10752
  154.7707  135.4887  153.9646 H   0  0  0  0  0  0  0  0  0  0  0  0  # atno 10764 bound_to 10752
  153.1287  135.6799  153.9313 H   0  0  0  0  0  0  0  0  0  0  0  0  # atno 10765 bound_to 10752
  139.8771  134.9076  156.4544 H   0  0  0  0  0  0  0  0  0  0  0  0  # atno 11005 bound_to 11000
  144.7024  139.8703  143.7440 LP  0  0  0  0  0  0  0  0  0  0  0  0  # atno 17320 bound_to 7965
  146.0960  139.3952  143.0376 LP  0  0  0  0  0  0  0  0  0  0  0  0  # atno 17321 bound_to 7965
  139.9445  144.6660  150.8233 LP  0  0  0  0  0  0  0  0  0  0  0  0  # atno 17342 bound_to 10162
  140.7634  143.3222  151.2595 LP  0  0  0  0  0  0  0  0  0  0  0  0  # atno 17343 bound_to 10162
  157.4583  130.7638  149.7213 LP  0  0  0  0  0  0  0  0  0  0  0  0  # atno 17370 bound_to 10713
  155.9857  130.3981  150.3248 LP  0  0  0  0  0  0  0  0  0  0  0  0  # atno 17371 bound_to 10713
  140.8909  133.7849  155.9571 LP  0  0  0  0  0  0  0  0  0  0  0  0  # atno 17394 bound_to 11000
  140.8754  134.2675  157.5170 LP  0  0  0  0  0  0  0  0  0  0  0  0  # atno 17395 bound_to 11000

$$$$
