AV-unprocessed.smi:102|AV-procd|sdf|957|dock1
  -GOLD-   2262017493D 1   1.00000     0.00000
 Structure written by MMmdl.
 44 45  0  0  0  0  0  0  0  0  1 V2000
  152.9658  143.2630  159.5746 C   0  0  0  0  0  0  0  0  0  0  0  0
  153.1220  141.7741  159.2920 C   0  0  0  0  0  0  0  0  0  0  0  0
  154.1196  141.1535  159.6600 O   0  0  0  0  0  0  0  0  0  0  0  0
  152.0784  141.2632  158.6210 O   0  0  0  0  0  0  0  0  0  0  0  0
  152.1018  139.9032  158.2221 C   0  0  0  0  0  0  0  0  0  0  0  0
  150.6966  139.4891  157.7438 C   0  0  2  0  0  0  0  0  0  0  0  0
  149.8953  139.1559  158.8727 O   0  0  0  0  0  0  0  0  0  0  0  0
  150.1215  137.8245  159.2238 C   0  0  1  0  0  0  0  0  0  0  0  0
  148.8362  137.2340  159.7558 N   0  0  0  0  0  0  0  0  0  0  0  0
  148.7589  136.8021  161.0730 C   0  0  0  0  0  0  0  0  0  0  0  0
  147.6283  136.2948  161.6189 C   0  0  0  0  0  0  0  0  0  0  0  0
  147.6330  135.8920  162.9010 F   0  0  0  0  0  0  0  0  0  0  0  0
  146.4045  136.1867  160.8303 C   0  0  0  0  0  0  0  0  0  0  0  0
  145.3334  135.7379  161.2337 O   0  0  0  0  0  0  0  0  0  0  0  0
  146.5219  136.6533  159.5179 N   0  0  0  0  0  0  0  0  0  0  0  0
  147.6795  137.1822  158.9444 C   0  0  0  0  0  0  0  0  0  0  0  0
  147.6575  137.5819  157.7819 O   0  0  0  0  0  0  0  0  0  0  0  0
  150.6512  137.0868  157.9757 C   0  0  2  0  0  0  0  0  0  0  0  0
  151.9636  136.5919  158.2243 O   0  0  0  0  0  0  0  0  0  0  0  0
  152.5839  135.8331  157.3041 C   0  0  0  0  0  0  0  0  0  0  0  0
  154.0493  135.5891  157.6399 C   0  0  0  0  0  0  0  0  0  0  0  0
  152.0684  135.3557  156.2935 O   0  0  0  0  0  0  0  0  0  0  0  0
  150.6613  138.1956  156.9230 C   0  0  2  0  0  0  0  0  0  0  0  0
  151.7278  138.1032  155.9833 O   0  0  0  0  0  0  0  0  0  0  0  0
  151.8395  139.0045  154.9921 C   0  0  0  0  0  0  0  0  0  0  0  0
  153.0505  138.7451  154.1062 C   0  0  0  0  0  0  0  0  0  0  0  0
  151.0756  139.9460  154.7792 O   0  0  0  0  0  0  0  0  0  0  0  0
  145.6969  136.6105  158.9376 H   0  0  0  0  0  0  0  0  0  0  0  0
  152.0081  143.6327  159.2072 H   0  0  0  0  0  0  0  0  0  0  0  0
  153.7621  143.8235  159.0847 H   0  0  0  0  0  0  0  0  0  0  0  0
  153.0200  143.4513  160.6469 H   0  0  0  0  0  0  0  0  0  0  0  0
  152.8204  139.7991  157.4082 H   0  0  0  0  0  0  0  0  0  0  0  0
  152.4435  139.2689  159.0409 H   0  0  0  0  0  0  0  0  0  0  0  0
  150.2435  140.3064  157.1817 H   0  0  0  0  0  0  0  0  0  0  0  0
  150.8298  137.8053  160.0541 H   0  0  0  0  0  0  0  0  0  0  0  0
  149.6351  136.8614  161.7029 H   0  0  0  0  0  0  0  0  0  0  0  0
  149.9830  136.2787  157.6741 H   0  0  0  0  0  0  0  0  0  0  0  0
  154.1705  134.6105  158.1044 H   0  0  0  0  0  0  0  0  0  0  0  0
  154.4214  136.3482  158.3285 H   0  0  0  0  0  0  0  0  0  0  0  0
  154.6555  135.6197  156.7345 H   0  0  0  0  0  0  0  0  0  0  0  0
  149.7097  138.1794  156.3904 H   0  0  0  0  0  0  0  0  0  0  0  0
  153.1302  137.6835  153.8709 H   0  0  0  0  0  0  0  0  0  0  0  0
  153.9633  139.0578  154.6136 H   0  0  0  0  0  0  0  0  0  0  0  0
  152.9666  139.3000  153.1716 H   0  0  0  0  0  0  0  0  0  0  0  0
  1  2  1  0  0  0  0
  1 29  1  0  0  0  0
  1 30  1  0  0  0  0
  1 31  1  0  0  0  0
  2  3  2  0  0  0  0
  2  4  1  0  0  0  0
  4  5  1  0  0  0  0
  5  6  1  0  0  0  0
  5 32  1  0  0  0  0
  5 33  1  0  0  0  0
  6 23  1  0  0  0  0
  6  7  1  0  0  0  0
  6 34  1  0  0  0  0
  7  8  1  0  0  0  0
  8  9  1  0  0  0  0
  8 18  1  0  0  0  0
  8 35  1  0  0  0  0
  9 16  1  0  0  0  0
  9 10  1  0  0  0  0
 10 11  2  0  0  0  0
 10 36  1  0  0  0  0
 11 12  1  0  0  0  0
 11 13  1  0  0  0  0
 13 14  2  0  0  0  0
 13 15  1  0  0  0  0
 15 28  1  0  0  0  0
 15 16  1  0  0  0  0
 16 17  2  0  0  0  0
 18 19  1  0  0  0  0
 18 23  1  0  0  0  0
 18 37  1  0  0  0  0
 19 20  1  0  0  0  0
 20 21  1  0  0  0  0
 20 22  2  0  0  0  0
 21 38  1  0  0  0  0
 21 39  1  0  0  0  0
 21 40  1  0  0  0  0
 23 24  1  0  0  0  0
 23 41  1  0  0  0  0
 24 25  1  0  0  0  0
 25 26  1  0  0  0  0
 25 27  2  0  0  0  0
 26 42  1  0  0  0  0
 26 43  1  0  0  0  0
 26 44  1  0  0  0  0
M  END
> <s_m_source_file>
AV-unprocessed.smi

> <i_m_source_file_index>
102

> <i_lp_mmshare_version>
43012

> <i_f3d_flags>
0

> <s_epik_input>
W0NIM11DKD1PKU9bQ0gyXVtDQEBIXTFPW0NASF0oW0NAQEhdKE9DKD1PKVtDSDNdKVtDQEhdMU9DKD1PKVtDSDNdKW4yW2NIXWMoRiljKD1PKVtuSF1jMj1P

> <s_epik_cmdline>
J2VwaWtfcHl0aG9uJywgJy1waCcsICc3LjAnLCAnLXRuJywgJzgnLCAnLW1hJywgJzIwMCcsICctbWV0YWxfYmluZGluZycsICctaW1hZScsICc8aW5maWxlLm1hZT4nLCAnLW9tYWUnLCAnPG91dGZpbGUubWFlPic=

> <r_lp_tautomer_probability>
0.999537

> <r_epik_Ionization_Penalty>
0.058267

> <r_epik_Ionization_Penalty_Charging>
0.058267

> <r_epik_Ionization_Penalty_Neutral>
6.57791e-16

> <r_epik_State_Penalty>
0.0503774

> <r_epik_Charging_Adjusted_Penalty>
0.108644

> <i_epik_Tot_Q>
0

> <i_epik_Tot_abs_Q>
0

> <r_epik_Metal_State_Penalty>
2.6644

> <b_epik_Metal_Only>
0

> <s_epik_Chemistry_Notes>
This compound has an ester and may undergo hydrolysis at high or low pH. This compound contains an acetal/aminal-like group ( X-CH(R)-Y where X, Y are N, S, or O) that may be acid/base labile, releasing an aldehyde.

> <s_lp_Force_Field>
OPLS_2005

> <r_lp_Energy>
12.818

> <b_lp_Chiralities_Consistent>
1

> <s_lp_Variant>
AV-unprocessed.smi:102-13

> <Gold.Version>
5.8.1

> <Gold.Id.Protein>
6NUR|6NUR_protein|mol2

> <Gold.PLP.Fitness>
39.1767

> <Gold.PLP.PLP>
-33.6518

> <Gold.PLP.part.hbond>
-4.3788

> <Gold.PLP.part.metal>
0.0000

> <Gold.PLP.part.buried>
-1.4598

> <Gold.PLP.part.nonpolar>
-27.5127

> <Gold.PLP.part.repulsive>
0.0772

> <Gold.PLP.ligand.clash>
0.0000

> <Gold.PLP.ligand.torsion>
0.3701

> <Gold.PLP.Chemscore.Hbond>
2.0000

> <Gold.PLP.Chemscore.CHOScore>
0.0000

> <Gold.PLP.Chemscore.Metal>
0.0000

> <Gold.Chemscore.Hbonds>
donor molecule, donor type, donor heavy atom, donor atom, acceptor molecule, acceptor atom, score
      P1  H  7989  7998       L1    27  1.00
      P1  H 10752 10764       L1    22  1.00

> <Gold.PLP.Chemscore.Internal.Correction>
0.2650

> <Gold.Rescore>
     Score         DG    S(hbond)    S(metal)    S(lipo)     H(rot)  DE(clash)    DE(int)     intcor
      0.83      -7.55       1.81        0.00      54.66       4.05       1.63       5.10       ----

> <Gold.Chemscore.Fitness>
0.8291

> <Gold.Chemscore.DG>
-7.5534

> <Gold.Chemscore.ZeroCoef>
-5.4800

> <Gold.Chemscore.Hbond>
1.8119

> <Gold.Chemscore.Metal>
0.0000

> <Gold.Chemscore.Lipo>
54.6565

> <Gold.Chemscore.Internal_Hbond>
0.0000

> <Gold.Chemscore.DEClash>
1.6253

> <Gold.Chemscore.DEInternal>
5.0990

> <Gold.Chemscore.Rot>
4.0520

> <Gold.Chemscore.Internal.Correction>
   9.000000E+99

> <Gold.Chemscore.Hbonds>
donor molecule, donor type, donor heavy atom, donor atom, acceptor molecule, acceptor atom, score
      P1  H  7989  7998       L1    27  0.74
      P1  H 10752 10764       L1    22  0.65

> <Gold.Chemscore.Hbond.Weighted>
-6.0517

> <Gold.Chemscore.Metal.Weighted>
-0.0000

> <Gold.Chemscore.Lipo.Weighted>
-6.3948

> <Gold.Chemscore.Internal_Hbond.Weighted>
0.0000

> <Gold.Chemscore.DEClash.Weighted>
1.6253

> <Gold.Chemscore.DEInternal.Weighted>
5.0990

> <Gold.Chemscore.Rot.Weighted>
10.3732

> <Gold.Chemscore.Internal.Correction.Weighted>
   9.000000E+99

> <Gold.Protein.RotatedTorsions>
[ 6907 6896 6895 6894 ] final  113.77 input  -60.11 | X-H torsion
[ 7974 7965 7964 7962 ] final   20.43 input  175.53 | X-H torsion
[ 8008 7997 7996 7995 ] final   34.49 input   59.86 | X-H torsion
[ 10167 10162 10161 10158 ] final    1.26 input  -65.29 | X-H torsion
[ 10718 10713 10712 10709 ] final -144.50 input   66.30 | X-H torsion
[ 10763 10752 10751 10750 ] final  -28.68 input  -60.55 | X-H torsion
[ 11005 11000 10999 10996 ] final  -96.29 input  -57.11 | X-H torsion

> <Gold.Protein.ActiveResidues>
 VAL166  LYS551  ARG553  GLY616  TRP617  ASP618  TYR619  PRO620  LYS621  CYS622 
 ASP623  PHE694  ASN695  SER759  ASP760  ASP761  ALA762  ILE779  LEU786  VAL792 
 PHE793  MET794  SER795  GLU796  ALA797  LYS798  CYS799  TRP800  GLU811  SER814 

> <Gold.Protein.RotatedAtoms>
  152.4841  133.8329  159.7112 H   0  0  0  0  0  0  0  0  0  0  0  0  # atno 6907 bound_to 6896
  150.8914  133.7229  159.2910 H   0  0  0  0  0  0  0  0  0  0  0  0  # atno 6908 bound_to 6896
  151.4701  135.1049  159.9801 H   0  0  0  0  0  0  0  0  0  0  0  0  # atno 6909 bound_to 6896
  146.2111  139.8171  142.8688 H   0  0  0  0  0  0  0  0  0  0  0  0  # atno 7974 bound_to 7965
  155.1556  140.3279  155.4422 H   0  0  0  0  0  0  0  0  0  0  0  0  # atno 8008 bound_to 7997
  156.2560  140.1969  156.6616 H   0  0  0  0  0  0  0  0  0  0  0  0  # atno 8009 bound_to 7997
  154.6441  140.0566  156.9867 H   0  0  0  0  0  0  0  0  0  0  0  0  # atno 8010 bound_to 7997
  140.6691  143.7099  150.7886 H   0  0  0  0  0  0  0  0  0  0  0  0  # atno 10167 bound_to 10162
  156.3709  130.7787  151.1967 H   0  0  0  0  0  0  0  0  0  0  0  0  # atno 10718 bound_to 10713
  153.7523  135.6925  153.4943 H   0  0  0  0  0  0  0  0  0  0  0  0  # atno 10763 bound_to 10752
  153.1994  135.4442  155.0247 H   0  0  0  0  0  0  0  0  0  0  0  0  # atno 10764 bound_to 10752
  154.8183  135.3409  154.7043 H   0  0  0  0  0  0  0  0  0  0  0  0  # atno 10765 bound_to 10752
  141.1416  133.8087  157.0551 H   0  0  0  0  0  0  0  0  0  0  0  0  # atno 11005 bound_to 11000
  145.3135  141.0226  143.3541 LP  0  0  0  0  0  0  0  0  0  0  0  0  # atno 17320 bound_to 7965
  144.8918  139.4764  143.6674 LP  0  0  0  0  0  0  0  0  0  0  0  0  # atno 17321 bound_to 7965
  140.0781  143.4995  152.2545 LP  0  0  0  0  0  0  0  0  0  0  0  0  # atno 17342 bound_to 10162
  139.5951  144.7564  151.3305 LP  0  0  0  0  0  0  0  0  0  0  0  0  # atno 17343 bound_to 10162
  157.7483  131.0372  150.4447 LP  0  0  0  0  0  0  0  0  0  0  0  0  # atno 17370 bound_to 10713
  156.4674  130.4045  149.6539 LP  0  0  0  0  0  0  0  0  0  0  0  0  # atno 17371 bound_to 10713
  140.0607  134.9756  157.1299 LP  0  0  0  0  0  0  0  0  0  0  0  0  # atno 17394 bound_to 11000
  140.3853  134.2243  155.7168 LP  0  0  0  0  0  0  0  0  0  0  0  0  # atno 17395 bound_to 11000

$$$$
