AV-unprocessed.smi:2061|AV-procd|sdf|8393|dock3
  -GOLD-   2272011 73D 1   1.00000     0.00000
 Structure written by MMmdl.
 45 46  0  0  0  0  0  0  0  0  3 V2000
  144.0232  132.3406  149.4842 C   0  0  0  0  0  0  0  0  0  0  0  0
  144.9202  133.2294  150.2766 C   0  0  0  0  0  0  0  0  0  0  0  0
  144.9120  134.5736  150.5211 C   0  0  0  0  0  0  0  0  0  0  0  0
  146.0516  134.7565  151.3487 C   0  0  0  0  0  0  0  0  0  0  0  0
  146.3896  136.0442  151.8418 N   0  0  0  0  0  0  0  0  0  0  0  0
  145.5706  137.0131  152.2879 C   0  0  0  0  0  0  0  0  0  0  0  0
  144.3587  136.7990  152.4093 O   0  0  0  0  0  0  0  0  0  0  0  0
  146.2353  138.1718  152.5507 N   0  5  0  0  0  0  0  0  0  0  0  0
  147.1222  138.3875  153.6982 C   0  0  0  0  0  0  0  0  0  0  0  0
  147.6442  139.8495  153.7470 C   0  0  1  0  0  0  0  0  0  0  0  0
  146.5591  140.8979  154.1002 C   0  0  0  0  0  0  0  0  0  0  0  0
  148.8999  139.9563  154.5602 N   0  3  1  0  0  0  0  0  0  0  0  0
  149.9913  139.0673  154.0965 C   0  0  0  0  0  0  0  0  0  0  0  0
  151.1432  139.0601  155.1175 C   0  0  1  0  0  0  0  0  0  0  0  0
  152.3310  138.2194  154.6369 C   0  0  0  0  0  0  0  0  0  0  0  0
  151.6065  140.3917  155.3282 O   0  0  0  0  0  0  0  0  0  0  0  0
  150.6106  141.3082  155.7822 C   0  0  2  0  0  0  0  0  0  0  0  0
  150.2082  141.0585  157.2461 C   0  0  0  0  0  0  0  0  0  0  0  0
  149.4236  141.3290  154.8005 C   0  0  0  0  0  0  0  0  0  0  0  0
  146.6930  133.6233  151.5938 N   0  0  0  0  0  0  0  0  0  0  0  0
  145.9732  132.6398  150.9055 O   0  0  0  0  0  0  0  0  0  0  0  0
  143.0076  132.3673  149.8791 H   0  0  0  0  0  0  0  0  0  0  0  0
  144.3684  131.3067  149.5113 H   0  0  0  0  0  0  0  0  0  0  0  0
  143.9897  132.6576  148.4417 H   0  0  0  0  0  0  0  0  0  0  0  0
  144.2041  135.3067  150.1640 H   0  0  0  0  0  0  0  0  0  0  0  0
  147.3712  136.2776  151.8147 H   0  0  0  0  0  0  0  0  0  0  0  0
  146.6318  138.1635  154.6467 H   0  0  0  0  0  0  0  0  0  0  0  0
  147.9771  137.7124  153.6600 H   0  0  0  0  0  0  0  0  0  0  0  0
  147.9141  140.0701  152.7132 H   0  0  0  0  0  0  0  0  0  0  0  0
  145.7201  140.8613  153.4028 H   0  0  0  0  0  0  0  0  0  0  0  0
  146.9638  141.9087  154.0413 H   0  0  0  0  0  0  0  0  0  0  0  0
  146.1496  140.7641  155.1027 H   0  0  0  0  0  0  0  0  0  0  0  0
  149.6158  138.0502  153.9753 H   0  0  0  0  0  0  0  0  0  0  0  0
  150.3428  139.4015  153.1189 H   0  0  0  0  0  0  0  0  0  0  0  0
  150.7920  138.6384  156.0595 H   0  0  0  0  0  0  0  0  0  0  0  0
  152.0372  137.1829  154.4703 H   0  0  0  0  0  0  0  0  0  0  0  0
  153.1332  138.2215  155.3753 H   0  0  0  0  0  0  0  0  0  0  0  0
  152.7376  138.6073  153.7024 H   0  0  0  0  0  0  0  0  0  0  0  0
  151.0752  142.2943  155.7531 H   0  0  0  0  0  0  0  0  0  0  0  0
  149.5235  141.8316  157.5958 H   0  0  0  0  0  0  0  0  0  0  0  0
  151.0820  141.0750  157.8976 H   0  0  0  0  0  0  0  0  0  0  0  0
  149.7101  140.0999  157.3827 H   0  0  0  0  0  0  0  0  0  0  0  0
  149.7599  141.7608  153.8572 H   0  0  0  0  0  0  0  0  0  0  0  0
  148.6396  141.9802  155.1874 H   0  0  0  0  0  0  0  0  0  0  0  0
  148.6341  139.6044  155.4699 H   0  0  0  0  0  0  0  0  0  0  0  0
  1  2  1  0  0  0  0
  1 22  1  0  0  0  0
  1 23  1  0  0  0  0
  1 24  1  0  0  0  0
  2 21  1  0  0  0  0
  2  3  2  0  0  0  0
  3  4  1  0  0  0  0
  3 25  1  0  0  0  0
  4  5  1  0  0  0  0
  4 20  2  0  0  0  0
  5  6  1  0  0  0  0
  5 26  1  0  0  0  0
  6  7  2  0  0  0  0
  6  8  1  0  0  0  0
  8  9  1  0  0  0  0
  9 10  1  0  0  0  0
  9 27  1  0  0  0  0
  9 28  1  0  0  0  0
 10 11  1  0  0  0  0
 10 12  1  0  0  0  0
 10 29  1  0  0  0  0
 11 30  1  0  0  0  0
 11 31  1  0  0  0  0
 11 32  1  0  0  0  0
 12 19  1  0  0  0  0
 12 13  1  0  0  0  0
 12 45  1  0  0  0  0
 13 14  1  0  0  0  0
 13 33  1  0  0  0  0
 13 34  1  0  0  0  0
 14 15  1  0  0  0  0
 14 16  1  0  0  0  0
 14 35  1  0  0  0  0
 15 36  1  0  0  0  0
 15 37  1  0  0  0  0
 15 38  1  0  0  0  0
 16 17  1  0  0  0  0
 17 18  1  0  0  0  0
 17 19  1  0  0  0  0
 17 39  1  0  0  0  0
 18 40  1  0  0  0  0
 18 41  1  0  0  0  0
 18 42  1  0  0  0  0
 19 43  1  0  0  0  0
 19 44  1  0  0  0  0
 20 21  1  0  0  0  0
M  CHG  1   8  -1
M  CHG  1  12   1
M  END
> <s_m_source_file>
AV-unprocessed.smi

> <i_m_source_file_index>
2061

> <i_lp_mmshare_version>
43012

> <i_f3d_flags>
0

> <s_epik_input>
W0NIM11jMVtjSF1jKG5vMSlbTkhdQyg9TylbTkhdW0NIMl1bQ0BIXShbQ0gzXSlOMltDSDJdW0NAQEhdKFtDSDNdKU9bQ0BASF0oW0NIM10pW0NIMl0y

> <s_epik_cmdline>
J2VwaWtfcHl0aG9uJywgJy1waCcsICc3LjAnLCAnLXRuJywgJzgnLCAnLW1hJywgJzIwMCcsICctbWV0YWxfYmluZGluZycsICctaW1hZScsICc8aW5maWxlLm1hZT4nLCAnLW9tYWUnLCAnPG91dGZpbGUubWFlPic=

> <r_epik_Ionization_Penalty>
6.8073

> <r_epik_Ionization_Penalty_Charging>
6.80729

> <r_epik_Ionization_Penalty_Neutral>
5.65391e-06

> <r_epik_State_Penalty>
7.47323

> <r_epik_Charging_Adjusted_Penalty>
14.2805

> <i_epik_Tot_Q>
0

> <i_epik_Tot_abs_Q>
2

> <r_epik_Metal_State_Penalty>
3.40035

> <b_epik_Metal_Only>
1

> <s_lp_Force_Field>
OPLS_2005

> <r_lp_Energy>
16.8806

> <b_lp_Chiralities_Consistent>
1

> <s_lp_Variant>
AV-unprocessed.smi:2061-34

> <Gold.Version>
5.8.1

> <Gold.Id.Protein>
6NUR|6NUR_protein|mol2

> <Gold.PLP.Fitness>
39.8969

> <Gold.PLP.PLP>
-36.7834

> <Gold.PLP.part.hbond>
-2.0000

> <Gold.PLP.part.metal>
0.0000

> <Gold.PLP.part.buried>
-6.1865

> <Gold.PLP.part.nonpolar>
-30.5755

> <Gold.PLP.part.repulsive>
0.9231

> <Gold.PLP.ligand.clash>
0.0000

> <Gold.PLP.ligand.torsion>
1.2282

> <Gold.PLP.Chemscore.Hbond>
1.7524

> <Gold.PLP.Chemscore.CHOScore>
0.0000

> <Gold.PLP.Chemscore.Metal>
0.0000

> <Gold.Chemscore.Hbonds>
donor molecule, donor type, donor heavy atom, donor atom, acceptor molecule, acceptor atom, score
      L1  H     5    26       P1  7948  1.00
      P1  H  7989  7998       L1    16  0.64

> <Gold.PLP.Chemscore.Internal.Correction>
0.3128

> <Gold.Rescore>
     Score         DG    S(hbond)    S(metal)    S(lipo)     H(rot)  DE(clash)    DE(int)     intcor
     13.58     -14.92       1.03        0.00      85.29       1.56       0.00       1.34       ----

> <Gold.Chemscore.Fitness>
13.5834

> <Gold.Chemscore.DG>
-14.9197

> <Gold.Chemscore.ZeroCoef>
-5.4800

> <Gold.Chemscore.Hbond>
1.0305

> <Gold.Chemscore.Metal>
0.0000

> <Gold.Chemscore.Lipo>
85.2868

> <Gold.Chemscore.Internal_Hbond>
0.0000

> <Gold.Chemscore.DEClash>
0.0000

> <Gold.Chemscore.DEInternal>
1.3363

> <Gold.Chemscore.Rot>
1.5550

> <Gold.Chemscore.Internal.Correction>
   9.000000E+99

> <Gold.Chemscore.Hbonds>
donor molecule, donor type, donor heavy atom, donor atom, acceptor molecule, acceptor atom, score
      L1  H     5    26       P1  7948  0.96
      P1  H  7989  7998       L1    16  0.02

> <Gold.Chemscore.Hbond.Weighted>
-3.4420

> <Gold.Chemscore.Metal.Weighted>
-0.0000

> <Gold.Chemscore.Lipo.Weighted>
-9.9786

> <Gold.Chemscore.Internal_Hbond.Weighted>
0.0000

> <Gold.Chemscore.DEClash.Weighted>
0.0000

> <Gold.Chemscore.DEInternal.Weighted>
1.3363

> <Gold.Chemscore.Rot.Weighted>
3.9809

> <Gold.Chemscore.Internal.Correction.Weighted>
   9.000000E+99

> <Gold.Protein.RotatedTorsions>
[ 6907 6896 6895 6894 ] final  -26.41 input  -60.11 | X-H torsion
[ 7974 7965 7964 7962 ] final   -0.72 input  175.53 | X-H torsion
[ 8008 7997 7996 7995 ] final   89.19 input   59.86 | X-H torsion
[ 10167 10162 10161 10158 ] final  105.95 input  -65.29 | X-H torsion
[ 10718 10713 10712 10709 ] final   80.22 input   66.30 | X-H torsion
[ 10763 10752 10751 10750 ] final   55.76 input  -60.55 | X-H torsion
[ 11005 11000 10999 10996 ] final  130.86 input  -57.11 | X-H torsion

> <Gold.Protein.ActiveResidues>
 VAL166  LYS551  ARG553  GLY616  TRP617  ASP618  TYR619  PRO620  LYS621  CYS622 
 ASP623  PHE694  ASN695  SER759  ASP760  ASP761  ALA762  ILE779  LEU786  VAL792 
 PHE793  MET794  SER795  GLU796  ALA797  LYS798  CYS799  TRP800  GLU811  SER814 

> <Gold.Protein.RotatedAtoms>
  151.1613  135.0274  159.8711 H   0  0  0  0  0  0  0  0  0  0  0  0  # atno 6907 bound_to 6896
  152.5451  134.1276  159.8435 H   0  0  0  0  0  0  0  0  0  0  0  0  # atno 6908 bound_to 6896
  151.1372  133.4950  159.2630 H   0  0  0  0  0  0  0  0  0  0  0  0  # atno 6909 bound_to 6896
  146.2424  140.1313  142.8338 H   0  0  0  0  0  0  0  0  0  0  0  0  # atno 7974 bound_to 7965
  155.9969  140.3363  155.6808 H   0  0  0  0  0  0  0  0  0  0  0  0  # atno 8008 bound_to 7997
  155.6343  140.0688  157.2657 H   0  0  0  0  0  0  0  0  0  0  0  0  # atno 8009 bound_to 7997
  154.4237  140.1754  156.1493 H   0  0  0  0  0  0  0  0  0  0  0  0  # atno 8010 bound_to 7997
  139.7050  144.7088  151.1122 H   0  0  0  0  0  0  0  0  0  0  0  0  # atno 10167 bound_to 10162
  157.6800  130.9949  150.2047 H   0  0  0  0  0  0  0  0  0  0  0  0  # atno 10718 bound_to 10713
  152.9821  135.5699  154.5120 H   0  0  0  0  0  0  0  0  0  0  0  0  # atno 10763 bound_to 10752
  154.4622  135.2782  155.1706 H   0  0  0  0  0  0  0  0  0  0  0  0  # atno 10764 bound_to 10752
  154.3289  135.6253  153.5595 H   0  0  0  0  0  0  0  0  0  0  0  0  # atno 10765 bound_to 10752
  139.9696  134.9581  156.9355 H   0  0  0  0  0  0  0  0  0  0  0  0  # atno 11005 bound_to 11000
  145.0324  140.8881  143.5102 LP  0  0  0  0  0  0  0  0  0  0  0  0  # atno 17320 bound_to 7965
  145.1379  139.2590  143.5505 LP  0  0  0  0  0  0  0  0  0  0  0  0  # atno 17321 bound_to 7965
  140.7719  143.5371  150.9355 LP  0  0  0  0  0  0  0  0  0  0  0  0  # atno 17342 bound_to 10162
  139.9054  143.6784  152.3124 LP  0  0  0  0  0  0  0  0  0  0  0  0  # atno 17343 bound_to 10162
  156.2730  130.3724  149.8012 LP  0  0  0  0  0  0  0  0  0  0  0  0  # atno 17370 bound_to 10713
  156.5723  130.8430  151.3360 LP  0  0  0  0  0  0  0  0  0  0  0  0  # atno 17371 bound_to 10713
  140.5321  134.0803  155.7318 LP  0  0  0  0  0  0  0  0  0  0  0  0  # atno 17394 bound_to 11000
  141.1376  133.9194  157.2398 LP  0  0  0  0  0  0  0  0  0  0  0  0  # atno 17395 bound_to 11000

$$$$
