AV-unprocessed.smi:149|AV-procd|sdf|1241|dock8
  -GOLD-   2262018463D 1   1.00000     0.00000
 Structure written by MMmdl.
 59 63  0  0  0  0  0  0  0  0  1 V2000
  153.1841  142.7172  162.6486 C   0  0  0  0  0  0  0  0  0  0  0  0
  153.8619  141.9700  161.4867 C   0  0  1  0  0  0  0  0  0  0  0  0
  154.6089  140.7245  161.9945 C   0  0  0  0  0  0  0  0  0  0  0  0
  154.0354  139.5794  161.3060 N   0  0  0  0  0  0  0  0  0  0  0  0
  154.6970  138.3894  161.3193 C   0  0  0  0  0  0  0  0  0  0  0  0
  155.6226  138.1601  160.3490 N   0  0  0  0  0  0  0  0  0  0  0  0
  156.3051  137.0129  160.3122 C   0  0  0  0  0  0  0  0  0  0  0  0
  156.2229  135.9684  161.1361 N   0  0  0  0  0  0  0  0  0  0  0  0
  155.3033  136.1862  162.1186 C   0  0  0  0  0  0  0  0  0  0  0  0
  154.5099  137.3584  162.2907 C   0  0  0  0  0  0  0  0  0  0  0  0
  153.7118  137.2113  163.4212 N   0  0  0  0  0  0  0  0  0  0  0  0
  154.0141  136.0309  163.8853 C   0  0  0  0  0  0  0  0  0  0  0  0
  154.9380  135.3319  163.1447 N   0  0  0  0  0  0  0  0  0  0  0  0
  155.4710  134.0351  163.4419 C   0  0  0  0  0  0  0  0  0  0  0  0
  155.1417  132.8263  162.5632 C   0  0  0  0  0  0  0  0  0  0  0  0
  155.2074  131.9116  163.8060 C   0  0  0  0  0  0  0  0  0  0  0  0
  154.1111  130.8357  163.8818 C   0  0  0  0  0  0  0  0  0  0  0  0
  152.8272  131.3955  163.6939 O   0  0  0  0  0  0  0  0  0  0  0  0
  156.5814  131.2630  164.0698 C   0  0  0  0  0  0  0  0  0  0  0  0
  156.8700  130.2581  163.1193 O   0  0  0  0  0  0  0  0  0  0  0  0
  154.9266  133.2036  164.6061 C   0  0  0  0  0  0  0  0  0  0  0  0
  153.3878  140.0530  160.1001 C   0  0  0  0  0  0  0  0  0  0  0  0
  152.8665  141.4632  160.4138 C   0  0  2  0  0  0  0  0  0  0  0  0
  152.7319  142.2994  159.2094 N   0  0  0  0  0  0  0  0  0  0  0  0
  151.5338  141.9561  158.4406 C   0  0  0  0  0  0  0  0  0  0  0  0
  151.3791  142.8240  157.1799 C   0  0  0  0  0  0  0  0  0  0  0  0
  151.3546  144.1979  157.5474 O   0  0  0  0  0  0  0  0  0  0  0  0
  152.5263  144.5917  158.2516 C   0  0  0  0  0  0  0  0  0  0  0  0
  152.6880  143.7288  159.5153 C   0  0  0  0  0  0  0  0  0  0  0  0
  152.4662  142.0771  163.1624 H   0  0  0  0  0  0  0  0  0  0  0  0
  152.6490  143.6025  162.3088 H   0  0  0  0  0  0  0  0  0  0  0  0
  153.9204  143.0441  163.3832 H   0  0  0  0  0  0  0  0  0  0  0  0
  154.5973  142.6280  161.0214 H   0  0  0  0  0  0  0  0  0  0  0  0
  155.6744  140.8057  161.7738 H   0  0  0  0  0  0  0  0  0  0  0  0
  154.5002  140.6000  163.0727 H   0  0  0  0  0  0  0  0  0  0  0  0
  157.0173  136.9175  159.5058 H   0  0  0  0  0  0  0  0  0  0  0  0
  153.5613  135.6346  164.7827 H   0  0  0  0  0  0  0  0  0  0  0  0
  156.5508  134.1655  163.5311 H   0  0  0  0  0  0  0  0  0  0  0  0
  154.1408  132.8870  162.1312 H   0  0  0  0  0  0  0  0  0  0  0  0
  155.8847  132.6101  161.7947 H   0  0  0  0  0  0  0  0  0  0  0  0
  154.2675  130.0484  163.1444 H   0  0  0  0  0  0  0  0  0  0  0  0
  154.1188  130.3458  164.8560 H   0  0  0  0  0  0  0  0  0  0  0  0
  152.5348  131.7595  164.5157 H   0  0  0  0  0  0  0  0  0  0  0  0
  157.3829  132.0018  164.0548 H   0  0  0  0  0  0  0  0  0  0  0  0
  156.6158  130.8034  165.0577 H   0  0  0  0  0  0  0  0  0  0  0  0
  156.5258  130.5299  162.2823 H   0  0  0  0  0  0  0  0  0  0  0  0
  155.4912  133.3071  165.5333 H   0  0  0  0  0  0  0  0  0  0  0  0
  153.8622  133.3734  164.7786 H   0  0  0  0  0  0  0  0  0  0  0  0
  154.1165  140.0737  159.2879 H   0  0  0  0  0  0  0  0  0  0  0  0
  152.5627  139.4010  159.8136 H   0  0  0  0  0  0  0  0  0  0  0  0
  151.8888  141.3534  160.8865 H   0  0  0  0  0  0  0  0  0  0  0  0
  151.5642  140.9109  158.1336 H   0  0  0  0  0  0  0  0  0  0  0  0
  150.6478  142.0709  159.0670 H   0  0  0  0  0  0  0  0  0  0  0  0
  152.1966  142.6402  156.4810 H   0  0  0  0  0  0  0  0  0  0  0  0
  150.4526  142.5775  156.6617 H   0  0  0  0  0  0  0  0  0  0  0  0
  153.3989  144.4936  157.6037 H   0  0  0  0  0  0  0  0  0  0  0  0
  152.4434  145.6449  158.5198 H   0  0  0  0  0  0  0  0  0  0  0  0
  151.8669  143.9359  160.2033 H   0  0  0  0  0  0  0  0  0  0  0  0
  153.6056  144.0352  160.0155 H   0  0  0  0  0  0  0  0  0  0  0  0
  1  2  1  0  0  0  0
  1 30  1  0  0  0  0
  1 31  1  0  0  0  0
  1 32  1  0  0  0  0
  2 23  1  0  0  0  0
  2  3  1  0  0  0  0
  2 33  1  0  0  0  0
  3  4  1  0  0  0  0
  3 34  1  0  0  0  0
  3 35  1  0  0  0  0
  4  5  1  0  0  0  0
  4 22  1  0  0  0  0
  5 10  1  0  0  0  0
  5  6  2  0  0  0  0
  6  7  1  0  0  0  0
  7  8  2  0  0  0  0
  7 36  1  0  0  0  0
  8  9  1  0  0  0  0
  9 13  1  0  0  0  0
  9 10  2  0  0  0  0
 10 11  1  0  0  0  0
 11 12  2  0  0  0  0
 12 13  1  0  0  0  0
 12 37  1  0  0  0  0
 13 14  1  0  0  0  0
 14 21  1  0  0  0  0
 14 15  1  0  0  0  0
 14 38  1  0  0  0  0
 15 16  1  0  0  0  0
 15 39  1  0  0  0  0
 15 40  1  0  0  0  0
 16 17  1  0  0  0  0
 16 19  1  0  0  0  0
 16 21  1  0  0  0  0
 17 18  1  0  0  0  0
 17 41  1  0  0  0  0
 17 42  1  0  0  0  0
 18 43  1  0  0  0  0
 19 20  1  0  0  0  0
 19 44  1  0  0  0  0
 19 45  1  0  0  0  0
 20 46  1  0  0  0  0
 21 47  1  0  0  0  0
 21 48  1  0  0  0  0
 22 23  1  0  0  0  0
 22 49  1  0  0  0  0
 22 50  1  0  0  0  0
 23 24  1  0  0  0  0
 23 51  1  0  0  0  0
 24 29  1  0  0  0  0
 24 25  1  0  0  0  0
 25 26  1  0  0  0  0
 25 52  1  0  0  0  0
 25 53  1  0  0  0  0
 26 27  1  0  0  0  0
 26 54  1  0  0  0  0
 26 55  1  0  0  0  0
 27 28  1  0  0  0  0
 28 29  1  0  0  0  0
 28 56  1  0  0  0  0
 28 57  1  0  0  0  0
 29 58  1  0  0  0  0
 29 59  1  0  0  0  0
M  END
> <s_m_source_file>
AV-unprocessed.smi

> <i_m_source_file_index>
149

> <i_lp_mmshare_version>
43012

> <i_f3d_flags>
0

> <s_epik_input>
W0NIMl0xW0NIMl1PW0NIMl1bQ0gyXU4xW0NAQEhdMltDSDJdTihbQ0gyXVtDQEhdMltDSDNdKWMobltjSF1uMyljKGMzNCluW2NIXW40W0NIXShbQ0gyXTUpW0NIMl1DNShbQ0gyXVtPSF0pW0NIMl1bT0hd

> <s_epik_cmdline>
J2VwaWtfcHl0aG9uJywgJy1waCcsICc3LjAnLCAnLXRuJywgJzgnLCAnLW1hJywgJzIwMCcsICctbWV0YWxfYmluZGluZycsICctaW1hZScsICc8aW5maWxlLm1hZT4nLCAnLW9tYWUnLCAnPG91dGZpbGUubWFlPic=

> <r_lp_tautomer_probability>
1

> <r_epik_Ionization_Penalty>
0.41918

> <r_epik_Ionization_Penalty_Charging>
0

> <r_epik_Ionization_Penalty_Neutral>
0.41918

> <r_epik_State_Penalty>
0.654916

> <r_epik_Charging_Adjusted_Penalty>
0.654916

> <i_epik_Tot_Q>
0

> <i_epik_Tot_abs_Q>
0

> <r_epik_Metal_State_Penalty>
0.653217

> <b_epik_Metal_Only>
0

> <s_lp_Force_Field>
OPLS_2005

> <r_lp_Energy>
73.5543

> <b_lp_Chiralities_Consistent>
1

> <s_lp_Variant>
AV-unprocessed.smi:149-8

> <Gold.Version>
5.8.1

> <Gold.Id.Protein>
6NUR|6NUR_protein|mol2

> <Gold.PLP.Fitness>
45.7408

> <Gold.PLP.PLP>
-46.9112

> <Gold.PLP.part.hbond>
0.0000

> <Gold.PLP.part.metal>
0.0000

> <Gold.PLP.part.buried>
-4.7018

> <Gold.PLP.part.nonpolar>
-41.2400

> <Gold.PLP.part.repulsive>
0.2876

> <Gold.PLP.ligand.clash>
0.0000

> <Gold.PLP.ligand.torsion>
1.0173

> <Gold.PLP.Chemscore.Hbond>
0.0000

> <Gold.PLP.Chemscore.CHOScore>
0.0000

> <Gold.PLP.Chemscore.Metal>
0.0000

> <Gold.PLP.Chemscore.Internal.Correction>
0.8643

> <Gold.Rescore>
     Score         DG    S(hbond)    S(metal)    S(lipo)     H(rot)  DE(clash)    DE(int)     intcor
     10.76     -11.66       0.00        0.00     125.95       3.34       0.10       0.81       ----

> <Gold.Chemscore.Fitness>
10.7570

> <Gold.Chemscore.DG>
-11.6621

> <Gold.Chemscore.ZeroCoef>
-5.4800

> <Gold.Chemscore.Hbond>
0.0000

> <Gold.Chemscore.Metal>
0.0000

> <Gold.Chemscore.Lipo>
125.9535

> <Gold.Chemscore.Internal_Hbond>
0.0000

> <Gold.Chemscore.DEClash>
0.0999

> <Gold.Chemscore.DEInternal>
0.8052

> <Gold.Chemscore.Rot>
3.3416

> <Gold.Chemscore.Internal.Correction>
   9.000000E+99

> <Gold.Chemscore.Hbond.Weighted>
-0.0000

> <Gold.Chemscore.Metal.Weighted>
-0.0000

> <Gold.Chemscore.Lipo.Weighted>
-14.7366

> <Gold.Chemscore.Internal_Hbond.Weighted>
0.0000

> <Gold.Chemscore.DEClash.Weighted>
0.0999

> <Gold.Chemscore.DEInternal.Weighted>
0.8052

> <Gold.Chemscore.Rot.Weighted>
8.5545

> <Gold.Chemscore.Internal.Correction.Weighted>
   9.000000E+99

> <Gold.Protein.RotatedTorsions>
[ 6907 6896 6895 6894 ] final   29.03 input  -60.11 | X-H torsion
[ 7974 7965 7964 7962 ] final  -84.69 input  175.53 | X-H torsion
[ 8008 7997 7996 7995 ] final   43.68 input   59.86 | X-H torsion
[ 10167 10162 10161 10158 ] final  114.08 input  -65.29 | X-H torsion
[ 10718 10713 10712 10709 ] final  136.80 input   66.30 | X-H torsion
[ 10763 10752 10751 10750 ] final -147.46 input  -60.55 | X-H torsion
[ 11005 11000 10999 10996 ] final -159.92 input  -57.11 | X-H torsion

> <Gold.Protein.ActiveResidues>
 VAL166  LYS551  ARG553  GLY616  TRP617  ASP618  TYR619  PRO620  LYS621  CYS622 
 ASP623  PHE694  ASN695  SER759  ASP760  ASP761  ALA762  ILE779  LEU786  VAL792 
 PHE793  MET794  SER795  GLU796  ALA797  LYS798  CYS799  TRP800  GLU811  SER814 

> <Gold.Protein.RotatedAtoms>
  152.0256  134.9798  160.0571 H   0  0  0  0  0  0  0  0  0  0  0  0  # atno 6907 bound_to 6896
  152.1295  133.4395  159.4722 H   0  0  0  0  0  0  0  0  0  0  0  0  # atno 6908 bound_to 6896
  150.6855  134.2356  159.4495 H   0  0  0  0  0  0  0  0  0  0  0  0  # atno 6909 bound_to 6896
  145.5033  140.9545  143.1748 H   0  0  0  0  0  0  0  0  0  0  0  0  # atno 7974 bound_to 7965
  155.3068  140.3388  155.4245 H   0  0  0  0  0  0  0  0  0  0  0  0  # atno 8008 bound_to 7997
  156.1975  140.1720  156.8006 H   0  0  0  0  0  0  0  0  0  0  0  0  # atno 8009 bound_to 7997
  154.5517  140.0704  156.8662 H   0  0  0  0  0  0  0  0  0  0  0  0  # atno 8010 bound_to 7997
  139.6415  144.7124  151.2228 H   0  0  0  0  0  0  0  0  0  0  0  0  # atno 10167 bound_to 10162
  157.4429  131.1059  151.0123 H   0  0  0  0  0  0  0  0  0  0  0  0  # atno 10718 bound_to 10713
  154.8284  135.3359  154.6822 H   0  0  0  0  0  0  0  0  0  0  0  0  # atno 10763 bound_to 10752
  153.7445  135.6943  153.4964 H   0  0  0  0  0  0  0  0  0  0  0  0  # atno 10764 bound_to 10752
  153.2220  135.4445  155.0451 H   0  0  0  0  0  0  0  0  0  0  0  0  # atno 10765 bound_to 10752
  140.6372  134.4589  157.5232 H   0  0  0  0  0  0  0  0  0  0  0  0  # atno 11005 bound_to 11000
  144.7768  139.6613  143.7171 LP  0  0  0  0  0  0  0  0  0  0  0  0  # atno 17320 bound_to 7965
  146.2212  139.5640  142.9617 LP  0  0  0  0  0  0  0  0  0  0  0  0  # atno 17321 bound_to 7965
  140.7493  143.6304  150.8428 LP  0  0  0  0  0  0  0  0  0  0  0  0  # atno 17342 bound_to 10162
  139.9942  143.5814  152.2899 LP  0  0  0  0  0  0  0  0  0  0  0  0  # atno 17343 bound_to 10162
  157.0980  130.5970  149.5454 LP  0  0  0  0  0  0  0  0  0  0  0  0  # atno 17370 bound_to 10713
  155.9956  130.5022  150.7463 LP  0  0  0  0  0  0  0  0  0  0  0  0  # atno 17371 bound_to 10713
  139.9093  134.8379  156.1586 LP  0  0  0  0  0  0  0  0  0  0  0  0  # atno 17394 bound_to 11000
  141.0632  133.6831  156.1994 LP  0  0  0  0  0  0  0  0  0  0  0  0  # atno 17395 bound_to 11000

$$$$
