AV-unprocessed.smi:3202|AV-procd|sdf|12248|dock7
  -GOLD-   2272018 83D 1   1.00000     0.00000
 Structure written by MMmdl.
 43 44  0  0  0  0  0  0  0  0  2 V2000
  151.8346  138.3044  154.5758 C   0  0  0  0  0  0  0  0  0  0  0  0
  150.4033  138.7231  154.4110 C   0  0  0  0  0  0  0  0  0  0  0  0
  149.2309  137.9234  154.5474 C   0  0  0  0  0  0  0  0  0  0  0  0
  148.2022  138.7845  154.2866 C   0  0  0  0  0  0  0  0  0  0  0  0
  146.7234  138.5707  154.2517 C   0  0  0  0  0  0  0  0  0  0  0  0
  146.1884  138.0858  152.8904 C   0  0  1  0  0  0  0  0  0  0  0  0
  146.7915  138.8565  151.7048 C   0  0  0  0  0  0  0  0  0  0  0  0
  146.4651  136.6407  152.7319 N   0  3  0  0  0  0  0  0  0  0  0  0
  145.5773  135.9192  151.7923 C   0  0  1  0  0  0  0  0  0  0  0  0
  146.2210  134.6558  151.2030 C   0  0  0  0  0  0  0  0  0  0  0  0
  145.0542  133.7243  150.8507 C   0  0  0  0  0  0  0  0  0  0  0  0
  143.7882  134.3854  151.4151 C   0  0  0  0  0  0  0  0  0  0  0  0
  144.2616  135.4339  152.4380 C   0  0  0  0  0  0  0  0  0  0  0  0
  144.4792  134.7627  153.8144 C   0  0  0  0  0  0  0  0  0  0  0  0
  143.2383  136.5765  152.5782 C   0  0  0  0  0  0  0  0  0  0  0  0
  148.7808  140.0051  154.0228 N   0  0  0  0  0  0  0  0  0  0  0  0
  150.1243  139.9788  154.0952 N   0  0  0  0  0  0  0  0  0  0  0  0
  148.2813  140.8532  153.7953 H   0  0  0  0  0  0  0  0  0  0  0  0
  151.9061  137.2787  154.9386 H   0  0  0  0  0  0  0  0  0  0  0  0
  152.3539  138.9448  155.2893 H   0  0  0  0  0  0  0  0  0  0  0  0
  152.3694  138.3574  153.6273 H   0  0  0  0  0  0  0  0  0  0  0  0
  149.1591  136.8742  154.7936 H   0  0  0  0  0  0  0  0  0  0  0  0
  146.2253  139.5021  154.5247 H   0  0  0  0  0  0  0  0  0  0  0  0
  146.4518  137.8515  155.0254 H   0  0  0  0  0  0  0  0  0  0  0  0
  145.1102  138.2518  152.8734 H   0  0  0  0  0  0  0  0  0  0  0  0
  146.5504  139.9187  151.7530 H   0  0  0  0  0  0  0  0  0  0  0  0
  146.4029  138.4818  150.7571 H   0  0  0  0  0  0  0  0  0  0  0  0
  147.8776  138.7621  151.6799 H   0  0  0  0  0  0  0  0  0  0  0  0
  147.4176  136.5264  152.4160 H   0  0  0  0  0  0  0  0  0  0  0  0
  145.3265  136.5927  150.9701 H   0  0  0  0  0  0  0  0  0  0  0  0
  146.8411  134.8796  150.3344 H   0  0  0  0  0  0  0  0  0  0  0  0
  146.8616  134.1711  151.9415 H   0  0  0  0  0  0  0  0  0  0  0  0
  144.9682  133.5790  149.7734 H   0  0  0  0  0  0  0  0  0  0  0  0
  145.2101  132.7427  151.2998 H   0  0  0  0  0  0  0  0  0  0  0  0
  143.2605  134.8770  150.5963 H   0  0  0  0  0  0  0  0  0  0  0  0
  143.0971  133.6571  151.8417 H   0  0  0  0  0  0  0  0  0  0  0  0
  143.5510  134.3293  154.1889 H   0  0  0  0  0  0  0  0  0  0  0  0
  144.8205  135.4787  154.5625 H   0  0  0  0  0  0  0  0  0  0  0  0
  145.2143  133.9590  153.7683 H   0  0  0  0  0  0  0  0  0  0  0  0
  142.2852  136.2070  152.9582 H   0  0  0  0  0  0  0  0  0  0  0  0
  143.0422  137.0620  151.6216 H   0  0  0  0  0  0  0  0  0  0  0  0
  143.5930  137.3432  153.2676 H   0  0  0  0  0  0  0  0  0  0  0  0
  146.3795  136.2081  153.6406 H   0  0  0  0  0  0  0  0  0  0  0  0
  1 19  1  0  0  0  0
  1 20  1  0  0  0  0
  1 21  1  0  0  0  0
  1  2  1  0  0  0  0
  2 17  2  0  0  0  0
  2  3  1  0  0  0  0
  3  4  2  0  0  0  0
  3 22  1  0  0  0  0
  4 16  1  0  0  0  0
  4  5  1  0  0  0  0
  5  6  1  0  0  0  0
  5 23  1  0  0  0  0
  5 24  1  0  0  0  0
  6  7  1  0  0  0  0
  6  8  1  0  0  0  0
  6 25  1  0  0  0  0
  7 26  1  0  0  0  0
  7 27  1  0  0  0  0
  7 28  1  0  0  0  0
  8  9  1  0  0  0  0
  8 29  1  0  0  0  0
  8 43  1  0  0  0  0
  9 13  1  0  0  0  0
  9 10  1  0  0  0  0
  9 30  1  0  0  0  0
 10 11  1  0  0  0  0
 10 31  1  0  0  0  0
 10 32  1  0  0  0  0
 11 12  1  0  0  0  0
 11 33  1  0  0  0  0
 11 34  1  0  0  0  0
 12 13  1  0  0  0  0
 12 35  1  0  0  0  0
 12 36  1  0  0  0  0
 13 14  1  0  0  0  0
 13 15  1  0  0  0  0
 14 37  1  0  0  0  0
 14 38  1  0  0  0  0
 14 39  1  0  0  0  0
 15 40  1  0  0  0  0
 15 41  1  0  0  0  0
 15 42  1  0  0  0  0
 16 17  1  0  0  0  0
 16 18  1  0  0  0  0
M  CHG  1   8   1
M  END
> <s_m_source_file>
AV-unprocessed.smi

> <i_m_source_file_index>
3202

> <i_lp_mmshare_version>
43012

> <i_f3d_flags>
0

> <s_epik_input>
W0NIM11jMVtjSF1jKG5bbkhdMSlbQ0gyXVtDQEhdKFtDSDNdKVtOSF1bQ0BASF0oQzIoW0NIM10pW0NIM10pW0NIMl1bQ0gyXVtDSDJdMg==

> <s_epik_cmdline>
J2VwaWtfcHl0aG9uJywgJy1waCcsICc3LjAnLCAnLXRuJywgJzgnLCAnLW1hJywgJzIwMCcsICctbWV0YWxfYmluZGluZycsICctaW1hZScsICc8aW5maWxlLm1hZT4nLCAnLW9tYWUnLCAnPG91dGZpbGUubWFlPic=

> <r_lp_tautomer_probability>
0.5

> <r_epik_Ionization_Penalty>
0.000449684

> <r_epik_Ionization_Penalty_Charging>
0.000404963

> <r_epik_Ionization_Penalty_Neutral>
4.47208e-05

> <r_epik_State_Penalty>
0.41068

> <r_epik_Charging_Adjusted_Penalty>
0.411085

> <i_epik_Tot_Q>
1

> <i_epik_Tot_abs_Q>
1

> <r_epik_Metal_State_Penalty>
0.410687

> <b_epik_Metal_Only>
0

> <s_lp_Force_Field>
OPLS_2005

> <r_lp_Energy>
32.3918

> <b_lp_Chiralities_Consistent>
1

> <s_lp_Variant>
AV-unprocessed.smi:3202-8

> <Gold.Version>
5.8.1

> <Gold.Id.Protein>
6NUR|6NUR_protein|mol2

> <Gold.PLP.Fitness>
36.8944

> <Gold.PLP.PLP>
-29.8745

> <Gold.PLP.part.hbond>
-3.0000

> <Gold.PLP.part.metal>
0.0000

> <Gold.PLP.part.buried>
-3.9308

> <Gold.PLP.part.nonpolar>
-24.4530

> <Gold.PLP.part.repulsive>
1.1977

> <Gold.PLP.ligand.clash>
0.0000

> <Gold.PLP.ligand.torsion>
0.9976

> <Gold.PLP.Chemscore.Hbond>
3.0000

> <Gold.PLP.Chemscore.CHOScore>
0.0000

> <Gold.PLP.Chemscore.Metal>
0.0000

> <Gold.Chemscore.Hbonds>
donor molecule, donor type, donor heavy atom, donor atom, acceptor molecule, acceptor atom, score
      L1  H     8    29       P1  7948  2.00
      P1  H  7989  7998       L1    17  0.99

> <Gold.PLP.Chemscore.Internal.Correction>
0.0151

> <Gold.Rescore>
     Score         DG    S(hbond)    S(metal)    S(lipo)     H(rot)  DE(clash)    DE(int)     intcor
     16.07     -17.22       1.98        0.00      75.68       1.46       0.25       0.91       ----

> <Gold.Chemscore.Fitness>
16.0681

> <Gold.Chemscore.DG>
-17.2217

> <Gold.Chemscore.ZeroCoef>
-5.4800

> <Gold.Chemscore.Hbond>
1.9832

> <Gold.Chemscore.Metal>
0.0000

> <Gold.Chemscore.Lipo>
75.6767

> <Gold.Chemscore.Internal_Hbond>
0.0000

> <Gold.Chemscore.DEClash>
0.2480

> <Gold.Chemscore.DEInternal>
0.9056

> <Gold.Chemscore.Rot>
1.4596

> <Gold.Chemscore.Internal.Correction>
   9.000000E+99

> <Gold.Chemscore.Hbonds>
donor molecule, donor type, donor heavy atom, donor atom, acceptor molecule, acceptor atom, score
      L1  H     8    29       P1  7948  1.00
      P1  H  7989  7998       L1    17  0.78

> <Gold.Chemscore.Hbond.Weighted>
-6.6240

> <Gold.Chemscore.Metal.Weighted>
-0.0000

> <Gold.Chemscore.Lipo.Weighted>
-8.8542

> <Gold.Chemscore.Internal_Hbond.Weighted>
0.0000

> <Gold.Chemscore.DEClash.Weighted>
0.2480

> <Gold.Chemscore.DEInternal.Weighted>
0.9056

> <Gold.Chemscore.Rot.Weighted>
3.7365

> <Gold.Chemscore.Internal.Correction.Weighted>
   9.000000E+99

> <Gold.Protein.RotatedTorsions>
[ 6907 6896 6895 6894 ] final -116.60 input  -60.11 | X-H torsion
[ 7974 7965 7964 7962 ] final  125.11 input  175.53 | X-H torsion
[ 8008 7997 7996 7995 ] final   38.17 input   59.86 | X-H torsion
[ 10167 10162 10161 10158 ] final  -39.27 input  -65.29 | X-H torsion
[ 10718 10713 10712 10709 ] final   24.16 input   66.30 | X-H torsion
[ 10763 10752 10751 10750 ] final  -72.93 input  -60.55 | X-H torsion
[ 11005 11000 10999 10996 ] final  -74.05 input  -57.11 | X-H torsion

> <Gold.Protein.ActiveResidues>
 VAL166  LYS551  ARG553  GLY616  TRP617  ASP618  TYR619  PRO620  LYS621  CYS622 
 ASP623  PHE694  ASN695  SER759  ASP760  ASP761  ALA762  ILE779  LEU786  VAL792 
 PHE793  MET794  SER795  GLU796  ALA797  LYS798  CYS799  TRP800  GLU811  SER814 

> <Gold.Protein.RotatedAtoms>
  150.8069  133.8494  159.3200 H   0  0  0  0  0  0  0  0  0  0  0  0  # atno 6907 bound_to 6896
  151.6290  135.1023  160.0127 H   0  0  0  0  0  0  0  0  0  0  0  0  # atno 6908 bound_to 6896
  152.4160  133.6998  159.6474 H   0  0  0  0  0  0  0  0  0  0  0  0  # atno 6909 bound_to 6896
  145.0767  139.3688  143.4930 H   0  0  0  0  0  0  0  0  0  0  0  0  # atno 7974 bound_to 7965
  155.2157  140.3327  155.4322 H   0  0  0  0  0  0  0  0  0  0  0  0  # atno 8008 bound_to 7997
  156.2353  140.1869  156.7184 H   0  0  0  0  0  0  0  0  0  0  0  0  # atno 8009 bound_to 7997
  154.6048  140.0617  156.9402 H   0  0  0  0  0  0  0  0  0  0  0  0  # atno 8010 bound_to 7997
  140.7069  143.3225  151.2759 H   0  0  0  0  0  0  0  0  0  0  0  0  # atno 10167 bound_to 10162
  157.1760  130.6781  149.6095 H   0  0  0  0  0  0  0  0  0  0  0  0  # atno 10718 bound_to 10713
  154.4525  135.5914  153.6201 H   0  0  0  0  0  0  0  0  0  0  0  0  # atno 10763 bound_to 10752
  152.9815  135.6024  154.3587 H   0  0  0  0  0  0  0  0  0  0  0  0  # atno 10764 bound_to 10752
  154.3450  135.2841  155.2381 H   0  0  0  0  0  0  0  0  0  0  0  0  # atno 10765 bound_to 10752
  141.1630  133.6898  156.7305 H   0  0  0  0  0  0  0  0  0  0  0  0  # atno 11005 bound_to 11000
  146.3530  140.0538  142.8634 LP  0  0  0  0  0  0  0  0  0  0  0  0  # atno 17320 bound_to 7965
  145.1227  140.9471  143.4591 LP  0  0  0  0  0  0  0  0  0  0  0  0  # atno 17321 bound_to 7965
  139.6683  144.0066  152.2737 LP  0  0  0  0  0  0  0  0  0  0  0  0  # atno 17342 bound_to 10162
  139.9656  144.6528  150.8038 LP  0  0  0  0  0  0  0  0  0  0  0  0  # atno 17343 bound_to 10162
  155.9731  130.4663  150.6283 LP  0  0  0  0  0  0  0  0  0  0  0  0  # atno 17370 bound_to 10713
  157.3998  131.0808  151.1319 LP  0  0  0  0  0  0  0  0  0  0  0  0  # atno 17371 bound_to 10713
  140.2748  134.8363  157.3880 LP  0  0  0  0  0  0  0  0  0  0  0  0  # atno 17394 bound_to 11000
  140.1487  134.4877  155.7977 LP  0  0  0  0  0  0  0  0  0  0  0  0  # atno 17395 bound_to 11000

$$$$
