AV-unprocessed.smi:2000|AV-procd|sdf|8100|dock5
  -GOLD-   2272010323D 1   1.00000     0.00000
 Structure written by MMmdl.
 43 44  0  0  0  0  0  0  0  0  1 V2000
  155.8799  139.3211  160.5643 C   0  0  0  0  0  0  0  0  0  0  0  0
  155.2632  138.2286  159.6769 C   0  0  2  0  0  0  0  0  0  0  0  0
  154.0405  138.7520  158.9116 C   0  0  0  0  0  0  0  0  0  0  0  0
  153.9795  138.6457  157.6868 O   0  0  0  0  0  0  0  0  0  0  0  0
  153.0682  139.3117  159.6492 N   0  0  0  0  0  0  0  0  0  0  0  0
  151.8276  139.8667  159.1162 C   0  0  0  0  0  0  0  0  0  0  0  0
  151.8892  141.3699  158.8428 C   0  0  0  0  0  0  0  0  0  0  0  0
  152.4180  142.2381  159.8246 C   0  0  0  0  0  0  0  0  0  0  0  0
  152.4505  143.6224  159.5812 C   0  0  0  0  0  0  0  0  0  0  0  0
  151.9373  144.0948  158.3609 C   0  0  0  0  0  0  0  0  0  0  0  0
  151.4160  143.2844  157.4179 N   0  0  0  0  0  0  0  0  0  0  0  0
  151.3859  141.9480  157.6450 C   0  0  0  0  0  0  0  0  0  0  0  0
  150.8523  141.1383  156.6266 N   0  0  0  0  0  0  0  0  0  0  0  0
  151.8144  140.1765  156.1042 C   0  0  0  0  0  0  0  0  0  0  0  0
  151.1058  139.1817  155.1692 C   0  0  0  0  0  0  0  0  0  0  0  0
  150.4301  139.8931  154.1353 O   0  0  0  0  0  0  0  0  0  0  0  0
  149.4425  140.7815  154.6514 C   0  0  0  0  0  0  0  0  0  0  0  0
  150.1114  141.8188  155.5696 C   0  0  0  0  0  0  0  0  0  0  0  0
  154.7966  136.7651  160.7169 S   0  0  0  0  0  0  0  0  0  0  0  0
  153.7259  137.5015  162.0219 C   0  0  0  0  0  0  0  0  0  0  0  0
  153.9664  135.8731  159.8932 O   0  0  0  0  0  0  0  0  0  0  0  0
  156.0039  136.2289  161.3645 O   0  0  0  0  0  0  0  0  0  0  0  0
  156.1562  140.1986  159.9789 H   0  0  0  0  0  0  0  0  0  0  0  0
  156.7823  138.9574  161.0565 H   0  0  0  0  0  0  0  0  0  0  0  0
  155.1879  139.6423  161.3439 H   0  0  0  0  0  0  0  0  0  0  0  0
  156.0169  137.8868  158.9664 H   0  0  0  0  0  0  0  0  0  0  0  0
  153.1919  139.3530  160.6504 H   0  0  0  0  0  0  0  0  0  0  0  0
  151.5332  139.2978  158.2344 H   0  0  0  0  0  0  0  0  0  0  0  0
  151.0432  139.6965  159.8535 H   0  0  0  0  0  0  0  0  0  0  0  0
  152.7946  141.8523  160.7603 H   0  0  0  0  0  0  0  0  0  0  0  0
  152.8547  144.3050  160.3138 H   0  0  0  0  0  0  0  0  0  0  0  0
  151.9422  145.1512  158.1371 H   0  0  0  0  0  0  0  0  0  0  0  0
  152.5966  140.7088  155.5610 H   0  0  0  0  0  0  0  0  0  0  0  0
  152.3003  139.6415  156.9197 H   0  0  0  0  0  0  0  0  0  0  0  0
  151.8326  138.5051  154.7194 H   0  0  0  0  0  0  0  0  0  0  0  0
  150.3967  138.5653  155.7244 H   0  0  0  0  0  0  0  0  0  0  0  0
  148.9441  141.2806  153.8203 H   0  0  0  0  0  0  0  0  0  0  0  0
  148.6786  140.2189  155.1906 H   0  0  0  0  0  0  0  0  0  0  0  0
  149.3586  142.4747  156.0085 H   0  0  0  0  0  0  0  0  0  0  0  0
  150.7875  142.4433  154.9836 H   0  0  0  0  0  0  0  0  0  0  0  0
  153.2849  136.7026  162.6177 H   0  0  0  0  0  0  0  0  0  0  0  0
  152.9323  138.0883  161.5602 H   0  0  0  0  0  0  0  0  0  0  0  0
  154.3249  138.1371  162.6727 H   0  0  0  0  0  0  0  0  0  0  0  0
  1  2  1  0  0  0  0
  1 23  1  0  0  0  0
  1 24  1  0  0  0  0
  1 25  1  0  0  0  0
  2  3  1  0  0  0  0
  2 19  1  0  0  0  0
  2 26  1  0  0  0  0
  3  4  2  0  0  0  0
  3  5  1  0  0  0  0
  5  6  1  0  0  0  0
  5 27  1  0  0  0  0
  6  7  1  0  0  0  0
  6 28  1  0  0  0  0
  6 29  1  0  0  0  0
  7 12  1  0  0  0  0
  7  8  2  0  0  0  0
  8  9  1  0  0  0  0
  8 30  1  0  0  0  0
  9 10  2  0  0  0  0
  9 31  1  0  0  0  0
 10 11  1  0  0  0  0
 10 32  1  0  0  0  0
 11 12  2  0  0  0  0
 12 13  1  0  0  0  0
 13 18  1  0  0  0  0
 13 14  1  0  0  0  0
 14 15  1  0  0  0  0
 14 33  1  0  0  0  0
 14 34  1  0  0  0  0
 15 16  1  0  0  0  0
 15 35  1  0  0  0  0
 15 36  1  0  0  0  0
 16 17  1  0  0  0  0
 17 18  1  0  0  0  0
 17 37  1  0  0  0  0
 17 38  1  0  0  0  0
 18 39  1  0  0  0  0
 18 40  1  0  0  0  0
 19 20  1  0  0  0  0
 19 21  2  0  0  0  0
 19 22  2  0  0  0  0
 20 41  1  0  0  0  0
 20 42  1  0  0  0  0
 20 43  1  0  0  0  0
M  END
> <s_m_source_file>
AV-unprocessed.smi

> <i_m_source_file_index>
2000

> <i_lp_mmshare_version>
43012

> <i_f3d_flags>
0

> <s_epik_input>
W0NIM11TKD1PKSg9TylbQ0BIXShbQ0gzXSlDKD1PKVtOSF1bQ0gyXWMxW2NIXVtjSF1bY0hdbmMxTjJbQ0gyXVtDSDJdT1tDSDJdW0NIMl0y

> <s_epik_cmdline>
J2VwaWtfcHl0aG9uJywgJy1waCcsICc3LjAnLCAnLXRuJywgJzgnLCAnLW1hJywgJzIwMCcsICctbWV0YWxfYmluZGluZycsICctaW1hZScsICc8aW5maWxlLm1hZT4nLCAnLW9tYWUnLCAnPG91dGZpbGUubWFlPic=

> <r_lp_tautomer_probability>
1

> <r_epik_Ionization_Penalty>
0.00349769

> <r_epik_Ionization_Penalty_Charging>
0

> <r_epik_Ionization_Penalty_Neutral>
0.00349769

> <r_epik_State_Penalty>
0.00248024

> <r_epik_Charging_Adjusted_Penalty>
0.00248024

> <i_epik_Tot_Q>
0

> <i_epik_Tot_abs_Q>
0

> <r_epik_Metal_State_Penalty>
-0

> <b_epik_Metal_Only>
0

> <s_lp_Force_Field>
OPLS_2005

> <r_lp_Energy>
16.3383

> <b_lp_Chiralities_Consistent>
1

> <s_lp_Variant>
AV-unprocessed.smi:2000-1

> <Gold.Version>
5.8.1

> <Gold.Id.Protein>
6NUR|6NUR_protein|mol2

> <Gold.PLP.Fitness>
46.1774

> <Gold.PLP.PLP>
-38.4559

> <Gold.PLP.part.hbond>
-3.0000

> <Gold.PLP.part.metal>
0.0000

> <Gold.PLP.part.buried>
-3.9055

> <Gold.PLP.part.nonpolar>
-31.4386

> <Gold.PLP.part.repulsive>
0.7049

> <Gold.PLP.ligand.clash>
0.0000

> <Gold.PLP.ligand.torsion>
0.8117

> <Gold.PLP.Chemscore.Hbond>
3.0000

> <Gold.PLP.Chemscore.CHOScore>
0.0000

> <Gold.PLP.Chemscore.Metal>
0.0000

> <Gold.Chemscore.Hbonds>
donor molecule, donor type, donor heavy atom, donor atom, acceptor molecule, acceptor atom, score
      P1  H  6896  6907       L1    21  1.00
      P1  H  7989  7998       L1    16  1.00
      P1  H  7997  8009       L1     4  1.00

> <Gold.PLP.Chemscore.Internal.Correction>
0.3449

> <Gold.Rescore>
     Score         DG    S(hbond)    S(metal)    S(lipo)     H(rot)  DE(clash)    DE(int)     intcor
     17.03     -19.25       2.48        0.00      92.31       2.08       0.00       2.22       ----

> <Gold.Chemscore.Fitness>
17.0256

> <Gold.Chemscore.DG>
-19.2485

> <Gold.Chemscore.ZeroCoef>
-5.4800

> <Gold.Chemscore.Hbond>
2.4801

> <Gold.Chemscore.Metal>
0.0000

> <Gold.Chemscore.Lipo>
92.3122

> <Gold.Chemscore.Internal_Hbond>
0.0000

> <Gold.Chemscore.DEClash>
0.0015

> <Gold.Chemscore.DEInternal>
2.2214

> <Gold.Chemscore.Rot>
2.0764

> <Gold.Chemscore.Internal.Correction>
   9.000000E+99

> <Gold.Chemscore.Hbonds>
donor molecule, donor type, donor heavy atom, donor atom, acceptor molecule, acceptor atom, score
      P1  H  6896  6907       L1    21  0.92
      P1  H  7989  7998       L1    16  0.24
      P1  H  7997  8009       L1     4  0.70

> <Gold.Chemscore.Hbond.Weighted>
-8.2835

> <Gold.Chemscore.Metal.Weighted>
-0.0000

> <Gold.Chemscore.Lipo.Weighted>
-10.8005

> <Gold.Chemscore.Internal_Hbond.Weighted>
0.0000

> <Gold.Chemscore.DEClash.Weighted>
0.0015

> <Gold.Chemscore.DEInternal.Weighted>
2.2214

> <Gold.Chemscore.Rot.Weighted>
5.3155

> <Gold.Chemscore.Internal.Correction.Weighted>
   9.000000E+99

> <Gold.Protein.RotatedTorsions>
[ 6907 6896 6895 6894 ] final   36.74 input  -60.11 | X-H torsion
[ 7974 7965 7964 7962 ] final  -24.87 input  175.53 | X-H torsion
[ 8008 7997 7996 7995 ] final  157.38 input   59.86 | X-H torsion
[ 10167 10162 10161 10158 ] final  101.82 input  -65.29 | X-H torsion
[ 10718 10713 10712 10709 ] final  154.07 input   66.30 | X-H torsion
[ 10763 10752 10751 10750 ] final  140.65 input  -60.55 | X-H torsion
[ 11005 11000 10999 10996 ] final  -11.79 input  -57.11 | X-H torsion

> <Gold.Protein.ActiveResidues>
 VAL166  LYS551  ARG553  GLY616  TRP617  ASP618  TYR619  PRO620  LYS621  CYS622 
 ASP623  PHE694  ASN695  SER759  ASP760  ASP761  ALA762  ILE779  LEU786  VAL792 
 PHE793  MET794  SER795  GLU796  ALA797  LYS798  CYS799  TRP800  GLU811  SER814 

> <Gold.Protein.RotatedAtoms>
  152.1338  134.9115  160.0557 H   0  0  0  0  0  0  0  0  0  0  0  0  # atno 6907 bound_to 6896
  152.0209  133.3893  159.4266 H   0  0  0  0  0  0  0  0  0  0  0  0  # atno 6908 bound_to 6896
  150.6858  134.3549  159.4969 H   0  0  0  0  0  0  0  0  0  0  0  0  # atno 6909 bound_to 6896
  146.1527  140.4811  142.8604 H   0  0  0  0  0  0  0  0  0  0  0  0  # atno 7974 bound_to 7965
  156.2367  140.1887  156.7099 H   0  0  0  0  0  0  0  0  0  0  0  0  # atno 8008 bound_to 7997
  154.6120  140.0620  156.9533 H   0  0  0  0  0  0  0  0  0  0  0  0  # atno 8009 bound_to 7997
  155.2000  140.3291  155.4347 H   0  0  0  0  0  0  0  0  0  0  0  0  # atno 8010 bound_to 7997
  139.7404  144.7012  151.0584 H   0  0  0  0  0  0  0  0  0  0  0  0  # atno 10167 bound_to 10162
  157.2364  131.0750  151.1820 H   0  0  0  0  0  0  0  0  0  0  0  0  # atno 10718 bound_to 10713
  153.9261  135.2995  155.3447 H   0  0  0  0  0  0  0  0  0  0  0  0  # atno 10763 bound_to 10752
  154.7550  135.4962  153.9362 H   0  0  0  0  0  0  0  0  0  0  0  0  # atno 10764 bound_to 10752
  153.1116  135.6760  153.9595 H   0  0  0  0  0  0  0  0  0  0  0  0  # atno 10765 bound_to 10752
  140.7589  133.8531  155.9108 H   0  0  0  0  0  0  0  0  0  0  0  0  # atno 11005 bound_to 11000
  144.7924  140.6057  143.6533 LP  0  0  0  0  0  0  0  0  0  0  0  0  # atno 17320 bound_to 7965
  145.4784  139.1497  143.3775 LP  0  0  0  0  0  0  0  0  0  0  0  0  # atno 17321 bound_to 7965
  140.7785  143.4931  150.9867 LP  0  0  0  0  0  0  0  0  0  0  0  0  # atno 17342 bound_to 10162
  139.8619  143.7303  152.3173 LP  0  0  0  0  0  0  0  0  0  0  0  0  # atno 17343 bound_to 10162
  157.3424  130.7040  149.6390 LP  0  0  0  0  0  0  0  0  0  0  0  0  # atno 17370 bound_to 10713
  155.9672  130.4276  150.4750 LP  0  0  0  0  0  0  0  0  0  0  0  0  # atno 17371 bound_to 10713
  140.9681  134.1567  157.4599 LP  0  0  0  0  0  0  0  0  0  0  0  0  # atno 17394 bound_to 11000
  139.8774  134.9969  156.5818 LP  0  0  0  0  0  0  0  0  0  0  0  0  # atno 17395 bound_to 11000

$$$$
