AV-unprocessed.smi:3150|AV-procd|sdf|12008|dock9
  -GOLD-   2272017413D 1   1.00000     0.00000
 Structure written by MMmdl.
 33 34  0  0  0  0  0  0  0  0  1 V2000
  151.8421  138.6174  154.6924 C   0  0  0  0  0  0  0  0  0  0  0  0
  151.0487  139.8255  155.2126 C   0  0  1  0  0  0  0  0  0  0  0  0
  149.7230  139.3831  155.4917 O   0  0  0  0  0  0  0  0  0  0  0  0
  148.7652  140.4163  155.6874 C   0  0  0  0  0  0  0  0  0  0  0  0
  148.5157  141.1062  154.3638 C   0  0  0  0  0  0  0  0  0  0  0  0
  147.3217  142.0179  154.1929 C   0  0  0  0  0  0  0  0  0  0  0  0
  147.3603  140.6891  153.4823 C   0  0  0  0  0  0  0  0  0  0  0  0
  151.6916  140.4181  156.4772 C   0  0  0  0  0  0  0  0  0  0  0  0
  152.5179  139.7586  157.1086 O   0  0  0  0  0  0  0  0  0  0  0  0
  151.2745  141.6515  156.8182 N   0  0  0  0  0  0  0  0  0  0  0  0
  151.6710  142.4477  157.9279 C   0  0  0  0  0  0  0  0  0  0  0  0
  152.0468  141.9212  159.1207 N   0  0  0  0  0  0  0  0  0  0  0  0
  152.4107  142.7464  160.1241 C   0  0  0  0  0  0  0  0  0  0  0  0
  152.4230  144.1472  160.0018 C   0  0  0  0  0  0  0  0  0  0  0  0
  152.0355  144.7076  158.7723 C   0  0  0  0  0  0  0  0  0  0  0  0
  151.6542  143.8507  157.7202 C   0  0  0  0  0  0  0  0  0  0  0  0
  151.2751  144.3899  156.5220 O   0  0  0  0  0  0  0  0  0  0  0  0
  152.8771  138.8859  154.4783 H   0  0  0  0  0  0  0  0  0  0  0  0
  151.4040  138.2366  153.7696 H   0  0  0  0  0  0  0  0  0  0  0  0
  151.8492  137.7996  155.4139 H   0  0  0  0  0  0  0  0  0  0  0  0
  151.0198  140.5787  154.4226 H   0  0  0  0  0  0  0  0  0  0  0  0
  147.8236  140.0258  156.0758 H   0  0  0  0  0  0  0  0  0  0  0  0
  149.1427  141.1499  156.4006 H   0  0  0  0  0  0  0  0  0  0  0  0
  149.4243  141.4180  153.8518 H   0  0  0  0  0  0  0  0  0  0  0  0
  146.6337  142.1176  155.0302 H   0  0  0  0  0  0  0  0  0  0  0  0
  147.4558  142.9140  153.5904 H   0  0  0  0  0  0  0  0  0  0  0  0
  147.5222  140.6982  152.4065 H   0  0  0  0  0  0  0  0  0  0  0  0
  146.7016  139.9035  153.8477 H   0  0  0  0  0  0  0  0  0  0  0  0
  150.5849  142.0733  156.2131 H   0  0  0  0  0  0  0  0  0  0  0  0
  152.7014  142.2752  161.0513 H   0  0  0  0  0  0  0  0  0  0  0  0
  152.7216  144.7738  160.8289 H   0  0  0  0  0  0  0  0  0  0  0  0
  152.0318  145.7795  158.6395 H   0  0  0  0  0  0  0  0  0  0  0  0
  150.3602  144.6254  156.4947 H   0  0  0  0  0  0  0  0  0  0  0  0
  1  2  1  0  0  0  0
  1 18  1  0  0  0  0
  1 19  1  0  0  0  0
  1 20  1  0  0  0  0
  2  3  1  0  0  0  0
  2  8  1  0  0  0  0
  2 21  1  0  0  0  0
  3  4  1  0  0  0  0
  4  5  1  0  0  0  0
  4 22  1  0  0  0  0
  4 23  1  0  0  0  0
  5  7  1  0  0  0  0
  5  6  1  0  0  0  0
  5 24  1  0  0  0  0
  6  7  1  0  0  0  0
  6 25  1  0  0  0  0
  6 26  1  0  0  0  0
  7 27  1  0  0  0  0
  7 28  1  0  0  0  0
  8  9  2  0  0  0  0
  8 10  1  0  0  0  0
 10 11  1  0  0  0  0
 10 29  1  0  0  0  0
 11 16  1  0  0  0  0
 11 12  2  0  0  0  0
 12 13  1  0  0  0  0
 13 14  2  0  0  0  0
 13 30  1  0  0  0  0
 14 15  1  0  0  0  0
 14 31  1  0  0  0  0
 15 16  2  0  0  0  0
 15 32  1  0  0  0  0
 16 17  1  0  0  0  0
 17 33  1  0  0  0  0
M  END
> <s_m_source_file>
AV-unprocessed.smi

> <i_m_source_file_index>
3150

> <i_lp_mmshare_version>
43012

> <i_f3d_flags>
0

> <s_epik_input>
W0NIMl0xW0NIMl1bQ0hdMVtDSDJdT1tDQEBIXShbQ0gzXSlDKD1PKVtOSF1jMm5bY0hdW2NIXVtjSF1jMltPSF0=

> <s_epik_cmdline>
J2VwaWtfcHl0aG9uJywgJy1waCcsICc3LjAnLCAnLXRuJywgJzgnLCAnLW1hJywgJzIwMCcsICctbWV0YWxfYmluZGluZycsICctaW1hZScsICc8aW5maWxlLm1hZT4nLCAnLW9tYWUnLCAnPG91dGZpbGUubWFlPic=

> <r_lp_tautomer_probability>
0.43658

> <r_epik_Ionization_Penalty>
0.0204299

> <r_epik_Ionization_Penalty_Charging>
0

> <r_epik_Ionization_Penalty_Neutral>
0.0204299

> <r_epik_State_Penalty>
0.419322

> <r_epik_Charging_Adjusted_Penalty>
0.419322

> <i_epik_Tot_Q>
0

> <i_epik_Tot_abs_Q>
0

> <r_epik_Metal_State_Penalty>
0.377394

> <b_epik_Metal_Only>
0

> <s_lp_Force_Field>
OPLS_2005

> <r_lp_Energy>
16.197

> <b_lp_Chiralities_Consistent>
1

> <s_lp_Variant>
AV-unprocessed.smi:3150-2

> <Gold.Version>
5.8.1

> <Gold.Id.Protein>
6NUR|6NUR_protein|mol2

> <Gold.PLP.Fitness>
43.6990

> <Gold.PLP.PLP>
-39.1803

> <Gold.PLP.part.hbond>
-2.0000

> <Gold.PLP.part.metal>
0.0000

> <Gold.PLP.part.buried>
-2.7553

> <Gold.PLP.part.nonpolar>
-34.0892

> <Gold.PLP.part.repulsive>
0.1320

> <Gold.PLP.ligand.clash>
0.0000

> <Gold.PLP.ligand.torsion>
1.0196

> <Gold.PLP.Chemscore.Hbond>
2.0000

> <Gold.PLP.Chemscore.CHOScore>
0.0000

> <Gold.PLP.Chemscore.Metal>
0.0000

> <Gold.Chemscore.Hbonds>
donor molecule, donor type, donor heavy atom, donor atom, acceptor molecule, acceptor atom, score
      L1  H    17    33       P1  8028  1.00
      P1  H  7997  8009       L1     9  1.00

> <Gold.PLP.Chemscore.Internal.Correction>
0.5579

> <Gold.Rescore>
     Score         DG    S(hbond)    S(metal)    S(lipo)     H(rot)  DE(clash)    DE(int)     intcor
     14.92     -17.02       1.95        0.00      91.45       2.22       0.01       2.10       ----

> <Gold.Chemscore.Fitness>
14.9190

> <Gold.Chemscore.DG>
-17.0236

> <Gold.Chemscore.ZeroCoef>
-5.4800

> <Gold.Chemscore.Hbond>
1.9537

> <Gold.Chemscore.Metal>
0.0000

> <Gold.Chemscore.Lipo>
91.4496

> <Gold.Chemscore.Internal_Hbond>
0.0000

> <Gold.Chemscore.DEClash>
0.0050

> <Gold.Chemscore.DEInternal>
2.0996

> <Gold.Chemscore.Rot>
2.2192

> <Gold.Chemscore.Internal.Correction>
   9.000000E+99

> <Gold.Chemscore.Hbonds>
donor molecule, donor type, donor heavy atom, donor atom, acceptor molecule, acceptor atom, score
      L1  H    17    33       P1  8028  0.91
      P1  H  7997  8009       L1     9  0.72

> <Gold.Chemscore.Hbond.Weighted>
-6.5253

> <Gold.Chemscore.Metal.Weighted>
-0.0000

> <Gold.Chemscore.Lipo.Weighted>
-10.6996

> <Gold.Chemscore.Internal_Hbond.Weighted>
0.0000

> <Gold.Chemscore.DEClash.Weighted>
0.0050

> <Gold.Chemscore.DEInternal.Weighted>
2.0996

> <Gold.Chemscore.Rot.Weighted>
5.6812

> <Gold.Chemscore.Internal.Correction.Weighted>
   9.000000E+99

> <Gold.Protein.RotatedTorsions>
[ 6907 6896 6895 6894 ] final -132.77 input  -60.11 | X-H torsion
[ 7974 7965 7964 7962 ] final -118.62 input  175.53 | X-H torsion
[ 8008 7997 7996 7995 ] final -166.05 input   59.86 | X-H torsion
[ 10167 10162 10161 10158 ] final   53.42 input  -65.29 | X-H torsion
[ 10718 10713 10712 10709 ] final  154.05 input   66.30 | X-H torsion
[ 10763 10752 10751 10750 ] final -158.01 input  -60.55 | X-H torsion
[ 11005 11000 10999 10996 ] final -148.17 input  -57.11 | X-H torsion

> <Gold.Protein.ActiveResidues>
 VAL166  LYS551  ARG553  GLY616  TRP617  ASP618  TYR619  PRO620  LYS621  CYS622 
 ASP623  PHE694  ASN695  SER759  ASP760  ASP761  ALA762  ILE779  LEU786  VAL792 
 PHE793  MET794  SER795  GLU796  ALA797  LYS798  CYS799  TRP800  GLU811  SER814 

> <Gold.Protein.RotatedAtoms>
  150.9663  133.6391  159.2745 H   0  0  0  0  0  0  0  0  0  0  0  0  # atno 6907 bound_to 6896
  151.3696  135.0919  159.9471 H   0  0  0  0  0  0  0  0  0  0  0  0  # atno 6908 bound_to 6896
  152.5166  133.9220  159.7593 H   0  0  0  0  0  0  0  0  0  0  0  0  # atno 6909 bound_to 6896
  145.0717  140.8364  143.4091 H   0  0  0  0  0  0  0  0  0  0  0  0  # atno 7974 bound_to 7965
  155.8584  140.0974  157.1629 H   0  0  0  0  0  0  0  0  0  0  0  0  # atno 8008 bound_to 7997
  154.3989  140.1370  156.3992 H   0  0  0  0  0  0  0  0  0  0  0  0  # atno 8009 bound_to 7997
  155.7884  140.3456  155.5338 H   0  0  0  0  0  0  0  0  0  0  0  0  # atno 8010 bound_to 7997
  140.2410  144.3584  150.6380 H   0  0  0  0  0  0  0  0  0  0  0  0  # atno 10167 bound_to 10162
  157.2368  131.0750  151.1818 H   0  0  0  0  0  0  0  0  0  0  0  0  # atno 10718 bound_to 10713
  154.7591  135.3113  154.8413 H   0  0  0  0  0  0  0  0  0  0  0  0  # atno 10763 bound_to 10752
  153.9178  135.6799  153.4753 H   0  0  0  0  0  0  0  0  0  0  0  0  # atno 10764 bound_to 10752
  153.1190  135.4831  154.9095 H   0  0  0  0  0  0  0  0  0  0  0  0  # atno 10765 bound_to 10752
  140.7640  134.3265  157.5094 H   0  0  0  0  0  0  0  0  0  0  0  0  # atno 11005 bound_to 11000
  145.1284  139.2648  143.5552 LP  0  0  0  0  0  0  0  0  0  0  0  0  # atno 17320 bound_to 7965
  146.3529  140.0928  142.8612 LP  0  0  0  0  0  0  0  0  0  0  0  0  # atno 17321 bound_to 7965
  140.6113  143.2170  151.6879 LP  0  0  0  0  0  0  0  0  0  0  0  0  # atno 17342 bound_to 10162
  139.5077  144.3636  152.0538 LP  0  0  0  0  0  0  0  0  0  0  0  0  # atno 17343 bound_to 10162
  157.3421  130.7038  149.6388 LP  0  0  0  0  0  0  0  0  0  0  0  0  # atno 17370 bound_to 10713
  155.9672  130.4277  150.4755 LP  0  0  0  0  0  0  0  0  0  0  0  0  # atno 17371 bound_to 10713
  139.8766  134.9220  156.3289 LP  0  0  0  0  0  0  0  0  0  0  0  0  # atno 17394 bound_to 11000
  140.9636  133.7372  156.0436 LP  0  0  0  0  0  0  0  0  0  0  0  0  # atno 17395 bound_to 11000

$$$$
