AV-unprocessed.smi:2588|AV-procd|sdf|10148|dock7
  -GOLD-   2272014163D 1   1.00000     0.00000
 Structure written by MMmdl.
 40 41  0  0  0  0  0  0  0  0  2 V2000
  146.1766  128.2682  153.2396 C   0  0  0  0  0  0  0  0  0  0  0  0
  146.7773  128.9031  151.9674 C   0  0  0  0  0  0  0  0  0  0  0  0
  147.7223  127.8737  151.3112 C   0  0  0  0  0  0  0  0  0  0  0  0
  147.4502  130.2145  152.2489 N   0  3  2  0  0  0  0  0  0  0  0  0
  148.3058  130.1822  153.4721 C   0  0  0  0  0  0  0  0  0  0  0  0
  149.0644  131.5025  153.6868 C   0  0  0  0  0  0  0  0  0  0  0  0
  148.0989  132.6899  153.7684 C   0  0  1  0  0  0  0  0  0  0  0  0
  148.8474  133.9343  153.9164 N   0  0  0  0  0  0  0  0  0  0  0  0
  149.7069  134.2040  154.9112 C   0  0  0  0  0  0  0  0  0  0  0  0
  149.9379  133.4185  155.8315 O   0  0  0  0  0  0  0  0  0  0  0  0
  150.3850  135.5800  154.8592 C   0  0  0  0  0  0  0  0  0  0  0  0
  150.4758  136.2309  156.1673 N   0  0  0  0  0  0  0  0  0  0  0  0
  149.3255  136.6568  156.7550 N   0  0  0  0  0  0  0  0  0  0  0  0
  149.5536  137.2033  157.8916 C   0  0  0  0  0  0  0  0  0  0  0  0
  151.2463  137.2710  158.3992 S   0  0  0  0  0  0  0  0  0  0  0  0
  151.6590  136.4556  156.8657 C   0  0  0  0  0  0  0  0  0  0  0  0
  152.8084  136.1672  156.5373 O   0  0  0  0  0  0  0  0  0  0  0  0
  147.2369  132.7099  152.4980 C   0  0  0  0  0  0  0  0  0  0  0  0
  146.5075  131.3715  152.2959 C   0  0  0  0  0  0  0  0  0  0  0  0
  145.8049  127.2629  153.0382 H   0  0  0  0  0  0  0  0  0  0  0  0
  145.3244  128.8274  153.6231 H   0  0  0  0  0  0  0  0  0  0  0  0
  146.9201  128.1885  154.0335 H   0  0  0  0  0  0  0  0  0  0  0  0
  145.9592  129.0891  151.2695 H   0  0  0  0  0  0  0  0  0  0  0  0
  147.2472  126.8948  151.2382 H   0  0  0  0  0  0  0  0  0  0  0  0
  148.6397  127.7493  151.8875 H   0  0  0  0  0  0  0  0  0  0  0  0
  147.9911  128.1500  150.2920 H   0  0  0  0  0  0  0  0  0  0  0  0
  147.6874  129.9599  154.3434 H   0  0  0  0  0  0  0  0  0  0  0  0
  149.0535  129.3945  153.4048 H   0  0  0  0  0  0  0  0  0  0  0  0
  149.6564  131.4396  154.6008 H   0  0  0  0  0  0  0  0  0  0  0  0
  149.7722  131.6512  152.8695 H   0  0  0  0  0  0  0  0  0  0  0  0
  147.4554  132.5542  154.6403 H   0  0  0  0  0  0  0  0  0  0  0  0
  148.7123  134.6381  153.2049 H   0  0  0  0  0  0  0  0  0  0  0  0
  151.3904  135.4738  154.4482 H   0  0  0  0  0  0  0  0  0  0  0  0
  149.8330  136.2122  154.1619 H   0  0  0  0  0  0  0  0  0  0  0  0
  148.8069  137.6247  158.5644 H   0  0  0  0  0  0  0  0  0  0  0  0
  146.5047  133.5166  152.5519 H   0  0  0  0  0  0  0  0  0  0  0  0
  147.8615  132.9187  151.6279 H   0  0  0  0  0  0  0  0  0  0  0  0
  145.9490  131.4576  151.3657 H   0  0  0  0  0  0  0  0  0  0  0  0
  145.7795  131.2161  153.0938 H   0  0  0  0  0  0  0  0  0  0  0  0
  148.0701  130.3875  151.4704 H   0  0  0  0  0  0  0  0  0  0  0  0
  1  2  1  0  0  0  0
  1 20  1  0  0  0  0
  1 21  1  0  0  0  0
  1 22  1  0  0  0  0
  2  3  1  0  0  0  0
  2  4  1  0  0  0  0
  2 23  1  0  0  0  0
  3 24  1  0  0  0  0
  3 25  1  0  0  0  0
  3 26  1  0  0  0  0
  4 19  1  0  0  0  0
  4  5  1  0  0  0  0
  4 40  1  0  0  0  0
  5  6  1  0  0  0  0
  5 27  1  0  0  0  0
  5 28  1  0  0  0  0
  6  7  1  0  0  0  0
  6 29  1  0  0  0  0
  6 30  1  0  0  0  0
  7  8  1  0  0  0  0
  7 18  1  0  0  0  0
  7 31  1  0  0  0  0
  8  9  1  0  0  0  0
  8 32  1  0  0  0  0
  9 10  2  0  0  0  0
  9 11  1  0  0  0  0
 11 12  1  0  0  0  0
 11 33  1  0  0  0  0
 11 34  1  0  0  0  0
 12 16  1  0  0  0  0
 12 13  1  0  0  0  0
 13 14  2  0  0  0  0
 14 15  1  0  0  0  0
 14 35  1  0  0  0  0
 15 16  1  0  0  0  0
 16 17  2  0  0  0  0
 18 19  1  0  0  0  0
 18 36  1  0  0  0  0
 18 37  1  0  0  0  0
 19 38  1  0  0  0  0
 19 39  1  0  0  0  0
M  CHG  1   4   1
M  END
> <s_m_source_file>
AV-unprocessed.smi

> <i_m_source_file_index>
2588

> <i_lp_mmshare_version>
43012

> <i_f3d_flags>
0

> <s_epik_input>
W0NIM11bQ0hdKFtDSDNdKU4xW0NIMl1bQ0gyXVtDSF0oW0NIMl1bQ0gyXTEpW05IXUMoPU8pW0NIMl1uMm5bY0hdc2MyPU8=

> <s_epik_cmdline>
J2VwaWtfcHl0aG9uJywgJy1waCcsICc3LjAnLCAnLXRuJywgJzgnLCAnLW1hJywgJzIwMCcsICctbWV0YWxfYmluZGluZycsICctaW1hZScsICc8aW5maWxlLm1hZT4nLCAnLW9tYWUnLCAnPG91dGZpbGUubWFlPic=

> <r_lp_tautomer_probability>
1

> <r_epik_Ionization_Penalty>
0.00923155

> <r_epik_Ionization_Penalty_Charging>
0.00923117

> <r_epik_Ionization_Penalty_Neutral>
3.88423e-07

> <r_epik_State_Penalty>
0.0069994

> <r_epik_Charging_Adjusted_Penalty>
0.0162306

> <i_epik_Tot_Q>
1

> <i_epik_Tot_abs_Q>
1

> <r_epik_Metal_State_Penalty>
0.0069994

> <b_epik_Metal_Only>
0

> <s_lp_Force_Field>
OPLS_2005

> <r_lp_Energy>
22.17

> <b_lp_Chiralities_Consistent>
1

> <s_lp_Variant>
AV-unprocessed.smi:2588-1

> <Gold.Version>
5.8.1

> <Gold.Id.Protein>
6NUR|6NUR_protein|mol2

> <Gold.PLP.Fitness>
39.4384

> <Gold.PLP.PLP>
-31.8645

> <Gold.PLP.part.hbond>
-3.0000

> <Gold.PLP.part.metal>
0.0000

> <Gold.PLP.part.buried>
-4.3433

> <Gold.PLP.part.nonpolar>
-25.2513

> <Gold.PLP.part.repulsive>
0.0273

> <Gold.PLP.ligand.clash>
0.0000

> <Gold.PLP.ligand.torsion>
0.7384

> <Gold.PLP.Chemscore.Hbond>
3.0000

> <Gold.PLP.Chemscore.CHOScore>
0.0000

> <Gold.PLP.Chemscore.Metal>
0.0000

> <Gold.Chemscore.Hbonds>
donor molecule, donor type, donor heavy atom, donor atom, acceptor molecule, acceptor atom, score
      L1  H     4    40       P1 10747  1.00
      L1  H     8    32       P1  7948  0.94
      P1  H 10752 10763       L1    17  1.00

> <Gold.PLP.Chemscore.Internal.Correction>
0.0506

> <Gold.Rescore>
     Score         DG    S(hbond)    S(metal)    S(lipo)     H(rot)  DE(clash)    DE(int)     intcor
     16.18     -18.07       2.79        0.00      69.01       1.88       0.00       1.88       ----

> <Gold.Chemscore.Fitness>
16.1846

> <Gold.Chemscore.DG>
-18.0673

> <Gold.Chemscore.ZeroCoef>
-5.4800

> <Gold.Chemscore.Hbond>
2.7888

> <Gold.Chemscore.Metal>
0.0000

> <Gold.Chemscore.Lipo>
69.0097

> <Gold.Chemscore.Internal_Hbond>
0.0000

> <Gold.Chemscore.DEClash>
0.0019

> <Gold.Chemscore.DEInternal>
1.8808

> <Gold.Chemscore.Rot>
1.8756

> <Gold.Chemscore.Internal.Correction>
   9.000000E+99

> <Gold.Chemscore.Hbonds>
donor molecule, donor type, donor heavy atom, donor atom, acceptor molecule, acceptor atom, score
      L1  H     4    40       P1 10747  0.95
      L1  H     8    32       P1  7948  0.23
      P1  H 10752 10763       L1    17  0.98

> <Gold.Chemscore.Hbond.Weighted>
-9.3147

> <Gold.Chemscore.Metal.Weighted>
-0.0000

> <Gold.Chemscore.Lipo.Weighted>
-8.0741

> <Gold.Chemscore.Internal_Hbond.Weighted>
0.0000

> <Gold.Chemscore.DEClash.Weighted>
0.0019

> <Gold.Chemscore.DEInternal.Weighted>
1.8808

> <Gold.Chemscore.Rot.Weighted>
4.8015

> <Gold.Chemscore.Internal.Correction.Weighted>
   9.000000E+99

> <Gold.Protein.RotatedTorsions>
[ 6907 6896 6895 6894 ] final  130.61 input  -60.11 | X-H torsion
[ 7974 7965 7964 7962 ] final -113.74 input  175.53 | X-H torsion
[ 8008 7997 7996 7995 ] final   -0.55 input   59.86 | X-H torsion
[ 10167 10162 10161 10158 ] final  160.17 input  -65.29 | X-H torsion
[ 10718 10713 10712 10709 ] final -136.30 input   66.30 | X-H torsion
[ 10763 10752 10751 10750 ] final  120.62 input  -60.55 | X-H torsion
[ 11005 11000 10999 10996 ] final  133.27 input  -57.11 | X-H torsion

> <Gold.Protein.ActiveResidues>
 VAL166  LYS551  ARG553  GLY616  TRP617  ASP618  TYR619  PRO620  LYS621  CYS622 
 ASP623  PHE694  ASN695  SER759  ASP760  ASP761  ALA762  ILE779  LEU786  VAL792 
 PHE793  MET794  SER795  GLU796  ALA797  LYS798  CYS799  TRP800  GLU811  SER814 

> <Gold.Protein.RotatedAtoms>
  152.3509  133.6179  159.5944 H   0  0  0  0  0  0  0  0  0  0  0  0  # atno 6907 bound_to 6896
  150.7537  133.9575  159.3514 H   0  0  0  0  0  0  0  0  0  0  0  0  # atno 6908 bound_to 6896
  151.7427  135.0851  160.0369 H   0  0  0  0  0  0  0  0  0  0  0  0  # atno 6909 bound_to 6896
  145.1285  140.8710  143.3772 H   0  0  0  0  0  0  0  0  0  0  0  0  # atno 7974 bound_to 7965
  154.6568  140.2581  155.7152 H   0  0  0  0  0  0  0  0  0  0  0  0  # atno 8008 bound_to 7997
  156.2600  140.2857  156.0945 H   0  0  0  0  0  0  0  0  0  0  0  0  # atno 8009 bound_to 7997
  155.1368  140.0379  157.2779 H   0  0  0  0  0  0  0  0  0  0  0  0  # atno 8010 bound_to 7997
  139.4838  144.4659  151.8642 H   0  0  0  0  0  0  0  0  0  0  0  0  # atno 10167 bound_to 10162
  156.2755  130.7290  151.1271 H   0  0  0  0  0  0  0  0  0  0  0  0  # atno 10718 bound_to 10713
  153.6013  135.3447  155.2946 H   0  0  0  0  0  0  0  0  0  0  0  0  # atno 10763 bound_to 10752
  154.8635  135.4228  154.2410 H   0  0  0  0  0  0  0  0  0  0  0  0  # atno 10764 bound_to 10752
  153.3239  135.7040  153.7078 H   0  0  0  0  0  0  0  0  0  0  0  0  # atno 10765 bound_to 10752
  139.9841  134.9538  156.9701 H   0  0  0  0  0  0  0  0  0  0  0  0  # atno 11005 bound_to 11000
  145.0662  139.3067  143.5855 LP  0  0  0  0  0  0  0  0  0  0  0  0  # atno 17320 bound_to 7965
  146.3516  140.0121  142.8666 LP  0  0  0  0  0  0  0  0  0  0  0  0  # atno 17321 bound_to 7965
  140.4125  144.2350  150.5888 LP  0  0  0  0  0  0  0  0  0  0  0  0  # atno 17342 bound_to 10162
  140.4953  143.2334  151.8759 LP  0  0  0  0  0  0  0  0  0  0  0  0  # atno 17343 bound_to 10162
  157.7298  131.0621  150.5758 LP  0  0  0  0  0  0  0  0  0  0  0  0  # atno 17370 bound_to 10713
  156.5858  130.4316  149.5957 LP  0  0  0  0  0  0  0  0  0  0  0  0  # atno 17371 bound_to 10713
  140.5037  134.1072  155.7255 LP  0  0  0  0  0  0  0  0  0  0  0  0  # atno 17394 bound_to 11000
  141.1509  133.8970  157.2100 LP  0  0  0  0  0  0  0  0  0  0  0  0  # atno 17395 bound_to 11000

$$$$
