AV-unprocessed.smi:246|AV-procd|sdf|1883|dock6
  -GOLD-   2262020533D 1   1.00000     0.00000
 Structure written by MMmdl.
 57 60  0  0  0  0  0  0  0  0  1 V2000
  145.6916  132.3130  150.4535 C   0  0  0  0  0  0  0  0  0  0  0  0
  145.0682  131.8771  151.7870 C   0  0  0  0  0  0  0  0  0  0  0  0
  145.8798  132.2389  152.8957 O   0  0  0  0  0  0  0  0  0  0  0  0
  147.0229  131.4161  153.0789 C   0  0  0  0  0  0  0  0  0  0  0  0
  147.8275  131.9487  154.2677 C   0  0  0  0  0  0  0  0  0  0  0  0
  148.4509  133.1682  153.8942 O   0  0  0  0  0  0  0  0  0  0  0  0
  149.5747  133.4996  154.6961 C   0  0  2  0  0  0  0  0  0  0  0  0
  149.2103  133.4760  156.1815 C   0  0  0  0  0  0  0  0  0  0  0  0
  150.2400  134.4101  156.8233 C   0  0  0  0  0  0  0  0  0  0  0  0
  150.6237  135.3333  155.7643 N   0  0  0  0  0  0  0  0  0  0  0  0
  151.2241  136.5280  155.9979 C   0  0  0  0  0  0  0  0  0  0  0  0
  151.9360  137.0949  154.9884 N   0  0  0  0  0  0  0  0  0  0  0  0
  152.5383  138.2745  155.1606 C   0  0  0  0  0  0  0  0  0  0  0  0
  152.5575  139.0494  156.2450 N   0  0  0  0  0  0  0  0  0  0  0  0
  151.8501  138.4881  157.2665 C   0  0  0  0  0  0  0  0  0  0  0  0
  151.1572  137.2432  157.2310 C   0  0  0  0  0  0  0  0  0  0  0  0
  150.5562  137.0125  158.4644 N   0  0  0  0  0  0  0  0  0  0  0  0
  150.8764  138.0531  159.1829 C   0  0  0  0  0  0  0  0  0  0  0  0
  151.6554  138.9880  158.5424 N   0  0  0  0  0  0  0  0  0  0  0  0
  152.1536  140.2342  159.1037 C   0  0  0  0  0  0  0  0  0  0  0  0
  151.6059  141.4956  158.3999 C   0  0  1  0  0  0  0  0  0  0  0  0
  150.2210  141.6090  158.6662 O   0  0  0  0  0  0  0  0  0  0  0  0
  152.3028  142.8029  158.8293 C   0  0  2  0  0  0  0  0  0  0  0  0
  152.0786  143.1968  160.2904 C   0  0  0  0  0  0  0  0  0  0  0  0
  152.2518  144.7088  160.2862 C   0  0  0  0  0  0  0  0  0  0  0  0
  152.1935  145.0869  158.8041 C   0  0  0  0  0  0  0  0  0  0  0  0
  151.7422  143.9128  158.1459 O   0  0  0  0  0  0  0  0  0  0  0  0
  150.0583  134.9390  154.4852 C   0  0  0  0  0  0  0  0  0  0  0  0
  150.3950  132.7993  154.5270 H   0  0  0  0  0  0  0  0  0  0  0  0
  145.1085  131.9333  149.6143 H   0  0  0  0  0  0  0  0  0  0  0  0
  146.7069  131.9288  150.3527 H   0  0  0  0  0  0  0  0  0  0  0  0
  145.7313  133.3976  150.3582 H   0  0  0  0  0  0  0  0  0  0  0  0
  144.0576  132.2733  151.8968 H   0  0  0  0  0  0  0  0  0  0  0  0
  144.9758  130.7908  151.7921 H   0  0  0  0  0  0  0  0  0  0  0  0
  146.7494  130.3742  153.2457 H   0  0  0  0  0  0  0  0  0  0  0  0
  147.6403  131.4545  152.1805 H   0  0  0  0  0  0  0  0  0  0  0  0
  147.1574  132.1344  155.1083 H   0  0  0  0  0  0  0  0  0  0  0  0
  148.5583  131.2059  154.5900 H   0  0  0  0  0  0  0  0  0  0  0  0
  148.2107  133.8903  156.3211 H   0  0  0  0  0  0  0  0  0  0  0  0
  149.2205  132.4730  156.6086 H   0  0  0  0  0  0  0  0  0  0  0  0
  149.8214  134.9244  157.6893 H   0  0  0  0  0  0  0  0  0  0  0  0
  151.1217  133.8541  157.1443 H   0  0  0  0  0  0  0  0  0  0  0  0
  153.0817  138.6520  154.3070 H   0  0  0  0  0  0  0  0  0  0  0  0
  150.5550  138.1667  160.2082 H   0  0  0  0  0  0  0  0  0  0  0  0
  151.8986  140.2596  160.1635 H   0  0  0  0  0  0  0  0  0  0  0  0
  153.2432  140.2208  159.0554 H   0  0  0  0  0  0  0  0  0  0  0  0
  151.7226  141.3648  157.3234 H   0  0  0  0  0  0  0  0  0  0  0  0
  149.7653  141.7064  157.8441 H   0  0  0  0  0  0  0  0  0  0  0  0
  153.3740  142.7617  158.6225 H   0  0  0  0  0  0  0  0  0  0  0  0
  151.0619  142.9482  160.5977 H   0  0  0  0  0  0  0  0  0  0  0  0
  152.7675  142.6945  160.9704 H   0  0  0  0  0  0  0  0  0  0  0  0
  151.4565  145.1912  160.8558 H   0  0  0  0  0  0  0  0  0  0  0  0
  153.2062  145.0068  160.7222 H   0  0  0  0  0  0  0  0  0  0  0  0
  151.5277  145.9281  158.6102 H   0  0  0  0  0  0  0  0  0  0  0  0
  153.1866  145.3454  158.4332 H   0  0  0  0  0  0  0  0  0  0  0  0
  150.7915  134.9979  153.6806 H   0  0  0  0  0  0  0  0  0  0  0  0
  149.2223  135.5981  154.2475 H   0  0  0  0  0  0  0  0  0  0  0  0
  1  2  1  0  0  0  0
  1 30  1  0  0  0  0
  1 31  1  0  0  0  0
  1 32  1  0  0  0  0
  2  3  1  0  0  0  0
  2 33  1  0  0  0  0
  2 34  1  0  0  0  0
  3  4  1  0  0  0  0
  4  5  1  0  0  0  0
  4 35  1  0  0  0  0
  4 36  1  0  0  0  0
  5  6  1  0  0  0  0
  5 37  1  0  0  0  0
  5 38  1  0  0  0  0
  6  7  1  0  0  0  0
  7 29  1  0  0  0  0
  7 28  1  0  0  0  0
  7  8  1  0  0  0  0
  8  9  1  0  0  0  0
  8 39  1  0  0  0  0
  8 40  1  0  0  0  0
  9 10  1  0  0  0  0
  9 41  1  0  0  0  0
  9 42  1  0  0  0  0
 10 11  1  0  0  0  0
 10 28  1  0  0  0  0
 11 16  1  0  0  0  0
 11 12  2  0  0  0  0
 12 13  1  0  0  0  0
 13 14  2  0  0  0  0
 13 43  1  0  0  0  0
 14 15  1  0  0  0  0
 15 19  1  0  0  0  0
 15 16  2  0  0  0  0
 16 17  1  0  0  0  0
 17 18  2  0  0  0  0
 18 19  1  0  0  0  0
 18 44  1  0  0  0  0
 19 20  1  0  0  0  0
 20 21  1  0  0  0  0
 20 45  1  0  0  0  0
 20 46  1  0  0  0  0
 21 22  1  0  0  0  0
 21 23  1  0  0  0  0
 21 47  1  0  0  0  0
 22 48  1  0  0  0  0
 23 27  1  0  0  0  0
 23 24  1  0  0  0  0
 23 49  1  0  0  0  0
 24 25  1  0  0  0  0
 24 50  1  0  0  0  0
 24 51  1  0  0  0  0
 25 26  1  0  0  0  0
 25 52  1  0  0  0  0
 25 53  1  0  0  0  0
 26 27  1  0  0  0  0
 26 54  1  0  0  0  0
 26 55  1  0  0  0  0
 28 56  1  0  0  0  0
 28 57  1  0  0  0  0
M  END
> <s_m_source_file>
AV-unprocessed.smi

> <i_m_source_file_index>
246

> <i_lp_mmshare_version>
43012

> <i_f3d_flags>
0

> <s_epik_input>
W0NIM11bQ0gyXU9bQ0gyXVtDSDJdT1tDQEhdMVtDSDJdW0NIMl1OKFtDSDJdMSljKG5bY0hdbjIpYyhjMjMpbltjSF1uM1tDSDJdW0NASF0oW09IXSlbQ0BASF00W0NIMl1bQ0gyXVtDSDJdTzQ=

> <s_epik_cmdline>
J2VwaWtfcHl0aG9uJywgJy1waCcsICc3LjAnLCAnLXRuJywgJzgnLCAnLW1hJywgJzIwMCcsICctbWV0YWxfYmluZGluZycsICctaW1hZScsICc8aW5maWxlLm1hZT4nLCAnLW9tYWUnLCAnPG91dGZpbGUubWFlPic=

> <r_lp_tautomer_probability>
1

> <r_epik_Ionization_Penalty>
0.0024631

> <r_epik_Ionization_Penalty_Charging>
0

> <r_epik_Ionization_Penalty_Neutral>
0.0024631

> <r_epik_State_Penalty>
0.00162428

> <r_epik_Charging_Adjusted_Penalty>
0.00162428

> <i_epik_Tot_Q>
0

> <i_epik_Tot_abs_Q>
0

> <r_epik_Metal_State_Penalty>
-0

> <b_epik_Metal_Only>
0

> <s_lp_Force_Field>
OPLS_2005

> <r_lp_Energy>
48.0332

> <b_lp_Chiralities_Consistent>
1

> <s_lp_Variant>
AV-unprocessed.smi:246-4

> <Gold.Version>
5.8.1

> <Gold.Id.Protein>
6NUR|6NUR_protein|mol2

> <Gold.PLP.Fitness>
50.2050

> <Gold.PLP.PLP>
-45.4881

> <Gold.PLP.part.hbond>
-2.0813

> <Gold.PLP.part.metal>
0.0000

> <Gold.PLP.part.buried>
-7.2951

> <Gold.PLP.part.nonpolar>
-37.2835

> <Gold.PLP.part.repulsive>
0.4652

> <Gold.PLP.ligand.clash>
0.0000

> <Gold.PLP.ligand.torsion>
0.6634

> <Gold.PLP.Chemscore.Hbond>
1.8881

> <Gold.PLP.Chemscore.CHOScore>
0.0000

> <Gold.PLP.Chemscore.Metal>
0.0000

> <Gold.Chemscore.Hbonds>
donor molecule, donor type, donor heavy atom, donor atom, acceptor molecule, acceptor atom, score
      P1  H  7997  8008       L1    14  0.89
      P1  H 10752 10765       L1    12  0.98

> <Gold.PLP.Chemscore.Internal.Correction>
0.3795

> <Gold.Rescore>
     Score         DG    S(hbond)    S(metal)    S(lipo)     H(rot)  DE(clash)    DE(int)     intcor
     14.97     -15.67       1.51        0.00     112.01       3.10       0.06       0.64       ----

> <Gold.Chemscore.Fitness>
14.9747

> <Gold.Chemscore.DG>
-15.6715

> <Gold.Chemscore.ZeroCoef>
-5.4800

> <Gold.Chemscore.Hbond>
1.5055

> <Gold.Chemscore.Metal>
0.0000

> <Gold.Chemscore.Lipo>
112.0144

> <Gold.Chemscore.Internal_Hbond>
0.0000

> <Gold.Chemscore.DEClash>
0.0605

> <Gold.Chemscore.DEInternal>
0.6363

> <Gold.Chemscore.Rot>
3.1026

> <Gold.Chemscore.Internal.Correction>
   9.000000E+99

> <Gold.Chemscore.Hbonds>
donor molecule, donor type, donor heavy atom, donor atom, acceptor molecule, acceptor atom, score
      P1  H  7997  8008       L1    14  0.67
      P1  H 10752 10765       L1    12  0.23

> <Gold.Chemscore.Hbond.Weighted>
-5.0285

> <Gold.Chemscore.Metal.Weighted>
-0.0000

> <Gold.Chemscore.Lipo.Weighted>
-13.1057

> <Gold.Chemscore.Internal_Hbond.Weighted>
0.0000

> <Gold.Chemscore.DEClash.Weighted>
0.0605

> <Gold.Chemscore.DEInternal.Weighted>
0.6363

> <Gold.Chemscore.Rot.Weighted>
7.9426

> <Gold.Chemscore.Internal.Correction.Weighted>
   9.000000E+99

> <Gold.Protein.RotatedTorsions>
[ 6907 6896 6895 6894 ] final -120.63 input  -60.11 | X-H torsion
[ 7974 7965 7964 7962 ] final -134.92 input  175.53 | X-H torsion
[ 8008 7997 7996 7995 ] final  -45.65 input   59.86 | X-H torsion
[ 10167 10162 10161 10158 ] final  101.46 input  -65.29 | X-H torsion
[ 10718 10713 10712 10709 ] final   95.19 input   66.30 | X-H torsion
[ 10763 10752 10751 10750 ] final  171.60 input  -60.55 | X-H torsion
[ 11005 11000 10999 10996 ] final   15.31 input  -57.11 | X-H torsion

> <Gold.Protein.ActiveResidues>
 VAL166  LYS551  ARG553  GLY616  TRP617  ASP618  TYR619  PRO620  LYS621  CYS622 
 ASP623  PHE694  ASN695  SER759  ASP760  ASP761  ALA762  ILE779  LEU786  VAL792 
 PHE793  MET794  SER795  GLU796  ALA797  LYS798  CYS799  TRP800  GLU811  SER814 

> <Gold.Protein.RotatedAtoms>
  150.8411  133.7935  159.3060 H   0  0  0  0  0  0  0  0  0  0  0  0  # atno 6907 bound_to 6896
  151.5636  135.1063  159.9988 H   0  0  0  0  0  0  0  0  0  0  0  0  # atno 6908 bound_to 6896
  152.4474  133.7520  159.6755 H   0  0  0  0  0  0  0  0  0  0  0  0  # atno 6909 bound_to 6896
  144.9060  140.6833  143.5055 H   0  0  0  0  0  0  0  0  0  0  0  0  # atno 7974 bound_to 7965
  154.4002  140.1391  156.3882 H   0  0  0  0  0  0  0  0  0  0  0  0  # atno 8008 bound_to 7997
  155.7939  140.3478  155.5344 H   0  0  0  0  0  0  0  0  0  0  0  0  # atno 8009 bound_to 7997
  155.8551  140.0947  157.1640 H   0  0  0  0  0  0  0  0  0  0  0  0  # atno 8010 bound_to 7997
  139.7436  144.7004  151.0537 H   0  0  0  0  0  0  0  0  0  0  0  0  # atno 10167 bound_to 10162
  157.6941  131.0537  150.4301 H   0  0  0  0  0  0  0  0  0  0  0  0  # atno 10718 bound_to 10713
  154.4142  135.2757  155.2017 H   0  0  0  0  0  0  0  0  0  0  0  0  # atno 10763 bound_to 10752
  154.3990  135.6049  153.5890 H   0  0  0  0  0  0  0  0  0  0  0  0  # atno 10764 bound_to 10752
  152.9832  135.5921  154.4429 H   0  0  0  0  0  0  0  0  0  0  0  0  # atno 10765 bound_to 10752
  140.4597  134.1139  155.7714 H   0  0  0  0  0  0  0  0  0  0  0  0  # atno 11005 bound_to 11000
  145.3535  139.1700  143.4421 LP  0  0  0  0  0  0  0  0  0  0  0  0  # atno 17320 bound_to 7965
  146.3134  140.3590  142.8663 LP  0  0  0  0  0  0  0  0  0  0  0  0  # atno 17321 bound_to 7965
  140.7789  143.4894  150.9913 LP  0  0  0  0  0  0  0  0  0  0  0  0  # atno 17342 bound_to 10162
  139.8582  143.7349  152.3175 LP  0  0  0  0  0  0  0  0  0  0  0  0  # atno 17343 bound_to 10162
  156.4668  130.4044  149.6542 LP  0  0  0  0  0  0  0  0  0  0  0  0  # atno 17370 bound_to 10713
  156.3637  130.7495  151.2470 LP  0  0  0  0  0  0  0  0  0  0  0  0  # atno 17371 bound_to 10713
  141.1627  133.8763  157.1804 LP  0  0  0  0  0  0  0  0  0  0  0  0  # atno 17394 bound_to 11000
  139.9953  135.0049  157.0068 LP  0  0  0  0  0  0  0  0  0  0  0  0  # atno 17395 bound_to 11000

$$$$
