AV-unprocessed.smi:2027|AV-procd|sdf|8218|dock4
  -GOLD-   2272010483D 1   1.00000     0.00000
 Structure written by MMmdl.
 51 53  0  0  0  0  0  0  0  0  3 V2000
  152.3905  143.1337  160.8040 C   0  0  0  0  0  0  0  0  0  0  0  0
  152.0889  142.3443  159.5414 C   0  0  0  0  0  0  0  0  0  0  0  0
  151.2020  142.9018  158.5931 C   0  0  0  0  0  0  0  0  0  0  0  0
  150.9441  142.1549  157.4498 C   0  0  0  0  0  0  0  0  0  0  0  0
  150.1294  142.4232  156.3480 N   0  3  0  0  0  0  0  0  0  0  0  0
  150.1945  141.3841  155.4705 C   0  0  0  0  0  0  0  0  0  0  0  0
  151.0413  140.4558  155.9943 N   0  0  0  0  0  0  0  0  0  0  0  0
  151.4471  139.1481  155.4579 C   0  0  0  0  0  0  0  0  0  0  0  0
  150.2557  138.2977  154.9759 C   0  0  1  0  0  0  0  0  0  0  0  0
  150.2208  138.2866  153.5622 O   0  0  0  0  0  0  0  0  0  0  0  0
  150.3596  136.8426  155.4753 C   0  0  0  0  0  0  0  0  0  0  0  0
  149.4428  135.9274  154.7479 N   0  3  1  0  0  0  0  0  0  0  0  0
  150.0284  134.5758  154.5818 C   0  0  0  0  0  0  0  0  0  0  0  0
  148.0754  135.8929  155.3292 C   0  0  0  0  0  0  0  0  0  0  0  0
  148.0944  135.4230  156.7586 C   0  0  0  0  0  0  0  0  0  0  0  0
  149.2088  134.9379  157.5011 C   0  0  0  0  0  0  0  0  0  0  0  0
  148.8939  134.6031  158.7411 N   0  0  0  0  0  0  0  0  0  0  0  0
  147.5723  134.8556  158.8329 N   0  0  0  0  0  0  0  0  0  0  0  0
  146.8801  134.5945  160.0769 C   0  0  0  0  0  0  0  0  0  0  0  0
  147.0621  135.3483  157.6515 C   0  0  0  0  0  0  0  0  0  0  0  0
  151.5337  140.8945  157.2301 C   0  0  0  0  0  0  0  0  0  0  0  0
  152.4132  140.3329  158.1534 C   0  0  0  0  0  0  0  0  0  0  0  0
  152.6878  141.0766  159.3234 C   0  0  0  0  0  0  0  0  0  0  0  0
  153.6424  140.4880  160.3484 C   0  0  0  0  0  0  0  0  0  0  0  0
  151.8187  144.0618  160.8409 H   0  0  0  0  0  0  0  0  0  0  0  0
  153.4488  143.3913  160.8496 H   0  0  0  0  0  0  0  0  0  0  0  0
  152.1364  142.5526  161.6909 H   0  0  0  0  0  0  0  0  0  0  0  0
  150.7435  143.8671  158.7517 H   0  0  0  0  0  0  0  0  0  0  0  0
  149.6655  141.3092  154.5312 H   0  0  0  0  0  0  0  0  0  0  0  0
  152.1785  139.2937  154.6629 H   0  0  0  0  0  0  0  0  0  0  0  0
  151.9713  138.6253  156.2589 H   0  0  0  0  0  0  0  0  0  0  0  0
  149.3351  138.7605  155.3308 H   0  0  0  0  0  0  0  0  0  0  0  0
  149.7346  137.5265  153.2796 H   0  0  0  0  0  0  0  0  0  0  0  0
  151.3930  136.5118  155.3560 H   0  0  0  0  0  0  0  0  0  0  0  0
  150.1484  136.7844  156.5444 H   0  0  0  0  0  0  0  0  0  0  0  0
  150.1715  134.0909  155.5484 H   0  0  0  0  0  0  0  0  0  0  0  0
  150.9962  134.6335  154.0825 H   0  0  0  0  0  0  0  0  0  0  0  0
  149.3912  133.9379  153.9695 H   0  0  0  0  0  0  0  0  0  0  0  0
  147.6236  136.8822  155.2422 H   0  0  0  0  0  0  0  0  0  0  0  0
  147.4398  135.2313  154.7419 H   0  0  0  0  0  0  0  0  0  0  0  0
  150.2327  134.8231  157.1769 H   0  0  0  0  0  0  0  0  0  0  0  0
  145.8625  134.9831  160.0273 H   0  0  0  0  0  0  0  0  0  0  0  0
  147.4030  135.0786  160.9024 H   0  0  0  0  0  0  0  0  0  0  0  0
  146.8414  133.5199  160.2573 H   0  0  0  0  0  0  0  0  0  0  0  0
  146.0181  135.6043  157.5454 H   0  0  0  0  0  0  0  0  0  0  0  0
  152.8733  139.3696  157.9901 H   0  0  0  0  0  0  0  0  0  0  0  0
  154.0324  139.5229  160.0233 H   0  0  0  0  0  0  0  0  0  0  0  0
  153.1349  140.3378  161.3016 H   0  0  0  0  0  0  0  0  0  0  0  0
  154.4914  141.1531  160.5083 H   0  0  0  0  0  0  0  0  0  0  0  0
  149.3563  136.3107  153.8169 H   0  0  0  0  0  0  0  0  0  0  0  0
  149.5654  143.2517  156.2060 H   0  0  0  0  0  0  0  0  0  0  0  0
  1  2  1  0  0  0  0
  1 25  1  0  0  0  0
  1 26  1  0  0  0  0
  1 27  1  0  0  0  0
  2 23  1  0  0  0  0
  2  3  2  0  0  0  0
  3  4  1  0  0  0  0
  3 28  1  0  0  0  0
  4 21  2  0  0  0  0
  4  5  1  0  0  0  0
  5  6  2  0  0  0  0
  5 51  1  0  0  0  0
  6  7  1  0  0  0  0
  6 29  1  0  0  0  0
  7  8  1  0  0  0  0
  7 21  1  0  0  0  0
  8  9  1  0  0  0  0
  8 30  1  0  0  0  0
  8 31  1  0  0  0  0
  9 10  1  0  0  0  0
  9 11  1  0  0  0  0
  9 32  1  0  0  0  0
 10 33  1  0  0  0  0
 11 12  1  0  0  0  0
 11 34  1  0  0  0  0
 11 35  1  0  0  0  0
 12 13  1  0  0  0  0
 12 14  1  0  0  0  0
 12 50  1  0  0  0  0
 13 36  1  0  0  0  0
 13 37  1  0  0  0  0
 13 38  1  0  0  0  0
 14 15  1  0  0  0  0
 14 39  1  0  0  0  0
 14 40  1  0  0  0  0
 15 20  2  0  0  0  0
 15 16  1  0  0  0  0
 16 17  2  0  0  0  0
 16 41  1  0  0  0  0
 17 18  1  0  0  0  0
 18 19  1  0  0  0  0
 18 20  1  0  0  0  0
 19 42  1  0  0  0  0
 19 43  1  0  0  0  0
 19 44  1  0  0  0  0
 20 45  1  0  0  0  0
 21 22  1  0  0  0  0
 22 23  2  0  0  0  0
 22 46  1  0  0  0  0
 23 24  1  0  0  0  0
 24 47  1  0  0  0  0
 24 48  1  0  0  0  0
 24 49  1  0  0  0  0
M  CHG  1   5   1
M  CHG  1  12   1
M  END
> <s_m_source_file>
AV-unprocessed.smi

> <i_m_source_file_index>
2027

> <i_lp_mmshare_version>
43012

> <i_f3d_flags>
0

> <s_epik_input>
W0NIM11jKFtjSF0xKWMoW0NIM10pW2NIXWMoYzEyKW4oW2NIXW4yKVtDSDJdW0NASF0oW09IXSlbQ0gyXU4oW0NIM10pW0NIMl1jM1tjSF1ubihbQ0gzXSlbY0hdMw==

> <s_epik_cmdline>
J2VwaWtfcHl0aG9uJywgJy1waCcsICc3LjAnLCAnLXRuJywgJzgnLCAnLW1hJywgJzIwMCcsICctbWV0YWxfYmluZGluZycsICctaW1hZScsICc8aW5maWxlLm1hZT4nLCAnLW9tYWUnLCAnPG91dGZpbGUubWFlPic=

> <r_lp_tautomer_probability>
1

> <r_epik_Ionization_Penalty>
1.77469

> <r_epik_Ionization_Penalty_Charging>
1.77463

> <r_epik_Ionization_Penalty_Neutral>
6.41153e-05

> <r_epik_State_Penalty>
1.85225

> <r_epik_Charging_Adjusted_Penalty>
3.62688

> <i_epik_Tot_Q>
2

> <i_epik_Tot_abs_Q>
2

> <r_epik_Metal_State_Penalty>
1.92669

> <b_epik_Metal_Only>
0

> <s_lp_Force_Field>
OPLS_2005

> <r_lp_Energy>
18.885

> <b_lp_Chiralities_Consistent>
1

> <s_lp_Variant>
AV-unprocessed.smi:2027-10

> <Gold.Version>
5.8.1

> <Gold.Id.Protein>
6NUR|6NUR_protein|mol2

> <Gold.PLP.Fitness>
56.9625

> <Gold.PLP.PLP>
-41.5200

> <Gold.PLP.part.hbond>
-5.2784

> <Gold.PLP.part.metal>
0.0000

> <Gold.PLP.part.buried>
-4.4381

> <Gold.PLP.part.nonpolar>
-32.1312

> <Gold.PLP.part.repulsive>
0.1217

> <Gold.PLP.ligand.clash>
0.0000

> <Gold.PLP.ligand.torsion>
1.3117

> <Gold.PLP.Chemscore.Hbond>
6.0000

> <Gold.PLP.Chemscore.CHOScore>
0.0000

> <Gold.PLP.Chemscore.Metal>
0.0000

> <Gold.Chemscore.Hbonds>
donor molecule, donor type, donor heavy atom, donor atom, acceptor molecule, acceptor atom, score
      L1  H     5    51       P1  8028  2.00
      L1  H    10    33       P1  7948  0.99
      L1  H    12    50       P1  7948  2.00
      P1  H  6896  6907       L1    17  1.00

> <Gold.PLP.Chemscore.Internal.Correction>
0.0659

> <Gold.Rescore>
     Score         DG    S(hbond)    S(metal)    S(lipo)     H(rot)  DE(clash)    DE(int)     intcor
     20.26     -23.01       3.66        0.00     101.87       2.58       0.20       2.55       ----

> <Gold.Chemscore.Fitness>
20.2569

> <Gold.Chemscore.DG>
-23.0070

> <Gold.Chemscore.ZeroCoef>
-5.4800

> <Gold.Chemscore.Hbond>
3.6593

> <Gold.Chemscore.Metal>
0.0000

> <Gold.Chemscore.Lipo>
101.8716

> <Gold.Chemscore.Internal_Hbond>
0.0000

> <Gold.Chemscore.DEClash>
0.2047

> <Gold.Chemscore.DEInternal>
2.5453

> <Gold.Chemscore.Rot>
2.5836

> <Gold.Chemscore.Internal.Correction>
   9.000000E+99

> <Gold.Chemscore.Hbonds>
donor molecule, donor type, donor heavy atom, donor atom, acceptor molecule, acceptor atom, score
      L1  H     5    51       P1  8028  1.00
      L1  H    10    33       P1  7948  0.63
      L1  H    12    50       P1  7948  0.82
      P1  H  6896  6907       L1    17  0.25

> <Gold.Chemscore.Hbond.Weighted>
-12.2219

> <Gold.Chemscore.Metal.Weighted>
-0.0000

> <Gold.Chemscore.Lipo.Weighted>
-11.9190

> <Gold.Chemscore.Internal_Hbond.Weighted>
0.0000

> <Gold.Chemscore.DEClash.Weighted>
0.2047

> <Gold.Chemscore.DEInternal.Weighted>
2.5453

> <Gold.Chemscore.Rot.Weighted>
6.6139

> <Gold.Chemscore.Internal.Correction.Weighted>
   9.000000E+99

> <Gold.Protein.RotatedTorsions>
[ 6907 6896 6895 6894 ] final  -73.63 input  -60.11 | X-H torsion
[ 7974 7965 7964 7962 ] final    8.71 input  175.53 | X-H torsion
[ 8008 7997 7996 7995 ] final   84.75 input   59.86 | X-H torsion
[ 10167 10162 10161 10158 ] final  -43.23 input  -65.29 | X-H torsion
[ 10718 10713 10712 10709 ] final  148.29 input   66.30 | X-H torsion
[ 10763 10752 10751 10750 ] final  161.46 input  -60.55 | X-H torsion
[ 11005 11000 10999 10996 ] final   60.67 input  -57.11 | X-H torsion

> <Gold.Protein.ActiveResidues>
 VAL166  LYS551  ARG553  GLY616  TRP617  ASP618  TYR619  PRO620  LYS621  CYS622 
 ASP623  PHE694  ASN695  SER759  ASP760  ASP761  ALA762  ILE779  LEU786  VAL792 
 PHE793  MET794  SER795  GLU796  ALA797  LYS798  CYS799  TRP800  GLU811  SER814 

> <Gold.Protein.RotatedAtoms>
  150.7123  134.4987  159.5550 H   0  0  0  0  0  0  0  0  0  0  0  0  # atno 6907 bound_to 6896
  152.2589  134.8052  160.0443 H   0  0  0  0  0  0  0  0  0  0  0  0  # atno 6908 bound_to 6896
  151.8772  133.3452  159.3791 H   0  0  0  0  0  0  0  0  0  0  0  0  # atno 6909 bound_to 6896
  146.2413  139.9892  142.8427 H   0  0  0  0  0  0  0  0  0  0  0  0  # atno 7974 bound_to 7965
  155.9411  140.3408  155.6328 H   0  0  0  0  0  0  0  0  0  0  0  0  # atno 8008 bound_to 7997
  155.7039  140.0763  157.2417 H   0  0  0  0  0  0  0  0  0  0  0  0  # atno 8009 bound_to 7997
  154.4103  140.1635  156.2208 H   0  0  0  0  0  0  0  0  0  0  0  0  # atno 8010 bound_to 7997
  140.6941  143.2994  151.3323 H   0  0  0  0  0  0  0  0  0  0  0  0  # atno 10167 bound_to 10162
  157.3105  131.0887  151.1320 H   0  0  0  0  0  0  0  0  0  0  0  0  # atno 10718 bound_to 10713
  154.2633  135.2768  155.2769 H   0  0  0  0  0  0  0  0  0  0  0  0  # atno 10763 bound_to 10752
  154.5365  135.5715  153.6806 H   0  0  0  0  0  0  0  0  0  0  0  0  # atno 10764 bound_to 10752
  152.9958  135.6240  154.2785 H   0  0  0  0  0  0  0  0  0  0  0  0  # atno 10765 bound_to 10752
  140.0215  134.6146  155.9633 H   0  0  0  0  0  0  0  0  0  0  0  0  # atno 11005 bound_to 11000
  145.1519  140.9627  143.4428 LP  0  0  0  0  0  0  0  0  0  0  0  0  # atno 17320 bound_to 7965
  145.0197  139.3435  143.6078 LP  0  0  0  0  0  0  0  0  0  0  0  0  # atno 17321 bound_to 7965
  139.6376  144.0601  152.2528 LP  0  0  0  0  0  0  0  0  0  0  0  0  # atno 17342 bound_to 10162
  140.0096  144.6234  150.7659 LP  0  0  0  0  0  0  0  0  0  0  0  0  # atno 17343 bound_to 10162
  157.2644  130.6674  149.5990 LP  0  0  0  0  0  0  0  0  0  0  0  0  # atno 17370 bound_to 10713
  155.9677  130.4498  150.5674 LP  0  0  0  0  0  0  0  0  0  0  0  0  # atno 17371 bound_to 10713
  141.1777  133.6542  156.4893 LP  0  0  0  0  0  0  0  0  0  0  0  0  # atno 17394 bound_to 11000
  140.4379  134.7042  157.4976 LP  0  0  0  0  0  0  0  0  0  0  0  0  # atno 17395 bound_to 11000

$$$$
