AV-unprocessed.smi:3031|AV-procd|sdf|11546|dock2
  -GOLD-   2272016503D 1   1.00000     0.00000
 Structure written by MMmdl.
 47 48  0  0  0  0  0  0  0  0  2 V2000
  150.8096  143.0402  158.0511 C   0  0  0  0  0  0  0  0  0  0  0  0
  150.7747  141.7977  157.2089 C   0  0  0  0  0  0  0  0  0  0  0  0
  151.3197  140.5183  157.5149 C   0  0  0  0  0  0  0  0  0  0  0  0
  151.1159  139.6295  156.5563 N   0  0  0  0  0  0  0  0  0  0  0  0
  150.4388  140.3083  155.6058 N   0  0  0  0  0  0  0  0  0  0  0  0
  150.0349  139.6372  154.3829 C   0  0  0  0  0  0  0  0  0  0  0  0
  148.5005  139.4651  154.2650 C   0  0  1  0  0  0  0  0  0  0  0  0
  147.7435  140.7941  154.4333 C   0  0  0  0  0  0  0  0  0  0  0  0
  148.1171  138.8590  152.9857 N   0  0  0  0  0  0  0  0  0  0  0  0
  146.6980  138.5339  152.8392 C   0  0  0  0  0  0  0  0  0  0  0  0
  146.4914  137.3466  151.8838 C   0  0  2  0  0  0  0  0  0  0  0  0
  146.4729  137.8618  150.5679 O   0  0  0  0  0  0  0  0  0  0  0  0
  145.1595  136.6054  152.1294 C   0  0  0  0  0  0  0  0  0  0  0  0
  145.1065  135.2889  151.4442 N   0  3  0  0  0  0  0  0  0  0  0  0
  146.2758  134.4206  151.7307 C   0  0  0  0  0  0  0  0  0  0  0  0
  146.1660  133.0984  150.9524 C   0  0  0  0  0  0  0  0  0  0  0  0
  144.9462  132.4478  151.2859 O   0  0  0  0  0  0  0  0  0  0  0  0
  143.8129  133.2318  150.9358 C   0  0  0  0  0  0  0  0  0  0  0  0
  143.8439  134.5597  151.7117 C   0  0  0  0  0  0  0  0  0  0  0  0
  150.2157  141.6176  155.9755 C   0  0  0  0  0  0  0  0  0  0  0  0
  151.6140  143.0085  158.7863 H   0  0  0  0  0  0  0  0  0  0  0  0
  149.8777  143.1789  158.5993 H   0  0  0  0  0  0  0  0  0  0  0  0
  150.9632  143.9337  157.4460 H   0  0  0  0  0  0  0  0  0  0  0  0
  151.8541  140.2109  158.4015 H   0  0  0  0  0  0  0  0  0  0  0  0
  150.4176  140.2001  153.5297 H   0  0  0  0  0  0  0  0  0  0  0  0
  150.5369  138.6699  154.3683 H   0  0  0  0  0  0  0  0  0  0  0  0
  148.1748  138.8065  155.0714 H   0  0  0  0  0  0  0  0  0  0  0  0
  147.8958  141.2221  155.4244 H   0  0  0  0  0  0  0  0  0  0  0  0
  146.6693  140.6520  154.3106 H   0  0  0  0  0  0  0  0  0  0  0  0
  148.0677  141.5318  153.6987 H   0  0  0  0  0  0  0  0  0  0  0  0
  148.6771  138.0278  152.8255 H   0  0  0  0  0  0  0  0  0  0  0  0
  146.2517  138.2974  153.8050 H   0  0  0  0  0  0  0  0  0  0  0  0
  146.1676  139.4056  152.4528 H   0  0  0  0  0  0  0  0  0  0  0  0
  147.3419  136.6705  151.9703 H   0  0  0  0  0  0  0  0  0  0  0  0
  145.6915  138.3820  150.4574 H   0  0  0  0  0  0  0  0  0  0  0  0
  144.9887  136.4550  153.1963 H   0  0  0  0  0  0  0  0  0  0  0  0
  144.3408  137.2365  151.7796 H   0  0  0  0  0  0  0  0  0  0  0  0
  147.2030  134.9223  151.4570 H   0  0  0  0  0  0  0  0  0  0  0  0
  146.3278  134.2166  152.8014 H   0  0  0  0  0  0  0  0  0  0  0  0
  146.2176  133.2731  149.8766 H   0  0  0  0  0  0  0  0  0  0  0  0
  146.9976  132.4418  151.2084 H   0  0  0  0  0  0  0  0  0  0  0  0
  143.7954  133.4087  149.8592 H   0  0  0  0  0  0  0  0  0  0  0  0
  142.9088  132.6742  151.1814 H   0  0  0  0  0  0  0  0  0  0  0  0
  143.7501  134.3701  152.7822 H   0  0  0  0  0  0  0  0  0  0  0  0
  142.9915  135.1735  151.4179 H   0  0  0  0  0  0  0  0  0  0  0  0
  149.6845  142.3061  155.3349 H   0  0  0  0  0  0  0  0  0  0  0  0
  145.1165  135.4838  150.4528 H   0  0  0  0  0  0  0  0  0  0  0  0
  1  2  1  0  0  0  0
  1 21  1  0  0  0  0
  1 22  1  0  0  0  0
  1 23  1  0  0  0  0
  2 20  2  0  0  0  0
  2  3  1  0  0  0  0
  3  4  2  0  0  0  0
  3 24  1  0  0  0  0
  4  5  1  0  0  0  0
  5  6  1  0  0  0  0
  5 20  1  0  0  0  0
  6  7  1  0  0  0  0
  6 25  1  0  0  0  0
  6 26  1  0  0  0  0
  7  8  1  0  0  0  0
  7  9  1  0  0  0  0
  7 27  1  0  0  0  0
  8 28  1  0  0  0  0
  8 29  1  0  0  0  0
  8 30  1  0  0  0  0
  9 10  1  0  0  0  0
  9 31  1  0  0  0  0
 10 11  1  0  0  0  0
 10 32  1  0  0  0  0
 10 33  1  0  0  0  0
 11 12  1  0  0  0  0
 11 13  1  0  0  0  0
 11 34  1  0  0  0  0
 12 35  1  0  0  0  0
 13 14  1  0  0  0  0
 13 36  1  0  0  0  0
 13 37  1  0  0  0  0
 14 19  1  0  0  0  0
 14 15  1  0  0  0  0
 14 47  1  0  0  0  0
 15 16  1  0  0  0  0
 15 38  1  0  0  0  0
 15 39  1  0  0  0  0
 16 17  1  0  0  0  0
 16 40  1  0  0  0  0
 16 41  1  0  0  0  0
 17 18  1  0  0  0  0
 18 19  1  0  0  0  0
 18 42  1  0  0  0  0
 18 43  1  0  0  0  0
 19 44  1  0  0  0  0
 19 45  1  0  0  0  0
 20 46  1  0  0  0  0
M  CHG  1  14   1
M  END
> <s_m_source_file>
AV-unprocessed.smi

> <i_m_source_file_index>
3031

> <i_lp_mmshare_version>
43012

> <i_f3d_flags>
0

> <s_epik_input>
W0NIM11jMVtjSF1ubihbY0hdMSlbQ0gyXVtDQEhdKFtDSDNdKVtOSF1bQ0gyXVtDQEhdKFtPSF0pW0NIMl1OMltDSDJdW0NIMl1PW0NIMl1bQ0gyXTI=

> <s_epik_cmdline>
J2VwaWtfcHl0aG9uJywgJy1waCcsICc3LjAnLCAnLXRuJywgJzgnLCAnLW1hJywgJzIwMCcsICctbWV0YWxfYmluZGluZycsICctaW1hZScsICc8aW5maWxlLm1hZT4nLCAnLW9tYWUnLCAnPG91dGZpbGUubWFlPic=

> <r_epik_Ionization_Penalty>
0.467051

> <r_epik_Ionization_Penalty_Charging>
0.202493

> <r_epik_Ionization_Penalty_Neutral>
0.264558

> <r_epik_State_Penalty>
1.34287

> <r_epik_Charging_Adjusted_Penalty>
1.54537

> <i_epik_Tot_Q>
1

> <i_epik_Tot_abs_Q>
1

> <r_epik_Metal_State_Penalty>
1.34281

> <b_epik_Metal_Only>
0

> <s_lp_Force_Field>
OPLS_2005

> <r_lp_Energy>
23.2864

> <b_lp_Chiralities_Consistent>
1

> <s_lp_Variant>
AV-unprocessed.smi:3031-6

> <Gold.Version>
5.8.1

> <Gold.Id.Protein>
6NUR|6NUR_protein|mol2

> <Gold.PLP.Fitness>
48.2408

> <Gold.PLP.PLP>
-37.3779

> <Gold.PLP.part.hbond>
-4.5510

> <Gold.PLP.part.metal>
0.0000

> <Gold.PLP.part.buried>
-2.5798

> <Gold.PLP.part.nonpolar>
-31.5851

> <Gold.PLP.part.repulsive>
0.1145

> <Gold.PLP.ligand.clash>
0.0000

> <Gold.PLP.ligand.torsion>
0.6330

> <Gold.PLP.Chemscore.Hbond>
2.9593

> <Gold.PLP.Chemscore.CHOScore>
0.9969

> <Gold.PLP.Chemscore.Metal>
0.0000

> <Gold.Chemscore.Hbonds>
donor molecule, donor type, donor heavy atom, donor atom, acceptor molecule, acceptor atom, score
      L1  H     9    31       P1  7948  0.98
      L1  H    12    35       P1 10171  1.00
      P1  H  7954  7966       L1    12  0.98
      L1  C    20    46       P1  8028  0.93

> <Gold.PLP.Chemscore.Internal.Correction>
0.2602

> <Gold.Rescore>
     Score         DG    S(hbond)    S(metal)    S(lipo)     H(rot)  DE(clash)    DE(int)     intcor
     16.72     -18.87       2.78        0.00      93.08       2.65       1.35       0.80       ----

> <Gold.Chemscore.Fitness>
16.7184

> <Gold.Chemscore.DG>
-18.8703

> <Gold.Chemscore.ZeroCoef>
-5.4800

> <Gold.Chemscore.Hbond>
2.7812

> <Gold.Chemscore.Metal>
0.0000

> <Gold.Chemscore.Lipo>
93.0819

> <Gold.Chemscore.Internal_Hbond>
0.0000

> <Gold.Chemscore.DEClash>
1.3549

> <Gold.Chemscore.DEInternal>
0.7970

> <Gold.Chemscore.Rot>
2.6521

> <Gold.Chemscore.Internal.Correction>
   9.000000E+99

> <Gold.Chemscore.Hbonds>
donor molecule, donor type, donor heavy atom, donor atom, acceptor molecule, acceptor atom, score
      L1  H     9    31       P1  7948  0.87
      L1  H    12    35       P1 10171  0.95
      P1  H  7954  7966       L1    12  0.69

> <Gold.Chemscore.Hbond.Weighted>
-9.2891

> <Gold.Chemscore.Metal.Weighted>
-0.0000

> <Gold.Chemscore.Lipo.Weighted>
-10.8906

> <Gold.Chemscore.Internal_Hbond.Weighted>
0.0000

> <Gold.Chemscore.DEClash.Weighted>
1.3549

> <Gold.Chemscore.DEInternal.Weighted>
0.7970

> <Gold.Chemscore.Rot.Weighted>
6.7894

> <Gold.Chemscore.Internal.Correction.Weighted>
   9.000000E+99

> <Gold.Protein.RotatedTorsions>
[ 6907 6896 6895 6894 ] final  162.74 input  -60.11 | X-H torsion
[ 7974 7965 7964 7962 ] final   -1.98 input  175.53 | X-H torsion
[ 8008 7997 7996 7995 ] final  162.49 input   59.86 | X-H torsion
[ 10167 10162 10161 10158 ] final  -69.94 input  -65.29 | X-H torsion
[ 10718 10713 10712 10709 ] final  -36.34 input   66.30 | X-H torsion
[ 10763 10752 10751 10750 ] final   18.98 input  -60.55 | X-H torsion
[ 11005 11000 10999 10996 ] final  161.27 input  -57.11 | X-H torsion

> <Gold.Protein.ActiveResidues>
 VAL166  LYS551  ARG553  GLY616  TRP617  ASP618  TYR619  PRO620  LYS621  CYS622 
 ASP623  PHE694  ASN695  SER759  ASP760  ASP761  ALA762  ILE779  LEU786  VAL792 
 PHE793  MET794  SER795  GLU796  ALA797  LYS798  CYS799  TRP800  GLU811  SER814 

> <Gold.Protein.RotatedAtoms>
  151.9359  133.3624  159.3947 H   0  0  0  0  0  0  0  0  0  0  0  0  # atno 6907 bound_to 6896
  150.7008  134.4490  159.5336 H   0  0  0  0  0  0  0  0  0  0  0  0  # atno 6908 bound_to 6896
  152.2138  134.8477  160.0545 H   0  0  0  0  0  0  0  0  0  0  0  0  # atno 6909 bound_to 6896
  146.2410  140.1503  142.8334 H   0  0  0  0  0  0  0  0  0  0  0  0  # atno 7974 bound_to 7965
  156.2027  140.1749  156.7865 H   0  0  0  0  0  0  0  0  0  0  0  0  # atno 8008 bound_to 7997
  154.5614  140.0699  156.8855 H   0  0  0  0  0  0  0  0  0  0  0  0  # atno 8009 bound_to 7997
  155.2842  140.3351  155.4259 H   0  0  0  0  0  0  0  0  0  0  0  0  # atno 8010 bound_to 7997
  140.5391  143.2316  151.7121 H   0  0  0  0  0  0  0  0  0  0  0  0  # atno 10167 bound_to 10162
  156.3280  130.4275  149.7899 H   0  0  0  0  0  0  0  0  0  0  0  0  # atno 10718 bound_to 10713
  153.1201  135.6717  153.9350 H   0  0  0  0  0  0  0  0  0  0  0  0  # atno 10763 bound_to 10752
  153.8868  135.3051  155.3448 H   0  0  0  0  0  0  0  0  0  0  0  0  # atno 10764 bound_to 10752
  154.7614  135.4986  153.9550 H   0  0  0  0  0  0  0  0  0  0  0  0  # atno 10765 bound_to 10752
  140.2141  134.8245  157.3152 H   0  0  0  0  0  0  0  0  0  0  0  0  # atno 11005 bound_to 11000
  145.0173  140.8765  143.5188 LP  0  0  0  0  0  0  0  0  0  0  0  0  # atno 17320 bound_to 7965
  145.1546  139.2494  143.5423 LP  0  0  0  0  0  0  0  0  0  0  0  0  # atno 17321 bound_to 7965
  139.4982  144.3996  152.0195 LP  0  0  0  0  0  0  0  0  0  0  0  0  # atno 17342 bound_to 10162
  140.3103  144.3545  150.6035 LP  0  0  0  0  0  0  0  0  0  0  0  0  # atno 17343 bound_to 10162
  156.5182  130.8203  151.3194 LP  0  0  0  0  0  0  0  0  0  0  0  0  # atno 17370 bound_to 10713
  157.7425  130.9891  150.2520 LP  0  0  0  0  0  0  0  0  0  0  0  0  # atno 17371 bound_to 10713
  140.1919  134.4361  155.7711 LP  0  0  0  0  0  0  0  0  0  0  0  0  # atno 17394 bound_to 11000
  141.2225  133.7031  156.8041 LP  0  0  0  0  0  0  0  0  0  0  0  0  # atno 17395 bound_to 11000

$$$$
