AV-unprocessed.smi:2439|AV-procd|sdf|9612|dock1
  -GOLD-   2272013243D 1   1.00000     0.00000
 Structure written by MMmdl.
 40 42  0  0  0  0  0  0  0  0  1 V2000
  154.1119  141.0415  160.9031 N   0  0  0  0  0  0  0  0  0  0  0  0
  153.2937  141.7415  160.4796 C   0  0  0  0  0  0  0  0  0  0  0  0
  152.2630  142.6239  159.9462 C   0  0  0  0  0  0  0  0  0  0  0  0
  151.9794  143.8290  160.6223 C   0  0  0  0  0  0  0  0  0  0  0  0
  150.9850  144.6840  160.1132 C   0  0  0  0  0  0  0  0  0  0  0  0
  150.3101  144.2966  158.9412 C   0  0  0  0  0  0  0  0  0  0  0  0
  150.5711  143.1473  158.2844 N   0  0  0  0  0  0  0  0  0  0  0  0
  151.5296  142.3191  158.7678 C   0  0  0  0  0  0  0  0  0  0  0  0
  151.7789  141.1299  158.0601 N   0  0  0  0  0  0  0  0  0  0  0  0
  150.9122  140.7076  156.9689 C   0  0  0  0  0  0  0  0  0  0  0  0
  151.7264  140.1516  155.7854 C   0  0  1  0  0  0  0  0  0  0  0  0
  152.4070  138.8066  156.1045 C   0  0  0  0  0  0  0  0  0  0  0  0
  151.4601  137.7010  156.1907 N   0  0  0  0  0  0  0  0  0  0  0  0
  152.1473  136.4411  156.4713 C   0  0  0  0  0  0  0  0  0  0  0  0
  151.1751  135.2587  156.6062 C   0  0  0  0  0  0  0  0  0  0  0  0
  150.3211  135.1250  155.3376 C   0  0  0  0  0  0  0  0  0  0  0  0
  149.6441  136.4659  155.0145 C   0  0  0  0  0  0  0  0  0  0  0  0
  150.6780  137.6102  154.9546 C   0  0  1  0  0  0  0  0  0  0  0  0
  149.9799  138.9487  154.6422 C   0  0  0  0  0  0  0  0  0  0  0  0
  150.9309  140.0103  154.6066 O   0  0  0  0  0  0  0  0  0  0  0  0
  152.5147  144.0998  161.5213 H   0  0  0  0  0  0  0  0  0  0  0  0
  150.7453  145.6128  160.6090 H   0  0  0  0  0  0  0  0  0  0  0  0
  149.5398  144.9255  158.5199 H   0  0  0  0  0  0  0  0  0  0  0  0
  152.6516  140.6403  158.1983 H   0  0  0  0  0  0  0  0  0  0  0  0
  150.2443  139.9314  157.3440 H   0  0  0  0  0  0  0  0  0  0  0  0
  150.2801  141.5372  156.6523 H   0  0  0  0  0  0  0  0  0  0  0  0
  152.5113  140.8730  155.5546 H   0  0  0  0  0  0  0  0  0  0  0  0
  153.1417  138.5933  155.3266 H   0  0  0  0  0  0  0  0  0  0  0  0
  152.9655  138.8916  157.0377 H   0  0  0  0  0  0  0  0  0  0  0  0
  152.8673  136.2278  155.6796 H   0  0  0  0  0  0  0  0  0  0  0  0
  152.7221  136.5352  157.3933 H   0  0  0  0  0  0  0  0  0  0  0  0
  151.7273  134.3362  156.7869 H   0  0  0  0  0  0  0  0  0  0  0  0
  150.5298  135.4119  157.4721 H   0  0  0  0  0  0  0  0  0  0  0  0
  150.9527  134.8231  154.5014 H   0  0  0  0  0  0  0  0  0  0  0  0
  149.5727  134.3427  155.4647 H   0  0  0  0  0  0  0  0  0  0  0  0
  149.1104  136.3893  154.0667 H   0  0  0  0  0  0  0  0  0  0  0  0
  148.8943  136.6861  155.7758 H   0  0  0  0  0  0  0  0  0  0  0  0
  151.3609  137.3976  154.1301 H   0  0  0  0  0  0  0  0  0  0  0  0
  149.4856  138.8985  153.6719 H   0  0  0  0  0  0  0  0  0  0  0  0
  149.2017  139.1650  155.3747 H   0  0  0  0  0  0  0  0  0  0  0  0
  1  2  3  0  0  0  0
  2  3  1  0  0  0  0
  3  8  1  0  0  0  0
  3  4  2  0  0  0  0
  4  5  1  0  0  0  0
  4 21  1  0  0  0  0
  5  6  2  0  0  0  0
  5 22  1  0  0  0  0
  6  7  1  0  0  0  0
  6 23  1  0  0  0  0
  7  8  2  0  0  0  0
  8  9  1  0  0  0  0
  9 10  1  0  0  0  0
  9 24  1  0  0  0  0
 10 11  1  0  0  0  0
 10 25  1  0  0  0  0
 10 26  1  0  0  0  0
 11 20  1  0  0  0  0
 11 12  1  0  0  0  0
 11 27  1  0  0  0  0
 12 13  1  0  0  0  0
 12 28  1  0  0  0  0
 12 29  1  0  0  0  0
 13 18  1  0  0  0  0
 13 14  1  0  0  0  0
 14 15  1  0  0  0  0
 14 30  1  0  0  0  0
 14 31  1  0  0  0  0
 15 16  1  0  0  0  0
 15 32  1  0  0  0  0
 15 33  1  0  0  0  0
 16 17  1  0  0  0  0
 16 34  1  0  0  0  0
 16 35  1  0  0  0  0
 17 18  1  0  0  0  0
 17 36  1  0  0  0  0
 17 37  1  0  0  0  0
 18 19  1  0  0  0  0
 18 38  1  0  0  0  0
 19 20  1  0  0  0  0
 19 39  1  0  0  0  0
 19 40  1  0  0  0  0
M  END
> <s_m_source_file>
AV-unprocessed.smi

> <i_m_source_file_index>
2439

> <i_lp_mmshare_version>
43012

> <i_f3d_flags>
0

> <s_epik_input>
TiNDYzFbY0hdW2NIXVtjSF1uYzFbTkhdW0NIMl1bQ0BIXShbQ0gyXTIpT1tDSDJdW0NAQEhdKE4yMylbQ0gyXVtDSDJdW0NIMl1bQ0gyXTM=

> <s_epik_cmdline>
J2VwaWtfcHl0aG9uJywgJy1waCcsICc3LjAnLCAnLXRuJywgJzgnLCAnLW1hJywgJzIwMCcsICctbWV0YWxfYmluZGluZycsICctaW1hZScsICc8aW5maWxlLm1hZT4nLCAnLW9tYWUnLCAnPG91dGZpbGUubWFlPic=

> <r_epik_Ionization_Penalty>
1.22355

> <r_epik_Ionization_Penalty_Charging>
0

> <r_epik_Ionization_Penalty_Neutral>
1.22355

> <r_epik_State_Penalty>
1.29103

> <r_epik_Charging_Adjusted_Penalty>
1.29103

> <i_epik_Tot_Q>
0

> <i_epik_Tot_abs_Q>
0

> <r_epik_Metal_State_Penalty>
1.29103

> <b_epik_Metal_Only>
0

> <s_lp_Force_Field>
OPLS_2005

> <r_lp_Energy>
40.6054

> <b_lp_Chiralities_Consistent>
1

> <s_lp_Variant>
AV-unprocessed.smi:2439-10

> <Gold.Version>
5.8.1

> <Gold.Id.Protein>
6NUR|6NUR_protein|mol2

> <Gold.PLP.Fitness>
43.0264

> <Gold.PLP.PLP>
-37.4200

> <Gold.PLP.part.hbond>
-1.0000

> <Gold.PLP.part.metal>
0.0000

> <Gold.PLP.part.buried>
-5.7458

> <Gold.PLP.part.nonpolar>
-32.1789

> <Gold.PLP.part.repulsive>
0.2939

> <Gold.PLP.ligand.clash>
0.0000

> <Gold.PLP.ligand.torsion>
0.2075

> <Gold.PLP.Chemscore.Hbond>
1.0000

> <Gold.PLP.Chemscore.CHOScore>
1.0034

> <Gold.PLP.Chemscore.Metal>
0.0000

> <Gold.Chemscore.Hbonds>
donor molecule, donor type, donor heavy atom, donor atom, acceptor molecule, acceptor atom, score
      P1  H  7989  7998       L1    20  1.00
      L1  C     6    23       P1  8029  1.00

> <Gold.PLP.Chemscore.Internal.Correction>
0.0113

> <Gold.Rescore>
     Score         DG    S(hbond)    S(metal)    S(lipo)     H(rot)  DE(clash)    DE(int)     intcor
     16.31     -16.62       0.96        0.00      95.10       1.25       0.00       0.30       ----

> <Gold.Chemscore.Fitness>
16.3133

> <Gold.Chemscore.DG>
-16.6157

> <Gold.Chemscore.ZeroCoef>
-5.4800

> <Gold.Chemscore.Hbond>
0.9596

> <Gold.Chemscore.Metal>
0.0000

> <Gold.Chemscore.Lipo>
95.1008

> <Gold.Chemscore.Internal_Hbond>
0.0000

> <Gold.Chemscore.DEClash>
0.0048

> <Gold.Chemscore.DEInternal>
0.2976

> <Gold.Chemscore.Rot>
1.2485

> <Gold.Chemscore.Internal.Correction>
   9.000000E+99

> <Gold.Chemscore.Hbonds>
donor molecule, donor type, donor heavy atom, donor atom, acceptor molecule, acceptor atom, score
      P1  H  7989  7998       L1    20  0.53

> <Gold.Chemscore.Hbond.Weighted>
-3.2051

> <Gold.Chemscore.Metal.Weighted>
-0.0000

> <Gold.Chemscore.Lipo.Weighted>
-11.1268

> <Gold.Chemscore.Internal_Hbond.Weighted>
0.0000

> <Gold.Chemscore.DEClash.Weighted>
0.0048

> <Gold.Chemscore.DEInternal.Weighted>
0.2976

> <Gold.Chemscore.Rot.Weighted>
3.1961

> <Gold.Chemscore.Internal.Correction.Weighted>
   9.000000E+99

> <Gold.Protein.RotatedTorsions>
[ 6907 6896 6895 6894 ] final   26.89 input  -60.11 | X-H torsion
[ 7974 7965 7964 7962 ] final  111.18 input  175.53 | X-H torsion
[ 8008 7997 7996 7995 ] final   57.86 input   59.86 | X-H torsion
[ 10167 10162 10161 10158 ] final  139.12 input  -65.29 | X-H torsion
[ 10718 10713 10712 10709 ] final   31.42 input   66.30 | X-H torsion
[ 10763 10752 10751 10750 ] final  172.06 input  -60.55 | X-H torsion
[ 11005 11000 10999 10996 ] final   77.94 input  -57.11 | X-H torsion

> <Gold.Protein.ActiveResidues>
 VAL166  LYS551  ARG553  GLY616  TRP617  ASP618  TYR619  PRO620  LYS621  CYS622 
 ASP623  PHE694  ASN695  SER759  ASP760  ASP761  ALA762  ILE779  LEU786  VAL792 
 PHE793  MET794  SER795  GLU796  ALA797  LYS798  CYS799  TRP800  GLU811  SER814 

> <Gold.Protein.RotatedAtoms>
  151.9942  134.9963  160.0562 H   0  0  0  0  0  0  0  0  0  0  0  0  # atno 6907 bound_to 6896
  152.1580  133.4559  159.4855 H   0  0  0  0  0  0  0  0  0  0  0  0  # atno 6908 bound_to 6896
  150.6884  134.2024  159.4370 H   0  0  0  0  0  0  0  0  0  0  0  0  # atno 6909 bound_to 6896
  145.2454  139.2761  143.4095 H   0  0  0  0  0  0  0  0  0  0  0  0  # atno 7974 bound_to 7965
  155.5406  140.3484  155.4446 H   0  0  0  0  0  0  0  0  0  0  0  0  # atno 8008 bound_to 7997
  156.0654  140.1350  156.9919 H   0  0  0  0  0  0  0  0  0  0  0  0  # atno 8009 bound_to 7997
  154.4500  140.0977  156.6564 H   0  0  0  0  0  0  0  0  0  0  0  0  # atno 8010 bound_to 7997
  139.5089  144.6314  151.5809 H   0  0  0  0  0  0  0  0  0  0  0  0  # atno 10167 bound_to 10162
  157.2723  130.7214  149.6511 H   0  0  0  0  0  0  0  0  0  0  0  0  # atno 10718 bound_to 10713
  154.4207  135.2758  155.1977 H   0  0  0  0  0  0  0  0  0  0  0  0  # atno 10763 bound_to 10752
  154.3924  135.6063  153.5854 H   0  0  0  0  0  0  0  0  0  0  0  0  # atno 10764 bound_to 10752
  152.9833  135.5906  154.4503 H   0  0  0  0  0  0  0  0  0  0  0  0  # atno 10765 bound_to 10752
  139.9233  134.7723  156.1585 H   0  0  0  0  0  0  0  0  0  0  0  0  # atno 11005 bound_to 11000
  146.3317  140.2830  142.8611 LP  0  0  0  0  0  0  0  0  0  0  0  0  # atno 17320 bound_to 7965
  144.9551  140.8218  143.5548 LP  0  0  0  0  0  0  0  0  0  0  0  0  # atno 17321 bound_to 7965
  140.6047  143.9545  150.6411 LP  0  0  0  0  0  0  0  0  0  0  0  0  # atno 17342 bound_to 10162
  140.2768  143.3417  152.1187 LP  0  0  0  0  0  0  0  0  0  0  0  0  # atno 17343 bound_to 10162
  155.9663  130.4364  150.5131 LP  0  0  0  0  0  0  0  0  0  0  0  0  # atno 17370 bound_to 10713
  157.3058  131.0654  151.2036 LP  0  0  0  0  0  0  0  0  0  0  0  0  # atno 17371 bound_to 10713
  141.0772  133.6770  156.2261 LP  0  0  0  0  0  0  0  0  0  0  0  0  # atno 17394 bound_to 11000
  140.6409  134.5167  157.5569 LP  0  0  0  0  0  0  0  0  0  0  0  0  # atno 17395 bound_to 11000

$$$$
