AV-unprocessed.smi:1424|AV-procd|sdf|5799|dock8
  -GOLD-   22720 5453D 1   1.00000     0.00000
 Structure written by MMmdl.
 45 47  0  0  0  0  0  0  0  0  1 V2000
  150.1933  133.7385  155.5111 O   0  0  0  0  0  0  0  0  0  0  0  0
  149.7752  134.4252  154.5791 C   0  0  0  0  0  0  0  0  0  0  0  0
  150.1098  135.7107  154.3978 N   0  0  0  0  0  0  0  0  0  0  0  0
  150.9834  136.4912  155.2693 C   0  0  0  0  0  0  0  0  0  0  0  0
  150.9889  137.9890  154.9052 C   0  0  2  0  0  0  0  0  0  0  0  0
  151.8414  138.8631  155.8504 C   0  0  0  0  0  0  0  0  0  0  0  0
  151.5280  140.3365  155.5726 C   0  0  0  0  0  0  0  0  0  0  0  0
  149.7529  140.3869  155.1293 S   0  0  0  0  0  0  0  0  0  0  0  0
  148.9652  140.7862  156.3054 O   0  0  0  0  0  0  0  0  0  0  0  0
  149.5988  141.0824  153.8427 O   0  0  0  0  0  0  0  0  0  0  0  0
  149.5696  138.5802  154.8776 C   0  0  0  0  0  0  0  0  0  0  0  0
  148.9239  134.0087  153.6265 N   0  0  0  0  0  0  0  0  0  0  0  0
  148.3124  132.7306  153.4753 C   0  0  0  0  0  0  0  0  0  0  0  0
  148.8015  131.5673  154.1190 C   0  0  0  0  0  0  0  0  0  0  0  0
  148.1488  130.3394  153.9093 C   0  0  0  0  0  0  0  0  0  0  0  0
  147.0336  130.3140  153.0544 C   0  0  0  0  0  0  0  0  0  0  0  0
  146.5656  131.4080  152.4208 N   0  0  0  0  0  0  0  0  0  0  0  0
  147.1846  132.5972  152.6206 C   0  0  0  0  0  0  0  0  0  0  0  0
  146.6929  133.7155  151.9161 N   0  0  0  0  0  0  0  0  0  0  0  0
  145.7797  133.3634  150.8327 C   0  0  0  0  0  0  0  0  0  0  0  0
  144.7335  134.4773  150.7726 C   0  0  0  0  0  0  0  0  0  0  0  0
  144.6771  134.9678  152.2137 C   0  0  0  0  0  0  0  0  0  0  0  0
  146.1313  134.8391  152.6655 C   0  0  0  0  0  0  0  0  0  0  0  0
  149.7149  136.1938  153.6042 H   0  0  0  0  0  0  0  0  0  0  0  0
  150.6184  136.3680  156.2893 H   0  0  0  0  0  0  0  0  0  0  0  0
  151.9995  136.0922  155.2630 H   0  0  0  0  0  0  0  0  0  0  0  0
  151.4034  138.0989  153.9017 H   0  0  0  0  0  0  0  0  0  0  0  0
  151.5790  138.6347  156.8844 H   0  0  0  0  0  0  0  0  0  0  0  0
  152.9076  138.6636  155.7413 H   0  0  0  0  0  0  0  0  0  0  0  0
  151.7239  140.9860  156.4260 H   0  0  0  0  0  0  0  0  0  0  0  0
  152.0994  140.6987  154.7177 H   0  0  0  0  0  0  0  0  0  0  0  0
  149.0467  138.3830  153.9416 H   0  0  0  0  0  0  0  0  0  0  0  0
  148.9658  138.1926  155.6988 H   0  0  0  0  0  0  0  0  0  0  0  0
  148.6033  134.7152  152.9805 H   0  0  0  0  0  0  0  0  0  0  0  0
  149.6716  131.5893  154.7566 H   0  0  0  0  0  0  0  0  0  0  0  0
  148.4992  129.4377  154.3892 H   0  0  0  0  0  0  0  0  0  0  0  0
  146.5076  129.3896  152.8672 H   0  0  0  0  0  0  0  0  0  0  0  0
  146.3104  133.2649  149.8855 H   0  0  0  0  0  0  0  0  0  0  0  0
  145.2946  132.4087  151.0452 H   0  0  0  0  0  0  0  0  0  0  0  0
  145.0829  135.2811  150.1226 H   0  0  0  0  0  0  0  0  0  0  0  0
  143.7686  134.1341  150.3990 H   0  0  0  0  0  0  0  0  0  0  0  0
  144.2911  135.9832  152.3069 H   0  0  0  0  0  0  0  0  0  0  0  0
  144.0435  134.3065  152.8067 H   0  0  0  0  0  0  0  0  0  0  0  0
  146.2113  134.7449  153.7487 H   0  0  0  0  0  0  0  0  0  0  0  0
  146.6871  135.7343  152.3846 H   0  0  0  0  0  0  0  0  0  0  0  0
  1  2  2  0  0  0  0
  2  3  1  0  0  0  0
  2 12  1  0  0  0  0
  3  4  1  0  0  0  0
  3 24  1  0  0  0  0
  4  5  1  0  0  0  0
  4 25  1  0  0  0  0
  4 26  1  0  0  0  0
  5 11  1  0  0  0  0
  5  6  1  0  0  0  0
  5 27  1  0  0  0  0
  6  7  1  0  0  0  0
  6 28  1  0  0  0  0
  6 29  1  0  0  0  0
  7  8  1  0  0  0  0
  7 30  1  0  0  0  0
  7 31  1  0  0  0  0
  8  9  2  0  0  0  0
  8 10  2  0  0  0  0
  8 11  1  0  0  0  0
 11 32  1  0  0  0  0
 11 33  1  0  0  0  0
 12 13  1  0  0  0  0
 12 34  1  0  0  0  0
 13 18  1  0  0  0  0
 13 14  2  0  0  0  0
 14 15  1  0  0  0  0
 14 35  1  0  0  0  0
 15 16  2  0  0  0  0
 15 36  1  0  0  0  0
 16 17  1  0  0  0  0
 16 37  1  0  0  0  0
 17 18  2  0  0  0  0
 18 19  1  0  0  0  0
 19 23  1  0  0  0  0
 19 20  1  0  0  0  0
 20 21  1  0  0  0  0
 20 38  1  0  0  0  0
 20 39  1  0  0  0  0
 21 22  1  0  0  0  0
 21 40  1  0  0  0  0
 21 41  1  0  0  0  0
 22 23  1  0  0  0  0
 22 42  1  0  0  0  0
 22 43  1  0  0  0  0
 23 44  1  0  0  0  0
 23 45  1  0  0  0  0
M  END
> <s_m_source_file>
AV-unprocessed.smi

> <i_m_source_file_index>
1424

> <i_lp_mmshare_version>
43012

> <i_f3d_flags>
0

> <s_epik_input>
Tz1TMSg9TylbQ0gyXVtDSDJdW0NASF0oW0NIMl0xKVtDSDJdW05IXUMoPU8pW05IXWMyW2NIXVtjSF1bY0hdbmMyTjNbQ0gyXVtDSDJdW0NIMl1bQ0gyXTM=

> <s_epik_cmdline>
J2VwaWtfcHl0aG9uJywgJy1waCcsICc3LjAnLCAnLXRuJywgJzgnLCAnLW1hJywgJzIwMCcsICctbWV0YWxfYmluZGluZycsICctaW1hZScsICc8aW5maWxlLm1hZT4nLCAnLW9tYWUnLCAnPG91dGZpbGUubWFlPic=

> <r_lp_tautomer_probability>
1

> <r_epik_Ionization_Penalty>
0.0965651

> <r_epik_Ionization_Penalty_Charging>
0

> <r_epik_Ionization_Penalty_Neutral>
0.0965651

> <r_epik_State_Penalty>
0.0861592

> <r_epik_Charging_Adjusted_Penalty>
0.0861592

> <i_epik_Tot_Q>
0

> <i_epik_Tot_abs_Q>
0

> <r_epik_Metal_State_Penalty>
0.0740444

> <b_epik_Metal_Only>
0

> <s_lp_Force_Field>
OPLS_2005

> <r_lp_Energy>
33.9356

> <b_lp_Chiralities_Consistent>
1

> <s_lp_Variant>
AV-unprocessed.smi:1424-1

> <Gold.Version>
5.8.1

> <Gold.Id.Protein>
6NUR|6NUR_protein|mol2

> <Gold.PLP.Fitness>
44.5485

> <Gold.PLP.PLP>
-35.7299

> <Gold.PLP.part.hbond>
-4.7969

> <Gold.PLP.part.metal>
0.0000

> <Gold.PLP.part.buried>
-1.9645

> <Gold.PLP.part.nonpolar>
-30.6487

> <Gold.PLP.part.repulsive>
2.2850

> <Gold.PLP.ligand.clash>
0.0000

> <Gold.PLP.ligand.torsion>
0.3104

> <Gold.PLP.Chemscore.Hbond>
3.1076

> <Gold.PLP.Chemscore.CHOScore>
0.0000

> <Gold.PLP.Chemscore.Metal>
0.0000

> <Gold.Chemscore.Hbonds>
donor molecule, donor type, donor heavy atom, donor atom, acceptor molecule, acceptor atom, score
      L1  H     3    24       P1  7948  1.00
      L1  H    12    34       P1  7948  0.99
      P1  H  7989  7998       L1    10  0.19
      P1  H  8011  8017       L1    10  0.90

> <Gold.PLP.Chemscore.Internal.Correction>
0.1165

> <Gold.Rescore>
     Score         DG    S(hbond)    S(metal)    S(lipo)     H(rot)  DE(clash)    DE(int)     intcor
     15.27     -16.91       2.25        0.00      65.86       1.47       0.03       1.61       ----

> <Gold.Chemscore.Fitness>
15.2710

> <Gold.Chemscore.DG>
-16.9111

> <Gold.Chemscore.ZeroCoef>
-5.4800

> <Gold.Chemscore.Hbond>
2.2453

> <Gold.Chemscore.Metal>
0.0000

> <Gold.Chemscore.Lipo>
65.8648

> <Gold.Chemscore.Internal_Hbond>
0.0000

> <Gold.Chemscore.DEClash>
0.0308

> <Gold.Chemscore.DEInternal>
1.6093

> <Gold.Chemscore.Rot>
1.4744

> <Gold.Chemscore.Internal.Correction>
   9.000000E+99

> <Gold.Chemscore.Hbonds>
donor molecule, donor type, donor heavy atom, donor atom, acceptor molecule, acceptor atom, score
      L1  H     3    24       P1  7948  0.29
      L1  H    12    34       P1  7948  0.28
      P1  H  7989  7998       L1    10  0.01
      P1  H  8011  8017       L1    10  0.83

> <Gold.Chemscore.Hbond.Weighted>
-7.4994

> <Gold.Chemscore.Metal.Weighted>
-0.0000

> <Gold.Chemscore.Lipo.Weighted>
-7.7062

> <Gold.Chemscore.Internal_Hbond.Weighted>
0.0000

> <Gold.Chemscore.DEClash.Weighted>
0.0308

> <Gold.Chemscore.DEInternal.Weighted>
1.6093

> <Gold.Chemscore.Rot.Weighted>
3.7744

> <Gold.Chemscore.Internal.Correction.Weighted>
   9.000000E+99

> <Gold.Protein.RotatedTorsions>
[ 6907 6896 6895 6894 ] final   68.68 input  -60.11 | X-H torsion
[ 7974 7965 7964 7962 ] final  -28.98 input  175.53 | X-H torsion
[ 8008 7997 7996 7995 ] final  136.31 input   59.86 | X-H torsion
[ 10167 10162 10161 10158 ] final  106.55 input  -65.29 | X-H torsion
[ 10718 10713 10712 10709 ] final  -39.74 input   66.30 | X-H torsion
[ 10763 10752 10751 10750 ] final -140.47 input  -60.55 | X-H torsion
[ 11005 11000 10999 10996 ] final  -14.02 input  -57.11 | X-H torsion

> <Gold.Protein.ActiveResidues>
 VAL166  LYS551  ARG553  GLY616  TRP617  ASP618  TYR619  PRO620  LYS621  CYS622 
 ASP623  PHE694  ASN695  SER759  ASP760  ASP761  ALA762  ILE779  LEU786  VAL792 
 PHE793  MET794  SER795  GLU796  ALA797  LYS798  CYS799  TRP800  GLU811  SER814 

> <Gold.Protein.RotatedAtoms>
  152.4636  134.5126  159.9758 H   0  0  0  0  0  0  0  0  0  0  0  0  # atno 6907 bound_to 6896
  151.5169  133.3468  159.2902 H   0  0  0  0  0  0  0  0  0  0  0  0  # atno 6908 bound_to 6896
  150.8611  134.7992  159.7145 H   0  0  0  0  0  0  0  0  0  0  0  0  # atno 6909 bound_to 6896
  146.1250  140.5353  142.8719 H   0  0  0  0  0  0  0  0  0  0  0  0  # atno 7974 bound_to 7965
  156.3004  140.2448  156.3725 H   0  0  0  0  0  0  0  0  0  0  0  0  # atno 8008 bound_to 7997
  154.8776  140.0414  157.1782 H   0  0  0  0  0  0  0  0  0  0  0  0  # atno 8009 bound_to 7997
  154.8730  140.2938  155.5474 H   0  0  0  0  0  0  0  0  0  0  0  0  # atno 8010 bound_to 7997
  139.7000  144.7095  151.1202 H   0  0  0  0  0  0  0  0  0  0  0  0  # atno 10167 bound_to 10162
  156.2890  130.4226  149.8258 H   0  0  0  0  0  0  0  0  0  0  0  0  # atno 10718 bound_to 10713
  154.8577  135.3552  154.5713 H   0  0  0  0  0  0  0  0  0  0  0  0  # atno 10763 bound_to 10752
  153.6326  135.7001  153.5275 H   0  0  0  0  0  0  0  0  0  0  0  0  # atno 10764 bound_to 10752
  153.3037  135.4199  155.1234 H   0  0  0  0  0  0  0  0  0  0  0  0  # atno 10765 bound_to 10752
  140.7821  133.8354  155.9301 H   0  0  0  0  0  0  0  0  0  0  0  0  # atno 11005 bound_to 11000
  144.7633  140.5473  143.6720 LP  0  0  0  0  0  0  0  0  0  0  0  0  # atno 17320 bound_to 7965
  145.5385  139.1475  143.3460 LP  0  0  0  0  0  0  0  0  0  0  0  0  # atno 17321 bound_to 7965
  140.7707  143.5437  150.9283 LP  0  0  0  0  0  0  0  0  0  0  0  0  # atno 17342 bound_to 10162
  139.9118  143.6710  152.3113 LP  0  0  0  0  0  0  0  0  0  0  0  0  # atno 17343 bound_to 10162
  156.5677  130.8411  151.3347 LP  0  0  0  0  0  0  0  0  0  0  0  0  # atno 17370 bound_to 10713
  157.7337  130.9734  150.1991 LP  0  0  0  0  0  0  0  0  0  0  0  0  # atno 17371 bound_to 10713
  140.9472  134.1825  157.4754 LP  0  0  0  0  0  0  0  0  0  0  0  0  # atno 17394 bound_to 11000
  139.8741  134.9895  156.5460 LP  0  0  0  0  0  0  0  0  0  0  0  0  # atno 17395 bound_to 11000

$$$$
