AV-unprocessed.smi:200|AV-procd|sdf|1576|dock1
  -GOLD-   2262019453D 1   1.00000     0.00000
 Structure written by MMmdl.
 56 59  0  0  0  0  0  0  0  0  1 V2000
  149.8303  138.4664  154.3526 C   0  0  0  0  0  0  0  0  0  0  0  0
  150.8838  139.3449  154.7071 O   0  0  0  0  0  0  0  0  0  0  0  0
  151.3780  139.1017  156.0129 C   0  0  0  0  0  0  0  0  0  0  0  0
  151.7473  140.4488  156.6548 C   0  0  0  0  0  0  0  0  0  0  0  0
  150.5912  141.1690  157.1977 N   0  0  0  0  0  0  0  0  0  0  0  0
  149.4296  141.0588  156.5106 C   0  0  0  0  0  0  0  0  0  0  0  0
  149.3845  141.6321  155.2821 N   0  0  0  0  0  0  0  0  0  0  0  0
  148.2731  141.5507  154.5454 C   0  0  0  0  0  0  0  0  0  0  0  0
  147.1203  140.9459  154.8381 N   0  0  0  0  0  0  0  0  0  0  0  0
  147.1658  140.3555  156.0665 C   0  0  0  0  0  0  0  0  0  0  0  0
  148.2702  140.3672  156.9654 C   0  0  0  0  0  0  0  0  0  0  0  0
  147.9472  139.6602  158.1174 N   0  0  0  0  0  0  0  0  0  0  0  0
  146.7221  139.2606  157.9149 C   0  0  0  0  0  0  0  0  0  0  0  0
  146.1801  139.6198  156.7015 N   0  0  0  0  0  0  0  0  0  0  0  0
  144.8477  139.2911  156.2176 C   0  0  0  0  0  0  0  0  0  0  0  0
  144.8246  138.2201  155.1062 C   0  0  0  0  0  0  0  0  0  0  0  0
  143.3801  137.8873  154.6917 C   0  0  0  0  0  0  0  0  0  0  0  0
  142.7027  139.0321  154.2136 O   0  0  0  0  0  0  0  0  0  0  0  0
  145.7902  138.4526  153.9360 C   0  0  0  0  0  0  0  0  0  0  0  0
  146.3302  137.1186  154.0428 O   0  0  0  0  0  0  0  0  0  0  0  0
  145.7126  136.9891  155.3403 C   0  0  0  0  0  0  0  0  0  0  0  0
  150.7702  142.5056  157.7737 C   0  0  2  0  0  0  0  0  0  0  0  0
  151.4841  143.5095  156.8597 C   0  0  0  0  0  0  0  0  0  0  0  0
  151.9630  144.5828  157.8327 C   0  0  0  0  0  0  0  0  0  0  0  0
  152.4247  143.7926  159.0643 C   0  0  1  0  0  0  0  0  0  0  0  0
  152.4137  144.6131  160.3610 C   0  0  0  0  0  0  0  0  0  0  0  0
  151.5327  142.5375  159.1113 C   0  0  0  0  0  0  0  0  0  0  0  0
  149.4844  138.6976  153.3452 H   0  0  0  0  0  0  0  0  0  0  0  0
  148.9832  138.5710  155.0317 H   0  0  0  0  0  0  0  0  0  0  0  0
  150.1626  137.4277  154.3640 H   0  0  0  0  0  0  0  0  0  0  0  0
  150.6189  138.5836  156.6007 H   0  0  0  0  0  0  0  0  0  0  0  0
  152.2572  138.4574  155.9644 H   0  0  0  0  0  0  0  0  0  0  0  0
  152.4646  140.2659  157.4532 H   0  0  0  0  0  0  0  0  0  0  0  0
  152.2705  141.0695  155.9288 H   0  0  0  0  0  0  0  0  0  0  0  0
  148.3148  142.0368  153.5818 H   0  0  0  0  0  0  0  0  0  0  0  0
  146.1810  138.6757  158.6444 H   0  0  0  0  0  0  0  0  0  0  0  0
  144.2478  138.9676  157.0691 H   0  0  0  0  0  0  0  0  0  0  0  0
  144.3824  140.2143  155.8699 H   0  0  0  0  0  0  0  0  0  0  0  0
  143.3732  137.1412  153.8960 H   0  0  0  0  0  0  0  0  0  0  0  0
  142.8135  137.4513  155.5146 H   0  0  0  0  0  0  0  0  0  0  0  0
  143.3036  139.5395  153.6893 H   0  0  0  0  0  0  0  0  0  0  0  0
  145.2977  138.6312  152.9793 H   0  0  0  0  0  0  0  0  0  0  0  0
  146.5482  139.2129  154.1313 H   0  0  0  0  0  0  0  0  0  0  0  0
  146.4436  137.1082  156.1409 H   0  0  0  0  0  0  0  0  0  0  0  0
  145.1602  136.0556  155.4541 H   0  0  0  0  0  0  0  0  0  0  0  0
  149.7835  142.9243  157.9827 H   0  0  0  0  0  0  0  0  0  0  0  0
  152.3484  143.0575  156.3725 H   0  0  0  0  0  0  0  0  0  0  0  0
  150.8317  143.9075  156.0820 H   0  0  0  0  0  0  0  0  0  0  0  0
  152.7548  145.2040  157.4132 H   0  0  0  0  0  0  0  0  0  0  0  0
  151.1293  145.2367  158.0924 H   0  0  0  0  0  0  0  0  0  0  0  0
  153.4474  143.4617  158.8764 H   0  0  0  0  0  0  0  0  0  0  0  0
  151.4119  144.9769  160.5915 H   0  0  0  0  0  0  0  0  0  0  0  0
  153.0726  145.4780  160.2811 H   0  0  0  0  0  0  0  0  0  0  0  0
  152.7533  144.0137  161.2062 H   0  0  0  0  0  0  0  0  0  0  0  0
  150.8209  142.5782  159.9368 H   0  0  0  0  0  0  0  0  0  0  0  0
  152.1459  141.6521  159.2755 H   0  0  0  0  0  0  0  0  0  0  0  0
  1  2  1  0  0  0  0
  1 28  1  0  0  0  0
  1 29  1  0  0  0  0
  1 30  1  0  0  0  0
  2  3  1  0  0  0  0
  3  4  1  0  0  0  0
  3 31  1  0  0  0  0
  3 32  1  0  0  0  0
  4  5  1  0  0  0  0
  4 33  1  0  0  0  0
  4 34  1  0  0  0  0
  5  6  1  0  0  0  0
  5 22  1  0  0  0  0
  6 11  1  0  0  0  0
  6  7  2  0  0  0  0
  7  8  1  0  0  0  0
  8  9  2  0  0  0  0
  8 35  1  0  0  0  0
  9 10  1  0  0  0  0
 10 14  1  0  0  0  0
 10 11  2  0  0  0  0
 11 12  1  0  0  0  0
 12 13  2  0  0  0  0
 13 14  1  0  0  0  0
 13 36  1  0  0  0  0
 14 15  1  0  0  0  0
 15 16  1  0  0  0  0
 15 37  1  0  0  0  0
 15 38  1  0  0  0  0
 16 21  1  0  0  0  0
 16 17  1  0  0  0  0
 16 19  1  0  0  0  0
 17 18  1  0  0  0  0
 17 39  1  0  0  0  0
 17 40  1  0  0  0  0
 18 41  1  0  0  0  0
 19 20  1  0  0  0  0
 19 42  1  0  0  0  0
 19 43  1  0  0  0  0
 20 21  1  0  0  0  0
 21 44  1  0  0  0  0
 21 45  1  0  0  0  0
 22 27  1  0  0  0  0
 22 23  1  0  0  0  0
 22 46  1  0  0  0  0
 23 24  1  0  0  0  0
 23 47  1  0  0  0  0
 23 48  1  0  0  0  0
 24 25  1  0  0  0  0
 24 49  1  0  0  0  0
 24 50  1  0  0  0  0
 25 26  1  0  0  0  0
 25 27  1  0  0  0  0
 25 51  1  0  0  0  0
 26 52  1  0  0  0  0
 26 53  1  0  0  0  0
 26 54  1  0  0  0  0
 27 55  1  0  0  0  0
 27 56  1  0  0  0  0
M  END
> <s_m_source_file>
AV-unprocessed.smi

> <i_m_source_file_index>
200

> <i_lp_mmshare_version>
43012

> <i_f3d_flags>
0

> <s_epik_input>
W0NIM11bQ0BASF0oW0NIMl0xKVtDSDJdW0NIMl1bQ0BIXTFOKFtDSDJdW0NIMl1PW0NIM10pYyhuW2NIXW4yKWMoYzIzKW5bY0hdbjNbQ0gyXUM0KFtDSDJdW09IXSlbQ0gyXU9bQ0gyXTQ=

> <s_epik_cmdline>
J2VwaWtfcHl0aG9uJywgJy1waCcsICc3LjAnLCAnLXRuJywgJzgnLCAnLW1hJywgJzIwMCcsICctbWV0YWxfYmluZGluZycsICctaW1hZScsICc8aW5maWxlLm1hZT4nLCAnLW9tYWUnLCAnPG91dGZpbGUubWFlPic=

> <r_lp_tautomer_probability>
1

> <r_epik_Ionization_Penalty>
0.00363087

> <r_epik_Ionization_Penalty_Charging>
0

> <r_epik_Ionization_Penalty_Neutral>
0.00363087

> <r_epik_State_Penalty>
0.0024341

> <r_epik_Charging_Adjusted_Penalty>
0.0024341

> <i_epik_Tot_Q>
0

> <i_epik_Tot_abs_Q>
0

> <r_epik_Metal_State_Penalty>
-0

> <b_epik_Metal_Only>
0

> <s_lp_Force_Field>
OPLS_2005

> <r_lp_Energy>
49.2687

> <b_lp_Chiralities_Consistent>
1

> <s_lp_Variant>
AV-unprocessed.smi:200-1

> <Gold.Version>
5.8.1

> <Gold.Id.Protein>
6NUR|6NUR_protein|mol2

> <Gold.PLP.Fitness>
40.0954

> <Gold.PLP.PLP>
-35.6359

> <Gold.PLP.part.hbond>
-2.3984

> <Gold.PLP.part.metal>
0.0000

> <Gold.PLP.part.buried>
-5.7416

> <Gold.PLP.part.nonpolar>
-28.5034

> <Gold.PLP.part.repulsive>
1.1998

> <Gold.PLP.ligand.clash>
0.0000

> <Gold.PLP.ligand.torsion>
1.5026

> <Gold.PLP.Chemscore.Hbond>
2.0000

> <Gold.PLP.Chemscore.CHOScore>
0.0000

> <Gold.PLP.Chemscore.Metal>
0.0000

> <Gold.Chemscore.Hbonds>
donor molecule, donor type, donor heavy atom, donor atom, acceptor molecule, acceptor atom, score
      L1  H    18    41       P1 10175  1.00
      P1  H  7989  7998       L1     2  0.88

> <Gold.PLP.Chemscore.Internal.Correction>
1.4647

> <Gold.Rescore>
     Score         DG    S(hbond)    S(metal)    S(lipo)     H(rot)  DE(clash)    DE(int)     intcor
     12.61     -14.47       1.96        0.00      92.69       3.28       0.11       1.75       ----

> <Gold.Chemscore.Fitness>
12.6133

> <Gold.Chemscore.DG>
-14.4733

> <Gold.Chemscore.ZeroCoef>
-5.4800

> <Gold.Chemscore.Hbond>
1.9566

> <Gold.Chemscore.Metal>
0.0000

> <Gold.Chemscore.Lipo>
92.6930

> <Gold.Chemscore.Internal_Hbond>
0.0000

> <Gold.Chemscore.DEClash>
0.1067

> <Gold.Chemscore.DEInternal>
1.7533

> <Gold.Chemscore.Rot>
3.2761

> <Gold.Chemscore.Internal.Correction>
   9.000000E+99

> <Gold.Chemscore.Hbonds>
donor molecule, donor type, donor heavy atom, donor atom, acceptor molecule, acceptor atom, score
      L1  H    18    41       P1 10175  0.89
      P1  H  7989  7998       L1     2  0.85

> <Gold.Chemscore.Hbond.Weighted>
-6.5350

> <Gold.Chemscore.Metal.Weighted>
-0.0000

> <Gold.Chemscore.Lipo.Weighted>
-10.8451

> <Gold.Chemscore.Internal_Hbond.Weighted>
0.0000

> <Gold.Chemscore.DEClash.Weighted>
0.1067

> <Gold.Chemscore.DEInternal.Weighted>
1.7533

> <Gold.Chemscore.Rot.Weighted>
8.3868

> <Gold.Chemscore.Internal.Correction.Weighted>
   9.000000E+99

> <Gold.Protein.RotatedTorsions>
[ 6907 6896 6895 6894 ] final  122.95 input  -60.11 | X-H torsion
[ 7974 7965 7964 7962 ] final  139.89 input  175.53 | X-H torsion
[ 8008 7997 7996 7995 ] final   22.79 input   59.86 | X-H torsion
[ 10167 10162 10161 10158 ] final -137.17 input  -65.29 | X-H torsion
[ 10718 10713 10712 10709 ] final   84.92 input   66.30 | X-H torsion
[ 10763 10752 10751 10750 ] final -144.87 input  -60.55 | X-H torsion
[ 11005 11000 10999 10996 ] final  -14.84 input  -57.11 | X-H torsion

> <Gold.Protein.ActiveResidues>
 VAL166  LYS551  ARG553  GLY616  TRP617  ASP618  TYR619  PRO620  LYS621  CYS622 
 ASP623  PHE694  ASN695  SER759  ASP760  ASP761  ALA762  ILE779  LEU786  VAL792 
 PHE793  MET794  SER795  GLU796  ALA797  LYS798  CYS799  TRP800  GLU811  SER814 

> <Gold.Protein.RotatedAtoms>
  152.4201  133.7103  159.6474 H   0  0  0  0  0  0  0  0  0  0  0  0  # atno 6907 bound_to 6896
  150.8077  133.8468  159.3203 H   0  0  0  0  0  0  0  0  0  0  0  0  # atno 6908 bound_to 6896
  151.6187  135.1036  160.0148 H   0  0  0  0  0  0  0  0  0  0  0  0  # atno 6909 bound_to 6896
  144.9237  139.5135  143.5651 H   0  0  0  0  0  0  0  0  0  0  0  0  # atno 7974 bound_to 7965
  154.9711  140.3090  155.4988 H   0  0  0  0  0  0  0  0  0  0  0  0  # atno 8008 bound_to 7997
  156.2966  140.2284  156.4742 H   0  0  0  0  0  0  0  0  0  0  0  0  # atno 8009 bound_to 7997
  154.7876  140.0442  157.1164 H   0  0  0  0  0  0  0  0  0  0  0  0  # atno 8010 bound_to 7997
  139.8605  143.7083  152.2650 H   0  0  0  0  0  0  0  0  0  0  0  0  # atno 10167 bound_to 10162
  157.6906  131.0153  150.2744 H   0  0  0  0  0  0  0  0  0  0  0  0  # atno 10718 bound_to 10713
  154.8409  135.3428  154.6415 H   0  0  0  0  0  0  0  0  0  0  0  0  # atno 10763 bound_to 10752
  153.7026  135.6968  153.5063 H   0  0  0  0  0  0  0  0  0  0  0  0  # atno 10764 bound_to 10752
  153.2511  135.4353  155.0753 H   0  0  0  0  0  0  0  0  0  0  0  0  # atno 10765 bound_to 10752
  140.7906  133.8291  155.9376 H   0  0  0  0  0  0  0  0  0  0  0  0  # atno 11005 bound_to 11000
  146.3216  139.8136  142.8941 LP  0  0  0  0  0  0  0  0  0  0  0  0  # atno 17320 bound_to 7965
  145.3254  141.0254  143.3477 LP  0  0  0  0  0  0  0  0  0  0  0  0  # atno 17321 bound_to 7965
  139.7378  144.7567  151.0699 LP  0  0  0  0  0  0  0  0  0  0  0  0  # atno 17342 bound_to 10162
  140.7775  143.5009  150.9773 LP  0  0  0  0  0  0  0  0  0  0  0  0  # atno 17343 bound_to 10162
  156.3302  130.3799  149.7498 LP  0  0  0  0  0  0  0  0  0  0  0  0  # atno 17370 bound_to 10713
  156.5040  130.8142  151.3143 LP  0  0  0  0  0  0  0  0  0  0  0  0  # atno 17371 bound_to 10713
  140.9393  134.1921  157.4809 LP  0  0  0  0  0  0  0  0  0  0  0  0  # atno 17394 bound_to 11000
  139.8731  134.9865  156.5328 LP  0  0  0  0  0  0  0  0  0  0  0  0  # atno 17395 bound_to 11000

$$$$
