AV-unprocessed.smi:21|AV-procd|sdf|135|dock4
  -GOLD-   2262015333D 1   1.00000     0.00000
 Structure written by MMmdl.
 62 65  0  0  0  0  0  0  0  0  2 V2000
  151.4411  145.7924  159.8675 C   0  0  0  0  0  0  0  0  0  0  0  0
  151.1252  145.6764  158.4890 O   0  0  0  0  0  0  0  0  0  0  0  0
  151.5562  144.4536  157.9070 C   0  0  1  0  0  0  0  0  0  0  0  0
  150.7863  143.3031  158.5570 C   0  0  0  0  0  0  0  0  0  0  0  0
  149.6239  143.0465  157.5985 C   0  0  2  0  0  0  0  0  0  0  0  0
  148.9230  141.6782  157.7728 C   0  0  0  0  0  0  0  0  0  0  0  0
  147.6716  141.5826  157.0243 N   0  0  0  0  0  0  0  0  0  0  0  0
  146.7277  142.6958  157.1213 C   0  0  0  0  0  0  0  0  0  0  0  0
  147.4805  140.6302  156.0613 C   0  0  0  0  0  0  0  0  0  0  0  0
  147.8749  140.9225  154.7917 N   0  0  0  0  0  0  0  0  0  0  0  0
  147.7247  140.0421  153.7999 C   0  0  0  0  0  0  0  0  0  0  0  0
  147.2066  138.8166  153.8487 N   0  0  0  0  0  0  0  0  0  0  0  0
  146.7989  138.5047  155.1105 C   0  0  0  0  0  0  0  0  0  0  0  0
  146.8943  139.3390  156.2649 C   0  0  0  0  0  0  0  0  0  0  0  0
  146.3678  138.6571  157.3599 N   0  0  0  0  0  0  0  0  0  0  0  0
  145.9870  137.5043  156.8846 C   0  0  0  0  0  0  0  0  0  0  0  0
  146.2053  137.3304  155.5400 N   0  0  0  0  0  0  0  0  0  0  0  0
  145.8767  136.1503  154.7587 C   0  0  0  0  0  0  0  0  0  0  0  0
  144.6418  136.3507  153.8453 C   0  0  1  0  0  0  0  0  0  0  0  0
  144.7308  135.5308  152.5346 C   0  0  0  0  0  0  0  0  0  0  0  0
  145.8275  135.9389  151.7433 O   0  0  0  0  0  0  0  0  0  0  0  0
  143.3166  136.0950  154.6077 C   0  0  1  0  0  0  0  0  0  0  0  0
  142.0625  136.5393  153.8754 C   0  0  0  0  0  0  0  0  0  0  0  0
  140.9739  135.7633  154.6073 C   0  0  0  0  0  0  0  0  0  0  0  0
  141.5742  134.5291  154.9812 O   0  0  0  0  0  0  0  0  0  0  0  0
  142.9901  134.6165  154.8488 C   0  0  0  0  0  0  0  0  0  0  0  0
  150.1929  143.2932  156.2508 N   0  3  2  0  0  0  0  0  0  0  0  0
  150.7767  142.1108  155.5710 C   0  0  0  0  0  0  0  0  0  0  0  0
  151.1722  144.3937  156.4138 C   0  0  0  0  0  0  0  0  0  0  0  0
  152.6278  144.3120  158.0596 H   0  0  0  0  0  0  0  0  0  0  0  0
  148.8917  143.8402  157.7538 H   0  0  0  0  0  0  0  0  0  0  0  0
  151.0957  146.7567  160.2402 H   0  0  0  0  0  0  0  0  0  0  0  0
  152.5154  145.7308  160.0428 H   0  0  0  0  0  0  0  0  0  0  0  0
  150.9476  145.0135  160.4497 H   0  0  0  0  0  0  0  0  0  0  0  0
  151.4241  142.4198  158.6102 H   0  0  0  0  0  0  0  0  0  0  0  0
  150.4582  143.5342  159.5712 H   0  0  0  0  0  0  0  0  0  0  0  0
  149.5807  140.8563  157.4956 H   0  0  0  0  0  0  0  0  0  0  0  0
  148.7046  141.5110  158.8279 H   0  0  0  0  0  0  0  0  0  0  0  0
  145.7293  142.3333  157.3690 H   0  0  0  0  0  0  0  0  0  0  0  0
  146.6750  143.2428  156.1792 H   0  0  0  0  0  0  0  0  0  0  0  0
  147.0228  143.4021  157.8975 H   0  0  0  0  0  0  0  0  0  0  0  0
  148.0690  140.3666  152.8289 H   0  0  0  0  0  0  0  0  0  0  0  0
  145.5298  136.7454  157.5032 H   0  0  0  0  0  0  0  0  0  0  0  0
  146.7467  135.8677  154.1647 H   0  0  0  0  0  0  0  0  0  0  0  0
  145.7070  135.3330  155.4595 H   0  0  0  0  0  0  0  0  0  0  0  0
  144.6398  137.4003  153.5477 H   0  0  0  0  0  0  0  0  0  0  0  0
  144.8332  134.4670  152.7479 H   0  0  0  0  0  0  0  0  0  0  0  0
  143.8185  135.6301  151.9464 H   0  0  0  0  0  0  0  0  0  0  0  0
  145.5059  136.4838  151.0412 H   0  0  0  0  0  0  0  0  0  0  0  0
  143.3452  136.6051  155.5722 H   0  0  0  0  0  0  0  0  0  0  0  0
  141.8993  137.6167  153.9124 H   0  0  0  0  0  0  0  0  0  0  0  0
  142.1007  136.2335  152.8288 H   0  0  0  0  0  0  0  0  0  0  0  0
  140.6731  136.2925  155.5125 H   0  0  0  0  0  0  0  0  0  0  0  0
  140.0859  135.6075  153.9941 H   0  0  0  0  0  0  0  0  0  0  0  0
  143.2881  134.0086  153.9934 H   0  0  0  0  0  0  0  0  0  0  0  0
  143.4898  134.2203  155.7330 H   0  0  0  0  0  0  0  0  0  0  0  0
  151.5629  141.6545  156.1735 H   0  0  0  0  0  0  0  0  0  0  0  0
  151.2089  142.3995  154.6124 H   0  0  0  0  0  0  0  0  0  0  0  0
  150.0180  141.3573  155.3604 H   0  0  0  0  0  0  0  0  0  0  0  0
  150.6889  145.3204  156.1027 H   0  0  0  0  0  0  0  0  0  0  0  0
  152.0501  144.2658  155.7787 H   0  0  0  0  0  0  0  0  0  0  0  0
  149.4458  143.6221  155.6553 H   0  0  0  0  0  0  0  0  0  0  0  0
  1  2  1  0  0  0  0
  1 32  1  0  0  0  0
  1 33  1  0  0  0  0
  1 34  1  0  0  0  0
  2  3  1  0  0  0  0
  3 30  1  0  0  0  0
  3 29  1  0  0  0  0
  3  4  1  0  0  0  0
  4  5  1  0  0  0  0
  4 35  1  0  0  0  0
  4 36  1  0  0  0  0
  5 31  1  0  0  0  0
  5  6  1  0  0  0  0
  5 27  1  0  0  0  0
  6  7  1  0  0  0  0
  6 37  1  0  0  0  0
  6 38  1  0  0  0  0
  7  8  1  0  0  0  0
  7  9  1  0  0  0  0
  8 39  1  0  0  0  0
  8 40  1  0  0  0  0
  8 41  1  0  0  0  0
  9 14  1  0  0  0  0
  9 10  2  0  0  0  0
 10 11  1  0  0  0  0
 11 12  2  0  0  0  0
 11 42  1  0  0  0  0
 12 13  1  0  0  0  0
 13 17  1  0  0  0  0
 13 14  2  0  0  0  0
 14 15  1  0  0  0  0
 15 16  2  0  0  0  0
 16 17  1  0  0  0  0
 16 43  1  0  0  0  0
 17 18  1  0  0  0  0
 18 19  1  0  0  0  0
 18 44  1  0  0  0  0
 18 45  1  0  0  0  0
 19 20  1  0  0  0  0
 19 22  1  0  0  0  0
 19 46  1  0  0  0  0
 20 21  1  0  0  0  0
 20 47  1  0  0  0  0
 20 48  1  0  0  0  0
 21 49  1  0  0  0  0
 22 26  1  0  0  0  0
 22 23  1  0  0  0  0
 22 50  1  0  0  0  0
 23 24  1  0  0  0  0
 23 51  1  0  0  0  0
 23 52  1  0  0  0  0
 24 25  1  0  0  0  0
 24 53  1  0  0  0  0
 24 54  1  0  0  0  0
 25 26  1  0  0  0  0
 26 55  1  0  0  0  0
 26 56  1  0  0  0  0
 27 28  1  0  0  0  0
 27 29  1  0  0  0  0
 27 62  1  0  0  0  0
 28 57  1  0  0  0  0
 28 58  1  0  0  0  0
 28 59  1  0  0  0  0
 29 60  1  0  0  0  0
 29 61  1  0  0  0  0
M  CHG  1  27   1
M  END
> <s_m_source_file>
AV-unprocessed.smi

> <i_m_source_file_index>
21

> <i_lp_mmshare_version>
43012

> <i_f3d_flags>
0

> <s_epik_input>
W0NIM11PW0NASF0xW0NIMl1bQ0BIXShOKFtDSDNdKVtDSDJdMSlbQ0gyXU4oW0NIM10pYyhuW2NIXW4yKWMoYzIzKW5bY0hdbjNbQ0gyXVtDQEhdKFtDSDJdW09IXSlbQ0BASF00W0NIMl1bQ0gyXU9bQ0gyXTQ=

> <s_epik_cmdline>
J2VwaWtfcHl0aG9uJywgJy1waCcsICc3LjAnLCAnLXRuJywgJzgnLCAnLW1hJywgJzIwMCcsICctbWV0YWxfYmluZGluZycsICctaW1hZScsICc8aW5maWxlLm1hZT4nLCAnLW9tYWUnLCAnPG91dGZpbGUubWFlPic=

> <r_lp_tautomer_probability>
1

> <r_epik_Ionization_Penalty>
0.0157465

> <r_epik_Ionization_Penalty_Charging>
0.015354

> <r_epik_Ionization_Penalty_Neutral>
0.000392529

> <r_epik_State_Penalty>
0.0120612

> <r_epik_Charging_Adjusted_Penalty>
0.0274152

> <i_epik_Tot_Q>
1

> <i_epik_Tot_abs_Q>
1

> <r_epik_Metal_State_Penalty>
0.0121253

> <b_epik_Metal_Only>
0

> <s_lp_Force_Field>
OPLS_2005

> <r_lp_Energy>
62.2742

> <b_lp_Chiralities_Consistent>
1

> <s_lp_Variant>
AV-unprocessed.smi:21-15

> <Gold.Version>
5.8.1

> <Gold.Id.Protein>
6NUR|6NUR_protein|mol2

> <Gold.PLP.Fitness>
47.5527

> <Gold.PLP.PLP>
-36.6963

> <Gold.PLP.part.hbond>
-3.0000

> <Gold.PLP.part.metal>
0.0000

> <Gold.PLP.part.buried>
-7.6075

> <Gold.PLP.part.nonpolar>
-25.9697

> <Gold.PLP.part.repulsive>
0.5351

> <Gold.PLP.ligand.clash>
0.0000

> <Gold.PLP.ligand.torsion>
2.2742

> <Gold.PLP.Chemscore.Hbond>
3.9920

> <Gold.PLP.Chemscore.CHOScore>
1.0000

> <Gold.PLP.Chemscore.Metal>
0.0000

> <Gold.Chemscore.Hbonds>
donor molecule, donor type, donor heavy atom, donor atom, acceptor molecule, acceptor atom, score
      L1  H    27    62       P1  8028  0.28
      P1  H 11000 11005       L1    25  0.07
      L1  C    11    42       P1  7957  1.00

> <Gold.PLP.Chemscore.Internal.Correction>
0.4288

> <Gold.Rescore>
     Score         DG    S(hbond)    S(metal)    S(lipo)     H(rot)  DE(clash)    DE(int)     intcor
     14.11     -16.64       2.68        0.00      86.07       3.08       0.10       2.43       ----

> <Gold.Chemscore.Fitness>
14.1095

> <Gold.Chemscore.DG>
-16.6355

> <Gold.Chemscore.ZeroCoef>
-5.4800

> <Gold.Chemscore.Hbond>
2.6824

> <Gold.Chemscore.Metal>
0.0000

> <Gold.Chemscore.Lipo>
86.0719

> <Gold.Chemscore.Internal_Hbond>
0.0000

> <Gold.Chemscore.DEClash>
0.0961

> <Gold.Chemscore.DEInternal>
2.4299

> <Gold.Chemscore.Rot>
3.0758

> <Gold.Chemscore.Internal.Correction>
   9.000000E+99

> <Gold.Chemscore.Hbonds>
donor molecule, donor type, donor heavy atom, donor atom, acceptor molecule, acceptor atom, score
      L1  H    27    62       P1  8028  0.14

> <Gold.Chemscore.Hbond.Weighted>
-8.9592

> <Gold.Chemscore.Metal.Weighted>
-0.0000

> <Gold.Chemscore.Lipo.Weighted>
-10.0704

> <Gold.Chemscore.Internal_Hbond.Weighted>
0.0000

> <Gold.Chemscore.DEClash.Weighted>
0.0961

> <Gold.Chemscore.DEInternal.Weighted>
2.4299

> <Gold.Chemscore.Rot.Weighted>
7.8741

> <Gold.Chemscore.Internal.Correction.Weighted>
   9.000000E+99

> <Gold.Protein.RotatedTorsions>
[ 6907 6896 6895 6894 ] final -169.34 input  -60.11 | X-H torsion
[ 7974 7965 7964 7962 ] final -163.63 input  175.53 | X-H torsion
[ 8008 7997 7996 7995 ] final -173.87 input   59.86 | X-H torsion
[ 10167 10162 10161 10158 ] final   26.52 input  -65.29 | X-H torsion
[ 10718 10713 10712 10709 ] final -132.29 input   66.30 | X-H torsion
[ 10763 10752 10751 10750 ] final -171.85 input  -60.55 | X-H torsion
[ 11005 11000 10999 10996 ] final   34.65 input  -57.11 | X-H torsion

> <Gold.Protein.ActiveResidues>
 VAL166  LYS551  ARG553  GLY616  TRP617  ASP618  TYR619  PRO620  LYS621  CYS622 
 ASP623  PHE694  ASN695  SER759  ASP760  ASP761  ALA762  ILE779  LEU786  VAL792 
 PHE793  MET794  SER795  GLU796  ALA797  LYS798  CYS799  TRP800  GLU811  SER814 

> <Gold.Protein.RotatedAtoms>
  151.4900  133.3527  159.2851 H   0  0  0  0  0  0  0  0  0  0  0  0  # atno 6907 bound_to 6896
  150.8840  134.8238  159.7257 H   0  0  0  0  0  0  0  0  0  0  0  0  # atno 6908 bound_to 6896
  152.4781  134.4802  159.9715 H   0  0  0  0  0  0  0  0  0  0  0  0  # atno 6909 bound_to 6896
  144.7320  140.3080  143.6193 H   0  0  0  0  0  0  0  0  0  0  0  0  # atno 7974 bound_to 7965
  155.9629  140.1148  157.0880 H   0  0  0  0  0  0  0  0  0  0  0  0  # atno 8008 bound_to 7997
  154.4136  140.1178  156.5270 H   0  0  0  0  0  0  0  0  0  0  0  0  # atno 8009 bound_to 7997
  155.6696  140.3473  155.4816 H   0  0  0  0  0  0  0  0  0  0  0  0  # atno 8010 bound_to 7997
  140.5016  144.0306  150.6335 H   0  0  0  0  0  0  0  0  0  0  0  0  # atno 10167 bound_to 10162
  156.2331  130.7050  151.0879 H   0  0  0  0  0  0  0  0  0  0  0  0  # atno 10718 bound_to 10713
  154.6259  135.2880  155.0273 H   0  0  0  0  0  0  0  0  0  0  0  0  # atno 10763 bound_to 10752
  154.1451  135.6512  153.4954 H   0  0  0  0  0  0  0  0  0  0  0  0  # atno 10764 bound_to 10752
  153.0257  135.5342  154.7067 H   0  0  0  0  0  0  0  0  0  0  0  0  # atno 10765 bound_to 10752
  140.2507  134.3306  155.7891 H   0  0  0  0  0  0  0  0  0  0  0  0  # atno 11005 bound_to 11000
  145.7694  139.1852  143.2221 LP  0  0  0  0  0  0  0  0  0  0  0  0  # atno 17320 bound_to 7965
  146.0923  140.7641  142.9589 LP  0  0  0  0  0  0  0  0  0  0  0  0  # atno 17321 bound_to 7965
  140.3603  143.2912  152.0391 LP  0  0  0  0  0  0  0  0  0  0  0  0  # atno 17342 bound_to 10162
  139.4873  144.6308  151.7074 LP  0  0  0  0  0  0  0  0  0  0  0  0  # atno 17343 bound_to 10162
  157.7142  131.0718  150.6389 LP  0  0  0  0  0  0  0  0  0  0  0  0  # atno 17370 bound_to 10713
  156.6458  130.4471  149.5736 LP  0  0  0  0  0  0  0  0  0  0  0  0  # atno 17371 bound_to 10713
  141.2201  133.7352  156.9032 LP  0  0  0  0  0  0  0  0  0  0  0  0  # atno 17394 bound_to 11000
  140.1561  134.9197  157.2655 LP  0  0  0  0  0  0  0  0  0  0  0  0  # atno 17395 bound_to 11000

$$$$
