AV-unprocessed.smi:100|AV-procd|sdf|902|dock6
  -GOLD-   2262017403D 1   1.00000     0.00000
 Structure written by MMmdl.
 31 33  0  0  0  0  0  0  0  0  1 V2000
  153.6930  137.0125  161.8636 N   0  0  0  0  0  0  0  0  0  0  0  0
  153.8088  137.9205  160.8846 C   0  0  0  0  0  0  0  0  0  0  0  0
  154.6657  138.9525  161.0635 N   0  0  0  0  0  0  0  0  0  0  0  0
  154.7965  139.8722  160.1024 C   0  0  0  0  0  0  0  0  0  0  0  0
  154.1779  139.9390  158.9209 N   0  0  0  0  0  0  0  0  0  0  0  0
  153.3160  138.8952  158.7380 C   0  0  0  0  0  0  0  0  0  0  0  0
  153.0753  137.8498  159.6732 C   0  0  0  0  0  0  0  0  0  0  0  0
  152.1361  136.9638  159.1640 N   0  0  0  0  0  0  0  0  0  0  0  0
  151.8407  137.4608  157.9934 C   0  0  0  0  0  0  0  0  0  0  0  0
  152.5063  138.6184  157.6520 N   0  0  0  0  0  0  0  0  0  0  0  0
  152.3710  139.3961  156.3757 C   0  0  1  0  0  0  0  0  0  0  0  0
  151.6145  138.6482  155.4704 O   0  0  0  0  0  0  0  0  0  0  0  0
  150.6406  139.4883  154.8599 C   0  0  1  0  0  0  0  0  0  0  0  0
  149.4655  138.6595  154.3178 C   0  0  0  0  0  0  0  0  0  0  0  0
  148.5820  139.4843  153.5883 O   0  0  0  0  0  0  0  0  0  0  0  0
  150.2899  140.4988  155.9556 C   0  0  1  0  0  0  0  0  0  0  0  0
  149.4572  139.9438  156.8392 F   0  0  0  0  0  0  0  0  0  0  0  0
  151.6551  140.7496  156.5741 C   0  0  1  0  0  0  0  0  0  0  0  0
  151.5667  141.2173  157.9086 O   0  0  0  0  0  0  0  0  0  0  0  0
  153.0595  136.2338  161.7539 H   0  0  0  0  0  0  0  0  0  0  0  0
  154.2401  137.1077  162.7067 H   0  0  0  0  0  0  0  0  0  0  0  0
  155.4963  140.6685  160.3084 H   0  0  0  0  0  0  0  0  0  0  0  0
  151.1254  136.9882  157.3362 H   0  0  0  0  0  0  0  0  0  0  0  0
  153.3955  139.5069  156.0177 H   0  0  0  0  0  0  0  0  0  0  0  0
  151.1330  140.0081  154.0357 H   0  0  0  0  0  0  0  0  0  0  0  0
  149.8354  137.8799  153.6515 H   0  0  0  0  0  0  0  0  0  0  0  0
  148.9250  138.1605  155.1225 H   0  0  0  0  0  0  0  0  0  0  0  0
  148.9683  139.6646  152.7449 H   0  0  0  0  0  0  0  0  0  0  0  0
  149.8142  141.4029  155.5747 H   0  0  0  0  0  0  0  0  0  0  0  0
  152.1869  141.4908  155.9761 H   0  0  0  0  0  0  0  0  0  0  0  0
  150.9839  141.9607  157.9294 H   0  0  0  0  0  0  0  0  0  0  0  0
  1  2  1  0  0  0  0
  1 20  1  0  0  0  0
  1 21  1  0  0  0  0
  2  7  1  0  0  0  0
  2  3  2  0  0  0  0
  3  4  1  0  0  0  0
  4  5  2  0  0  0  0
  4 22  1  0  0  0  0
  5  6  1  0  0  0  0
  6 10  1  0  0  0  0
  6  7  2  0  0  0  0
  7  8  1  0  0  0  0
  8  9  2  0  0  0  0
  9 10  1  0  0  0  0
  9 23  1  0  0  0  0
 10 11  1  0  0  0  0
 11 18  1  0  0  0  0
 11 12  1  0  0  0  0
 11 24  1  0  0  0  0
 12 13  1  0  0  0  0
 13 14  1  0  0  0  0
 13 16  1  0  0  0  0
 13 25  1  0  0  0  0
 14 15  1  0  0  0  0
 14 26  1  0  0  0  0
 14 27  1  0  0  0  0
 15 28  1  0  0  0  0
 16 17  1  0  0  0  0
 16 18  1  0  0  0  0
 16 29  1  0  0  0  0
 18 19  1  0  0  0  0
 18 30  1  0  0  0  0
 19 31  1  0  0  0  0
M  END
> <s_m_source_file>
AV-unprocessed.smi

> <i_m_source_file_index>
100

> <i_lp_mmshare_version>
43012

> <i_f3d_flags>
0

> <s_epik_input>
bjFbY0hdbmMoW05IMl0pYyhjMTIpbltjSF1uMltDQEBIXTNPW0NAQEhdKFtDSDJdW09IXSlbQ0BIXShGKVtDQEhdM1tPSF0=

> <s_epik_cmdline>
J2VwaWtfcHl0aG9uJywgJy1waCcsICc3LjAnLCAnLXRuJywgJzgnLCAnLW1hJywgJzIwMCcsICctbWV0YWxfYmluZGluZycsICctaW1hZScsICc8aW5maWxlLm1hZT4nLCAnLW9tYWUnLCAnPG91dGZpbGUubWFlPic=

> <r_lp_tautomer_probability>
1

> <r_epik_Ionization_Penalty>
0.000750324

> <r_epik_Ionization_Penalty_Charging>
0

> <r_epik_Ionization_Penalty_Neutral>
0.000750324

> <r_epik_State_Penalty>
-0

> <r_epik_Charging_Adjusted_Penalty>
0

> <i_epik_Tot_Q>
0

> <i_epik_Tot_abs_Q>
0

> <r_epik_Metal_State_Penalty>
-0

> <b_epik_Metal_Only>
0

> <s_epik_Chemistry_Notes>
This compound contains an acetal/aminal-like group ( X-CH(R)-Y where X, Y are N, S, or O) that may be acid/base labile, releasing an aldehyde.

> <s_lp_Force_Field>
OPLS_2005

> <r_lp_Energy>
37.3061

> <b_lp_Chiralities_Consistent>
1

> <s_lp_Variant>
AV-unprocessed.smi:100-6

> <Gold.Version>
5.8.1

> <Gold.Id.Protein>
6NUR|6NUR_protein|mol2

> <Gold.PLP.Fitness>
32.4042

> <Gold.PLP.PLP>
-23.8530

> <Gold.PLP.part.hbond>
-3.0000

> <Gold.PLP.part.metal>
0.0000

> <Gold.PLP.part.buried>
-3.5112

> <Gold.PLP.part.nonpolar>
-17.3986

> <Gold.PLP.part.repulsive>
0.0759

> <Gold.PLP.ligand.clash>
0.0000

> <Gold.PLP.ligand.torsion>
0.2125

> <Gold.PLP.Chemscore.Hbond>
2.9913

> <Gold.PLP.Chemscore.CHOScore>
0.0000

> <Gold.PLP.Chemscore.Metal>
0.0000

> <Gold.Chemscore.Hbonds>
donor molecule, donor type, donor heavy atom, donor atom, acceptor molecule, acceptor atom, score
      L1  H    15    28       P1  7957  1.00
      P1  H  6896  6908       L1     8  0.98
      P1  H  7997  8010       L1     5  1.00

> <Gold.PLP.Chemscore.Internal.Correction>
0.0024

> <Gold.Rescore>
     Score         DG    S(hbond)    S(metal)    S(lipo)     H(rot)  DE(clash)    DE(int)     intcor
     10.43     -10.85       2.96        0.00      31.31       3.19       0.00       0.42       ----

> <Gold.Chemscore.Fitness>
10.4264

> <Gold.Chemscore.DG>
-10.8491

> <Gold.Chemscore.ZeroCoef>
-5.4800

> <Gold.Chemscore.Hbond>
2.9559

> <Gold.Chemscore.Metal>
0.0000

> <Gold.Chemscore.Lipo>
31.3083

> <Gold.Chemscore.Internal_Hbond>
0.0000

> <Gold.Chemscore.DEClash>
0.0000

> <Gold.Chemscore.DEInternal>
0.4228

> <Gold.Chemscore.Rot>
3.1901

> <Gold.Chemscore.Internal.Correction>
   9.000000E+99

> <Gold.Chemscore.Hbonds>
donor molecule, donor type, donor heavy atom, donor atom, acceptor molecule, acceptor atom, score
      L1  H    15    28       P1  7957  1.00
      P1  H  6896  6908       L1     8  0.89
      P1  H  7997  8010       L1     5  0.38

> <Gold.Chemscore.Hbond.Weighted>
-9.8727

> <Gold.Chemscore.Metal.Weighted>
-0.0000

> <Gold.Chemscore.Lipo.Weighted>
-3.6631

> <Gold.Chemscore.Internal_Hbond.Weighted>
0.0000

> <Gold.Chemscore.DEClash.Weighted>
0.0000

> <Gold.Chemscore.DEInternal.Weighted>
0.4228

> <Gold.Chemscore.Rot.Weighted>
8.1667

> <Gold.Chemscore.Internal.Correction.Weighted>
   9.000000E+99

> <Gold.Protein.RotatedTorsions>
[ 6907 6896 6895 6894 ] final -117.58 input  -60.11 | X-H torsion
[ 7974 7965 7964 7962 ] final   75.91 input  175.53 | X-H torsion
[ 8008 7997 7996 7995 ] final    3.45 input   59.86 | X-H torsion
[ 10167 10162 10161 10158 ] final  126.56 input  -65.29 | X-H torsion
[ 10718 10713 10712 10709 ] final -154.21 input   66.30 | X-H torsion
[ 10763 10752 10751 10750 ] final -163.51 input  -60.55 | X-H torsion
[ 11005 11000 10999 10996 ] final  168.27 input  -57.11 | X-H torsion

> <Gold.Protein.ActiveResidues>
 VAL166  LYS551  ARG553  GLY616  TRP617  ASP618  TYR619  PRO620  LYS621  CYS622 
 ASP623  PHE694  ASN695  SER759  ASP760  ASP761  ALA762  ILE779  LEU786  VAL792 
 PHE793  MET794  SER795  GLU796  ALA797  LYS798  CYS799  TRP800  GLU811  SER814 

> <Gold.Protein.RotatedAtoms>
  150.8148  133.8357  159.3165 H   0  0  0  0  0  0  0  0  0  0  0  0  # atno 6907 bound_to 6896
  151.6132  135.1037  160.0095 H   0  0  0  0  0  0  0  0  0  0  0  0  # atno 6908 bound_to 6896
  152.4240  133.7123  159.6542 H   0  0  0  0  0  0  0  0  0  0  0  0  # atno 6909 bound_to 6896
  145.7095  139.2610  143.1659 H   0  0  0  0  0  0  0  0  0  0  0  0  # atno 7974 bound_to 7965
  154.7038  140.2678  155.6694 H   0  0  0  0  0  0  0  0  0  0  0  0  # atno 8008 bound_to 7997
  156.2773  140.2767  156.1581 H   0  0  0  0  0  0  0  0  0  0  0  0  # atno 8009 bound_to 7997
  155.0728  140.0372  157.2604 H   0  0  0  0  0  0  0  0  0  0  0  0  # atno 8010 bound_to 7997
  139.5624  144.6890  151.4004 H   0  0  0  0  0  0  0  0  0  0  0  0  # atno 10167 bound_to 10162
  156.4962  130.8370  151.2591 H   0  0  0  0  0  0  0  0  0  0  0  0  # atno 10718 bound_to 10713
  154.7115  135.3007  154.9189 H   0  0  0  0  0  0  0  0  0  0  0  0  # atno 10763 bound_to 10752
  154.0089  135.6697  153.4768 H   0  0  0  0  0  0  0  0  0  0  0  0  # atno 10764 bound_to 10752
  153.0759  135.5035  154.8317 H   0  0  0  0  0  0  0  0  0  0  0  0  # atno 10765 bound_to 10752
  140.2855  134.7716  157.3794 H   0  0  0  0  0  0  0  0  0  0  0  0  # atno 11005 bound_to 11000
  146.0725  140.7853  142.9681 LP  0  0  0  0  0  0  0  0  0  0  0  0  # atno 17320 bound_to 7965
  144.6946  140.3364  143.7207 LP  0  0  0  0  0  0  0  0  0  0  0  0  # atno 17321 bound_to 7965
  140.6905  143.7872  150.7249 LP  0  0  0  0  0  0  0  0  0  0  0  0  # atno 17342 bound_to 10162
  140.1353  143.4490  152.2228 LP  0  0  0  0  0  0  0  0  0  0  0  0  # atno 17343 bound_to 10162
  157.7468  130.9997  150.2898 LP  0  0  0  0  0  0  0  0  0  0  0  0  # atno 17370 bound_to 10713
  156.3377  130.3810  149.7436 LP  0  0  0  0  0  0  0  0  0  0  0  0  # atno 17371 bound_to 10713
  140.1244  134.5177  155.8157 LP  0  0  0  0  0  0  0  0  0  0  0  0  # atno 17394 bound_to 11000
  141.2155  133.6767  156.6925 LP  0  0  0  0  0  0  0  0  0  0  0  0  # atno 17395 bound_to 11000

$$$$
