AV-unprocessed.smi:956|AV-procd|sdf|4264|dock2
  -GOLD-   22720 2173D 1   1.00000     0.00000
 Structure written by MMmdl.
 42 43  0  0  0  0  0  0  0  0  1 V2000
  145.2724  140.2057  157.3033 C   0  0  0  0  0  0  0  0  0  0  0  0
  145.7053  141.2828  155.8570 S   0  0  1  0  0  0  0  0  0  0  0  0
  146.9411  142.0942  156.2504 O   0  0  0  0  0  0  0  0  0  0  0  0
  146.3665  139.9152  154.8417 C   0  0  0  0  0  0  0  0  0  0  0  0
  145.8194  138.6972  154.7865 N   0  0  0  0  0  0  0  0  0  0  0  0
  146.6227  137.9852  153.9158 N   0  0  0  0  0  0  0  0  0  0  0  0
  147.5678  138.8502  153.5417 C   0  0  0  0  0  0  0  0  0  0  0  0
  147.4653  140.0757  154.0808 N   0  0  0  0  0  0  0  0  0  0  0  0
  148.3274  141.2282  153.8879 C   0  0  0  0  0  0  0  0  0  0  0  0
  149.6139  141.0845  154.7002 C   0  0  0  0  0  0  0  0  0  0  0  0
  150.3873  140.1561  154.4673 O   0  0  0  0  0  0  0  0  0  0  0  0
  149.8264  142.0020  155.6545 N   0  0  0  0  0  0  0  0  0  0  0  0
  150.9792  142.0125  156.5430 C   0  0  0  0  0  0  0  0  0  0  0  0
  150.9800  143.2823  157.4094 C   0  0  0  0  0  0  0  0  0  0  0  0
  151.9259  143.2126  158.6262 C   0  0  0  0  0  0  0  0  0  0  0  0
  151.9895  141.7759  159.1863 C   0  0  0  0  0  0  0  0  0  0  0  0
  152.9318  141.6726  160.3966 C   0  0  0  0  0  0  0  0  0  0  0  0
  152.5267  142.6588  161.5018 C   0  0  0  0  0  0  0  0  0  0  0  0
  152.4666  144.0949  160.9607 C   0  0  0  0  0  0  0  0  0  0  0  0
  151.5264  144.1973  159.7481 C   0  0  0  0  0  0  0  0  0  0  0  0
  144.9426  139.2209  156.9718 H   0  0  0  0  0  0  0  0  0  0  0  0
  144.4675  140.6607  157.8798 H   0  0  0  0  0  0  0  0  0  0  0  0
  146.1377  140.0817  157.9545 H   0  0  0  0  0  0  0  0  0  0  0  0
  148.3584  138.5810  152.8567 H   0  0  0  0  0  0  0  0  0  0  0  0
  148.5697  141.3128  152.8276 H   0  0  0  0  0  0  0  0  0  0  0  0
  147.7929  142.1374  154.1654 H   0  0  0  0  0  0  0  0  0  0  0  0
  149.1391  142.7303  155.7839 H   0  0  0  0  0  0  0  0  0  0  0  0
  150.9515  141.1250  157.1770 H   0  0  0  0  0  0  0  0  0  0  0  0
  151.8868  141.9552  155.9418 H   0  0  0  0  0  0  0  0  0  0  0  0
  151.2348  144.1474  156.7955 H   0  0  0  0  0  0  0  0  0  0  0  0
  149.9627  143.4545  157.7651 H   0  0  0  0  0  0  0  0  0  0  0  0
  152.9283  143.4764  158.2852 H   0  0  0  0  0  0  0  0  0  0  0  0
  150.9900  141.4496  159.4772 H   0  0  0  0  0  0  0  0  0  0  0  0
  152.3234  141.0864  158.4101 H   0  0  0  0  0  0  0  0  0  0  0  0
  152.9251  140.6547  160.7869 H   0  0  0  0  0  0  0  0  0  0  0  0
  153.9561  141.8760  160.0816 H   0  0  0  0  0  0  0  0  0  0  0  0
  151.5527  142.3781  161.9046 H   0  0  0  0  0  0  0  0  0  0  0  0
  153.2335  142.6014  162.3300 H   0  0  0  0  0  0  0  0  0  0  0  0
  152.1344  144.7739  161.7463 H   0  0  0  0  0  0  0  0  0  0  0  0
  153.4678  144.4199  160.6749 H   0  0  0  0  0  0  0  0  0  0  0  0
  151.5419  145.2233  159.3814 H   0  0  0  0  0  0  0  0  0  0  0  0
  150.5019  143.9987  160.0654 H   0  0  0  0  0  0  0  0  0  0  0  0
  1  2  1  0  0  0  0
  1 21  1  0  0  0  0
  1 22  1  0  0  0  0
  1 23  1  0  0  0  0
  2  3  2  0  0  0  0
  2  4  1  0  0  0  0
  4  8  1  0  0  0  0
  4  5  2  0  0  0  0
  5  6  1  0  0  0  0
  6  7  2  0  0  0  0
  7  8  1  0  0  0  0
  7 24  1  0  0  0  0
  8  9  1  0  0  0  0
  9 10  1  0  0  0  0
  9 25  1  0  0  0  0
  9 26  1  0  0  0  0
 10 11  2  0  0  0  0
 10 12  1  0  0  0  0
 12 13  1  0  0  0  0
 12 27  1  0  0  0  0
 13 14  1  0  0  0  0
 13 28  1  0  0  0  0
 13 29  1  0  0  0  0
 14 15  1  0  0  0  0
 14 30  1  0  0  0  0
 14 31  1  0  0  0  0
 15 20  1  0  0  0  0
 15 16  1  0  0  0  0
 15 32  1  0  0  0  0
 16 17  1  0  0  0  0
 16 33  1  0  0  0  0
 16 34  1  0  0  0  0
 17 18  1  0  0  0  0
 17 35  1  0  0  0  0
 17 36  1  0  0  0  0
 18 19  1  0  0  0  0
 18 37  1  0  0  0  0
 18 38  1  0  0  0  0
 19 20  1  0  0  0  0
 19 39  1  0  0  0  0
 19 40  1  0  0  0  0
 20 41  1  0  0  0  0
 20 42  1  0  0  0  0
M  END
> <s_m_source_file>
AV-unprocessed.smi

> <i_m_source_file_index>
956

> <i_lp_mmshare_version>
43012

> <i_f3d_flags>
0

> <s_epik_input>
W0NIM11bU0BdKD1PKWMxbm5bY0hdbjFbQ0gyXUMoPU8pW05IXVtDSDJdW0NIMl1bQ0hdMltDSDJdW0NIMl1bQ0gyXVtDSDJdW0NIMl0y

> <s_epik_cmdline>
J2VwaWtfcHl0aG9uJywgJy1waCcsICc3LjAnLCAnLXRuJywgJzgnLCAnLW1hJywgJzIwMCcsICctbWV0YWxfYmluZGluZycsICctaW1hZScsICc8aW5maWxlLm1hZT4nLCAnLW9tYWUnLCAnPG91dGZpbGUubWFlPic=

> <r_lp_tautomer_probability>
1

> <r_epik_Ionization_Penalty>
7.32521e-08

> <r_epik_Ionization_Penalty_Charging>
0

> <r_epik_Ionization_Penalty_Neutral>
7.32521e-08

> <r_epik_State_Penalty>
-0

> <r_epik_Charging_Adjusted_Penalty>
0

> <i_epik_Tot_Q>
0

> <i_epik_Tot_abs_Q>
0

> <r_epik_Metal_State_Penalty>
-0

> <b_epik_Metal_Only>
0

> <s_lp_Force_Field>
OPLS_2005

> <r_lp_Energy>
10.1233

> <b_lp_Chiralities_Consistent>
1

> <s_lp_Variant>
AV-unprocessed.smi:956-2

> <Gold.Version>
5.8.1

> <Gold.Id.Protein>
6NUR|6NUR_protein|mol2

> <Gold.PLP.Fitness>
46.0522

> <Gold.PLP.PLP>
-36.0063

> <Gold.PLP.part.hbond>
-2.0000

> <Gold.PLP.part.metal>
0.0000

> <Gold.PLP.part.buried>
-2.8696

> <Gold.PLP.part.nonpolar>
-31.1649

> <Gold.PLP.part.repulsive>
0.6109

> <Gold.PLP.ligand.clash>
0.0000

> <Gold.PLP.ligand.torsion>
1.0967

> <Gold.PLP.Chemscore.Hbond>
1.8640

> <Gold.PLP.Chemscore.CHOScore>
1.8526

> <Gold.PLP.Chemscore.Metal>
0.0000

> <Gold.Chemscore.Hbonds>
donor molecule, donor type, donor heavy atom, donor atom, acceptor molecule, acceptor atom, score
      L1  H    12    27       P1  8028  0.85
      P1  H  7989  7998       L1    11  1.00
      L1  C     7    24       P1  7948  0.84
      L1  C     7    24       P1  7957  0.96

> <Gold.PLP.Chemscore.Internal.Correction>
1.0896

> <Gold.Rescore>
     Score         DG    S(hbond)    S(metal)    S(lipo)     H(rot)  DE(clash)    DE(int)     intcor
     14.21     -16.03       1.65        0.00      92.34       2.26       0.10       1.72       ----

> <Gold.Chemscore.Fitness>
14.2080

> <Gold.Chemscore.DG>
-16.0253

> <Gold.Chemscore.ZeroCoef>
-5.4800

> <Gold.Chemscore.Hbond>
1.6514

> <Gold.Chemscore.Metal>
0.0000

> <Gold.Chemscore.Lipo>
92.3384

> <Gold.Chemscore.Internal_Hbond>
0.0000

> <Gold.Chemscore.DEClash>
0.1007

> <Gold.Chemscore.DEInternal>
1.7166

> <Gold.Chemscore.Rot>
2.2554

> <Gold.Chemscore.Internal.Correction>
   9.000000E+99

> <Gold.Chemscore.Hbonds>
donor molecule, donor type, donor heavy atom, donor atom, acceptor molecule, acceptor atom, score
      L1  H    12    27       P1  8028  0.81
      P1  H  7989  7998       L1    11  0.44

> <Gold.Chemscore.Hbond.Weighted>
-5.5155

> <Gold.Chemscore.Metal.Weighted>
-0.0000

> <Gold.Chemscore.Lipo.Weighted>
-10.8036

> <Gold.Chemscore.Internal_Hbond.Weighted>
0.0000

> <Gold.Chemscore.DEClash.Weighted>
0.1007

> <Gold.Chemscore.DEInternal.Weighted>
1.7166

> <Gold.Chemscore.Rot.Weighted>
5.7738

> <Gold.Chemscore.Internal.Correction.Weighted>
   9.000000E+99

> <Gold.Protein.RotatedTorsions>
[ 6907 6896 6895 6894 ] final    2.11 input  -60.11 | X-H torsion
[ 7974 7965 7964 7962 ] final  144.67 input  175.53 | X-H torsion
[ 8008 7997 7996 7995 ] final   67.98 input   59.86 | X-H torsion
[ 10167 10162 10161 10158 ] final -165.46 input  -65.29 | X-H torsion
[ 10718 10713 10712 10709 ] final -160.39 input   66.30 | X-H torsion
[ 10763 10752 10751 10750 ] final   78.35 input  -60.55 | X-H torsion
[ 11005 11000 10999 10996 ] final -171.62 input  -57.11 | X-H torsion

> <Gold.Protein.ActiveResidues>
 VAL166  LYS551  ARG553  GLY616  TRP617  ASP618  TYR619  PRO620  LYS621  CYS622 
 ASP623  PHE694  ASN695  SER759  ASP760  ASP761  ALA762  ILE779  LEU786  VAL792 
 PHE793  MET794  SER795  GLU796  ALA797  LYS798  CYS799  TRP800  GLU811  SER814 

> <Gold.Protein.RotatedAtoms>
  151.6036  135.1045  160.0065 H   0  0  0  0  0  0  0  0  0  0  0  0  # atno 6907 bound_to 6896
  152.4245  133.7168  159.6521 H   0  0  0  0  0  0  0  0  0  0  0  0  # atno 6908 bound_to 6896
  150.8133  133.8309  159.3194 H   0  0  0  0  0  0  0  0  0  0  0  0  # atno 6909 bound_to 6896
  144.8816  139.5690  143.5840 H   0  0  0  0  0  0  0  0  0  0  0  0  # atno 7974 bound_to 7965
  155.7013  140.3495  155.4934 H   0  0  0  0  0  0  0  0  0  0  0  0  # atno 8008 bound_to 7997
  155.9438  140.1106  157.1056 H   0  0  0  0  0  0  0  0  0  0  0  0  # atno 8009 bound_to 7997
  154.4108  140.1207  156.4948 H   0  0  0  0  0  0  0  0  0  0  0  0  # atno 8010 bound_to 7997
  139.6181  144.0680  152.1906 H   0  0  0  0  0  0  0  0  0  0  0  0  # atno 10167 bound_to 10162
  156.5815  130.8731  151.2866 H   0  0  0  0  0  0  0  0  0  0  0  0  # atno 10718 bound_to 10713
  153.0868  135.4880  154.8612 H   0  0  0  0  0  0  0  0  0  0  0  0  # atno 10763 bound_to 10752
  154.7220  135.3041  154.9034 H   0  0  0  0  0  0  0  0  0  0  0  0  # atno 10764 bound_to 10752
  153.9696  135.6803  153.4800 H   0  0  0  0  0  0  0  0  0  0  0  0  # atno 10765 bound_to 10752
  140.5062  134.5846  157.5004 H   0  0  0  0  0  0  0  0  0  0  0  0  # atno 11005 bound_to 11000
  146.2998  139.7391  142.9099 LP  0  0  0  0  0  0  0  0  0  0  0  0  # atno 17320 bound_to 7965
  145.3943  141.0376  143.3106 LP  0  0  0  0  0  0  0  0  0  0  0  0  # atno 17321 bound_to 7965
  140.0315  144.6077  150.7484 LP  0  0  0  0  0  0  0  0  0  0  0  0  # atno 17342 bound_to 10162
  140.7364  143.2752  151.3763 LP  0  0  0  0  0  0  0  0  0  0  0  0  # atno 17343 bound_to 10162
  157.7325  130.9716  150.1932 LP  0  0  0  0  0  0  0  0  0  0  0  0  # atno 17370 bound_to 10713
  156.2627  130.3712  149.8113 LP  0  0  0  0  0  0  0  0  0  0  0  0  # atno 17371 bound_to 10713
  139.9685  134.7333  156.0090 LP  0  0  0  0  0  0  0  0  0  0  0  0  # atno 17394 bound_to 11000
  141.1409  133.6565  156.3728 LP  0  0  0  0  0  0  0  0  0  0  0  0  # atno 17395 bound_to 11000

$$$$
