AV-unprocessed.smi:1236|AV-procd|sdf|5181|dock6
  -GOLD-   22720 4263D 1   1.00000     0.00000
 Structure written by MMmdl.
 40 41  0  0  0  0  0  0  0  0  2 V2000
  146.9743  139.5074  152.7571 C   0  0  0  0  0  0  0  0  0  0  0  0
  146.6127  138.2617  153.5773 C   0  0  2  0  0  0  0  0  0  0  0  0
  147.4853  138.1568  154.8502 C   0  0  0  0  0  0  0  0  0  0  0  0
  148.8004  137.5125  154.6044 N   0  3  0  0  0  0  0  0  0  0  0  0
  149.9396  138.4538  154.7039 C   0  0  0  0  0  0  0  0  0  0  0  0
  151.2537  137.7351  154.3521 C   0  0  0  0  0  0  0  0  0  0  0  0
  151.4297  136.6110  155.2062 O   0  0  0  0  0  0  0  0  0  0  0  0
  150.3792  135.6623  155.0633 C   0  0  0  0  0  0  0  0  0  0  0  0
  149.0423  136.3167  155.4474 C   0  0  0  0  0  0  0  0  0  0  0  0
  146.7552  137.0762  152.7298 N   0  0  0  0  0  0  0  0  0  0  0  0
  145.7785  136.2124  152.4123 C   0  0  0  0  0  0  0  0  0  0  0  0
  144.6246  136.3120  152.8304 O   0  0  0  0  0  0  0  0  0  0  0  0
  146.2305  135.2386  151.6033 N   0  0  0  0  0  0  0  0  0  0  0  0
  145.5198  134.1141  151.1051 C   0  0  0  0  0  0  0  0  0  0  0  0
  146.3262  133.0844  150.5699 C   0  0  0  0  0  0  0  0  0  0  0  0
  145.7169  131.9238  150.0550 C   0  0  0  0  0  0  0  0  0  0  0  0
  144.3148  131.8227  150.0889 C   0  0  0  0  0  0  0  0  0  0  0  0
  143.5858  132.8927  150.6397 C   0  0  0  0  0  0  0  0  0  0  0  0
  144.1679  134.0052  151.1356 N   0  0  0  0  0  0  0  0  0  0  0  0
  146.8359  140.4160  153.3439 H   0  0  0  0  0  0  0  0  0  0  0  0
  146.3446  139.5913  151.8706 H   0  0  0  0  0  0  0  0  0  0  0  0
  148.0133  139.4801  152.4265 H   0  0  0  0  0  0  0  0  0  0  0  0
  145.5662  138.3690  153.8659 H   0  0  0  0  0  0  0  0  0  0  0  0
  147.6483  139.1660  155.2321 H   0  0  0  0  0  0  0  0  0  0  0  0
  146.9568  137.6179  155.6381 H   0  0  0  0  0  0  0  0  0  0  0  0
  149.7896  139.2932  154.0239 H   0  0  0  0  0  0  0  0  0  0  0  0
  149.9914  138.8622  155.7145 H   0  0  0  0  0  0  0  0  0  0  0  0
  151.2552  137.4168  153.3083 H   0  0  0  0  0  0  0  0  0  0  0  0
  152.0983  138.4120  154.4805 H   0  0  0  0  0  0  0  0  0  0  0  0
  150.3484  135.2844  154.0399 H   0  0  0  0  0  0  0  0  0  0  0  0
  150.5811  134.8102  155.7121 H   0  0  0  0  0  0  0  0  0  0  0  0
  149.0549  136.6034  156.5001 H   0  0  0  0  0  0  0  0  0  0  0  0
  148.2366  135.5936  155.3234 H   0  0  0  0  0  0  0  0  0  0  0  0
  147.6714  136.9135  152.3376 H   0  0  0  0  0  0  0  0  0  0  0  0
  147.1986  135.2977  151.3235 H   0  0  0  0  0  0  0  0  0  0  0  0
  147.4024  133.1780  150.5511 H   0  0  0  0  0  0  0  0  0  0  0  0
  146.3157  131.1256  149.6416 H   0  0  0  0  0  0  0  0  0  0  0  0
  143.8115  130.9485  149.7031 H   0  0  0  0  0  0  0  0  0  0  0  0
  142.5076  132.8548  150.6849 H   0  0  0  0  0  0  0  0  0  0  0  0
  148.7831  137.1929  153.6462 H   0  0  0  0  0  0  0  0  0  0  0  0
  1  2  1  0  0  0  0
  1 20  1  0  0  0  0
  1 21  1  0  0  0  0
  1 22  1  0  0  0  0
  2  3  1  0  0  0  0
  2 10  1  0  0  0  0
  2 23  1  0  0  0  0
  3  4  1  0  0  0  0
  3 24  1  0  0  0  0
  3 25  1  0  0  0  0
  4  9  1  0  0  0  0
  4  5  1  0  0  0  0
  4 40  1  0  0  0  0
  5  6  1  0  0  0  0
  5 26  1  0  0  0  0
  5 27  1  0  0  0  0
  6  7  1  0  0  0  0
  6 28  1  0  0  0  0
  6 29  1  0  0  0  0
  7  8  1  0  0  0  0
  8  9  1  0  0  0  0
  8 30  1  0  0  0  0
  8 31  1  0  0  0  0
  9 32  1  0  0  0  0
  9 33  1  0  0  0  0
 10 11  1  0  0  0  0
 10 34  1  0  0  0  0
 11 12  2  0  0  0  0
 11 13  1  0  0  0  0
 13 14  1  0  0  0  0
 13 35  1  0  0  0  0
 14 19  1  0  0  0  0
 14 15  2  0  0  0  0
 15 16  1  0  0  0  0
 15 36  1  0  0  0  0
 16 17  2  0  0  0  0
 16 37  1  0  0  0  0
 17 18  1  0  0  0  0
 17 38  1  0  0  0  0
 18 19  2  0  0  0  0
 18 39  1  0  0  0  0
M  CHG  1   4   1
M  END
> <s_m_source_file>
AV-unprocessed.smi

> <i_m_source_file_index>
1236

> <i_lp_mmshare_version>
43012

> <i_f3d_flags>
0

> <s_epik_input>
W0NIMl0xW0NIMl1PW0NIMl1bQ0gyXU4xW0NIMl1bQ0BASF0oW0NIM10pW05IXUMoPU8pW05IXWMyW2NIXVtjSF1bY0hdW2NIXW4y

> <s_epik_cmdline>
J2VwaWtfcHl0aG9uJywgJy1waCcsICc3LjAnLCAnLXRuJywgJzgnLCAnLW1hJywgJzIwMCcsICctbWV0YWxfYmluZGluZycsICctaW1hZScsICc8aW5maWxlLm1hZT4nLCAnLW9tYWUnLCAnPG91dGZpbGUubWFlPic=

> <r_epik_Ionization_Penalty>
0.602564

> <r_epik_Ionization_Penalty_Charging>
0.602531

> <r_epik_Ionization_Penalty_Neutral>
3.36306e-05

> <r_epik_State_Penalty>
0.617039

> <r_epik_Charging_Adjusted_Penalty>
1.21957

> <i_epik_Tot_Q>
1

> <i_epik_Tot_abs_Q>
1

> <r_epik_Metal_State_Penalty>
0.617041

> <b_epik_Metal_Only>
0

> <s_lp_Force_Field>
OPLS_2005

> <r_lp_Energy>
24.2739

> <b_lp_Chiralities_Consistent>
1

> <s_lp_Variant>
AV-unprocessed.smi:1236-3

> <Gold.Version>
5.8.1

> <Gold.Id.Protein>
6NUR|6NUR_protein|mol2

> <Gold.PLP.Fitness>
46.0027

> <Gold.PLP.PLP>
-30.7739

> <Gold.PLP.part.hbond>
-3.9197

> <Gold.PLP.part.metal>
0.0000

> <Gold.PLP.part.buried>
-3.5829

> <Gold.PLP.part.nonpolar>
-25.7328

> <Gold.PLP.part.repulsive>
0.4961

> <Gold.PLP.ligand.clash>
0.0000

> <Gold.PLP.ligand.torsion>
1.0266

> <Gold.PLP.Chemscore.Hbond>
4.8480

> <Gold.PLP.Chemscore.CHOScore>
0.9063

> <Gold.PLP.Chemscore.Metal>
0.0000

> <Gold.Chemscore.Hbonds>
donor molecule, donor type, donor heavy atom, donor atom, acceptor molecule, acceptor atom, score
      L1  H     4    40       P1  7948  2.00
      L1  H    10    34       P1  7948  0.98
      L1  H    13    35       P1  7948  0.85
      P1  H 10752 10765       L1     7  1.00
      L1  C    18    39       P1 10186  0.91

> <Gold.PLP.Chemscore.Internal.Correction>
0.0191

> <Gold.Rescore>
     Score         DG    S(hbond)    S(metal)    S(lipo)     H(rot)  DE(clash)    DE(int)     intcor
     19.10     -21.62       3.41        0.00      74.64       1.56       0.12       2.40       ----

> <Gold.Chemscore.Fitness>
19.0964

> <Gold.Chemscore.DG>
-21.6203

> <Gold.Chemscore.ZeroCoef>
-5.4800

> <Gold.Chemscore.Hbond>
3.4123

> <Gold.Chemscore.Metal>
0.0000

> <Gold.Chemscore.Lipo>
74.6394

> <Gold.Chemscore.Internal_Hbond>
0.0000

> <Gold.Chemscore.DEClash>
0.1228

> <Gold.Chemscore.DEInternal>
2.4010

> <Gold.Chemscore.Rot>
1.5584

> <Gold.Chemscore.Internal.Correction>
   9.000000E+99

> <Gold.Chemscore.Hbonds>
donor molecule, donor type, donor heavy atom, donor atom, acceptor molecule, acceptor atom, score
      L1  H     4    40       P1  7948  0.94
      L1  H    10    34       P1  7948  0.91
      L1  H    13    35       P1  7948  0.68
      P1  H 10752 10765       L1     7  0.29

> <Gold.Chemscore.Hbond.Weighted>
-11.3971

> <Gold.Chemscore.Metal.Weighted>
-0.0000

> <Gold.Chemscore.Lipo.Weighted>
-8.7328

> <Gold.Chemscore.Internal_Hbond.Weighted>
0.0000

> <Gold.Chemscore.DEClash.Weighted>
0.1228

> <Gold.Chemscore.DEInternal.Weighted>
2.4010

> <Gold.Chemscore.Rot.Weighted>
3.9896

> <Gold.Chemscore.Internal.Correction.Weighted>
   9.000000E+99

> <Gold.Protein.RotatedTorsions>
[ 6907 6896 6895 6894 ] final -102.70 input  -60.11 | X-H torsion
[ 7974 7965 7964 7962 ] final   69.54 input  175.53 | X-H torsion
[ 8008 7997 7996 7995 ] final  105.26 input   59.86 | X-H torsion
[ 10167 10162 10161 10158 ] final  175.08 input  -65.29 | X-H torsion
[ 10718 10713 10712 10709 ] final    2.10 input   66.30 | X-H torsion
[ 10763 10752 10751 10750 ] final -169.13 input  -60.55 | X-H torsion
[ 11005 11000 10999 10996 ] final -134.86 input  -57.11 | X-H torsion

> <Gold.Protein.ActiveResidues>
 VAL166  LYS551  ARG553  GLY616  TRP617  ASP618  TYR619  PRO620  LYS621  CYS622 
 ASP623  PHE694  ASN695  SER759  ASP760  ASP761  ALA762  ILE779  LEU786  VAL792 
 PHE793  MET794  SER795  GLU796  ALA797  LYS798  CYS799  TRP800  GLU811  SER814 

> <Gold.Protein.RotatedAtoms>
  150.7207  134.0541  159.3808 H   0  0  0  0  0  0  0  0  0  0  0  0  # atno 6907 bound_to 6896
  151.8519  135.0552  160.0469 H   0  0  0  0  0  0  0  0  0  0  0  0  # atno 6908 bound_to 6896
  152.2784  133.5411  159.5519 H   0  0  0  0  0  0  0  0  0  0  0  0  # atno 6909 bound_to 6896
  145.7892  139.2925  143.1220 H   0  0  0  0  0  0  0  0  0  0  0  0  # atno 7974 bound_to 7965
  156.1644  140.3133  155.8863 H   0  0  0  0  0  0  0  0  0  0  0  0  # atno 8008 bound_to 7997
  155.3717  140.0482  157.3062 H   0  0  0  0  0  0  0  0  0  0  0  0  # atno 8009 bound_to 7997
  154.5178  140.2187  155.9044 H   0  0  0  0  0  0  0  0  0  0  0  0  # atno 8010 bound_to 7997
  139.5164  144.3073  152.0324 H   0  0  0  0  0  0  0  0  0  0  0  0  # atno 10167 bound_to 10162
  156.8581  130.5577  149.5665 H   0  0  0  0  0  0  0  0  0  0  0  0  # atno 10718 bound_to 10713
  154.6555  135.2917  154.9933 H   0  0  0  0  0  0  0  0  0  0  0  0  # atno 10763 bound_to 10752
  154.1010  135.6576  153.4872 H   0  0  0  0  0  0  0  0  0  0  0  0  # atno 10764 bound_to 10752
  153.0400  135.5242  154.7483 H   0  0  0  0  0  0  0  0  0  0  0  0  # atno 10765 bound_to 10752
  140.8951  134.1762  157.4500 H   0  0  0  0  0  0  0  0  0  0  0  0  # atno 11005 bound_to 11000
  145.9995  140.8533  143.0026 LP  0  0  0  0  0  0  0  0  0  0  0  0  # atno 17320 bound_to 7965
  144.6784  140.2331  143.7353 LP  0  0  0  0  0  0  0  0  0  0  0  0  # atno 17321 bound_to 7965
  140.2518  144.4160  150.6219 LP  0  0  0  0  0  0  0  0  0  0  0  0  # atno 17342 bound_to 10162
  140.6219  143.2177  151.6677 LP  0  0  0  0  0  0  0  0  0  0  0  0  # atno 17343 bound_to 10162
  156.0792  130.5806  150.9530 LP  0  0  0  0  0  0  0  0  0  0  0  0  # atno 17370 bound_to 10713
  157.6266  131.0925  150.8522 LP  0  0  0  0  0  0  0  0  0  0  0  0  # atno 17371 bound_to 10713
  139.8734  134.9875  156.5370 LP  0  0  0  0  0  0  0  0  0  0  0  0  # atno 17394 bound_to 11000
  140.8299  133.8287  155.8974 LP  0  0  0  0  0  0  0  0  0  0  0  0  # atno 17395 bound_to 11000

$$$$
