AV-unprocessed.smi:1875|AV-procd|sdf|7617|dock7
  -GOLD-   22720 9343D 1   1.00000     0.00000
 Structure written by MMmdl.
 49 51  0  0  0  0  0  0  0  0  3 V2000
  145.6566  134.1308  154.6304 C   0  0  0  0  0  0  0  0  0  0  0  0
  147.1712  134.1210  154.6515 C   0  0  0  0  0  0  0  0  0  0  0  0
  147.7748  132.9744  154.3236 N   0  0  0  0  0  0  0  0  0  0  0  0
  149.1255  132.9664  154.3388 C   0  0  0  0  0  0  0  0  0  0  0  0
  149.8694  134.1129  154.6851 C   0  0  0  0  0  0  0  0  0  0  0  0
  149.1225  135.2650  155.0085 C   0  0  0  0  0  0  0  0  0  0  0  0
  149.7985  136.5577  155.4147 C   0  0  0  0  0  0  0  0  0  0  0  0
  150.5874  137.0945  154.2906 N   0  3  0  0  0  0  0  0  0  0  0  0
  151.0498  138.4838  154.4825 C   0  0  0  0  0  0  0  0  0  0  0  0
  152.2424  138.5436  155.4514 C   0  0  1  0  0  0  0  0  0  0  0  0
  153.2189  139.4202  154.9220 O   0  0  0  0  0  0  0  0  0  0  0  0
  151.8311  139.0288  156.8568 C   0  0  0  0  0  0  0  0  0  0  0  0
  151.3403  140.4142  156.8620 N   0  0  0  0  0  0  0  0  0  0  0  0
  150.5892  141.0828  155.9442 C   0  0  0  0  0  0  0  0  0  0  0  0
  150.4110  142.3515  156.4054 N   0  3  0  0  0  0  0  0  0  0  0  0
  151.0522  142.4943  157.6377 C   0  0  0  0  0  0  0  0  0  0  0  0
  151.1559  143.5875  158.4896 C   0  0  0  0  0  0  0  0  0  0  0  0
  151.8851  143.4057  159.6864 C   0  0  0  0  0  0  0  0  0  0  0  0
  152.0184  144.5810  160.6398 C   0  0  0  0  0  0  0  0  0  0  0  0
  152.4797  142.1549  159.9963 C   0  0  0  0  0  0  0  0  0  0  0  0
  153.2562  141.9690  161.2887 C   0  0  0  0  0  0  0  0  0  0  0  0
  152.3643  141.0554  159.1156 C   0  0  0  0  0  0  0  0  0  0  0  0
  151.6452  141.2532  157.9394 C   0  0  0  0  0  0  0  0  0  0  0  0
  147.7708  135.2652  154.9956 N   0  0  0  0  0  0  0  0  0  0  0  0
  145.2527  133.1250  154.5088 H   0  0  0  0  0  0  0  0  0  0  0  0
  145.2957  134.7446  153.8047 H   0  0  0  0  0  0  0  0  0  0  0  0
  145.2643  134.5417  155.5611 H   0  0  0  0  0  0  0  0  0  0  0  0
  149.6156  132.0406  154.0759 H   0  0  0  0  0  0  0  0  0  0  0  0
  150.9494  134.1028  154.6989 H   0  0  0  0  0  0  0  0  0  0  0  0
  149.0484  137.2874  155.7221 H   0  0  0  0  0  0  0  0  0  0  0  0
  150.4480  136.3776  156.2728 H   0  0  0  0  0  0  0  0  0  0  0  0
  151.3929  136.4994  154.1587 H   0  0  0  0  0  0  0  0  0  0  0  0
  151.3141  138.9255  153.5204 H   0  0  0  0  0  0  0  0  0  0  0  0
  150.2196  139.0666  154.8838 H   0  0  0  0  0  0  0  0  0  0  0  0
  152.6878  137.5513  155.5325 H   0  0  0  0  0  0  0  0  0  0  0  0
  152.7880  140.0652  154.3818 H   0  0  0  0  0  0  0  0  0  0  0  0
  151.0368  138.3986  157.2596 H   0  0  0  0  0  0  0  0  0  0  0  0
  152.6662  138.9588  157.5551 H   0  0  0  0  0  0  0  0  0  0  0  0
  150.2085  140.6832  155.0152 H   0  0  0  0  0  0  0  0  0  0  0  0
  150.6988  144.5361  158.2480 H   0  0  0  0  0  0  0  0  0  0  0  0
  151.5492  144.3523  161.5968 H   0  0  0  0  0  0  0  0  0  0  0  0
  151.5415  145.4761  160.2397 H   0  0  0  0  0  0  0  0  0  0  0  0
  153.0683  144.8161  160.8158 H   0  0  0  0  0  0  0  0  0  0  0  0
  153.6358  140.9512  161.3835 H   0  0  0  0  0  0  0  0  0  0  0  0
  152.6184  142.1677  162.1504 H   0  0  0  0  0  0  0  0  0  0  0  0
  154.1092  142.6469  161.3244 H   0  0  0  0  0  0  0  0  0  0  0  0
  152.8164  140.1038  159.3517 H   0  0  0  0  0  0  0  0  0  0  0  0
  150.0202  137.0556  153.4557 H   0  0  0  0  0  0  0  0  0  0  0  0
  149.8898  143.0662  155.9131 H   0  0  0  0  0  0  0  0  0  0  0  0
  1  2  1  0  0  0  0
  1 25  1  0  0  0  0
  1 26  1  0  0  0  0
  1 27  1  0  0  0  0
  2 24  1  0  0  0  0
  2  3  2  0  0  0  0
  3  4  1  0  0  0  0
  4  5  2  0  0  0  0
  4 28  1  0  0  0  0
  5  6  1  0  0  0  0
  5 29  1  0  0  0  0
  6  7  1  0  0  0  0
  6 24  2  0  0  0  0
  7  8  1  0  0  0  0
  7 30  1  0  0  0  0
  7 31  1  0  0  0  0
  8  9  1  0  0  0  0
  8 32  1  0  0  0  0
  8 48  1  0  0  0  0
  9 10  1  0  0  0  0
  9 33  1  0  0  0  0
  9 34  1  0  0  0  0
 10 11  1  0  0  0  0
 10 12  1  0  0  0  0
 10 35  1  0  0  0  0
 11 36  1  0  0  0  0
 12 13  1  0  0  0  0
 12 37  1  0  0  0  0
 12 38  1  0  0  0  0
 13 23  1  0  0  0  0
 13 14  1  0  0  0  0
 14 15  2  0  0  0  0
 14 39  1  0  0  0  0
 15 16  1  0  0  0  0
 15 49  1  0  0  0  0
 16 23  2  0  0  0  0
 16 17  1  0  0  0  0
 17 18  2  0  0  0  0
 17 40  1  0  0  0  0
 18 19  1  0  0  0  0
 18 20  1  0  0  0  0
 19 41  1  0  0  0  0
 19 42  1  0  0  0  0
 19 43  1  0  0  0  0
 20 21  1  0  0  0  0
 20 22  2  0  0  0  0
 21 44  1  0  0  0  0
 21 45  1  0  0  0  0
 21 46  1  0  0  0  0
 22 23  1  0  0  0  0
 22 47  1  0  0  0  0
M  CHG  1   8   1
M  CHG  1  15   1
M  END
> <s_m_source_file>
AV-unprocessed.smi

> <i_m_source_file_index>
1875

> <i_lp_mmshare_version>
43012

> <i_f3d_flags>
0

> <s_epik_input>
W0NIM11jMW5bY0hdW2NIXWMobjEpW0NIMl1bTkhdW0NIMl1bQ0BIXShbT0hdKVtDSDJdbihbY0hdbjIpYyhjMjMpW2NIXWMoW0NIM10pYyhbY0hdMylbQ0gzXQ==

> <s_epik_cmdline>
J2VwaWtfcHl0aG9uJywgJy1waCcsICc3LjAnLCAnLXRuJywgJzgnLCAnLW1hJywgJzIwMCcsICctbWV0YWxfYmluZGluZycsICctaW1hZScsICc8aW5maWxlLm1hZT4nLCAnLW9tYWUnLCAnPG91dGZpbGUubWFlPic=

> <r_lp_tautomer_probability>
1

> <r_epik_Ionization_Penalty>
1.27527

> <r_epik_Ionization_Penalty_Charging>
1.27526

> <r_epik_Ionization_Penalty_Neutral>
8.72389e-06

> <r_epik_State_Penalty>
1.28654

> <r_epik_Charging_Adjusted_Penalty>
2.5618

> <i_epik_Tot_Q>
2

> <i_epik_Tot_abs_Q>
2

> <r_epik_Metal_State_Penalty>
1.36882

> <b_epik_Metal_Only>
0

> <s_epik_Chemistry_Notes>
This compound contains an electron-poor aromatic ring that is susceptible to covalent hydrolysis at low pH, typically resulting in measured values for nitrogen ring protonation that are around two units higher than predicted values.

> <s_lp_Force_Field>
OPLS_2005

> <r_lp_Energy>
13.7453

> <b_lp_Chiralities_Consistent>
1

> <s_lp_Variant>
AV-unprocessed.smi:1875-6

> <Gold.Version>
5.8.1

> <Gold.Id.Protein>
6NUR|6NUR_protein|mol2

> <Gold.PLP.Fitness>
63.5988

> <Gold.PLP.PLP>
-50.7604

> <Gold.PLP.part.hbond>
-5.0000

> <Gold.PLP.part.metal>
0.0000

> <Gold.PLP.part.buried>
-7.4933

> <Gold.PLP.part.nonpolar>
-39.4562

> <Gold.PLP.part.repulsive>
0.2952

> <Gold.PLP.ligand.clash>
0.0000

> <Gold.PLP.ligand.torsion>
1.0764

> <Gold.PLP.Chemscore.Hbond>
4.9825

> <Gold.PLP.Chemscore.CHOScore>
0.0000

> <Gold.PLP.Chemscore.Metal>
0.0000

> <Gold.Chemscore.Hbonds>
donor molecule, donor type, donor heavy atom, donor atom, acceptor molecule, acceptor atom, score
      L1  H     8    48       P1  7948  1.95
      L1  H    15    49       P1  8028  2.00
      P1  H  7997  8008       L1    11  1.00

> <Gold.PLP.Chemscore.Internal.Correction>
0.0437

> <Gold.Rescore>
     Score         DG    S(hbond)    S(metal)    S(lipo)     H(rot)  DE(clash)    DE(int)     intcor
     19.00     -20.04       2.48        0.00     116.79       2.88       0.00       1.03       ----

> <Gold.Chemscore.Fitness>
19.0047

> <Gold.Chemscore.DG>
-20.0385

> <Gold.Chemscore.ZeroCoef>
-5.4800

> <Gold.Chemscore.Hbond>
2.4782

> <Gold.Chemscore.Metal>
0.0000

> <Gold.Chemscore.Lipo>
116.7857

> <Gold.Chemscore.Internal_Hbond>
0.0000

> <Gold.Chemscore.DEClash>
0.0000

> <Gold.Chemscore.DEInternal>
1.0339

> <Gold.Chemscore.Rot>
2.8838

> <Gold.Chemscore.Internal.Correction>
   9.000000E+99

> <Gold.Chemscore.Hbonds>
donor molecule, donor type, donor heavy atom, donor atom, acceptor molecule, acceptor atom, score
      L1  H     8    48       P1  7948  0.23
      L1  H    15    49       P1  8028  0.98
      P1  H  7997  8008       L1    11  0.77

> <Gold.Chemscore.Hbond.Weighted>
-8.2770

> <Gold.Chemscore.Metal.Weighted>
-0.0000

> <Gold.Chemscore.Lipo.Weighted>
-13.6639

> <Gold.Chemscore.Internal_Hbond.Weighted>
0.0000

> <Gold.Chemscore.DEClash.Weighted>
0.0000

> <Gold.Chemscore.DEInternal.Weighted>
1.0339

> <Gold.Chemscore.Rot.Weighted>
7.3824

> <Gold.Chemscore.Internal.Correction.Weighted>
   9.000000E+99

> <Gold.Protein.RotatedTorsions>
[ 6907 6896 6895 6894 ] final  -15.42 input  -60.11 | X-H torsion
[ 7974 7965 7964 7962 ] final  -60.74 input  175.53 | X-H torsion
[ 8008 7997 7996 7995 ] final  -28.42 input   59.86 | X-H torsion
[ 10167 10162 10161 10158 ] final  -79.85 input  -65.29 | X-H torsion
[ 10718 10713 10712 10709 ] final  179.08 input   66.30 | X-H torsion
[ 10763 10752 10751 10750 ] final  156.92 input  -60.55 | X-H torsion
[ 11005 11000 10999 10996 ] final  -10.01 input  -57.11 | X-H torsion

> <Gold.Protein.ActiveResidues>
 VAL166  LYS551  ARG553  GLY616  TRP617  ASP618  TYR619  PRO620  LYS621  CYS622 
 ASP623  PHE694  ASN695  SER759  ASP760  ASP761  ALA762  ILE779  LEU786  VAL792 
 PHE793  MET794  SER795  GLU796  ALA797  LYS798  CYS799  TRP800  GLU811  SER814 

> <Gold.Protein.RotatedAtoms>
  151.3242  135.0826  159.9316 H   0  0  0  0  0  0  0  0  0  0  0  0  # atno 6907 bound_to 6896
  152.5249  133.9608  159.7726 H   0  0  0  0  0  0  0  0  0  0  0  0  # atno 6908 bound_to 6896
  150.9934  133.6074  159.2735 H   0  0  0  0  0  0  0  0  0  0  0  0  # atno 6909 bound_to 6896
  145.8119  140.8593  143.0177 H   0  0  0  0  0  0  0  0  0  0  0  0  # atno 7974 bound_to 7965
  154.4333  140.1845  156.1087 H   0  0  0  0  0  0  0  0  0  0  0  0  # atno 8008 bound_to 7997
  156.0235  140.3338  155.7038 H   0  0  0  0  0  0  0  0  0  0  0  0  # atno 8009 bound_to 7997
  155.5942  140.0634  157.2741 H   0  0  0  0  0  0  0  0  0  0  0  0  # atno 8010 bound_to 7997
  140.4556  143.2469  151.8425 H   0  0  0  0  0  0  0  0  0  0  0  0  # atno 10167 bound_to 10162
  156.8810  130.9816  151.3062 H   0  0  0  0  0  0  0  0  0  0  0  0  # atno 10718 bound_to 10713
  154.1920  135.2794  155.3019 H   0  0  0  0  0  0  0  0  0  0  0  0  # atno 10763 bound_to 10752
  154.5922  135.5556  153.7293 H   0  0  0  0  0  0  0  0  0  0  0  0  # atno 10764 bound_to 10752
  153.0110  135.6371  154.2058 H   0  0  0  0  0  0  0  0  0  0  0  0  # atno 10765 bound_to 10752
  140.7402  133.8676  155.8961 H   0  0  0  0  0  0  0  0  0  0  0  0  # atno 11005 bound_to 11000
  144.6756  140.0408  143.7481 LP  0  0  0  0  0  0  0  0  0  0  0  0  # atno 17320 bound_to 7965
  145.9768  139.2910  143.1066 LP  0  0  0  0  0  0  0  0  0  0  0  0  # atno 17321 bound_to 7965
  139.4801  144.5069  151.8985 LP  0  0  0  0  0  0  0  0  0  0  0  0  # atno 17342 bound_to 10162
  140.4155  144.2312  150.5888 LP  0  0  0  0  0  0  0  0  0  0  0  0  # atno 17343 bound_to 10162
  157.6140  130.8604  149.8998 LP  0  0  0  0  0  0  0  0  0  0  0  0  # atno 17370 bound_to 10713
  156.0677  130.3690  150.0842 LP  0  0  0  0  0  0  0  0  0  0  0  0  # atno 17371 bound_to 10713
  140.9843  134.1363  157.4466 LP  0  0  0  0  0  0  0  0  0  0  0  0  # atno 17394 bound_to 11000
  139.8808  135.0020  156.6104 LP  0  0  0  0  0  0  0  0  0  0  0  0  # atno 17395 bound_to 11000

$$$$
