AV-unprocessed.smi:332|AV-procd|sdf|2353|dock1
  -GOLD-   2262022263D 1   1.00000     0.00000
 Structure written by MMmdl.
 42 44  0  0  0  0  0  0  0  0  1 V2000
  152.6817  139.8292  158.4367 C   0  0  0  0  0  0  0  0  0  0  0  0
  151.7836  141.0043  158.0163 C   0  0  1  0  0  0  0  0  0  0  0  0
  150.4943  140.4680  157.5826 N   0  0  0  0  0  0  0  0  0  0  0  0
  150.0593  140.3941  156.3152 C   0  0  0  0  0  0  0  0  0  0  0  0
  150.7371  140.7261  155.3422 O   0  0  0  0  0  0  0  0  0  0  0  0
  148.6385  139.8492  156.1210 C   0  0  0  0  0  0  0  0  0  0  0  0
  147.7132  140.8629  155.5881 N   0  0  0  0  0  0  0  0  0  0  0  0
  146.6142  141.2205  156.3943 C   0  0  0  0  0  0  0  0  0  0  0  0
  145.7089  142.1291  155.9980 C   0  0  0  0  0  0  0  0  0  0  0  0
  145.8825  142.7472  154.7048 C   0  0  0  0  0  0  0  0  0  0  0  0
  146.9293  142.4113  153.9249 C   0  0  0  0  0  0  0  0  0  0  0  0
  147.9216  141.4188  154.3540 C   0  0  0  0  0  0  0  0  0  0  0  0
  148.8807  141.1059  153.6475 O   0  0  0  0  0  0  0  0  0  0  0  0
  151.5614  142.0323  159.1539 C   0  0  2  0  0  0  0  0  0  0  0  0
  150.7535  143.2834  158.7216 C   0  0  0  0  0  0  0  0  0  0  0  0
  151.6529  144.4546  159.1514 C   0  0  1  0  0  0  0  0  0  0  0  0
  151.6923  144.5407  160.6878 C   0  0  0  0  0  0  0  0  0  0  0  0
  152.5532  143.3231  161.0722 C   0  0  0  0  0  0  0  0  0  0  0  0
  152.8579  142.6766  159.7071 C   0  0  2  0  0  0  0  0  0  0  0  0
  153.0357  143.9086  158.8246 C   0  0  0  0  0  0  0  0  0  0  0  0
  153.6872  140.1592  158.6940 H   0  0  0  0  0  0  0  0  0  0  0  0
  152.7815  139.1063  157.6261 H   0  0  0  0  0  0  0  0  0  0  0  0
  152.2717  139.3046  159.3003 H   0  0  0  0  0  0  0  0  0  0  0  0
  152.2709  141.5153  157.1846 H   0  0  0  0  0  0  0  0  0  0  0  0
  149.8664  140.1615  158.3114 H   0  0  0  0  0  0  0  0  0  0  0  0
  148.6961  138.9868  155.4557 H   0  0  0  0  0  0  0  0  0  0  0  0
  148.2551  139.4578  157.0654 H   0  0  0  0  0  0  0  0  0  0  0  0
  146.5516  140.7074  157.3430 H   0  0  0  0  0  0  0  0  0  0  0  0
  144.8704  142.3877  156.6279 H   0  0  0  0  0  0  0  0  0  0  0  0
  145.1687  143.4810  154.3603 H   0  0  0  0  0  0  0  0  0  0  0  0
  147.0424  142.8825  152.9594 H   0  0  0  0  0  0  0  0  0  0  0  0
  151.0336  141.5255  159.9636 H   0  0  0  0  0  0  0  0  0  0  0  0
  150.6072  143.3158  157.6411 H   0  0  0  0  0  0  0  0  0  0  0  0
  149.7678  143.3221  159.1865 H   0  0  0  0  0  0  0  0  0  0  0  0
  151.4028  145.3981  158.6654 H   0  0  0  0  0  0  0  0  0  0  0  0
  152.1683  145.4659  161.0152 H   0  0  0  0  0  0  0  0  0  0  0  0
  150.6952  144.5018  161.1280 H   0  0  0  0  0  0  0  0  0  0  0  0
  153.4740  143.6460  161.5598 H   0  0  0  0  0  0  0  0  0  0  0  0
  152.0380  142.6439  161.7525 H   0  0  0  0  0  0  0  0  0  0  0  0
  153.7208  142.0129  159.7385 H   0  0  0  0  0  0  0  0  0  0  0  0
  153.1701  143.6748  157.7673 H   0  0  0  0  0  0  0  0  0  0  0  0
  153.8468  144.5619  159.1512 H   0  0  0  0  0  0  0  0  0  0  0  0
  1  2  1  0  0  0  0
  1 21  1  0  0  0  0
  1 22  1  0  0  0  0
  1 23  1  0  0  0  0
  2  3  1  0  0  0  0
  2 14  1  0  0  0  0
  2 24  1  0  0  0  0
  3  4  1  0  0  0  0
  3 25  1  0  0  0  0
  4  5  2  0  0  0  0
  4  6  1  0  0  0  0
  6  7  1  0  0  0  0
  6 26  1  0  0  0  0
  6 27  1  0  0  0  0
  7 12  1  0  0  0  0
  7  8  1  0  0  0  0
  8  9  2  0  0  0  0
  8 28  1  0  0  0  0
  9 10  1  0  0  0  0
  9 29  1  0  0  0  0
 10 11  2  0  0  0  0
 10 30  1  0  0  0  0
 11 12  1  0  0  0  0
 11 31  1  0  0  0  0
 12 13  2  0  0  0  0
 14 19  1  0  0  0  0
 14 15  1  0  0  0  0
 14 32  1  0  0  0  0
 15 16  1  0  0  0  0
 15 33  1  0  0  0  0
 15 34  1  0  0  0  0
 16 20  1  0  0  0  0
 16 17  1  0  0  0  0
 16 35  1  0  0  0  0
 17 18  1  0  0  0  0
 17 36  1  0  0  0  0
 17 37  1  0  0  0  0
 18 19  1  0  0  0  0
 18 38  1  0  0  0  0
 18 39  1  0  0  0  0
 19 20  1  0  0  0  0
 19 40  1  0  0  0  0
 20 41  1  0  0  0  0
 20 42  1  0  0  0  0
M  END
> <s_m_source_file>
AV-unprocessed.smi

> <i_m_source_file_index>
332

> <i_lp_mmshare_version>
43012

> <i_f3d_flags>
0

> <s_epik_input>
W0NIMl0xW0NIMl1bQ0BIXShbQ0gyXTIpW0NAQEhdKFtDSDJdW0NAQEhdMTIpW0NASF0oW0NIM10pW05IXUMoPU8pW0NIMl1uM1tjSF1bY0hdW2NIXVtjSF1jMz1P

> <s_epik_cmdline>
J2VwaWtfcHl0aG9uJywgJy1waCcsICc3LjAnLCAnLXRuJywgJzgnLCAnLW1hJywgJzIwMCcsICctbWV0YWxfYmluZGluZycsICctaW1hZScsICc8aW5maWxlLm1hZT4nLCAnLW9tYWUnLCAnPG91dGZpbGUubWFlPic=

> <r_lp_tautomer_probability>
1

> <r_epik_Ionization_Penalty>
4.05802e-07

> <r_epik_Ionization_Penalty_Charging>
3.84175e-07

> <r_epik_Ionization_Penalty_Neutral>
2.16269e-08

> <r_epik_State_Penalty>
-0

> <r_epik_Charging_Adjusted_Penalty>
3.84175e-07

> <i_epik_Tot_Q>
0

> <i_epik_Tot_abs_Q>
0

> <r_epik_Metal_State_Penalty>
-0

> <b_epik_Metal_Only>
0

> <s_lp_Force_Field>
OPLS_2005

> <r_lp_Energy>
60.1573

> <b_lp_Chiralities_Consistent>
1

> <s_lp_Variant>
AV-unprocessed.smi:332-2

> <Gold.Version>
5.8.1

> <Gold.Id.Protein>
6NUR|6NUR_protein|mol2

> <Gold.PLP.Fitness>
47.0812

> <Gold.PLP.PLP>
-42.0525

> <Gold.PLP.part.hbond>
-2.7570

> <Gold.PLP.part.metal>
0.0000

> <Gold.PLP.part.buried>
-7.0384

> <Gold.PLP.part.nonpolar>
-35.0632

> <Gold.PLP.part.repulsive>
2.6506

> <Gold.PLP.ligand.clash>
0.0000

> <Gold.PLP.ligand.torsion>
0.1737

> <Gold.PLP.Chemscore.Hbond>
1.7760

> <Gold.PLP.Chemscore.CHOScore>
0.0000

> <Gold.PLP.Chemscore.Metal>
0.0000

> <Gold.Chemscore.Hbonds>
donor molecule, donor type, donor heavy atom, donor atom, acceptor molecule, acceptor atom, score
      P1  H  7989  7998       L1     5  0.83
      P1  H  8011  8017       L1    13  0.86

> <Gold.PLP.Chemscore.Internal.Correction>
0.0482

> <Gold.Rescore>
     Score         DG    S(hbond)    S(metal)    S(lipo)     H(rot)  DE(clash)    DE(int)     intcor
     16.14     -19.33       1.73        0.00     102.54       1.54       1.43       1.76       ----

> <Gold.Chemscore.Fitness>
16.1391

> <Gold.Chemscore.DG>
-19.3265

> <Gold.Chemscore.ZeroCoef>
-5.4800

> <Gold.Chemscore.Hbond>
1.7338

> <Gold.Chemscore.Metal>
0.0000

> <Gold.Chemscore.Lipo>
102.5434

> <Gold.Chemscore.Internal_Hbond>
0.0000

> <Gold.Chemscore.DEClash>
1.4320

> <Gold.Chemscore.DEInternal>
1.7554

> <Gold.Chemscore.Rot>
1.5398

> <Gold.Chemscore.Internal.Correction>
   9.000000E+99

> <Gold.Chemscore.Hbonds>
donor molecule, donor type, donor heavy atom, donor atom, acceptor molecule, acceptor atom, score
      P1  H  7989  7998       L1     5  0.77
      P1  H  8011  8017       L1    13  0.79

> <Gold.Chemscore.Hbond.Weighted>
-5.7908

> <Gold.Chemscore.Metal.Weighted>
-0.0000

> <Gold.Chemscore.Lipo.Weighted>
-11.9976

> <Gold.Chemscore.Internal_Hbond.Weighted>
0.0000

> <Gold.Chemscore.DEClash.Weighted>
1.4320

> <Gold.Chemscore.DEInternal.Weighted>
1.7554

> <Gold.Chemscore.Rot.Weighted>
3.9419

> <Gold.Chemscore.Internal.Correction.Weighted>
   9.000000E+99

> <Gold.Protein.RotatedTorsions>
[ 6907 6896 6895 6894 ] final -117.43 input  -60.11 | X-H torsion
[ 7974 7965 7964 7962 ] final -117.82 input  175.53 | X-H torsion
[ 8008 7997 7996 7995 ] final -118.67 input   59.86 | X-H torsion
[ 10167 10162 10161 10158 ] final   46.09 input  -65.29 | X-H torsion
[ 10718 10713 10712 10709 ] final  -76.11 input   66.30 | X-H torsion
[ 10763 10752 10751 10750 ] final  -81.91 input  -60.55 | X-H torsion
[ 11005 11000 10999 10996 ] final  -19.75 input  -57.11 | X-H torsion

> <Gold.Protein.ActiveResidues>
 VAL166  LYS551  ARG553  GLY616  TRP617  ASP618  TYR619  PRO620  LYS621  CYS622 
 ASP623  PHE694  ASN695  SER759  ASP760  ASP761  ALA762  ILE779  LEU786  VAL792 
 PHE793  MET794  SER795  GLU796  ALA797  LYS798  CYS799  TRP800  GLU811  SER814 

> <Gold.Protein.RotatedAtoms>
  150.8136  133.8377  159.3170 H   0  0  0  0  0  0  0  0  0  0  0  0  # atno 6907 bound_to 6896
  151.6156  135.1035  160.0100 H   0  0  0  0  0  0  0  0  0  0  0  0  # atno 6908 bound_to 6896
  152.4228  133.7104  159.6532 H   0  0  0  0  0  0  0  0  0  0  0  0  # atno 6909 bound_to 6896
  145.0809  140.8425  143.4039 H   0  0  0  0  0  0  0  0  0  0  0  0  # atno 7974 bound_to 7965
  155.1034  140.0396  157.2703 H   0  0  0  0  0  0  0  0  0  0  0  0  # atno 8008 bound_to 7997
  154.6740  140.2618  155.6951 H   0  0  0  0  0  0  0  0  0  0  0  0  # atno 8009 bound_to 7997
  156.2669  140.2792  156.1260 H   0  0  0  0  0  0  0  0  0  0  0  0  # atno 8010 bound_to 7997
  140.3175  144.2746  150.6188 H   0  0  0  0  0  0  0  0  0  0  0  0  # atno 10167 bound_to 10162
  156.0185  130.4457  150.3144 H   0  0  0  0  0  0  0  0  0  0  0  0  # atno 10718 bound_to 10713
  154.5694  135.5609  153.7081 H   0  0  0  0  0  0  0  0  0  0  0  0  # atno 10763 bound_to 10752
  153.0043  135.6293  154.2135 H   0  0  0  0  0  0  0  0  0  0  0  0  # atno 10764 bound_to 10752
  154.2075  135.2875  155.2950 H   0  0  0  0  0  0  0  0  0  0  0  0  # atno 10765 bound_to 10752
  140.8397  133.7935  155.9847 H   0  0  0  0  0  0  0  0  0  0  0  0  # atno 11005 bound_to 11000
  145.1179  139.2713  143.5603 LP  0  0  0  0  0  0  0  0  0  0  0  0  # atno 17320 bound_to 7965
  146.3531  140.0795  142.8618 LP  0  0  0  0  0  0  0  0  0  0  0  0  # atno 17321 bound_to 7965
  140.5513  143.2206  151.7921 LP  0  0  0  0  0  0  0  0  0  0  0  0  # atno 17342 bound_to 10162
  139.4881  144.4472  151.9696 LP  0  0  0  0  0  0  0  0  0  0  0  0  # atno 17343 bound_to 10162
  157.1245  131.0255  151.2995 LP  0  0  0  0  0  0  0  0  0  0  0  0  # atno 17370 bound_to 10713
  157.4601  130.7648  149.7228 LP  0  0  0  0  0  0  0  0  0  0  0  0  # atno 17371 bound_to 10713
  140.8909  134.2497  157.5095 LP  0  0  0  0  0  0  0  0  0  0  0  0  # atno 17394 bound_to 11000
  139.8703  134.9661  156.4550 LP  0  0  0  0  0  0  0  0  0  0  0  0  # atno 17395 bound_to 11000

$$$$
