AV-unprocessed.smi:2442|AV-procd|sdf|9623|dock2
  -GOLD-   2272013253D 1   1.00000     0.00000
 Structure written by MMmdl.
 46 47  0  0  0  0  0  0  0  0  1 V2000
  147.3143  131.0011  153.2803 C   0  0  0  0  0  0  0  0  0  0  0  0
  147.2322  132.1973  152.5220 O   0  0  0  0  0  0  0  0  0  0  0  0
  145.9232  132.4975  152.0523 C   0  0  2  0  0  0  0  0  0  0  0  0
  145.3973  131.3374  151.1807 C   0  0  0  0  0  0  0  0  0  0  0  0
  144.0426  131.6825  150.5404 C   0  0  0  0  0  0  0  0  0  0  0  0
  144.1247  132.9799  149.7208 C   0  0  0  0  0  0  0  0  0  0  0  0
  144.6397  134.1452  150.5791 C   0  0  0  0  0  0  0  0  0  0  0  0
  146.0013  133.8007  151.2212 C   0  0  1  0  0  0  0  0  0  0  0  0
  146.5464  134.9295  151.9794 N   0  0  0  0  0  0  0  0  0  0  0  0
  145.8753  135.7716  152.7800 C   0  0  0  0  0  0  0  0  0  0  0  0
  144.6732  135.6862  153.0310 O   0  0  0  0  0  0  0  0  0  0  0  0
  146.6706  136.7430  153.2516 N   0  0  0  0  0  0  0  0  0  0  0  0
  146.2320  137.8632  154.0812 C   0  0  0  0  0  0  0  0  0  0  0  0
  146.6666  139.2319  153.5138 C   0  0  0  0  0  0  0  0  0  0  0  0
  148.0559  139.6833  153.9514 C   0  0  0  0  0  0  0  0  0  0  0  0
  149.0990  138.7352  154.0283 C   0  0  0  0  0  0  0  0  0  0  0  0
  150.3866  139.1692  154.3971 C   0  0  0  0  0  0  0  0  0  0  0  0
  150.6798  140.4527  154.6888 N   0  0  0  0  0  0  0  0  0  0  0  0
  149.6803  141.3568  154.6231 C   0  0  0  0  0  0  0  0  0  0  0  0
  148.3532  141.0334  154.2655 C   0  0  0  0  0  0  0  0  0  0  0  0
  147.3032  142.1285  154.2142 C   0  0  0  0  0  0  0  0  0  0  0  0
  148.3427  130.8485  153.6070 H   0  0  0  0  0  0  0  0  0  0  0  0
  147.0179  130.1296  152.6972 H   0  0  0  0  0  0  0  0  0  0  0  0
  146.6870  131.0574  154.1710 H   0  0  0  0  0  0  0  0  0  0  0  0
  145.2436  132.6439  152.8931 H   0  0  0  0  0  0  0  0  0  0  0  0
  146.1214  131.1111  150.3969 H   0  0  0  0  0  0  0  0  0  0  0  0
  145.2924  130.4294  151.7739 H   0  0  0  0  0  0  0  0  0  0  0  0
  143.7140  130.8614  149.9026 H   0  0  0  0  0  0  0  0  0  0  0  0
  143.2874  131.7900  151.3200 H   0  0  0  0  0  0  0  0  0  0  0  0
  144.7877  132.8322  148.8674 H   0  0  0  0  0  0  0  0  0  0  0  0
  143.1438  133.2246  149.3123 H   0  0  0  0  0  0  0  0  0  0  0  0
  144.7311  135.0412  149.9640 H   0  0  0  0  0  0  0  0  0  0  0  0
  143.9011  134.3740  151.3479 H   0  0  0  0  0  0  0  0  0  0  0  0
  146.7108  133.6319  150.4100 H   0  0  0  0  0  0  0  0  0  0  0  0
  147.5337  135.1008  151.8579 H   0  0  0  0  0  0  0  0  0  0  0  0
  147.6454  136.7261  152.9897 H   0  0  0  0  0  0  0  0  0  0  0  0
  145.1504  137.8313  154.2147 H   0  0  0  0  0  0  0  0  0  0  0  0
  146.6569  137.7336  155.0766 H   0  0  0  0  0  0  0  0  0  0  0  0
  146.6126  139.2156  152.4256 H   0  0  0  0  0  0  0  0  0  0  0  0
  145.9449  139.9882  153.8250 H   0  0  0  0  0  0  0  0  0  0  0  0
  148.9228  137.6957  153.7947 H   0  0  0  0  0  0  0  0  0  0  0  0
  151.2043  138.4661  154.4557 H   0  0  0  0  0  0  0  0  0  0  0  0
  149.9520  142.3744  154.8628 H   0  0  0  0  0  0  0  0  0  0  0  0
  147.6920  143.0631  154.6197 H   0  0  0  0  0  0  0  0  0  0  0  0
  146.4255  141.8558  154.7995 H   0  0  0  0  0  0  0  0  0  0  0  0
  146.9961  142.3160  153.1858 H   0  0  0  0  0  0  0  0  0  0  0  0
  1  2  1  0  0  0  0
  1 22  1  0  0  0  0
  1 23  1  0  0  0  0
  1 24  1  0  0  0  0
  2  3  1  0  0  0  0
  3  8  1  0  0  0  0
  3  4  1  0  0  0  0
  3 25  1  0  0  0  0
  4  5  1  0  0  0  0
  4 26  1  0  0  0  0
  4 27  1  0  0  0  0
  5  6  1  0  0  0  0
  5 28  1  0  0  0  0
  5 29  1  0  0  0  0
  6  7  1  0  0  0  0
  6 30  1  0  0  0  0
  6 31  1  0  0  0  0
  7  8  1  0  0  0  0
  7 32  1  0  0  0  0
  7 33  1  0  0  0  0
  8  9  1  0  0  0  0
  8 34  1  0  0  0  0
  9 10  1  0  0  0  0
  9 35  1  0  0  0  0
 10 11  2  0  0  0  0
 10 12  1  0  0  0  0
 12 13  1  0  0  0  0
 12 36  1  0  0  0  0
 13 14  1  0  0  0  0
 13 37  1  0  0  0  0
 13 38  1  0  0  0  0
 14 15  1  0  0  0  0
 14 39  1  0  0  0  0
 14 40  1  0  0  0  0
 15 20  1  0  0  0  0
 15 16  2  0  0  0  0
 16 17  1  0  0  0  0
 16 41  1  0  0  0  0
 17 18  2  0  0  0  0
 17 42  1  0  0  0  0
 18 19  1  0  0  0  0
 19 20  2  0  0  0  0
 19 43  1  0  0  0  0
 20 21  1  0  0  0  0
 21 44  1  0  0  0  0
 21 45  1  0  0  0  0
 21 46  1  0  0  0  0
M  END
> <s_m_source_file>
AV-unprocessed.smi

> <i_m_source_file_index>
2442

> <i_lp_mmshare_version>
43012

> <i_f3d_flags>
0

> <s_epik_input>
W0NIM11PW0NAQEhdMVtDSDJdW0NIMl1bQ0gyXVtDSDJdW0NASF0xW05IXUMoPU8pW05IXVtDSDJdW0NIMl1jMltjSF1bY0hdbltjSF1jMltDSDNd

> <s_epik_cmdline>
J2VwaWtfcHl0aG9uJywgJy1waCcsICc3LjAnLCAnLXRuJywgJzgnLCAnLW1hJywgJzIwMCcsICctbWV0YWxfYmluZGluZycsICctaW1hZScsICc8aW5maWxlLm1hZT4nLCAnLW9tYWUnLCAnPG91dGZpbGUubWFlPic=

> <r_epik_Ionization_Penalty>
0.106136

> <r_epik_Ionization_Penalty_Charging>
0

> <r_epik_Ionization_Penalty_Neutral>
0.106136

> <r_epik_State_Penalty>
0.0959393

> <r_epik_Charging_Adjusted_Penalty>
0.0959393

> <i_epik_Tot_Q>
0

> <i_epik_Tot_abs_Q>
0

> <r_epik_Metal_State_Penalty>
0.0812517

> <b_epik_Metal_Only>
0

> <s_lp_Force_Field>
OPLS_2005

> <r_lp_Energy>
10.1716

> <b_lp_Chiralities_Consistent>
1

> <s_lp_Variant>
AV-unprocessed.smi:2442-1

> <Gold.Version>
5.8.1

> <Gold.Id.Protein>
6NUR|6NUR_protein|mol2

> <Gold.PLP.Fitness>
49.3459

> <Gold.PLP.PLP>
-38.9114

> <Gold.PLP.part.hbond>
-3.0000

> <Gold.PLP.part.metal>
0.0000

> <Gold.PLP.part.buried>
-5.0056

> <Gold.PLP.part.nonpolar>
-32.1029

> <Gold.PLP.part.repulsive>
0.3253

> <Gold.PLP.ligand.clash>
0.0000

> <Gold.PLP.ligand.torsion>
0.7918

> <Gold.PLP.Chemscore.Hbond>
2.9920

> <Gold.PLP.Chemscore.CHOScore>
0.9962

> <Gold.PLP.Chemscore.Metal>
0.0000

> <Gold.Chemscore.Hbonds>
donor molecule, donor type, donor heavy atom, donor atom, acceptor molecule, acceptor atom, score
      L1  H     9    35       P1  7948  1.00
      L1  H    12    36       P1  7948  1.00
      P1  H  7989  7998       L1    18  1.00
      L1  C    19    43       P1  8028  0.61

> <Gold.PLP.Chemscore.Internal.Correction>
0.0537

> <Gold.Rescore>
     Score         DG    S(hbond)    S(metal)    S(lipo)     H(rot)  DE(clash)    DE(int)     intcor
     18.47     -20.69       2.23        0.00     102.11       1.64       0.05       2.17       ----

> <Gold.Chemscore.Fitness>
18.4732

> <Gold.Chemscore.DG>
-20.6913

> <Gold.Chemscore.ZeroCoef>
-5.4800

> <Gold.Chemscore.Hbond>
2.2329

> <Gold.Chemscore.Metal>
0.0000

> <Gold.Chemscore.Lipo>
102.1109

> <Gold.Chemscore.Internal_Hbond>
0.0000

> <Gold.Chemscore.DEClash>
0.0509

> <Gold.Chemscore.DEInternal>
2.1673

> <Gold.Chemscore.Rot>
1.6380

> <Gold.Chemscore.Internal.Correction>
   9.000000E+99

> <Gold.Chemscore.Hbonds>
donor molecule, donor type, donor heavy atom, donor atom, acceptor molecule, acceptor atom, score
      L1  H     9    35       P1  7948  0.85
      L1  H    12    36       P1  7948  0.94
      P1  H  7989  7998       L1    18  0.15

> <Gold.Chemscore.Hbond.Weighted>
-7.4577

> <Gold.Chemscore.Metal.Weighted>
-0.0000

> <Gold.Chemscore.Lipo.Weighted>
-11.9470

> <Gold.Chemscore.Internal_Hbond.Weighted>
0.0000

> <Gold.Chemscore.DEClash.Weighted>
0.0509

> <Gold.Chemscore.DEInternal.Weighted>
2.1673

> <Gold.Chemscore.Rot.Weighted>
4.1934

> <Gold.Chemscore.Internal.Correction.Weighted>
   9.000000E+99

> <Gold.Protein.RotatedTorsions>
[ 6907 6896 6895 6894 ] final  161.21 input  -60.11 | X-H torsion
[ 7974 7965 7964 7962 ] final  119.27 input  175.53 | X-H torsion
[ 8008 7997 7996 7995 ] final  -78.05 input   59.86 | X-H torsion
[ 10167 10162 10161 10158 ] final  142.94 input  -65.29 | X-H torsion
[ 10718 10713 10712 10709 ] final  -63.87 input   66.30 | X-H torsion
[ 10763 10752 10751 10750 ] final   32.44 input  -60.55 | X-H torsion
[ 11005 11000 10999 10996 ] final  -52.42 input  -57.11 | X-H torsion

> <Gold.Protein.ActiveResidues>
 VAL166  LYS551  ARG553  GLY616  TRP617  ASP618  TYR619  PRO620  LYS621  CYS622 
 ASP623  PHE694  ASN695  SER759  ASP760  ASP761  ALA762  ILE779  LEU786  VAL792 
 PHE793  MET794  SER795  GLU796  ALA797  LYS798  CYS799  TRP800  GLU811  SER814 

> <Gold.Protein.RotatedAtoms>
  151.9589  133.3689  159.4027 H   0  0  0  0  0  0  0  0  0  0  0  0  # atno 6907 bound_to 6896
  150.6967  134.4261  159.5236 H   0  0  0  0  0  0  0  0  0  0  0  0  # atno 6908 bound_to 6896
  152.1946  134.8641  160.0565 H   0  0  0  0  0  0  0  0  0  0  0  0  # atno 6909 bound_to 6896
  145.1452  139.3244  143.4595 H   0  0  0  0  0  0  0  0  0  0  0  0  # atno 7974 bound_to 7965
  154.5653  140.0700  156.8881 H   0  0  0  0  0  0  0  0  0  0  0  0  # atno 8008 bound_to 7997
  155.2735  140.3367  155.4245 H   0  0  0  0  0  0  0  0  0  0  0  0  # atno 8009 bound_to 7997
  156.2075  140.1746  156.7753 H   0  0  0  0  0  0  0  0  0  0  0  0  # atno 8010 bound_to 7997
  139.4982  144.6074  151.6348 H   0  0  0  0  0  0  0  0  0  0  0  0  # atno 10167 bound_to 10162
  156.0764  130.4226  150.1339 H   0  0  0  0  0  0  0  0  0  0  0  0  # atno 10718 bound_to 10713
  153.0262  135.6413  154.1356 H   0  0  0  0  0  0  0  0  0  0  0  0  # atno 10763 bound_to 10752
  154.1085  135.2854  155.3237 H   0  0  0  0  0  0  0  0  0  0  0  0  # atno 10764 bound_to 10752
  154.6349  135.5480  153.7785 H   0  0  0  0  0  0  0  0  0  0  0  0  # atno 10765 bound_to 10752
  141.0923  133.6630  156.4022 H   0  0  0  0  0  0  0  0  0  0  0  0  # atno 11005 bound_to 11000
  146.3501  140.1505  142.8592 LP  0  0  0  0  0  0  0  0  0  0  0  0  # atno 17320 bound_to 7965
  145.0489  140.9003  143.5007 LP  0  0  0  0  0  0  0  0  0  0  0  0  # atno 17321 bound_to 7965
  140.5739  144.0061  150.6231 LP  0  0  0  0  0  0  0  0  0  0  0  0  # atno 17342 bound_to 10162
  140.3188  143.3150  152.0805 LP  0  0  0  0  0  0  0  0  0  0  0  0  # atno 17343 bound_to 10162
  156.9379  130.9735  151.3521 LP  0  0  0  0  0  0  0  0  0  0  0  0  # atno 17370 bound_to 10713
  157.5861  130.8411  149.8592 LP  0  0  0  0  0  0  0  0  0  0  0  0  # atno 17371 bound_to 10713
  140.5222  134.6293  157.5322 LP  0  0  0  0  0  0  0  0  0  0  0  0  # atno 17394 bound_to 11000
  139.9752  134.7227  155.9963 LP  0  0  0  0  0  0  0  0  0  0  0  0  # atno 17395 bound_to 11000

$$$$
