AV-unprocessed.smi:1209|AV-procd|sdf|5076|dock3
  -GOLD-   22720 4123D 1   1.00000     0.00000
 Structure written by MMmdl.
 49 51  0  0  0  0  0  0  0  0  2 V2000
  144.4376  133.7537  150.3590 C   0  0  0  0  0  0  0  0  0  0  0  0
  144.7320  134.8488  151.3259 C   0  0  0  0  0  0  0  0  0  0  0  0
  145.3403  136.0653  151.2000 C   0  0  0  0  0  0  0  0  0  0  0  0
  145.2920  136.6025  152.5159 C   0  0  0  0  0  0  0  0  0  0  0  0
  145.8017  137.9302  153.0055 C   0  0  0  0  0  0  0  0  0  0  0  0
  147.1328  137.8101  153.6542 N   0  3  2  0  0  0  0  0  0  0  0  0
  147.0672  137.1269  154.9706 C   0  0  0  0  0  0  0  0  0  0  0  0
  147.8432  139.1137  153.7198 C   0  0  0  0  0  0  0  0  0  0  0  0
  149.2410  139.0001  154.3688 C   0  0  1  0  0  0  0  0  0  0  0  0
  150.0944  138.2925  153.4924 O   0  0  0  0  0  0  0  0  0  0  0  0
  149.8982  140.3631  154.6629 C   0  0  0  0  0  0  0  0  0  0  0  0
  150.9360  140.2734  155.6733 N   0  0  0  0  0  0  0  0  0  0  0  0
  151.9243  139.3608  155.7409 C   0  0  0  0  0  0  0  0  0  0  0  0
  152.7661  139.4511  156.7663 N   0  0  0  0  0  0  0  0  0  0  0  0
  152.2708  140.5547  157.4395 C   0  0  0  0  0  0  0  0  0  0  0  0
  152.7121  141.1812  158.6254 C   0  0  0  0  0  0  0  0  0  0  0  0
  152.0375  142.3100  159.1432 C   0  0  0  0  0  0  0  0  0  0  0  0
  152.5471  142.9534  160.4209 C   0  0  0  0  0  0  0  0  0  0  0  0
  150.9018  142.8290  158.4715 C   0  0  0  0  0  0  0  0  0  0  0  0
  150.1576  144.0375  159.0111 C   0  0  0  0  0  0  0  0  0  0  0  0
  150.4496  142.2174  157.2841 C   0  0  0  0  0  0  0  0  0  0  0  0
  151.1284  141.0943  156.7795 C   0  0  0  0  0  0  0  0  0  0  0  0
  144.6973  135.7774  153.3616 N   0  0  0  0  0  0  0  0  0  0  0  0
  144.3373  134.6532  152.6102 O   0  0  0  0  0  0  0  0  0  0  0  0
  144.7940  134.0083  149.3607 H   0  0  0  0  0  0  0  0  0  0  0  0
  143.3649  133.5691  150.2982 H   0  0  0  0  0  0  0  0  0  0  0  0
  144.9240  132.8273  150.6648 H   0  0  0  0  0  0  0  0  0  0  0  0
  145.7561  136.5027  150.3045 H   0  0  0  0  0  0  0  0  0  0  0  0
  145.8659  138.6118  152.1560 H   0  0  0  0  0  0  0  0  0  0  0  0
  145.0948  138.3802  153.7040 H   0  0  0  0  0  0  0  0  0  0  0  0
  146.4635  137.6987  155.6766 H   0  0  0  0  0  0  0  0  0  0  0  0
  148.0573  136.9948  155.4040 H   0  0  0  0  0  0  0  0  0  0  0  0
  146.6302  136.1324  154.8804 H   0  0  0  0  0  0  0  0  0  0  0  0
  147.9691  139.5273  152.7182 H   0  0  0  0  0  0  0  0  0  0  0  0
  147.2118  139.8198  154.2597 H   0  0  0  0  0  0  0  0  0  0  0  0
  149.1826  138.4420  155.3026 H   0  0  0  0  0  0  0  0  0  0  0  0
  149.5978  137.6077  153.0701 H   0  0  0  0  0  0  0  0  0  0  0  0
  150.3412  140.7736  153.7543 H   0  0  0  0  0  0  0  0  0  0  0  0
  149.1515  141.0849  154.9969 H   0  0  0  0  0  0  0  0  0  0  0  0
  152.0270  138.5821  154.9991 H   0  0  0  0  0  0  0  0  0  0  0  0
  153.5769  140.7854  159.1374 H   0  0  0  0  0  0  0  0  0  0  0  0
  152.8609  143.9800  160.2309 H   0  0  0  0  0  0  0  0  0  0  0  0
  153.4020  142.4117  160.8269 H   0  0  0  0  0  0  0  0  0  0  0  0
  151.7673  142.9646  161.1825 H   0  0  0  0  0  0  0  0  0  0  0  0
  149.3150  144.3037  158.3722 H   0  0  0  0  0  0  0  0  0  0  0  0
  150.8206  144.9010  159.0676 H   0  0  0  0  0  0  0  0  0  0  0  0
  149.7685  143.8325  160.0085 H   0  0  0  0  0  0  0  0  0  0  0  0
  149.5860  142.6035  156.7634 H   0  0  0  0  0  0  0  0  0  0  0  0
  147.6838  137.2241  153.0423 H   0  0  0  0  0  0  0  0  0  0  0  0
  1  2  1  0  0  0  0
  1 25  1  0  0  0  0
  1 26  1  0  0  0  0
  1 27  1  0  0  0  0
  2 24  1  0  0  0  0
  2  3  2  0  0  0  0
  3  4  1  0  0  0  0
  3 28  1  0  0  0  0
  4  5  1  0  0  0  0
  4 23  2  0  0  0  0
  5  6  1  0  0  0  0
  5 29  1  0  0  0  0
  5 30  1  0  0  0  0
  6  7  1  0  0  0  0
  6  8  1  0  0  0  0
  6 49  1  0  0  0  0
  7 31  1  0  0  0  0
  7 32  1  0  0  0  0
  7 33  1  0  0  0  0
  8  9  1  0  0  0  0
  8 34  1  0  0  0  0
  8 35  1  0  0  0  0
  9 10  1  0  0  0  0
  9 11  1  0  0  0  0
  9 36  1  0  0  0  0
 10 37  1  0  0  0  0
 11 12  1  0  0  0  0
 11 38  1  0  0  0  0
 11 39  1  0  0  0  0
 12 22  1  0  0  0  0
 12 13  1  0  0  0  0
 13 14  2  0  0  0  0
 13 40  1  0  0  0  0
 14 15  1  0  0  0  0
 15 22  2  0  0  0  0
 15 16  1  0  0  0  0
 16 17  2  0  0  0  0
 16 41  1  0  0  0  0
 17 18  1  0  0  0  0
 17 19  1  0  0  0  0
 18 42  1  0  0  0  0
 18 43  1  0  0  0  0
 18 44  1  0  0  0  0
 19 20  1  0  0  0  0
 19 21  2  0  0  0  0
 20 45  1  0  0  0  0
 20 46  1  0  0  0  0
 20 47  1  0  0  0  0
 21 22  1  0  0  0  0
 21 48  1  0  0  0  0
 23 24  1  0  0  0  0
M  CHG  1   6   1
M  END
> <s_m_source_file>
AV-unprocessed.smi

> <i_m_source_file_index>
1209

> <i_lp_mmshare_version>
43012

> <i_f3d_flags>
0

> <s_epik_input>
W0NIM11jMVtjSF1jKG5vMSlbQ0gyXU4oW0NIM10pW0NIMl1bQ0BIXShbT0hdKVtDSDJdbihbY0hdbjIpYyhjMjMpW2NIXWMoW0NIM10pYyhbY0hdMylbQ0gzXQ==

> <s_epik_cmdline>
J2VwaWtfcHl0aG9uJywgJy1waCcsICc3LjAnLCAnLXRuJywgJzgnLCAnLW1hJywgJzIwMCcsICctbWV0YWxfYmluZGluZycsICctaW1hZScsICc8aW5maWxlLm1hZT4nLCAnLW9tYWUnLCAnPG91dGZpbGUubWFlPic=

> <r_epik_Ionization_Penalty>
2.05249

> <r_epik_Ionization_Penalty_Charging>
1.96618

> <r_epik_Ionization_Penalty_Neutral>
0.0863156

> <r_epik_State_Penalty>
2.19215

> <r_epik_Charging_Adjusted_Penalty>
4.15833

> <i_epik_Tot_Q>
1

> <i_epik_Tot_abs_Q>
1

> <r_epik_Metal_State_Penalty>
2.17654

> <b_epik_Metal_Only>
0

> <s_lp_Force_Field>
OPLS_2005

> <r_lp_Energy>
8.03996

> <b_lp_Chiralities_Consistent>
1

> <s_lp_Variant>
AV-unprocessed.smi:1209-8

> <Gold.Version>
5.8.1

> <Gold.Id.Protein>
6NUR|6NUR_protein|mol2

> <Gold.PLP.Fitness>
54.4348

> <Gold.PLP.PLP>
-44.0282

> <Gold.PLP.part.hbond>
-4.4236

> <Gold.PLP.part.metal>
0.0000

> <Gold.PLP.part.buried>
-2.8452

> <Gold.PLP.part.nonpolar>
-36.9516

> <Gold.PLP.part.repulsive>
0.1575

> <Gold.PLP.ligand.clash>
0.0000

> <Gold.PLP.ligand.torsion>
0.8420

> <Gold.PLP.Chemscore.Hbond>
4.0000

> <Gold.PLP.Chemscore.CHOScore>
0.0000

> <Gold.PLP.Chemscore.Metal>
0.0000

> <Gold.Chemscore.Hbonds>
donor molecule, donor type, donor heavy atom, donor atom, acceptor molecule, acceptor atom, score
      L1  H     6    49       P1  7948  2.00
      L1  H    10    37       P1  7948  1.00
      P1  H  7997  8008       L1    14  0.80

> <Gold.PLP.Chemscore.Internal.Correction>
0.0906

> <Gold.Rescore>
     Score         DG    S(hbond)    S(metal)    S(lipo)     H(rot)  DE(clash)    DE(int)     intcor
     18.69     -19.53       2.40        0.00     107.07       2.53       0.04       0.81       ----

> <Gold.Chemscore.Fitness>
18.6908

> <Gold.Chemscore.DG>
-19.5347

> <Gold.Chemscore.ZeroCoef>
-5.4800

> <Gold.Chemscore.Hbond>
2.3988

> <Gold.Chemscore.Metal>
0.0000

> <Gold.Chemscore.Lipo>
107.0745

> <Gold.Chemscore.Internal_Hbond>
0.0000

> <Gold.Chemscore.DEClash>
0.0383

> <Gold.Chemscore.DEInternal>
0.8056

> <Gold.Chemscore.Rot>
2.5332

> <Gold.Chemscore.Internal.Correction>
   9.000000E+99

> <Gold.Chemscore.Hbonds>
donor molecule, donor type, donor heavy atom, donor atom, acceptor molecule, acceptor atom, score
      L1  H     6    49       P1  7948  0.97
      L1  H    10    37       P1  7948  0.78
      P1  H  7997  8008       L1    14  0.11

> <Gold.Chemscore.Hbond.Weighted>
-8.0121

> <Gold.Chemscore.Metal.Weighted>
-0.0000

> <Gold.Chemscore.Lipo.Weighted>
-12.5277

> <Gold.Chemscore.Internal_Hbond.Weighted>
0.0000

> <Gold.Chemscore.DEClash.Weighted>
0.0383

> <Gold.Chemscore.DEInternal.Weighted>
0.8056

> <Gold.Chemscore.Rot.Weighted>
6.4851

> <Gold.Chemscore.Internal.Correction.Weighted>
   9.000000E+99

> <Gold.Protein.RotatedTorsions>
[ 6907 6896 6895 6894 ] final -165.45 input  -60.11 | X-H torsion
[ 7974 7965 7964 7962 ] final   10.83 input  175.53 | X-H torsion
[ 8008 7997 7996 7995 ] final  -48.46 input   59.86 | X-H torsion
[ 10167 10162 10161 10158 ] final -170.02 input  -65.29 | X-H torsion
[ 10718 10713 10712 10709 ] final  106.46 input   66.30 | X-H torsion
[ 10763 10752 10751 10750 ] final -140.27 input  -60.55 | X-H torsion
[ 11005 11000 10999 10996 ] final  114.78 input  -57.11 | X-H torsion

> <Gold.Protein.ActiveResidues>
 VAL166  LYS551  ARG553  GLY616  TRP617  ASP618  TYR619  PRO620  LYS621  CYS622 
 ASP623  PHE694  ASN695  SER759  ASP760  ASP761  ALA762  ILE779  LEU786  VAL792 
 PHE793  MET794  SER795  GLU796  ALA797  LYS798  CYS799  TRP800  GLU811  SER814 

> <Gold.Protein.RotatedAtoms>
  151.4279  133.3679  159.2764 H   0  0  0  0  0  0  0  0  0  0  0  0  # atno 6907 bound_to 6896
  150.9246  134.8665  159.7522 H   0  0  0  0  0  0  0  0  0  0  0  0  # atno 6908 bound_to 6896
  152.4999  134.4219  159.9535 H   0  0  0  0  0  0  0  0  0  0  0  0  # atno 6909 bound_to 6896
  146.2382  139.9576  142.8462 H   0  0  0  0  0  0  0  0  0  0  0  0  # atno 7974 bound_to 7965
  154.4029  140.1321  156.4343 H   0  0  0  0  0  0  0  0  0  0  0  0  # atno 8008 bound_to 7997
  155.7521  140.3488  155.5135 H   0  0  0  0  0  0  0  0  0  0  0  0  # atno 8009 bound_to 7997
  155.8940  140.1008  157.1388 H   0  0  0  0  0  0  0  0  0  0  0  0  # atno 8010 bound_to 7997
  139.5887  144.1261  152.1608 H   0  0  0  0  0  0  0  0  0  0  0  0  # atno 10167 bound_to 10162
  157.6667  131.0851  150.6010 H   0  0  0  0  0  0  0  0  0  0  0  0  # atno 10718 bound_to 10713
  154.8584  135.3558  154.5680 H   0  0  0  0  0  0  0  0  0  0  0  0  # atno 10763 bound_to 10752
  153.6294  135.7003  153.5286 H   0  0  0  0  0  0  0  0  0  0  0  0  # atno 10764 bound_to 10752
  153.3062  135.4192  155.1256 H   0  0  0  0  0  0  0  0  0  0  0  0  # atno 10765 bound_to 10752
  139.8990  134.9573  156.6945 H   0  0  0  0  0  0  0  0  0  0  0  0  # atno 11005 bound_to 11000
  145.1802  140.9763  143.4271 LP  0  0  0  0  0  0  0  0  0  0  0  0  # atno 17320 bound_to 7965
  144.9949  139.3653  143.6196 LP  0  0  0  0  0  0  0  0  0  0  0  0  # atno 17321 bound_to 7965
  140.0830  144.5684  150.7108 LP  0  0  0  0  0  0  0  0  0  0  0  0  # atno 17342 bound_to 10162
  140.7154  143.2540  151.4450 LP  0  0  0  0  0  0  0  0  0  0  0  0  # atno 17343 bound_to 10162
  156.6311  130.4432  149.5786 LP  0  0  0  0  0  0  0  0  0  0  0  0  # atno 17370 bound_to 10713
  156.2281  130.6778  151.1436 LP  0  0  0  0  0  0  0  0  0  0  0  0  # atno 17371 bound_to 10713
  140.7199  133.9150  155.8140 LP  0  0  0  0  0  0  0  0  0  0  0  0  # atno 17394 bound_to 11000
  141.0235  134.0855  157.4094 LP  0  0  0  0  0  0  0  0  0  0  0  0  # atno 17395 bound_to 11000

$$$$
