AV-unprocessed.smi:1220|AV-procd|sdf|5117|dock4
  -GOLD-   22720 4173D 1   1.00000     0.00000
 Structure written by MMmdl.
 35 36  0  0  0  0  0  0  0  0  1 V2000
  150.3080  141.7893  155.8421 C   0  0  0  0  0  0  0  0  0  0  0  0
  151.2126  141.0623  156.8461 C   0  0  1  0  0  0  0  0  0  0  0  0
  150.8487  141.4318  158.3006 C   0  0  0  0  0  0  0  0  0  0  0  0
  151.4322  142.6929  158.7239 N   0  0  0  0  0  0  0  0  0  0  0  0
  151.4242  143.9048  158.0655 C   0  0  0  0  0  0  0  0  0  0  0  0
  152.0776  144.8027  158.8597 C   0  0  0  0  0  0  0  0  0  0  0  0
  152.4586  144.0344  159.9951 C   0  0  0  0  0  0  0  0  0  0  0  0
  152.0745  142.7709  159.9091 N   0  0  0  0  0  0  0  0  0  0  0  0
  151.0955  139.6199  156.6334 N   0  0  0  0  0  0  0  0  0  0  0  0
  151.2134  138.9891  155.4538 C   0  0  0  0  0  0  0  0  0  0  0  0
  151.4000  139.5750  154.3872 O   0  0  0  0  0  0  0  0  0  0  0  0
  151.1307  137.4589  155.4900 C   0  0  1  0  0  0  0  0  0  0  0  0
  152.1548  136.8373  156.4642 C   0  0  0  0  0  0  0  0  0  0  0  0
  151.7840  135.3673  156.6837 C   0  0  0  0  0  0  0  0  0  0  0  0
  149.9550  135.3049  156.6195 S   0  0  0  0  0  0  0  0  0  0  0  0
  149.5444  134.2914  155.6362 O   0  0  0  0  0  0  0  0  0  0  0  0
  149.4168  135.2936  157.9881 O   0  0  0  0  0  0  0  0  0  0  0  0
  149.7288  136.9779  155.9068 C   0  0  0  0  0  0  0  0  0  0  0  0
  150.3932  142.8709  155.9501 H   0  0  0  0  0  0  0  0  0  0  0  0
  149.2600  141.5223  155.9840 H   0  0  0  0  0  0  0  0  0  0  0  0
  150.5801  141.5403  154.8158 H   0  0  0  0  0  0  0  0  0  0  0  0
  152.2362  141.3853  156.6475 H   0  0  0  0  0  0  0  0  0  0  0  0
  149.7658  141.5086  158.4093 H   0  0  0  0  0  0  0  0  0  0  0  0
  151.1740  140.6489  158.9871 H   0  0  0  0  0  0  0  0  0  0  0  0
  150.9521  144.0273  157.1019 H   0  0  0  0  0  0  0  0  0  0  0  0
  152.2549  145.8491  158.6612 H   0  0  0  0  0  0  0  0  0  0  0  0
  152.9991  144.3549  160.8734 H   0  0  0  0  0  0  0  0  0  0  0  0
  150.9410  139.0535  157.4551 H   0  0  0  0  0  0  0  0  0  0  0  0
  151.3396  137.0623  154.4947 H   0  0  0  0  0  0  0  0  0  0  0  0
  153.1750  136.9331  156.0911 H   0  0  0  0  0  0  0  0  0  0  0  0
  152.1187  137.3526  157.4254 H   0  0  0  0  0  0  0  0  0  0  0  0
  152.1708  134.7455  155.8762 H   0  0  0  0  0  0  0  0  0  0  0  0
  152.1436  134.9713  157.6336 H   0  0  0  0  0  0  0  0  0  0  0  0
  149.2870  137.6127  156.6764 H   0  0  0  0  0  0  0  0  0  0  0  0
  149.0375  136.9265  155.0657 H   0  0  0  0  0  0  0  0  0  0  0  0
  1  2  1  0  0  0  0
  1 19  1  0  0  0  0
  1 20  1  0  0  0  0
  1 21  1  0  0  0  0
  2  3  1  0  0  0  0
  2  9  1  0  0  0  0
  2 22  1  0  0  0  0
  3  4  1  0  0  0  0
  3 23  1  0  0  0  0
  3 24  1  0  0  0  0
  4  8  1  0  0  0  0
  4  5  1  0  0  0  0
  5  6  2  0  0  0  0
  5 25  1  0  0  0  0
  6  7  1  0  0  0  0
  6 26  1  0  0  0  0
  7  8  2  0  0  0  0
  7 27  1  0  0  0  0
  9 10  1  0  0  0  0
  9 28  1  0  0  0  0
 10 11  2  0  0  0  0
 10 12  1  0  0  0  0
 12 18  1  0  0  0  0
 12 13  1  0  0  0  0
 12 29  1  0  0  0  0
 13 14  1  0  0  0  0
 13 30  1  0  0  0  0
 13 31  1  0  0  0  0
 14 15  1  0  0  0  0
 14 32  1  0  0  0  0
 14 33  1  0  0  0  0
 15 16  2  0  0  0  0
 15 17  2  0  0  0  0
 15 18  1  0  0  0  0
 18 34  1  0  0  0  0
 18 35  1  0  0  0  0
M  END
> <s_m_source_file>
AV-unprocessed.smi

> <i_m_source_file_index>
1220

> <i_lp_mmshare_version>
43012

> <i_f3d_flags>
0

> <s_epik_input>
bjFbY0hdW2NIXVtjSF1uMVtDSDJdW0NAQEhdKFtDSDNdKVtOSF1DKD1PKVtDQEBIXShbQ0gyXTIpW0NIMl1bQ0gyXVMyKD1PKT1P

> <s_epik_cmdline>
J2VwaWtfcHl0aG9uJywgJy1waCcsICc3LjAnLCAnLXRuJywgJzgnLCAnLW1hJywgJzIwMCcsICctbWV0YWxfYmluZGluZycsICctaW1hZScsICc8aW5maWxlLm1hZT4nLCAnLW9tYWUnLCAnPG91dGZpbGUubWFlPic=

> <r_lp_tautomer_probability>
1

> <r_epik_Ionization_Penalty>
0.000293905

> <r_epik_Ionization_Penalty_Charging>
0

> <r_epik_Ionization_Penalty_Neutral>
0.000293905

> <r_epik_State_Penalty>
-0

> <r_epik_Charging_Adjusted_Penalty>
0

> <i_epik_Tot_Q>
0

> <i_epik_Tot_abs_Q>
0

> <r_epik_Metal_State_Penalty>
-0

> <b_epik_Metal_Only>
0

> <s_lp_Force_Field>
OPLS_2005

> <r_lp_Energy>
3.0384

> <b_lp_Chiralities_Consistent>
1

> <s_lp_Variant>
AV-unprocessed.smi:1220-4

> <Gold.Version>
5.8.1

> <Gold.Id.Protein>
6NUR|6NUR_protein|mol2

> <Gold.PLP.Fitness>
36.9937

> <Gold.PLP.PLP>
-28.9181

> <Gold.PLP.part.hbond>
-2.0000

> <Gold.PLP.part.metal>
0.0000

> <Gold.PLP.part.buried>
-2.3347

> <Gold.PLP.part.nonpolar>
-24.2103

> <Gold.PLP.part.repulsive>
0.2198

> <Gold.PLP.ligand.clash>
0.0000

> <Gold.PLP.ligand.torsion>
0.4770

> <Gold.PLP.Chemscore.Hbond>
2.0000

> <Gold.PLP.Chemscore.CHOScore>
1.0000

> <Gold.PLP.Chemscore.Metal>
0.0000

> <Gold.Chemscore.Hbonds>
donor molecule, donor type, donor heavy atom, donor atom, acceptor molecule, acceptor atom, score
      P1  H  6896  6909       L1    17  0.76
      P1  H  7989  7998       L1    11  1.00
      L1  C     5    25       P1  8028  0.85

> <Gold.PLP.Chemscore.Internal.Correction>
0.0295

> <Gold.Rescore>
     Score         DG    S(hbond)    S(metal)    S(lipo)     H(rot)  DE(clash)    DE(int)     intcor
     14.74     -16.40       1.97        0.00      75.16       1.75       0.05       1.61       ----

> <Gold.Chemscore.Fitness>
14.7400

> <Gold.Chemscore.DG>
-16.3994

> <Gold.Chemscore.ZeroCoef>
-5.4800

> <Gold.Chemscore.Hbond>
1.9745

> <Gold.Chemscore.Metal>
0.0000

> <Gold.Chemscore.Lipo>
75.1640

> <Gold.Chemscore.Internal_Hbond>
0.0000

> <Gold.Chemscore.DEClash>
0.0495

> <Gold.Chemscore.DEInternal>
1.6099

> <Gold.Chemscore.Rot>
1.7460

> <Gold.Chemscore.Internal.Correction>
   9.000000E+99

> <Gold.Chemscore.Hbonds>
donor molecule, donor type, donor heavy atom, donor atom, acceptor molecule, acceptor atom, score
      P1  H  6896  6909       L1    17  0.70
      P1  H  7989  7998       L1    11  0.97

> <Gold.Chemscore.Hbond.Weighted>
-6.5949

> <Gold.Chemscore.Metal.Weighted>
-0.0000

> <Gold.Chemscore.Lipo.Weighted>
-8.7942

> <Gold.Chemscore.Internal_Hbond.Weighted>
0.0000

> <Gold.Chemscore.DEClash.Weighted>
0.0495

> <Gold.Chemscore.DEInternal.Weighted>
1.6099

> <Gold.Chemscore.Rot.Weighted>
4.4697

> <Gold.Chemscore.Internal.Correction.Weighted>
   9.000000E+99

> <Gold.Protein.RotatedTorsions>
[ 6907 6896 6895 6894 ] final   51.02 input  -60.11 | X-H torsion
[ 7974 7965 7964 7962 ] final -168.28 input  175.53 | X-H torsion
[ 8008 7997 7996 7995 ] final  -47.83 input   59.86 | X-H torsion
[ 10167 10162 10161 10158 ] final  122.18 input  -65.29 | X-H torsion
[ 10718 10713 10712 10709 ] final   53.73 input   66.30 | X-H torsion
[ 10763 10752 10751 10750 ] final  178.91 input  -60.55 | X-H torsion
[ 11005 11000 10999 10996 ] final  113.68 input  -57.11 | X-H torsion

> <Gold.Protein.ActiveResidues>
 VAL166  LYS551  ARG553  GLY616  TRP617  ASP618  TYR619  PRO620  LYS621  CYS622 
 ASP623  PHE694  ASN695  SER759  ASP760  ASP761  ALA762  ILE779  LEU786  VAL792 
 PHE793  MET794  SER795  GLU796  ALA797  LYS798  CYS799  TRP800  GLU811  SER814 

> <Gold.Protein.RotatedAtoms>
  152.3081  134.7530  160.0342 H   0  0  0  0  0  0  0  0  0  0  0  0  # atno 6907 bound_to 6896
  151.8020  133.3366  159.3538 H   0  0  0  0  0  0  0  0  0  0  0  0  # atno 6908 bound_to 6896
  150.7306  134.5675  159.5917 H   0  0  0  0  0  0  0  0  0  0  0  0  # atno 6909 bound_to 6896
  144.7206  140.2393  143.6294 H   0  0  0  0  0  0  0  0  0  0  0  0  # atno 7974 bound_to 7965
  154.4021  140.1336  156.4240 H   0  0  0  0  0  0  0  0  0  0  0  0  # atno 8008 bound_to 7997
  155.7615  140.3486  155.5180 H   0  0  0  0  0  0  0  0  0  0  0  0  # atno 8009 bound_to 7997
  155.8854  140.0994  157.1446 H   0  0  0  0  0  0  0  0  0  0  0  0  # atno 8010 bound_to 7997
  139.5874  144.7012  151.3374 H   0  0  0  0  0  0  0  0  0  0  0  0  # atno 10167 bound_to 10162
  157.5194  130.8554  149.8538 H   0  0  0  0  0  0  0  0  0  0  0  0  # atno 10718 bound_to 10713
  154.5139  135.2790  155.1320 H   0  0  0  0  0  0  0  0  0  0  0  0  # atno 10763 bound_to 10752
  154.2904  135.6268  153.5387 H   0  0  0  0  0  0  0  0  0  0  0  0  # atno 10764 bound_to 10752
  152.9924  135.5672  154.5611 H   0  0  0  0  0  0  0  0  0  0  0  0  # atno 10765 bound_to 10752
  139.8959  134.9554  156.6777 H   0  0  0  0  0  0  0  0  0  0  0  0  # atno 11005 bound_to 11000
  145.8335  139.2097  143.1869 LP  0  0  0  0  0  0  0  0  0  0  0  0  # atno 17320 bound_to 7965
  146.0410  140.8165  142.9829 LP  0  0  0  0  0  0  0  0  0  0  0  0  # atno 17321 bound_to 7965
  140.7143  143.7307  150.7626 LP  0  0  0  0  0  0  0  0  0  0  0  0  # atno 17342 bound_to 10162
  140.0854  143.4928  152.2507 LP  0  0  0  0  0  0  0  0  0  0  0  0  # atno 17343 bound_to 10162
  156.0342  130.3756  150.1604 LP  0  0  0  0  0  0  0  0  0  0  0  0  # atno 17370 bound_to 10713
  156.9792  130.9859  151.3441 LP  0  0  0  0  0  0  0  0  0  0  0  0  # atno 17371 bound_to 10713
  140.7324  133.9048  155.8220 LP  0  0  0  0  0  0  0  0  0  0  0  0  # atno 17394 bound_to 11000
  141.0143  134.0977  157.4189 LP  0  0  0  0  0  0  0  0  0  0  0  0  # atno 17395 bound_to 11000

$$$$
