AV-unprocessed.smi:1672|AV-procd|sdf|6707|dock4
  -GOLD-   22720 7453D 1   1.00000     0.00000
 Structure written by MMmdl.
 49 51  0  0  0  0  0  0  0  0  3 V2000
  147.4526  135.2737  154.7201 C   0  0  0  0  0  0  0  0  0  0  0  0
  147.8919  135.9891  156.0097 C   0  0  2  0  0  0  0  0  0  0  0  0
  148.0385  137.5106  155.8265 C   0  0  0  0  0  0  0  0  0  0  0  0
  149.3021  137.8832  155.0300 C   0  0  0  0  0  0  0  0  0  0  0  0
  150.5216  137.3109  155.6559 N   0  3  2  0  0  0  0  0  0  0  0  0
  151.7680  137.7721  154.9910 C   0  0  0  0  0  0  0  0  0  0  0  0
  152.0356  139.2733  155.2162 C   0  0  2  0  0  0  0  0  0  0  0  0
  153.3256  139.5828  154.7256 O   0  0  0  0  0  0  0  0  0  0  0  0
  151.9439  139.6557  156.7070 C   0  0  0  0  0  0  0  0  0  0  0  0
  151.3918  141.0043  156.9185 N   0  0  0  0  0  0  0  0  0  0  0  0
  150.4556  141.6895  156.1995 C   0  0  0  0  0  0  0  0  0  0  0  0
  149.7336  141.2130  154.9827 C   0  0  0  0  0  0  0  0  0  0  0  0
  148.9295  142.2191  154.4088 O   0  0  0  0  0  0  0  0  0  0  0  0
  150.2848  142.8980  156.8048 N   0  3  0  0  0  0  0  0  0  0  0  0
  151.1186  142.9909  157.9193 C   0  0  0  0  0  0  0  0  0  0  0  0
  151.2962  144.0199  158.8390 C   0  0  0  0  0  0  0  0  0  0  0  0
  152.2318  143.7933  159.8696 C   0  0  0  0  0  0  0  0  0  0  0  0
  152.9482  142.5822  159.9565 C   0  0  0  0  0  0  0  0  0  0  0  0
  152.7596  141.5463  159.0179 C   0  0  0  0  0  0  0  0  0  0  0  0
  151.8321  141.7770  158.0014 C   0  0  0  0  0  0  0  0  0  0  0  0
  150.4317  135.8314  155.7762 C   0  0  0  0  0  0  0  0  0  0  0  0
  149.1959  135.4158  156.5941 C   0  0  0  0  0  0  0  0  0  0  0  0
  148.1783  135.3910  153.9158 H   0  0  0  0  0  0  0  0  0  0  0  0
  146.4997  135.6651  154.3625 H   0  0  0  0  0  0  0  0  0  0  0  0
  147.3219  134.2050  154.8918 H   0  0  0  0  0  0  0  0  0  0  0  0
  147.1001  135.8194  156.7408 H   0  0  0  0  0  0  0  0  0  0  0  0
  147.1535  137.9196  155.3380 H   0  0  0  0  0  0  0  0  0  0  0  0
  148.0871  137.9850  156.8077 H   0  0  0  0  0  0  0  0  0  0  0  0
  149.2230  137.5399  153.9977 H   0  0  0  0  0  0  0  0  0  0  0  0
  149.3856  138.9702  154.9930 H   0  0  0  0  0  0  0  0  0  0  0  0
  152.6068  137.1732  155.3494 H   0  0  0  0  0  0  0  0  0  0  0  0
  151.7065  137.5912  153.9165 H   0  0  0  0  0  0  0  0  0  0  0  0
  151.3149  139.8727  154.6618 H   0  0  0  0  0  0  0  0  0  0  0  0
  153.6154  138.8772  154.1674 H   0  0  0  0  0  0  0  0  0  0  0  0
  151.2878  138.9573  157.2278 H   0  0  0  0  0  0  0  0  0  0  0  0
  152.9136  139.5788  157.1989 H   0  0  0  0  0  0  0  0  0  0  0  0
  150.4579  140.8738  154.2416 H   0  0  0  0  0  0  0  0  0  0  0  0
  149.1099  140.3557  155.2360 H   0  0  0  0  0  0  0  0  0  0  0  0
  149.0530  143.0199  154.8955 H   0  0  0  0  0  0  0  0  0  0  0  0
  150.7486  144.9487  158.7740 H   0  0  0  0  0  0  0  0  0  0  0  0
  152.4032  144.5633  160.6079 H   0  0  0  0  0  0  0  0  0  0  0  0
  153.6575  142.4452  160.7601 H   0  0  0  0  0  0  0  0  0  0  0  0
  153.3173  140.6254  159.0968 H   0  0  0  0  0  0  0  0  0  0  0  0
  150.3983  135.3833  154.7822 H   0  0  0  0  0  0  0  0  0  0  0  0
  151.3220  135.4361  156.2636 H   0  0  0  0  0  0  0  0  0  0  0  0
  149.3148  135.7707  157.6188 H   0  0  0  0  0  0  0  0  0  0  0  0
  149.1360  134.3288  156.6571 H   0  0  0  0  0  0  0  0  0  0  0  0
  150.5512  137.6812  156.5956 H   0  0  0  0  0  0  0  0  0  0  0  0
  149.6388  143.6056  156.4784 H   0  0  0  0  0  0  0  0  0  0  0  0
  1  2  1  0  0  0  0
  1 23  1  0  0  0  0
  1 24  1  0  0  0  0
  1 25  1  0  0  0  0
  2 22  1  0  0  0  0
  2  3  1  0  0  0  0
  2 26  1  0  0  0  0
  3  4  1  0  0  0  0
  3 27  1  0  0  0  0
  3 28  1  0  0  0  0
  4  5  1  0  0  0  0
  4 29  1  0  0  0  0
  4 30  1  0  0  0  0
  5  6  1  0  0  0  0
  5 21  1  0  0  0  0
  5 48  1  0  0  0  0
  6  7  1  0  0  0  0
  6 31  1  0  0  0  0
  6 32  1  0  0  0  0
  7  8  1  0  0  0  0
  7  9  1  0  0  0  0
  7 33  1  0  0  0  0
  8 34  1  0  0  0  0
  9 10  1  0  0  0  0
  9 35  1  0  0  0  0
  9 36  1  0  0  0  0
 10 20  1  0  0  0  0
 10 11  1  0  0  0  0
 11 12  1  0  0  0  0
 11 14  2  0  0  0  0
 12 13  1  0  0  0  0
 12 37  1  0  0  0  0
 12 38  1  0  0  0  0
 13 39  1  0  0  0  0
 14 15  1  0  0  0  0
 14 49  1  0  0  0  0
 15 20  2  0  0  0  0
 15 16  1  0  0  0  0
 16 17  2  0  0  0  0
 16 40  1  0  0  0  0
 17 18  1  0  0  0  0
 17 41  1  0  0  0  0
 18 19  2  0  0  0  0
 18 42  1  0  0  0  0
 19 20  1  0  0  0  0
 19 43  1  0  0  0  0
 21 22  1  0  0  0  0
 21 44  1  0  0  0  0
 21 45  1  0  0  0  0
 22 46  1  0  0  0  0
 22 47  1  0  0  0  0
M  CHG  1   5   1
M  CHG  1  14   1
M  END
> <s_m_source_file>
AV-unprocessed.smi

> <i_m_source_file_index>
1672

> <i_lp_mmshare_version>
43012

> <i_f3d_flags>
0

> <s_epik_input>
W0NIM11bQ0hdMVtDSDJdW0NIMl1OKFtDSDJdW0NIMl0xKVtDSDJdW0NASF0oW09IXSlbQ0gyXW4oYyhuMilbQ0gyXVtPSF0pYyhjMjMpW2NIXVtjSF1bY0hdW2NIXTM=

> <s_epik_cmdline>
J2VwaWtfcHl0aG9uJywgJy1waCcsICc3LjAnLCAnLXRuJywgJzgnLCAnLW1hJywgJzIwMCcsICctbWV0YWxfYmluZGluZycsICctaW1hZScsICc8aW5maWxlLm1hZT4nLCAnLW9tYWUnLCAnPG91dGZpbGUubWFlPic=

> <r_epik_Ionization_Penalty>
1.51642

> <r_epik_Ionization_Penalty_Charging>
1.51557

> <r_epik_Ionization_Penalty_Neutral>
0.000856474

> <r_epik_State_Penalty>
1.6048

> <r_epik_Charging_Adjusted_Penalty>
3.12037

> <i_epik_Tot_Q>
2

> <i_epik_Tot_abs_Q>
2

> <r_epik_Metal_State_Penalty>
5.65673

> <b_epik_Metal_Only>
0

> <s_lp_Force_Field>
OPLS_2005

> <r_lp_Energy>
31.2365

> <b_lp_Chiralities_Consistent>
1

> <s_lp_Variant>
AV-unprocessed.smi:1672-7

> <Gold.Version>
5.8.1

> <Gold.Id.Protein>
6NUR|6NUR_protein|mol2

> <Gold.PLP.Fitness>
53.3447

> <Gold.PLP.PLP>
-42.8096

> <Gold.PLP.part.hbond>
-5.0000

> <Gold.PLP.part.metal>
0.0000

> <Gold.PLP.part.buried>
-4.2345

> <Gold.PLP.part.nonpolar>
-32.6233

> <Gold.PLP.part.repulsive>
0.0826

> <Gold.PLP.ligand.clash>
0.0000

> <Gold.PLP.ligand.torsion>
0.9852

> <Gold.PLP.Chemscore.Hbond>
4.1373

> <Gold.PLP.Chemscore.CHOScore>
0.0000

> <Gold.PLP.Chemscore.Metal>
0.0000

> <Gold.Chemscore.Hbonds>
donor molecule, donor type, donor heavy atom, donor atom, acceptor molecule, acceptor atom, score
      L1  H    13    39       P1  8028  1.00
      L1  H    14    49       P1  8028  2.00
      P1  H  7997  8008       L1     8  0.99
      P1  H  8011  8017       L1    13  0.12

> <Gold.PLP.Chemscore.Internal.Correction>
0.0937

> <Gold.Rescore>
     Score         DG    S(hbond)    S(metal)    S(lipo)     H(rot)  DE(clash)    DE(int)     intcor
     19.58     -20.49       3.00        0.00     107.27       2.96       0.01       0.89       ----

> <Gold.Chemscore.Fitness>
19.5815

> <Gold.Chemscore.DG>
-20.4898

> <Gold.Chemscore.ZeroCoef>
-5.4800

> <Gold.Chemscore.Hbond>
3.0017

> <Gold.Chemscore.Metal>
0.0000

> <Gold.Chemscore.Lipo>
107.2668

> <Gold.Chemscore.Internal_Hbond>
0.0000

> <Gold.Chemscore.DEClash>
0.0147

> <Gold.Chemscore.DEInternal>
0.8935

> <Gold.Chemscore.Rot>
2.9555

> <Gold.Chemscore.Internal.Correction>
   9.000000E+99

> <Gold.Chemscore.Hbonds>
donor molecule, donor type, donor heavy atom, donor atom, acceptor molecule, acceptor atom, score
      L1  H    13    39       P1  8028  1.00
      L1  H    14    49       P1  8028  0.97
      P1  H  7997  8008       L1     8  0.56
      P1  H  8011  8017       L1    13  0.04

> <Gold.Chemscore.Hbond.Weighted>
-10.0255

> <Gold.Chemscore.Metal.Weighted>
-0.0000

> <Gold.Chemscore.Lipo.Weighted>
-12.5502

> <Gold.Chemscore.Internal_Hbond.Weighted>
0.0000

> <Gold.Chemscore.DEClash.Weighted>
0.0147

> <Gold.Chemscore.DEInternal.Weighted>
0.8935

> <Gold.Chemscore.Rot.Weighted>
7.5660

> <Gold.Chemscore.Internal.Correction.Weighted>
   9.000000E+99

> <Gold.Protein.RotatedTorsions>
[ 6907 6896 6895 6894 ] final -164.28 input  -60.11 | X-H torsion
[ 7974 7965 7964 7962 ] final  -16.25 input  175.53 | X-H torsion
[ 8008 7997 7996 7995 ] final   13.80 input   59.86 | X-H torsion
[ 10167 10162 10161 10158 ] final   35.12 input  -65.29 | X-H torsion
[ 10718 10713 10712 10709 ] final   47.90 input   66.30 | X-H torsion
[ 10763 10752 10751 10750 ] final -146.02 input  -60.55 | X-H torsion
[ 11005 11000 10999 10996 ] final   81.68 input  -57.11 | X-H torsion

> <Gold.Protein.ActiveResidues>
 VAL166  LYS551  ARG553  GLY616  TRP617  ASP618  TYR619  PRO620  LYS621  CYS622 
 ASP623  PHE694  ASN695  SER759  ASP760  ASP761  ALA762  ILE779  LEU786  VAL792 
 PHE793  MET794  SER795  GLU796  ALA797  LYS798  CYS799  TRP800  GLU811  SER814 

> <Gold.Protein.RotatedAtoms>
  151.4094  133.3732  159.2741 H   0  0  0  0  0  0  0  0  0  0  0  0  # atno 6907 bound_to 6896
  150.9374  134.8787  159.7601 H   0  0  0  0  0  0  0  0  0  0  0  0  # atno 6908 bound_to 6896
  152.5056  134.4043  159.9479 H   0  0  0  0  0  0  0  0  0  0  0  0  # atno 6909 bound_to 6896
  146.1996  140.3609  142.8428 H   0  0  0  0  0  0  0  0  0  0  0  0  # atno 7974 bound_to 7965
  154.8395  140.2912  155.5668 H   0  0  0  0  0  0  0  0  0  0  0  0  # atno 8008 bound_to 7997
  156.3011  140.2516  156.3267 H   0  0  0  0  0  0  0  0  0  0  0  0  # atno 8009 bound_to 7997
  154.9141  140.0387  157.1951 H   0  0  0  0  0  0  0  0  0  0  0  0  # atno 8010 bound_to 7997
  140.4251  144.1404  150.6152 H   0  0  0  0  0  0  0  0  0  0  0  0  # atno 10167 bound_to 10162
  157.4632  130.8209  149.7908 H   0  0  0  0  0  0  0  0  0  0  0  0  # atno 10718 bound_to 10713
  154.8356  135.3397  154.6596 H   0  0  0  0  0  0  0  0  0  0  0  0  # atno 10763 bound_to 10752
  153.7212  135.6958  153.5017 H   0  0  0  0  0  0  0  0  0  0  0  0  # atno 10764 bound_to 10752
  153.2380  135.4394  155.0620 H   0  0  0  0  0  0  0  0  0  0  0  0  # atno 10765 bound_to 10752
  139.9090  134.8015  156.2073 H   0  0  0  0  0  0  0  0  0  0  0  0  # atno 11005 bound_to 11000
  144.8654  140.7199  143.6080 LP  0  0  0  0  0  0  0  0  0  0  0  0  # atno 17320 bound_to 7965
  145.3529  139.1701  143.4425 LP  0  0  0  0  0  0  0  0  0  0  0  0  # atno 17321 bound_to 7965
  140.4490  143.2495  151.9373 LP  0  0  0  0  0  0  0  0  0  0  0  0  # atno 17342 bound_to 10162
  139.4783  144.5581  151.8282 LP  0  0  0  0  0  0  0  0  0  0  0  0  # atno 17343 bound_to 10162
  156.0038  130.3866  150.2505 LP  0  0  0  0  0  0  0  0  0  0  0  0  # atno 17370 bound_to 10713
  157.0684  131.0110  151.3198 LP  0  0  0  0  0  0  0  0  0  0  0  0  # atno 17371 bound_to 10713
  141.0487  133.6900  156.1732 LP  0  0  0  0  0  0  0  0  0  0  0  0  # atno 17394 bound_to 11000
  140.6844  134.4733  157.5589 LP  0  0  0  0  0  0  0  0  0  0  0  0  # atno 17395 bound_to 11000

$$$$
