AV-unprocessed.smi:693|AV-procd|sdf|3375|dock2
  -GOLD-   22720 0353D 1   1.00000     0.00000
 Structure written by MMmdl.
 47 48  0  0  0  0  0  0  0  0  2 V2000
  154.0876  134.6013  164.6026 C   0  0  0  0  0  0  0  0  0  0  0  0
  154.4430  135.9882  164.1098 C   0  0  0  0  0  0  0  0  0  0  0  0
  154.3259  136.3494  162.7508 C   0  0  0  0  0  0  0  0  0  0  0  0
  154.6708  137.6582  162.3533 C   0  0  0  0  0  0  0  0  0  0  0  0
  155.1257  138.5787  163.3227 C   0  0  0  0  0  0  0  0  0  0  0  0
  155.4947  139.9966  162.9334 C   0  0  0  0  0  0  0  0  0  0  0  0
  155.4648  140.2018  161.4102 C   0  0  0  0  0  0  0  0  0  0  0  0
  154.3725  141.0798  161.0072 N   0  0  0  0  0  0  0  0  0  0  0  0
  153.4269  140.7703  160.1033 C   0  0  0  0  0  0  0  0  0  0  0  0
  153.3953  139.6729  159.5440 O   0  0  0  0  0  0  0  0  0  0  0  0
  152.5069  141.7438  159.8836 N   0  0  0  0  0  0  0  0  0  0  0  0
  152.6316  143.1609  160.2606 C   0  0  0  0  0  0  0  0  0  0  0  0
  152.9402  143.9754  158.9934 C   0  0  0  0  0  0  0  0  0  0  0  0
  151.8617  143.7536  157.9157 C   0  0  0  0  0  0  0  0  0  0  0  0
  151.5819  142.2504  157.6612 C   0  0  2  0  0  0  0  0  0  0  0  0
  150.4003  141.9972  156.6971 C   0  0  0  0  0  0  0  0  0  0  0  0
  150.4563  140.6390  155.9896 C   0  0  0  0  0  0  0  0  0  0  0  0
  149.3890  139.8459  156.1117 N   0  0  0  0  0  0  0  0  0  0  0  0
  151.4376  140.3175  155.3229 O   0  0  0  0  0  0  0  0  0  0  0  0
  151.3470  141.5306  159.0085 C   0  0  0  0  0  0  0  0  0  0  0  0
  155.2239  138.1610  164.6672 C   0  0  0  0  0  0  0  0  0  0  0  0
  154.8847  136.8983  165.0073 N   0  3  0  0  0  0  0  0  0  0  0  0
  153.0959  134.3166  164.2500 H   0  0  0  0  0  0  0  0  0  0  0  0
  154.0870  134.5539  165.6922 H   0  0  0  0  0  0  0  0  0  0  0  0
  154.8069  133.8726  164.2282 H   0  0  0  0  0  0  0  0  0  0  0  0
  153.9749  135.6336  162.0214 H   0  0  0  0  0  0  0  0  0  0  0  0
  154.5834  137.9504  161.3169 H   0  0  0  0  0  0  0  0  0  0  0  0
  154.8034  140.6840  163.4231 H   0  0  0  0  0  0  0  0  0  0  0  0
  156.4865  140.2294  163.3238 H   0  0  0  0  0  0  0  0  0  0  0  0
  156.4024  140.6463  161.0748 H   0  0  0  0  0  0  0  0  0  0  0  0
  155.3758  139.2427  160.8968 H   0  0  0  0  0  0  0  0  0  0  0  0
  154.3355  141.9934  161.4357 H   0  0  0  0  0  0  0  0  0  0  0  0
  151.6922  143.4997  160.7001 H   0  0  0  0  0  0  0  0  0  0  0  0
  153.3895  143.3537  161.0194 H   0  0  0  0  0  0  0  0  0  0  0  0
  153.0106  145.0360  159.2364 H   0  0  0  0  0  0  0  0  0  0  0  0
  153.9150  143.6827  158.6008 H   0  0  0  0  0  0  0  0  0  0  0  0
  150.9391  144.2414  158.2333 H   0  0  0  0  0  0  0  0  0  0  0  0
  152.1726  144.2522  156.9978 H   0  0  0  0  0  0  0  0  0  0  0  0
  152.4769  141.8159  157.2119 H   0  0  0  0  0  0  0  0  0  0  0  0
  149.4594  142.0647  157.2456 H   0  0  0  0  0  0  0  0  0  0  0  0
  150.3622  142.7824  155.9409 H   0  0  0  0  0  0  0  0  0  0  0  0
  149.3777  138.9419  155.6621 H   0  0  0  0  0  0  0  0  0  0  0  0
  148.5947  140.1551  156.6529 H   0  0  0  0  0  0  0  0  0  0  0  0
  151.1468  140.4709  158.8420 H   0  0  0  0  0  0  0  0  0  0  0  0
  150.4514  141.9220  159.4936 H   0  0  0  0  0  0  0  0  0  0  0  0
  155.5577  138.7949  165.4760 H   0  0  0  0  0  0  0  0  0  0  0  0
  154.9640  136.6200  165.9856 H   0  0  0  0  0  0  0  0  0  0  0  0
  1  2  1  0  0  0  0
  1 23  1  0  0  0  0
  1 24  1  0  0  0  0
  1 25  1  0  0  0  0
  2 22  1  0  0  0  0
  2  3  2  0  0  0  0
  3  4  1  0  0  0  0
  3 26  1  0  0  0  0
  4  5  2  0  0  0  0
  4 27  1  0  0  0  0
  5  6  1  0  0  0  0
  5 21  1  0  0  0  0
  6  7  1  0  0  0  0
  6 28  1  0  0  0  0
  6 29  1  0  0  0  0
  7  8  1  0  0  0  0
  7 30  1  0  0  0  0
  7 31  1  0  0  0  0
  8  9  1  0  0  0  0
  8 32  1  0  0  0  0
  9 10  2  0  0  0  0
  9 11  1  0  0  0  0
 11 20  1  0  0  0  0
 11 12  1  0  0  0  0
 12 13  1  0  0  0  0
 12 33  1  0  0  0  0
 12 34  1  0  0  0  0
 13 14  1  0  0  0  0
 13 35  1  0  0  0  0
 13 36  1  0  0  0  0
 14 15  1  0  0  0  0
 14 37  1  0  0  0  0
 14 38  1  0  0  0  0
 15 16  1  0  0  0  0
 15 20  1  0  0  0  0
 15 39  1  0  0  0  0
 16 17  1  0  0  0  0
 16 40  1  0  0  0  0
 16 41  1  0  0  0  0
 17 18  1  0  0  0  0
 17 19  2  0  0  0  0
 18 42  1  0  0  0  0
 18 43  1  0  0  0  0
 20 44  1  0  0  0  0
 20 45  1  0  0  0  0
 21 22  2  0  0  0  0
 21 46  1  0  0  0  0
 22 47  1  0  0  0  0
M  CHG  1  22   1
M  END
> <s_m_source_file>
AV-unprocessed.smi

> <i_m_source_file_index>
693

> <i_lp_mmshare_version>
43012

> <i_f3d_flags>
0

> <s_epik_input>
W0NIM11jMVtjSF1bY0hdYyhbY0hdbjEpW0NIMl1bQ0gyXVtOSF1DKD1PKU4yW0NIMl1bQ0gyXVtDSDJdW0NASF0oW0NIMl0yKVtDSDJdQyg9TylbTkgyXQ==

> <s_epik_cmdline>
J2VwaWtfcHl0aG9uJywgJy1waCcsICc3LjAnLCAnLXRuJywgJzgnLCAnLW1hJywgJzIwMCcsICctbWV0YWxfYmluZGluZycsICctaW1hZScsICc8aW5maWxlLm1hZT4nLCAnLW9tYWUnLCAnPG91dGZpbGUubWFlPic=

> <r_epik_Ionization_Penalty>
1.41666

> <r_epik_Ionization_Penalty_Charging>
1.4166

> <r_epik_Ionization_Penalty_Neutral>
5.77403e-05

> <r_epik_State_Penalty>
1.50002

> <r_epik_Charging_Adjusted_Penalty>
2.91662

> <i_epik_Tot_Q>
1

> <i_epik_Tot_abs_Q>
1

> <r_epik_Metal_State_Penalty>
1.55252

> <b_epik_Metal_Only>
0

> <s_lp_Force_Field>
OPLS_2005

> <r_lp_Energy>
32.8

> <b_lp_Chiralities_Consistent>
1

> <s_lp_Variant>
AV-unprocessed.smi:693-4

> <Gold.Version>
5.8.1

> <Gold.Id.Protein>
6NUR|6NUR_protein|mol2

> <Gold.PLP.Fitness>
49.1620

> <Gold.PLP.PLP>
-47.5472

> <Gold.PLP.part.hbond>
-2.0534

> <Gold.PLP.part.metal>
0.0000

> <Gold.PLP.part.buried>
-5.7130

> <Gold.PLP.part.nonpolar>
-40.3141

> <Gold.PLP.part.repulsive>
0.1945

> <Gold.PLP.ligand.clash>
0.0000

> <Gold.PLP.ligand.torsion>
0.7085

> <Gold.PLP.Chemscore.Hbond>
0.9440

> <Gold.PLP.Chemscore.CHOScore>
0.0000

> <Gold.PLP.Chemscore.Metal>
0.0000

> <Gold.Chemscore.Hbonds>
donor molecule, donor type, donor heavy atom, donor atom, acceptor molecule, acceptor atom, score
      P1  H  7989  7998       L1    19  0.94

> <Gold.PLP.Chemscore.Internal.Correction>
0.1997

> <Gold.Rescore>
     Score         DG    S(hbond)    S(metal)    S(lipo)     H(rot)  DE(clash)    DE(int)     intcor
     15.76     -16.41       0.98        0.00     116.41       2.34       0.03       0.62       ----

> <Gold.Chemscore.Fitness>
15.7595

> <Gold.Chemscore.DG>
-16.4104

> <Gold.Chemscore.ZeroCoef>
-5.4800

> <Gold.Chemscore.Hbond>
0.9849

> <Gold.Chemscore.Metal>
0.0000

> <Gold.Chemscore.Lipo>
116.4050

> <Gold.Chemscore.Internal_Hbond>
0.0000

> <Gold.Chemscore.DEClash>
0.0268

> <Gold.Chemscore.DEInternal>
0.6242

> <Gold.Chemscore.Rot>
2.3354

> <Gold.Chemscore.Internal.Correction>
   9.000000E+99

> <Gold.Chemscore.Hbonds>
donor molecule, donor type, donor heavy atom, donor atom, acceptor molecule, acceptor atom, score
      P1  H  7989  7998       L1    19  0.90

> <Gold.Chemscore.Hbond.Weighted>
-3.2895

> <Gold.Chemscore.Metal.Weighted>
-0.0000

> <Gold.Chemscore.Lipo.Weighted>
-13.6194

> <Gold.Chemscore.Internal_Hbond.Weighted>
0.0000

> <Gold.Chemscore.DEClash.Weighted>
0.0268

> <Gold.Chemscore.DEInternal.Weighted>
0.6242

> <Gold.Chemscore.Rot.Weighted>
5.9785

> <Gold.Chemscore.Internal.Correction.Weighted>
   9.000000E+99

> <Gold.Protein.RotatedTorsions>
[ 6907 6896 6895 6894 ] final  176.24 input  -60.11 | X-H torsion
[ 7974 7965 7964 7962 ] final  135.36 input  175.53 | X-H torsion
[ 8008 7997 7996 7995 ] final  151.31 input   59.86 | X-H torsion
[ 10167 10162 10161 10158 ] final  -42.16 input  -65.29 | X-H torsion
[ 10718 10713 10712 10709 ] final -171.62 input   66.30 | X-H torsion
[ 10763 10752 10751 10750 ] final  115.34 input  -60.55 | X-H torsion
[ 11005 11000 10999 10996 ] final   60.66 input  -57.11 | X-H torsion

> <Gold.Protein.ActiveResidues>
 VAL166  LYS551  ARG553  GLY616  TRP617  ASP618  TYR619  PRO620  LYS621  CYS622 
 ASP623  PHE694  ASN695  SER759  ASP760  ASP761  ALA762  ILE779  LEU786  VAL792 
 PHE793  MET794  SER795  GLU796  ALA797  LYS798  CYS799  TRP800  GLU811  SER814 

> <Gold.Protein.RotatedAtoms>
  151.7233  133.3315  159.3320 H   0  0  0  0  0  0  0  0  0  0  0  0  # atno 6907 bound_to 6896
  150.7643  134.6428  159.6256 H   0  0  0  0  0  0  0  0  0  0  0  0  # atno 6908 bound_to 6896
  152.3638  134.6836  160.0250 H   0  0  0  0  0  0  0  0  0  0  0  0  # atno 6909 bound_to 6896
  144.9671  139.4646  143.5451 H   0  0  0  0  0  0  0  0  0  0  0  0  # atno 7974 bound_to 7965
  156.2679  140.2051  156.6155 H   0  0  0  0  0  0  0  0  0  0  0  0  # atno 8008 bound_to 7997
  154.6798  140.0541  157.0277 H   0  0  0  0  0  0  0  0  0  0  0  0  # atno 8009 bound_to 7997
  155.1017  140.3206  155.4548 H   0  0  0  0  0  0  0  0  0  0  0  0  # atno 8010 bound_to 7997
  140.6978  143.3053  151.3170 H   0  0  0  0  0  0  0  0  0  0  0  0  # atno 10167 bound_to 10162
  156.7435  130.9351  151.3111 H   0  0  0  0  0  0  0  0  0  0  0  0  # atno 10718 bound_to 10713
  153.5208  135.3598  155.2631 H   0  0  0  0  0  0  0  0  0  0  0  0  # atno 10763 bound_to 10752
  154.8735  135.4045  154.3262 H   0  0  0  0  0  0  0  0  0  0  0  0  # atno 10764 bound_to 10752
  153.3932  135.7072  153.6547 H   0  0  0  0  0  0  0  0  0  0  0  0  # atno 10765 bound_to 10752
  140.0216  134.6144  155.9631 H   0  0  0  0  0  0  0  0  0  0  0  0  # atno 11005 bound_to 11000
  146.3371  139.8859  142.8817 LP  0  0  0  0  0  0  0  0  0  0  0  0  # atno 17320 bound_to 7965
  145.2613  141.0078  143.3825 LP  0  0  0  0  0  0  0  0  0  0  0  0  # atno 17321 bound_to 7965
  139.6456  144.0457  152.2588 LP  0  0  0  0  0  0  0  0  0  0  0  0  # atno 17342 bound_to 10162
  139.9976  144.6316  150.7758 LP  0  0  0  0  0  0  0  0  0  0  0  0  # atno 17343 bound_to 10162
  157.6808  130.9138  150.0262 LP  0  0  0  0  0  0  0  0  0  0  0  0  # atno 17370 bound_to 10713
  156.1448  130.3642  149.9526 LP  0  0  0  0  0  0  0  0  0  0  0  0  # atno 17371 bound_to 10713
  141.1777  133.6542  156.4895 LP  0  0  0  0  0  0  0  0  0  0  0  0  # atno 17394 bound_to 11000
  140.4377  134.7044  157.4975 LP  0  0  0  0  0  0  0  0  0  0  0  0  # atno 17395 bound_to 11000

$$$$
