AV-unprocessed.smi:1002|AV-procd|sdf|4359|dock1
  -GOLD-   22720 2263D 1   1.00000     0.00000
 Structure written by MMmdl.
 36 37  0  0  0  0  0  0  0  0  2 V2000
  145.5304  133.9478  153.9563 O   0  0  0  0  0  0  0  0  0  0  0  0
  146.3982  134.3347  153.1735 C   0  0  0  0  0  0  0  0  0  0  0  0
  145.9984  134.9408  151.8278 C   0  0  0  0  0  0  0  0  0  0  0  0
  145.4758  133.8627  150.8948 C   0  0  0  0  0  0  0  0  0  0  0  0
  144.1800  133.9513  150.3444 C   0  0  0  0  0  0  0  0  0  0  0  0
  143.7430  132.9244  149.4838 C   0  0  0  0  0  0  0  0  0  0  0  0
  144.5021  131.8559  149.1581 N   0  0  0  0  0  0  0  0  0  0  0  0
  145.7407  131.7762  149.6899 C   0  0  0  0  0  0  0  0  0  0  0  0
  146.2732  132.7473  150.5614 C   0  0  0  0  0  0  0  0  0  0  0  0
  147.7141  134.2604  153.4276 N   0  0  0  0  0  0  0  0  0  0  0  0
  148.3132  133.7308  154.6483 C   0  0  2  0  0  0  0  0  0  0  0  0
  147.8987  134.6091  155.8439 C   0  0  0  0  0  0  0  0  0  0  0  0
  148.5699  134.1403  157.1490 C   0  0  0  0  0  0  0  0  0  0  0  0
  150.1134  134.0837  157.0333 C   0  0  2  0  0  0  0  0  0  0  0  0
  150.7643  135.4863  156.9789 C   0  0  0  0  0  0  0  0  0  0  0  0
  150.5746  136.2533  157.9488 O   0  0  0  0  0  0  0  0  0  0  0  0
  151.4199  135.7900  155.9572 O   0  5  0  0  0  0  0  0  0  0  0  0
  150.5092  133.1986  155.8259 C   0  0  0  0  0  0  0  0  0  0  0  0
  149.8490  133.6649  154.5148 C   0  0  0  0  0  0  0  0  0  0  0  0
  145.2366  135.7085  151.9722 H   0  0  0  0  0  0  0  0  0  0  0  0
  146.8605  135.4349  151.3779 H   0  0  0  0  0  0  0  0  0  0  0  0
  143.5352  134.7872  150.5726 H   0  0  0  0  0  0  0  0  0  0  0  0
  142.7566  132.9627  149.0458 H   0  0  0  0  0  0  0  0  0  0  0  0
  146.3259  130.9118  149.4128 H   0  0  0  0  0  0  0  0  0  0  0  0
  147.2714  132.6385  150.9595 H   0  0  0  0  0  0  0  0  0  0  0  0
  148.3522  134.6011  152.7230 H   0  0  0  0  0  0  0  0  0  0  0  0
  147.9319  132.7226  154.8231 H   0  0  0  0  0  0  0  0  0  0  0  0
  148.1606  135.6498  155.6483 H   0  0  0  0  0  0  0  0  0  0  0  0
  146.8148  134.5863  155.9638 H   0  0  0  0  0  0  0  0  0  0  0  0
  148.2615  134.7782  157.9782 H   0  0  0  0  0  0  0  0  0  0  0  0
  148.1992  133.1454  157.3978 H   0  0  0  0  0  0  0  0  0  0  0  0
  150.5026  133.6153  157.9379 H   0  0  0  0  0  0  0  0  0  0  0  0
  151.5921  133.1598  155.7038 H   0  0  0  0  0  0  0  0  0  0  0  0
  150.2050  132.1711  156.0282 H   0  0  0  0  0  0  0  0  0  0  0  0
  150.1263  132.9841  153.7092 H   0  0  0  0  0  0  0  0  0  0  0  0
  150.2394  134.6438  154.2332 H   0  0  0  0  0  0  0  0  0  0  0  0
  1  2  2  0  0  0  0
  2  3  1  0  0  0  0
  2 10  1  0  0  0  0
  3  4  1  0  0  0  0
  3 20  1  0  0  0  0
  3 21  1  0  0  0  0
  4  9  1  0  0  0  0
  4  5  2  0  0  0  0
  5  6  1  0  0  0  0
  5 22  1  0  0  0  0
  6  7  2  0  0  0  0
  6 23  1  0  0  0  0
  7  8  1  0  0  0  0
  8  9  2  0  0  0  0
  8 24  1  0  0  0  0
  9 25  1  0  0  0  0
 10 11  1  0  0  0  0
 10 26  1  0  0  0  0
 11 19  1  0  0  0  0
 11 12  1  0  0  0  0
 11 27  1  0  0  0  0
 12 13  1  0  0  0  0
 12 28  1  0  0  0  0
 12 29  1  0  0  0  0
 13 14  1  0  0  0  0
 13 30  1  0  0  0  0
 13 31  1  0  0  0  0
 14 15  1  0  0  0  0
 14 18  1  0  0  0  0
 14 32  1  0  0  0  0
 15 16  2  0  0  0  0
 15 17  1  0  0  0  0
 18 19  1  0  0  0  0
 18 33  1  0  0  0  0
 18 34  1  0  0  0  0
 19 35  1  0  0  0  0
 19 36  1  0  0  0  0
M  CHG  1  17  -1
M  END
> <s_m_source_file>
AV-unprocessed.smi

> <i_m_source_file_index>
1002

> <i_lp_mmshare_version>
43012

> <i_f3d_flags>
0

> <s_epik_input>
Tz1DKFtPSF0pW0NAQEhdKFtDSDJdW0NIMl0xKVtDSDJdW0NIMl1bQ0BIXTFbTkhdQyg9TylbQ0gyXWMyW2NIXVtjSF1uW2NIXVtjSF0y

> <s_epik_cmdline>
J2VwaWtfcHl0aG9uJywgJy1waCcsICc3LjAnLCAnLXRuJywgJzgnLCAnLW1hJywgJzIwMCcsICctbWV0YWxfYmluZGluZycsICctaW1hZScsICc8aW5maWxlLm1hZT4nLCAnLW9tYWUnLCAnPG91dGZpbGUubWFlPic=

> <r_lp_tautomer_probability>
1

> <r_epik_Ionization_Penalty>
0.0065671

> <r_epik_Ionization_Penalty_Charging>
0.00222897

> <r_epik_Ionization_Penalty_Neutral>
0.00433813

> <r_epik_State_Penalty>
-0

> <r_epik_Charging_Adjusted_Penalty>
0.00222897

> <i_epik_Tot_Q>
-1

> <i_epik_Tot_abs_Q>
1

> <r_epik_Metal_State_Penalty>
-0

> <b_epik_Metal_Only>
0

> <s_lp_Force_Field>
OPLS_2005

> <r_lp_Energy>
6.9224

> <b_lp_Chiralities_Consistent>
1

> <s_lp_Variant>
AV-unprocessed.smi:1002-2

> <Gold.Version>
5.8.1

> <Gold.Id.Protein>
6NUR|6NUR_protein|mol2

> <Gold.PLP.Fitness>
43.9436

> <Gold.PLP.PLP>
-27.0591

> <Gold.PLP.part.hbond>
-4.0000

> <Gold.PLP.part.metal>
0.0000

> <Gold.PLP.part.buried>
-2.5301

> <Gold.PLP.part.nonpolar>
-22.1666

> <Gold.PLP.part.repulsive>
0.3391

> <Gold.PLP.ligand.clash>
0.0000

> <Gold.PLP.ligand.torsion>
0.1877

> <Gold.PLP.Chemscore.Hbond>
4.3406

> <Gold.PLP.Chemscore.CHOScore>
1.3992

> <Gold.PLP.Chemscore.Metal>
0.0000

> <Gold.Chemscore.Hbonds>
donor molecule, donor type, donor heavy atom, donor atom, acceptor molecule, acceptor atom, score
      L1  H    10    26       P1  7948  0.88
      P1  H  6896  6909       L1    16  0.59
      P1  H 10752 10765       L1    17  2.00
      P1  H 10785 10796       L1     7  0.28
      L1  C     6    23       P1 10186  0.98
      L1  C     8    24       P1 10747  0.32

> <Gold.PLP.Chemscore.Internal.Correction>
0.0405

> <Gold.Rescore>
     Score         DG    S(hbond)    S(metal)    S(lipo)     H(rot)  DE(clash)    DE(int)     intcor
     14.94     -16.28       2.26        0.00      68.99       1.88       0.28       1.06       ----

> <Gold.Chemscore.Fitness>
14.9359

> <Gold.Chemscore.DG>
-16.2771

> <Gold.Chemscore.ZeroCoef>
-5.4800

> <Gold.Chemscore.Hbond>
2.2591

> <Gold.Chemscore.Metal>
0.0000

> <Gold.Chemscore.Lipo>
68.9886

> <Gold.Chemscore.Internal_Hbond>
0.0000

> <Gold.Chemscore.DEClash>
0.2836

> <Gold.Chemscore.DEInternal>
1.0576

> <Gold.Chemscore.Rot>
1.8828

> <Gold.Chemscore.Internal.Correction>
   9.000000E+99

> <Gold.Chemscore.Hbonds>
donor molecule, donor type, donor heavy atom, donor atom, acceptor molecule, acceptor atom, score
      L1  H    10    26       P1  7948  0.26
      P1  H  6896  6909       L1    16  0.07
      P1  H 10752 10765       L1    17  0.88
      P1  H 10785 10796       L1     7  0.20

> <Gold.Chemscore.Hbond.Weighted>
-7.5453

> <Gold.Chemscore.Metal.Weighted>
-0.0000

> <Gold.Chemscore.Lipo.Weighted>
-8.0717

> <Gold.Chemscore.Internal_Hbond.Weighted>
0.0000

> <Gold.Chemscore.DEClash.Weighted>
0.2836

> <Gold.Chemscore.DEInternal.Weighted>
1.0576

> <Gold.Chemscore.Rot.Weighted>
4.8199

> <Gold.Chemscore.Internal.Correction.Weighted>
   9.000000E+99

> <Gold.Protein.RotatedTorsions>
[ 6907 6896 6895 6894 ] final   61.74 input  -60.11 | X-H torsion
[ 7974 7965 7964 7962 ] final  -22.47 input  175.53 | X-H torsion
[ 8008 7997 7996 7995 ] final    4.70 input   59.86 | X-H torsion
[ 10167 10162 10161 10158 ] final   41.46 input  -65.29 | X-H torsion
[ 10718 10713 10712 10709 ] final -167.16 input   66.30 | X-H torsion
[ 10763 10752 10751 10750 ] final -139.57 input  -60.55 | X-H torsion
[ 11005 11000 10999 10996 ] final   56.57 input  -57.11 | X-H torsion

> <Gold.Protein.ActiveResidues>
 VAL166  LYS551  ARG553  GLY616  TRP617  ASP618  TYR619  PRO620  LYS621  CYS622 
 ASP623  PHE694  ASN695  SER759  ASP760  ASP761  ALA762  ILE779  LEU786  VAL792 
 PHE793  MET794  SER795  GLU796  ALA797  LYS798  CYS799  TRP800  GLU811  SER814 

> <Gold.Protein.RotatedAtoms>
  152.4114  134.6118  160.0027 H   0  0  0  0  0  0  0  0  0  0  0  0  # atno 6907 bound_to 6896
  151.6294  133.3327  159.3113 H   0  0  0  0  0  0  0  0  0  0  0  0  # atno 6908 bound_to 6896
  150.8005  134.7135  159.6662 H   0  0  0  0  0  0  0  0  0  0  0  0  # atno 6909 bound_to 6896
  146.1673  140.4484  142.8546 H   0  0  0  0  0  0  0  0  0  0  0  0  # atno 7974 bound_to 7965
  154.7191  140.2708  155.6557 H   0  0  0  0  0  0  0  0  0  0  0  0  # atno 8008 bound_to 7997
  156.2818  140.2738  156.1782 H   0  0  0  0  0  0  0  0  0  0  0  0  # atno 8009 bound_to 7997
  155.0531  140.0371  157.2540 H   0  0  0  0  0  0  0  0  0  0  0  0  # atno 8010 bound_to 7997
  140.3641  144.2190  150.6136 H   0  0  0  0  0  0  0  0  0  0  0  0  # atno 10167 bound_to 10162
  156.6783  130.9111  151.3053 H   0  0  0  0  0  0  0  0  0  0  0  0  # atno 10718 bound_to 10713
  154.8605  135.3578  154.5568 H   0  0  0  0  0  0  0  0  0  0  0  0  # atno 10763 bound_to 10752
  153.6184  135.7007  153.5324 H   0  0  0  0  0  0  0  0  0  0  0  0  # atno 10764 bound_to 10752
  153.3150  135.4168  155.1328 H   0  0  0  0  0  0  0  0  0  0  0  0  # atno 10765 bound_to 10752
  140.0519  134.5725  155.9254 H   0  0  0  0  0  0  0  0  0  0  0  0  # atno 11005 bound_to 11000
  144.8112  140.6388  143.6414 LP  0  0  0  0  0  0  0  0  0  0  0  0  # atno 17320 bound_to 7965
  145.4433  139.1533  143.3958 LP  0  0  0  0  0  0  0  0  0  0  0  0  # atno 17321 bound_to 7965
  140.5098  143.2294  151.8553 LP  0  0  0  0  0  0  0  0  0  0  0  0  # atno 17342 bound_to 10162
  139.4811  144.4963  151.9119 LP  0  0  0  0  0  0  0  0  0  0  0  0  # atno 17343 bound_to 10162
  157.7053  130.9378  150.0911 LP  0  0  0  0  0  0  0  0  0  0  0  0  # atno 17370 bound_to 10713
  156.1887  130.3653  149.8939 LP  0  0  0  0  0  0  0  0  0  0  0  0  # atno 17371 bound_to 10713
  141.1934  133.6579  156.5547 LP  0  0  0  0  0  0  0  0  0  0  0  0  # atno 17394 bound_to 11000
  140.3904  134.7445  157.4718 LP  0  0  0  0  0  0  0  0  0  0  0  0  # atno 17395 bound_to 11000

$$$$
