AV-unprocessed.smi:340|AV-procd|sdf|2380|dock5
  -GOLD-   2262022303D 1   1.00000     0.00000
 Structure written by MMmdl.
 35 36  0  0  0  0  0  0  0  0  1 V2000
  148.2909  138.2235  156.2364 C   0  0  0  0  0  0  0  0  0  0  0  0
  149.3885  136.7890  155.8858 S   0  0  0  0  0  0  0  0  0  0  0  0
  150.4740  136.7985  156.8777 O   0  0  0  0  0  0  0  0  0  0  0  0
  148.5588  135.5886  155.7003 O   0  0  0  0  0  0  0  0  0  0  0  0
  150.0896  137.1974  154.3609 N   0  0  0  0  0  0  0  0  0  0  0  0
  151.3688  137.8965  154.2272 C   0  0  0  0  0  0  0  0  0  0  0  0
  151.6222  138.9015  155.3334 C   0  0  0  0  0  0  0  0  0  0  0  0
  150.7489  139.9868  155.5387 C   0  0  0  0  0  0  0  0  0  0  0  0
  151.0351  140.9067  156.5652 C   0  0  0  0  0  0  0  0  0  0  0  0
  152.1885  140.7148  157.3633 C   0  0  0  0  0  0  0  0  0  0  0  0
  152.4970  141.6270  158.3959 N   0  0  0  0  0  0  0  0  0  0  0  0
  151.7100  142.8580  158.4120 C   0  0  0  0  0  0  0  0  0  0  0  0
  152.3421  143.8856  159.3667 C   0  0  0  0  0  0  0  0  0  0  0  0
  152.4988  143.3113  160.6600 O   0  0  0  0  0  0  0  0  0  0  0  0
  153.3611  142.1786  160.6355 C   0  0  0  0  0  0  0  0  0  0  0  0
  152.7602  141.0906  159.7301 C   0  0  0  0  0  0  0  0  0  0  0  0
  153.0271  139.6686  157.1578 N   0  0  0  0  0  0  0  0  0  0  0  0
  152.7476  138.7882  156.1739 C   0  0  0  0  0  0  0  0  0  0  0  0
  147.8527  138.1072  157.2273 H   0  0  0  0  0  0  0  0  0  0  0  0
  147.4913  138.2712  155.4985 H   0  0  0  0  0  0  0  0  0  0  0  0
  148.8718  139.1450  156.2044 H   0  0  0  0  0  0  0  0  0  0  0  0
  149.4937  137.1191  153.5369 H   0  0  0  0  0  0  0  0  0  0  0  0
  152.1713  137.1587  154.2364 H   0  0  0  0  0  0  0  0  0  0  0  0
  151.4083  138.3865  153.2536 H   0  0  0  0  0  0  0  0  0  0  0  0
  149.8783  140.1195  154.9133 H   0  0  0  0  0  0  0  0  0  0  0  0
  150.3808  141.7525  156.7152 H   0  0  0  0  0  0  0  0  0  0  0  0
  151.6286  143.2998  157.4201 H   0  0  0  0  0  0  0  0  0  0  0  0
  150.6960  142.6221  158.7377 H   0  0  0  0  0  0  0  0  0  0  0  0
  153.3076  144.2253  158.9881 H   0  0  0  0  0  0  0  0  0  0  0  0
  151.7042  144.7660  159.4450 H   0  0  0  0  0  0  0  0  0  0  0  0
  154.3534  142.4705  160.2871 H   0  0  0  0  0  0  0  0  0  0  0  0
  153.4789  141.7992  161.6505 H   0  0  0  0  0  0  0  0  0  0  0  0
  151.8291  140.7192  160.1604 H   0  0  0  0  0  0  0  0  0  0  0  0
  153.4516  140.2490  159.6699 H   0  0  0  0  0  0  0  0  0  0  0  0
  153.4499  137.9769  156.0485 H   0  0  0  0  0  0  0  0  0  0  0  0
  1  2  1  0  0  0  0
  1 19  1  0  0  0  0
  1 20  1  0  0  0  0
  1 21  1  0  0  0  0
  2  3  2  0  0  0  0
  2  4  2  0  0  0  0
  2  5  1  0  0  0  0
  5  6  1  0  0  0  0
  5 22  1  0  0  0  0
  6  7  1  0  0  0  0
  6 23  1  0  0  0  0
  6 24  1  0  0  0  0
  7 18  1  0  0  0  0
  7  8  2  0  0  0  0
  8  9  1  0  0  0  0
  8 25  1  0  0  0  0
  9 10  2  0  0  0  0
  9 26  1  0  0  0  0
 10 11  1  0  0  0  0
 10 17  1  0  0  0  0
 11 16  1  0  0  0  0
 11 12  1  0  0  0  0
 12 13  1  0  0  0  0
 12 27  1  0  0  0  0
 12 28  1  0  0  0  0
 13 14  1  0  0  0  0
 13 29  1  0  0  0  0
 13 30  1  0  0  0  0
 14 15  1  0  0  0  0
 15 16  1  0  0  0  0
 15 31  1  0  0  0  0
 15 32  1  0  0  0  0
 16 33  1  0  0  0  0
 16 34  1  0  0  0  0
 17 18  2  0  0  0  0
 18 35  1  0  0  0  0
M  END
> <s_m_source_file>
AV-unprocessed.smi

> <i_m_source_file_index>
340

> <i_lp_mmshare_version>
43012

> <i_f3d_flags>
0

> <s_epik_input>
W0NIM11TKD1PKSg9TylbTkhdW0NIMl1jMVtjSF1bY0hdYyhuW2NIXTEpTjJbQ0gyXVtDSDJdT1tDSDJdW0NIMl0y

> <s_epik_cmdline>
J2VwaWtfcHl0aG9uJywgJy1waCcsICc3LjAnLCAnLXRuJywgJzgnLCAnLW1hJywgJzIwMCcsICctbWV0YWxfYmluZGluZycsICctaW1hZScsICc8aW5maWxlLm1hZT4nLCAnLW9tYWUnLCAnPG91dGZpbGUubWFlPic=

> <r_lp_tautomer_probability>
1

> <r_epik_Ionization_Penalty>
0.00676355

> <r_epik_Ionization_Penalty_Charging>
0

> <r_epik_Ionization_Penalty_Neutral>
0.00676355

> <r_epik_State_Penalty>
0.00499739

> <r_epik_Charging_Adjusted_Penalty>
0.00499739

> <i_epik_Tot_Q>
0

> <i_epik_Tot_abs_Q>
0

> <r_epik_Metal_State_Penalty>
0.025736

> <b_epik_Metal_Only>
0

> <s_lp_Force_Field>
OPLS_2005

> <r_lp_Energy>
12.1718

> <b_lp_Chiralities_Consistent>
1

> <s_lp_Variant>
AV-unprocessed.smi:340-1

> <Gold.Version>
5.8.1

> <Gold.Id.Protein>
6NUR|6NUR_protein|mol2

> <Gold.PLP.Fitness>
35.2792

> <Gold.PLP.PLP>
-29.6656

> <Gold.PLP.part.hbond>
-2.0000

> <Gold.PLP.part.metal>
0.0000

> <Gold.PLP.part.buried>
-2.6955

> <Gold.PLP.part.nonpolar>
-24.5447

> <Gold.PLP.part.repulsive>
0.1351

> <Gold.PLP.ligand.clash>
0.0000

> <Gold.PLP.ligand.torsion>
0.8574

> <Gold.PLP.Chemscore.Hbond>
1.9920

> <Gold.PLP.Chemscore.CHOScore>
0.0000

> <Gold.PLP.Chemscore.Metal>
0.0000

> <Gold.Chemscore.Hbonds>
donor molecule, donor type, donor heavy atom, donor atom, acceptor molecule, acceptor atom, score
      L1  H     5    22       P1  7948  1.00
      P1  H  7997  8010       L1    17  1.00

> <Gold.PLP.Chemscore.Internal.Correction>
1.3524

> <Gold.Rescore>
     Score         DG    S(hbond)    S(metal)    S(lipo)     H(rot)  DE(clash)    DE(int)     intcor
     13.36     -15.14       1.43        0.00      76.48       1.59       0.04       1.73       ----

> <Gold.Chemscore.Fitness>
13.3609

> <Gold.Chemscore.DG>
-15.1353

> <Gold.Chemscore.ZeroCoef>
-5.4800

> <Gold.Chemscore.Hbond>
1.4321

> <Gold.Chemscore.Metal>
0.0000

> <Gold.Chemscore.Lipo>
76.4761

> <Gold.Chemscore.Internal_Hbond>
0.0000

> <Gold.Chemscore.DEClash>
0.0402

> <Gold.Chemscore.DEInternal>
1.7341

> <Gold.Chemscore.Rot>
1.5921

> <Gold.Chemscore.Internal.Correction>
   9.000000E+99

> <Gold.Chemscore.Hbonds>
donor molecule, donor type, donor heavy atom, donor atom, acceptor molecule, acceptor atom, score
      L1  H     5    22       P1  7948  0.86
      P1  H  7997  8010       L1    17  0.38

> <Gold.Chemscore.Hbond.Weighted>
-4.7832

> <Gold.Chemscore.Metal.Weighted>
-0.0000

> <Gold.Chemscore.Lipo.Weighted>
-8.9477

> <Gold.Chemscore.Internal_Hbond.Weighted>
0.0000

> <Gold.Chemscore.DEClash.Weighted>
0.0402

> <Gold.Chemscore.DEInternal.Weighted>
1.7341

> <Gold.Chemscore.Rot.Weighted>
4.0757

> <Gold.Chemscore.Internal.Correction.Weighted>
   9.000000E+99

> <Gold.Protein.RotatedTorsions>
[ 6907 6896 6895 6894 ] final  -83.00 input  -60.11 | X-H torsion
[ 7974 7965 7964 7962 ] final -177.50 input  175.53 | X-H torsion
[ 8008 7997 7996 7995 ] final   41.21 input   59.86 | X-H torsion
[ 10167 10162 10161 10158 ] final  -32.08 input  -65.29 | X-H torsion
[ 10718 10713 10712 10709 ] final   19.28 input   66.30 | X-H torsion
[ 10763 10752 10751 10750 ] final  150.78 input  -60.55 | X-H torsion
[ 11005 11000 10999 10996 ] final   67.21 input  -57.11 | X-H torsion

> <Gold.Protein.ActiveResidues>
 VAL166  LYS551  ARG553  GLY616  TRP617  ASP618  TYR619  PRO620  LYS621  CYS622 
 ASP623  PHE694  ASN695  SER759  ASP760  ASP761  ALA762  ILE779  LEU786  VAL792 
 PHE793  MET794  SER795  GLU796  ALA797  LYS798  CYS799  TRP800  GLU811  SER814 

> <Gold.Protein.RotatedAtoms>
  150.6890  134.3579  159.4937 H   0  0  0  0  0  0  0  0  0  0  0  0  # atno 6907 bound_to 6896
  152.1411  134.9059  160.0563 H   0  0  0  0  0  0  0  0  0  0  0  0  # atno 6908 bound_to 6896
  152.0192  133.3857  159.4288 H   0  0  0  0  0  0  0  0  0  0  0  0  # atno 6909 bound_to 6896
  144.7128  140.1010  143.6416 H   0  0  0  0  0  0  0  0  0  0  0  0  # atno 7974 bound_to 7965
  155.2659  140.3362  155.4269 H   0  0  0  0  0  0  0  0  0  0  0  0  # atno 8008 bound_to 7997
  156.2154  140.1787  156.7643 H   0  0  0  0  0  0  0  0  0  0  0  0  # atno 8009 bound_to 7997
  154.5746  140.0664  156.9000 H   0  0  0  0  0  0  0  0  0  0  0  0  # atno 8010 bound_to 7997
  140.7226  143.3721  151.1758 H   0  0  0  0  0  0  0  0  0  0  0  0  # atno 10167 bound_to 10162
  157.1082  130.6497  149.5890 H   0  0  0  0  0  0  0  0  0  0  0  0  # atno 10718 bound_to 10713
  154.0931  135.2851  155.3267 H   0  0  0  0  0  0  0  0  0  0  0  0  # atno 10763 bound_to 10752
  154.6606  135.5336  153.8017 H   0  0  0  0  0  0  0  0  0  0  0  0  # atno 10764 bound_to 10752
  153.0406  135.6533  154.1099 H   0  0  0  0  0  0  0  0  0  0  0  0  # atno 10765 bound_to 10752
  139.9785  134.6783  156.0308 H   0  0  0  0  0  0  0  0  0  0  0  0  # atno 11005 bound_to 11000
  145.9537  139.2752  143.1197 LP  0  0  0  0  0  0  0  0  0  0  0  0  # atno 17320 bound_to 7965
  145.9295  140.9058  143.0363 LP  0  0  0  0  0  0  0  0  0  0  0  0  # atno 17321 bound_to 7965
  139.7295  143.9096  152.3014 LP  0  0  0  0  0  0  0  0  0  0  0  0  # atno 17342 bound_to 10162
  139.8880  144.6981  150.8803 LP  0  0  0  0  0  0  0  0  0  0  0  0  # atno 17343 bound_to 10162
  155.9857  130.4888  150.7043 LP  0  0  0  0  0  0  0  0  0  0  0  0  # atno 17370 bound_to 10713
  157.4582  131.0880  151.0774 LP  0  0  0  0  0  0  0  0  0  0  0  0  # atno 17371 bound_to 10713
  141.1459  133.6556  156.3867 LP  0  0  0  0  0  0  0  0  0  0  0  0  # atno 17394 bound_to 11000
  140.5145  134.6363  157.5296 LP  0  0  0  0  0  0  0  0  0  0  0  0  # atno 17395 bound_to 11000

$$$$
