AV-unprocessed.smi:1033|AV-procd|sdf|4493|dock7
  -GOLD-   22720 2483D 1   1.00000     0.00000
 Structure written by MMmdl.
 56 58  0  0  0  0  0  0  0  0  2 V2000
  150.5926  145.1605  158.9259 C   0  0  0  0  0  0  0  0  0  0  0  0
  151.4475  144.1162  159.6221 C   0  0  0  0  0  0  0  0  0  0  0  0
  151.8469  144.3357  160.9600 C   0  0  0  0  0  0  0  0  0  0  0  0
  152.6414  143.3894  161.6432 C   0  0  0  0  0  0  0  0  0  0  0  0
  153.1413  143.3979  162.9342 N   0  0  0  0  0  0  0  0  0  0  0  0
  153.7999  142.2434  162.9753 C   0  0  0  0  0  0  0  0  0  0  0  0
  153.7921  141.4900  161.8585 N   0  0  0  0  0  0  0  0  0  0  0  0
  154.4393  140.2063  161.6582 C   0  0  0  0  0  0  0  0  0  0  0  0
  153.8550  139.4417  160.4554 C   0  0  1  0  0  0  0  0  0  0  0  0
  154.7674  139.5077  159.3759 O   0  0  0  0  0  0  0  0  0  0  0  0
  153.5884  137.9615  160.7921 C   0  0  0  0  0  0  0  0  0  0  0  0
  154.4274  137.4673  161.9138 N   0  3  0  0  0  0  0  0  0  0  0  0
  155.1758  136.2204  161.6002 C   0  0  0  0  0  0  0  0  0  0  0  0
  156.0639  135.8182  162.7946 C   0  0  0  0  0  0  0  0  0  0  0  0
  155.3148  135.6380  164.0405 N   0  0  0  0  0  0  0  0  0  0  0  0
  154.4549  134.4489  164.0740 C   0  0  0  0  0  0  0  0  0  0  0  0
  153.9747  134.0148  165.4735 C   0  0  1  0  0  0  0  0  0  0  0  0
  153.4563  132.5700  165.5115 C   0  0  0  0  0  0  0  0  0  0  0  0
  155.0679  134.1133  166.3612 O   0  0  0  0  0  0  0  0  0  0  0  0
  154.5839  136.8731  164.3248 C   0  0  0  0  0  0  0  0  0  0  0  0
  153.6549  137.3109  163.1734 C   0  0  0  0  0  0  0  0  0  0  0  0
  153.0292  142.2086  160.9452 C   0  0  0  0  0  0  0  0  0  0  0  0
  152.6379  141.9778  159.6146 C   0  0  0  0  0  0  0  0  0  0  0  0
  151.8434  142.9334  158.9471 C   0  0  0  0  0  0  0  0  0  0  0  0
  151.4242  142.6753  157.5107 C   0  0  0  0  0  0  0  0  0  0  0  0
  150.4049  146.0175  159.5735 H   0  0  0  0  0  0  0  0  0  0  0  0
  149.6288  144.7370  158.6429 H   0  0  0  0  0  0  0  0  0  0  0  0
  151.0893  145.5247  158.0265 H   0  0  0  0  0  0  0  0  0  0  0  0
  151.5445  145.2359  161.4748 H   0  0  0  0  0  0  0  0  0  0  0  0
  154.3234  141.9294  163.8667 H   0  0  0  0  0  0  0  0  0  0  0  0
  155.5107  140.3677  161.5294 H   0  0  0  0  0  0  0  0  0  0  0  0
  154.3191  139.6223  162.5715 H   0  0  0  0  0  0  0  0  0  0  0  0
  152.9318  139.9335  160.1513 H   0  0  0  0  0  0  0  0  0  0  0  0
  155.5888  139.1293  159.6528 H   0  0  0  0  0  0  0  0  0  0  0  0
  152.5334  137.8504  161.0488 H   0  0  0  0  0  0  0  0  0  0  0  0
  153.7559  137.3331  159.9162 H   0  0  0  0  0  0  0  0  0  0  0  0
  154.4814  135.4195  161.3434 H   0  0  0  0  0  0  0  0  0  0  0  0
  155.8125  136.3701  160.7295 H   0  0  0  0  0  0  0  0  0  0  0  0
  156.6307  134.9199  162.5537 H   0  0  0  0  0  0  0  0  0  0  0  0
  156.8139  136.5958  162.9461 H   0  0  0  0  0  0  0  0  0  0  0  0
  153.5713  134.6399  163.4632 H   0  0  0  0  0  0  0  0  0  0  0  0
  154.9605  133.6084  163.5990 H   0  0  0  0  0  0  0  0  0  0  0  0
  153.2050  134.6911  165.8441 H   0  0  0  0  0  0  0  0  0  0  0  0
  152.5795  132.4503  164.8745 H   0  0  0  0  0  0  0  0  0  0  0  0
  153.1661  132.2829  166.5227 H   0  0  0  0  0  0  0  0  0  0  0  0
  154.2142  131.8650  165.1684 H   0  0  0  0  0  0  0  0  0  0  0  0
  154.9453  134.8743  166.9081 H   0  0  0  0  0  0  0  0  0  0  0  0
  154.0078  136.7601  165.2441 H   0  0  0  0  0  0  0  0  0  0  0  0
  155.3005  137.6718  164.5216 H   0  0  0  0  0  0  0  0  0  0  0  0
  153.1872  138.2609  163.4343 H   0  0  0  0  0  0  0  0  0  0  0  0
  152.8467  136.5928  163.0284 H   0  0  0  0  0  0  0  0  0  0  0  0
  152.9457  141.0727  159.1125 H   0  0  0  0  0  0  0  0  0  0  0  0
  151.8060  141.7199  157.1495 H   0  0  0  0  0  0  0  0  0  0  0  0
  151.8068  143.4577  156.8550 H   0  0  0  0  0  0  0  0  0  0  0  0
  150.3372  142.6541  157.4279 H   0  0  0  0  0  0  0  0  0  0  0  0
  155.1144  138.1859  162.0931 H   0  0  0  0  0  0  0  0  0  0  0  0
  1  2  1  0  0  0  0
  1 26  1  0  0  0  0
  1 27  1  0  0  0  0
  1 28  1  0  0  0  0
  2 24  1  0  0  0  0
  2  3  2  0  0  0  0
  3  4  1  0  0  0  0
  3 29  1  0  0  0  0
  4 22  2  0  0  0  0
  4  5  1  0  0  0  0
  5  6  2  0  0  0  0
  6  7  1  0  0  0  0
  6 30  1  0  0  0  0
  7  8  1  0  0  0  0
  7 22  1  0  0  0  0
  8  9  1  0  0  0  0
  8 31  1  0  0  0  0
  8 32  1  0  0  0  0
  9 10  1  0  0  0  0
  9 11  1  0  0  0  0
  9 33  1  0  0  0  0
 10 34  1  0  0  0  0
 11 12  1  0  0  0  0
 11 35  1  0  0  0  0
 11 36  1  0  0  0  0
 12 21  1  0  0  0  0
 12 13  1  0  0  0  0
 12 56  1  0  0  0  0
 13 14  1  0  0  0  0
 13 37  1  0  0  0  0
 13 38  1  0  0  0  0
 14 15  1  0  0  0  0
 14 39  1  0  0  0  0
 14 40  1  0  0  0  0
 15 16  1  0  0  0  0
 15 20  1  0  0  0  0
 16 17  1  0  0  0  0
 16 41  1  0  0  0  0
 16 42  1  0  0  0  0
 17 18  1  0  0  0  0
 17 19  1  0  0  0  0
 17 43  1  0  0  0  0
 18 44  1  0  0  0  0
 18 45  1  0  0  0  0
 18 46  1  0  0  0  0
 19 47  1  0  0  0  0
 20 21  1  0  0  0  0
 20 48  1  0  0  0  0
 20 49  1  0  0  0  0
 21 50  1  0  0  0  0
 21 51  1  0  0  0  0
 22 23  1  0  0  0  0
 23 24  2  0  0  0  0
 23 52  1  0  0  0  0
 24 25  1  0  0  0  0
 25 53  1  0  0  0  0
 25 54  1  0  0  0  0
 25 55  1  0  0  0  0
M  CHG  1  12   1
M  END
> <s_m_source_file>
AV-unprocessed.smi

> <i_m_source_file_index>
1033

> <i_lp_mmshare_version>
43012

> <i_f3d_flags>
0

> <s_epik_input>
W0NIM11jKFtjSF0xKWMoW0NIM10pW2NIXWMoYzEyKW4oW2NIXW4yKVtDSDJdW0NASF0oW09IXSlbQ0gyXU4zW0NIMl1bQ0gyXU4oW0NIMl1bQ0gyXTMpW0NIMl1bQ0BIXShbQ0gzXSlbT0hd

> <s_epik_cmdline>
J2VwaWtfcHl0aG9uJywgJy1waCcsICc3LjAnLCAnLXRuJywgJzgnLCAnLW1hJywgJzIwMCcsICctbWV0YWxfYmluZGluZycsICctaW1hZScsICc8aW5maWxlLm1hZT4nLCAnLW9tYWUnLCAnPG91dGZpbGUubWFlPic=

> <r_epik_Ionization_Penalty>
0.131893

> <r_epik_Ionization_Penalty_Charging>
0.00208556

> <r_epik_Ionization_Penalty_Neutral>
0.129808

> <r_epik_State_Penalty>
0.452125

> <r_epik_Charging_Adjusted_Penalty>
0.454211

> <i_epik_Tot_Q>
1

> <i_epik_Tot_abs_Q>
1

> <r_epik_Metal_State_Penalty>
0.376389

> <b_epik_Metal_Only>
0

> <s_lp_Force_Field>
OPLS_2005

> <r_lp_Energy>
31.8043

> <b_lp_Chiralities_Consistent>
1

> <s_lp_Variant>
AV-unprocessed.smi:1033-4

> <Gold.Version>
5.8.1

> <Gold.Id.Protein>
6NUR|6NUR_protein|mol2

> <Gold.PLP.Fitness>
54.3166

> <Gold.PLP.PLP>
-57.9784

> <Gold.PLP.part.hbond>
-2.0000

> <Gold.PLP.part.metal>
0.0000

> <Gold.PLP.part.buried>
-6.7820

> <Gold.PLP.part.nonpolar>
-49.3658

> <Gold.PLP.part.repulsive>
0.1940

> <Gold.PLP.ligand.clash>
2.1096

> <Gold.PLP.ligand.torsion>
2.3261

> <Gold.PLP.Chemscore.Hbond>
1.0000

> <Gold.PLP.Chemscore.CHOScore>
0.0000

> <Gold.PLP.Chemscore.Metal>
0.0000

> <Gold.Chemscore.Hbonds>
donor molecule, donor type, donor heavy atom, donor atom, acceptor molecule, acceptor atom, score
      P1  H  7997  8009       L1    10  0.69

> <Gold.PLP.Chemscore.Internal.Correction>
0.1000

> <Gold.Rescore>
     Score         DG    S(hbond)    S(metal)    S(lipo)     H(rot)  DE(clash)    DE(int)     intcor
     13.40     -17.08       0.62        0.00     148.68       3.07       0.52       3.16       ----

> <Gold.Chemscore.Fitness>
13.3997

> <Gold.Chemscore.DG>
-17.0847

> <Gold.Chemscore.ZeroCoef>
-5.4800

> <Gold.Chemscore.Hbond>
0.6156

> <Gold.Chemscore.Metal>
0.0000

> <Gold.Chemscore.Lipo>
148.6765

> <Gold.Chemscore.Internal_Hbond>
0.0000

> <Gold.Chemscore.DEClash>
0.5220

> <Gold.Chemscore.DEInternal>
3.1630

> <Gold.Chemscore.Rot>
3.0650

> <Gold.Chemscore.Internal.Correction>
   9.000000E+99

> <Gold.Chemscore.Hbonds>
donor molecule, donor type, donor heavy atom, donor atom, acceptor molecule, acceptor atom, score
      P1  H  7997  8009       L1    10  0.16

> <Gold.Chemscore.Hbond.Weighted>
-2.0560

> <Gold.Chemscore.Metal.Weighted>
-0.0000

> <Gold.Chemscore.Lipo.Weighted>
-17.3952

> <Gold.Chemscore.Internal_Hbond.Weighted>
0.0000

> <Gold.Chemscore.DEClash.Weighted>
0.5220

> <Gold.Chemscore.DEInternal.Weighted>
3.1630

> <Gold.Chemscore.Rot.Weighted>
7.8465

> <Gold.Chemscore.Internal.Correction.Weighted>
   9.000000E+99

> <Gold.Protein.RotatedTorsions>
[ 6907 6896 6895 6894 ] final -113.92 input  -60.11 | X-H torsion
[ 7974 7965 7964 7962 ] final  138.00 input  175.53 | X-H torsion
[ 8008 7997 7996 7995 ] final  109.23 input   59.86 | X-H torsion
[ 10167 10162 10161 10158 ] final -105.45 input  -65.29 | X-H torsion
[ 10718 10713 10712 10709 ] final -154.07 input   66.30 | X-H torsion
[ 10763 10752 10751 10750 ] final   -4.29 input  -60.55 | X-H torsion
[ 11005 11000 10999 10996 ] final   23.67 input  -57.11 | X-H torsion

> <Gold.Protein.ActiveResidues>
 VAL166  LYS551  ARG553  GLY616  TRP617  ASP618  TYR619  PRO620  LYS621  CYS622 
 ASP623  PHE694  ASN695  SER759  ASP760  ASP761  ALA762  ILE779  LEU786  VAL792 
 PHE793  MET794  SER795  GLU796  ALA797  LYS798  CYS799  TRP800  GLU811  SER814 

> <Gold.Protein.RotatedAtoms>
  150.7864  133.8875  159.3303 H   0  0  0  0  0  0  0  0  0  0  0  0  # atno 6907 bound_to 6896
  151.6725  135.0972  160.0210 H   0  0  0  0  0  0  0  0  0  0  0  0  # atno 6908 bound_to 6896
  152.3929  133.6666  159.6287 H   0  0  0  0  0  0  0  0  0  0  0  0  # atno 6909 bound_to 6896
  144.9414  139.4927  143.5570 H   0  0  0  0  0  0  0  0  0  0  0  0  # atno 7974 bound_to 7965
  156.1963  140.3061  155.9435 H   0  0  0  0  0  0  0  0  0  0  0  0  # atno 8008 bound_to 7997
  155.3057  140.0448  157.3049 H   0  0  0  0  0  0  0  0  0  0  0  0  # atno 8009 bound_to 7997
  154.5514  140.2292  155.8488 H   0  0  0  0  0  0  0  0  0  0  0  0  # atno 8010 bound_to 7997
  140.1984  143.3837  152.1149 H   0  0  0  0  0  0  0  0  0  0  0  0  # atno 10167 bound_to 10162
  156.4943  130.8362  151.2583 H   0  0  0  0  0  0  0  0  0  0  0  0  # atno 10718 bound_to 10713
  153.3829  135.6999  153.6552 H   0  0  0  0  0  0  0  0  0  0  0  0  # atno 10763 bound_to 10752
  153.5156  135.3623  155.2608 H   0  0  0  0  0  0  0  0  0  0  0  0  # atno 10764 bound_to 10752
  154.8694  135.4145  154.3130 H   0  0  0  0  0  0  0  0  0  0  0  0  # atno 10765 bound_to 10752
  140.3671  134.2063  155.7669 H   0  0  0  0  0  0  0  0  0  0  0  0  # atno 11005 bound_to 11000
  146.3287  139.8435  142.8886 LP  0  0  0  0  0  0  0  0  0  0  0  0  # atno 17320 bound_to 7965
  145.2986  141.0188  143.3622 LP  0  0  0  0  0  0  0  0  0  0  0  0  # atno 17321 bound_to 7965
  139.5227  144.7062  151.5347 LP  0  0  0  0  0  0  0  0  0  0  0  0  # atno 17342 bound_to 10162
  140.6407  143.8894  150.6689 LP  0  0  0  0  0  0  0  0  0  0  0  0  # atno 17343 bound_to 10162
  157.7470  131.0003  150.2920 LP  0  0  0  0  0  0  0  0  0  0  0  0  # atno 17370 bound_to 10713
  156.3395  130.3813  149.7421 LP  0  0  0  0  0  0  0  0  0  0  0  0  # atno 17371 bound_to 10713
  141.1966  133.8078  157.0664 LP  0  0  0  0  0  0  0  0  0  0  0  0  # atno 17394 bound_to 11000
  140.0581  134.9770  157.1256 LP  0  0  0  0  0  0  0  0  0  0  0  0  # atno 17395 bound_to 11000

$$$$
