AV-unprocessed.smi:2774|AV-procd|sdf|10686|dock1
  -GOLD-   2272015133D 1   1.00000     0.00000
 Structure written by MMmdl.
 34 35  0  0  0  0  0  0  0  0  1 V2000
  149.2983  141.2527  153.4815 O   0  0  0  0  0  0  0  0  0  0  0  0
  149.5324  140.7877  154.7944 C   0  0  2  0  0  0  0  0  0  0  0  0
  150.2523  141.9025  155.5745 C   0  0  0  0  0  0  0  0  0  0  0  0
  150.3783  141.5690  156.9947 N   0  0  0  0  0  0  0  0  0  0  0  0
  151.3993  142.3158  157.7350 C   0  0  1  0  0  0  0  0  0  0  0  0
  150.9364  143.7782  157.8858 C   0  0  0  0  0  0  0  0  0  0  0  0
  151.9921  144.6754  158.5502 C   0  0  0  0  0  0  0  0  0  0  0  0
  152.3276  144.2184  159.9755 C   0  0  0  0  0  0  0  0  0  0  0  0
  153.0373  142.5512  159.9737 S   0  0  0  0  0  0  0  0  0  0  0  0
  151.7001  141.6794  159.1104 C   0  0  0  0  0  0  0  0  0  0  0  0
  150.3084  139.4781  154.8031 C   0  0  0  0  0  0  0  0  0  0  0  0
  149.7091  138.2844  154.3488 C   0  0  0  0  0  0  0  0  0  0  0  0
  150.4644  137.0953  154.3843 C   0  0  0  0  0  0  0  0  0  0  0  0
  151.7377  137.0378  154.8299 N   0  0  0  0  0  0  0  0  0  0  0  0
  152.3064  138.1831  155.2634 C   0  0  0  0  0  0  0  0  0  0  0  0
  151.6391  139.4240  155.2714 C   0  0  0  0  0  0  0  0  0  0  0  0
  149.3136  140.5113  152.8957 H   0  0  0  0  0  0  0  0  0  0  0  0
  148.5532  140.6165  155.2439 H   0  0  0  0  0  0  0  0  0  0  0  0
  151.2314  142.0757  155.1292 H   0  0  0  0  0  0  0  0  0  0  0  0
  149.6912  142.8320  155.4689 H   0  0  0  0  0  0  0  0  0  0  0  0
  149.4786  141.6866  157.4498 H   0  0  0  0  0  0  0  0  0  0  0  0
  152.3196  142.3174  157.1490 H   0  0  0  0  0  0  0  0  0  0  0  0
  150.7011  144.1880  156.9026 H   0  0  0  0  0  0  0  0  0  0  0  0
  150.0098  143.8176  158.4606 H   0  0  0  0  0  0  0  0  0  0  0  0
  152.8985  144.6928  157.9439 H   0  0  0  0  0  0  0  0  0  0  0  0
  151.6242  145.7016  158.5792 H   0  0  0  0  0  0  0  0  0  0  0  0
  153.0423  144.9022  160.4338 H   0  0  0  0  0  0  0  0  0  0  0  0
  151.4329  144.2244  160.5988 H   0  0  0  0  0  0  0  0  0  0  0  0
  150.8088  141.6851  159.7389 H   0  0  0  0  0  0  0  0  0  0  0  0
  152.0136  140.6412  159.0112 H   0  0  0  0  0  0  0  0  0  0  0  0
  148.6920  138.2747  153.9856 H   0  0  0  0  0  0  0  0  0  0  0  0
  150.0333  136.1647  154.0459 H   0  0  0  0  0  0  0  0  0  0  0  0
  153.3243  138.1083  155.6160 H   0  0  0  0  0  0  0  0  0  0  0  0
  152.1384  140.3114  155.6320 H   0  0  0  0  0  0  0  0  0  0  0  0
  1  2  1  0  0  0  0
  1 17  1  0  0  0  0
  2  3  1  0  0  0  0
  2 11  1  0  0  0  0
  2 18  1  0  0  0  0
  3  4  1  0  0  0  0
  3 19  1  0  0  0  0
  3 20  1  0  0  0  0
  4  5  1  0  0  0  0
  4 21  1  0  0  0  0
  5 10  1  0  0  0  0
  5  6  1  0  0  0  0
  5 22  1  0  0  0  0
  6  7  1  0  0  0  0
  6 23  1  0  0  0  0
  6 24  1  0  0  0  0
  7  8  1  0  0  0  0
  7 25  1  0  0  0  0
  7 26  1  0  0  0  0
  8  9  1  0  0  0  0
  8 27  1  0  0  0  0
  8 28  1  0  0  0  0
  9 10  1  0  0  0  0
 10 29  1  0  0  0  0
 10 30  1  0  0  0  0
 11 16  1  0  0  0  0
 11 12  2  0  0  0  0
 12 13  1  0  0  0  0
 12 31  1  0  0  0  0
 13 14  2  0  0  0  0
 13 32  1  0  0  0  0
 14 15  1  0  0  0  0
 15 16  2  0  0  0  0
 15 33  1  0  0  0  0
 16 34  1  0  0  0  0
M  END
> <s_m_source_file>
AV-unprocessed.smi

> <i_m_source_file_index>
2774

> <i_lp_mmshare_version>
43012

> <i_f3d_flags>
0

> <s_epik_input>
W2NIXTFbY0hdbltjSF1bY0hdYzFbQ0BIXShbT0hdKVtDSDJdW05IXVtDQEBIXTJbQ0gyXVtDSDJdW0NIMl1TW0NIMl0y

> <s_epik_cmdline>
J2VwaWtfcHl0aG9uJywgJy1waCcsICc3LjAnLCAnLXRuJywgJzgnLCAnLW1hJywgJzIwMCcsICctbWV0YWxfYmluZGluZycsICctaW1hZScsICc8aW5maWxlLm1hZT4nLCAnLW9tYWUnLCAnPG91dGZpbGUubWFlPic=

> <r_epik_Ionization_Penalty>
2.08116

> <r_epik_Ionization_Penalty_Charging>
0

> <r_epik_Ionization_Penalty_Neutral>
2.08116

> <r_epik_State_Penalty>
2.1944

> <r_epik_Charging_Adjusted_Penalty>
2.1944

> <i_epik_Tot_Q>
0

> <i_epik_Tot_abs_Q>
0

> <r_epik_Metal_State_Penalty>
2.1769

> <b_epik_Metal_Only>
0

> <s_lp_Force_Field>
OPLS_2005

> <r_lp_Energy>
10.4748

> <b_lp_Chiralities_Consistent>
1

> <s_lp_Variant>
AV-unprocessed.smi:2774-7

> <Gold.Version>
5.8.1

> <Gold.Id.Protein>
6NUR|6NUR_protein|mol2

> <Gold.PLP.Fitness>
48.2181

> <Gold.PLP.PLP>
-39.3772

> <Gold.PLP.part.hbond>
-4.0000

> <Gold.PLP.part.metal>
0.0000

> <Gold.PLP.part.buried>
-1.4214

> <Gold.PLP.part.nonpolar>
-33.8388

> <Gold.PLP.part.repulsive>
0.1055

> <Gold.PLP.ligand.clash>
0.0000

> <Gold.PLP.ligand.torsion>
0.3704

> <Gold.PLP.Chemscore.Hbond>
2.7188

> <Gold.PLP.Chemscore.CHOScore>
0.4668

> <Gold.PLP.Chemscore.Metal>
0.0000

> <Gold.Chemscore.Hbonds>
donor molecule, donor type, donor heavy atom, donor atom, acceptor molecule, acceptor atom, score
      L1  H     1    17       P1  7957  0.85
      P1  H  8011  8017       L1     1  0.79
      P1  H 10752 10763       L1    14  0.98
      L1  C    13    32       P1  7948  0.64

> <Gold.PLP.Chemscore.Internal.Correction>
0.0250

> <Gold.Rescore>
     Score         DG    S(hbond)    S(metal)    S(lipo)     H(rot)  DE(clash)    DE(int)     intcor
     19.52     -20.78       2.10        0.00     112.22       1.89       0.09       1.17       ----

> <Gold.Chemscore.Fitness>
19.5161

> <Gold.Chemscore.DG>
-20.7794

> <Gold.Chemscore.ZeroCoef>
-5.4800

> <Gold.Chemscore.Hbond>
2.1005

> <Gold.Chemscore.Metal>
0.0000

> <Gold.Chemscore.Lipo>
112.2168

> <Gold.Chemscore.Internal_Hbond>
0.0000

> <Gold.Chemscore.DEClash>
0.0949

> <Gold.Chemscore.DEInternal>
1.1684

> <Gold.Chemscore.Rot>
1.8928

> <Gold.Chemscore.Internal.Correction>
   9.000000E+99

> <Gold.Chemscore.Hbonds>
donor molecule, donor type, donor heavy atom, donor atom, acceptor molecule, acceptor atom, score
      L1  H     1    17       P1  7957  0.83
      P1  H  8011  8017       L1     1  0.11
      P1  H 10752 10763       L1    14  0.79

> <Gold.Chemscore.Hbond.Weighted>
-7.0156

> <Gold.Chemscore.Metal.Weighted>
-0.0000

> <Gold.Chemscore.Lipo.Weighted>
-13.1294

> <Gold.Chemscore.Internal_Hbond.Weighted>
0.0000

> <Gold.Chemscore.DEClash.Weighted>
0.0949

> <Gold.Chemscore.DEInternal.Weighted>
1.1684

> <Gold.Chemscore.Rot.Weighted>
4.8455

> <Gold.Chemscore.Internal.Correction.Weighted>
   9.000000E+99

> <Gold.Protein.RotatedTorsions>
[ 6907 6896 6895 6894 ] final -127.81 input  -60.11 | X-H torsion
[ 7974 7965 7964 7962 ] final  -60.00 input  175.53 | X-H torsion
[ 8008 7997 7996 7995 ] final  121.65 input   59.86 | X-H torsion
[ 10167 10162 10161 10158 ] final  168.54 input  -65.29 | X-H torsion
[ 10718 10713 10712 10709 ] final   71.30 input   66.30 | X-H torsion
[ 10763 10752 10751 10750 ] final   67.02 input  -60.55 | X-H torsion
[ 11005 11000 10999 10996 ] final   84.09 input  -57.11 | X-H torsion

> <Gold.Protein.ActiveResidues>
 VAL166  LYS551  ARG553  GLY616  TRP617  ASP618  TYR619  PRO620  LYS621  CYS622 
 ASP623  PHE694  ASN695  SER759  ASP760  ASP761  ALA762  ILE779  LEU786  VAL792 
 PHE793  MET794  SER795  GLU796  ALA797  LYS798  CYS799  TRP800  GLU811  SER814 

> <Gold.Protein.RotatedAtoms>
  150.9113  133.6995  159.2854 H   0  0  0  0  0  0  0  0  0  0  0  0  # atno 6907 bound_to 6896
  151.4480  135.1026  159.9699 H   0  0  0  0  0  0  0  0  0  0  0  0  # atno 6908 bound_to 6896
  152.4931  133.8505  159.7254 H   0  0  0  0  0  0  0  0  0  0  0  0  # atno 6909 bound_to 6896
  145.8207  140.8542  143.0134 H   0  0  0  0  0  0  0  0  0  0  0  0  # atno 7974 bound_to 7965
  156.2695  140.2803  156.1343 H   0  0  0  0  0  0  0  0  0  0  0  0  # atno 8008 bound_to 7997
  155.1021  140.0390  157.2717 H   0  0  0  0  0  0  0  0  0  0  0  0  # atno 8009 bound_to 7997
  154.6807  140.2608  155.6917 H   0  0  0  0  0  0  0  0  0  0  0  0  # atno 8010 bound_to 7997
  139.4970  144.3803  151.9629 H   0  0  0  0  0  0  0  0  0  0  0  0  # atno 10167 bound_to 10162
  157.6444  130.9521  150.0770 H   0  0  0  0  0  0  0  0  0  0  0  0  # atno 10718 bound_to 10713
  153.0167  135.5299  154.6915 H   0  0  0  0  0  0  0  0  0  0  0  0  # atno 10763 bound_to 10752
  154.6048  135.2872  155.0498 H   0  0  0  0  0  0  0  0  0  0  0  0  # atno 10764 bound_to 10752
  154.1542  135.6558  153.5023 H   0  0  0  0  0  0  0  0  0  0  0  0  # atno 10765 bound_to 10752
  139.9011  134.8191  156.2397 H   0  0  0  0  0  0  0  0  0  0  0  0  # atno 11005 bound_to 11000
  144.6748  140.0529  143.7478 LP  0  0  0  0  0  0  0  0  0  0  0  0  # atno 17320 bound_to 7965
  145.9678  139.2847  143.1117 LP  0  0  0  0  0  0  0  0  0  0  0  0  # atno 17321 bound_to 7965
  140.3239  144.3395  150.6003 LP  0  0  0  0  0  0  0  0  0  0  0  0  # atno 17342 bound_to 10162
  140.5700  143.2182  151.7616 LP  0  0  0  0  0  0  0  0  0  0  0  0  # atno 17343 bound_to 10162
  156.1757  130.3648  149.9104 LP  0  0  0  0  0  0  0  0  0  0  0  0  # atno 17370 bound_to 10713
  156.7068  130.8954  151.3605 LP  0  0  0  0  0  0  0  0  0  0  0  0  # atno 17371 bound_to 10713
  141.0293  133.6998  156.1401 LP  0  0  0  0  0  0  0  0  0  0  0  0  # atno 17394 bound_to 11000
  140.7120  134.4451  157.5581 LP  0  0  0  0  0  0  0  0  0  0  0  0  # atno 17395 bound_to 11000

$$$$
