AV-unprocessed.smi:2270|AV-procd|sdf|9157|dock1
  -GOLD-   2272012363D 1   1.00000     0.00000
 Structure written by MMmdl.
 53 54  0  0  0  0  0  0  0  0  2 V2000
  153.3439  141.5710  160.6474 C   0  0  0  0  0  0  0  0  0  0  0  0
  152.5952  142.7612  160.0851 C   0  0  0  0  0  0  0  0  0  0  0  0
  152.5241  143.9747  160.7971 C   0  0  0  0  0  0  0  0  0  0  0  0
  151.8096  145.0405  160.2216 C   0  0  0  0  0  0  0  0  0  0  0  0
  151.2056  144.8535  158.9634 C   0  0  0  0  0  0  0  0  0  0  0  0
  151.3422  143.6044  158.3073 C   0  0  0  0  0  0  0  0  0  0  0  0
  150.7231  143.3860  157.0505 N   0  0  0  0  0  0  0  0  0  0  0  0
  150.5304  142.2096  156.4307 C   0  0  0  0  0  0  0  0  0  0  0  0
  151.0008  141.1314  156.7937 O   0  0  0  0  0  0  0  0  0  0  0  0
  149.7201  142.3488  155.3716 N   0  0  0  0  0  0  0  0  0  0  0  0
  149.2189  141.2661  154.5294 C   0  0  0  0  0  0  0  0  0  0  0  0
  147.8454  141.5886  153.8703 C   0  0  1  0  0  0  0  0  0  0  0  0
  147.0365  140.3088  153.5046 C   0  0  0  0  0  0  0  0  0  0  0  0
  146.9042  139.3203  154.6791 C   0  0  0  0  0  0  0  0  0  0  0  0
  147.6493  139.5668  152.2998 C   0  0  0  0  0  0  0  0  0  0  0  0
  146.9862  142.5196  154.6700 N   0  3  0  0  0  0  0  0  0  0  0  0
  146.6350  142.0510  156.0349 C   0  0  0  0  0  0  0  0  0  0  0  0
  145.9775  143.1909  156.8397 C   0  0  0  0  0  0  0  0  0  0  0  0
  144.7993  143.7363  156.1630 N   0  0  0  0  0  0  0  0  0  0  0  0
  143.6618  142.8218  156.1623 C   0  0  0  0  0  0  0  0  0  0  0  0
  145.1655  144.2037  154.8246 C   0  0  0  0  0  0  0  0  0  0  0  0
  145.8025  143.0862  153.9737 C   0  0  0  0  0  0  0  0  0  0  0  0
  152.0160  142.5797  158.8783 N   0  0  0  0  0  0  0  0  0  0  0  0
  153.6451  141.7465  161.6806 H   0  0  0  0  0  0  0  0  0  0  0  0
  154.2408  141.3762  160.0588 H   0  0  0  0  0  0  0  0  0  0  0  0
  152.7168  140.6793  160.6247 H   0  0  0  0  0  0  0  0  0  0  0  0
  152.9977  144.0876  161.7612 H   0  0  0  0  0  0  0  0  0  0  0  0
  151.7213  145.9848  160.7384 H   0  0  0  0  0  0  0  0  0  0  0  0
  150.6398  145.6623  158.5252 H   0  0  0  0  0  0  0  0  0  0  0  0
  150.2134  144.1737  156.6785 H   0  0  0  0  0  0  0  0  0  0  0  0
  149.3998  143.2793  155.1460 H   0  0  0  0  0  0  0  0  0  0  0  0
  149.9803  141.1252  153.7640 H   0  0  0  0  0  0  0  0  0  0  0  0
  149.1658  140.3213  155.0725 H   0  0  0  0  0  0  0  0  0  0  0  0
  148.0586  142.0874  152.9234 H   0  0  0  0  0  0  0  0  0  0  0  0
  146.0250  140.6041  153.2248 H   0  0  0  0  0  0  0  0  0  0  0  0
  147.8799  139.0493  155.0832 H   0  0  0  0  0  0  0  0  0  0  0  0
  146.4120  138.3999  154.3632 H   0  0  0  0  0  0  0  0  0  0  0  0
  146.3017  139.7269  155.4908 H   0  0  0  0  0  0  0  0  0  0  0  0
  148.6788  139.2676  152.5003 H   0  0  0  0  0  0  0  0  0  0  0  0
  147.6487  140.1785  151.3976 H   0  0  0  0  0  0  0  0  0  0  0  0
  147.0838  138.6640  152.0664 H   0  0  0  0  0  0  0  0  0  0  0  0
  145.9750  141.1869  156.0028 H   0  0  0  0  0  0  0  0  0  0  0  0
  147.5394  141.7317  156.5534 H   0  0  0  0  0  0  0  0  0  0  0  0
  145.6994  142.8420  157.8349 H   0  0  0  0  0  0  0  0  0  0  0  0
  146.6980  143.9971  156.9856 H   0  0  0  0  0  0  0  0  0  0  0  0
  142.7949  143.2996  155.7044 H   0  0  0  0  0  0  0  0  0  0  0  0
  143.3906  142.5574  157.1846 H   0  0  0  0  0  0  0  0  0  0  0  0
  143.8618  141.8987  155.6192 H   0  0  0  0  0  0  0  0  0  0  0  0
  144.2847  144.6072  154.3236 H   0  0  0  0  0  0  0  0  0  0  0  0
  145.8693  145.0308  154.9260 H   0  0  0  0  0  0  0  0  0  0  0  0
  146.1036  143.5007  153.0122 H   0  0  0  0  0  0  0  0  0  0  0  0
  145.0655  142.3160  153.7599 H   0  0  0  0  0  0  0  0  0  0  0  0
  147.5877  143.3132  154.8390 H   0  0  0  0  0  0  0  0  0  0  0  0
  1  2  1  0  0  0  0
  1 24  1  0  0  0  0
  1 25  1  0  0  0  0
  1 26  1  0  0  0  0
  2 23  1  0  0  0  0
  2  3  2  0  0  0  0
  3  4  1  0  0  0  0
  3 27  1  0  0  0  0
  4  5  2  0  0  0  0
  4 28  1  0  0  0  0
  5  6  1  0  0  0  0
  5 29  1  0  0  0  0
  6  7  1  0  0  0  0
  6 23  2  0  0  0  0
  7  8  1  0  0  0  0
  7 30  1  0  0  0  0
  8  9  2  0  0  0  0
  8 10  1  0  0  0  0
 10 11  1  0  0  0  0
 10 31  1  0  0  0  0
 11 12  1  0  0  0  0
 11 32  1  0  0  0  0
 11 33  1  0  0  0  0
 12 13  1  0  0  0  0
 12 16  1  0  0  0  0
 12 34  1  0  0  0  0
 13 14  1  0  0  0  0
 13 15  1  0  0  0  0
 13 35  1  0  0  0  0
 14 36  1  0  0  0  0
 14 37  1  0  0  0  0
 14 38  1  0  0  0  0
 15 39  1  0  0  0  0
 15 40  1  0  0  0  0
 15 41  1  0  0  0  0
 16 22  1  0  0  0  0
 16 17  1  0  0  0  0
 16 53  1  0  0  0  0
 17 18  1  0  0  0  0
 17 42  1  0  0  0  0
 17 43  1  0  0  0  0
 18 19  1  0  0  0  0
 18 44  1  0  0  0  0
 18 45  1  0  0  0  0
 19 20  1  0  0  0  0
 19 21  1  0  0  0  0
 20 46  1  0  0  0  0
 20 47  1  0  0  0  0
 20 48  1  0  0  0  0
 21 22  1  0  0  0  0
 21 49  1  0  0  0  0
 21 50  1  0  0  0  0
 22 51  1  0  0  0  0
 22 52  1  0  0  0  0
M  CHG  1  16   1
M  END
> <s_m_source_file>
AV-unprocessed.smi

> <i_m_source_file_index>
2270

> <i_lp_mmshare_version>
43012

> <i_f3d_flags>
0

> <s_epik_input>
W0NIM11jMVtjSF1bY0hdW2NIXWMobjEpW05IXUMoPU8pW05IXVtDSDJdW0NASF0oW0NIXShbQ0gzXSlbQ0gzXSlOMltDSDJdW0NIMl1OKFtDSDNdKVtDSDJdW0NIMl0y

> <s_epik_cmdline>
J2VwaWtfcHl0aG9uJywgJy1waCcsICc3LjAnLCAnLXRuJywgJzgnLCAnLW1hJywgJzIwMCcsICctbWV0YWxfYmluZGluZycsICctaW1hZScsICc8aW5maWxlLm1hZT4nLCAnLW9tYWUnLCAnPG91dGZpbGUubWFlPic=

> <r_epik_Ionization_Penalty>
0.201855

> <r_epik_Ionization_Penalty_Charging>
0.20006

> <r_epik_Ionization_Penalty_Neutral>
0.00179462

> <r_epik_State_Penalty>
1.43207

> <r_epik_Charging_Adjusted_Penalty>
1.63213

> <i_epik_Tot_Q>
1

> <i_epik_Tot_abs_Q>
1

> <r_epik_Metal_State_Penalty>
1.43208

> <b_epik_Metal_Only>
0

> <s_lp_Force_Field>
OPLS_2005

> <r_lp_Energy>
37.2403

> <b_lp_Chiralities_Consistent>
1

> <s_lp_Variant>
AV-unprocessed.smi:2270-4

> <Gold.Version>
5.8.1

> <Gold.Id.Protein>
6NUR|6NUR_protein|mol2

> <Gold.PLP.Fitness>
54.2304

> <Gold.PLP.PLP>
-43.5613

> <Gold.PLP.part.hbond>
-3.0000

> <Gold.PLP.part.metal>
0.0000

> <Gold.PLP.part.buried>
-2.3383

> <Gold.PLP.part.nonpolar>
-38.1717

> <Gold.PLP.part.repulsive>
0.4741

> <Gold.PLP.ligand.clash>
0.0000

> <Gold.PLP.ligand.torsion>
0.8460

> <Gold.PLP.Chemscore.Hbond>
3.9760

> <Gold.PLP.Chemscore.CHOScore>
0.0000

> <Gold.PLP.Chemscore.Metal>
0.0000

> <Gold.Chemscore.Hbonds>
donor molecule, donor type, donor heavy atom, donor atom, acceptor molecule, acceptor atom, score
      L1  H     7    30       P1  8028  0.98
      L1  H    10    31       P1  8028  0.99
      L1  H    16    53       P1  8028  1.98

> <Gold.PLP.Chemscore.Internal.Correction>
0.4330

> <Gold.Rescore>
     Score         DG    S(hbond)    S(metal)    S(lipo)     H(rot)  DE(clash)    DE(int)     intcor
     17.56     -22.27       2.35        0.00     111.56       1.61       2.34       2.37       ----

> <Gold.Chemscore.Fitness>
17.5627

> <Gold.Chemscore.DG>
-22.2711

> <Gold.Chemscore.ZeroCoef>
-5.4800

> <Gold.Chemscore.Hbond>
2.3510

> <Gold.Chemscore.Metal>
0.0000

> <Gold.Chemscore.Lipo>
111.5613

> <Gold.Chemscore.Internal_Hbond>
0.0000

> <Gold.Chemscore.DEClash>
2.3370

> <Gold.Chemscore.DEInternal>
2.3714

> <Gold.Chemscore.Rot>
1.6070

> <Gold.Chemscore.Internal.Correction>
   9.000000E+99

> <Gold.Chemscore.Hbonds>
donor molecule, donor type, donor heavy atom, donor atom, acceptor molecule, acceptor atom, score
      L1  H     7    30       P1  8028  0.92
      L1  H    10    31       P1  8028  0.93
      L1  H    16    53       P1  8028  0.37

> <Gold.Chemscore.Hbond.Weighted>
-7.8524

> <Gold.Chemscore.Metal.Weighted>
-0.0000

> <Gold.Chemscore.Lipo.Weighted>
-13.0527

> <Gold.Chemscore.Internal_Hbond.Weighted>
0.0000

> <Gold.Chemscore.DEClash.Weighted>
2.3370

> <Gold.Chemscore.DEInternal.Weighted>
2.3714

> <Gold.Chemscore.Rot.Weighted>
4.1140

> <Gold.Chemscore.Internal.Correction.Weighted>
   9.000000E+99

> <Gold.Protein.RotatedTorsions>
[ 6907 6896 6895 6894 ] final   47.00 input  -60.11 | X-H torsion
[ 7974 7965 7964 7962 ] final  -71.72 input  175.53 | X-H torsion
[ 8008 7997 7996 7995 ] final -179.57 input   59.86 | X-H torsion
[ 10167 10162 10161 10158 ] final  -28.03 input  -65.29 | X-H torsion
[ 10718 10713 10712 10709 ] final   27.05 input   66.30 | X-H torsion
[ 10763 10752 10751 10750 ] final -154.16 input  -60.55 | X-H torsion
[ 11005 11000 10999 10996 ] final  -85.48 input  -57.11 | X-H torsion

> <Gold.Protein.ActiveResidues>
 VAL166  LYS551  ARG553  GLY616  TRP617  ASP618  TYR619  PRO620  LYS621  CYS622 
 ASP623  PHE694  ASN695  SER759  ASP760  ASP761  ALA762  ILE779  LEU786  VAL792 
 PHE793  MET794  SER795  GLU796  ALA797  LYS798  CYS799  TRP800  GLU811  SER814 

> <Gold.Protein.RotatedAtoms>
  152.2630  134.8014  160.0427 H   0  0  0  0  0  0  0  0  0  0  0  0  # atno 6907 bound_to 6896
  151.8654  133.3460  159.3725 H   0  0  0  0  0  0  0  0  0  0  0  0  # atno 6908 bound_to 6896
  150.7123  134.5093  159.5643 H   0  0  0  0  0  0  0  0  0  0  0  0  # atno 6909 bound_to 6896
  145.6744  140.9210  143.0866 H   0  0  0  0  0  0  0  0  0  0  0  0  # atno 7974 bound_to 7965
  156.0320  140.1284  157.0248 H   0  0  0  0  0  0  0  0  0  0  0  0  # atno 8008 bound_to 7997
  154.4354  140.1047  156.6183 H   0  0  0  0  0  0  0  0  0  0  0  0  # atno 8009 bound_to 7997
  155.5793  140.3468  155.4538 H   0  0  0  0  0  0  0  0  0  0  0  0  # atno 8010 bound_to 7997
  140.7273  143.4044  151.1210 H   0  0  0  0  0  0  0  0  0  0  0  0  # atno 10167 bound_to 10162
  157.2150  130.6952  149.6245 H   0  0  0  0  0  0  0  0  0  0  0  0  # atno 10718 bound_to 10713
  154.7878  135.3196  154.7846 H   0  0  0  0  0  0  0  0  0  0  0  0  # atno 10763 bound_to 10752
  153.8542  135.6859  153.4793 H   0  0  0  0  0  0  0  0  0  0  0  0  # atno 10764 bound_to 10752
  153.1536  135.4689  154.9612 H   0  0  0  0  0  0  0  0  0  0  0  0  # atno 10765 bound_to 10752
  141.1641  133.7401  156.9020 H   0  0  0  0  0  0  0  0  0  0  0  0  # atno 11005 bound_to 11000
  144.7046  139.8614  143.7434 LP  0  0  0  0  0  0  0  0  0  0  0  0  # atno 17320 bound_to 7965
  146.1018  139.4014  143.0342 LP  0  0  0  0  0  0  0  0  0  0  0  0  # atno 17321 bound_to 7965
  139.7669  143.8552  152.3112 LP  0  0  0  0  0  0  0  0  0  0  0  0  # atno 17342 bound_to 10162
  139.8457  144.7188  150.9275 LP  0  0  0  0  0  0  0  0  0  0  0  0  # atno 17343 bound_to 10162
  155.9687  130.4538  150.5827 LP  0  0  0  0  0  0  0  0  0  0  0  0  # atno 17370 bound_to 10713
  157.3633  131.0753  151.1618 LP  0  0  0  0  0  0  0  0  0  0  0  0  # atno 17371 bound_to 10713
  140.1576  134.9188  157.2673 LP  0  0  0  0  0  0  0  0  0  0  0  0  # atno 17394 bound_to 11000
  140.2649  134.3527  155.7393 LP  0  0  0  0  0  0  0  0  0  0  0  0  # atno 17395 bound_to 11000

$$$$
