AV-unprocessed.smi:1291|AV-procd|sdf|5393|dock10
  -GOLD-   22720 4553D 1   1.00000     0.00000
 Structure written by MMmdl.
 44 46  0  0  0  0  0  0  0  0  2 V2000
  147.1546  138.7737  151.3467 O   0  0  0  0  0  0  0  0  0  0  0  0
  146.9298  138.9236  152.7329 C   0  0  0  0  0  0  0  0  0  0  0  0
  148.1651  139.2800  153.4978 C   0  0  0  0  0  0  0  0  0  0  0  0
  149.3429  138.5920  153.5011 N   0  3  0  0  0  0  0  0  0  0  0  0
  150.2656  139.2348  154.3266 C   0  0  0  0  0  0  0  0  0  0  0  0
  151.5837  138.9168  154.6401 C   0  0  0  0  0  0  0  0  0  0  0  0
  152.2555  139.7948  155.5155 C   0  0  0  0  0  0  0  0  0  0  0  0
  151.6165  140.9351  156.0443 C   0  0  0  0  0  0  0  0  0  0  0  0
  150.2783  141.2438  155.7234 C   0  0  0  0  0  0  0  0  0  0  0  0
  149.6203  140.3711  154.8563 C   0  0  0  0  0  0  0  0  0  0  0  0
  148.3256  140.3551  154.3219 N   0  0  0  0  0  0  0  0  0  0  0  0
  147.3727  141.4173  154.6844 C   0  0  0  0  0  0  0  0  0  0  0  0
  146.9442  141.3631  156.1645 C   0  0  2  0  0  0  0  0  0  0  0  0
  146.1028  140.2454  156.3689 O   0  0  0  0  0  0  0  0  0  0  0  0
  146.1763  142.6264  156.5818 C   0  0  0  0  0  0  0  0  0  0  0  0
  145.8421  142.5284  157.9561 O   0  0  0  0  0  0  0  0  0  0  0  0
  145.7614  143.7919  158.5941 C   0  0  0  0  0  0  0  0  0  0  0  0
  145.0457  143.6924  159.9270 C   0  0  0  0  0  0  0  0  0  0  0  0
  143.7190  143.2156  159.9869 C   0  0  0  0  0  0  0  0  0  0  0  0
  143.0551  143.1235  161.2259 C   0  0  0  0  0  0  0  0  0  0  0  0
  143.7154  143.5063  162.4094 C   0  0  0  0  0  0  0  0  0  0  0  0
  145.0404  143.9801  162.3537 C   0  0  0  0  0  0  0  0  0  0  0  0
  145.7056  144.0734  161.1155 C   0  0  0  0  0  0  0  0  0  0  0  0
  146.9798  144.5320  161.0718 F   0  0  0  0  0  0  0  0  0  0  0  0
  148.0656  138.9531  151.1685 H   0  0  0  0  0  0  0  0  0  0  0  0
  146.1787  139.6989  152.8851 H   0  0  0  0  0  0  0  0  0  0  0  0
  146.5205  137.9933  153.1267 H   0  0  0  0  0  0  0  0  0  0  0  0
  152.0755  138.0450  154.2343 H   0  0  0  0  0  0  0  0  0  0  0  0
  153.2818  139.5913  155.7848 H   0  0  0  0  0  0  0  0  0  0  0  0
  152.1639  141.5884  156.7084 H   0  0  0  0  0  0  0  0  0  0  0  0
  149.8022  142.1241  156.1291 H   0  0  0  0  0  0  0  0  0  0  0  0
  147.8607  142.3699  154.4751 H   0  0  0  0  0  0  0  0  0  0  0  0
  146.5096  141.3713  154.0200 H   0  0  0  0  0  0  0  0  0  0  0  0
  147.8326  141.2533  156.7876 H   0  0  0  0  0  0  0  0  0  0  0  0
  145.3236  140.3607  155.8459 H   0  0  0  0  0  0  0  0  0  0  0  0
  146.8100  143.5044  156.4458 H   0  0  0  0  0  0  0  0  0  0  0  0
  145.2881  142.7691  155.9635 H   0  0  0  0  0  0  0  0  0  0  0  0
  146.7634  144.1976  158.7411 H   0  0  0  0  0  0  0  0  0  0  0  0
  145.2199  144.4968  157.9611 H   0  0  0  0  0  0  0  0  0  0  0  0
  143.2047  142.9216  159.0838 H   0  0  0  0  0  0  0  0  0  0  0  0
  142.0389  142.7596  161.2678 H   0  0  0  0  0  0  0  0  0  0  0  0
  143.2061  143.4367  163.3594 H   0  0  0  0  0  0  0  0  0  0  0  0
  145.5467  144.2729  163.2617 H   0  0  0  0  0  0  0  0  0  0  0  0
  149.4978  137.7447  152.9700 H   0  0  0  0  0  0  0  0  0  0  0  0
  1  2  1  0  0  0  0
  1 25  1  0  0  0  0
  2  3  1  0  0  0  0
  2 26  1  0  0  0  0
  2 27  1  0  0  0  0
  3 11  1  0  0  0  0
  3  4  2  0  0  0  0
  4  5  1  0  0  0  0
  4 44  1  0  0  0  0
  5 10  2  0  0  0  0
  5  6  1  0  0  0  0
  6  7  2  0  0  0  0
  6 28  1  0  0  0  0
  7  8  1  0  0  0  0
  7 29  1  0  0  0  0
  8  9  2  0  0  0  0
  8 30  1  0  0  0  0
  9 10  1  0  0  0  0
  9 31  1  0  0  0  0
 10 11  1  0  0  0  0
 11 12  1  0  0  0  0
 12 13  1  0  0  0  0
 12 32  1  0  0  0  0
 12 33  1  0  0  0  0
 13 14  1  0  0  0  0
 13 15  1  0  0  0  0
 13 34  1  0  0  0  0
 14 35  1  0  0  0  0
 15 16  1  0  0  0  0
 15 36  1  0  0  0  0
 15 37  1  0  0  0  0
 16 17  1  0  0  0  0
 17 18  1  0  0  0  0
 17 38  1  0  0  0  0
 17 39  1  0  0  0  0
 18 23  1  0  0  0  0
 18 19  2  0  0  0  0
 19 20  1  0  0  0  0
 19 40  1  0  0  0  0
 20 21  2  0  0  0  0
 20 41  1  0  0  0  0
 21 22  1  0  0  0  0
 21 42  1  0  0  0  0
 22 23  2  0  0  0  0
 22 43  1  0  0  0  0
 23 24  1  0  0  0  0
M  CHG  1   4   1
M  END
> <s_m_source_file>
AV-unprocessed.smi

> <i_m_source_file_index>
1291

> <i_lp_mmshare_version>
43012

> <i_f3d_flags>
0

> <s_epik_input>
W2NIXTFbY0hdW2NIXVtjSF1jKGMxMiluKGMobjIpW0NIMl1bT0hdKVtDSDJdW0NASF0oW09IXSlbQ0gyXU9bQ0gyXWMzW2NIXVtjSF1bY0hdW2NIXWMzRg==

> <s_epik_cmdline>
J2VwaWtfcHl0aG9uJywgJy1waCcsICc3LjAnLCAnLXRuJywgJzgnLCAnLW1hJywgJzIwMCcsICctbWV0YWxfYmluZGluZycsICctaW1hZScsICc8aW5maWxlLm1hZT4nLCAnLW9tYWUnLCAnPG91dGZpbGUubWFlPic=

> <r_epik_Ionization_Penalty>
1.34314

> <r_epik_Ionization_Penalty_Charging>
1.34228

> <r_epik_Ionization_Penalty_Neutral>
0.000856861

> <r_epik_State_Penalty>
1.41963

> <r_epik_Charging_Adjusted_Penalty>
2.76191

> <i_epik_Tot_Q>
1

> <i_epik_Tot_abs_Q>
1

> <r_epik_Metal_State_Penalty>
5.45585

> <b_epik_Metal_Only>
0

> <s_lp_Force_Field>
OPLS_2005

> <r_lp_Energy>
17.9638

> <b_lp_Chiralities_Consistent>
1

> <s_lp_Variant>
AV-unprocessed.smi:1291-3

> <Gold.Version>
5.8.1

> <Gold.Id.Protein>
6NUR|6NUR_protein|mol2

> <Gold.PLP.Fitness>
56.9456

> <Gold.PLP.PLP>
-48.5771

> <Gold.PLP.part.hbond>
-4.7612

> <Gold.PLP.part.metal>
0.0000

> <Gold.PLP.part.buried>
-6.7997

> <Gold.PLP.part.nonpolar>
-38.7648

> <Gold.PLP.part.repulsive>
0.1496

> <Gold.PLP.ligand.clash>
0.0000

> <Gold.PLP.ligand.torsion>
0.3887

> <Gold.PLP.Chemscore.Hbond>
3.0000

> <Gold.PLP.Chemscore.CHOScore>
0.0000

> <Gold.PLP.Chemscore.Metal>
0.0000

> <Gold.Chemscore.Hbonds>
donor molecule, donor type, donor heavy atom, donor atom, acceptor molecule, acceptor atom, score
      L1  H     1    25       P1  7957  1.00
      L1  H     4    44       P1  7948  2.00

> <Gold.PLP.Chemscore.Internal.Correction>
0.1459

> <Gold.Rescore>
     Score         DG    S(hbond)    S(metal)    S(lipo)     H(rot)  DE(clash)    DE(int)     intcor
     13.80     -14.65       1.90        0.00      99.25       3.44       0.30       0.55       ----

> <Gold.Chemscore.Fitness>
13.7998

> <Gold.Chemscore.DG>
-14.6514

> <Gold.Chemscore.ZeroCoef>
-5.4800

> <Gold.Chemscore.Hbond>
1.9023

> <Gold.Chemscore.Metal>
0.0000

> <Gold.Chemscore.Lipo>
99.2488

> <Gold.Chemscore.Internal_Hbond>
0.0000

> <Gold.Chemscore.DEClash>
0.2993

> <Gold.Chemscore.DEInternal>
0.5523

> <Gold.Chemscore.Rot>
3.4353

> <Gold.Chemscore.Internal.Correction>
   9.000000E+99

> <Gold.Chemscore.Hbonds>
donor molecule, donor type, donor heavy atom, donor atom, acceptor molecule, acceptor atom, score
      L1  H     1    25       P1  7957  0.34
      L1  H     4    44       P1  7948  0.84

> <Gold.Chemscore.Hbond.Weighted>
-6.3538

> <Gold.Chemscore.Metal.Weighted>
-0.0000

> <Gold.Chemscore.Lipo.Weighted>
-11.6121

> <Gold.Chemscore.Internal_Hbond.Weighted>
0.0000

> <Gold.Chemscore.DEClash.Weighted>
0.2993

> <Gold.Chemscore.DEInternal.Weighted>
0.5523

> <Gold.Chemscore.Rot.Weighted>
8.7944

> <Gold.Chemscore.Internal.Correction.Weighted>
   9.000000E+99

> <Gold.Protein.RotatedTorsions>
[ 6907 6896 6895 6894 ] final    9.85 input  -60.11 | X-H torsion
[ 7974 7965 7964 7962 ] final -155.02 input  175.53 | X-H torsion
[ 8008 7997 7996 7995 ] final  -76.82 input   59.86 | X-H torsion
[ 10167 10162 10161 10158 ] final -137.54 input  -65.29 | X-H torsion
[ 10718 10713 10712 10709 ] final  114.48 input   66.30 | X-H torsion
[ 10763 10752 10751 10750 ] final   95.43 input  -60.55 | X-H torsion
[ 11005 11000 10999 10996 ] final  124.17 input  -57.11 | X-H torsion

> <Gold.Protein.ActiveResidues>
 VAL166  LYS551  ARG553  GLY616  TRP617  ASP618  TYR619  PRO620  LYS621  CYS622 
 ASP623  PHE694  ASN695  SER759  ASP760  ASP761  ALA762  ILE779  LEU786  VAL792 
 PHE793  MET794  SER795  GLU796  ALA797  LYS798  CYS799  TRP800  GLU811  SER814 

> <Gold.Protein.RotatedAtoms>
  151.7288  135.0879  160.0296 H   0  0  0  0  0  0  0  0  0  0  0  0  # atno 6907 bound_to 6896
  152.3555  133.6227  159.5984 H   0  0  0  0  0  0  0  0  0  0  0  0  # atno 6908 bound_to 6896
  150.7568  133.9423  159.3501 H   0  0  0  0  0  0  0  0  0  0  0  0  # atno 6909 bound_to 6896
  144.7661  140.4308  143.5941 H   0  0  0  0  0  0  0  0  0  0  0  0  # atno 7974 bound_to 7965
  154.5540  140.0720  156.8713 H   0  0  0  0  0  0  0  0  0  0  0  0  # atno 8008 bound_to 7997
  155.2938  140.3380  155.4233 H   0  0  0  0  0  0  0  0  0  0  0  0  # atno 8009 bound_to 7997
  156.1986  140.1713  156.7933 H   0  0  0  0  0  0  0  0  0  0  0  0  # atno 8010 bound_to 7997
  139.8567  143.7129  152.2653 H   0  0  0  0  0  0  0  0  0  0  0  0  # atno 10167 bound_to 10162
  157.6278  131.0999  150.7192 H   0  0  0  0  0  0  0  0  0  0  0  0  # atno 10718 bound_to 10713
  153.2531  135.4254  155.0817 H   0  0  0  0  0  0  0  0  0  0  0  0  # atno 10763 bound_to 10752
  154.8390  135.3430  154.6485 H   0  0  0  0  0  0  0  0  0  0  0  0  # atno 10764 bound_to 10752
  153.6906  135.7034  153.5148 H   0  0  0  0  0  0  0  0  0  0  0  0  # atno 10765 bound_to 10752
  139.9346  134.9640  156.8369 H   0  0  0  0  0  0  0  0  0  0  0  0  # atno 11005 bound_to 11000
  145.6467  139.1558  143.2885 LP  0  0  0  0  0  0  0  0  0  0  0  0  # atno 17320 bound_to 7965
  146.1769  140.6559  142.9207 LP  0  0  0  0  0  0  0  0  0  0  0  0  # atno 17321 bound_to 7965
  139.7413  144.7559  151.0649 LP  0  0  0  0  0  0  0  0  0  0  0  0  # atno 17342 bound_to 10162
  140.7780  143.4969  150.9820 LP  0  0  0  0  0  0  0  0  0  0  0  0  # atno 17343 bound_to 10162
  156.7537  130.4776  149.5451 LP  0  0  0  0  0  0  0  0  0  0  0  0  # atno 17370 bound_to 10713
  156.1462  130.6278  151.0534 LP  0  0  0  0  0  0  0  0  0  0  0  0  # atno 17371 bound_to 10713
  140.6110  134.0083  155.7576 LP  0  0  0  0  0  0  0  0  0  0  0  0  # atno 17394 bound_to 11000
  141.0953  133.9853  157.3170 LP  0  0  0  0  0  0  0  0  0  0  0  0  # atno 17395 bound_to 11000

$$$$
