AV-unprocessed.smi:2853|AV-procd|sdf|10974|dock8
  -GOLD-   2272015433D 1   1.00000     0.00000
 Structure written by MMmdl.
 43 44  0  0  0  0  0  0  0  0  1 V2000
  141.3522  134.8023  153.2130 C   0  0  0  0  0  0  0  0  0  0  0  0
  142.8129  135.0262  153.0233 C   0  0  0  0  0  0  0  0  0  0  0  0
  143.5815  134.2745  152.2369 N   0  0  0  0  0  0  0  0  0  0  0  0
  144.9163  134.6898  152.2267 C   0  0  0  0  0  0  0  0  0  0  0  0
  145.9049  133.9288  151.3867 C   0  0  0  0  0  0  0  0  0  0  0  0
  145.2461  132.8988  150.4455 C   0  0  0  0  0  0  0  0  0  0  0  0
  144.4034  131.8598  151.2057 C   0  0  0  0  0  0  0  0  0  0  0  0
  146.3010  132.2059  149.5707 C   0  0  0  0  0  0  0  0  0  0  0  0
  145.1752  135.7792  153.0304 C   0  0  0  0  0  0  0  0  0  0  0  0
  146.3985  136.3535  153.1789 N   0  0  0  0  0  0  0  0  0  0  0  0
  146.8423  137.1675  154.1518 C   0  0  0  0  0  0  0  0  0  0  0  0
  146.1858  137.5458  155.1216 O   0  0  0  0  0  0  0  0  0  0  0  0
  148.1234  137.5102  153.9349 N   0  0  0  0  0  0  0  0  0  0  0  0
  148.9970  138.3584  154.7570 C   0  0  2  0  0  0  0  0  0  0  0  0
  149.2358  137.6200  156.0870 C   0  0  0  0  0  0  0  0  0  0  0  0
  148.4060  139.7552  155.0168 C   0  0  0  0  0  0  0  0  0  0  0  0
  149.3980  140.7132  154.3600 C   0  0  0  0  0  0  0  0  0  0  0  0
  150.6256  140.0081  154.4187 O   0  0  0  0  0  0  0  0  0  0  0  0
  150.3423  138.6642  154.0633 C   0  0  0  0  0  0  0  0  0  0  0  0
  143.6987  136.3153  153.8172 S   0  0  0  0  0  0  0  0  0  0  0  0
  141.0375  133.8799  152.7238 H   0  0  0  0  0  0  0  0  0  0  0  0
  140.7903  135.6341  152.7880 H   0  0  0  0  0  0  0  0  0  0  0  0
  141.1217  134.7299  154.2759 H   0  0  0  0  0  0  0  0  0  0  0  0
  146.4822  134.6363  150.7899 H   0  0  0  0  0  0  0  0  0  0  0  0
  146.6365  133.4266  152.0206 H   0  0  0  0  0  0  0  0  0  0  0  0
  144.5780  133.4383  149.7729 H   0  0  0  0  0  0  0  0  0  0  0  0
  145.0082  131.3108  151.9281 H   0  0  0  0  0  0  0  0  0  0  0  0
  143.9645  131.1342  150.5206 H   0  0  0  0  0  0  0  0  0  0  0  0
  143.5814  132.3286  151.7468 H   0  0  0  0  0  0  0  0  0  0  0  0
  147.0126  131.6458  150.1779 H   0  0  0  0  0  0  0  0  0  0  0  0
  146.8633  132.9314  148.9820 H   0  0  0  0  0  0  0  0  0  0  0  0
  145.8374  131.5082  148.8728 H   0  0  0  0  0  0  0  0  0  0  0  0
  147.0747  136.1055  152.4719 H   0  0  0  0  0  0  0  0  0  0  0  0
  148.5530  137.1332  153.1031 H   0  0  0  0  0  0  0  0  0  0  0  0
  149.9007  138.1851  156.7414 H   0  0  0  0  0  0  0  0  0  0  0  0
  149.6929  136.6437  155.9221 H   0  0  0  0  0  0  0  0  0  0  0  0
  148.3008  137.4592  156.6252 H   0  0  0  0  0  0  0  0  0  0  0  0
  147.3951  139.8922  154.6311 H   0  0  0  0  0  0  0  0  0  0  0  0
  148.3625  139.9640  156.0865 H   0  0  0  0  0  0  0  0  0  0  0  0
  149.1325  140.9000  153.3183 H   0  0  0  0  0  0  0  0  0  0  0  0
  149.4597  141.6724  154.8744 H   0  0  0  0  0  0  0  0  0  0  0  0
  151.1473  137.9993  154.3778 H   0  0  0  0  0  0  0  0  0  0  0  0
  150.2809  138.6033  152.9764 H   0  0  0  0  0  0  0  0  0  0  0  0
  1  2  1  0  0  0  0
  1 21  1  0  0  0  0
  1 22  1  0  0  0  0
  1 23  1  0  0  0  0
  2 20  1  0  0  0  0
  2  3  2  0  0  0  0
  3  4  1  0  0  0  0
  4  5  1  0  0  0  0
  4  9  2  0  0  0  0
  5  6  1  0  0  0  0
  5 24  1  0  0  0  0
  5 25  1  0  0  0  0
  6  7  1  0  0  0  0
  6  8  1  0  0  0  0
  6 26  1  0  0  0  0
  7 27  1  0  0  0  0
  7 28  1  0  0  0  0
  7 29  1  0  0  0  0
  8 30  1  0  0  0  0
  8 31  1  0  0  0  0
  8 32  1  0  0  0  0
  9 10  1  0  0  0  0
  9 20  1  0  0  0  0
 10 11  1  0  0  0  0
 10 33  1  0  0  0  0
 11 12  2  0  0  0  0
 11 13  1  0  0  0  0
 13 14  1  0  0  0  0
 13 34  1  0  0  0  0
 14 19  1  0  0  0  0
 14 15  1  0  0  0  0
 14 16  1  0  0  0  0
 15 35  1  0  0  0  0
 15 36  1  0  0  0  0
 15 37  1  0  0  0  0
 16 17  1  0  0  0  0
 16 38  1  0  0  0  0
 16 39  1  0  0  0  0
 17 18  1  0  0  0  0
 17 40  1  0  0  0  0
 17 41  1  0  0  0  0
 18 19  1  0  0  0  0
 19 42  1  0  0  0  0
 19 43  1  0  0  0  0
M  END
> <s_m_source_file>
AV-unprocessed.smi

> <i_m_source_file_index>
2853

> <i_lp_mmshare_version>
43012

> <i_f3d_flags>
0

> <s_epik_input>
W0NIM11jMW5jKFtDSDJdW0NIXShbQ0gzXSlbQ0gzXSljKHMxKVtOSF1DKD1PKVtOSF1bQ0BAXTIoW0NIM10pW0NIMl1bQ0gyXU9bQ0gyXTI=

> <s_epik_cmdline>
J2VwaWtfcHl0aG9uJywgJy1waCcsICc3LjAnLCAnLXRuJywgJzgnLCAnLW1hJywgJzIwMCcsICctbWV0YWxfYmluZGluZycsICctaW1hZScsICc8aW5maWxlLm1hZT4nLCAnLW9tYWUnLCAnPG91dGZpbGUubWFlPic=

> <r_epik_Ionization_Penalty>
0.000723394

> <r_epik_Ionization_Penalty_Charging>
0

> <r_epik_Ionization_Penalty_Neutral>
0.000723394

> <r_epik_State_Penalty>
0.000446791

> <r_epik_Charging_Adjusted_Penalty>
0.000446791

> <i_epik_Tot_Q>
0

> <i_epik_Tot_abs_Q>
0

> <r_epik_Metal_State_Penalty>
-0

> <b_epik_Metal_Only>
0

> <s_lp_Force_Field>
OPLS_2005

> <r_lp_Energy>
15.0202

> <b_lp_Chiralities_Consistent>
1

> <s_lp_Variant>
AV-unprocessed.smi:2853-2

> <Gold.Version>
5.8.1

> <Gold.Id.Protein>
6NUR|6NUR_protein|mol2

> <Gold.PLP.Fitness>
38.0878

> <Gold.PLP.PLP>
-29.5772

> <Gold.PLP.part.hbond>
-3.0000

> <Gold.PLP.part.metal>
0.0000

> <Gold.PLP.part.buried>
-3.6032

> <Gold.PLP.part.nonpolar>
-21.9014

> <Gold.PLP.part.repulsive>
0.2937

> <Gold.PLP.ligand.clash>
0.0000

> <Gold.PLP.ligand.torsion>
0.2177

> <Gold.PLP.Chemscore.Hbond>
2.9760

> <Gold.PLP.Chemscore.CHOScore>
0.0000

> <Gold.PLP.Chemscore.Metal>
0.0000

> <Gold.Chemscore.Hbonds>
donor molecule, donor type, donor heavy atom, donor atom, acceptor molecule, acceptor atom, score
      L1  H    10    33       P1  7948  0.96
      L1  H    13    34       P1  7948  1.00
      P1  H  7989  7998       L1    18  1.00

> <Gold.PLP.Chemscore.Internal.Correction>
0.0180

> <Gold.Rescore>
     Score         DG    S(hbond)    S(metal)    S(lipo)     H(rot)  DE(clash)    DE(int)     intcor
     18.05     -20.72       2.62        0.00      83.36       1.28       0.30       2.38       ----

> <Gold.Chemscore.Fitness>
18.0451

> <Gold.Chemscore.DG>
-20.7223

> <Gold.Chemscore.ZeroCoef>
-5.4800

> <Gold.Chemscore.Hbond>
2.6210

> <Gold.Chemscore.Metal>
0.0000

> <Gold.Chemscore.Lipo>
83.3582

> <Gold.Chemscore.Internal_Hbond>
0.0000

> <Gold.Chemscore.DEClash>
0.2971

> <Gold.Chemscore.DEInternal>
2.3802

> <Gold.Chemscore.Rot>
1.2753

> <Gold.Chemscore.Internal.Correction>
   9.000000E+99

> <Gold.Chemscore.Hbonds>
donor molecule, donor type, donor heavy atom, donor atom, acceptor molecule, acceptor atom, score
      L1  H    10    33       P1  7948  0.91
      L1  H    13    34       P1  7948  0.97
      P1  H  7989  7998       L1    18  0.43

> <Gold.Chemscore.Hbond.Weighted>
-8.7541

> <Gold.Chemscore.Metal.Weighted>
-0.0000

> <Gold.Chemscore.Lipo.Weighted>
-9.7529

> <Gold.Chemscore.Internal_Hbond.Weighted>
0.0000

> <Gold.Chemscore.DEClash.Weighted>
0.2971

> <Gold.Chemscore.DEInternal.Weighted>
2.3802

> <Gold.Chemscore.Rot.Weighted>
3.2646

> <Gold.Chemscore.Internal.Correction.Weighted>
   9.000000E+99

> <Gold.Protein.RotatedTorsions>
[ 6907 6896 6895 6894 ] final  176.16 input  -60.11 | X-H torsion
[ 7974 7965 7964 7962 ] final  152.32 input  175.53 | X-H torsion
[ 8008 7997 7996 7995 ] final  -27.04 input   59.86 | X-H torsion
[ 10167 10162 10161 10158 ] final    1.63 input  -65.29 | X-H torsion
[ 10718 10713 10712 10709 ] final  163.47 input   66.30 | X-H torsion
[ 10763 10752 10751 10750 ] final -131.45 input  -60.55 | X-H torsion
[ 11005 11000 10999 10996 ] final -124.80 input  -57.11 | X-H torsion

> <Gold.Protein.ActiveResidues>
 VAL166  LYS551  ARG553  GLY616  TRP617  ASP618  TYR619  PRO620  LYS621  CYS622 
 ASP623  PHE694  ASN695  SER759  ASP760  ASP761  ALA762  ILE779  LEU786  VAL792 
 PHE793  MET794  SER795  GLU796  ALA797  LYS798  CYS799  TRP800  GLU811  SER814 

> <Gold.Protein.RotatedAtoms>
  151.7246  133.3315  159.3324 H   0  0  0  0  0  0  0  0  0  0  0  0  # atno 6907 bound_to 6896
  150.7638  134.6417  159.6250 H   0  0  0  0  0  0  0  0  0  0  0  0  # atno 6908 bound_to 6896
  152.3630  134.6847  160.0252 H   0  0  0  0  0  0  0  0  0  0  0  0  # atno 6909 bound_to 6896
  144.8230  139.6653  143.6092 H   0  0  0  0  0  0  0  0  0  0  0  0  # atno 7974 bound_to 7965
  154.4396  140.1883  156.0869 H   0  0  0  0  0  0  0  0  0  0  0  0  # atno 8008 bound_to 7997
  156.0395  140.3321  155.7202 H   0  0  0  0  0  0  0  0  0  0  0  0  # atno 8009 bound_to 7997
  155.5720  140.0613  157.2795 H   0  0  0  0  0  0  0  0  0  0  0  0  # atno 8010 bound_to 7997
  140.6673  143.7143  150.7853 H   0  0  0  0  0  0  0  0  0  0  0  0  # atno 10167 bound_to 10162
  157.1080  131.0460  151.2469 H   0  0  0  0  0  0  0  0  0  0  0  0  # atno 10718 bound_to 10713
  154.8750  135.3830  154.4248 H   0  0  0  0  0  0  0  0  0  0  0  0  # atno 10763 bound_to 10752
  153.4948  135.7030  153.5869 H   0  0  0  0  0  0  0  0  0  0  0  0  # atno 10764 bound_to 10752
  153.4227  135.3897  155.2088 H   0  0  0  0  0  0  0  0  0  0  0  0  # atno 10765 bound_to 10752
  140.9812  134.0670  157.3762 H   0  0  0  0  0  0  0  0  0  0  0  0  # atno 11005 bound_to 11000
  146.2536  139.6253  142.9410 LP  0  0  0  0  0  0  0  0  0  0  0  0  # atno 17320 bound_to 7965
  145.5062  141.0436  143.2513 LP  0  0  0  0  0  0  0  0  0  0  0  0  # atno 17321 bound_to 7965
  140.0823  143.4957  152.2523 LP  0  0  0  0  0  0  0  0  0  0  0  0  # atno 17342 bound_to 10162
  139.5927  144.7556  151.3360 LP  0  0  0  0  0  0  0  0  0  0  0  0  # atno 17343 bound_to 10162
  157.4584  130.7639  149.7213 LP  0  0  0  0  0  0  0  0  0  0  0  0  # atno 17370 bound_to 10713
  155.9857  130.3980  150.3247 LP  0  0  0  0  0  0  0  0  0  0  0  0  # atno 17371 bound_to 10713
  139.8951  135.0139  156.6985 LP  0  0  0  0  0  0  0  0  0  0  0  0  # atno 17394 bound_to 11000
  140.7183  133.9163  155.8130 LP  0  0  0  0  0  0  0  0  0  0  0  0  # atno 17395 bound_to 11000

$$$$
