AV-unprocessed.smi:3102|AV-procd|sdf|11812|dock7
  -GOLD-   2272017183D 1   1.00000     0.00000
 Structure written by MMmdl.
 31 32  0  0  0  0  0  0  0  0  1 V2000
  152.9966  141.1098  158.9725 C   0  0  0  0  0  0  0  0  0  0  0  0
  152.8541  140.1087  157.9707 O   0  0  0  0  0  0  0  0  0  0  0  0
  151.9255  140.3111  156.9704 C   0  0  0  0  0  0  0  0  0  0  0  0
  151.1638  141.4947  156.9862 C   0  0  0  0  0  0  0  0  0  0  0  0
  150.2137  141.7039  155.9695 C   0  0  0  0  0  0  0  0  0  0  0  0
  150.0476  140.7232  154.9631 C   0  0  0  0  0  0  0  0  0  0  0  0
  149.1198  140.8582  153.9165 N   0  0  0  0  0  0  0  0  0  0  0  0
  147.6891  140.9647  154.1732 C   0  0  2  0  0  0  0  0  0  0  0  0
  147.1097  142.3256  153.8382 C   0  0  0  0  0  0  0  0  0  0  0  0
  145.8216  142.3202  154.6554 C   0  0  0  0  0  0  0  0  0  0  0  0
  146.0938  141.5241  155.8062 O   0  0  0  0  0  0  0  0  0  0  0  0
  147.3485  140.8652  155.6586 C   0  0  0  0  0  0  0  0  0  0  0  0
  150.8667  139.5693  155.0342 C   0  0  0  0  0  0  0  0  0  0  0  0
  150.7669  138.4613  154.0000 C   0  0  0  0  0  0  0  0  0  0  0  0
  151.7792  139.3663  156.0101 N   0  0  0  0  0  0  0  0  0  0  0  0
  153.7651  140.8032  159.6820 H   0  0  0  0  0  0  0  0  0  0  0  0
  152.0697  141.2516  159.5299 H   0  0  0  0  0  0  0  0  0  0  0  0
  153.3054  142.0635  158.5422 H   0  0  0  0  0  0  0  0  0  0  0  0
  151.3053  142.2297  157.7645 H   0  0  0  0  0  0  0  0  0  0  0  0
  149.6315  142.6126  155.9797 H   0  0  0  0  0  0  0  0  0  0  0  0
  149.4093  140.6058  152.9823 H   0  0  0  0  0  0  0  0  0  0  0  0
  147.1462  140.1831  153.6405 H   0  0  0  0  0  0  0  0  0  0  0  0
  147.7692  143.1205  154.1907 H   0  0  0  0  0  0  0  0  0  0  0  0
  146.9343  142.4756  152.7728 H   0  0  0  0  0  0  0  0  0  0  0  0
  145.5007  143.3248  154.9318 H   0  0  0  0  0  0  0  0  0  0  0  0
  145.0152  141.8498  154.0916 H   0  0  0  0  0  0  0  0  0  0  0  0
  147.3043  139.8343  156.0109 H   0  0  0  0  0  0  0  0  0  0  0  0
  148.0838  141.3983  156.2637 H   0  0  0  0  0  0  0  0  0  0  0  0
  149.7615  138.0394  153.9915 H   0  0  0  0  0  0  0  0  0  0  0  0
  151.4691  137.6529  154.2084 H   0  0  0  0  0  0  0  0  0  0  0  0
  150.9874  138.8494  153.0052 H   0  0  0  0  0  0  0  0  0  0  0  0
  1  2  1  0  0  0  0
  1 16  1  0  0  0  0
  1 17  1  0  0  0  0
  1 18  1  0  0  0  0
  2  3  1  0  0  0  0
  3 15  1  0  0  0  0
  3  4  2  0  0  0  0
  4  5  1  0  0  0  0
  4 19  1  0  0  0  0
  5  6  2  0  0  0  0
  5 20  1  0  0  0  0
  6  7  1  0  0  0  0
  6 13  1  0  0  0  0
  7  8  1  0  0  0  0
  7 21  1  0  0  0  0
  8 12  1  0  0  0  0
  8  9  1  0  0  0  0
  8 22  1  0  0  0  0
  9 10  1  0  0  0  0
  9 23  1  0  0  0  0
  9 24  1  0  0  0  0
 10 11  1  0  0  0  0
 10 25  1  0  0  0  0
 10 26  1  0  0  0  0
 11 12  1  0  0  0  0
 12 27  1  0  0  0  0
 12 28  1  0  0  0  0
 13 14  1  0  0  0  0
 13 15  2  0  0  0  0
 14 29  1  0  0  0  0
 14 30  1  0  0  0  0
 14 31  1  0  0  0  0
M  END
> <s_m_source_file>
AV-unprocessed.smi

> <i_m_source_file_index>
3102

> <i_lp_mmshare_version>
43012

> <i_f3d_flags>
0

> <s_epik_input>
W0NIM11PYzFbY0hdW2NIXWMoYyhuMSlbQ0gzXSlbTkhdW0NAQEhdMltDSDJdW0NIMl1PW0NIMl0y

> <s_epik_cmdline>
J2VwaWtfcHl0aG9uJywgJy1waCcsICc3LjAnLCAnLXRuJywgJzgnLCAnLW1hJywgJzIwMCcsICctbWV0YWxfYmluZGluZycsICctaW1hZScsICc8aW5maWxlLm1hZT4nLCAnLW9tYWUnLCAnPG91dGZpbGUubWFlPic=

> <r_lp_tautomer_probability>
1

> <r_epik_Ionization_Penalty>
0.00117248

> <r_epik_Ionization_Penalty_Charging>
0

> <r_epik_Ionization_Penalty_Neutral>
0.00117248

> <r_epik_State_Penalty>
0.000742146

> <r_epik_Charging_Adjusted_Penalty>
0.000742146

> <i_epik_Tot_Q>
0

> <i_epik_Tot_abs_Q>
0

> <r_epik_Metal_State_Penalty>
-0

> <b_epik_Metal_Only>
0

> <s_lp_Force_Field>
OPLS_2005

> <r_lp_Energy>
20.6196

> <b_lp_Chiralities_Consistent>
1

> <s_lp_Variant>
AV-unprocessed.smi:3102-1

> <Gold.Version>
5.8.1

> <Gold.Id.Protein>
6NUR|6NUR_protein|mol2

> <Gold.PLP.Fitness>
31.7314

> <Gold.PLP.PLP>
-27.6562

> <Gold.PLP.part.hbond>
-2.0000

> <Gold.PLP.part.metal>
0.0000

> <Gold.PLP.part.buried>
-3.7593

> <Gold.PLP.part.nonpolar>
-22.0213

> <Gold.PLP.part.repulsive>
0.2879

> <Gold.PLP.ligand.clash>
0.7262

> <Gold.PLP.ligand.torsion>
0.6095

> <Gold.PLP.Chemscore.Hbond>
2.0000

> <Gold.PLP.Chemscore.CHOScore>
0.0000

> <Gold.PLP.Chemscore.Metal>
0.0000

> <Gold.Chemscore.Hbonds>
donor molecule, donor type, donor heavy atom, donor atom, acceptor molecule, acceptor atom, score
      L1  H     7    21       P1  7957  1.00
      P1  H  7997  8010       L1     2  0.99

> <Gold.PLP.Chemscore.Internal.Correction>
0.0206

> <Gold.Rescore>
     Score         DG    S(hbond)    S(metal)    S(lipo)     H(rot)  DE(clash)    DE(int)     intcor
     12.95     -14.60       1.30        0.00      66.86       1.18       0.29       1.36       ----

> <Gold.Chemscore.Fitness>
12.9515

> <Gold.Chemscore.DG>
-14.5978

> <Gold.Chemscore.ZeroCoef>
-5.4800

> <Gold.Chemscore.Hbond>
1.2960

> <Gold.Chemscore.Metal>
0.0000

> <Gold.Chemscore.Lipo>
66.8551

> <Gold.Chemscore.Internal_Hbond>
0.0000

> <Gold.Chemscore.DEClash>
0.2884

> <Gold.Chemscore.DEInternal>
1.3579

> <Gold.Chemscore.Rot>
1.1847

> <Gold.Chemscore.Internal.Correction>
   9.000000E+99

> <Gold.Chemscore.Hbonds>
donor molecule, donor type, donor heavy atom, donor atom, acceptor molecule, acceptor atom, score
      L1  H     7    21       P1  7957  1.00
      P1  H  7997  8010       L1     2  0.23

> <Gold.Chemscore.Hbond.Weighted>
-4.3286

> <Gold.Chemscore.Metal.Weighted>
-0.0000

> <Gold.Chemscore.Lipo.Weighted>
-7.8221

> <Gold.Chemscore.Internal_Hbond.Weighted>
0.0000

> <Gold.Chemscore.DEClash.Weighted>
0.2884

> <Gold.Chemscore.DEInternal.Weighted>
1.3579

> <Gold.Chemscore.Rot.Weighted>
3.0328

> <Gold.Chemscore.Internal.Correction.Weighted>
   9.000000E+99

> <Gold.Protein.RotatedTorsions>
[ 6907 6896 6895 6894 ] final   33.45 input  -60.11 | X-H torsion
[ 7974 7965 7964 7962 ] final   19.29 input  175.53 | X-H torsion
[ 8008 7997 7996 7995 ] final   35.38 input   59.86 | X-H torsion
[ 10167 10162 10161 10158 ] final  104.85 input  -65.29 | X-H torsion
[ 10718 10713 10712 10709 ] final  -78.53 input   66.30 | X-H torsion
[ 10763 10752 10751 10750 ] final   84.85 input  -60.55 | X-H torsion
[ 11005 11000 10999 10996 ] final  142.32 input  -57.11 | X-H torsion

> <Gold.Protein.ActiveResidues>
 VAL166  LYS551  ARG553  GLY616  TRP617  ASP618  TYR619  PRO620  LYS621  CYS622 
 ASP623  PHE694  ASN695  SER759  ASP760  ASP761  ALA762  ILE779  LEU786  VAL792 
 PHE793  MET794  SER795  GLU796  ALA797  LYS798  CYS799  TRP800  GLU811  SER814 

> <Gold.Protein.RotatedAtoms>
  152.0886  134.9422  160.0572 H   0  0  0  0  0  0  0  0  0  0  0  0  # atno 6907 bound_to 6896
  152.0683  133.4089  159.4456 H   0  0  0  0  0  0  0  0  0  0  0  0  # atno 6908 bound_to 6896
  150.6836  134.3041  159.4762 H   0  0  0  0  0  0  0  0  0  0  0  0  # atno 6909 bound_to 6896
  146.2155  139.8335  142.8655 H   0  0  0  0  0  0  0  0  0  0  0  0  # atno 7974 bound_to 7965
  155.1701  140.3291  155.4394 H   0  0  0  0  0  0  0  0  0  0  0  0  # atno 8008 bound_to 7997
  156.2513  140.1945  156.6755 H   0  0  0  0  0  0  0  0  0  0  0  0  # atno 8009 bound_to 7997
  154.6343  140.0578  156.9756 H   0  0  0  0  0  0  0  0  0  0  0  0  # atno 8010 bound_to 7997
  139.7142  144.7071  151.0977 H   0  0  0  0  0  0  0  0  0  0  0  0  # atno 10167 bound_to 10162
  156.0115  130.4520  150.3510 H   0  0  0  0  0  0  0  0  0  0  0  0  # atno 10718 bound_to 10713
  153.1420  135.4639  154.9509 H   0  0  0  0  0  0  0  0  0  0  0  0  # atno 10763 bound_to 10752
  154.7755  135.3172  154.8104 H   0  0  0  0  0  0  0  0  0  0  0  0  # atno 10764 bound_to 10752
  153.8625  135.6911  153.4835 H   0  0  0  0  0  0  0  0  0  0  0  0  # atno 10765 bound_to 10752
  140.0468  134.9277  157.0944 H   0  0  0  0  0  0  0  0  0  0  0  0  # atno 11005 bound_to 11000
  145.2973  141.0184  143.3629 LP  0  0  0  0  0  0  0  0  0  0  0  0  # atno 17320 bound_to 7965
  144.9032  139.4622  143.6622 LP  0  0  0  0  0  0  0  0  0  0  0  0  # atno 17321 bound_to 7965
  140.7740  143.5252  150.9489 LP  0  0  0  0  0  0  0  0  0  0  0  0  # atno 17342 bound_to 10162
  139.8937  143.6921  152.3141 LP  0  0  0  0  0  0  0  0  0  0  0  0  # atno 17343 bound_to 10162
  157.1602  131.0343  151.2844 LP  0  0  0  0  0  0  0  0  0  0  0  0  # atno 17370 bound_to 10713
  157.4317  130.7494  149.6995 LP  0  0  0  0  0  0  0  0  0  0  0  0  # atno 17371 bound_to 10713
  140.3981  134.2112  155.7164 LP  0  0  0  0  0  0  0  0  0  0  0  0  # atno 17394 bound_to 11000
  141.1911  133.8203  157.0894 LP  0  0  0  0  0  0  0  0  0  0  0  0  # atno 17395 bound_to 11000

$$$$
