AV-unprocessed.smi:2171|AV-procd|sdf|8832|dock5
  -GOLD-   2272012 23D 1   1.00000     0.00000
 Structure written by MMmdl.
 39 41  0  0  0  0  0  0  0  0  2 V2000
  151.8837  140.2037  155.0472 O   0  0  0  0  0  0  0  0  0  0  0  0
  151.2844  139.8358  156.0581 C   0  0  0  0  0  0  0  0  0  0  0  0
  151.8829  140.0661  157.4494 C   0  0  0  0  0  0  0  0  0  0  0  0
  151.8306  141.4645  157.8409 N   0  0  0  0  0  0  0  0  0  0  0  0
  152.4339  142.0760  158.9205 C   0  0  0  0  0  0  0  0  0  0  0  0
  152.1026  143.3998  158.8757 C   0  0  0  0  0  0  0  0  0  0  0  0
  151.2826  143.5038  157.7174 C   0  0  0  0  0  0  0  0  0  0  0  0
  151.1232  142.3447  157.0991 N   0  0  0  0  0  0  0  0  0  0  0  0
  150.0993  139.2077  156.0169 N   0  0  0  0  0  0  0  0  0  0  0  0
  149.3681  138.8906  154.7928 C   0  0  2  0  0  0  0  0  0  0  0  0
  148.4465  140.0119  154.3304 C   0  0  0  0  0  0  0  0  0  0  0  0
  147.4874  139.2972  153.3724 C   0  0  0  0  0  0  0  0  0  0  0  0
  147.4321  137.8768  153.7988 N   0  3  2  0  0  0  0  0  0  0  0  0
  146.0572  137.3807  154.0762 C   0  0  0  0  0  0  0  0  0  0  0  0
  146.0959  136.0761  154.8857 C   0  0  0  0  0  0  0  0  0  0  0  0
  146.7597  136.2858  156.2600 C   0  0  0  0  0  0  0  0  0  0  0  0
  147.7256  137.4864  156.2708 C   0  0  0  0  0  0  0  0  0  0  0  0
  148.4185  137.6813  154.8994 C   0  0  2  0  0  0  0  0  0  0  0  0
  151.3463  139.4807  158.1976 H   0  0  0  0  0  0  0  0  0  0  0  0
  152.9190  139.7245  157.4560 H   0  0  0  0  0  0  0  0  0  0  0  0
  153.0416  141.5242  159.6225 H   0  0  0  0  0  0  0  0  0  0  0  0
  152.4007  144.1760  159.5648 H   0  0  0  0  0  0  0  0  0  0  0  0
  150.8029  144.3813  157.3093 H   0  0  0  0  0  0  0  0  0  0  0  0
  149.6741  138.9346  156.8913 H   0  0  0  0  0  0  0  0  0  0  0  0
  150.0873  138.7019  153.9927 H   0  0  0  0  0  0  0  0  0  0  0  0
  147.8890  140.4178  155.1760 H   0  0  0  0  0  0  0  0  0  0  0  0
  148.9819  140.8343  153.8547 H   0  0  0  0  0  0  0  0  0  0  0  0
  146.5089  139.7791  153.3523 H   0  0  0  0  0  0  0  0  0  0  0  0
  147.8831  139.3260  152.3567 H   0  0  0  0  0  0  0  0  0  0  0  0
  145.4914  138.1294  154.6335 H   0  0  0  0  0  0  0  0  0  0  0  0
  145.5364  137.2313  153.1299 H   0  0  0  0  0  0  0  0  0  0  0  0
  145.0904  135.6743  155.0149 H   0  0  0  0  0  0  0  0  0  0  0  0
  146.6531  135.3265  154.3220 H   0  0  0  0  0  0  0  0  0  0  0  0
  145.9980  136.4390  157.0252 H   0  0  0  0  0  0  0  0  0  0  0  0
  147.2903  135.3750  156.5405 H   0  0  0  0  0  0  0  0  0  0  0  0
  147.1731  138.3917  156.5265 H   0  0  0  0  0  0  0  0  0  0  0  0
  148.4566  137.3436  157.0666 H   0  0  0  0  0  0  0  0  0  0  0  0
  148.9831  136.7723  154.6862 H   0  0  0  0  0  0  0  0  0  0  0  0
  147.7818  137.3352  153.0212 H   0  0  0  0  0  0  0  0  0  0  0  0
  1  2  2  0  0  0  0
  2  3  1  0  0  0  0
  2  9  1  0  0  0  0
  3  4  1  0  0  0  0
  3 19  1  0  0  0  0
  3 20  1  0  0  0  0
  4  8  1  0  0  0  0
  4  5  1  0  0  0  0
  5  6  2  0  0  0  0
  5 21  1  0  0  0  0
  6  7  1  0  0  0  0
  6 22  1  0  0  0  0
  7  8  2  0  0  0  0
  7 23  1  0  0  0  0
  9 10  1  0  0  0  0
  9 24  1  0  0  0  0
 10 18  1  0  0  0  0
 10 11  1  0  0  0  0
 10 25  1  0  0  0  0
 11 12  1  0  0  0  0
 11 26  1  0  0  0  0
 11 27  1  0  0  0  0
 12 13  1  0  0  0  0
 12 28  1  0  0  0  0
 12 29  1  0  0  0  0
 13 18  1  0  0  0  0
 13 14  1  0  0  0  0
 13 39  1  0  0  0  0
 14 15  1  0  0  0  0
 14 30  1  0  0  0  0
 14 31  1  0  0  0  0
 15 16  1  0  0  0  0
 15 32  1  0  0  0  0
 15 33  1  0  0  0  0
 16 17  1  0  0  0  0
 16 34  1  0  0  0  0
 16 35  1  0  0  0  0
 17 18  1  0  0  0  0
 17 36  1  0  0  0  0
 17 37  1  0  0  0  0
 18 38  1  0  0  0  0
M  CHG  1  13   1
M  END
> <s_m_source_file>
AV-unprocessed.smi

> <i_m_source_file_index>
2171

> <i_lp_mmshare_version>
43012

> <i_f3d_flags>
0

> <s_epik_input>
bjFbY0hdW2NIXVtjSF1uMVtDSDJdQyg9TylbTkhdW0NASF0oW0NIMl1bQ0gyXTIpW0NAQEhdKE4yMylbQ0gyXVtDSDJdW0NIMl1bQ0gyXTM=

> <s_epik_cmdline>
J2VwaWtfcHl0aG9uJywgJy1waCcsICc3LjAnLCAnLXRuJywgJzgnLCAnLW1hJywgJzIwMCcsICctbWV0YWxfYmluZGluZycsICctaW1hZScsICc8aW5maWxlLm1hZT4nLCAnLW9tYWUnLCAnPG91dGZpbGUubWFlPic=

> <r_lp_tautomer_probability>
1

> <r_epik_Ionization_Penalty>
0.00204179

> <r_epik_Ionization_Penalty_Charging>
0.00203239

> <r_epik_Ionization_Penalty_Neutral>
9.40205e-06

> <r_epik_State_Penalty>
0.00138983

> <r_epik_Charging_Adjusted_Penalty>
0.00342221

> <i_epik_Tot_Q>
1

> <i_epik_Tot_abs_Q>
1

> <r_epik_Metal_State_Penalty>
-0

> <b_epik_Metal_Only>
0

> <s_lp_Force_Field>
OPLS_2005

> <r_lp_Energy>
41.0306

> <b_lp_Chiralities_Consistent>
1

> <s_lp_Variant>
AV-unprocessed.smi:2171-7

> <Gold.Version>
5.8.1

> <Gold.Id.Protein>
6NUR|6NUR_protein|mol2

> <Gold.PLP.Fitness>
33.7446

> <Gold.PLP.PLP>
-23.4246

> <Gold.PLP.part.hbond>
-2.0000

> <Gold.PLP.part.metal>
0.0000

> <Gold.PLP.part.buried>
-2.6998

> <Gold.PLP.part.nonpolar>
-19.4496

> <Gold.PLP.part.repulsive>
0.1566

> <Gold.PLP.ligand.clash>
0.0000

> <Gold.PLP.ligand.torsion>
0.5867

> <Gold.PLP.Chemscore.Hbond>
2.8320

> <Gold.PLP.Chemscore.CHOScore>
0.9981

> <Gold.PLP.Chemscore.Metal>
0.0000

> <Gold.Chemscore.Hbonds>
donor molecule, donor type, donor heavy atom, donor atom, acceptor molecule, acceptor atom, score
      L1  H    13    39       P1  7948  2.00
      P1  H  7989  7998       L1     1  0.83
      L1  C     7    23       P1  8028  1.00

> <Gold.PLP.Chemscore.Internal.Correction>
0.0031

> <Gold.Rescore>
     Score         DG    S(hbond)    S(metal)    S(lipo)     H(rot)  DE(clash)    DE(int)     intcor
     14.56     -15.37       1.89        0.00      62.10       1.44       0.14       0.66       ----

> <Gold.Chemscore.Fitness>
14.5617

> <Gold.Chemscore.DG>
-15.3670

> <Gold.Chemscore.ZeroCoef>
-5.4800

> <Gold.Chemscore.Hbond>
1.8894

> <Gold.Chemscore.Metal>
0.0000

> <Gold.Chemscore.Lipo>
62.0977

> <Gold.Chemscore.Internal_Hbond>
0.0000

> <Gold.Chemscore.DEClash>
0.1430

> <Gold.Chemscore.DEInternal>
0.6623

> <Gold.Chemscore.Rot>
1.4410

> <Gold.Chemscore.Internal.Correction>
   9.000000E+99

> <Gold.Chemscore.Hbonds>
donor molecule, donor type, donor heavy atom, donor atom, acceptor molecule, acceptor atom, score
      L1  H    13    39       P1  7948  0.98
      P1  H  7989  7998       L1     1  0.83

> <Gold.Chemscore.Hbond.Weighted>
-6.3105

> <Gold.Chemscore.Metal.Weighted>
-0.0000

> <Gold.Chemscore.Lipo.Weighted>
-7.2654

> <Gold.Chemscore.Internal_Hbond.Weighted>
0.0000

> <Gold.Chemscore.DEClash.Weighted>
0.1430

> <Gold.Chemscore.DEInternal.Weighted>
0.6623

> <Gold.Chemscore.Rot.Weighted>
3.6889

> <Gold.Chemscore.Internal.Correction.Weighted>
   9.000000E+99

> <Gold.Protein.RotatedTorsions>
[ 6907 6896 6895 6894 ] final  -71.60 input  -60.11 | X-H torsion
[ 7974 7965 7964 7962 ] final  -85.38 input  175.53 | X-H torsion
[ 8008 7997 7996 7995 ] final -150.42 input   59.86 | X-H torsion
[ 10167 10162 10161 10158 ] final  -45.67 input  -65.29 | X-H torsion
[ 10718 10713 10712 10709 ] final   44.83 input   66.30 | X-H torsion
[ 10763 10752 10751 10750 ] final  -70.67 input  -60.55 | X-H torsion
[ 11005 11000 10999 10996 ] final -178.60 input  -57.11 | X-H torsion

> <Gold.Protein.ActiveResidues>
 VAL166  LYS551  ARG553  GLY616  TRP617  ASP618  TYR619  PRO620  LYS621  CYS622 
 ASP623  PHE694  ASN695  SER759  ASP760  ASP761  ALA762  ILE779  LEU786  VAL792 
 PHE793  MET794  SER795  GLU796  ALA797  LYS798  CYS799  TRP800  GLU811  SER814 

> <Gold.Protein.RotatedAtoms>
  150.7205  134.5284  159.5687 H   0  0  0  0  0  0  0  0  0  0  0  0  # atno 6907 bound_to 6896
  152.2823  134.7812  160.0403 H   0  0  0  0  0  0  0  0  0  0  0  0  # atno 6908 bound_to 6896
  151.8454  133.3395  159.3693 H   0  0  0  0  0  0  0  0  0  0  0  0  # atno 6909 bound_to 6896
  145.4940  140.9551  143.1796 H   0  0  0  0  0  0  0  0  0  0  0  0  # atno 7974 bound_to 7965
  155.6233  140.0684  157.2671 H   0  0  0  0  0  0  0  0  0  0  0  0  # atno 8008 bound_to 7997
  154.4223  140.1780  156.1444 H   0  0  0  0  0  0  0  0  0  0  0  0  # atno 8009 bound_to 7997
  155.9991  140.3338  155.6831 H   0  0  0  0  0  0  0  0  0  0  0  0  # atno 8010 bound_to 7997
  140.6849  143.2868  151.3672 H   0  0  0  0  0  0  0  0  0  0  0  0  # atno 10167 bound_to 10162
  157.4310  130.8025  149.7603 H   0  0  0  0  0  0  0  0  0  0  0  0  # atno 10718 bound_to 10713
  154.4210  135.5986  153.6010 H   0  0  0  0  0  0  0  0  0  0  0  0  # atno 10763 bound_to 10752
  152.9794  135.5952  154.3955 H   0  0  0  0  0  0  0  0  0  0  0  0  # atno 10764 bound_to 10752
  154.3781  135.2841  155.2206 H   0  0  0  0  0  0  0  0  0  0  0  0  # atno 10765 bound_to 10752
  140.4279  134.6545  157.4697 H   0  0  0  0  0  0  0  0  0  0  0  0  # atno 11005 bound_to 11000
  144.7818  139.6511  143.7151 LP  0  0  0  0  0  0  0  0  0  0  0  0  # atno 17320 bound_to 7965
  146.2267  139.5735  142.9582 LP  0  0  0  0  0  0  0  0  0  0  0  0  # atno 17321 bound_to 7965
  139.6199  144.0928  152.2381 LP  0  0  0  0  0  0  0  0  0  0  0  0  # atno 17342 bound_to 10162
  140.0369  144.6038  150.7442 LP  0  0  0  0  0  0  0  0  0  0  0  0  # atno 17343 bound_to 10162
  155.9913  130.3938  150.2989 LP  0  0  0  0  0  0  0  0  0  0  0  0  # atno 17370 bound_to 10713
  157.1146  131.0230  151.3034 LP  0  0  0  0  0  0  0  0  0  0  0  0  # atno 17371 bound_to 10713
  140.0154  134.6627  155.9317 LP  0  0  0  0  0  0  0  0  0  0  0  0  # atno 17394 bound_to 11000
  141.1757  133.6540  156.4821 LP  0  0  0  0  0  0  0  0  0  0  0  0  # atno 17395 bound_to 11000

$$$$
