AV-unprocessed.smi:1983|AV-procd|sdf|8035|dock10
  -GOLD-   2272010233D 1   1.00000     0.00000
 Structure written by MMmdl.
 50 51  0  0  0  0  0  0  0  0  2 V2000
  144.5862  135.0993  153.2613 C   0  0  0  0  0  0  0  0  0  0  0  0
  145.4437  135.2495  151.9949 C   0  0  1  0  0  0  0  0  0  0  0  0
  144.6112  135.3767  150.7019 C   0  0  0  0  0  0  0  0  0  0  0  0
  145.2080  136.2735  149.7869 O   0  0  0  0  0  0  0  0  0  0  0  0
  146.3710  136.3695  152.1385 N   0  0  0  0  0  0  0  0  0  0  0  0
  146.0371  137.6115  152.5155 C   0  0  0  0  0  0  0  0  0  0  0  0
  144.8905  137.9680  152.7883 O   0  0  0  0  0  0  0  0  0  0  0  0
  147.1049  138.4200  152.5695 N   0  0  0  0  0  0  0  0  0  0  0  0
  147.0599  139.8309  152.9400 C   0  0  0  0  0  0  0  0  0  0  0  0
  148.0940  140.2374  153.9805 C   0  0  0  0  0  0  0  0  0  0  0  0
  148.7585  139.2495  154.7393 C   0  0  0  0  0  0  0  0  0  0  0  0
  149.7173  139.6359  155.6980 C   0  0  0  0  0  0  0  0  0  0  0  0
  149.9953  141.0099  155.8853 C   0  0  0  0  0  0  0  0  0  0  0  0
  150.9305  141.4915  156.8104 N   0  0  0  0  0  0  0  0  0  0  0  0
  151.4896  140.4599  157.6744 C   0  0  0  0  0  0  0  0  0  0  0  0
  152.5902  141.0610  158.5680 C   0  0  2  0  0  0  0  0  0  0  0  0
  153.1481  140.0381  159.5630 C   0  0  0  0  0  0  0  0  0  0  0  0
  152.0399  142.1507  159.3050 O   0  0  0  0  0  0  0  0  0  0  0  0
  151.5580  143.1972  158.4644 C   0  0  2  0  0  0  0  0  0  0  0  0
  151.0611  144.3403  159.3553 C   0  0  0  0  0  0  0  0  0  0  0  0
  150.4425  142.6421  157.5580 C   0  0  0  0  0  0  0  0  0  0  0  0
  149.3276  141.9243  155.1479 N   0  3  0  0  0  0  0  0  0  0  0  0
  148.4035  141.5951  154.2194 C   0  0  0  0  0  0  0  0  0  0  0  0
  143.9061  134.2515  153.1745 H   0  0  0  0  0  0  0  0  0  0  0  0
  143.9856  135.9897  153.4509 H   0  0  0  0  0  0  0  0  0  0  0  0
  145.2112  134.9298  154.1385 H   0  0  0  0  0  0  0  0  0  0  0  0
  146.0387  134.3381  151.9096 H   0  0  0  0  0  0  0  0  0  0  0  0
  144.4756  134.4072  150.2212 H   0  0  0  0  0  0  0  0  0  0  0  0
  143.6148  135.7504  150.9394 H   0  0  0  0  0  0  0  0  0  0  0  0
  145.3639  135.8147  148.9756 H   0  0  0  0  0  0  0  0  0  0  0  0
  147.3424  136.1771  151.9420 H   0  0  0  0  0  0  0  0  0  0  0  0
  148.0069  138.0377  152.3251 H   0  0  0  0  0  0  0  0  0  0  0  0
  147.2274  140.4246  152.0412 H   0  0  0  0  0  0  0  0  0  0  0  0
  146.0573  140.0797  153.2926 H   0  0  0  0  0  0  0  0  0  0  0  0
  148.5405  138.2025  154.5865 H   0  0  0  0  0  0  0  0  0  0  0  0
  150.2275  138.8827  156.2805 H   0  0  0  0  0  0  0  0  0  0  0  0
  150.7037  140.0291  158.2963 H   0  0  0  0  0  0  0  0  0  0  0  0
  151.8987  139.6535  157.0641 H   0  0  0  0  0  0  0  0  0  0  0  0
  153.4111  141.4261  157.9480 H   0  0  0  0  0  0  0  0  0  0  0  0
  153.5903  139.1871  159.0446 H   0  0  0  0  0  0  0  0  0  0  0  0
  152.3659  139.6597  160.2219 H   0  0  0  0  0  0  0  0  0  0  0  0
  153.9220  140.4851  160.1875 H   0  0  0  0  0  0  0  0  0  0  0  0
  152.3805  143.5682  157.8500 H   0  0  0  0  0  0  0  0  0  0  0  0
  150.6874  145.1714  158.7565 H   0  0  0  0  0  0  0  0  0  0  0  0
  151.8657  144.7207  159.9851 H   0  0  0  0  0  0  0  0  0  0  0  0
  150.2541  144.0098  160.0099 H   0  0  0  0  0  0  0  0  0  0  0  0
  150.1036  143.4141  156.8657 H   0  0  0  0  0  0  0  0  0  0  0  0
  149.5815  142.3481  158.1604 H   0  0  0  0  0  0  0  0  0  0  0  0
  147.9473  142.4243  153.6983 H   0  0  0  0  0  0  0  0  0  0  0  0
  149.5344  142.9123  155.2963 H   0  0  0  0  0  0  0  0  0  0  0  0
  1  2  1  0  0  0  0
  1 24  1  0  0  0  0
  1 25  1  0  0  0  0
  1 26  1  0  0  0  0
  2  3  1  0  0  0  0
  2  5  1  0  0  0  0
  2 27  1  0  0  0  0
  3  4  1  0  0  0  0
  3 28  1  0  0  0  0
  3 29  1  0  0  0  0
  4 30  1  0  0  0  0
  5  6  1  0  0  0  0
  5 31  1  0  0  0  0
  6  7  2  0  0  0  0
  6  8  1  0  0  0  0
  8  9  1  0  0  0  0
  8 32  1  0  0  0  0
  9 10  1  0  0  0  0
  9 33  1  0  0  0  0
  9 34  1  0  0  0  0
 10 23  1  0  0  0  0
 10 11  2  0  0  0  0
 11 12  1  0  0  0  0
 11 35  1  0  0  0  0
 12 13  2  0  0  0  0
 12 36  1  0  0  0  0
 13 14  1  0  0  0  0
 13 22  1  0  0  0  0
 14 21  1  0  0  0  0
 14 15  1  0  0  0  0
 15 16  1  0  0  0  0
 15 37  1  0  0  0  0
 15 38  1  0  0  0  0
 16 17  1  0  0  0  0
 16 18  1  0  0  0  0
 16 39  1  0  0  0  0
 17 40  1  0  0  0  0
 17 41  1  0  0  0  0
 17 42  1  0  0  0  0
 18 19  1  0  0  0  0
 19 20  1  0  0  0  0
 19 21  1  0  0  0  0
 19 43  1  0  0  0  0
 20 44  1  0  0  0  0
 20 45  1  0  0  0  0
 20 46  1  0  0  0  0
 21 47  1  0  0  0  0
 21 48  1  0  0  0  0
 22 23  2  0  0  0  0
 22 50  1  0  0  0  0
 23 49  1  0  0  0  0
M  CHG  1  22   1
M  END
> <s_m_source_file>
AV-unprocessed.smi

> <i_m_source_file_index>
1983

> <i_lp_mmshare_version>
43012

> <i_f3d_flags>
0

> <s_epik_input>
W09IXVtDSDJdW0NAQEhdKFtDSDNdKVtOSF1DKD1PKVtOSF1bQ0gyXWMxW2NIXVtjSF1jKG5bY0hdMSlOMltDSDJdW0NAQEhdKFtDSDNdKU9bQ0BASF0oW0NIM10pW0NIMl0y

> <s_epik_cmdline>
J2VwaWtfcHl0aG9uJywgJy1waCcsICc3LjAnLCAnLXRuJywgJzgnLCAnLW1hJywgJzIwMCcsICctbWV0YWxfYmluZGluZycsICctaW1hZScsICc8aW5maWxlLm1hZT4nLCAnLW9tYWUnLCAnPG91dGZpbGUubWFlPic=

> <r_lp_tautomer_probability>
0.999994

> <r_epik_Ionization_Penalty>
2.55677

> <r_epik_Ionization_Penalty_Charging>
2.55673

> <r_epik_Ionization_Penalty_Neutral>
3.71772e-05

> <r_epik_State_Penalty>
2.72571

> <r_epik_Charging_Adjusted_Penalty>
5.28244

> <i_epik_Tot_Q>
1

> <i_epik_Tot_abs_Q>
1

> <r_epik_Metal_State_Penalty>
2.73364

> <b_epik_Metal_Only>
0

> <s_lp_Force_Field>
OPLS_2005

> <r_lp_Energy>
22.1941

> <b_lp_Chiralities_Consistent>
1

> <s_lp_Variant>
AV-unprocessed.smi:1983-8

> <Gold.Version>
5.8.1

> <Gold.Id.Protein>
6NUR|6NUR_protein|mol2

> <Gold.PLP.Fitness>
48.9126

> <Gold.PLP.PLP>
-36.8703

> <Gold.PLP.part.hbond>
-5.1964

> <Gold.PLP.part.metal>
0.0000

> <Gold.PLP.part.buried>
-5.8736

> <Gold.PLP.part.nonpolar>
-29.3093

> <Gold.PLP.part.repulsive>
2.2711

> <Gold.PLP.ligand.clash>
0.0000

> <Gold.PLP.ligand.torsion>
1.2075

> <Gold.PLP.Chemscore.Hbond>
4.7748

> <Gold.PLP.Chemscore.CHOScore>
0.0000

> <Gold.PLP.Chemscore.Metal>
0.0000

> <Gold.Chemscore.Hbonds>
donor molecule, donor type, donor heavy atom, donor atom, acceptor molecule, acceptor atom, score
      L1  H     4    30       P1  7921  1.00
      L1  H     5    31       P1  7948  1.00
      L1  H     8    32       P1  7948  0.77
      L1  H    22    50       P1  8028  1.95

> <Gold.PLP.Chemscore.Internal.Correction>
0.1330

> <Gold.Rescore>
     Score         DG    S(hbond)    S(metal)    S(lipo)     H(rot)  DE(clash)    DE(int)     intcor
     19.32     -21.76       3.83        0.00      88.18       2.66       0.01       2.43       ----

> <Gold.Chemscore.Fitness>
19.3199

> <Gold.Chemscore.DG>
-21.7565

> <Gold.Chemscore.ZeroCoef>
-5.4800

> <Gold.Chemscore.Hbond>
3.8258

> <Gold.Chemscore.Metal>
0.0000

> <Gold.Chemscore.Lipo>
88.1823

> <Gold.Chemscore.Internal_Hbond>
0.0000

> <Gold.Chemscore.DEClash>
0.0086

> <Gold.Chemscore.DEInternal>
2.4280

> <Gold.Chemscore.Rot>
2.6637

> <Gold.Chemscore.Internal.Correction>
   9.000000E+99

> <Gold.Chemscore.Hbonds>
donor molecule, donor type, donor heavy atom, donor atom, acceptor molecule, acceptor atom, score
      L1  H     4    30       P1  7921  1.00
      L1  H     5    31       P1  7948  0.98
      L1  H     8    32       P1  7948  0.74
      L1  H    22    50       P1  8028  0.92

> <Gold.Chemscore.Hbond.Weighted>
-12.7783

> <Gold.Chemscore.Metal.Weighted>
-0.0000

> <Gold.Chemscore.Lipo.Weighted>
-10.3173

> <Gold.Chemscore.Internal_Hbond.Weighted>
0.0000

> <Gold.Chemscore.DEClash.Weighted>
0.0086

> <Gold.Chemscore.DEInternal.Weighted>
2.4280

> <Gold.Chemscore.Rot.Weighted>
6.8191

> <Gold.Chemscore.Internal.Correction.Weighted>
   9.000000E+99

> <Gold.Protein.RotatedTorsions>
[ 6907 6896 6895 6894 ] final -156.30 input  -60.11 | X-H torsion
[ 7974 7965 7964 7962 ] final  177.19 input  175.53 | X-H torsion
[ 8008 7997 7996 7995 ] final  171.38 input   59.86 | X-H torsion
[ 10167 10162 10161 10158 ] final -167.11 input  -65.29 | X-H torsion
[ 10718 10713 10712 10709 ] final   93.55 input   66.30 | X-H torsion
[ 10763 10752 10751 10750 ] final  -11.02 input  -60.55 | X-H torsion
[ 11005 11000 10999 10996 ] final   92.39 input  -57.11 | X-H torsion

> <Gold.Protein.ActiveResidues>
 VAL166  LYS551  ARG553  GLY616  TRP617  ASP618  TYR619  PRO620  LYS621  CYS622 
 ASP623  PHE694  ASN695  SER759  ASP760  ASP761  ALA762  ILE779  LEU786  VAL792 
 PHE793  MET794  SER795  GLU796  ALA797  LYS798  CYS799  TRP800  GLU811  SER814 

> <Gold.Protein.RotatedAtoms>
  151.2856  133.4189  159.2629 H   0  0  0  0  0  0  0  0  0  0  0  0  # atno 6907 bound_to 6896
  151.0322  134.9548  159.8127 H   0  0  0  0  0  0  0  0  0  0  0  0  # atno 6908 bound_to 6896
  152.5348  134.2816  159.9062 H   0  0  0  0  0  0  0  0  0  0  0  0  # atno 6909 bound_to 6896
  144.7173  140.0209  143.6440 H   0  0  0  0  0  0  0  0  0  0  0  0  # atno 7974 bound_to 7965
  156.1277  140.1513  156.9112 H   0  0  0  0  0  0  0  0  0  0  0  0  # atno 8008 bound_to 7997
  154.4884  140.0858  156.7580 H   0  0  0  0  0  0  0  0  0  0  0  0  # atno 8009 bound_to 7997
  155.4314  140.3427  155.4283 H   0  0  0  0  0  0  0  0  0  0  0  0  # atno 8010 bound_to 7997
  139.6071  144.0891  152.1804 H   0  0  0  0  0  0  0  0  0  0  0  0  # atno 10167 bound_to 10162
  157.6954  131.0482  150.4052 H   0  0  0  0  0  0  0  0  0  0  0  0  # atno 10718 bound_to 10713
  153.4776  135.7017  153.5956 H   0  0  0  0  0  0  0  0  0  0  0  0  # atno 10763 bound_to 10752
  153.4183  135.3831  155.2095 H   0  0  0  0  0  0  0  0  0  0  0  0  # atno 10764 bound_to 10752
  154.8723  135.3921  154.4222 H   0  0  0  0  0  0  0  0  0  0  0  0  # atno 10765 bound_to 10752
  139.8824  134.8730  156.3566 H   0  0  0  0  0  0  0  0  0  0  0  0  # atno 11005 bound_to 11000
  146.0181  139.3227  143.0829 LP  0  0  0  0  0  0  0  0  0  0  0  0  # atno 17320 bound_to 7965
  145.8601  140.9480  143.0704 LP  0  0  0  0  0  0  0  0  0  0  0  0  # atno 17321 bound_to 7965
  140.0501  144.5940  150.7343 LP  0  0  0  0  0  0  0  0  0  0  0  0  # atno 17342 bound_to 10162
  140.7292  143.2670  151.4011 LP  0  0  0  0  0  0  0  0  0  0  0  0  # atno 17343 bound_to 10162
  156.4441  130.3998  149.6678 LP  0  0  0  0  0  0  0  0  0  0  0  0  # atno 17370 bound_to 10713
  156.3851  130.7599  151.2595 LP  0  0  0  0  0  0  0  0  0  0  0  0  # atno 17371 bound_to 10713
  140.9558  133.7421  156.0333 LP  0  0  0  0  0  0  0  0  0  0  0  0  # atno 17394 bound_to 11000
  140.8051  134.3464  157.5428 LP  0  0  0  0  0  0  0  0  0  0  0  0  # atno 17395 bound_to 11000

$$$$
