AV-unprocessed.smi:385|AV-procd|sdf|2471|dock1
  -GOLD-   2262022413D 1   1.00000     0.00000
 Structure written by MMmdl.
 37 38  0  0  0  0  0  0  0  0  2 V2000
  151.1816  140.3862  155.4151 O   0  0  0  0  0  0  0  0  0  0  0  0
  150.1987  141.1081  155.5836 C   0  0  0  0  0  0  0  0  0  0  0  0
  150.2444  142.2690  156.2544 N   0  0  0  0  0  0  0  0  0  0  0  0
  151.4470  142.8606  156.8334 C   0  0  0  0  0  0  0  0  0  0  0  0
  151.1393  143.8978  157.9330 C   0  0  0  0  0  0  0  0  0  0  0  0
  151.7591  143.5617  159.2794 C   0  0  0  0  0  0  0  0  0  0  0  0
  151.6166  144.4368  160.3779 C   0  0  0  0  0  0  0  0  0  0  0  0
  152.2028  144.0736  161.6056 C   0  0  0  0  0  0  0  0  0  0  0  0
  152.9045  142.8555  161.6878 C   0  0  0  0  0  0  0  0  0  0  0  0
  152.9908  142.0526  160.5329 C   0  0  0  0  0  0  0  0  0  0  0  0
  152.4321  142.3914  159.3510 N   0  0  0  0  0  0  0  0  0  0  0  0
  148.8370  140.7101  155.0001 C   0  0  0  0  0  0  0  0  0  0  0  0
  148.9289  139.3865  154.2128 C   0  0  0  0  0  0  0  0  0  0  0  0
  147.5734  139.0220  153.5838 C   0  0  0  0  0  0  0  0  0  0  0  0
  147.0813  140.1212  152.7251 N   0  3  0  0  0  0  0  0  0  0  0  0
  146.9474  141.4033  153.4503 C   0  0  0  0  0  0  0  0  0  0  0  0
  148.2893  141.8184  154.0775 C   0  0  0  0  0  0  0  0  0  0  0  0
  149.3898  142.7988  156.3473 H   0  0  0  0  0  0  0  0  0  0  0  0
  152.0313  142.0453  157.2613 H   0  0  0  0  0  0  0  0  0  0  0  0
  152.0652  143.3048  156.0520 H   0  0  0  0  0  0  0  0  0  0  0  0
  151.4888  144.8816  157.6172 H   0  0  0  0  0  0  0  0  0  0  0  0
  150.0599  143.9923  158.0563 H   0  0  0  0  0  0  0  0  0  0  0  0
  151.0680  145.3628  160.2842 H   0  0  0  0  0  0  0  0  0  0  0  0
  152.1148  144.7169  162.4686 H   0  0  0  0  0  0  0  0  0  0  0  0
  153.3673  142.5438  162.6125 H   0  0  0  0  0  0  0  0  0  0  0  0
  153.5215  141.1125  160.5597 H   0  0  0  0  0  0  0  0  0  0  0  0
  148.1348  140.5700  155.8243 H   0  0  0  0  0  0  0  0  0  0  0  0
  149.6793  139.4654  153.4244 H   0  0  0  0  0  0  0  0  0  0  0  0
  149.2560  138.5796  154.8700 H   0  0  0  0  0  0  0  0  0  0  0  0
  147.6663  138.1167  152.9835 H   0  0  0  0  0  0  0  0  0  0  0  0
  146.8365  138.8149  154.3611 H   0  0  0  0  0  0  0  0  0  0  0  0
  147.7329  140.2496  151.9640 H   0  0  0  0  0  0  0  0  0  0  0  0
  146.6011  142.1693  152.7565 H   0  0  0  0  0  0  0  0  0  0  0  0
  146.1826  141.3018  154.2213 H   0  0  0  0  0  0  0  0  0  0  0  0
  148.1581  142.7447  154.6391 H   0  0  0  0  0  0  0  0  0  0  0  0
  149.0054  142.0386  153.2838 H   0  0  0  0  0  0  0  0  0  0  0  0
  146.1819  139.8633  152.3442 H   0  0  0  0  0  0  0  0  0  0  0  0
  1  2  2  0  0  0  0
  2  3  1  0  0  0  0
  2 12  1  0  0  0  0
  3  4  1  0  0  0  0
  3 18  1  0  0  0  0
  4  5  1  0  0  0  0
  4 19  1  0  0  0  0
  4 20  1  0  0  0  0
  5  6  1  0  0  0  0
  5 21  1  0  0  0  0
  5 22  1  0  0  0  0
  6 11  1  0  0  0  0
  6  7  2  0  0  0  0
  7  8  1  0  0  0  0
  7 23  1  0  0  0  0
  8  9  2  0  0  0  0
  8 24  1  0  0  0  0
  9 10  1  0  0  0  0
  9 25  1  0  0  0  0
 10 11  2  0  0  0  0
 10 26  1  0  0  0  0
 12 17  1  0  0  0  0
 12 13  1  0  0  0  0
 12 27  1  0  0  0  0
 13 14  1  0  0  0  0
 13 28  1  0  0  0  0
 13 29  1  0  0  0  0
 14 15  1  0  0  0  0
 14 30  1  0  0  0  0
 14 31  1  0  0  0  0
 15 16  1  0  0  0  0
 15 32  1  0  0  0  0
 15 37  1  0  0  0  0
 16 17  1  0  0  0  0
 16 33  1  0  0  0  0
 16 34  1  0  0  0  0
 17 35  1  0  0  0  0
 17 36  1  0  0  0  0
M  CHG  1  15   1
M  END
> <s_m_source_file>
AV-unprocessed.smi

> <i_m_source_file_index>
385

> <i_lp_mmshare_version>
43012

> <i_f3d_flags>
0

> <s_epik_input>
W0NIMl0xW0NIMl1bTkhdW0NIMl1bQ0gyXVtDSF0xQyg9TylbTkhdW0NIMl1bQ0gyXWMyW2NIXVtjSF1bY0hdW2NIXW4y

> <s_epik_cmdline>
J2VwaWtfcHl0aG9uJywgJy1waCcsICc3LjAnLCAnLXRuJywgJzgnLCAnLW1hJywgJzIwMCcsICctbWV0YWxfYmluZGluZycsICctaW1hZScsICc8aW5maWxlLm1hZT4nLCAnLW9tYWUnLCAnPG91dGZpbGUubWFlPic=

> <r_epik_Ionization_Penalty>
0.0235291

> <r_epik_Ionization_Penalty_Charging>
0.00104307

> <r_epik_Ionization_Penalty_Neutral>
0.022486

> <r_epik_State_Penalty>
0.0181452

> <r_epik_Charging_Adjusted_Penalty>
0.0191883

> <i_epik_Tot_Q>
1

> <i_epik_Tot_abs_Q>
1

> <r_epik_Metal_State_Penalty>
0.0174791

> <b_epik_Metal_Only>
0

> <s_lp_Force_Field>
OPLS_2005

> <r_lp_Energy>
12.6359

> <b_lp_Chiralities_Consistent>
1

> <s_lp_Variant>
AV-unprocessed.smi:385-1

> <Gold.Version>
5.8.1

> <Gold.Id.Protein>
6NUR|6NUR_protein|mol2

> <Gold.PLP.Fitness>
47.6238

> <Gold.PLP.PLP>
-41.1569

> <Gold.PLP.part.hbond>
-3.0000

> <Gold.PLP.part.metal>
0.0000

> <Gold.PLP.part.buried>
-4.8307

> <Gold.PLP.part.nonpolar>
-33.2199

> <Gold.PLP.part.repulsive>
0.1693

> <Gold.PLP.ligand.clash>
0.0000

> <Gold.PLP.ligand.torsion>
0.5406

> <Gold.PLP.Chemscore.Hbond>
2.5034

> <Gold.PLP.Chemscore.CHOScore>
0.0000

> <Gold.PLP.Chemscore.Metal>
0.0000

> <Gold.Chemscore.Hbonds>
donor molecule, donor type, donor heavy atom, donor atom, acceptor molecule, acceptor atom, score
      L1  H     3    18       P1  8028  0.52
      L1  H    15    32       P1  7957  1.00
      P1  H  7989  7998       L1     1  0.98

> <Gold.PLP.Chemscore.Internal.Correction>
0.0378

> <Gold.Rescore>
     Score         DG    S(hbond)    S(metal)    S(lipo)     H(rot)  DE(clash)    DE(int)     intcor
     19.11     -20.28       1.71        0.00     112.23       1.58       0.63       0.54       ----

> <Gold.Chemscore.Fitness>
19.1146

> <Gold.Chemscore.DG>
-20.2773

> <Gold.Chemscore.ZeroCoef>
-5.4800

> <Gold.Chemscore.Hbond>
1.7110

> <Gold.Chemscore.Metal>
0.0000

> <Gold.Chemscore.Lipo>
112.2271

> <Gold.Chemscore.Internal_Hbond>
0.0000

> <Gold.Chemscore.DEClash>
0.6259

> <Gold.Chemscore.DEInternal>
0.5368

> <Gold.Chemscore.Rot>
1.5813

> <Gold.Chemscore.Internal.Correction>
   9.000000E+99

> <Gold.Chemscore.Hbonds>
donor molecule, donor type, donor heavy atom, donor atom, acceptor molecule, acceptor atom, score
      L1  H     3    18       P1  8028  0.50
      L1  H    15    32       P1  7957  0.91
      P1  H  7989  7998       L1     1  0.22

> <Gold.Chemscore.Hbond.Weighted>
-5.7149

> <Gold.Chemscore.Metal.Weighted>
-0.0000

> <Gold.Chemscore.Lipo.Weighted>
-13.1306

> <Gold.Chemscore.Internal_Hbond.Weighted>
0.0000

> <Gold.Chemscore.DEClash.Weighted>
0.6259

> <Gold.Chemscore.DEInternal.Weighted>
0.5368

> <Gold.Chemscore.Rot.Weighted>
4.0481

> <Gold.Chemscore.Internal.Correction.Weighted>
   9.000000E+99

> <Gold.Protein.RotatedTorsions>
[ 6907 6896 6895 6894 ] final -144.83 input  -60.11 | X-H torsion
[ 7974 7965 7964 7962 ] final  131.96 input  175.53 | X-H torsion
[ 8008 7997 7996 7995 ] final  160.93 input   59.86 | X-H torsion
[ 10167 10162 10161 10158 ] final -103.76 input  -65.29 | X-H torsion
[ 10718 10713 10712 10709 ] final -104.75 input   66.30 | X-H torsion
[ 10763 10752 10751 10750 ] final  -87.91 input  -60.55 | X-H torsion
[ 11005 11000 10999 10996 ] final  -28.27 input  -57.11 | X-H torsion

> <Gold.Protein.ActiveResidues>
 VAL166  LYS551  ARG553  GLY616  TRP617  ASP618  TYR619  PRO620  LYS621  CYS622 
 ASP623  PHE694  ASN695  SER759  ASP760  ASP761  ALA762  ILE779  LEU786  VAL792 
 PHE793  MET794  SER795  GLU796  ALA797  LYS798  CYS799  TRP800  GLU811  SER814 

> <Gold.Protein.RotatedAtoms>
  151.1194  133.5115  159.2602 H   0  0  0  0  0  0  0  0  0  0  0  0  # atno 6907 bound_to 6896
  151.1878  135.0389  159.8830 H   0  0  0  0  0  0  0  0  0  0  0  0  # atno 6908 bound_to 6896
  152.5455  134.1038  159.8382 H   0  0  0  0  0  0  0  0  0  0  0  0  # atno 6909 bound_to 6896
  145.0019  139.4304  143.5288 H   0  0  0  0  0  0  0  0  0  0  0  0  # atno 7974 bound_to 7965
  156.2139  140.1791  156.7634 H   0  0  0  0  0  0  0  0  0  0  0  0  # atno 8008 bound_to 7997
  154.5762  140.0674  156.9067 H   0  0  0  0  0  0  0  0  0  0  0  0  # atno 8009 bound_to 7997
  155.2584  140.3334  155.4278 H   0  0  0  0  0  0  0  0  0  0  0  0  # atno 8010 bound_to 7997
  140.2165  143.3707  152.1006 H   0  0  0  0  0  0  0  0  0  0  0  0  # atno 10167 bound_to 10162
  156.0317  130.5530  150.7441 H   0  0  0  0  0  0  0  0  0  0  0  0  # atno 10718 bound_to 10713
  154.6388  135.5396  153.7765 H   0  0  0  0  0  0  0  0  0  0  0  0  # atno 10763 bound_to 10752
  153.0323  135.6454  154.1191 H   0  0  0  0  0  0  0  0  0  0  0  0  # atno 10764 bound_to 10752
  154.1116  135.2926  155.3209 H   0  0  0  0  0  0  0  0  0  0  0  0  # atno 10765 bound_to 10752
  140.9194  133.7409  156.0779 H   0  0  0  0  0  0  0  0  0  0  0  0  # atno 11005 bound_to 11000
  146.3453  139.9412  142.8741 LP  0  0  0  0  0  0  0  0  0  0  0  0  # atno 17320 bound_to 7965
  145.2142  140.9908  143.4083 LP  0  0  0  0  0  0  0  0  0  0  0  0  # atno 17321 bound_to 7965
  139.5160  144.6971  151.5599 LP  0  0  0  0  0  0  0  0  0  0  0  0  # atno 17342 bound_to 10162
  140.6286  143.9120  150.6586 LP  0  0  0  0  0  0  0  0  0  0  0  0  # atno 17343 bound_to 10162
  157.5002  131.0918  151.0323 LP  0  0  0  0  0  0  0  0  0  0  0  0  # atno 17370 bound_to 10713
  157.0706  130.5862  149.5402 LP  0  0  0  0  0  0  0  0  0  0  0  0  # atno 17371 bound_to 10713
  140.8008  134.3511  157.5440 LP  0  0  0  0  0  0  0  0  0  0  0  0  # atno 17394 bound_to 11000
  139.8772  134.9196  156.3232 LP  0  0  0  0  0  0  0  0  0  0  0  0  # atno 17395 bound_to 11000

$$$$
