AV-unprocessed.smi:1754|AV-procd|sdf|7069|dock2
  -GOLD-   22720 8283D 1   1.00000     0.00000
 Structure written by MMmdl.
 44 45  0  0  0  0  0  0  0  0  3 V2000
  152.7352  143.8725  161.8265 C   0  0  0  0  0  0  0  0  0  0  0  0
  152.7695  142.5945  160.9786 C   0  0  0  0  0  0  0  0  0  0  0  0
  152.1213  142.7761  159.6826 N   0  0  0  0  0  0  0  0  0  0  0  0
  151.6857  144.1149  159.2888 C   0  0  0  0  0  0  0  0  0  0  0  0
  150.4232  144.5587  160.0400 C   0  0  0  0  0  0  0  0  0  0  0  0
  151.8695  141.6654  158.8441 C   0  0  0  0  0  0  0  0  0  0  0  0
  151.3243  141.7799  157.5412 C   0  0  0  0  0  0  0  0  0  0  0  0
  151.1074  140.6229  156.7655 C   0  0  0  0  0  0  0  0  0  0  0  0
  151.4236  139.3550  157.2934 C   0  0  0  0  0  0  0  0  0  0  0  0
  151.2124  138.2201  156.4652 N   0  0  0  0  0  0  0  0  0  0  0  0
  151.7994  136.9987  156.5119 C   0  0  0  0  0  0  0  0  0  0  0  0
  152.5889  136.7507  157.4216 O   0  0  0  0  0  0  0  0  0  0  0  0
  151.4854  136.0584  155.5697 N   0  5  0  0  0  0  0  0  0  0  0  0
  150.1707  135.4934  155.2172 C   0  0  1  0  0  0  0  0  0  0  0  0
  150.3715  134.1170  154.5460 C   0  0  0  0  0  0  0  0  0  0  0  0
  150.6160  133.0507  155.6225 C   0  0  0  0  0  0  0  0  0  0  0  0
  149.5886  133.5597  157.0487 S   0  0  0  0  0  0  0  0  0  0  0  0
  148.3027  132.8466  156.9970 O   0  0  0  0  0  0  0  0  0  0  0  0
  150.4081  133.5426  158.2704 O   0  0  0  0  0  0  0  0  0  0  0  0
  149.3258  135.2910  156.4911 C   0  0  0  0  0  0  0  0  0  0  0  0
  151.9766  139.2908  158.5932 C   0  0  0  0  0  0  0  0  0  0  0  0
  152.1681  140.4245  159.3009 N   0  3  0  0  0  0  0  0  0  0  0  0
  153.2119  143.7068  162.7927 H   0  0  0  0  0  0  0  0  0  0  0  0
  151.7107  144.1951  162.0145 H   0  0  0  0  0  0  0  0  0  0  0  0
  153.2591  144.6923  161.3345 H   0  0  0  0  0  0  0  0  0  0  0  0
  153.7923  142.2395  160.8551 H   0  0  0  0  0  0  0  0  0  0  0  0
  152.2508  141.8002  161.5161 H   0  0  0  0  0  0  0  0  0  0  0  0
  152.4922  144.8174  159.5013 H   0  0  0  0  0  0  0  0  0  0  0  0
  151.5274  144.1690  158.2115 H   0  0  0  0  0  0  0  0  0  0  0  0
  150.1299  145.5646  159.7394 H   0  0  0  0  0  0  0  0  0  0  0  0
  150.5863  144.5697  161.1179 H   0  0  0  0  0  0  0  0  0  0  0  0
  149.5838  143.8939  159.8348 H   0  0  0  0  0  0  0  0  0  0  0  0
  151.0605  142.7380  157.1204 H   0  0  0  0  0  0  0  0  0  0  0  0
  150.6941  140.7116  155.7713 H   0  0  0  0  0  0  0  0  0  0  0  0
  150.4980  138.3254  155.7597 H   0  0  0  0  0  0  0  0  0  0  0  0
  149.6329  136.1466  154.5282 H   0  0  0  0  0  0  0  0  0  0  0  0
  149.4558  133.8597  154.0128 H   0  0  0  0  0  0  0  0  0  0  0  0
  151.1684  134.1296  153.8013 H   0  0  0  0  0  0  0  0  0  0  0  0
  150.3448  132.0458  155.2999 H   0  0  0  0  0  0  0  0  0  0  0  0
  151.6603  133.0444  155.9393 H   0  0  0  0  0  0  0  0  0  0  0  0
  149.5718  135.9839  157.2965 H   0  0  0  0  0  0  0  0  0  0  0  0
  148.2660  135.4036  156.2633 H   0  0  0  0  0  0  0  0  0  0  0  0
  152.2880  138.3850  159.0914 H   0  0  0  0  0  0  0  0  0  0  0  0
  152.5686  140.3398  160.2351 H   0  0  0  0  0  0  0  0  0  0  0  0
  1  2  1  0  0  0  0
  1 23  1  0  0  0  0
  1 24  1  0  0  0  0
  1 25  1  0  0  0  0
  2  3  1  0  0  0  0
  2 26  1  0  0  0  0
  2 27  1  0  0  0  0
  3  4  1  0  0  0  0
  3  6  1  0  0  0  0
  4  5  1  0  0  0  0
  4 28  1  0  0  0  0
  4 29  1  0  0  0  0
  5 30  1  0  0  0  0
  5 31  1  0  0  0  0
  5 32  1  0  0  0  0
  6 22  1  0  0  0  0
  6  7  2  0  0  0  0
  7  8  1  0  0  0  0
  7 33  1  0  0  0  0
  8  9  2  0  0  0  0
  8 34  1  0  0  0  0
  9 10  1  0  0  0  0
  9 21  1  0  0  0  0
 10 11  1  0  0  0  0
 10 35  1  0  0  0  0
 11 12  2  0  0  0  0
 11 13  1  0  0  0  0
 13 14  1  0  0  0  0
 14 20  1  0  0  0  0
 14 15  1  0  0  0  0
 14 36  1  0  0  0  0
 15 16  1  0  0  0  0
 15 37  1  0  0  0  0
 15 38  1  0  0  0  0
 16 17  1  0  0  0  0
 16 39  1  0  0  0  0
 16 40  1  0  0  0  0
 17 18  2  0  0  0  0
 17 19  2  0  0  0  0
 17 20  1  0  0  0  0
 20 41  1  0  0  0  0
 20 42  1  0  0  0  0
 21 22  2  0  0  0  0
 21 43  1  0  0  0  0
 22 44  1  0  0  0  0
M  CHG  1  13  -1
M  CHG  1  22   1
M  END
> <s_m_source_file>
AV-unprocessed.smi

> <i_m_source_file_index>
1754

> <i_lp_mmshare_version>
43012

> <i_f3d_flags>
0

> <s_epik_input>
W0NIM11bQ0gyXU4oW0NIMl1bQ0gzXSljMVtjSF1bY0hdYyhbY0hdbjEpW05IXUMoPU8pW05IXVtDQEBIXShbQ0gyXTIpW0NIMl1bQ0gyXVMyKD1PKT1P

> <s_epik_cmdline>
J2VwaWtfcHl0aG9uJywgJy1waCcsICc3LjAnLCAnLXRuJywgJzgnLCAnLW1hJywgJzIwMCcsICctbWV0YWxfYmluZGluZycsICctaW1hZScsICc8aW5maWxlLm1hZT4nLCAnLW9tYWUnLCAnPG91dGZpbGUubWFlPic=

> <r_lp_tautomer_probability>
0.999994

> <r_epik_Ionization_Penalty>
7.1175

> <r_epik_Ionization_Penalty_Charging>
7.11749

> <r_epik_Ionization_Penalty_Neutral>
3.13064e-06

> <r_epik_State_Penalty>
6.65299

> <r_epik_Charging_Adjusted_Penalty>
13.7705

> <i_epik_Tot_Q>
0

> <i_epik_Tot_abs_Q>
2

> <r_epik_Metal_State_Penalty>
2.60496

> <b_epik_Metal_Only>
1

> <s_lp_Force_Field>
OPLS_2005

> <r_lp_Energy>
22.4709

> <b_lp_Chiralities_Consistent>
1

> <s_lp_Variant>
AV-unprocessed.smi:1754-6

> <Gold.Version>
5.8.1

> <Gold.Id.Protein>
6NUR|6NUR_protein|mol2

> <Gold.PLP.Fitness>
42.7842

> <Gold.PLP.PLP>
-35.9965

> <Gold.PLP.part.hbond>
-2.0000

> <Gold.PLP.part.metal>
0.0000

> <Gold.PLP.part.buried>
-6.2178

> <Gold.PLP.part.nonpolar>
-27.3872

> <Gold.PLP.part.repulsive>
0.2838

> <Gold.PLP.ligand.clash>
0.0000

> <Gold.PLP.ligand.torsion>
1.2538

> <Gold.PLP.Chemscore.Hbond>
3.0000

> <Gold.PLP.Chemscore.CHOScore>
0.0000

> <Gold.PLP.Chemscore.Metal>
0.0000

> <Gold.Chemscore.Hbonds>
donor molecule, donor type, donor heavy atom, donor atom, acceptor molecule, acceptor atom, score
      P1  H 10752 10763       L1    13  2.00

> <Gold.PLP.Chemscore.Internal.Correction>
0.2954

> <Gold.Rescore>
     Score         DG    S(hbond)    S(metal)    S(lipo)     H(rot)  DE(clash)    DE(int)     intcor
     15.36     -18.19       1.81        0.00      87.20       1.39       0.19       2.64       ----

> <Gold.Chemscore.Fitness>
15.3600

> <Gold.Chemscore.DG>
-18.1900

> <Gold.Chemscore.ZeroCoef>
-5.4800

> <Gold.Chemscore.Hbond>
1.8143

> <Gold.Chemscore.Metal>
0.0000

> <Gold.Chemscore.Lipo>
87.2012

> <Gold.Chemscore.Internal_Hbond>
0.0000

> <Gold.Chemscore.DEClash>
0.1858

> <Gold.Chemscore.DEInternal>
2.6442

> <Gold.Chemscore.Rot>
1.3876

> <Gold.Chemscore.Internal.Correction>
   9.000000E+99

> <Gold.Chemscore.Hbonds>
donor molecule, donor type, donor heavy atom, donor atom, acceptor molecule, acceptor atom, score
      P1  H  6896  6909       L1    19  0.03
      P1  H 10752 10763       L1    13  0.65

> <Gold.Chemscore.Hbond.Weighted>
-6.0599

> <Gold.Chemscore.Metal.Weighted>
-0.0000

> <Gold.Chemscore.Lipo.Weighted>
-10.2025

> <Gold.Chemscore.Internal_Hbond.Weighted>
0.0000

> <Gold.Chemscore.DEClash.Weighted>
0.1858

> <Gold.Chemscore.DEInternal.Weighted>
2.6442

> <Gold.Chemscore.Rot.Weighted>
3.5524

> <Gold.Chemscore.Internal.Correction.Weighted>
   9.000000E+99

> <Gold.Protein.RotatedTorsions>
[ 6907 6896 6895 6894 ] final    0.37 input  -60.11 | X-H torsion
[ 7974 7965 7964 7962 ] final -139.70 input  175.53 | X-H torsion
[ 8008 7997 7996 7995 ] final   54.53 input   59.86 | X-H torsion
[ 10167 10162 10161 10158 ] final   77.62 input  -65.29 | X-H torsion
[ 10718 10713 10712 10709 ] final -138.47 input   66.30 | X-H torsion
[ 10763 10752 10751 10750 ] final   71.18 input  -60.55 | X-H torsion
[ 11005 11000 10999 10996 ] final    8.47 input  -57.11 | X-H torsion

> <Gold.Protein.ActiveResidues>
 VAL166  LYS551  ARG553  GLY616  TRP617  ASP618  TYR619  PRO620  LYS621  CYS622 
 ASP623  PHE694  ASN695  SER759  ASP760  ASP761  ALA762  ILE779  LEU786  VAL792 
 PHE793  MET794  SER795  GLU796  ALA797  LYS798  CYS799  TRP800  GLU811  SER814 

> <Gold.Protein.RotatedAtoms>
  151.5753  135.1061  160.0004 H   0  0  0  0  0  0  0  0  0  0  0  0  # atno 6907 bound_to 6896
  152.4381  133.7393  159.6642 H   0  0  0  0  0  0  0  0  0  0  0  0  # atno 6908 bound_to 6896
  150.8282  133.8067  159.3133 H   0  0  0  0  0  0  0  0  0  0  0  0  # atno 6909 bound_to 6896
  144.8655  140.6287  143.5300 H   0  0  0  0  0  0  0  0  0  0  0  0  # atno 7974 bound_to 7965
  155.4862  140.3470  155.4347 H   0  0  0  0  0  0  0  0  0  0  0  0  # atno 8008 bound_to 7997
  156.1007  140.1434  156.9500 H   0  0  0  0  0  0  0  0  0  0  0  0  # atno 8009 bound_to 7997
  154.4692  140.0907  156.7077 H   0  0  0  0  0  0  0  0  0  0  0  0  # atno 8010 bound_to 7997
  139.9796  144.5836  150.7912 H   0  0  0  0  0  0  0  0  0  0  0  0  # atno 10167 bound_to 10162
  156.2997  130.7422  151.1470 H   0  0  0  0  0  0  0  0  0  0  0  0  # atno 10718 bound_to 10713
  153.0384  135.5146  154.7554 H   0  0  0  0  0  0  0  0  0  0  0  0  # atno 10763 bound_to 10752
  154.6512  135.2925  154.9987 H   0  0  0  0  0  0  0  0  0  0  0  0  # atno 10764 bound_to 10752
  154.0871  135.6655  153.4899 H   0  0  0  0  0  0  0  0  0  0  0  0  # atno 10765 bound_to 10752
  140.5366  134.0415  155.7890 H   0  0  0  0  0  0  0  0  0  0  0  0  # atno 11005 bound_to 11000
  145.4229  139.1561  143.4064 LP  0  0  0  0  0  0  0  0  0  0  0  0  # atno 17320 bound_to 7965
  146.2893  140.4341  142.8746 LP  0  0  0  0  0  0  0  0  0  0  0  0  # atno 17321 bound_to 7965
  140.7494  143.2937  151.3261 LP  0  0  0  0  0  0  0  0  0  0  0  0  # atno 17342 bound_to 10162
  139.6420  144.0522  152.2561 LP  0  0  0  0  0  0  0  0  0  0  0  0  # atno 17343 bound_to 10162
  157.7365  131.0562  150.5412 LP  0  0  0  0  0  0  0  0  0  0  0  0  # atno 17370 bound_to 10713
  156.5538  130.4238  149.6095 LP  0  0  0  0  0  0  0  0  0  0  0  0  # atno 17371 bound_to 10713
  141.1251  133.9396  157.2651 LP  0  0  0  0  0  0  0  0  0  0  0  0  # atno 17394 bound_to 11000
  139.9526  135.0172  156.9037 LP  0  0  0  0  0  0  0  0  0  0  0  0  # atno 17395 bound_to 11000

$$$$
