AV-unprocessed.smi:2068|AV-procd|sdf|8428|dock10
  -GOLD-   2272011123D 1   1.00000     0.00000
 Structure written by MMmdl.
 33 34  0  0  0  0  0  0  0  0  1 V2000
  150.0875  136.5418  156.4601 N   0  0  0  0  0  0  0  0  0  0  0  0
  151.2298  136.8515  155.8406 C   0  0  0  0  0  0  0  0  0  0  0  0
  152.3308  136.6318  156.3416 O   0  0  0  0  0  0  0  0  0  0  0  0
  151.1216  137.4987  154.4586 C   0  0  0  0  0  0  0  0  0  0  0  0
  150.3112  138.7597  154.5368 C   0  0  0  0  0  0  0  0  0  0  0  0
  149.1331  139.0253  153.8809 C   0  0  0  0  0  0  0  0  0  0  0  0
  148.5210  140.6150  154.2515 S   0  0  0  0  0  0  0  0  0  0  0  0
  149.9091  140.8627  155.2991 C   0  0  0  0  0  0  0  0  0  0  0  0
  150.1064  142.0736  156.0126 N   0  0  0  0  0  0  0  0  0  0  0  0
  150.9672  142.3182  157.0184 C   0  0  0  0  0  0  0  0  0  0  0  0
  151.7306  141.4832  157.5048 O   0  0  0  0  0  0  0  0  0  0  0  0
  150.9615  143.7487  157.5693 C   0  0  0  0  0  0  0  0  0  0  0  0
  152.0716  144.0145  158.6095 C   0  0  1  0  0  0  0  0  0  0  0  0
  151.9898  145.3821  159.2442 C   0  0  0  0  0  0  0  0  0  0  0  0
  151.9500  145.3314  160.5734 C   0  0  0  0  0  0  0  0  0  0  0  0
  151.9949  143.9232  161.0979 C   0  0  0  0  0  0  0  0  0  0  0  0
  152.0115  143.0507  159.8226 C   0  0  0  0  0  0  0  0  0  0  0  0
  150.7396  139.8154  155.3487 N   0  0  0  0  0  0  0  0  0  0  0  0
  150.1118  136.1242  157.3790 H   0  0  0  0  0  0  0  0  0  0  0  0
  149.2034  136.7374  156.0128 H   0  0  0  0  0  0  0  0  0  0  0  0
  152.1237  137.7099  154.0831 H   0  0  0  0  0  0  0  0  0  0  0  0
  150.6753  136.7905  153.7588 H   0  0  0  0  0  0  0  0  0  0  0  0
  148.5925  138.3838  153.2010 H   0  0  0  0  0  0  0  0  0  0  0  0
  149.5395  142.8525  155.7104 H   0  0  0  0  0  0  0  0  0  0  0  0
  151.0534  144.4592  156.7459 H   0  0  0  0  0  0  0  0  0  0  0  0
  149.9861  143.9295  158.0223 H   0  0  0  0  0  0  0  0  0  0  0  0
  153.0503  143.9323  158.1341 H   0  0  0  0  0  0  0  0  0  0  0  0
  151.9818  146.2909  158.6601 H   0  0  0  0  0  0  0  0  0  0  0  0
  151.9010  146.1888  161.2281 H   0  0  0  0  0  0  0  0  0  0  0  0
  152.8924  143.7774  161.6996 H   0  0  0  0  0  0  0  0  0  0  0  0
  151.1214  143.7184  161.7177 H   0  0  0  0  0  0  0  0  0  0  0  0
  151.1148  142.4305  159.7878 H   0  0  0  0  0  0  0  0  0  0  0  0
  152.8654  142.3721  159.8240 H   0  0  0  0  0  0  0  0  0  0  0  0
  1  2  1  0  0  0  0
  1 19  1  0  0  0  0
  1 20  1  0  0  0  0
  2  3  2  0  0  0  0
  2  4  1  0  0  0  0
  4  5  1  0  0  0  0
  4 21  1  0  0  0  0
  4 22  1  0  0  0  0
  5 18  1  0  0  0  0
  5  6  2  0  0  0  0
  6  7  1  0  0  0  0
  6 23  1  0  0  0  0
  7  8  1  0  0  0  0
  8  9  1  0  0  0  0
  8 18  2  0  0  0  0
  9 10  1  0  0  0  0
  9 24  1  0  0  0  0
 10 11  2  0  0  0  0
 10 12  1  0  0  0  0
 12 13  1  0  0  0  0
 12 25  1  0  0  0  0
 12 26  1  0  0  0  0
 13 17  1  0  0  0  0
 13 14  1  0  0  0  0
 13 27  1  0  0  0  0
 14 15  2  0  0  0  0
 14 28  1  0  0  0  0
 15 16  1  0  0  0  0
 15 29  1  0  0  0  0
 16 17  1  0  0  0  0
 16 30  1  0  0  0  0
 16 31  1  0  0  0  0
 17 32  1  0  0  0  0
 17 33  1  0  0  0  0
M  END
> <s_m_source_file>
AV-unprocessed.smi

> <i_m_source_file_index>
2068

> <i_lp_mmshare_version>
43012

> <i_f3d_flags>
0

> <s_epik_input>
W05IMl1DKD1PKVtDSDJdYzFbY0hdc2MobjEpW05IXUMoPU8pW0NIMl1bQ0BASF0yW0NIXT1bQ0hdW0NIMl1bQ0gyXTI=

> <s_epik_cmdline>
J2VwaWtfcHl0aG9uJywgJy1waCcsICc3LjAnLCAnLXRuJywgJzgnLCAnLW1hJywgJzIwMCcsICctbWV0YWxfYmluZGluZycsICctaW1hZScsICc8aW5maWxlLm1hZT4nLCAnLW9tYWUnLCAnPG91dGZpbGUubWFlPic=

> <r_lp_tautomer_probability>
1

> <r_epik_Ionization_Penalty>
0.000253249

> <r_epik_Ionization_Penalty_Charging>
0

> <r_epik_Ionization_Penalty_Neutral>
0.000253249

> <r_epik_State_Penalty>
-0

> <r_epik_Charging_Adjusted_Penalty>
0

> <i_epik_Tot_Q>
0

> <i_epik_Tot_abs_Q>
0

> <r_epik_Metal_State_Penalty>
0.148671

> <b_epik_Metal_Only>
0

> <s_lp_Force_Field>
OPLS_2005

> <r_lp_Energy>
16.4011

> <b_lp_Chiralities_Consistent>
1

> <s_lp_Variant>
AV-unprocessed.smi:2068-2

> <Gold.Version>
5.8.1

> <Gold.Id.Protein>
6NUR|6NUR_protein|mol2

> <Gold.PLP.Fitness>
48.3971

> <Gold.PLP.PLP>
-39.4240

> <Gold.PLP.part.hbond>
-2.2296

> <Gold.PLP.part.metal>
0.0000

> <Gold.PLP.part.buried>
-0.6165

> <Gold.PLP.part.nonpolar>
-38.0016

> <Gold.PLP.part.repulsive>
0.2177

> <Gold.PLP.ligand.clash>
0.0000

> <Gold.PLP.ligand.torsion>
0.0961

> <Gold.PLP.Chemscore.Hbond>
2.0214

> <Gold.PLP.Chemscore.CHOScore>
1.0267

> <Gold.PLP.Chemscore.Metal>
0.0000

> <Gold.Chemscore.Hbonds>
donor molecule, donor type, donor heavy atom, donor atom, acceptor molecule, acceptor atom, score
      L1  H     9    24       P1  8028  1.00
      P1  H  7989  7998       L1    18  0.02
      P1  H 10752 10764       L1     3  1.00
      L1  C     6    23       P1  7948  0.98
      L1  C     6    23       P1  7957  0.04

> <Gold.PLP.Chemscore.Internal.Correction>
0.0208

> <Gold.Rescore>
     Score         DG    S(hbond)    S(metal)    S(lipo)     H(rot)  DE(clash)    DE(int)     intcor
     14.82     -18.01       1.98        0.00      98.91       2.21       0.40       2.79       ----

> <Gold.Chemscore.Fitness>
14.8225

> <Gold.Chemscore.DG>
-18.0091

> <Gold.Chemscore.ZeroCoef>
-5.4800

> <Gold.Chemscore.Hbond>
1.9767

> <Gold.Chemscore.Metal>
0.0000

> <Gold.Chemscore.Lipo>
98.9101

> <Gold.Chemscore.Internal_Hbond>
0.0000

> <Gold.Chemscore.DEClash>
0.3968

> <Gold.Chemscore.DEInternal>
2.7898

> <Gold.Chemscore.Rot>
2.2053

> <Gold.Chemscore.Internal.Correction>
   9.000000E+99

> <Gold.Chemscore.Hbonds>
donor molecule, donor type, donor heavy atom, donor atom, acceptor molecule, acceptor atom, score
      L1  H     9    24       P1  8028  0.97
      P1  H 10752 10764       L1     3  0.25

> <Gold.Chemscore.Hbond.Weighted>
-6.6023

> <Gold.Chemscore.Metal.Weighted>
-0.0000

> <Gold.Chemscore.Lipo.Weighted>
-11.5725

> <Gold.Chemscore.Internal_Hbond.Weighted>
0.0000

> <Gold.Chemscore.DEClash.Weighted>
0.3968

> <Gold.Chemscore.DEInternal.Weighted>
2.7898

> <Gold.Chemscore.Rot.Weighted>
5.6456

> <Gold.Chemscore.Internal.Correction.Weighted>
   9.000000E+99

> <Gold.Protein.RotatedTorsions>
[ 6907 6896 6895 6894 ] final  -84.75 input  -60.11 | X-H torsion
[ 7974 7965 7964 7962 ] final  -42.29 input  175.53 | X-H torsion
[ 8008 7997 7996 7995 ] final   31.75 input   59.86 | X-H torsion
[ 10167 10162 10161 10158 ] final -170.93 input  -65.29 | X-H torsion
[ 10718 10713 10712 10709 ] final  152.44 input   66.30 | X-H torsion
[ 10763 10752 10751 10750 ] final  -35.27 input  -60.55 | X-H torsion
[ 11005 11000 10999 10996 ] final  105.85 input  -57.11 | X-H torsion

> <Gold.Protein.ActiveResidues>
 VAL166  LYS551  ARG553  GLY616  TRP617  ASP618  TYR619  PRO620  LYS621  CYS622 
 ASP623  PHE694  ASN695  SER759  ASP760  ASP761  ALA762  ILE779  LEU786  VAL792 
 PHE793  MET794  SER795  GLU796  ALA797  LYS798  CYS799  TRP800  GLU811  SER814 

> <Gold.Protein.RotatedAtoms>
  150.6874  134.3311  159.4827 H   0  0  0  0  0  0  0  0  0  0  0  0  # atno 6907 bound_to 6896
  152.1175  134.9227  160.0573 H   0  0  0  0  0  0  0  0  0  0  0  0  # atno 6908 bound_to 6896
  152.0446  133.3957  159.4388 H   0  0  0  0  0  0  0  0  0  0  0  0  # atno 6909 bound_to 6896
  146.0129  140.6942  142.9215 H   0  0  0  0  0  0  0  0  0  0  0  0  # atno 7974 bound_to 7965
  155.1115  140.3239  155.4520 H   0  0  0  0  0  0  0  0  0  0  0  0  # atno 8008 bound_to 7997
  156.2689  140.2043  156.6187 H   0  0  0  0  0  0  0  0  0  0  0  0  # atno 8009 bound_to 7997
  154.6752  140.0532  157.0195 H   0  0  0  0  0  0  0  0  0  0  0  0  # atno 8010 bound_to 7997
  139.5832  144.1376  152.1542 H   0  0  0  0  0  0  0  0  0  0  0  0  # atno 10167 bound_to 10162
  157.2578  131.0792  151.1686 H   0  0  0  0  0  0  0  0  0  0  0  0  # atno 10718 bound_to 10713
  153.8604  135.6840  153.4783 H   0  0  0  0  0  0  0  0  0  0  0  0  # atno 10763 bound_to 10752
  153.1345  135.4683  154.9399 H   0  0  0  0  0  0  0  0  0  0  0  0  # atno 10764 bound_to 10752
  154.7761  135.3254  154.8038 H   0  0  0  0  0  0  0  0  0  0  0  0  # atno 10765 bound_to 10752
  139.8807  134.9350  156.5577 H   0  0  0  0  0  0  0  0  0  0  0  0  # atno 11005 bound_to 11000
  144.6960  140.3431  143.7195 LP  0  0  0  0  0  0  0  0  0  0  0  0  # atno 17320 bound_to 7965
  145.7313  139.1737  143.2428 LP  0  0  0  0  0  0  0  0  0  0  0  0  # atno 17321 bound_to 7965
  140.0934  144.5601  150.7039 LP  0  0  0  0  0  0  0  0  0  0  0  0  # atno 17342 bound_to 10162
  140.7108  143.2503  151.4588 LP  0  0  0  0  0  0  0  0  0  0  0  0  # atno 17343 bound_to 10162
  157.3209  130.6936  149.6268 LP  0  0  0  0  0  0  0  0  0  0  0  0  # atno 17370 bound_to 10713
  155.9664  130.4336  150.5012 LP  0  0  0  0  0  0  0  0  0  0  0  0  # atno 17371 bound_to 10713
  140.8192  133.8367  155.8880 LP  0  0  0  0  0  0  0  0  0  0  0  0  # atno 17394 bound_to 11000
  140.9434  134.1872  157.4781 LP  0  0  0  0  0  0  0  0  0  0  0  0  # atno 17395 bound_to 11000

$$$$
