AV-unprocessed.smi:199|AV-procd|sdf|1567|dock9
  -GOLD-   2262019443D 1   1.00000     0.00000
 Structure written by MMmdl.
 51 55  0  0  0  0  0  0  0  0  1 V2000
  148.2871  124.9359  153.4315 C   0  0  0  0  0  0  0  0  0  0  0  0
  149.0344  125.8773  152.4743 C   0  0  1  0  0  0  0  0  0  0  0  0
  149.0178  125.2742  151.1826 O   0  0  0  0  0  0  0  0  0  0  0  0
  148.9908  126.2918  150.1974 C   0  0  0  0  0  0  0  0  0  0  0  0
  148.0483  127.3159  150.8100 C   0  0  0  0  0  0  0  0  0  0  0  0
  148.4378  127.3012  152.2854 C   0  0  2  0  0  0  0  0  0  0  0  0
  149.4919  128.2329  152.4658 O   0  0  0  0  0  0  0  0  0  0  0  0
  147.2805  127.6994  153.2396 C   0  0  0  0  0  0  0  0  0  0  0  0
  146.6626  128.9726  152.8993 N   0  0  0  0  0  0  0  0  0  0  0  0
  145.7344  129.1974  151.9095 C   0  0  0  0  0  0  0  0  0  0  0  0
  145.3278  130.4317  151.8008 N   0  0  0  0  0  0  0  0  0  0  0  0
  146.0257  131.1176  152.7889 C   0  0  0  0  0  0  0  0  0  0  0  0
  146.0661  132.4737  153.2331 C   0  0  0  0  0  0  0  0  0  0  0  0
  145.3286  133.4921  152.7083 N   0  0  0  0  0  0  0  0  0  0  0  0
  145.9253  134.5153  151.8619 C   0  0  2  0  0  0  0  0  0  0  0  0
  144.7679  135.5130  151.6859 C   0  0  0  0  0  0  0  0  0  0  0  0
  143.5572  134.5694  151.6611 C   0  0  0  0  0  0  0  0  0  0  0  0
  144.2426  133.1957  151.7822 C   0  0  1  0  0  0  0  0  0  0  0  0
  144.9882  132.8126  150.4771 C   0  0  1  0  0  0  0  0  0  0  0  0
  144.1566  132.8381  149.1814 C   0  0  0  0  0  0  0  0  0  0  0  0
  142.9590  132.1132  149.3636 O   0  0  0  0  0  0  0  0  0  0  0  0
  146.1718  133.7986  150.5185 C   0  0  0  0  0  0  0  0  0  0  0  0
  146.9250  132.7678  154.2450 N   0  0  0  0  0  0  0  0  0  0  0  0
  147.6753  131.8141  154.8018 C   0  0  0  0  0  0  0  0  0  0  0  0
  147.7298  130.5166  154.5017 N   0  0  0  0  0  0  0  0  0  0  0  0
  146.8809  130.2100  153.4799 C   0  0  0  0  0  0  0  0  0  0  0  0
  148.2682  125.3311  154.4471 H   0  0  0  0  0  0  0  0  0  0  0  0
  148.7766  123.9625  153.4709 H   0  0  0  0  0  0  0  0  0  0  0  0
  147.2590  124.7705  153.1085 H   0  0  0  0  0  0  0  0  0  0  0  0
  150.0753  125.9397  152.7972 H   0  0  0  0  0  0  0  0  0  0  0  0
  149.9917  126.7049  150.0632 H   0  0  0  0  0  0  0  0  0  0  0  0
  148.6384  125.9140  149.2375 H   0  0  0  0  0  0  0  0  0  0  0  0
  148.1164  128.2997  150.3436 H   0  0  0  0  0  0  0  0  0  0  0  0
  147.0245  126.9602  150.6888 H   0  0  0  0  0  0  0  0  0  0  0  0
  150.2868  127.8559  152.1211 H   0  0  0  0  0  0  0  0  0  0  0  0
  146.4988  126.9395  153.2317 H   0  0  0  0  0  0  0  0  0  0  0  0
  147.6389  127.7619  154.2682 H   0  0  0  0  0  0  0  0  0  0  0  0
  145.3618  128.4110  151.2694 H   0  0  0  0  0  0  0  0  0  0  0  0
  146.8104  135.0056  152.2622 H   0  0  0  0  0  0  0  0  0  0  0  0
  144.7055  136.1931  152.5362 H   0  0  0  0  0  0  0  0  0  0  0  0
  144.8605  136.1109  150.7785 H   0  0  0  0  0  0  0  0  0  0  0  0
  142.9212  134.7529  152.5281 H   0  0  0  0  0  0  0  0  0  0  0  0
  142.9373  134.6817  150.7728 H   0  0  0  0  0  0  0  0  0  0  0  0
  143.5516  132.4233  152.1220 H   0  0  0  0  0  0  0  0  0  0  0  0
  145.3755  131.7996  150.6029 H   0  0  0  0  0  0  0  0  0  0  0  0
  143.9041  133.8644  148.9130 H   0  0  0  0  0  0  0  0  0  0  0  0
  144.7000  132.4026  148.3435 H   0  0  0  0  0  0  0  0  0  0  0  0
  142.2411  132.7263  149.4063 H   0  0  0  0  0  0  0  0  0  0  0  0
  146.1899  134.4921  149.6770 H   0  0  0  0  0  0  0  0  0  0  0  0
  147.1194  133.2588  150.5271 H   0  0  0  0  0  0  0  0  0  0  0  0
  148.3246  132.1376  155.6017 H   0  0  0  0  0  0  0  0  0  0  0  0
  1  2  1  0  0  0  0
  1 27  1  0  0  0  0
  1 28  1  0  0  0  0
  1 29  1  0  0  0  0
  2  6  1  0  0  0  0
  2  3  1  0  0  0  0
  2 30  1  0  0  0  0
  3  4  1  0  0  0  0
  4  5  1  0  0  0  0
  4 31  1  0  0  0  0
  4 32  1  0  0  0  0
  5  6  1  0  0  0  0
  5 33  1  0  0  0  0
  5 34  1  0  0  0  0
  6  7  1  0  0  0  0
  6  8  1  0  0  0  0
  7 35  1  0  0  0  0
  8  9  1  0  0  0  0
  8 36  1  0  0  0  0
  8 37  1  0  0  0  0
  9 26  1  0  0  0  0
  9 10  1  0  0  0  0
 10 11  2  0  0  0  0
 10 38  1  0  0  0  0
 11 12  1  0  0  0  0
 12 26  2  0  0  0  0
 12 13  1  0  0  0  0
 13 14  1  0  0  0  0
 13 23  2  0  0  0  0
 14 18  1  0  0  0  0
 14 15  1  0  0  0  0
 15 22  1  0  0  0  0
 15 16  1  0  0  0  0
 15 39  1  0  0  0  0
 16 17  1  0  0  0  0
 16 40  1  0  0  0  0
 16 41  1  0  0  0  0
 17 18  1  0  0  0  0
 17 42  1  0  0  0  0
 17 43  1  0  0  0  0
 18 19  1  0  0  0  0
 18 44  1  0  0  0  0
 19 20  1  0  0  0  0
 19 22  1  0  0  0  0
 19 45  1  0  0  0  0
 20 21  1  0  0  0  0
 20 46  1  0  0  0  0
 20 47  1  0  0  0  0
 21 48  1  0  0  0  0
 22 49  1  0  0  0  0
 22 50  1  0  0  0  0
 23 24  1  0  0  0  0
 24 25  2  0  0  0  0
 24 51  1  0  0  0  0
 25 26  1  0  0  0  0
M  END
> <s_m_source_file>
AV-unprocessed.smi

> <i_m_source_file_index>
199

> <i_lp_mmshare_version>
43012

> <i_f3d_flags>
0

> <s_epik_input>
W0NIMl0xW0NIMl1PW0NAQEhdKFtDSDNdKVtDQEBdMShbT0hdKVtDSDJdbihbY0hdbjIpYyhjMjMpbltjSF1uYzNOKFtDQEBIXTQ1KVtDQEhdKFtDSDJdW0NIMl00KVtDQEhdKFtDSDJdNSlbQ0gyXVtPSF0=

> <s_epik_cmdline>
J2VwaWtfcHl0aG9uJywgJy1waCcsICc3LjAnLCAnLXRuJywgJzgnLCAnLW1hJywgJzIwMCcsICctbWV0YWxfYmluZGluZycsICctaW1hZScsICc8aW5maWxlLm1hZT4nLCAnLW9tYWUnLCAnPG91dGZpbGUubWFlPic=

> <r_lp_tautomer_probability>
1

> <r_epik_Ionization_Penalty>
0.00583903

> <r_epik_Ionization_Penalty_Charging>
0

> <r_epik_Ionization_Penalty_Neutral>
0.00583903

> <r_epik_State_Penalty>
-0

> <r_epik_Charging_Adjusted_Penalty>
0

> <i_epik_Tot_Q>
0

> <i_epik_Tot_abs_Q>
0

> <r_epik_Metal_State_Penalty>
-0

> <b_epik_Metal_Only>
0

> <s_lp_Force_Field>
OPLS_2005

> <r_lp_Energy>
84.1045

> <b_lp_Chiralities_Consistent>
1

> <s_lp_Variant>
AV-unprocessed.smi:199-8

> <Gold.Version>
5.8.1

> <Gold.Id.Protein>
6NUR|6NUR_protein|mol2

> <Gold.PLP.Fitness>
51.9335

> <Gold.PLP.PLP>
-45.0357

> <Gold.PLP.part.hbond>
-3.8545

> <Gold.PLP.part.metal>
0.0000

> <Gold.PLP.part.buried>
-6.3895

> <Gold.PLP.part.nonpolar>
-34.0454

> <Gold.PLP.part.repulsive>
0.4307

> <Gold.PLP.ligand.clash>
0.1736

> <Gold.PLP.ligand.torsion>
0.6301

> <Gold.PLP.Chemscore.Hbond>
2.7713

> <Gold.PLP.Chemscore.CHOScore>
0.0000

> <Gold.PLP.Chemscore.Metal>
0.0000

> <Gold.Chemscore.Hbonds>
donor molecule, donor type, donor heavy atom, donor atom, acceptor molecule, acceptor atom, score
      L1  H     7    35       P1 10737  1.00
      L1  H    21    48       P1 10186  0.84
      P1  H 10785 10796       L1    21  0.88

> <Gold.PLP.Chemscore.Internal.Correction>
0.0178

> <Gold.Rescore>
     Score         DG    S(hbond)    S(metal)    S(lipo)     H(rot)  DE(clash)    DE(int)     intcor
      9.96     -15.36       2.33        0.00      85.18       3.07       1.41       3.99       ----

> <Gold.Chemscore.Fitness>
9.9614

> <Gold.Chemscore.DG>
-15.3561

> <Gold.Chemscore.ZeroCoef>
-5.4800

> <Gold.Chemscore.Hbond>
2.3282

> <Gold.Chemscore.Metal>
0.0000

> <Gold.Chemscore.Lipo>
85.1844

> <Gold.Chemscore.Internal_Hbond>
0.0000

> <Gold.Chemscore.DEClash>
1.4073

> <Gold.Chemscore.DEInternal>
3.9874

> <Gold.Chemscore.Rot>
3.0729

> <Gold.Chemscore.Internal.Correction>
   9.000000E+99

> <Gold.Chemscore.Hbonds>
donor molecule, donor type, donor heavy atom, donor atom, acceptor molecule, acceptor atom, score
      L1  H     7    35       P1 10737  0.99
      L1  H    21    48       P1 10186  0.82
      P1  H 10785 10796       L1    21  0.67

> <Gold.Chemscore.Hbond.Weighted>
-7.7762

> <Gold.Chemscore.Metal.Weighted>
-0.0000

> <Gold.Chemscore.Lipo.Weighted>
-9.9666

> <Gold.Chemscore.Internal_Hbond.Weighted>
0.0000

> <Gold.Chemscore.DEClash.Weighted>
1.4073

> <Gold.Chemscore.DEInternal.Weighted>
3.9874

> <Gold.Chemscore.Rot.Weighted>
7.8667

> <Gold.Chemscore.Internal.Correction.Weighted>
   9.000000E+99

> <Gold.Protein.RotatedTorsions>
[ 6907 6896 6895 6894 ] final   97.43 input  -60.11 | X-H torsion
[ 7974 7965 7964 7962 ] final -166.26 input  175.53 | X-H torsion
[ 8008 7997 7996 7995 ] final    8.26 input   59.86 | X-H torsion
[ 10167 10162 10161 10158 ] final -160.11 input  -65.29 | X-H torsion
[ 10718 10713 10712 10709 ] final -164.03 input   66.30 | X-H torsion
[ 10763 10752 10751 10750 ] final  -91.96 input  -60.55 | X-H torsion
[ 11005 11000 10999 10996 ] final -136.24 input  -57.11 | X-H torsion

> <Gold.Protein.ActiveResidues>
 VAL166  LYS551  ARG553  GLY616  TRP617  ASP618  TYR619  PRO620  LYS621  CYS622 
 ASP623  PHE694  ASN695  SER759  ASP760  ASP761  ALA762  ILE779  LEU786  VAL792 
 PHE793  MET794  SER795  GLU796  ALA797  LYS798  CYS799  TRP800  GLU811  SER814 

> <Gold.Protein.RotatedAtoms>
  152.5423  134.0734  159.8203 H   0  0  0  0  0  0  0  0  0  0  0  0  # atno 6907 bound_to 6896
  151.0846  133.5356  159.2626 H   0  0  0  0  0  0  0  0  0  0  0  0  # atno 6908 bound_to 6896
  151.2170  135.0512  159.8988 H   0  0  0  0  0  0  0  0  0  0  0  0  # atno 6909 bound_to 6896
  144.7249  140.2692  143.6253 H   0  0  0  0  0  0  0  0  0  0  0  0  # atno 7974 bound_to 7965
  154.7646  140.2791  155.6187 H   0  0  0  0  0  0  0  0  0  0  0  0  # atno 8008 bound_to 7997
  156.2922  140.2653  156.2360 H   0  0  0  0  0  0  0  0  0  0  0  0  # atno 8009 bound_to 7997
  154.9975  140.0373  157.2336 H   0  0  0  0  0  0  0  0  0  0  0  0  # atno 8010 bound_to 7997
  139.6564  143.9991  152.2196 H   0  0  0  0  0  0  0  0  0  0  0  0  # atno 10167 bound_to 10162
  156.6332  130.8938  151.2981 H   0  0  0  0  0  0  0  0  0  0  0  0  # atno 10718 bound_to 10713
  154.6813  135.5249  153.8266 H   0  0  0  0  0  0  0  0  0  0  0  0  # atno 10763 bound_to 10752
  153.0566  135.6553  154.0571 H   0  0  0  0  0  0  0  0  0  0  0  0  # atno 10764 bound_to 10752
  154.0458  135.2973  155.3328 H   0  0  0  0  0  0  0  0  0  0  0  0  # atno 10765 bound_to 10752
  140.8823  134.1916  157.4583 H   0  0  0  0  0  0  0  0  0  0  0  0  # atno 11005 bound_to 11000
  145.8060  139.1983  143.2021 LP  0  0  0  0  0  0  0  0  0  0  0  0  # atno 17320 bound_to 7965
  146.0637  140.7944  142.9722 LP  0  0  0  0  0  0  0  0  0  0  0  0  # atno 17321 bound_to 7965
  139.9719  144.6488  150.7981 LP  0  0  0  0  0  0  0  0  0  0  0  0  # atno 17342 bound_to 10162
  140.7561  143.3059  151.2964 LP  0  0  0  0  0  0  0  0  0  0  0  0  # atno 17343 bound_to 10162
  157.7194  130.9538  150.1378 LP  0  0  0  0  0  0  0  0  0  0  0  0  # atno 17370 bound_to 10713
  156.2218  130.3674  149.8547 LP  0  0  0  0  0  0  0  0  0  0  0  0  # atno 17371 bound_to 10713
  139.8721  134.9823  156.5150 LP  0  0  0  0  0  0  0  0  0  0  0  0  # atno 17394 bound_to 11000
  140.8446  133.8179  155.9108 LP  0  0  0  0  0  0  0  0  0  0  0  0  # atno 17395 bound_to 11000

$$$$
