AV-unprocessed.smi:3212|AV-procd|sdf|12278|dock7
  -GOLD-   2272018113D 1   1.00000     0.00000
 Structure written by MMmdl.
 40 40  0  0  0  0  0  0  0  0  2 V2000
  146.6067  139.1607  151.0064 C   0  0  0  0  0  0  0  0  0  0  0  0
  146.6745  138.6786  152.4633 C   0  0  2  0  0  0  0  0  0  0  0  0
  148.0881  138.4778  152.8557 N   0  3  0  0  0  0  0  0  0  0  0  0
  148.4079  138.8049  154.2632 C   0  0  0  0  0  0  0  0  0  0  0  0
  149.9241  138.9283  154.4840 C   0  0  0  0  0  0  0  0  0  0  0  0
  150.2701  140.0756  155.3042 N   0  0  0  0  0  0  0  0  0  0  0  0
  150.9444  140.0960  156.5072 C   0  0  0  0  0  0  0  0  0  0  0  0
  151.0296  141.4000  156.9030 C   0  0  0  0  0  0  0  0  0  0  0  0
  150.3714  142.1133  155.8629 C   0  0  0  0  0  0  0  0  0  0  0  0
  149.9169  141.3177  154.9078 N   0  0  0  0  0  0  0  0  0  0  0  0
  145.8423  137.3998  152.6330 C   0  0  0  0  0  0  0  0  0  0  0  0
  144.7145  137.4579  153.1237 O   0  0  0  0  0  0  0  0  0  0  0  0
  146.4269  136.2576  152.2293 N   0  0  0  0  0  0  0  0  0  0  0  0
  145.8871  134.8932  152.2655 C   0  0  0  0  0  0  0  0  0  0  0  0
  144.6578  134.8753  151.3400 C   0  0  0  0  0  0  0  0  0  0  0  0
  145.4435  134.5190  153.6954 C   0  0  0  0  0  0  0  0  0  0  0  0
  146.9267  133.8825  151.7376 C   0  0  0  0  0  0  0  0  0  0  0  0
  145.5776  139.3452  150.6949 H   0  0  0  0  0  0  0  0  0  0  0  0
  147.0349  138.4277  150.3213 H   0  0  0  0  0  0  0  0  0  0  0  0
  147.1567  140.0935  150.8783 H   0  0  0  0  0  0  0  0  0  0  0  0
  146.2543  139.4615  153.0973 H   0  0  0  0  0  0  0  0  0  0  0  0
  148.3401  137.5166  152.6734 H   0  0  0  0  0  0  0  0  0  0  0  0
  147.9144  139.7346  154.5496 H   0  0  0  0  0  0  0  0  0  0  0  0
  148.0124  138.0223  154.9113 H   0  0  0  0  0  0  0  0  0  0  0  0
  150.2962  138.0322  154.9825 H   0  0  0  0  0  0  0  0  0  0  0  0
  150.4524  138.9959  153.5318 H   0  0  0  0  0  0  0  0  0  0  0  0
  151.3030  139.1918  156.9770 H   0  0  0  0  0  0  0  0  0  0  0  0
  151.4926  141.7861  157.7991 H   0  0  0  0  0  0  0  0  0  0  0  0
  150.2102  143.1777  155.7748 H   0  0  0  0  0  0  0  0  0  0  0  0
  147.3606  136.3389  151.8532 H   0  0  0  0  0  0  0  0  0  0  0  0
  144.1950  133.8881  151.3126 H   0  0  0  0  0  0  0  0  0  0  0  0
  144.9259  135.1389  150.3160 H   0  0  0  0  0  0  0  0  0  0  0  0
  143.8976  135.5830  151.6733 H   0  0  0  0  0  0  0  0  0  0  0  0
  144.7400  135.2490  154.0977 H   0  0  0  0  0  0  0  0  0  0  0  0
  146.2855  134.4577  154.3845 H   0  0  0  0  0  0  0  0  0  0  0  0
  144.9496  133.5468  153.7101 H   0  0  0  0  0  0  0  0  0  0  0  0
  146.5008  132.8807  151.6724 H   0  0  0  0  0  0  0  0  0  0  0  0
  147.8004  133.8149  152.3860 H   0  0  0  0  0  0  0  0  0  0  0  0
  147.2758  134.1550  150.7408 H   0  0  0  0  0  0  0  0  0  0  0  0
  148.6592  139.0735  152.2730 H   0  0  0  0  0  0  0  0  0  0  0  0
  1  2  1  0  0  0  0
  1 18  1  0  0  0  0
  1 19  1  0  0  0  0
  1 20  1  0  0  0  0
  2  3  1  0  0  0  0
  2 11  1  0  0  0  0
  2 21  1  0  0  0  0
  3  4  1  0  0  0  0
  3 22  1  0  0  0  0
  3 40  1  0  0  0  0
  4  5  1  0  0  0  0
  4 23  1  0  0  0  0
  4 24  1  0  0  0  0
  5  6  1  0  0  0  0
  5 25  1  0  0  0  0
  5 26  1  0  0  0  0
  6 10  1  0  0  0  0
  6  7  1  0  0  0  0
  7  8  2  0  0  0  0
  7 27  1  0  0  0  0
  8  9  1  0  0  0  0
  8 28  1  0  0  0  0
  9 10  2  0  0  0  0
  9 29  1  0  0  0  0
 11 12  2  0  0  0  0
 11 13  1  0  0  0  0
 13 14  1  0  0  0  0
 13 30  1  0  0  0  0
 14 15  1  0  0  0  0
 14 16  1  0  0  0  0
 14 17  1  0  0  0  0
 15 31  1  0  0  0  0
 15 32  1  0  0  0  0
 15 33  1  0  0  0  0
 16 34  1  0  0  0  0
 16 35  1  0  0  0  0
 16 36  1  0  0  0  0
 17 37  1  0  0  0  0
 17 38  1  0  0  0  0
 17 39  1  0  0  0  0
M  CHG  1   3   1
M  END
> <s_m_source_file>
AV-unprocessed.smi

> <i_m_source_file_index>
3212

> <i_lp_mmshare_version>
43012

> <i_f3d_flags>
0

> <s_epik_input>
W0NIM11DKFtDSDNdKShbQ0gzXSlbTkhdQyg9TylbQ0BIXShbQ0gzXSlbTkhdW0NIMl1bQ0gyXW4xW2NIXVtjSF1bY0hdbjE=

> <s_epik_cmdline>
J2VwaWtfcHl0aG9uJywgJy1waCcsICc3LjAnLCAnLXRuJywgJzgnLCAnLW1hJywgJzIwMCcsICctbWV0YWxfYmluZGluZycsICctaW1hZScsICc8aW5maWxlLm1hZT4nLCAnLW9tYWUnLCAnPG91dGZpbGUubWFlPic=

> <r_lp_tautomer_probability>
1

> <r_epik_Ionization_Penalty>
0.198377

> <r_epik_Ionization_Penalty_Charging>
0.198374

> <r_epik_Ionization_Penalty_Neutral>
3.0924e-06

> <r_epik_State_Penalty>
0.188176

> <r_epik_Charging_Adjusted_Penalty>
0.38655

> <i_epik_Tot_Q>
1

> <i_epik_Tot_abs_Q>
1

> <r_epik_Metal_State_Penalty>
0.188456

> <b_epik_Metal_Only>
0

> <s_lp_Force_Field>
OPLS_2005

> <r_lp_Energy>
6.00749

> <b_lp_Chiralities_Consistent>
1

> <s_lp_Variant>
AV-unprocessed.smi:3212-1

> <Gold.Version>
5.8.1

> <Gold.Id.Protein>
6NUR|6NUR_protein|mol2

> <Gold.PLP.Fitness>
43.0552

> <Gold.PLP.PLP>
-30.2474

> <Gold.PLP.part.hbond>
-3.9325

> <Gold.PLP.part.metal>
0.0000

> <Gold.PLP.part.buried>
-0.8790

> <Gold.PLP.part.nonpolar>
-25.4120

> <Gold.PLP.part.repulsive>
0.3989

> <Gold.PLP.ligand.clash>
0.0000

> <Gold.PLP.ligand.torsion>
1.3359

> <Gold.PLP.Chemscore.Hbond>
4.1476

> <Gold.PLP.Chemscore.CHOScore>
1.0000

> <Gold.PLP.Chemscore.Metal>
0.0000

> <Gold.Chemscore.Hbonds>
donor molecule, donor type, donor heavy atom, donor atom, acceptor molecule, acceptor atom, score
      L1  H     3    22       P1  7948  2.00
      L1  H     3    40       P1  7957  1.00
      L1  H    13    30       P1  7948  1.00
      L1  C     9    29       P1  8028  1.00

> <Gold.PLP.Chemscore.Internal.Correction>
0.0368

> <Gold.Rescore>
     Score         DG    S(hbond)    S(metal)    S(lipo)     H(rot)  DE(clash)    DE(int)     intcor
     15.99     -17.97       2.95        0.00      67.79       2.07       0.62       1.36       ----

> <Gold.Chemscore.Fitness>
15.9873

> <Gold.Chemscore.DG>
-17.9665

> <Gold.Chemscore.ZeroCoef>
-5.4800

> <Gold.Chemscore.Hbond>
2.9471

> <Gold.Chemscore.Metal>
0.0000

> <Gold.Chemscore.Lipo>
67.7934

> <Gold.Chemscore.Internal_Hbond>
0.0000

> <Gold.Chemscore.DEClash>
0.6191

> <Gold.Chemscore.DEInternal>
1.3600

> <Gold.Chemscore.Rot>
2.0659

> <Gold.Chemscore.Internal.Correction>
   9.000000E+99

> <Gold.Chemscore.Hbonds>
donor molecule, donor type, donor heavy atom, donor atom, acceptor molecule, acceptor atom, score
      L1  H     3    22       P1  7948  0.98
      L1  H     3    40       P1  7957  1.00
      L1  H    13    30       P1  7948  0.96

> <Gold.Chemscore.Hbond.Weighted>
-9.8432

> <Gold.Chemscore.Metal.Weighted>
-0.0000

> <Gold.Chemscore.Lipo.Weighted>
-7.9318

> <Gold.Chemscore.Internal_Hbond.Weighted>
0.0000

> <Gold.Chemscore.DEClash.Weighted>
0.6191

> <Gold.Chemscore.DEInternal.Weighted>
1.3600

> <Gold.Chemscore.Rot.Weighted>
5.2886

> <Gold.Chemscore.Internal.Correction.Weighted>
   9.000000E+99

> <Gold.Protein.RotatedTorsions>
[ 6907 6896 6895 6894 ] final  -85.18 input  -60.11 | X-H torsion
[ 7974 7965 7964 7962 ] final    9.05 input  175.53 | X-H torsion
[ 8008 7997 7996 7995 ] final  162.67 input   59.86 | X-H torsion
[ 10167 10162 10161 10158 ] final   63.22 input  -65.29 | X-H torsion
[ 10718 10713 10712 10709 ] final  -59.58 input   66.30 | X-H torsion
[ 10763 10752 10751 10750 ] final    1.94 input  -60.55 | X-H torsion
[ 11005 11000 10999 10996 ] final  -86.86 input  -57.11 | X-H torsion

> <Gold.Protein.ActiveResidues>
 VAL166  LYS551  ARG553  GLY616  TRP617  ASP618  TYR619  PRO620  LYS621  CYS622 
 ASP623  PHE694  ASN695  SER759  ASP760  ASP761  ALA762  ILE779  LEU786  VAL792 
 PHE793  MET794  SER795  GLU796  ALA797  LYS798  CYS799  TRP800  GLU811  SER814 

> <Gold.Protein.RotatedAtoms>
  150.6872  134.3244  159.4800 H   0  0  0  0  0  0  0  0  0  0  0  0  # atno 6907 bound_to 6896
  152.1116  134.9268  160.0575 H   0  0  0  0  0  0  0  0  0  0  0  0  # atno 6908 bound_to 6896
  152.0508  133.3983  159.4413 H   0  0  0  0  0  0  0  0  0  0  0  0  # atno 6909 bound_to 6896
  146.2408  139.9841  142.8433 H   0  0  0  0  0  0  0  0  0  0  0  0  # atno 7974 bound_to 7965
  156.2014  140.1744  156.7892 H   0  0  0  0  0  0  0  0  0  0  0  0  # atno 8008 bound_to 7997
  154.5596  140.0702  156.8829 H   0  0  0  0  0  0  0  0  0  0  0  0  # atno 8009 bound_to 7997
  155.2873  140.3353  155.4257 H   0  0  0  0  0  0  0  0  0  0  0  0  # atno 8010 bound_to 7997
  140.1354  144.4603  150.6841 H   0  0  0  0  0  0  0  0  0  0  0  0  # atno 10167 bound_to 10162
  156.1051  130.4181  150.0735 H   0  0  0  0  0  0  0  0  0  0  0  0  # atno 10718 bound_to 10713
  153.3018  135.6956  153.7196 H   0  0  0  0  0  0  0  0  0  0  0  0  # atno 10763 bound_to 10752
  153.6108  135.3445  155.2978 H   0  0  0  0  0  0  0  0  0  0  0  0  # atno 10764 bound_to 10752
  154.8552  135.4363  154.2131 H   0  0  0  0  0  0  0  0  0  0  0  0  # atno 10765 bound_to 10752
  141.1624  133.7478  156.9223 H   0  0  0  0  0  0  0  0  0  0  0  0  # atno 11005 bound_to 11000
  145.1564  140.9650  143.4403 LP  0  0  0  0  0  0  0  0  0  0  0  0  # atno 17320 bound_to 7965
  145.0157  139.3469  143.6097 LP  0  0  0  0  0  0  0  0  0  0  0  0  # atno 17321 bound_to 7965
  140.6792  143.2319  151.5428 LP  0  0  0  0  0  0  0  0  0  0  0  0  # atno 17342 bound_to 10162
  139.5498  144.2425  152.1510 LP  0  0  0  0  0  0  0  0  0  0  0  0  # atno 17343 bound_to 10162
  156.8712  130.9525  151.3609 LP  0  0  0  0  0  0  0  0  0  0  0  0  # atno 17370 bound_to 10713
  157.6227  130.8667  149.9136 LP  0  0  0  0  0  0  0  0  0  0  0  0  # atno 17371 bound_to 10713
  140.1443  134.9273  157.2508 LP  0  0  0  0  0  0  0  0  0  0  0  0  # atno 17394 bound_to 11000
  140.2799  134.3362  155.7346 LP  0  0  0  0  0  0  0  0  0  0  0  0  # atno 17395 bound_to 11000

$$$$
