AV-unprocessed.smi:2194|AV-procd|sdf|8902|dock7
  -GOLD-   2272012113D 1   1.00000     0.00000
 Structure written by MMmdl.
 45 47  0  0  0  0  0  0  0  0  1 V2000
  151.3372  132.0120  155.3717 C   0  0  0  0  0  0  0  0  0  0  0  0
  150.9343  133.4707  155.4387 C   0  0  0  0  0  0  0  0  0  0  0  0
  149.5794  133.8338  155.5728 C   0  0  0  0  0  0  0  0  0  0  0  0
  149.2155  135.1928  155.6338 C   0  0  0  0  0  0  0  0  0  0  0  0
  150.1927  136.2070  155.5647 C   0  0  0  0  0  0  0  0  0  0  0  0
  149.7481  137.5096  155.6335 O   0  0  0  0  0  0  0  0  0  0  0  0
  150.5771  138.5351  155.1002 C   0  0  0  0  0  0  0  0  0  0  0  0
  150.0562  139.9131  155.5402 C   0  0  2  0  0  0  0  0  0  0  0  0
  149.1057  140.3734  154.5997 O   0  0  0  0  0  0  0  0  0  0  0  0
  151.1739  140.9471  155.7877 C   0  0  0  0  0  0  0  0  0  0  0  0
  151.9369  140.6622  156.9938 N   0  0  0  0  0  0  0  0  0  0  0  0
  152.6628  139.5502  157.2285 C   0  0  0  0  0  0  0  0  0  0  0  0
  153.2757  139.5011  158.4117 N   0  0  0  0  0  0  0  0  0  0  0  0
  152.8988  140.7112  158.9832 C   0  0  0  0  0  0  0  0  0  0  0  0
  152.0985  141.4216  158.1523 C   0  0  0  0  0  0  0  0  0  0  0  0
  151.5510  142.7343  158.5065 C   0  0  0  0  0  0  0  0  0  0  0  0
  150.8189  143.3567  157.7357 O   0  0  0  0  0  0  0  0  0  0  0  0
  151.9264  143.1785  159.7464 N   0  0  0  0  0  0  0  0  0  0  0  0
  151.3984  144.5004  160.1349 C   0  0  0  0  0  0  0  0  0  0  0  0
  152.7430  142.4895  160.6293 C   0  0  0  0  0  0  0  0  0  0  0  0
  153.0356  142.9607  161.7309 O   0  0  0  0  0  0  0  0  0  0  0  0
  153.2237  141.2591  160.2490 N   0  0  0  0  0  0  0  0  0  0  0  0
  154.0862  140.4564  161.1217 C   0  0  0  0  0  0  0  0  0  0  0  0
  151.5539  135.8344  155.4288 C   0  0  0  0  0  0  0  0  0  0  0  0
  151.9188  134.4755  155.3661 C   0  0  0  0  0  0  0  0  0  0  0  0
  150.4765  131.3547  155.5002 H   0  0  0  0  0  0  0  0  0  0  0  0
  152.0598  131.7832  156.1554 H   0  0  0  0  0  0  0  0  0  0  0  0
  151.7943  131.7907  154.4069 H   0  0  0  0  0  0  0  0  0  0  0  0
  148.8141  133.0738  155.6300 H   0  0  0  0  0  0  0  0  0  0  0  0
  148.1740  135.4600  155.7374 H   0  0  0  0  0  0  0  0  0  0  0  0
  151.6145  138.4050  155.4138 H   0  0  0  0  0  0  0  0  0  0  0  0
  150.5507  138.4830  154.0104 H   0  0  0  0  0  0  0  0  0  0  0  0
  149.5071  139.7739  156.4723 H   0  0  0  0  0  0  0  0  0  0  0  0
  149.1562  141.3160  154.5571 H   0  0  0  0  0  0  0  0  0  0  0  0
  151.8652  140.9464  154.9439 H   0  0  0  0  0  0  0  0  0  0  0  0
  150.7755  141.9590  155.8425 H   0  0  0  0  0  0  0  0  0  0  0  0
  152.7413  138.7486  156.5085 H   0  0  0  0  0  0  0  0  0  0  0  0
  151.6888  144.8419  161.1285 H   0  0  0  0  0  0  0  0  0  0  0  0
  150.3072  144.4945  160.1191 H   0  0  0  0  0  0  0  0  0  0  0  0
  151.7380  145.2651  159.4343 H   0  0  0  0  0  0  0  0  0  0  0  0
  154.3286  140.9271  162.0747 H   0  0  0  0  0  0  0  0  0  0  0  0
  155.0299  140.2437  160.6181 H   0  0  0  0  0  0  0  0  0  0  0  0
  153.6045  139.5037  161.3438 H   0  0  0  0  0  0  0  0  0  0  0  0
  152.3389  136.5725  155.3692 H   0  0  0  0  0  0  0  0  0  0  0  0
  152.9595  134.2059  155.2622 H   0  0  0  0  0  0  0  0  0  0  0  0
  1  2  1  0  0  0  0
  1 26  1  0  0  0  0
  1 27  1  0  0  0  0
  1 28  1  0  0  0  0
  2 25  1  0  0  0  0
  2  3  2  0  0  0  0
  3  4  1  0  0  0  0
  3 29  1  0  0  0  0
  4  5  2  0  0  0  0
  4 30  1  0  0  0  0
  5  6  1  0  0  0  0
  5 24  1  0  0  0  0
  6  7  1  0  0  0  0
  7  8  1  0  0  0  0
  7 31  1  0  0  0  0
  7 32  1  0  0  0  0
  8  9  1  0  0  0  0
  8 10  1  0  0  0  0
  8 33  1  0  0  0  0
  9 34  1  0  0  0  0
 10 11  1  0  0  0  0
 10 35  1  0  0  0  0
 10 36  1  0  0  0  0
 11 15  1  0  0  0  0
 11 12  1  0  0  0  0
 12 13  2  0  0  0  0
 12 37  1  0  0  0  0
 13 14  1  0  0  0  0
 14 22  1  0  0  0  0
 14 15  2  0  0  0  0
 15 16  1  0  0  0  0
 16 17  2  0  0  0  0
 16 18  1  0  0  0  0
 18 19  1  0  0  0  0
 18 20  1  0  0  0  0
 19 38  1  0  0  0  0
 19 39  1  0  0  0  0
 19 40  1  0  0  0  0
 20 21  2  0  0  0  0
 20 22  1  0  0  0  0
 22 23  1  0  0  0  0
 23 41  1  0  0  0  0
 23 42  1  0  0  0  0
 23 43  1  0  0  0  0
 24 25  2  0  0  0  0
 24 44  1  0  0  0  0
 25 45  1  0  0  0  0
M  END
> <s_m_source_file>
AV-unprocessed.smi

> <i_m_source_file_index>
2194

> <i_lp_mmshare_version>
43012

> <i_f3d_flags>
0

> <s_epik_input>
W0NIM11jMVtjSF1bY0hdYyhbY0hdW2NIXTEpT1tDSDJdW0NASF0oW09IXSlbQ0gyXW4oW2NIXW4yKWMoYzIzKWMoPU8pbihbQ0gzXSljKD1PKW4zW0NIM10=

> <s_epik_cmdline>
J2VwaWtfcHl0aG9uJywgJy1waCcsICc3LjAnLCAnLXRuJywgJzgnLCAnLW1hJywgJzIwMCcsICctbWV0YWxfYmluZGluZycsICctaW1hZScsICc8aW5maWxlLm1hZT4nLCAnLW9tYWUnLCAnPG91dGZpbGUubWFlPic=

> <r_lp_tautomer_probability>
1

> <r_epik_Ionization_Penalty>
1.06124e-06

> <r_epik_Ionization_Penalty_Charging>
3.25921e-09

> <r_epik_Ionization_Penalty_Neutral>
1.05798e-06

> <r_epik_State_Penalty>
-0

> <r_epik_Charging_Adjusted_Penalty>
3.25921e-09

> <i_epik_Tot_Q>
0

> <i_epik_Tot_abs_Q>
0

> <r_epik_Metal_State_Penalty>
-0

> <b_epik_Metal_Only>
0

> <s_lp_Force_Field>
OPLS_2005

> <r_lp_Energy>
41.6396

> <b_lp_Chiralities_Consistent>
1

> <s_lp_Variant>
AV-unprocessed.smi:2194-1

> <Gold.Version>
5.8.1

> <Gold.Id.Protein>
6NUR|6NUR_protein|mol2

> <Gold.PLP.Fitness>
46.0642

> <Gold.PLP.PLP>
-43.8233

> <Gold.PLP.part.hbond>
-1.8628

> <Gold.PLP.part.metal>
0.0000

> <Gold.PLP.part.buried>
-3.7290

> <Gold.PLP.part.nonpolar>
-37.0558

> <Gold.PLP.part.repulsive>
0.2538

> <Gold.PLP.ligand.clash>
0.0000

> <Gold.PLP.ligand.torsion>
0.8578

> <Gold.PLP.Chemscore.Hbond>
1.3120

> <Gold.PLP.Chemscore.CHOScore>
0.0000

> <Gold.PLP.Chemscore.Metal>
0.0000

> <Gold.PLP.Chemscore.Internal.Correction>
0.0204

> <Gold.Rescore>
     Score         DG    S(hbond)    S(metal)    S(lipo)     H(rot)  DE(clash)    DE(int)     intcor
     10.11     -11.16       1.02        0.00      78.17       2.69       0.13       0.93       ----

> <Gold.Chemscore.Fitness>
10.1082

> <Gold.Chemscore.DG>
-11.1647

> <Gold.Chemscore.ZeroCoef>
-5.4800

> <Gold.Chemscore.Hbond>
1.0245

> <Gold.Chemscore.Metal>
0.0000

> <Gold.Chemscore.Lipo>
78.1654

> <Gold.Chemscore.Internal_Hbond>
0.0000

> <Gold.Chemscore.DEClash>
0.1291

> <Gold.Chemscore.DEInternal>
0.9274

> <Gold.Chemscore.Rot>
2.6885

> <Gold.Chemscore.Internal.Correction>
   9.000000E+99

> <Gold.Chemscore.Hbond.Weighted>
-3.4219

> <Gold.Chemscore.Metal.Weighted>
-0.0000

> <Gold.Chemscore.Lipo.Weighted>
-9.1454

> <Gold.Chemscore.Internal_Hbond.Weighted>
0.0000

> <Gold.Chemscore.DEClash.Weighted>
0.1291

> <Gold.Chemscore.DEInternal.Weighted>
0.9274

> <Gold.Chemscore.Rot.Weighted>
6.8825

> <Gold.Chemscore.Internal.Correction.Weighted>
   9.000000E+99

> <Gold.Protein.RotatedTorsions>
[ 6907 6896 6895 6894 ] final   83.02 input  -60.11 | X-H torsion
[ 7974 7965 7964 7962 ] final  119.29 input  175.53 | X-H torsion
[ 8008 7997 7996 7995 ] final   22.80 input   59.86 | X-H torsion
[ 10167 10162 10161 10158 ] final  -67.62 input  -65.29 | X-H torsion
[ 10718 10713 10712 10709 ] final -105.75 input   66.30 | X-H torsion
[ 10763 10752 10751 10750 ] final  139.80 input  -60.55 | X-H torsion
[ 11005 11000 10999 10996 ] final  -33.14 input  -57.11 | X-H torsion

> <Gold.Protein.ActiveResidues>
 VAL166  LYS551  ARG553  GLY616  TRP617  ASP618  TYR619  PRO620  LYS621  CYS622 
 ASP623  PHE694  ASN695  SER759  ASP760  ASP761  ALA762  ILE779  LEU786  VAL792 
 PHE793  MET794  SER795  GLU796  ALA797  LYS798  CYS799  TRP800  GLU811  SER814 

> <Gold.Protein.RotatedAtoms>
  152.5316  134.2959  159.9060 H   0  0  0  0  0  0  0  0  0  0  0  0  # atno 6907 bound_to 6896
  151.2911  133.4158  159.2641 H   0  0  0  0  0  0  0  0  0  0  0  0  # atno 6908 bound_to 6896
  151.0200  134.9478  159.8111 H   0  0  0  0  0  0  0  0  0  0  0  0  # atno 6909 bound_to 6896
  145.1450  139.3245  143.4596 H   0  0  0  0  0  0  0  0  0  0  0  0  # atno 7974 bound_to 7965
  154.9712  140.3090  155.4987 H   0  0  0  0  0  0  0  0  0  0  0  0  # atno 8008 bound_to 7997
  156.2965  140.2283  156.4744 H   0  0  0  0  0  0  0  0  0  0  0  0  # atno 8009 bound_to 7997
  154.7874  140.0442  157.1163 H   0  0  0  0  0  0  0  0  0  0  0  0  # atno 8010 bound_to 7997
  140.5569  143.2312  151.6803 H   0  0  0  0  0  0  0  0  0  0  0  0  # atno 10167 bound_to 10162
  156.0359  130.5579  150.7583 H   0  0  0  0  0  0  0  0  0  0  0  0  # atno 10718 bound_to 10713
  153.9121  135.3010  155.3448 H   0  0  0  0  0  0  0  0  0  0  0  0  # atno 10763 bound_to 10752
  154.7618  135.4930  153.9482 H   0  0  0  0  0  0  0  0  0  0  0  0  # atno 10764 bound_to 10752
  153.1187  135.6777  153.9474 H   0  0  0  0  0  0  0  0  0  0  0  0  # atno 10765 bound_to 10752
  140.9610  133.7164  156.1370 H   0  0  0  0  0  0  0  0  0  0  0  0  # atno 11005 bound_to 11000
  146.3501  140.1501  142.8592 LP  0  0  0  0  0  0  0  0  0  0  0  0  # atno 17320 bound_to 7965
  145.0492  140.9004  143.5006 LP  0  0  0  0  0  0  0  0  0  0  0  0  # atno 17321 bound_to 7965
  139.5052  144.3726  152.0455 LP  0  0  0  0  0  0  0  0  0  0  0  0  # atno 17342 bound_to 10162
  140.2849  144.3819  150.6107 LP  0  0  0  0  0  0  0  0  0  0  0  0  # atno 17343 bound_to 10162
  157.5109  131.0925  151.0199 LP  0  0  0  0  0  0  0  0  0  0  0  0  # atno 17370 bound_to 10713
  157.0555  130.5804  149.5377 LP  0  0  0  0  0  0  0  0  0  0  0  0  # atno 17371 bound_to 10713
  140.7467  134.4090  157.5547 LP  0  0  0  0  0  0  0  0  0  0  0  0  # atno 17394 bound_to 11000
  139.8878  134.8872  156.2508 LP  0  0  0  0  0  0  0  0  0  0  0  0  # atno 17395 bound_to 11000

$$$$
