AV-unprocessed.smi:286|AV-procd|sdf|2175|dock8
  -GOLD-   2262021533D 1   1.00000     0.00000
 Structure written by MMmdl.
 46 48  0  0  0  0  0  0  0  0  1 V2000
  149.4170  140.0727  156.7471 O   0  0  0  0  0  0  0  0  0  0  0  0
  149.1878  139.1778  157.5626 C   0  0  0  0  0  0  0  0  0  0  0  0
  147.8418  138.7622  157.9398 C   0  0  0  0  0  0  0  0  0  0  0  0
  146.7788  139.3385  157.3537 F   0  0  0  0  0  0  0  0  0  0  0  0
  147.6439  137.8031  158.8698 C   0  0  0  0  0  0  0  0  0  0  0  0
  148.6761  137.1636  159.5324 N   0  0  0  0  0  0  0  0  0  0  0  0
  148.3399  136.0826  160.5369 C   0  0  2  0  0  0  0  0  0  0  0  0
  146.8935  135.5745  160.4396 C   0  0  0  0  0  0  0  0  0  0  0  0
  146.5803  135.2988  161.8944 C   0  0  0  0  0  0  0  0  0  0  0  0
  147.3556  136.4049  162.6023 C   0  0  0  0  0  0  0  0  0  0  0  0
  148.5406  136.5775  161.8293 O   0  0  0  0  0  0  0  0  0  0  0  0
  150.0164  137.4733  159.1997 C   0  0  0  0  0  0  0  0  0  0  0  0
  150.9593  136.8994  159.7468 O   0  0  0  0  0  0  0  0  0  0  0  0
  150.2263  138.4727  158.2194 N   0  0  0  0  0  0  0  0  0  0  0  0
  151.5968  138.8361  157.8966 C   0  0  0  0  0  0  0  0  0  0  0  0
  152.3193  139.5611  159.0611 C   0  0  1  0  0  0  0  0  0  0  0  0
  153.6489  139.0756  159.0611 O   0  0  0  0  0  0  0  0  0  0  0  0
  152.3581  141.1079  158.9195 C   0  0  0  0  0  0  0  0  0  0  0  0
  153.1905  141.7738  160.0456 C   0  0  0  0  0  0  0  0  0  0  0  0
  153.2237  143.3057  159.9215 C   0  0  0  0  0  0  0  0  0  0  0  0
  151.8070  143.8925  159.9119 C   0  0  0  0  0  0  0  0  0  0  0  0
  150.9682  143.2598  158.7946 C   0  0  0  0  0  0  0  0  0  0  0  0
  150.9376  141.7277  158.9181 C   0  0  0  0  0  0  0  0  0  0  0  0
  146.6249  137.5337  159.1065 H   0  0  0  0  0  0  0  0  0  0  0  0
  149.0605  135.2811  160.3698 H   0  0  0  0  0  0  0  0  0  0  0  0
  146.2249  136.3360  160.0403 H   0  0  0  0  0  0  0  0  0  0  0  0
  146.8325  134.6898  159.8054 H   0  0  0  0  0  0  0  0  0  0  0  0
  145.5126  135.3176  162.1143 H   0  0  0  0  0  0  0  0  0  0  0  0
  146.9729  134.3231  162.1833 H   0  0  0  0  0  0  0  0  0  0  0  0
  146.7841  137.3333  162.6038 H   0  0  0  0  0  0  0  0  0  0  0  0
  147.5904  136.1543  163.6370 H   0  0  0  0  0  0  0  0  0  0  0  0
  152.1274  137.9419  157.5638 H   0  0  0  0  0  0  0  0  0  0  0  0
  151.5434  139.4374  156.9905 H   0  0  0  0  0  0  0  0  0  0  0  0
  151.8607  139.3062  160.0178 H   0  0  0  0  0  0  0  0  0  0  0  0
  153.9367  138.9892  159.9574 H   0  0  0  0  0  0  0  0  0  0  0  0
  152.8338  141.3475  157.9670 H   0  0  0  0  0  0  0  0  0  0  0  0
  152.7793  141.4976  161.0174 H   0  0  0  0  0  0  0  0  0  0  0  0
  154.2180  141.4098  160.0340 H   0  0  0  0  0  0  0  0  0  0  0  0
  153.7967  143.7333  160.7447 H   0  0  0  0  0  0  0  0  0  0  0  0
  153.7432  143.5869  159.0046 H   0  0  0  0  0  0  0  0  0  0  0  0
  151.3289  143.7142  160.8760 H   0  0  0  0  0  0  0  0  0  0  0  0
  151.8505  144.9741  159.7809 H   0  0  0  0  0  0  0  0  0  0  0  0
  149.9524  143.6548  158.8250 H   0  0  0  0  0  0  0  0  0  0  0  0
  151.3797  143.5399  157.8241 H   0  0  0  0  0  0  0  0  0  0  0  0
  150.3366  141.3385  158.0988 H   0  0  0  0  0  0  0  0  0  0  0  0
  150.4160  141.4490  159.8348 H   0  0  0  0  0  0  0  0  0  0  0  0
  1  2  2  0  0  0  0
  2 14  1  0  0  0  0
  2  3  1  0  0  0  0
  3  4  1  0  0  0  0
  3  5  2  0  0  0  0
  5  6  1  0  0  0  0
  5 24  1  0  0  0  0
  6  7  1  0  0  0  0
  6 12  1  0  0  0  0
  7 11  1  0  0  0  0
  7  8  1  0  0  0  0
  7 25  1  0  0  0  0
  8  9  1  0  0  0  0
  8 26  1  0  0  0  0
  8 27  1  0  0  0  0
  9 10  1  0  0  0  0
  9 28  1  0  0  0  0
  9 29  1  0  0  0  0
 10 11  1  0  0  0  0
 10 30  1  0  0  0  0
 10 31  1  0  0  0  0
 12 13  2  0  0  0  0
 12 14  1  0  0  0  0
 14 15  1  0  0  0  0
 15 16  1  0  0  0  0
 15 32  1  0  0  0  0
 15 33  1  0  0  0  0
 16 17  1  0  0  0  0
 16 18  1  0  0  0  0
 16 34  1  0  0  0  0
 17 35  1  0  0  0  0
 18 23  1  0  0  0  0
 18 19  1  0  0  0  0
 18 36  1  0  0  0  0
 19 20  1  0  0  0  0
 19 37  1  0  0  0  0
 19 38  1  0  0  0  0
 20 21  1  0  0  0  0
 20 39  1  0  0  0  0
 20 40  1  0  0  0  0
 21 22  1  0  0  0  0
 21 41  1  0  0  0  0
 21 42  1  0  0  0  0
 22 23  1  0  0  0  0
 22 43  1  0  0  0  0
 22 44  1  0  0  0  0
 23 45  1  0  0  0  0
 23 46  1  0  0  0  0
M  END
> <s_m_source_file>
AV-unprocessed.smi

> <i_m_source_file_index>
286

> <i_lp_mmshare_version>
43012

> <i_f3d_flags>
0

> <s_epik_input>
TzFbQ0gyXVtDSDJdW0NIMl1bQ0BIXTFuKFtjSF1jKEYpYzI9TyljKD1PKW4yW0NIMl1bQ0BIXShbT0hdKVtDSF0zW0NIMl1bQ0gyXVtDSDJdW0NIMl1bQ0gyXTM=

> <s_epik_cmdline>
J2VwaWtfcHl0aG9uJywgJy1waCcsICc3LjAnLCAnLXRuJywgJzgnLCAnLW1hJywgJzIwMCcsICctbWV0YWxfYmluZGluZycsICctaW1hZScsICc8aW5maWxlLm1hZT4nLCAnLW9tYWUnLCAnPG91dGZpbGUubWFlPic=

> <r_lp_tautomer_probability>
1

> <r_epik_Ionization_Penalty>
3.15564e-07

> <r_epik_Ionization_Penalty_Charging>
2.06416e-08

> <r_epik_Ionization_Penalty_Neutral>
2.94923e-07

> <r_epik_State_Penalty>
-0

> <r_epik_Charging_Adjusted_Penalty>
2.06416e-08

> <i_epik_Tot_Q>
0

> <i_epik_Tot_abs_Q>
0

> <r_epik_Metal_State_Penalty>
-0

> <b_epik_Metal_Only>
0

> <s_epik_Chemistry_Notes>
This compound contains an acetal/aminal-like group ( X-CH(R)-Y where X, Y are N, S, or O) that may be acid/base labile, releasing an aldehyde.

> <s_lp_Force_Field>
OPLS_2005

> <r_lp_Energy>
37.1896

> <b_lp_Chiralities_Consistent>
1

> <s_lp_Variant>
AV-unprocessed.smi:286-3

> <Gold.Version>
5.8.1

> <Gold.Id.Protein>
6NUR|6NUR_protein|mol2

> <Gold.PLP.Fitness>
45.0779

> <Gold.PLP.PLP>
-38.1623

> <Gold.PLP.part.hbond>
-3.0000

> <Gold.PLP.part.metal>
0.0000

> <Gold.PLP.part.buried>
-5.1118

> <Gold.PLP.part.nonpolar>
-30.7946

> <Gold.PLP.part.repulsive>
0.0055

> <Gold.PLP.ligand.clash>
0.0000

> <Gold.PLP.ligand.torsion>
1.0597

> <Gold.PLP.Chemscore.Hbond>
3.0000

> <Gold.PLP.Chemscore.CHOScore>
0.0000

> <Gold.PLP.Chemscore.Metal>
0.0000

> <Gold.Chemscore.Hbonds>
donor molecule, donor type, donor heavy atom, donor atom, acceptor molecule, acceptor atom, score
      P1  H  6896  6909       L1    13  1.00
      P1  H  6931  6943       L1    11  1.00
      P1  H  7997  8009       L1    17  0.13

> <Gold.PLP.Chemscore.Internal.Correction>
0.0350

> <Gold.Rescore>
     Score         DG    S(hbond)    S(metal)    S(lipo)     H(rot)  DE(clash)    DE(int)     intcor
     17.01     -19.24       2.92        0.00      84.12       2.28       0.00       2.23       ----

> <Gold.Chemscore.Fitness>
17.0072

> <Gold.Chemscore.DG>
-19.2412

> <Gold.Chemscore.ZeroCoef>
-5.4800

> <Gold.Chemscore.Hbond>
2.9175

> <Gold.Chemscore.Metal>
0.0000

> <Gold.Chemscore.Lipo>
84.1215

> <Gold.Chemscore.Internal_Hbond>
0.0000

> <Gold.Chemscore.DEClash>
0.0000

> <Gold.Chemscore.DEInternal>
2.2340

> <Gold.Chemscore.Rot>
2.2756

> <Gold.Chemscore.Internal.Correction>
   9.000000E+99

> <Gold.Chemscore.Hbonds>
donor molecule, donor type, donor heavy atom, donor atom, acceptor molecule, acceptor atom, score
      P1  H  6896  6909       L1    13  0.96
      P1  H  6931  6943       L1    11  0.63
      P1  H  7997  8009       L1    17  0.11

> <Gold.Chemscore.Hbond.Weighted>
-9.7444

> <Gold.Chemscore.Metal.Weighted>
-0.0000

> <Gold.Chemscore.Lipo.Weighted>
-9.8422

> <Gold.Chemscore.Internal_Hbond.Weighted>
0.0000

> <Gold.Chemscore.DEClash.Weighted>
0.0000

> <Gold.Chemscore.DEInternal.Weighted>
2.2340

> <Gold.Chemscore.Rot.Weighted>
5.8254

> <Gold.Chemscore.Internal.Correction.Weighted>
   9.000000E+99

> <Gold.Protein.RotatedTorsions>
[ 6907 6896 6895 6894 ] final   86.07 input  -60.11 | X-H torsion
[ 7974 7965 7964 7962 ] final   -3.23 input  175.53 | X-H torsion
[ 8008 7997 7996 7995 ] final  139.16 input   59.86 | X-H torsion
[ 10167 10162 10161 10158 ] final  -43.47 input  -65.29 | X-H torsion
[ 10718 10713 10712 10709 ] final  -27.64 input   66.30 | X-H torsion
[ 10763 10752 10751 10750 ] final   13.69 input  -60.55 | X-H torsion
[ 11005 11000 10999 10996 ] final   -5.91 input  -57.11 | X-H torsion

> <Gold.Protein.ActiveResidues>
 VAL166  LYS551  ARG553  GLY616  TRP617  ASP618  TYR619  PRO620  LYS621  CYS622 
 ASP623  PHE694  ASN695  SER759  ASP760  ASP761  ALA762  ILE779  LEU786  VAL792 
 PHE793  MET794  SER795  GLU796  ALA797  LYS798  CYS799  TRP800  GLU811  SER814 

> <Gold.Protein.RotatedAtoms>
  152.5387  134.2488  159.8890 H   0  0  0  0  0  0  0  0  0  0  0  0  # atno 6907 bound_to 6896
  151.2453  133.4371  159.2616 H   0  0  0  0  0  0  0  0  0  0  0  0  # atno 6908 bound_to 6896
  151.0589  134.9737  159.8306 H   0  0  0  0  0  0  0  0  0  0  0  0  # atno 6909 bound_to 6896
  146.2392  140.1691  142.8332 H   0  0  0  0  0  0  0  0  0  0  0  0  # atno 7974 bound_to 7965
  156.2992  140.2375  156.4192 H   0  0  0  0  0  0  0  0  0  0  0  0  # atno 8008 bound_to 7997
  154.8371  140.0430  157.1536 H   0  0  0  0  0  0  0  0  0  0  0  0  # atno 8009 bound_to 7997
  154.9144  140.2995  155.5253 H   0  0  0  0  0  0  0  0  0  0  0  0  # atno 8010 bound_to 7997
  140.6933  143.2981  151.3356 H   0  0  0  0  0  0  0  0  0  0  0  0  # atno 10167 bound_to 10162
  156.4355  130.4454  149.7088 H   0  0  0  0  0  0  0  0  0  0  0  0  # atno 10718 bound_to 10713
  153.1696  135.6810  153.8626 H   0  0  0  0  0  0  0  0  0  0  0  0  # atno 10763 bound_to 10752
  153.7994  135.3158  155.3389 H   0  0  0  0  0  0  0  0  0  0  0  0  # atno 10764 bound_to 10752
  154.7989  135.4790  154.0319 H   0  0  0  0  0  0  0  0  0  0  0  0  # atno 10765 bound_to 10752
  140.6963  133.9028  155.8652 H   0  0  0  0  0  0  0  0  0  0  0  0  # atno 11005 bound_to 11000
  145.0026  140.8645  143.5272 LP  0  0  0  0  0  0  0  0  0  0  0  0  # atno 17320 bound_to 7965
  145.1712  139.2403  143.5341 LP  0  0  0  0  0  0  0  0  0  0  0  0  # atno 17321 bound_to 7965
  139.6358  144.0632  152.2515 LP  0  0  0  0  0  0  0  0  0  0  0  0  # atno 17342 bound_to 10162
  140.0122  144.6215  150.7638 LP  0  0  0  0  0  0  0  0  0  0  0  0  # atno 17343 bound_to 10162
  156.3974  130.7657  151.2663 LP  0  0  0  0  0  0  0  0  0  0  0  0  # atno 17370 bound_to 10713
  157.7507  131.0250  150.3900 LP  0  0  0  0  0  0  0  0  0  0  0  0  # atno 17371 bound_to 10713
  141.0200  134.0902  157.4131 LP  0  0  0  0  0  0  0  0  0  0  0  0  # atno 17394 bound_to 11000
  139.8909  135.0115  156.6762 LP  0  0  0  0  0  0  0  0  0  0  0  0  # atno 17395 bound_to 11000

$$$$
