AV-unprocessed.smi:830|AV-procd|sdf|3872|dock9
  -GOLD-   22720 1323D 1   1.00000     0.00000
 Structure written by MMmdl.
 53 55  0  0  0  0  0  0  0  0  2 V2000
  148.6744  136.7131  159.5956 C   0  0  0  0  0  0  0  0  0  0  0  0
  149.7924  136.8387  158.5473 C   0  0  2  0  0  0  0  0  0  0  0  0
  150.6514  137.9824  158.8491 N   0  0  0  0  0  0  0  0  0  0  0  0
  151.9691  137.9304  159.0882 C   0  0  0  0  0  0  0  0  0  0  0  0
  152.6205  136.8862  159.0978 O   0  0  0  0  0  0  0  0  0  0  0  0
  152.4649  139.1550  159.3315 N   0  0  0  0  0  0  0  0  0  0  0  0
  153.8021  139.5161  159.6619 C   0  0  0  0  0  0  0  0  0  0  0  0
  154.8865  138.6340  159.4179 C   0  0  0  0  0  0  0  0  0  0  0  0
  156.1944  139.0108  159.7763 C   0  0  0  0  0  0  0  0  0  0  0  0
  156.4012  140.2675  160.3700 C   0  0  0  0  0  0  0  0  0  0  0  0
  155.3529  141.0924  160.5697 N   0  3  0  0  0  0  0  0  0  0  0  0
  154.0731  140.7940  160.2330 C   0  0  0  0  0  0  0  0  0  0  0  0
  153.0811  141.7678  160.4916 N   0  0  0  0  0  0  0  0  0  0  0  0
  153.2360  142.7049  161.5983 C   0  0  0  0  0  0  0  0  0  0  0  0
  152.1861  143.7850  161.3521 C   0  0  0  0  0  0  0  0  0  0  0  0
  152.1674  143.8816  159.8297 C   0  0  0  0  0  0  0  0  0  0  0  0
  152.4341  142.4436  159.3713 C   0  0  0  0  0  0  0  0  0  0  0  0
  149.2705  136.9064  157.1075 C   0  0  0  0  0  0  0  0  0  0  0  0
  148.5282  136.0269  156.6674 O   0  0  0  0  0  0  0  0  0  0  0  0
  149.6804  137.9541  156.3764 N   0  0  0  0  0  0  0  0  0  0  0  0
  149.3116  138.2036  154.9858 C   0  0  0  0  0  0  0  0  0  0  0  0
  150.1392  139.3659  154.4072 C   0  0  0  0  0  0  0  0  0  0  0  0
  149.1735  140.5434  154.2731 C   0  0  0  0  0  0  0  0  0  0  0  0
  147.8253  139.8874  153.9918 C   0  0  0  0  0  0  0  0  0  0  0  0
  147.8325  138.6234  154.8534 C   0  0  0  0  0  0  0  0  0  0  0  0
  148.0324  135.8564  159.3878 H   0  0  0  0  0  0  0  0  0  0  0  0
  148.0447  137.6034  159.6128 H   0  0  0  0  0  0  0  0  0  0  0  0
  149.0840  136.5764  160.5969 H   0  0  0  0  0  0  0  0  0  0  0  0
  150.4049  135.9366  158.6067 H   0  0  0  0  0  0  0  0  0  0  0  0
  150.1993  138.8852  158.8618 H   0  0  0  0  0  0  0  0  0  0  0  0
  151.7878  139.9019  159.3831 H   0  0  0  0  0  0  0  0  0  0  0  0
  154.7374  137.6710  158.9538 H   0  0  0  0  0  0  0  0  0  0  0  0
  157.0253  138.3438  159.5993 H   0  0  0  0  0  0  0  0  0  0  0  0
  157.3666  140.6397  160.6809 H   0  0  0  0  0  0  0  0  0  0  0  0
  153.0936  142.2134  162.5611 H   0  0  0  0  0  0  0  0  0  0  0  0
  154.2307  143.1519  161.5827 H   0  0  0  0  0  0  0  0  0  0  0  0
  151.2132  143.4515  161.7160 H   0  0  0  0  0  0  0  0  0  0  0  0
  152.4258  144.7307  161.8390 H   0  0  0  0  0  0  0  0  0  0  0  0
  151.2322  144.2837  159.4390 H   0  0  0  0  0  0  0  0  0  0  0  0
  152.9781  144.5305  159.4951 H   0  0  0  0  0  0  0  0  0  0  0  0
  153.0451  142.4223  158.4679 H   0  0  0  0  0  0  0  0  0  0  0  0
  151.4903  141.9415  159.1571 H   0  0  0  0  0  0  0  0  0  0  0  0
  150.2935  138.6271  156.8133 H   0  0  0  0  0  0  0  0  0  0  0  0
  149.5040  137.3067  154.3937 H   0  0  0  0  0  0  0  0  0  0  0  0
  151.0139  139.6184  155.0085 H   0  0  0  0  0  0  0  0  0  0  0  0
  150.5028  139.0883  153.4168 H   0  0  0  0  0  0  0  0  0  0  0  0
  149.1267  141.0909  155.2154 H   0  0  0  0  0  0  0  0  0  0  0  0
  149.4715  141.2446  153.4931 H   0  0  0  0  0  0  0  0  0  0  0  0
  146.9832  140.5429  154.2152 H   0  0  0  0  0  0  0  0  0  0  0  0
  147.7641  139.6133  152.9378 H   0  0  0  0  0  0  0  0  0  0  0  0
  147.2188  137.8326  154.4211 H   0  0  0  0  0  0  0  0  0  0  0  0
  147.4099  138.8594  155.8315 H   0  0  0  0  0  0  0  0  0  0  0  0
  155.5368  142.0019  160.9933 H   0  0  0  0  0  0  0  0  0  0  0  0
  1  2  1  0  0  0  0
  1 26  1  0  0  0  0
  1 27  1  0  0  0  0
  1 28  1  0  0  0  0
  2  3  1  0  0  0  0
  2 18  1  0  0  0  0
  2 29  1  0  0  0  0
  3  4  1  0  0  0  0
  3 30  1  0  0  0  0
  4  5  2  0  0  0  0
  4  6  1  0  0  0  0
  6  7  1  0  0  0  0
  6 31  1  0  0  0  0
  7 12  1  0  0  0  0
  7  8  2  0  0  0  0
  8  9  1  0  0  0  0
  8 32  1  0  0  0  0
  9 10  2  0  0  0  0
  9 33  1  0  0  0  0
 10 11  1  0  0  0  0
 10 34  1  0  0  0  0
 11 12  2  0  0  0  0
 11 53  1  0  0  0  0
 12 13  1  0  0  0  0
 13 17  1  0  0  0  0
 13 14  1  0  0  0  0
 14 15  1  0  0  0  0
 14 35  1  0  0  0  0
 14 36  1  0  0  0  0
 15 16  1  0  0  0  0
 15 37  1  0  0  0  0
 15 38  1  0  0  0  0
 16 17  1  0  0  0  0
 16 39  1  0  0  0  0
 16 40  1  0  0  0  0
 17 41  1  0  0  0  0
 17 42  1  0  0  0  0
 18 19  2  0  0  0  0
 18 20  1  0  0  0  0
 20 21  1  0  0  0  0
 20 43  1  0  0  0  0
 21 25  1  0  0  0  0
 21 22  1  0  0  0  0
 21 44  1  0  0  0  0
 22 23  1  0  0  0  0
 22 45  1  0  0  0  0
 22 46  1  0  0  0  0
 23 24  1  0  0  0  0
 23 47  1  0  0  0  0
 23 48  1  0  0  0  0
 24 25  1  0  0  0  0
 24 49  1  0  0  0  0
 24 50  1  0  0  0  0
 25 51  1  0  0  0  0
 25 52  1  0  0  0  0
M  CHG  1  11   1
M  END
> <s_m_source_file>
AV-unprocessed.smi

> <i_m_source_file_index>
830

> <i_lp_mmshare_version>
43012

> <i_f3d_flags>
0

> <s_epik_input>
W0NIMl0xW0NIMl1bQ0gyXVtDSDJdW0NIXTFbTkhdQyg9TylbQ0BIXShbQ0gzXSlbTkhdQyg9TylbTkhdYzJbY0hdW2NIXVtjSF1uYzJOM1tDSDJdW0NIMl1bQ0gyXVtDSDJdMw==

> <s_epik_cmdline>
J2VwaWtfcHl0aG9uJywgJy1waCcsICc3LjAnLCAnLXRuJywgJzgnLCAnLW1hJywgJzIwMCcsICctbWV0YWxfYmluZGluZycsICctaW1hZScsICc8aW5maWxlLm1hZT4nLCAnLW9tYWUnLCAnPG91dGZpbGUubWFlPic=

> <r_lp_tautomer_probability>
0.999994

> <r_epik_Ionization_Penalty>
1.21091

> <r_epik_Ionization_Penalty_Charging>
1.21089

> <r_epik_Ionization_Penalty_Neutral>
1.88713e-05

> <r_epik_State_Penalty>
1.27732

> <r_epik_Charging_Adjusted_Penalty>
2.48821

> <i_epik_Tot_Q>
1

> <i_epik_Tot_abs_Q>
1

> <r_epik_Metal_State_Penalty>
1.3505

> <b_epik_Metal_Only>
0

> <s_lp_Force_Field>
OPLS_2005

> <r_lp_Energy>
52.1076

> <b_lp_Chiralities_Consistent>
1

> <s_lp_Variant>
AV-unprocessed.smi:830-3

> <Gold.Version>
5.8.1

> <Gold.Id.Protein>
6NUR|6NUR_protein|mol2

> <Gold.PLP.Fitness>
42.2057

> <Gold.PLP.PLP>
-40.0921

> <Gold.PLP.part.hbond>
-2.0000

> <Gold.PLP.part.metal>
0.0000

> <Gold.PLP.part.buried>
-6.3421

> <Gold.PLP.part.nonpolar>
-32.7917

> <Gold.PLP.part.repulsive>
0.3455

> <Gold.PLP.ligand.clash>
0.0000

> <Gold.PLP.ligand.torsion>
0.6736

> <Gold.PLP.Chemscore.Hbond>
1.0000

> <Gold.PLP.Chemscore.CHOScore>
0.0000

> <Gold.PLP.Chemscore.Metal>
0.0000

> <Gold.Chemscore.Hbonds>
donor molecule, donor type, donor heavy atom, donor atom, acceptor molecule, acceptor atom, score
      P1  H  6896  6908       L1     5  0.62

> <Gold.PLP.Chemscore.Internal.Correction>
0.4608

> <Gold.Rescore>
     Score         DG    S(hbond)    S(metal)    S(lipo)     H(rot)  DE(clash)    DE(int)     intcor
     14.81     -16.58       0.96        0.00     103.83       1.67       0.05       1.72       ----

> <Gold.Chemscore.Fitness>
14.8131

> <Gold.Chemscore.DG>
-16.5781

> <Gold.Chemscore.ZeroCoef>
-5.4800

> <Gold.Chemscore.Hbond>
0.9637

> <Gold.Chemscore.Metal>
0.0000

> <Gold.Chemscore.Lipo>
103.8313

> <Gold.Chemscore.Internal_Hbond>
0.0000

> <Gold.Chemscore.DEClash>
0.0496

> <Gold.Chemscore.DEInternal>
1.7154

> <Gold.Chemscore.Rot>
1.6676

> <Gold.Chemscore.Internal.Correction>
   9.000000E+99

> <Gold.Chemscore.Hbonds>
donor molecule, donor type, donor heavy atom, donor atom, acceptor molecule, acceptor atom, score
      P1  H  6896  6908       L1     5  0.58

> <Gold.Chemscore.Hbond.Weighted>
-3.2189

> <Gold.Chemscore.Metal.Weighted>
-0.0000

> <Gold.Chemscore.Lipo.Weighted>
-12.1483

> <Gold.Chemscore.Internal_Hbond.Weighted>
0.0000

> <Gold.Chemscore.DEClash.Weighted>
0.0496

> <Gold.Chemscore.DEInternal.Weighted>
1.7154

> <Gold.Chemscore.Rot.Weighted>
4.2691

> <Gold.Chemscore.Internal.Correction.Weighted>
   9.000000E+99

> <Gold.Protein.RotatedTorsions>
[ 6907 6896 6895 6894 ] final -113.96 input  -60.11 | X-H torsion
[ 7974 7965 7964 7962 ] final  108.35 input  175.53 | X-H torsion
[ 8008 7997 7996 7995 ] final -174.46 input   59.86 | X-H torsion
[ 10167 10162 10161 10158 ] final   -1.73 input  -65.29 | X-H torsion
[ 10718 10713 10712 10709 ] final  111.55 input   66.30 | X-H torsion
[ 10763 10752 10751 10750 ] final   30.63 input  -60.55 | X-H torsion
[ 11005 11000 10999 10996 ] final  103.49 input  -57.11 | X-H torsion

> <Gold.Protein.ActiveResidues>
 VAL166  LYS551  ARG553  GLY616  TRP617  ASP618  TYR619  PRO620  LYS621  CYS622 
 ASP623  PHE694  ASN695  SER759  ASP760  ASP761  ALA762  ILE779  LEU786  VAL792 
 PHE793  MET794  SER795  GLU796  ALA797  LYS798  CYS799  TRP800  GLU811  SER814 

> <Gold.Protein.RotatedAtoms>
  150.7867  133.8869  159.3301 H   0  0  0  0  0  0  0  0  0  0  0  0  # atno 6907 bound_to 6896
  151.6718  135.0973  160.0209 H   0  0  0  0  0  0  0  0  0  0  0  0  # atno 6908 bound_to 6896
  152.3933  133.6671  159.6290 H   0  0  0  0  0  0  0  0  0  0  0  0  # atno 6909 bound_to 6896
  145.2818  139.2630  143.3911 H   0  0  0  0  0  0  0  0  0  0  0  0  # atno 7974 bound_to 7965
  155.9704  140.1162  157.0817 H   0  0  0  0  0  0  0  0  0  0  0  0  # atno 8008 bound_to 7997
  154.4155  140.1164  156.5366 H   0  0  0  0  0  0  0  0  0  0  0  0  # atno 8009 bound_to 7997
  155.6604  140.3473  155.4783 H   0  0  0  0  0  0  0  0  0  0  0  0  # atno 8010 bound_to 7997
  140.6822  143.6740  150.8161 H   0  0  0  0  0  0  0  0  0  0  0  0  # atno 10167 bound_to 10162
  157.6439  131.0952  150.6764 H   0  0  0  0  0  0  0  0  0  0  0  0  # atno 10718 bound_to 10713
  153.0361  135.6459  154.1074 H   0  0  0  0  0  0  0  0  0  0  0  0  # atno 10763 bound_to 10752
  154.0788  135.2875  155.3296 H   0  0  0  0  0  0  0  0  0  0  0  0  # atno 10764 bound_to 10752
  154.6544  135.5414  153.8005 H   0  0  0  0  0  0  0  0  0  0  0  0  # atno 10765 bound_to 10752
  139.8784  134.9265  156.5218 H   0  0  0  0  0  0  0  0  0  0  0  0  # atno 11005 bound_to 11000
  146.3214  140.3287  142.8638 LP  0  0  0  0  0  0  0  0  0  0  0  0  # atno 17320 bound_to 7965
  144.9247  140.7907  143.5726 LP  0  0  0  0  0  0  0  0  0  0  0  0  # atno 17321 bound_to 7965
  140.0442  143.5315  152.2704 LP  0  0  0  0  0  0  0  0  0  0  0  0  # atno 17342 bound_to 10162
  139.6153  144.7618  151.2859 LP  0  0  0  0  0  0  0  0  0  0  0  0  # atno 17343 bound_to 10162
  156.7084  130.4644  149.5554 LP  0  0  0  0  0  0  0  0  0  0  0  0  # atno 17370 bound_to 10713
  156.1746  130.6460  151.0879 LP  0  0  0  0  0  0  0  0  0  0  0  0  # atno 17371 bound_to 10713
  140.8445  133.8179  155.9107 LP  0  0  0  0  0  0  0  0  0  0  0  0  # atno 17394 bound_to 11000
  140.9205  134.2147  157.4929 LP  0  0  0  0  0  0  0  0  0  0  0  0  # atno 17395 bound_to 11000

$$$$
