AV-unprocessed.smi:218|AV-procd|sdf|1677|dock8
  -GOLD-   2262020103D 1   1.00000     0.00000
 Structure written by MMmdl.
 54 57  0  0  0  0  0  0  0  0  1 V2000
  146.8321  134.6042  162.1995 C   0  0  0  0  0  0  0  0  0  0  0  0
  147.9586  135.6298  162.3731 C   0  0  0  0  0  0  0  0  0  0  0  0
  147.6121  136.6571  163.4648 C   0  0  0  0  0  0  0  0  0  0  0  0
  148.1224  136.2814  161.1121 O   0  0  0  0  0  0  0  0  0  0  0  0
  147.0156  136.6833  160.3893 C   0  0  0  0  0  0  0  0  0  0  0  0
  146.8331  136.1495  159.0977 C   0  0  0  0  0  0  0  0  0  0  0  0
  145.7041  136.5434  158.3489 C   0  0  0  0  0  0  0  0  0  0  0  0
  145.4573  135.9889  156.9555 C   0  0  0  0  0  0  0  0  0  0  0  0
  144.1361  136.2763  156.4066 N   0  0  0  0  0  0  0  0  0  0  0  0
  143.8696  136.0248  155.1062 C   0  0  0  0  0  0  0  0  0  0  0  0
  142.6807  136.3797  154.5516 N   0  0  0  0  0  0  0  0  0  0  0  0
  142.4413  136.1239  153.2617 C   0  0  0  0  0  0  0  0  0  0  0  0
  143.2390  135.5393  152.3642 N   0  0  0  0  0  0  0  0  0  0  0  0
  144.4351  135.1865  152.9180 C   0  0  0  0  0  0  0  0  0  0  0  0
  144.8243  135.3910  154.2702 C   0  0  0  0  0  0  0  0  0  0  0  0
  146.1070  134.8973  154.4697 N   0  0  0  0  0  0  0  0  0  0  0  0
  146.4515  134.4305  153.2991 C   0  0  0  0  0  0  0  0  0  0  0  0
  145.5030  134.5674  152.3074 N   0  0  0  0  0  0  0  0  0  0  0  0
  145.5648  134.1531  150.8726 C   0  0  1  0  0  0  0  0  0  0  0  0
  146.1545  132.8856  150.8178 O   0  0  0  0  0  0  0  0  0  0  0  0
  145.2340  131.9133  150.3253 C   0  0  1  0  0  0  0  0  0  0  0  0
  145.4488  130.5787  151.0568 C   0  0  0  0  0  0  0  0  0  0  0  0
  146.8187  130.3835  151.3364 O   0  0  0  0  0  0  0  0  0  0  0  0
  143.8577  132.5476  150.5381 C   0  0  2  0  0  0  0  0  0  0  0  0
  142.8642  132.0469  149.6643 O   0  0  0  0  0  0  0  0  0  0  0  0
  144.1410  134.0264  150.3179 C   0  0  2  0  0  0  0  0  0  0  0  0
  144.0950  134.4097  148.9554 O   0  0  0  0  0  0  0  0  0  0  0  0
  144.8075  137.4681  158.9195 C   0  0  0  0  0  0  0  0  0  0  0  0
  145.0764  137.9507  160.2148 C   0  0  0  0  0  0  0  0  0  0  0  0
  146.1513  137.5726  160.9382 N   0  0  0  0  0  0  0  0  0  0  0  0
  146.1791  134.9154  150.3911 H   0  0  0  0  0  0  0  0  0  0  0  0
  145.4347  131.8000  149.2583 H   0  0  0  0  0  0  0  0  0  0  0  0
  143.5350  132.3948  151.5690 H   0  0  0  0  0  0  0  0  0  0  0  0
  143.4455  134.6617  150.8687 H   0  0  0  0  0  0  0  0  0  0  0  0
  146.6532  134.0554  163.1244 H   0  0  0  0  0  0  0  0  0  0  0  0
  147.0832  133.8774  161.4266 H   0  0  0  0  0  0  0  0  0  0  0  0
  145.8981  135.0873  161.9108 H   0  0  0  0  0  0  0  0  0  0  0  0
  148.8578  135.0777  162.6508 H   0  0  0  0  0  0  0  0  0  0  0  0
  147.4427  136.1653  164.4229 H   0  0  0  0  0  0  0  0  0  0  0  0
  146.7080  137.2103  163.2100 H   0  0  0  0  0  0  0  0  0  0  0  0
  148.4129  137.3820  163.6083 H   0  0  0  0  0  0  0  0  0  0  0  0
  147.5459  135.4450  158.6948 H   0  0  0  0  0  0  0  0  0  0  0  0
  146.2223  136.3542  156.2689 H   0  0  0  0  0  0  0  0  0  0  0  0
  145.5770  134.9063  156.9966 H   0  0  0  0  0  0  0  0  0  0  0  0
  143.5436  136.8597  156.9798 H   0  0  0  0  0  0  0  0  0  0  0  0
  141.4727  136.4325  152.8970 H   0  0  0  0  0  0  0  0  0  0  0  0
  147.4153  133.9733  153.1309 H   0  0  0  0  0  0  0  0  0  0  0  0
  144.9079  130.5792  152.0033 H   0  0  0  0  0  0  0  0  0  0  0  0
  145.0707  129.7413  150.4703 H   0  0  0  0  0  0  0  0  0  0  0  0
  147.3258  130.7448  150.6247 H   0  0  0  0  0  0  0  0  0  0  0  0
  142.1041  132.6057  149.7291 H   0  0  0  0  0  0  0  0  0  0  0  0
  144.9802  134.5442  148.6526 H   0  0  0  0  0  0  0  0  0  0  0  0
  143.9307  137.7984  158.3823 H   0  0  0  0  0  0  0  0  0  0  0  0
  144.4093  138.6589  160.6833 H   0  0  0  0  0  0  0  0  0  0  0  0
  1  2  1  0  0  0  0
  1 35  1  0  0  0  0
  1 36  1  0  0  0  0
  1 37  1  0  0  0  0
  2  3  1  0  0  0  0
  2  4  1  0  0  0  0
  2 38  1  0  0  0  0
  3 39  1  0  0  0  0
  3 40  1  0  0  0  0
  3 41  1  0  0  0  0
  4  5  1  0  0  0  0
  5 30  1  0  0  0  0
  5  6  2  0  0  0  0
  6  7  1  0  0  0  0
  6 42  1  0  0  0  0
  7  8  1  0  0  0  0
  7 28  2  0  0  0  0
  8  9  1  0  0  0  0
  8 43  1  0  0  0  0
  8 44  1  0  0  0  0
  9 10  1  0  0  0  0
  9 45  1  0  0  0  0
 10 15  1  0  0  0  0
 10 11  2  0  0  0  0
 11 12  1  0  0  0  0
 12 13  2  0  0  0  0
 12 46  1  0  0  0  0
 13 14  1  0  0  0  0
 14 18  1  0  0  0  0
 14 15  2  0  0  0  0
 15 16  1  0  0  0  0
 16 17  2  0  0  0  0
 17 18  1  0  0  0  0
 17 47  1  0  0  0  0
 18 19  1  0  0  0  0
 19 31  1  0  0  0  0
 19 26  1  0  0  0  0
 19 20  1  0  0  0  0
 20 21  1  0  0  0  0
 21 32  1  0  0  0  0
 21 22  1  0  0  0  0
 21 24  1  0  0  0  0
 22 23  1  0  0  0  0
 22 48  1  0  0  0  0
 22 49  1  0  0  0  0
 23 50  1  0  0  0  0
 24 33  1  0  0  0  0
 24 25  1  0  0  0  0
 24 26  1  0  0  0  0
 25 51  1  0  0  0  0
 26 34  1  0  0  0  0
 26 27  1  0  0  0  0
 27 52  1  0  0  0  0
 28 29  1  0  0  0  0
 28 53  1  0  0  0  0
 29 30  2  0  0  0  0
 29 54  1  0  0  0  0
M  END
> <s_m_source_file>
AV-unprocessed.smi

> <i_m_source_file_index>
218

> <i_lp_mmshare_version>
43012

> <i_f3d_flags>
0

> <s_epik_input>
W0NIM11bQ0hdKFtDSDNdKU9jMVtjSF1jKFtjSF1bY0hdbjEpW0NIMl1bTkhdYyhuW2NIXW4yKWMoYzIzKW5bY0hdbjNbQ0BASF00T1tDQEhdKFtDSDJdW09IXSlbQ0BASF0oW09IXSlbQ0BIXTRbT0hd

> <s_epik_cmdline>
J2VwaWtfcHl0aG9uJywgJy1waCcsICc3LjAnLCAnLXRuJywgJzgnLCAnLW1hJywgJzIwMCcsICctbWV0YWxfYmluZGluZycsICctaW1hZScsICc8aW5maWxlLm1hZT4nLCAnLW9tYWUnLCAnPG91dGZpbGUubWFlPic=

> <r_lp_tautomer_probability>
1

> <r_epik_Ionization_Penalty>
0.00457014

> <r_epik_Ionization_Penalty_Charging>
0

> <r_epik_Ionization_Penalty_Neutral>
0.00457014

> <r_epik_State_Penalty>
-0

> <r_epik_Charging_Adjusted_Penalty>
0

> <i_epik_Tot_Q>
0

> <i_epik_Tot_abs_Q>
0

> <r_epik_Metal_State_Penalty>
-0

> <b_epik_Metal_Only>
0

> <s_epik_Chemistry_Notes>
This compound contains an acetal/aminal-like group ( X-CH(R)-Y where X, Y are N, S, or O) that may be acid/base labile, releasing an aldehyde.

> <s_lp_Force_Field>
OPLS_2005

> <r_lp_Energy>
38.234

> <b_lp_Chiralities_Consistent>
1

> <s_lp_Variant>
AV-unprocessed.smi:218-16

> <Gold.Version>
5.8.1

> <Gold.Id.Protein>
6NUR|6NUR_protein|mol2

> <Gold.PLP.Fitness>
50.6798

> <Gold.PLP.PLP>
-40.5619

> <Gold.PLP.part.hbond>
-6.2998

> <Gold.PLP.part.metal>
0.0000

> <Gold.PLP.part.buried>
-7.3272

> <Gold.PLP.part.nonpolar>
-26.1185

> <Gold.PLP.part.repulsive>
0.4526

> <Gold.PLP.ligand.clash>
1.8029

> <Gold.PLP.ligand.torsion>
1.1462

> <Gold.PLP.Chemscore.Hbond>
4.6903

> <Gold.PLP.Chemscore.CHOScore>
0.0243

> <Gold.PLP.Chemscore.Metal>
0.0000

> <Gold.Chemscore.Hbonds>
donor molecule, donor type, donor heavy atom, donor atom, acceptor molecule, acceptor atom, score
      L1  H    23    50       P1 10747  0.70
      L1  H    25    51       P1 10186  0.78
      L1  H    27    52       P1  7921  1.00
      P1  H  6931  6943       L1     4  0.26
      P1  H  6934  6947       L1    30  1.00
      P1  H 10785 10796       L1    25  0.71

> <Gold.PLP.Chemscore.Internal.Correction>
0.0693

> <Gold.Rescore>
     Score         DG    S(hbond)    S(metal)    S(lipo)     H(rot)  DE(clash)    DE(int)     intcor
      9.09     -13.58       3.66        0.00      72.12       4.90       0.16       4.33       ----

> <Gold.Chemscore.Fitness>
9.0885

> <Gold.Chemscore.DG>
-13.5813

> <Gold.Chemscore.ZeroCoef>
-5.4800

> <Gold.Chemscore.Hbond>
3.6572

> <Gold.Chemscore.Metal>
0.0000

> <Gold.Chemscore.Lipo>
72.1175

> <Gold.Chemscore.Internal_Hbond>
0.0000

> <Gold.Chemscore.DEClash>
0.1622

> <Gold.Chemscore.DEInternal>
4.3306

> <Gold.Chemscore.Rot>
4.9029

> <Gold.Chemscore.Internal.Correction>
   9.000000E+99

> <Gold.Chemscore.Hbonds>
donor molecule, donor type, donor heavy atom, donor atom, acceptor molecule, acceptor atom, score
      L1  H    23    50       P1 10747  0.70
      L1  H    25    51       P1 10186  0.76
      L1  H    27    52       P1  7921  0.95
      P1  H  6931  6943       L1     4  0.02
      P1  H  6934  6947       L1    30  0.10
      P1  H 10785 10796       L1    25  0.68

> <Gold.Chemscore.Hbond.Weighted>
-12.2150

> <Gold.Chemscore.Metal.Weighted>
-0.0000

> <Gold.Chemscore.Lipo.Weighted>
-8.4378

> <Gold.Chemscore.Internal_Hbond.Weighted>
0.0000

> <Gold.Chemscore.DEClash.Weighted>
0.1622

> <Gold.Chemscore.DEInternal.Weighted>
4.3306

> <Gold.Chemscore.Rot.Weighted>
12.5515

> <Gold.Chemscore.Internal.Correction.Weighted>
   9.000000E+99

> <Gold.Protein.RotatedTorsions>
[ 6907 6896 6895 6894 ] final    8.79 input  -60.11 | X-H torsion
[ 7974 7965 7964 7962 ] final -111.85 input  175.53 | X-H torsion
[ 8008 7997 7996 7995 ] final  150.41 input   59.86 | X-H torsion
[ 10167 10162 10161 10158 ] final -115.79 input  -65.29 | X-H torsion
[ 10718 10713 10712 10709 ] final  147.45 input   66.30 | X-H torsion
[ 10763 10752 10751 10750 ] final   83.70 input  -60.55 | X-H torsion
[ 11005 11000 10999 10996 ] final   24.38 input  -57.11 | X-H torsion

> <Gold.Protein.ActiveResidues>
 VAL166  LYS551  ARG553  GLY616  TRP617  ASP618  TYR619  PRO620  LYS621  CYS622 
 ASP623  PHE694  ASN695  SER759  ASP760  ASP761  ALA762  ILE779  LEU786  VAL792 
 PHE793  MET794  SER795  GLU796  ALA797  LYS798  CYS799  TRP800  GLU811  SER814 

> <Gold.Protein.RotatedAtoms>
  151.7118  135.0911  160.0268 H   0  0  0  0  0  0  0  0  0  0  0  0  # atno 6907 bound_to 6896
  152.3657  133.6349  159.6057 H   0  0  0  0  0  0  0  0  0  0  0  0  # atno 6908 bound_to 6896
  150.7636  133.9268  159.3456 H   0  0  0  0  0  0  0  0  0  0  0  0  # atno 6909 bound_to 6896
  145.1511  140.8829  143.3646 H   0  0  0  0  0  0  0  0  0  0  0  0  # atno 7974 bound_to 7965
  156.2717  140.2075  156.6012 H   0  0  0  0  0  0  0  0  0  0  0  0  # atno 8008 bound_to 7997
  154.6905  140.0530  157.0382 H   0  0  0  0  0  0  0  0  0  0  0  0  # atno 8009 bound_to 7997
  155.0873  140.3193  155.4587 H   0  0  0  0  0  0  0  0  0  0  0  0  # atno 8010 bound_to 7997
  140.0862  143.4742  152.1897 H   0  0  0  0  0  0  0  0  0  0  0  0  # atno 10167 bound_to 10162
  157.3208  131.0904  151.1242 H   0  0  0  0  0  0  0  0  0  0  0  0  # atno 10718 bound_to 10713
  153.1315  135.4681  154.9355 H   0  0  0  0  0  0  0  0  0  0  0  0  # atno 10763 bound_to 10752
  154.7668  135.3147  154.8273 H   0  0  0  0  0  0  0  0  0  0  0  0  # atno 10764 bound_to 10752
  153.8814  135.6894  153.4820 H   0  0  0  0  0  0  0  0  0  0  0  0  # atno 10765 bound_to 10752
  140.3593  134.2143  155.7673 H   0  0  0  0  0  0  0  0  0  0  0  0  # atno 11005 bound_to 11000
  145.0430  139.3244  143.5967 LP  0  0  0  0  0  0  0  0  0  0  0  0  # atno 17320 bound_to 7965
  146.3494  139.9810  142.8696 LP  0  0  0  0  0  0  0  0  0  0  0  0  # atno 17321 bound_to 7965
  139.5751  144.7483  151.3787 LP  0  0  0  0  0  0  0  0  0  0  0  0  # atno 17342 bound_to 10162
  140.7052  143.7531  150.7470 LP  0  0  0  0  0  0  0  0  0  0  0  0  # atno 17343 bound_to 10162
  157.2528  130.6622  149.5939 LP  0  0  0  0  0  0  0  0  0  0  0  0  # atno 17370 bound_to 10713
  155.9685  130.4533  150.5806 LP  0  0  0  0  0  0  0  0  0  0  0  0  # atno 17371 bound_to 10713
  141.1989  133.8025  157.0562 LP  0  0  0  0  0  0  0  0  0  0  0  0  # atno 17394 bound_to 11000
  140.0639  134.9739  157.1353 LP  0  0  0  0  0  0  0  0  0  0  0  0  # atno 17395 bound_to 11000

$$$$
