AV-unprocessed.smi:2639|AV-procd|sdf|10266|dock5
  -GOLD-   2272014273D 1   1.00000     0.00000
 Structure written by MMmdl.
 44 45  0  0  0  0  0  0  0  0  2 V2000
  146.9854  141.9995  154.1094 C   0  0  0  0  0  0  0  0  0  0  0  0
  147.7980  141.1484  155.1188 C   0  0  1  0  0  0  0  0  0  0  0  0
  148.7161  140.1766  154.3197 C   0  0  0  0  0  0  0  0  0  0  0  0
  149.5046  140.8494  153.3589 O   0  0  0  0  0  0  0  0  0  0  0  0
  148.6305  142.0287  155.9542 N   0  0  0  0  0  0  0  0  0  0  0  0
  149.6146  141.7004  156.8082 C   0  0  0  0  0  0  0  0  0  0  0  0
  149.9897  140.5479  157.0196 O   0  0  0  0  0  0  0  0  0  0  0  0
  150.1396  142.7982  157.3794 N   0  0  0  0  0  0  0  0  0  0  0  0
  151.1746  142.8823  158.3502 C   0  0  0  0  0  0  0  0  0  0  0  0
  151.4994  144.1629  158.8506 C   0  0  0  0  0  0  0  0  0  0  0  0
  152.5089  144.2932  159.8261 C   0  0  0  0  0  0  0  0  0  0  0  0
  153.1492  143.1954  160.2820 N   0  3  0  0  0  0  0  0  0  0  0  0
  152.8630  141.9498  159.8461 C   0  0  0  0  0  0  0  0  0  0  0  0
  151.8633  141.7571  158.8709 C   0  0  0  0  0  0  0  0  0  0  0  0
  146.8297  140.3705  156.0798 C   0  0  0  0  0  0  0  0  0  0  0  0
  145.8336  139.4383  155.3371 C   0  0  0  0  0  0  0  0  0  0  0  0
  144.9378  138.6506  156.3065 C   0  0  0  0  0  0  0  0  0  0  0  0
  144.1699  139.5889  157.2453 C   0  0  0  0  0  0  0  0  0  0  0  0
  145.1380  140.5038  158.0048 C   0  0  0  0  0  0  0  0  0  0  0  0
  146.0333  141.2963  157.0390 C   0  0  0  0  0  0  0  0  0  0  0  0
  146.2177  141.4017  153.6172 H   0  0  0  0  0  0  0  0  0  0  0  0
  147.6172  142.4111  153.3222 H   0  0  0  0  0  0  0  0  0  0  0  0
  146.4907  142.8451  154.5867 H   0  0  0  0  0  0  0  0  0  0  0  0
  149.3984  139.6444  154.9823 H   0  0  0  0  0  0  0  0  0  0  0  0
  148.1335  139.4076  153.8124 H   0  0  0  0  0  0  0  0  0  0  0  0
  149.6961  140.2495  152.6543 H   0  0  0  0  0  0  0  0  0  0  0  0
  148.4243  143.0128  155.8642 H   0  0  0  0  0  0  0  0  0  0  0  0
  149.7908  143.6825  157.0398 H   0  0  0  0  0  0  0  0  0  0  0  0
  150.9852  145.0414  158.4878 H   0  0  0  0  0  0  0  0  0  0  0  0
  152.8193  145.2357  160.2536 H   0  0  0  0  0  0  0  0  0  0  0  0
  153.4334  141.1478  160.2918 H   0  0  0  0  0  0  0  0  0  0  0  0
  151.6369  140.7511  158.5524 H   0  0  0  0  0  0  0  0  0  0  0  0
  147.4438  139.7216  156.7060 H   0  0  0  0  0  0  0  0  0  0  0  0
  145.2020  140.0173  154.6627 H   0  0  0  0  0  0  0  0  0  0  0  0
  146.3661  138.7184  154.7175 H   0  0  0  0  0  0  0  0  0  0  0  0
  144.2361  138.0338  155.7443 H   0  0  0  0  0  0  0  0  0  0  0  0
  145.5497  137.9648  156.8941 H   0  0  0  0  0  0  0  0  0  0  0  0
  143.4671  140.1926  156.6697 H   0  0  0  0  0  0  0  0  0  0  0  0
  143.5756  139.0070  157.9505 H   0  0  0  0  0  0  0  0  0  0  0  0
  144.5776  141.1909  158.6394 H   0  0  0  0  0  0  0  0  0  0  0  0
  145.7604  139.9055  158.6716 H   0  0  0  0  0  0  0  0  0  0  0  0
  146.7080  141.9063  157.6379 H   0  0  0  0  0  0  0  0  0  0  0  0
  145.4156  141.9909  156.4686 H   0  0  0  0  0  0  0  0  0  0  0  0
  153.8761  143.3112  160.9890 H   0  0  0  0  0  0  0  0  0  0  0  0
  1  2  1  0  0  0  0
  1 21  1  0  0  0  0
  1 22  1  0  0  0  0
  1 23  1  0  0  0  0
  2  3  1  0  0  0  0
  2  5  1  0  0  0  0
  2 15  1  0  0  0  0
  3  4  1  0  0  0  0
  3 24  1  0  0  0  0
  3 25  1  0  0  0  0
  4 26  1  0  0  0  0
  5  6  1  0  0  0  0
  5 27  1  0  0  0  0
  6  7  2  0  0  0  0
  6  8  1  0  0  0  0
  8  9  1  0  0  0  0
  8 28  1  0  0  0  0
  9 14  1  0  0  0  0
  9 10  2  0  0  0  0
 10 11  1  0  0  0  0
 10 29  1  0  0  0  0
 11 12  2  0  0  0  0
 11 30  1  0  0  0  0
 12 13  1  0  0  0  0
 12 44  1  0  0  0  0
 13 14  2  0  0  0  0
 13 31  1  0  0  0  0
 14 32  1  0  0  0  0
 15 20  1  0  0  0  0
 15 16  1  0  0  0  0
 15 33  1  0  0  0  0
 16 17  1  0  0  0  0
 16 34  1  0  0  0  0
 16 35  1  0  0  0  0
 17 18  1  0  0  0  0
 17 36  1  0  0  0  0
 17 37  1  0  0  0  0
 18 19  1  0  0  0  0
 18 38  1  0  0  0  0
 18 39  1  0  0  0  0
 19 20  1  0  0  0  0
 19 40  1  0  0  0  0
 19 41  1  0  0  0  0
 20 42  1  0  0  0  0
 20 43  1  0  0  0  0
M  CHG  1  12   1
M  END
> <s_m_source_file>
AV-unprocessed.smi

> <i_m_source_file_index>
2639

> <i_lp_mmshare_version>
43012

> <i_f3d_flags>
0

> <s_epik_input>
W0NIMl0xW0NIMl1bQ0gyXVtDSDJdW0NIMl1bQ0hdMVtDQF0oW0NIM10pKFtDSDJdW09IXSlbTkhdQyg9TylbTkhdYzJbY0hdW2NIXW5bY0hdW2NIXTI=

> <s_epik_cmdline>
J2VwaWtfcHl0aG9uJywgJy1waCcsICc3LjAnLCAnLXRuJywgJzgnLCAnLW1hJywgJzIwMCcsICctbWV0YWxfYmluZGluZycsICctaW1hZScsICc8aW5maWxlLm1hZT4nLCAnLW9tYWUnLCAnPG91dGZpbGUubWFlPic=

> <r_epik_Ionization_Penalty>
1.0096

> <r_epik_Ionization_Penalty_Charging>
1.00958

> <r_epik_Ionization_Penalty_Neutral>
2.00022e-05

> <r_epik_State_Penalty>
1.05889

> <r_epik_Charging_Adjusted_Penalty>
2.06847

> <i_epik_Tot_Q>
1

> <i_epik_Tot_abs_Q>
1

> <r_epik_Metal_State_Penalty>
1.15945

> <b_epik_Metal_Only>
0

> <s_lp_Force_Field>
OPLS_2005

> <r_lp_Energy>
30.6605

> <b_lp_Chiralities_Consistent>
1

> <s_lp_Variant>
AV-unprocessed.smi:2639-3

> <Gold.Version>
5.8.1

> <Gold.Id.Protein>
6NUR|6NUR_protein|mol2

> <Gold.PLP.Fitness>
42.6214

> <Gold.PLP.PLP>
-32.0595

> <Gold.PLP.part.hbond>
-4.3925

> <Gold.PLP.part.metal>
0.0000

> <Gold.PLP.part.buried>
-7.0065

> <Gold.PLP.part.nonpolar>
-22.0674

> <Gold.PLP.part.repulsive>
0.1350

> <Gold.PLP.ligand.clash>
0.0000

> <Gold.PLP.ligand.torsion>
0.2331

> <Gold.PLP.Chemscore.Hbond>
3.6602

> <Gold.PLP.Chemscore.CHOScore>
0.0000

> <Gold.PLP.Chemscore.Metal>
0.0000

> <Gold.Chemscore.Hbonds>
donor molecule, donor type, donor heavy atom, donor atom, acceptor molecule, acceptor atom, score
      L1  H     4    26       P1  7957  0.83
      L1  H     5    27       P1  8028  1.00
      L1  H     8    28       P1  8028  1.00
      P1  H  7989  7998       L1     4  0.01
      P1  H  8011  8017       L1     4  0.75

> <Gold.PLP.Chemscore.Internal.Correction>
0.0476

> <Gold.Rescore>
     Score         DG    S(hbond)    S(metal)    S(lipo)     H(rot)  DE(clash)    DE(int)     intcor
     17.38     -18.70       2.89        0.00      74.60       2.02       0.01       1.31       ----

> <Gold.Chemscore.Fitness>
17.3826

> <Gold.Chemscore.DG>
-18.7035

> <Gold.Chemscore.ZeroCoef>
-5.4800

> <Gold.Chemscore.Hbond>
2.8916

> <Gold.Chemscore.Metal>
0.0000

> <Gold.Chemscore.Lipo>
74.5963

> <Gold.Chemscore.Internal_Hbond>
0.0000

> <Gold.Chemscore.DEClash>
0.0059

> <Gold.Chemscore.DEInternal>
1.3150

> <Gold.Chemscore.Rot>
2.0165

> <Gold.Chemscore.Internal.Correction>
   9.000000E+99

> <Gold.Chemscore.Hbonds>
donor molecule, donor type, donor heavy atom, donor atom, acceptor molecule, acceptor atom, score
      L1  H     4    26       P1  7957  0.78
      L1  H     5    27       P1  8028  0.94
      L1  H     8    28       P1  8028  0.91
      P1  H  8011  8017       L1     4  0.09

> <Gold.Chemscore.Hbond.Weighted>
-9.6579

> <Gold.Chemscore.Metal.Weighted>
-0.0000

> <Gold.Chemscore.Lipo.Weighted>
-8.7278

> <Gold.Chemscore.Internal_Hbond.Weighted>
0.0000

> <Gold.Chemscore.DEClash.Weighted>
0.0059

> <Gold.Chemscore.DEInternal.Weighted>
1.3150

> <Gold.Chemscore.Rot.Weighted>
5.1622

> <Gold.Chemscore.Internal.Correction.Weighted>
   9.000000E+99

> <Gold.Protein.RotatedTorsions>
[ 6907 6896 6895 6894 ] final   35.44 input  -60.11 | X-H torsion
[ 7974 7965 7964 7962 ] final  -49.25 input  175.53 | X-H torsion
[ 8008 7997 7996 7995 ] final  -67.40 input   59.86 | X-H torsion
[ 10167 10162 10161 10158 ] final -161.79 input  -65.29 | X-H torsion
[ 10718 10713 10712 10709 ] final -156.74 input   66.30 | X-H torsion
[ 10763 10752 10751 10750 ] final  -34.05 input  -60.55 | X-H torsion
[ 11005 11000 10999 10996 ] final  -21.66 input  -57.11 | X-H torsion

> <Gold.Protein.ActiveResidues>
 VAL166  LYS551  ARG553  GLY616  TRP617  ASP618  TYR619  PRO620  LYS621  CYS622 
 ASP623  PHE694  ASN695  SER759  ASP760  ASP761  ALA762  ILE779  LEU786  VAL792 
 PHE793  MET794  SER795  GLU796  ALA797  LYS798  CYS799  TRP800  GLU811  SER814 

> <Gold.Protein.RotatedAtoms>
  152.1162  134.9239  160.0564 H   0  0  0  0  0  0  0  0  0  0  0  0  # atno 6907 bound_to 6896
  152.0397  133.3967  159.4340 H   0  0  0  0  0  0  0  0  0  0  0  0  # atno 6908 bound_to 6896
  150.6846  134.3349  159.4886 H   0  0  0  0  0  0  0  0  0  0  0  0  # atno 6909 bound_to 6896
  145.9426  140.7648  142.9544 H   0  0  0  0  0  0  0  0  0  0  0  0  # atno 7974 bound_to 7965
  154.4797  140.0893  156.7349 H   0  0  0  0  0  0  0  0  0  0  0  0  # atno 8008 bound_to 7997
  155.4502  140.3457  155.4281 H   0  0  0  0  0  0  0  0  0  0  0  0  # atno 8009 bound_to 7997
  156.1173  140.1464  156.9243 H   0  0  0  0  0  0  0  0  0  0  0  0  # atno 8010 bound_to 7997
  139.6439  144.0208  152.2113 H   0  0  0  0  0  0  0  0  0  0  0  0  # atno 10167 bound_to 10162
  156.5306  130.8519  151.2715 H   0  0  0  0  0  0  0  0  0  0  0  0  # atno 10718 bound_to 10713
  153.8403  135.6858  153.4803 H   0  0  0  0  0  0  0  0  0  0  0  0  # atno 10763 bound_to 10752
  153.1457  135.4638  154.9561 H   0  0  0  0  0  0  0  0  0  0  0  0  # atno 10764 bound_to 10752
  154.7848  135.3281  154.7858 H   0  0  0  0  0  0  0  0  0  0  0  0  # atno 10765 bound_to 10752
  140.8582  133.7807  156.0044 H   0  0  0  0  0  0  0  0  0  0  0  0  # atno 11005 bound_to 11000
  144.6781  140.2304  143.7356 LP  0  0  0  0  0  0  0  0  0  0  0  0  # atno 17320 bound_to 7965
  145.8280  139.2073  143.1899 LP  0  0  0  0  0  0  0  0  0  0  0  0  # atno 17321 bound_to 7965
  139.9904  144.6365  150.7819 LP  0  0  0  0  0  0  0  0  0  0  0  0  # atno 17342 bound_to 10162
  140.7505  143.2956  151.3213 LP  0  0  0  0  0  0  0  0  0  0  0  0  # atno 17343 bound_to 10162
  157.7422  130.9886  150.2501 LP  0  0  0  0  0  0  0  0  0  0  0  0  # atno 17370 bound_to 10713
  156.3063  130.3765  149.7703 LP  0  0  0  0  0  0  0  0  0  0  0  0  # atno 17371 bound_to 10713
  140.8713  134.2723  157.5189 LP  0  0  0  0  0  0  0  0  0  0  0  0  # atno 17394 bound_to 11000
  139.8706  134.9568  156.4250 LP  0  0  0  0  0  0  0  0  0  0  0  0  # atno 17395 bound_to 11000

$$$$
