AV-unprocessed.smi:150|AV-procd|sdf|1243|dock1
  -GOLD-   2262018463D 1   1.00000     0.00000
 Structure written by MMmdl.
 55 57  0  0  0  0  0  0  0  0  1 V2000
  151.4338  143.1033  157.9163 C   0  0  0  0  0  0  0  0  0  0  0  0
  150.8898  141.6988  157.6120 C   0  0  0  0  0  0  0  0  0  0  0  0
  151.9007  140.6290  158.0593 C   0  0  0  0  0  0  0  0  0  0  0  0
  150.5155  141.5790  156.1178 C   0  0  0  0  0  0  0  0  0  0  0  0
  149.7962  140.2717  155.6815 C   0  0  1  0  0  0  0  0  0  0  0  0
  148.8929  140.4254  154.4328 C   0  0  0  0  0  0  0  0  0  0  0  0
  149.6126  140.9559  153.3405 O   0  0  0  0  0  0  0  0  0  0  0  0
  150.7399  139.1516  155.5399 N   0  0  0  0  0  0  0  0  0  0  0  0
  152.1283  139.4644  155.2143 C   0  0  0  0  0  0  0  0  0  0  0  0
  150.5779  137.9774  156.2074 C   0  0  0  0  0  0  0  0  0  0  0  0
  151.6318  137.1378  156.3848 N   0  0  0  0  0  0  0  0  0  0  0  0
  151.4743  135.9767  157.0266 C   0  0  0  0  0  0  0  0  0  0  0  0
  150.3652  135.4625  157.5597 N   0  0  0  0  0  0  0  0  0  0  0  0
  149.3000  136.2942  157.3801 C   0  0  0  0  0  0  0  0  0  0  0  0
  149.3181  137.5575  156.7229 C   0  0  0  0  0  0  0  0  0  0  0  0
  148.0471  138.1201  156.7483 N   0  0  0  0  0  0  0  0  0  0  0  0
  147.3201  137.2393  157.3791 C   0  0  0  0  0  0  0  0  0  0  0  0
  147.9898  136.1075  157.7855 N   0  0  0  0  0  0  0  0  0  0  0  0
  147.4276  134.9730  158.5028 C   0  0  0  0  0  0  0  0  0  0  0  0
  146.9160  135.3143  159.9248 C   0  0  0  0  0  0  0  0  0  0  0  0
  145.8357  136.2213  159.7911 O   0  0  0  0  0  0  0  0  0  0  0  0
  146.3983  134.0424  160.6263 C   0  0  0  0  0  0  0  0  0  0  0  0
  146.0394  134.2971  162.1009 C   0  0  0  0  0  0  0  0  0  0  0  0
  147.1589  134.8456  162.7855 O   0  0  0  0  0  0  0  0  0  0  0  0
  147.5501  136.1126  162.2713 C   0  0  0  0  0  0  0  0  0  0  0  0
  147.9992  135.9746  160.8058 C   0  0  0  0  0  0  0  0  0  0  0  0
  152.3485  143.3045  157.3576 H   0  0  0  0  0  0  0  0  0  0  0  0
  151.6605  143.2167  158.9769 H   0  0  0  0  0  0  0  0  0  0  0  0
  150.7073  143.8729  157.6541 H   0  0  0  0  0  0  0  0  0  0  0  0
  149.9865  141.5824  158.2096 H   0  0  0  0  0  0  0  0  0  0  0  0
  152.8117  140.6699  157.4615 H   0  0  0  0  0  0  0  0  0  0  0  0
  151.4896  139.6236  157.9753 H   0  0  0  0  0  0  0  0  0  0  0  0
  152.1826  140.7704  159.1028 H   0  0  0  0  0  0  0  0  0  0  0  0
  149.9008  142.4395  155.8553 H   0  0  0  0  0  0  0  0  0  0  0  0
  151.4300  141.6831  155.5320 H   0  0  0  0  0  0  0  0  0  0  0  0
  149.1550  139.9652  156.5076 H   0  0  0  0  0  0  0  0  0  0  0  0
  148.4491  139.4735  154.1410 H   0  0  0  0  0  0  0  0  0  0  0  0
  148.0690  141.1111  154.6328 H   0  0  0  0  0  0  0  0  0  0  0  0
  149.5440  140.3537  152.6154 H   0  0  0  0  0  0  0  0  0  0  0  0
  152.3861  139.0587  154.2361 H   0  0  0  0  0  0  0  0  0  0  0  0
  152.8162  139.0486  155.9522 H   0  0  0  0  0  0  0  0  0  0  0  0
  152.2934  140.5417  155.1805 H   0  0  0  0  0  0  0  0  0  0  0  0
  152.3644  135.3730  157.1256 H   0  0  0  0  0  0  0  0  0  0  0  0
  146.2660  137.3896  157.5619 H   0  0  0  0  0  0  0  0  0  0  0  0
  146.6214  134.5515  157.9005 H   0  0  0  0  0  0  0  0  0  0  0  0
  148.1963  134.2010  158.5598 H   0  0  0  0  0  0  0  0  0  0  0  0
  145.4369  136.3418  160.6392 H   0  0  0  0  0  0  0  0  0  0  0  0
  145.5355  133.6367  160.0962 H   0  0  0  0  0  0  0  0  0  0  0  0
  147.1690  133.2714  160.5889 H   0  0  0  0  0  0  0  0  0  0  0  0
  145.1808  134.9646  162.1887 H   0  0  0  0  0  0  0  0  0  0  0  0
  145.7593  133.3602  162.5828 H   0  0  0  0  0  0  0  0  0  0  0  0
  146.7296  136.8253  162.3659 H   0  0  0  0  0  0  0  0  0  0  0  0
  148.3713  136.4974  162.8763 H   0  0  0  0  0  0  0  0  0  0  0  0
  148.9048  135.3674  160.7764 H   0  0  0  0  0  0  0  0  0  0  0  0
  148.2741  136.9554  160.4163 H   0  0  0  0  0  0  0  0  0  0  0  0
  1  2  1  0  0  0  0
  1 27  1  0  0  0  0
  1 28  1  0  0  0  0
  1 29  1  0  0  0  0
  2  3  1  0  0  0  0
  2  4  1  0  0  0  0
  2 30  1  0  0  0  0
  3 31  1  0  0  0  0
  3 32  1  0  0  0  0
  3 33  1  0  0  0  0
  4  5  1  0  0  0  0
  4 34  1  0  0  0  0
  4 35  1  0  0  0  0
  5  6  1  0  0  0  0
  5  8  1  0  0  0  0
  5 36  1  0  0  0  0
  6  7  1  0  0  0  0
  6 37  1  0  0  0  0
  6 38  1  0  0  0  0
  7 39  1  0  0  0  0
  8  9  1  0  0  0  0
  8 10  1  0  0  0  0
  9 40  1  0  0  0  0
  9 41  1  0  0  0  0
  9 42  1  0  0  0  0
 10 15  1  0  0  0  0
 10 11  2  0  0  0  0
 11 12  1  0  0  0  0
 12 13  2  0  0  0  0
 12 43  1  0  0  0  0
 13 14  1  0  0  0  0
 14 18  1  0  0  0  0
 14 15  2  0  0  0  0
 15 16  1  0  0  0  0
 16 17  2  0  0  0  0
 17 18  1  0  0  0  0
 17 44  1  0  0  0  0
 18 19  1  0  0  0  0
 19 20  1  0  0  0  0
 19 45  1  0  0  0  0
 19 46  1  0  0  0  0
 20 26  1  0  0  0  0
 20 21  1  0  0  0  0
 20 22  1  0  0  0  0
 21 47  1  0  0  0  0
 22 23  1  0  0  0  0
 22 48  1  0  0  0  0
 22 49  1  0  0  0  0
 23 24  1  0  0  0  0
 23 50  1  0  0  0  0
 23 51  1  0  0  0  0
 24 25  1  0  0  0  0
 25 26  1  0  0  0  0
 25 52  1  0  0  0  0
 25 53  1  0  0  0  0
 26 54  1  0  0  0  0
 26 55  1  0  0  0  0
M  END
> <s_m_source_file>
AV-unprocessed.smi

> <i_m_source_file_index>
150

> <i_lp_mmshare_version>
43012

> <i_f3d_flags>
0

> <s_epik_input>
W0NIM11bQ0hdKFtDSDNdKVtDSDJdW0NASF0oW0NIMl1bT0hdKU4oW0NIM10pYyhuW2NIXW4xKWMoYzEyKW5bY0hdbjJbQ0gyXUMzKFtPSF0pW0NIMl1bQ0gyXU9bQ0gyXVtDSDJdMw==

> <s_epik_cmdline>
J2VwaWtfcHl0aG9uJywgJy1waCcsICc3LjAnLCAnLXRuJywgJzgnLCAnLW1hJywgJzIwMCcsICctbWV0YWxfYmluZGluZycsICctaW1hZScsICc8aW5maWxlLm1hZT4nLCAnLW9tYWUnLCAnPG91dGZpbGUubWFlPic=

> <r_lp_tautomer_probability>
1

> <r_epik_Ionization_Penalty>
0.00548416

> <r_epik_Ionization_Penalty_Charging>
0

> <r_epik_Ionization_Penalty_Neutral>
0.00548416

> <r_epik_State_Penalty>
0.0038135

> <r_epik_Charging_Adjusted_Penalty>
0.0038135

> <i_epik_Tot_Q>
0

> <i_epik_Tot_abs_Q>
0

> <r_epik_Metal_State_Penalty>
-0

> <b_epik_Metal_Only>
0

> <s_lp_Force_Field>
OPLS_2005

> <r_lp_Energy>
26.5114

> <b_lp_Chiralities_Consistent>
1

> <s_lp_Variant>
AV-unprocessed.smi:150-2

> <Gold.Version>
5.8.1

> <Gold.Id.Protein>
6NUR|6NUR_protein|mol2

> <Gold.PLP.Fitness>
45.8725

> <Gold.PLP.PLP>
-38.1270

> <Gold.PLP.part.hbond>
-3.4151

> <Gold.PLP.part.metal>
0.0000

> <Gold.PLP.part.buried>
-5.4220

> <Gold.PLP.part.nonpolar>
-30.5029

> <Gold.PLP.part.repulsive>
0.0026

> <Gold.PLP.ligand.clash>
0.0000

> <Gold.PLP.ligand.torsion>
0.8329

> <Gold.PLP.Chemscore.Hbond>
2.6487

> <Gold.PLP.Chemscore.CHOScore>
0.0000

> <Gold.PLP.Chemscore.Metal>
0.0000

> <Gold.Chemscore.Hbonds>
donor molecule, donor type, donor heavy atom, donor atom, acceptor molecule, acceptor atom, score
      L1  H     7    39       P1  7957  0.89
      P1  H  6896  6908       L1    13  0.40
      P1  H  7989  7998       L1     7  0.18
      P1  H  8011  8017       L1     7  0.75

> <Gold.PLP.Chemscore.Internal.Correction>
1.4652

> <Gold.Rescore>
     Score         DG    S(hbond)    S(metal)    S(lipo)     H(rot)  DE(clash)    DE(int)     intcor
     11.26     -14.35       1.96        0.00      94.30       3.40       0.08       3.01       ----

> <Gold.Chemscore.Fitness>
11.2598

> <Gold.Chemscore.DG>
-14.3491

> <Gold.Chemscore.ZeroCoef>
-5.4800

> <Gold.Chemscore.Hbond>
1.9577

> <Gold.Chemscore.Metal>
0.0000

> <Gold.Chemscore.Lipo>
94.3016

> <Gold.Chemscore.Internal_Hbond>
0.0000

> <Gold.Chemscore.DEClash>
0.0781

> <Gold.Chemscore.DEInternal>
3.0113

> <Gold.Chemscore.Rot>
3.3995

> <Gold.Chemscore.Internal.Correction>
   9.000000E+99

> <Gold.Chemscore.Hbonds>
donor molecule, donor type, donor heavy atom, donor atom, acceptor molecule, acceptor atom, score
      L1  H     7    39       P1  7957  0.83
      P1  H  6896  6908       L1    13  0.31
      P1  H  7989  7998       L1     7  0.02
      P1  H  8011  8017       L1     7  0.09

> <Gold.Chemscore.Hbond.Weighted>
-6.5386

> <Gold.Chemscore.Metal.Weighted>
-0.0000

> <Gold.Chemscore.Lipo.Weighted>
-11.0333

> <Gold.Chemscore.Internal_Hbond.Weighted>
0.0000

> <Gold.Chemscore.DEClash.Weighted>
0.0781

> <Gold.Chemscore.DEInternal.Weighted>
3.0113

> <Gold.Chemscore.Rot.Weighted>
8.7028

> <Gold.Chemscore.Internal.Correction.Weighted>
   9.000000E+99

> <Gold.Protein.RotatedTorsions>
[ 6907 6896 6895 6894 ] final  171.05 input  -60.11 | X-H torsion
[ 7974 7965 7964 7962 ] final  -35.26 input  175.53 | X-H torsion
[ 8008 7997 7996 7995 ] final -115.39 input   59.86 | X-H torsion
[ 10167 10162 10161 10158 ] final  104.85 input  -65.29 | X-H torsion
[ 10718 10713 10712 10709 ] final -176.30 input   66.30 | X-H torsion
[ 10763 10752 10751 10750 ] final  161.92 input  -60.55 | X-H torsion
[ 11005 11000 10999 10996 ] final -176.83 input  -57.11 | X-H torsion

> <Gold.Protein.ActiveResidues>
 VAL166  LYS551  ARG553  GLY616  TRP617  ASP618  TYR619  PRO620  LYS621  CYS622 
 ASP623  PHE694  ASN695  SER759  ASP760  ASP761  ALA762  ILE779  LEU786  VAL792 
 PHE793  MET794  SER795  GLU796  ALA797  LYS798  CYS799  TRP800  GLU811  SER814 

> <Gold.Protein.RotatedAtoms>
  151.8064  133.3376  159.3541 H   0  0  0  0  0  0  0  0  0  0  0  0  # atno 6907 bound_to 6896
  150.7341  134.5705  159.5897 H   0  0  0  0  0  0  0  0  0  0  0  0  # atno 6908 bound_to 6896
  152.3106  134.7503  160.0388 H   0  0  0  0  0  0  0  0  0  0  0  0  # atno 6909 bound_to 6896
  146.0761  140.6137  142.8930 H   0  0  0  0  0  0  0  0  0  0  0  0  # atno 7974 bound_to 7965
  155.0514  140.0393  157.2545 H   0  0  0  0  0  0  0  0  0  0  0  0  # atno 8008 bound_to 7997
  154.7135  140.2697  155.6583 H   0  0  0  0  0  0  0  0  0  0  0  0  # atno 8009 bound_to 7997
  156.2796  140.2717  156.1784 H   0  0  0  0  0  0  0  0  0  0  0  0  # atno 8010 bound_to 7997
  139.7142  144.7071  151.0978 H   0  0  0  0  0  0  0  0  0  0  0  0  # atno 10167 bound_to 10162
  156.8126  130.9591  151.3115 H   0  0  0  0  0  0  0  0  0  0  0  0  # atno 10718 bound_to 10713
  154.2703  135.2766  155.2741 H   0  0  0  0  0  0  0  0  0  0  0  0  # atno 10763 bound_to 10752
  154.5307  135.5730  153.6760 H   0  0  0  0  0  0  0  0  0  0  0  0  # atno 10764 bound_to 10752
  152.9946  135.6227  154.2858 H   0  0  0  0  0  0  0  0  0  0  0  0  # atno 10765 bound_to 10752
  140.4477  134.6373  157.4787 H   0  0  0  0  0  0  0  0  0  0  0  0  # atno 11005 bound_to 11000
  144.7263  140.4534  143.6971 LP  0  0  0  0  0  0  0  0  0  0  0  0  # atno 17320 bound_to 7965
  145.6303  139.1535  143.2973 LP  0  0  0  0  0  0  0  0  0  0  0  0  # atno 17321 bound_to 7965
  140.7740  143.5252  150.9488 LP  0  0  0  0  0  0  0  0  0  0  0  0  # atno 17342 bound_to 10162
  139.8938  143.6920  152.3141 LP  0  0  0  0  0  0  0  0  0  0  0  0  # atno 17343 bound_to 10162
  157.6498  130.8875  149.9610 LP  0  0  0  0  0  0  0  0  0  0  0  0  # atno 17370 bound_to 10713
  156.1036  130.3654  150.0174 LP  0  0  0  0  0  0  0  0  0  0  0  0  # atno 17371 bound_to 10713
  140.0028  134.6810  155.9503 LP  0  0  0  0  0  0  0  0  0  0  0  0  # atno 17394 bound_to 11000
  141.1678  133.6537  156.4542 LP  0  0  0  0  0  0  0  0  0  0  0  0  # atno 17395 bound_to 11000

$$$$
