AV-unprocessed.smi:3181|AV-procd|sdf|12141|dock9
  -GOLD-   2272017583D 1   1.00000     0.00000
 Structure written by MMmdl.
 42 43  0  0  0  0  0  0  0  0  2 V2000
  146.5582  138.6297  151.9705 C   0  0  0  0  0  0  0  0  0  0  0  0
  146.3380  137.8599  153.2837 C   0  0  2  0  0  0  0  0  0  0  0  0
  147.0363  138.5215  154.4947 C   0  0  0  0  0  0  0  0  0  0  0  0
  147.1426  139.9635  154.3697 N   0  0  0  0  0  0  0  0  0  0  0  0
  146.1946  140.8959  154.2619 C   0  0  0  0  0  0  0  0  0  0  0  0
  146.6673  142.1302  154.1636 N   0  0  0  0  0  0  0  0  0  0  0  0
  148.0069  141.8681  154.2264 C   0  0  0  0  0  0  0  0  0  0  0  0
  148.3452  140.5846  154.3521 N   0  0  0  0  0  0  0  0  0  0  0  0
  146.7804  136.4575  153.1030 N   0  3  0  0  0  0  0  0  0  0  0  0
  145.7842  135.5263  152.5261 C   0  0  1  0  0  0  0  0  0  0  0  0
  145.3796  135.9952  151.1207 C   0  0  0  0  0  0  0  0  0  0  0  0
  144.3588  135.0348  150.4948 C   0  0  0  0  0  0  0  0  0  0  0  0
  144.8880  133.5873  150.4301 C   0  0  2  0  0  0  0  0  0  0  0  0
  143.8255  132.6720  149.7959 C   0  0  0  0  0  0  0  0  0  0  0  0
  145.3431  133.1043  151.8334 C   0  0  1  0  0  0  0  0  0  0  0  0
  145.9503  131.6902  151.8112 C   0  0  0  0  0  0  0  0  0  0  0  0
  146.3502  134.0962  152.4523 C   0  0  0  0  0  0  0  0  0  0  0  0
  146.1359  139.6339  152.0159 H   0  0  0  0  0  0  0  0  0  0  0  0
  146.0800  138.1204  151.1332 H   0  0  0  0  0  0  0  0  0  0  0  0
  147.6197  138.7243  151.7397 H   0  0  0  0  0  0  0  0  0  0  0  0
  145.2625  137.8452  153.4671 H   0  0  0  0  0  0  0  0  0  0  0  0
  146.4877  138.3154  155.4138 H   0  0  0  0  0  0  0  0  0  0  0  0
  148.0370  138.1067  154.6290 H   0  0  0  0  0  0  0  0  0  0  0  0
  145.1389  140.6675  154.2527 H   0  0  0  0  0  0  0  0  0  0  0  0
  148.7546  142.6461  154.1772 H   0  0  0  0  0  0  0  0  0  0  0  0
  147.5621  136.4800  152.4640 H   0  0  0  0  0  0  0  0  0  0  0  0
  144.8876  135.5226  153.1485 H   0  0  0  0  0  0  0  0  0  0  0  0
  144.9546  136.9989  151.1685 H   0  0  0  0  0  0  0  0  0  0  0  0
  146.2594  136.0611  150.4788 H   0  0  0  0  0  0  0  0  0  0  0  0
  143.4335  135.0636  151.0720 H   0  0  0  0  0  0  0  0  0  0  0  0
  144.1048  135.3830  149.4929 H   0  0  0  0  0  0  0  0  0  0  0  0
  145.7585  133.5837  149.7721 H   0  0  0  0  0  0  0  0  0  0  0  0
  142.9512  132.5721  150.4400 H   0  0  0  0  0  0  0  0  0  0  0  0
  144.2148  131.6733  149.6003 H   0  0  0  0  0  0  0  0  0  0  0  0
  143.4869  133.0708  148.8393 H   0  0  0  0  0  0  0  0  0  0  0  0
  144.4670  133.0743  152.4833 H   0  0  0  0  0  0  0  0  0  0  0  0
  146.7924  131.6307  151.1208 H   0  0  0  0  0  0  0  0  0  0  0  0
  145.2186  130.9394  151.5141 H   0  0  0  0  0  0  0  0  0  0  0  0
  146.3119  131.4032  152.7990 H   0  0  0  0  0  0  0  0  0  0  0  0
  147.2689  134.0966  151.8632 H   0  0  0  0  0  0  0  0  0  0  0  0
  146.6307  133.7537  153.4483 H   0  0  0  0  0  0  0  0  0  0  0  0
  147.1075  136.0902  153.9854 H   0  0  0  0  0  0  0  0  0  0  0  0
  1  2  1  0  0  0  0
  1 18  1  0  0  0  0
  1 19  1  0  0  0  0
  1 20  1  0  0  0  0
  2  3  1  0  0  0  0
  2  9  1  0  0  0  0
  2 21  1  0  0  0  0
  3  4  1  0  0  0  0
  3 22  1  0  0  0  0
  3 23  1  0  0  0  0
  4  8  1  0  0  0  0
  4  5  1  0  0  0  0
  5  6  2  0  0  0  0
  5 24  1  0  0  0  0
  6  7  1  0  0  0  0
  7  8  2  0  0  0  0
  7 25  1  0  0  0  0
  9 10  1  0  0  0  0
  9 26  1  0  0  0  0
  9 42  1  0  0  0  0
 10 17  1  0  0  0  0
 10 11  1  0  0  0  0
 10 27  1  0  0  0  0
 11 12  1  0  0  0  0
 11 28  1  0  0  0  0
 11 29  1  0  0  0  0
 12 13  1  0  0  0  0
 12 30  1  0  0  0  0
 12 31  1  0  0  0  0
 13 14  1  0  0  0  0
 13 15  1  0  0  0  0
 13 32  1  0  0  0  0
 14 33  1  0  0  0  0
 14 34  1  0  0  0  0
 14 35  1  0  0  0  0
 15 16  1  0  0  0  0
 15 17  1  0  0  0  0
 15 36  1  0  0  0  0
 16 37  1  0  0  0  0
 16 38  1  0  0  0  0
 16 39  1  0  0  0  0
 17 40  1  0  0  0  0
 17 41  1  0  0  0  0
M  CHG  1   9   1
M  END
> <s_m_source_file>
AV-unprocessed.smi

> <i_m_source_file_index>
3181

> <i_lp_mmshare_version>
43012

> <i_f3d_flags>
0

> <s_epik_input>
bjFbY0hdbltjSF1uMVtDSDJdW0NAQEhdKFtDSDNdKVtOSF1bQ0BASF0yW0NIMl1bQ0gyXVtDQEBIXShbQ0gzXSlbQ0BASF0oW0NIM10pW0NIMl0y

> <s_epik_cmdline>
J2VwaWtfcHl0aG9uJywgJy1waCcsICc3LjAnLCAnLXRuJywgJzgnLCAnLW1hJywgJzIwMCcsICctbWV0YWxfYmluZGluZycsICctaW1hZScsICc8aW5maWxlLm1hZT4nLCAnLW9tYWUnLCAnPG91dGZpbGUubWFlPic=

> <r_lp_tautomer_probability>
1

> <r_epik_Ionization_Penalty>
0.000617007

> <r_epik_Ionization_Penalty_Charging>
0.000616215

> <r_epik_Ionization_Penalty_Neutral>
7.92544e-07

> <r_epik_State_Penalty>
0.000388807

> <r_epik_Charging_Adjusted_Penalty>
0.00100502

> <i_epik_Tot_Q>
1

> <i_epik_Tot_abs_Q>
1

> <r_epik_Metal_State_Penalty>
-0

> <b_epik_Metal_Only>
0

> <s_lp_Force_Field>
OPLS_2005

> <r_lp_Energy>
19.8131

> <b_lp_Chiralities_Consistent>
1

> <s_lp_Variant>
AV-unprocessed.smi:3181-7

> <Gold.Version>
5.8.1

> <Gold.Id.Protein>
6NUR|6NUR_protein|mol2

> <Gold.PLP.Fitness>
39.9333

> <Gold.PLP.PLP>
-29.4793

> <Gold.PLP.part.hbond>
-0.9271

> <Gold.PLP.part.metal>
0.0000

> <Gold.PLP.part.buried>
-4.2905

> <Gold.PLP.part.nonpolar>
-26.3331

> <Gold.PLP.part.repulsive>
0.2970

> <Gold.PLP.ligand.clash>
0.0000

> <Gold.PLP.ligand.torsion>
0.6865

> <Gold.PLP.Chemscore.Hbond>
2.0000

> <Gold.PLP.Chemscore.CHOScore>
1.9364

> <Gold.PLP.Chemscore.Metal>
0.0000

> <Gold.Chemscore.Hbonds>
donor molecule, donor type, donor heavy atom, donor atom, acceptor molecule, acceptor atom, score
      L1  H     9    26       P1  7948  1.98
      L1  C     5    24       P1 10175  1.00
      L1  C     7    25       P1  8028  0.93

> <Gold.PLP.Chemscore.Internal.Correction>
0.0177

> <Gold.Rescore>
     Score         DG    S(hbond)    S(metal)    S(lipo)     H(rot)  DE(clash)    DE(int)     intcor
     10.54     -11.29       0.97        0.00      68.24       2.11       0.07       0.68       ----

> <Gold.Chemscore.Fitness>
10.5441

> <Gold.Chemscore.DG>
-11.2876

> <Gold.Chemscore.ZeroCoef>
-5.4800

> <Gold.Chemscore.Hbond>
0.9651

> <Gold.Chemscore.Metal>
0.0000

> <Gold.Chemscore.Lipo>
68.2443

> <Gold.Chemscore.Internal_Hbond>
0.0000

> <Gold.Chemscore.DEClash>
0.0655

> <Gold.Chemscore.DEInternal>
0.6781

> <Gold.Chemscore.Rot>
2.1095

> <Gold.Chemscore.Internal.Correction>
   9.000000E+99

> <Gold.Chemscore.Hbonds>
donor molecule, donor type, donor heavy atom, donor atom, acceptor molecule, acceptor atom, score
      L1  H     9    26       P1  7948  0.92

> <Gold.Chemscore.Hbond.Weighted>
-3.2233

> <Gold.Chemscore.Metal.Weighted>
-0.0000

> <Gold.Chemscore.Lipo.Weighted>
-7.9846

> <Gold.Chemscore.Internal_Hbond.Weighted>
0.0000

> <Gold.Chemscore.DEClash.Weighted>
0.0655

> <Gold.Chemscore.DEInternal.Weighted>
0.6781

> <Gold.Chemscore.Rot.Weighted>
5.4003

> <Gold.Chemscore.Internal.Correction.Weighted>
   9.000000E+99

> <Gold.Protein.RotatedTorsions>
[ 6907 6896 6895 6894 ] final   75.44 input  -60.11 | X-H torsion
[ 7974 7965 7964 7962 ] final  -28.09 input  175.53 | X-H torsion
[ 8008 7997 7996 7995 ] final -119.29 input   59.86 | X-H torsion
[ 10167 10162 10161 10158 ] final  -59.00 input  -65.29 | X-H torsion
[ 10718 10713 10712 10709 ] final  109.87 input   66.30 | X-H torsion
[ 10763 10752 10751 10750 ] final -167.16 input  -60.55 | X-H torsion
[ 11005 11000 10999 10996 ] final   31.36 input  -57.11 | X-H torsion

> <Gold.Protein.ActiveResidues>
 VAL166  LYS551  ARG553  GLY616  TRP617  ASP618  TYR619  PRO620  LYS621  CYS622 
 ASP623  PHE694  ASN695  SER759  ASP760  ASP761  ALA762  ILE779  LEU786  VAL792 
 PHE793  MET794  SER795  GLU796  ALA797  LYS798  CYS799  TRP800  GLU811  SER814 

> <Gold.Protein.RotatedAtoms>
  152.5026  134.4119  159.9451 H   0  0  0  0  0  0  0  0  0  0  0  0  # atno 6907 bound_to 6896
  151.4088  133.3728  159.2749 H   0  0  0  0  0  0  0  0  0  0  0  0  # atno 6908 bound_to 6896
  150.9307  134.8744  159.7608 H   0  0  0  0  0  0  0  0  0  0  0  0  # atno 6909 bound_to 6896
  146.1312  140.5237  142.8692 H   0  0  0  0  0  0  0  0  0  0  0  0  # atno 7974 bound_to 7965
  155.1134  140.0397  157.2730 H   0  0  0  0  0  0  0  0  0  0  0  0  # atno 8008 bound_to 7997
  154.6668  140.2603  155.7024 H   0  0  0  0  0  0  0  0  0  0  0  0  # atno 8009 bound_to 7997
  156.2642  140.2806  156.1162 H   0  0  0  0  0  0  0  0  0  0  0  0  # atno 8010 bound_to 7997
  140.6162  143.2403  151.5590 H   0  0  0  0  0  0  0  0  0  0  0  0  # atno 10167 bound_to 10162
  157.6521  131.0922  150.6517 H   0  0  0  0  0  0  0  0  0  0  0  0  # atno 10718 bound_to 10713
  154.6760  135.2947  154.9678 H   0  0  0  0  0  0  0  0  0  0  0  0  # atno 10763 bound_to 10752
  154.0689  135.6621  153.4825 H   0  0  0  0  0  0  0  0  0  0  0  0  # atno 10764 bound_to 10752
  153.0516  135.5170  154.7779 H   0  0  0  0  0  0  0  0  0  0  0  0  # atno 10765 bound_to 10752
  140.2847  134.2933  155.7791 H   0  0  0  0  0  0  0  0  0  0  0  0  # atno 11005 bound_to 11000
  144.7693  140.5601  143.6681 LP  0  0  0  0  0  0  0  0  0  0  0  0  # atno 17320 bound_to 7965
  145.5255  139.1476  143.3528 LP  0  0  0  0  0  0  0  0  0  0  0  0  # atno 17321 bound_to 7965
  139.5401  144.2672  152.1333 LP  0  0  0  0  0  0  0  0  0  0  0  0  # atno 17342 bound_to 10162
  140.1882  144.4778  150.6493 LP  0  0  0  0  0  0  0  0  0  0  0  0  # atno 17343 bound_to 10162
  156.6827  130.4572  149.5623 LP  0  0  0  0  0  0  0  0  0  0  0  0  # atno 17370 bound_to 10713
  156.1917  130.6564  151.1069 LP  0  0  0  0  0  0  0  0  0  0  0  0  # atno 17371 bound_to 10713
  141.2157  133.7547  156.9533 LP  0  0  0  0  0  0  0  0  0  0  0  0  # atno 17394 bound_to 11000
  140.1251  134.9392  157.2258 LP  0  0  0  0  0  0  0  0  0  0  0  0  # atno 17395 bound_to 11000

$$$$
