AV-unprocessed.smi:2083|AV-procd|sdf|8498|dock6
  -GOLD-   2272011203D 1   1.00000     0.00000
 Structure written by MMmdl.
 44 45  0  0  0  0  0  0  0  0  3 V2000
  151.0158  141.3044  155.8754 C   0  0  0  0  0  0  0  0  0  0  0  0
  151.4101  139.9032  155.5542 C   0  0  0  0  0  0  0  0  0  0  0  0
  150.8228  138.9226  154.8060 C   0  0  0  0  0  0  0  0  0  0  0  0
  151.7343  137.8374  154.9189 C   0  0  0  0  0  0  0  0  0  0  0  0
  151.5914  136.6230  154.3661 N   0  5  0  0  0  0  0  0  0  0  0  0
  150.8074  135.6919  154.9552 C   0  0  0  0  0  0  0  0  0  0  0  0
  150.7746  135.4118  156.1555 O   0  0  0  0  0  0  0  0  0  0  0  0
  150.0093  135.0433  154.0975 N   0  0  0  0  0  0  0  0  0  0  0  0
  149.0538  134.0016  154.4548 C   0  0  0  0  0  0  0  0  0  0  0  0
  147.5943  134.5124  154.4000 C   0  0  2  0  0  0  0  0  0  0  0  0
  146.7194  133.7427  155.4205 C   0  0  0  0  0  0  0  0  0  0  0  0
  147.0886  134.4476  152.9890 N   0  3  1  0  0  0  0  0  0  0  0  0
  147.2206  133.1282  152.3046 C   0  0  0  0  0  0  0  0  0  0  0  0
  146.7989  133.2134  150.8284 C   0  0  0  0  0  0  0  0  0  0  0  0
  145.3716  133.7497  150.6864 C   0  0  0  0  0  0  0  0  0  0  0  0
  145.2479  135.1018  151.4038 C   0  0  1  0  0  0  0  0  0  0  0  0
  143.8220  135.6614  151.2983 C   0  0  0  0  0  0  0  0  0  0  0  0
  145.6936  134.9632  152.8729 C   0  0  0  0  0  0  0  0  0  0  0  0
  152.7748  138.1288  155.6808 N   0  0  0  0  0  0  0  0  0  0  0  0
  152.5776  139.4538  156.0876 O   0  0  0  0  0  0  0  0  0  0  0  0
  150.0663  141.3244  156.4104 H   0  0  0  0  0  0  0  0  0  0  0  0
  150.9033  141.8914  154.9639 H   0  0  0  0  0  0  0  0  0  0  0  0
  151.7654  141.7912  156.4998 H   0  0  0  0  0  0  0  0  0  0  0  0
  149.8918  138.9733  154.2618 H   0  0  0  0  0  0  0  0  0  0  0  0
  150.0669  135.3031  153.1236 H   0  0  0  0  0  0  0  0  0  0  0  0
  149.2149  133.1660  153.7750 H   0  0  0  0  0  0  0  0  0  0  0  0
  149.2721  133.6342  155.4592 H   0  0  0  0  0  0  0  0  0  0  0  0
  147.5810  135.5588  154.7099 H   0  0  0  0  0  0  0  0  0  0  0  0
  147.1268  133.8051  156.4296 H   0  0  0  0  0  0  0  0  0  0  0  0
  146.6468  132.6844  155.1673 H   0  0  0  0  0  0  0  0  0  0  0  0
  145.7110  134.1516  155.4853 H   0  0  0  0  0  0  0  0  0  0  0  0
  148.2539  132.7838  152.3166 H   0  0  0  0  0  0  0  0  0  0  0  0
  146.6214  132.3813  152.8282 H   0  0  0  0  0  0  0  0  0  0  0  0
  147.4892  133.8630  150.2885 H   0  0  0  0  0  0  0  0  0  0  0  0
  146.8736  132.2302  150.3630 H   0  0  0  0  0  0  0  0  0  0  0  0
  145.1174  133.8539  149.6310 H   0  0  0  0  0  0  0  0  0  0  0  0
  144.6653  133.0342  151.1096 H   0  0  0  0  0  0  0  0  0  0  0  0
  145.9161  135.8111  150.9127 H   0  0  0  0  0  0  0  0  0  0  0  0
  143.0987  134.9999  151.7764 H   0  0  0  0  0  0  0  0  0  0  0  0
  143.5237  135.7820  150.2564 H   0  0  0  0  0  0  0  0  0  0  0  0
  143.7467  136.6381  151.7768 H   0  0  0  0  0  0  0  0  0  0  0  0
  145.0172  134.2927  153.4060 H   0  0  0  0  0  0  0  0  0  0  0  0
  145.6044  135.9355  153.3550 H   0  0  0  0  0  0  0  0  0  0  0  0
  147.6756  135.0800  152.4639 H   0  0  0  0  0  0  0  0  0  0  0  0
  1  2  1  0  0  0  0
  1 21  1  0  0  0  0
  1 22  1  0  0  0  0
  1 23  1  0  0  0  0
  2 20  1  0  0  0  0
  2  3  2  0  0  0  0
  3  4  1  0  0  0  0
  3 24  1  0  0  0  0
  4  5  1  0  0  0  0
  4 19  2  0  0  0  0
  5  6  1  0  0  0  0
  6  7  2  0  0  0  0
  6  8  1  0  0  0  0
  8  9  1  0  0  0  0
  8 25  1  0  0  0  0
  9 10  1  0  0  0  0
  9 26  1  0  0  0  0
  9 27  1  0  0  0  0
 10 11  1  0  0  0  0
 10 12  1  0  0  0  0
 10 28  1  0  0  0  0
 11 29  1  0  0  0  0
 11 30  1  0  0  0  0
 11 31  1  0  0  0  0
 12 18  1  0  0  0  0
 12 13  1  0  0  0  0
 12 44  1  0  0  0  0
 13 14  1  0  0  0  0
 13 32  1  0  0  0  0
 13 33  1  0  0  0  0
 14 15  1  0  0  0  0
 14 34  1  0  0  0  0
 14 35  1  0  0  0  0
 15 16  1  0  0  0  0
 15 36  1  0  0  0  0
 15 37  1  0  0  0  0
 16 17  1  0  0  0  0
 16 18  1  0  0  0  0
 16 38  1  0  0  0  0
 17 39  1  0  0  0  0
 17 40  1  0  0  0  0
 17 41  1  0  0  0  0
 18 42  1  0  0  0  0
 18 43  1  0  0  0  0
 19 20  1  0  0  0  0
M  CHG  1   5  -1
M  CHG  1  12   1
M  END
> <s_m_source_file>
AV-unprocessed.smi

> <i_m_source_file_index>
2083

> <i_lp_mmshare_version>
43012

> <i_f3d_flags>
0

> <s_epik_input>
W0NIM11jMVtjSF1jKG5vMSlbTkhdQyg9TylbTkhdW0NIMl1bQ0BIXShbQ0gzXSlOMltDSDJdW0NIMl1bQ0gyXVtDQEBIXShbQ0gzXSlbQ0gyXTI=

> <s_epik_cmdline>
J2VwaWtfcHl0aG9uJywgJy1waCcsICc3LjAnLCAnLXRuJywgJzgnLCAnLW1hJywgJzIwMCcsICctbWV0YWxfYmluZGluZycsICctaW1hZScsICc8aW5maWxlLm1hZT4nLCAnLW9tYWUnLCAnPG91dGZpbGUubWFlPic=

> <r_epik_Ionization_Penalty>
6.22434

> <r_epik_Ionization_Penalty_Charging>
6.22425

> <r_epik_Ionization_Penalty_Neutral>
9.62407e-05

> <r_epik_State_Penalty>
6.22423

> <r_epik_Charging_Adjusted_Penalty>
12.4485

> <i_epik_Tot_Q>
0

> <i_epik_Tot_abs_Q>
2

> <r_epik_Metal_State_Penalty>
2.16764

> <b_epik_Metal_Only>
1

> <s_lp_Force_Field>
OPLS_2005

> <r_lp_Energy>
12.4443

> <b_lp_Chiralities_Consistent>
1

> <s_lp_Variant>
AV-unprocessed.smi:2083-9

> <Gold.Version>
5.8.1

> <Gold.Id.Protein>
6NUR|6NUR_protein|mol2

> <Gold.PLP.Fitness>
44.4905

> <Gold.PLP.PLP>
-32.4862

> <Gold.PLP.part.hbond>
-4.8437

> <Gold.PLP.part.metal>
0.0000

> <Gold.PLP.part.buried>
-2.5177

> <Gold.PLP.part.nonpolar>
-24.6289

> <Gold.PLP.part.repulsive>
0.6566

> <Gold.PLP.ligand.clash>
0.0000

> <Gold.PLP.ligand.torsion>
1.5377

> <Gold.PLP.Chemscore.Hbond>
5.0000

> <Gold.PLP.Chemscore.CHOScore>
0.0000

> <Gold.PLP.Chemscore.Metal>
0.0000

> <Gold.Chemscore.Hbonds>
donor molecule, donor type, donor heavy atom, donor atom, acceptor molecule, acceptor atom, score
      L1  H    12    44       P1  7948  2.00
      P1  H  7997  8009       L1    20  0.96
      P1  H 10752 10763       L1     5  1.60

> <Gold.PLP.Chemscore.Internal.Correction>
0.0796

> <Gold.Rescore>
     Score         DG    S(hbond)    S(metal)    S(lipo)     H(rot)  DE(clash)    DE(int)     intcor
     15.75     -17.30       2.67        0.00      58.16       1.52       0.01       1.54       ----

> <Gold.Chemscore.Fitness>
15.7494

> <Gold.Chemscore.DG>
-17.3008

> <Gold.Chemscore.ZeroCoef>
-5.4800

> <Gold.Chemscore.Hbond>
2.6661

> <Gold.Chemscore.Metal>
0.0000

> <Gold.Chemscore.Lipo>
58.1603

> <Gold.Chemscore.Internal_Hbond>
0.0000

> <Gold.Chemscore.DEClash>
0.0064

> <Gold.Chemscore.DEInternal>
1.5449

> <Gold.Chemscore.Rot>
1.5190

> <Gold.Chemscore.Internal.Correction>
   9.000000E+99

> <Gold.Chemscore.Hbonds>
donor molecule, donor type, donor heavy atom, donor atom, acceptor molecule, acceptor atom, score
      L1  H    12    44       P1  7948  0.98
      P1  H  7997  8009       L1    20  0.40
      P1  H 10752 10763       L1     5  0.11

> <Gold.Chemscore.Hbond.Weighted>
-8.9047

> <Gold.Chemscore.Metal.Weighted>
-0.0000

> <Gold.Chemscore.Lipo.Weighted>
-6.8048

> <Gold.Chemscore.Internal_Hbond.Weighted>
0.0000

> <Gold.Chemscore.DEClash.Weighted>
0.0064

> <Gold.Chemscore.DEInternal.Weighted>
1.5449

> <Gold.Chemscore.Rot.Weighted>
3.8886

> <Gold.Chemscore.Internal.Correction.Weighted>
   9.000000E+99

> <Gold.Protein.RotatedTorsions>
[ 6907 6896 6895 6894 ] final  -21.99 input  -60.11 | X-H torsion
[ 7974 7965 7964 7962 ] final -165.25 input  175.53 | X-H torsion
[ 8008 7997 7996 7995 ] final  176.98 input   59.86 | X-H torsion
[ 10167 10162 10161 10158 ] final  131.33 input  -65.29 | X-H torsion
[ 10718 10713 10712 10709 ] final  139.24 input   66.30 | X-H torsion
[ 10763 10752 10751 10750 ] final   39.52 input  -60.55 | X-H torsion
[ 11005 11000 10999 10996 ] final    5.13 input  -57.11 | X-H torsion

> <Gold.Protein.ActiveResidues>
 VAL166  LYS551  ARG553  GLY616  TRP617  ASP618  TYR619  PRO620  LYS621  CYS622 
 ASP623  PHE694  ASN695  SER759  ASP760  ASP761  ALA762  ILE779  LEU786  VAL792 
 PHE793  MET794  SER795  GLU796  ALA797  LYS798  CYS799  TRP800  GLU811  SER814 

> <Gold.Protein.RotatedAtoms>
  151.2251  135.0533  159.8965 H   0  0  0  0  0  0  0  0  0  0  0  0  # atno 6907 bound_to 6896
  152.5411  134.0598  159.8157 H   0  0  0  0  0  0  0  0  0  0  0  0  # atno 6908 bound_to 6896
  151.0769  133.5372  159.2655 H   0  0  0  0  0  0  0  0  0  0  0  0  # atno 6909 bound_to 6896
  144.7275  140.2842  143.6231 H   0  0  0  0  0  0  0  0  0  0  0  0  # atno 7974 bound_to 7965
  156.0706  140.1370  156.9833 H   0  0  0  0  0  0  0  0  0  0  0  0  # atno 8008 bound_to 7997
  154.4530  140.0972  156.6725 H   0  0  0  0  0  0  0  0  0  0  0  0  # atno 8009 bound_to 7997
  155.5234  140.3457  155.4413 H   0  0  0  0  0  0  0  0  0  0  0  0  # atno 8010 bound_to 7997
  139.5389  144.6711  151.4692 H   0  0  0  0  0  0  0  0  0  0  0  0  # atno 10167 bound_to 10162
  157.4166  131.1034  151.0398 H   0  0  0  0  0  0  0  0  0  0  0  0  # atno 10718 bound_to 10713
  152.9964  135.6218  154.2479 H   0  0  0  0  0  0  0  0  0  0  0  0  # atno 10763 bound_to 10752
  154.2218  135.2795  155.2924 H   0  0  0  0  0  0  0  0  0  0  0  0  # atno 10764 bound_to 10752
  154.5522  135.5730  153.6991 H   0  0  0  0  0  0  0  0  0  0  0  0  # atno 10765 bound_to 10752
  140.5741  134.0074  155.8021 H   0  0  0  0  0  0  0  0  0  0  0  0  # atno 11005 bound_to 11000
  145.7919  139.1930  143.2098 LP  0  0  0  0  0  0  0  0  0  0  0  0  # atno 17320 bound_to 7965
  146.0748  140.7829  142.9670 LP  0  0  0  0  0  0  0  0  0  0  0  0  # atno 17321 bound_to 7965
  140.6609  143.8500  150.6887 LP  0  0  0  0  0  0  0  0  0  0  0  0  # atno 17342 bound_to 10162
  140.1894  143.4049  152.1874 LP  0  0  0  0  0  0  0  0  0  0  0  0  # atno 17343 bound_to 10162
  157.1344  130.6116  149.5538 LP  0  0  0  0  0  0  0  0  0  0  0  0  # atno 17370 bound_to 10713
  155.9867  130.4903  150.7091 LP  0  0  0  0  0  0  0  0  0  0  0  0  # atno 17371 bound_to 10713
  141.1037  133.9727  157.3034 LP  0  0  0  0  0  0  0  0  0  0  0  0  # atno 17394 bound_to 11000
  139.9348  135.0197  156.8518 LP  0  0  0  0  0  0  0  0  0  0  0  0  # atno 17395 bound_to 11000

$$$$
