AV-unprocessed.smi:1596|AV-procd|sdf|6419|dock7
  -GOLD-   22720 7 53D 1   1.00000     0.00000
 Structure written by MMmdl.
 48 49  0  0  0  0  0  0  0  0  1 V2000
  152.4804  141.5096  159.7193 C   0  0  0  0  0  0  0  0  0  0  0  0
  152.1397  140.8647  158.3660 C   0  0  0  0  0  0  0  0  0  0  0  0
  150.9893  141.4784  157.7026 N   0  0  0  0  0  0  0  0  0  0  0  0
  151.2296  142.8265  157.1887 C   0  0  0  0  0  0  0  0  0  0  0  0
  151.3475  143.8921  158.2908 C   0  0  0  0  0  0  0  0  0  0  0  0
  150.3765  140.6362  156.7575 C   0  0  0  0  0  0  0  0  0  0  0  0
  151.1217  140.2000  155.6421 C   0  0  0  0  0  0  0  0  0  0  0  0
  150.5054  139.3538  154.7009 C   0  0  0  0  0  0  0  0  0  0  0  0
  149.1611  138.9640  154.9087 C   0  0  0  0  0  0  0  0  0  0  0  0
  148.4233  138.1354  154.0208 N   0  0  0  0  0  0  0  0  0  0  0  0
  147.0905  137.9900  153.9278 C   0  0  0  0  0  0  0  0  0  0  0  0
  146.2592  138.6143  154.5868 O   0  0  0  0  0  0  0  0  0  0  0  0
  146.7664  137.0822  152.9957 N   0  0  0  0  0  0  0  0  0  0  0  0
  145.4067  136.6941  152.6325 C   0  0  2  0  0  0  0  0  0  0  0  0
  144.7101  136.0526  153.8461 C   0  0  0  0  0  0  0  0  0  0  0  0
  143.2870  135.5829  153.4964 C   0  0  0  0  0  0  0  0  0  0  0  0
  143.2669  134.6357  152.2819 C   0  0  2  0  0  0  0  0  0  0  0  0
  143.8465  133.3931  152.6280 O   0  0  0  0  0  0  0  0  0  0  0  0
  144.0051  135.2455  151.0752 C   0  0  0  0  0  0  0  0  0  0  0  0
  145.4234  135.7214  151.4364 C   0  0  0  0  0  0  0  0  0  0  0  0
  148.5006  139.4671  156.0486 C   0  0  0  0  0  0  0  0  0  0  0  0
  149.0862  140.2763  156.9562 N   0  0  0  0  0  0  0  0  0  0  0  0
  153.3817  141.0637  160.1398 H   0  0  0  0  0  0  0  0  0  0  0  0
  151.6803  141.3745  160.4474 H   0  0  0  0  0  0  0  0  0  0  0  0
  152.6601  142.5795  159.6104 H   0  0  0  0  0  0  0  0  0  0  0  0
  153.0062  140.9550  157.7102 H   0  0  0  0  0  0  0  0  0  0  0  0
  151.9653  139.7957  158.4958 H   0  0  0  0  0  0  0  0  0  0  0  0
  152.1552  142.8189  156.6122 H   0  0  0  0  0  0  0  0  0  0  0  0
  150.4369  143.1002  156.4912 H   0  0  0  0  0  0  0  0  0  0  0  0
  151.5906  144.8630  157.8590 H   0  0  0  0  0  0  0  0  0  0  0  0
  152.1362  143.6378  158.9996 H   0  0  0  0  0  0  0  0  0  0  0  0
  150.4172  144.0080  158.8478 H   0  0  0  0  0  0  0  0  0  0  0  0
  152.1472  140.5116  155.5074 H   0  0  0  0  0  0  0  0  0  0  0  0
  151.0683  139.0363  153.8372 H   0  0  0  0  0  0  0  0  0  0  0  0
  148.9743  137.6257  153.3456 H   0  0  0  0  0  0  0  0  0  0  0  0
  147.5157  136.6248  152.4975 H   0  0  0  0  0  0  0  0  0  0  0  0
  144.8423  137.5864  152.3539 H   0  0  0  0  0  0  0  0  0  0  0  0
  145.2952  135.2044  154.2044 H   0  0  0  0  0  0  0  0  0  0  0  0
  144.6663  136.7651  154.6706 H   0  0  0  0  0  0  0  0  0  0  0  0
  142.8281  135.1008  154.3603 H   0  0  0  0  0  0  0  0  0  0  0  0
  142.6724  136.4565  153.2750 H   0  0  0  0  0  0  0  0  0  0  0  0
  142.2318  134.4361  152.0029 H   0  0  0  0  0  0  0  0  0  0  0  0
  143.3497  133.0174  153.3389 H   0  0  0  0  0  0  0  0  0  0  0  0
  144.0477  134.5283  150.2549 H   0  0  0  0  0  0  0  0  0  0  0  0
  143.4333  136.0967  150.7034 H   0  0  0  0  0  0  0  0  0  0  0  0
  145.8767  136.2013  150.5682 H   0  0  0  0  0  0  0  0  0  0  0  0
  146.0482  134.8584  151.6706 H   0  0  0  0  0  0  0  0  0  0  0  0
  147.4699  139.2090  156.2437 H   0  0  0  0  0  0  0  0  0  0  0  0
  1  2  1  0  0  0  0
  1 23  1  0  0  0  0
  1 24  1  0  0  0  0
  1 25  1  0  0  0  0
  2  3  1  0  0  0  0
  2 26  1  0  0  0  0
  2 27  1  0  0  0  0
  3  4  1  0  0  0  0
  3  6  1  0  0  0  0
  4  5  1  0  0  0  0
  4 28  1  0  0  0  0
  4 29  1  0  0  0  0
  5 30  1  0  0  0  0
  5 31  1  0  0  0  0
  5 32  1  0  0  0  0
  6 22  1  0  0  0  0
  6  7  2  0  0  0  0
  7  8  1  0  0  0  0
  7 33  1  0  0  0  0
  8  9  2  0  0  0  0
  8 34  1  0  0  0  0
  9 10  1  0  0  0  0
  9 21  1  0  0  0  0
 10 11  1  0  0  0  0
 10 35  1  0  0  0  0
 11 12  2  0  0  0  0
 11 13  1  0  0  0  0
 13 14  1  0  0  0  0
 13 36  1  0  0  0  0
 14 20  1  0  0  0  0
 14 15  1  0  0  0  0
 14 37  1  0  0  0  0
 15 16  1  0  0  0  0
 15 38  1  0  0  0  0
 15 39  1  0  0  0  0
 16 17  1  0  0  0  0
 16 40  1  0  0  0  0
 16 41  1  0  0  0  0
 17 18  1  0  0  0  0
 17 19  1  0  0  0  0
 17 42  1  0  0  0  0
 18 43  1  0  0  0  0
 19 20  1  0  0  0  0
 19 44  1  0  0  0  0
 19 45  1  0  0  0  0
 20 46  1  0  0  0  0
 20 47  1  0  0  0  0
 21 22  2  0  0  0  0
 21 48  1  0  0  0  0
M  END
> <s_m_source_file>
AV-unprocessed.smi

> <i_m_source_file_index>
1596

> <i_lp_mmshare_version>
43012

> <i_f3d_flags>
0

> <s_epik_input>
W0NIM11bQ0gyXU4oW0NIMl1bQ0gzXSljMVtjSF1bY0hdYyhbY0hdbjEpW05IXUMoPU8pW05IXVtDQEBIXTJbQ0gyXVtDSDJdW0NAQEhdKFtPSF0pW0NIMl1bQ0gyXTI=

> <s_epik_cmdline>
J2VwaWtfcHl0aG9uJywgJy1waCcsICc3LjAnLCAnLXRuJywgJzgnLCAnLW1hJywgJzIwMCcsICctbWV0YWxfYmluZGluZycsICctaW1hZScsICc8aW5maWxlLm1hZT4nLCAnLW9tYWUnLCAnPG91dGZpbGUubWFlPic=

> <r_lp_tautomer_probability>
1

> <r_epik_Ionization_Penalty>
0.709395

> <r_epik_Ionization_Penalty_Charging>
0

> <r_epik_Ionization_Penalty_Neutral>
0.709395

> <r_epik_State_Penalty>
2.20721

> <r_epik_Charging_Adjusted_Penalty>
2.20721

> <i_epik_Tot_Q>
0

> <i_epik_Tot_abs_Q>
0

> <r_epik_Metal_State_Penalty>
1.55411

> <b_epik_Metal_Only>
0

> <s_lp_Force_Field>
OPLS_2005

> <r_lp_Energy>
19.3677

> <b_lp_Chiralities_Consistent>
1

> <s_lp_Variant>
AV-unprocessed.smi:1596-4

> <Gold.Version>
5.8.1

> <Gold.Id.Protein>
6NUR|6NUR_protein|mol2

> <Gold.PLP.Fitness>
41.3289

> <Gold.PLP.PLP>
-33.2536

> <Gold.PLP.part.hbond>
-3.0000

> <Gold.PLP.part.metal>
0.0000

> <Gold.PLP.part.buried>
-5.2062

> <Gold.PLP.part.nonpolar>
-26.3686

> <Gold.PLP.part.repulsive>
0.1742

> <Gold.PLP.ligand.clash>
0.0000

> <Gold.PLP.ligand.torsion>
0.4969

> <Gold.PLP.Chemscore.Hbond>
2.9353

> <Gold.PLP.Chemscore.CHOScore>
0.0000

> <Gold.PLP.Chemscore.Metal>
0.0000

> <Gold.Chemscore.Hbonds>
donor molecule, donor type, donor heavy atom, donor atom, acceptor molecule, acceptor atom, score
      L1  H    10    35       P1  7948  0.94
      L1  H    13    36       P1  7948  1.00
      L1  H    18    43       P1 10957  1.00

> <Gold.PLP.Chemscore.Internal.Correction>
0.2634

> <Gold.Rescore>
     Score         DG    S(hbond)    S(metal)    S(lipo)     H(rot)  DE(clash)    DE(int)     intcor
     17.36     -19.38       2.87        0.00      80.88       2.01       0.00       2.01       ----

> <Gold.Chemscore.Fitness>
17.3637

> <Gold.Chemscore.DG>
-19.3798

> <Gold.Chemscore.ZeroCoef>
-5.4800

> <Gold.Chemscore.Hbond>
2.8654

> <Gold.Chemscore.Metal>
0.0000

> <Gold.Chemscore.Lipo>
80.8786

> <Gold.Chemscore.Internal_Hbond>
0.0000

> <Gold.Chemscore.DEClash>
0.0047

> <Gold.Chemscore.DEInternal>
2.0115

> <Gold.Chemscore.Rot>
2.0052

> <Gold.Chemscore.Internal.Correction>
   9.000000E+99

> <Gold.Chemscore.Hbonds>
donor molecule, donor type, donor heavy atom, donor atom, acceptor molecule, acceptor atom, score
      L1  H    10    35       P1  7948  0.86
      L1  H    13    36       P1  7948  0.99
      L1  H    18    43       P1 10957  0.74

> <Gold.Chemscore.Hbond.Weighted>
-9.5704

> <Gold.Chemscore.Metal.Weighted>
-0.0000

> <Gold.Chemscore.Lipo.Weighted>
-9.4628

> <Gold.Chemscore.Internal_Hbond.Weighted>
0.0000

> <Gold.Chemscore.DEClash.Weighted>
0.0047

> <Gold.Chemscore.DEInternal.Weighted>
2.0115

> <Gold.Chemscore.Rot.Weighted>
5.1334

> <Gold.Chemscore.Internal.Correction.Weighted>
   9.000000E+99

> <Gold.Protein.RotatedTorsions>
[ 6907 6896 6895 6894 ] final  -77.73 input  -60.11 | X-H torsion
[ 7974 7965 7964 7962 ] final -153.84 input  175.53 | X-H torsion
[ 8008 7997 7996 7995 ] final  -46.34 input   59.86 | X-H torsion
[ 10167 10162 10161 10158 ] final  -74.30 input  -65.29 | X-H torsion
[ 10718 10713 10712 10709 ] final  -52.20 input   66.30 | X-H torsion
[ 10763 10752 10751 10750 ] final  136.43 input  -60.55 | X-H torsion
[ 11005 11000 10999 10996 ] final   14.13 input  -57.11 | X-H torsion

> <Gold.Protein.ActiveResidues>
 VAL166  LYS551  ARG553  GLY616  TRP617  ASP618  TYR619  PRO620  LYS621  CYS622 
 ASP623  PHE694  ASN695  SER759  ASP760  ASP761  ALA762  ILE779  LEU786  VAL792 
 PHE793  MET794  SER795  GLU796  ALA797  LYS798  CYS799  TRP800  GLU811  SER814 

> <Gold.Protein.RotatedAtoms>
  150.6991  134.4378  159.5277 H   0  0  0  0  0  0  0  0  0  0  0  0  # atno 6907 bound_to 6896
  152.2093  134.8513  160.0508 H   0  0  0  0  0  0  0  0  0  0  0  0  # atno 6908 bound_to 6896
  151.9404  133.3601  159.4000 H   0  0  0  0  0  0  0  0  0  0  0  0  # atno 6909 bound_to 6896
  144.7720  140.4470  143.5900 H   0  0  0  0  0  0  0  0  0  0  0  0  # atno 7974 bound_to 7965
  154.4007  140.1374  156.3996 H   0  0  0  0  0  0  0  0  0  0  0  0  # atno 8008 bound_to 7997
  155.7837  140.3481  155.5291 H   0  0  0  0  0  0  0  0  0  0  0  0  # atno 8009 bound_to 7997
  155.8648  140.0962  157.1580 H   0  0  0  0  0  0  0  0  0  0  0  0  # atno 8010 bound_to 7997
  140.5038  143.2356  151.7708 H   0  0  0  0  0  0  0  0  0  0  0  0  # atno 10167 bound_to 10162
  156.1643  130.4149  149.9745 H   0  0  0  0  0  0  0  0  0  0  0  0  # atno 10718 bound_to 10713
  153.8564  135.3073  155.3435 H   0  0  0  0  0  0  0  0  0  0  0  0  # atno 10763 bound_to 10752
  154.7868  135.4805  153.9967 H   0  0  0  0  0  0  0  0  0  0  0  0  # atno 10764 bound_to 10752
  153.1487  135.6839  153.9008 H   0  0  0  0  0  0  0  0  0  0  0  0  # atno 10765 bound_to 10752
  140.4729  134.1012  155.7736 H   0  0  0  0  0  0  0  0  0  0  0  0  # atno 11005 bound_to 11000
  145.6297  139.1534  143.2976 LP  0  0  0  0  0  0  0  0  0  0  0  0  # atno 17320 bound_to 7965
  146.1873  140.6401  142.9162 LP  0  0  0  0  0  0  0  0  0  0  0  0  # atno 17321 bound_to 7965
  139.4878  144.4485  151.9681 LP  0  0  0  0  0  0  0  0  0  0  0  0  # atno 17342 bound_to 10162
  140.3575  144.3013  150.5939 LP  0  0  0  0  0  0  0  0  0  0  0  0  # atno 17343 bound_to 10162
  156.7565  130.9135  151.3639 LP  0  0  0  0  0  0  0  0  0  0  0  0  # atno 17370 bound_to 10713
  157.6756  130.9091  150.0142 LP  0  0  0  0  0  0  0  0  0  0  0  0  # atno 17371 bound_to 10713
  141.1568  133.8867  157.1955 LP  0  0  0  0  0  0  0  0  0  0  0  0  # atno 17394 bound_to 11000
  139.9874  135.0077  156.9894 LP  0  0  0  0  0  0  0  0  0  0  0  0  # atno 17395 bound_to 11000

$$$$
