AV-unprocessed.smi:3197|AV-procd|sdf|12225|dock10
  -GOLD-   2272018 53D 1   1.00000     0.00000
 Structure written by MMmdl.
 33 34  0  0  0  0  0  0  0  0  1 V2000
  145.0205  132.1752  149.5564 C   0  0  0  0  0  0  0  0  0  0  0  0
  144.1843  133.1974  150.0482 C   0  0  0  0  0  0  0  0  0  0  0  0
  144.6770  134.2484  150.7396 N   0  0  0  0  0  0  0  0  0  0  0  0
  145.9972  134.2789  150.9389 C   0  0  0  0  0  0  0  0  0  0  0  0
  146.4664  135.3667  151.6504 N   0  0  0  0  0  0  0  0  0  0  0  0
  145.6276  136.2376  152.4600 C   0  0  0  0  0  0  0  0  0  0  0  0
  145.9673  137.7149  152.2373 C   0  0  0  0  0  0  0  0  0  0  0  0
  146.8646  138.1448  153.2478 O   0  0  0  0  0  0  0  0  0  0  0  0
  147.4107  139.4271  152.9864 C   0  0  0  0  0  0  0  0  0  0  0  0
  148.2308  139.8810  154.2023 C   0  0  2  0  0  0  0  0  0  0  0  0
  148.4475  141.3785  154.2756 C   0  0  0  0  0  0  0  0  0  0  0  0
  149.6321  141.4764  155.2315 C   0  0  0  0  0  0  0  0  0  0  0  0
  150.4089  140.3038  155.0055 O   0  0  0  0  0  0  0  0  0  0  0  0
  149.6740  139.3751  154.2129 C   0  0  0  0  0  0  0  0  0  0  0  0
  146.8822  133.3661  150.5197 N   0  0  0  0  0  0  0  0  0  0  0  0
  146.3964  132.3128  149.8273 C   0  0  0  0  0  0  0  0  0  0  0  0
  144.6295  131.3342  149.0034 H   0  0  0  0  0  0  0  0  0  0  0  0
  143.1169  133.1717  149.8868 H   0  0  0  0  0  0  0  0  0  0  0  0
  147.4618  135.5350  151.6384 H   0  0  0  0  0  0  0  0  0  0  0  0
  144.5863  136.0618  152.1880 H   0  0  0  0  0  0  0  0  0  0  0  0
  145.7330  135.9779  153.5140 H   0  0  0  0  0  0  0  0  0  0  0  0
  146.3958  137.8648  151.2448 H   0  0  0  0  0  0  0  0  0  0  0  0
  145.0537  138.3086  152.2911 H   0  0  0  0  0  0  0  0  0  0  0  0
  148.0370  139.3965  152.0933 H   0  0  0  0  0  0  0  0  0  0  0  0
  146.6055  140.1388  152.7974 H   0  0  0  0  0  0  0  0  0  0  0  0
  147.7340  139.5570  155.1185 H   0  0  0  0  0  0  0  0  0  0  0  0
  148.7245  141.7725  153.2965 H   0  0  0  0  0  0  0  0  0  0  0  0
  147.5713  141.9232  154.6288 H   0  0  0  0  0  0  0  0  0  0  0  0
  150.2200  142.3813  155.0765 H   0  0  0  0  0  0  0  0  0  0  0  0
  149.2868  141.4695  156.2660 H   0  0  0  0  0  0  0  0  0  0  0  0
  149.7563  138.3625  154.6084 H   0  0  0  0  0  0  0  0  0  0  0  0
  150.0936  139.3781  153.2060 H   0  0  0  0  0  0  0  0  0  0  0  0
  147.1092  131.5761  149.4877 H   0  0  0  0  0  0  0  0  0  0  0  0
  1 16  1  0  0  0  0
  1  2  2  0  0  0  0
  1 17  1  0  0  0  0
  2  3  1  0  0  0  0
  2 18  1  0  0  0  0
  3  4  2  0  0  0  0
  4  5  1  0  0  0  0
  4 15  1  0  0  0  0
  5  6  1  0  0  0  0
  5 19  1  0  0  0  0
  6  7  1  0  0  0  0
  6 20  1  0  0  0  0
  6 21  1  0  0  0  0
  7  8  1  0  0  0  0
  7 22  1  0  0  0  0
  7 23  1  0  0  0  0
  8  9  1  0  0  0  0
  9 10  1  0  0  0  0
  9 24  1  0  0  0  0
  9 25  1  0  0  0  0
 10 14  1  0  0  0  0
 10 11  1  0  0  0  0
 10 26  1  0  0  0  0
 11 12  1  0  0  0  0
 11 27  1  0  0  0  0
 11 28  1  0  0  0  0
 12 13  1  0  0  0  0
 12 29  1  0  0  0  0
 12 30  1  0  0  0  0
 13 14  1  0  0  0  0
 14 31  1  0  0  0  0
 14 32  1  0  0  0  0
 15 16  2  0  0  0  0
 16 33  1  0  0  0  0
M  END
> <s_m_source_file>
AV-unprocessed.smi

> <i_m_source_file_index>
3197

> <i_lp_mmshare_version>
43012

> <i_f3d_flags>
0

> <s_epik_input>
bjFbY0hdW2NIXVtjSF1uYzFbTkhdW0NIMl1bQ0gyXU9bQ0gyXVtDQEBIXTJbQ0gyXVtDSDJdT1tDSDJdMg==

> <s_epik_cmdline>
J2VwaWtfcHl0aG9uJywgJy1waCcsICc3LjAnLCAnLXRuJywgJzgnLCAnLW1hJywgJzIwMCcsICctbWV0YWxfYmluZGluZycsICctaW1hZScsICc8aW5maWxlLm1hZT4nLCAnLW9tYWUnLCAnPG91dGZpbGUubWFlPic=

> <r_lp_tautomer_probability>
1

> <r_epik_Ionization_Penalty>
0.000570263

> <r_epik_Ionization_Penalty_Charging>
0

> <r_epik_Ionization_Penalty_Neutral>
0.000570263

> <r_epik_State_Penalty>
0.000357543

> <r_epik_Charging_Adjusted_Penalty>
0.000357543

> <i_epik_Tot_Q>
0

> <i_epik_Tot_abs_Q>
0

> <r_epik_Metal_State_Penalty>
-0

> <b_epik_Metal_Only>
0

> <s_lp_Force_Field>
OPLS_2005

> <r_lp_Energy>
12.4723

> <b_lp_Chiralities_Consistent>
1

> <s_lp_Variant>
AV-unprocessed.smi:3197-1

> <Gold.Version>
5.8.1

> <Gold.Id.Protein>
6NUR|6NUR_protein|mol2

> <Gold.PLP.Fitness>
39.3747

> <Gold.PLP.PLP>
-28.7085

> <Gold.PLP.part.hbond>
-2.0000

> <Gold.PLP.part.metal>
0.0000

> <Gold.PLP.part.buried>
-1.1272

> <Gold.PLP.part.nonpolar>
-26.3757

> <Gold.PLP.part.repulsive>
0.7338

> <Gold.PLP.ligand.clash>
0.0000

> <Gold.PLP.ligand.torsion>
0.6902

> <Gold.PLP.Chemscore.Hbond>
2.0000

> <Gold.PLP.Chemscore.CHOScore>
2.0000

> <Gold.PLP.Chemscore.Metal>
0.0000

> <Gold.Chemscore.Hbonds>
donor molecule, donor type, donor heavy atom, donor atom, acceptor molecule, acceptor atom, score
      L1  H     5    19       P1  7948  1.00
      P1  H  7989  7998       L1    13  0.75
      L1  C     2    18       P1 10186  1.00
      L1  C    16    33       P1 10747  1.00

> <Gold.PLP.Chemscore.Internal.Correction>
0.0465

> <Gold.Rescore>
     Score         DG    S(hbond)    S(metal)    S(lipo)     H(rot)  DE(clash)    DE(int)     intcor
     12.69     -13.43       1.16        0.00      75.81       1.88       0.05       0.69       ----

> <Gold.Chemscore.Fitness>
12.6939

> <Gold.Chemscore.DG>
-13.4306

> <Gold.Chemscore.ZeroCoef>
-5.4800

> <Gold.Chemscore.Hbond>
1.1645

> <Gold.Chemscore.Metal>
0.0000

> <Gold.Chemscore.Lipo>
75.8104

> <Gold.Chemscore.Internal_Hbond>
0.0000

> <Gold.Chemscore.DEClash>
0.0471

> <Gold.Chemscore.DEInternal>
0.6896

> <Gold.Chemscore.Rot>
1.8784

> <Gold.Chemscore.Internal.Correction>
   9.000000E+99

> <Gold.Chemscore.Hbonds>
donor molecule, donor type, donor heavy atom, donor atom, acceptor molecule, acceptor atom, score
      L1  H     5    19       P1  7948  0.97
      P1  H  7989  7998       L1    13  0.03

> <Gold.Chemscore.Hbond.Weighted>
-3.8896

> <Gold.Chemscore.Metal.Weighted>
-0.0000

> <Gold.Chemscore.Lipo.Weighted>
-8.8698

> <Gold.Chemscore.Internal_Hbond.Weighted>
0.0000

> <Gold.Chemscore.DEClash.Weighted>
0.0471

> <Gold.Chemscore.DEInternal.Weighted>
0.6896

> <Gold.Chemscore.Rot.Weighted>
4.8087

> <Gold.Chemscore.Internal.Correction.Weighted>
   9.000000E+99

> <Gold.Protein.RotatedTorsions>
[ 6907 6896 6895 6894 ] final   49.65 input  -60.11 | X-H torsion
[ 7974 7965 7964 7962 ] final  -52.37 input  175.53 | X-H torsion
[ 8008 7997 7996 7995 ] final  142.37 input   59.86 | X-H torsion
[ 10167 10162 10161 10158 ] final -141.54 input  -65.29 | X-H torsion
[ 10718 10713 10712 10709 ] final  -60.87 input   66.30 | X-H torsion
[ 10763 10752 10751 10750 ] final -170.46 input  -60.55 | X-H torsion
[ 11005 11000 10999 10996 ] final   32.25 input  -57.11 | X-H torsion

> <Gold.Protein.ActiveResidues>
 VAL166  LYS551  ARG553  GLY616  TRP617  ASP618  TYR619  PRO620  LYS621  CYS622 
 ASP623  PHE694  ASN695  SER759  ASP760  ASP761  ALA762  ILE779  LEU786  VAL792 
 PHE793  MET794  SER795  GLU796  ALA797  LYS798  CYS799  TRP800  GLU811  SER814 

> <Gold.Protein.RotatedAtoms>
  152.2932  134.7698  160.0373 H   0  0  0  0  0  0  0  0  0  0  0  0  # atno 6907 bound_to 6896
  151.8237  133.3393  159.3600 H   0  0  0  0  0  0  0  0  0  0  0  0  # atno 6908 bound_to 6896
  150.7239  134.5479  159.5824 H   0  0  0  0  0  0  0  0  0  0  0  0  # atno 6909 bound_to 6896
  145.9087  140.7934  142.9706 H   0  0  0  0  0  0  0  0  0  0  0  0  # atno 7974 bound_to 7965
  156.2950  140.2290  156.4717 H   0  0  0  0  0  0  0  0  0  0  0  0  # atno 8008 bound_to 7997
  154.7930  140.0453  157.1236 H   0  0  0  0  0  0  0  0  0  0  0  0  # atno 8009 bound_to 7997
  154.9623  140.3056  155.5028 H   0  0  0  0  0  0  0  0  0  0  0  0  # atno 8010 bound_to 7997
  139.8174  143.7620  152.2665 H   0  0  0  0  0  0  0  0  0  0  0  0  # atno 10167 bound_to 10162
  156.0960  130.4193  150.0915 H   0  0  0  0  0  0  0  0  0  0  0  0  # atno 10718 bound_to 10713
  154.6413  135.2899  155.0100 H   0  0  0  0  0  0  0  0  0  0  0  0  # atno 10763 bound_to 10752
  154.1226  135.6546  153.4910 H   0  0  0  0  0  0  0  0  0  0  0  0  # atno 10764 bound_to 10752
  153.0328  135.5291  154.7281 H   0  0  0  0  0  0  0  0  0  0  0  0  # atno 10765 bound_to 10752
  140.2754  134.3034  155.7815 H   0  0  0  0  0  0  0  0  0  0  0  0  # atno 11005 bound_to 11000
  144.6741  140.1791  143.7407 LP  0  0  0  0  0  0  0  0  0  0  0  0  # atno 17320 bound_to 7965
  145.8700  139.2267  143.1667 LP  0  0  0  0  0  0  0  0  0  0  0  0  # atno 17321 bound_to 7965
  139.7787  144.7452  151.0119 LP  0  0  0  0  0  0  0  0  0  0  0  0  # atno 17342 bound_to 10162
  140.7815  143.4565  151.0338 LP  0  0  0  0  0  0  0  0  0  0  0  0  # atno 17343 bound_to 10162
  156.8913  130.9589  151.3588 LP  0  0  0  0  0  0  0  0  0  0  0  0  # atno 17370 bound_to 10713
  157.6121  130.8591  149.8969 LP  0  0  0  0  0  0  0  0  0  0  0  0  # atno 17371 bound_to 10713
  141.2171  133.7492  156.9399 LP  0  0  0  0  0  0  0  0  0  0  0  0  # atno 17394 bound_to 11000
  140.1333  134.9341  157.2367 LP  0  0  0  0  0  0  0  0  0  0  0  0  # atno 17395 bound_to 11000

$$$$
