AV-unprocessed.smi:1844|AV-procd|sdf|7511|dock7
  -GOLD-   22720 9213D 1   1.00000     0.00000
 Structure written by MMmdl.
 45 46  0  0  0  0  0  0  0  0  1 V2000
  146.9060  136.9018  159.9934 C   0  0  0  0  0  0  0  0  0  0  0  0
  147.7713  137.4138  158.9414 N   0  0  0  0  0  0  0  0  0  0  0  0
  148.9907  136.9284  158.6553 C   0  0  0  0  0  0  0  0  0  0  0  0
  149.4758  135.9864  159.2842 O   0  0  0  0  0  0  0  0  0  0  0  0
  149.6590  137.6202  157.5505 C   0  0  0  0  0  0  0  0  0  0  0  0
  150.4501  136.9318  156.5411 C   0  0  0  0  0  0  0  0  0  0  0  0
  151.0198  137.6181  155.5311 C   0  0  0  0  0  0  0  0  0  0  0  0
  150.8717  139.0708  155.4043 C   0  0  0  0  0  0  0  0  0  0  0  0
  151.3684  139.6985  154.4691 O   0  0  0  0  0  0  0  0  0  0  0  0
  150.1402  139.6808  156.3853 N   0  0  0  0  0  0  0  0  0  0  0  0
  149.9062  141.1363  156.3636 C   0  0  0  0  0  0  0  0  0  0  0  0
  150.3571  141.8771  157.6347 C   0  0  0  0  0  0  0  0  0  0  0  0
  149.5829  141.9564  158.5877 O   0  0  0  0  0  0  0  0  0  0  0  0
  151.5869  142.4188  157.6476 N   0  0  0  0  0  0  0  0  0  0  0  0
  152.1714  143.1969  158.7351 C   0  0  1  0  0  0  0  0  0  0  0  0
  151.3701  144.4995  158.9413 C   0  0  0  0  0  0  0  0  0  0  0  0
  151.9168  145.3181  160.1197 C   0  0  0  0  0  0  0  0  0  0  0  0
  151.9442  144.4822  161.4068 C   0  0  0  0  0  0  0  0  0  0  0  0
  152.7498  143.1893  161.2083 C   0  0  0  0  0  0  0  0  0  0  0  0
  152.2080  142.3514  160.0326 C   0  0  2  0  0  0  0  0  0  0  0  0
  153.0190  141.0524  159.8707 C   0  0  0  0  0  0  0  0  0  0  0  0
  149.5409  138.9573  157.4350 C   0  0  0  0  0  0  0  0  0  0  0  0
  145.9672  137.4556  160.0042 H   0  0  0  0  0  0  0  0  0  0  0  0
  147.3776  137.0104  160.9710 H   0  0  0  0  0  0  0  0  0  0  0  0
  146.6779  135.8475  159.8312 H   0  0  0  0  0  0  0  0  0  0  0  0
  147.4227  138.1866  158.3930 H   0  0  0  0  0  0  0  0  0  0  0  0
  150.5998  135.8629  156.5767 H   0  0  0  0  0  0  0  0  0  0  0  0
  151.6020  137.0850  154.7940 H   0  0  0  0  0  0  0  0  0  0  0  0
  150.4274  141.5787  155.5135 H   0  0  0  0  0  0  0  0  0  0  0  0
  148.8519  141.3582  156.1897 H   0  0  0  0  0  0  0  0  0  0  0  0
  152.1568  142.3037  156.8223 H   0  0  0  0  0  0  0  0  0  0  0  0
  153.1984  143.4565  158.4697 H   0  0  0  0  0  0  0  0  0  0  0  0
  151.3969  145.1065  158.0356 H   0  0  0  0  0  0  0  0  0  0  0  0
  150.3206  144.2625  159.1216 H   0  0  0  0  0  0  0  0  0  0  0  0
  152.9238  145.6662  159.8868 H   0  0  0  0  0  0  0  0  0  0  0  0
  151.3076  146.2101  160.2674 H   0  0  0  0  0  0  0  0  0  0  0  0
  152.3746  145.0665  162.2205 H   0  0  0  0  0  0  0  0  0  0  0  0
  150.9247  144.2375  161.7068 H   0  0  0  0  0  0  0  0  0  0  0  0
  153.7968  143.4385  161.0306 H   0  0  0  0  0  0  0  0  0  0  0  0
  152.7258  142.6026  162.1273 H   0  0  0  0  0  0  0  0  0  0  0  0
  151.1839  142.0655  160.2780 H   0  0  0  0  0  0  0  0  0  0  0  0
  154.0509  141.2639  159.5891 H   0  0  0  0  0  0  0  0  0  0  0  0
  152.5924  140.4006  159.1077 H   0  0  0  0  0  0  0  0  0  0  0  0
  153.0390  140.4857  160.8018 H   0  0  0  0  0  0  0  0  0  0  0  0
  148.9699  139.5660  158.1227 H   0  0  0  0  0  0  0  0  0  0  0  0
  1  2  1  0  0  0  0
  1 23  1  0  0  0  0
  1 24  1  0  0  0  0
  1 25  1  0  0  0  0
  2  3  1  0  0  0  0
  2 26  1  0  0  0  0
  3  4  2  0  0  0  0
  3  5  1  0  0  0  0
  5 22  2  0  0  0  0
  5  6  1  0  0  0  0
  6  7  2  0  0  0  0
  6 27  1  0  0  0  0
  7  8  1  0  0  0  0
  7 28  1  0  0  0  0
  8  9  2  0  0  0  0
  8 10  1  0  0  0  0
 10 11  1  0  0  0  0
 10 22  1  0  0  0  0
 11 12  1  0  0  0  0
 11 29  1  0  0  0  0
 11 30  1  0  0  0  0
 12 13  2  0  0  0  0
 12 14  1  0  0  0  0
 14 15  1  0  0  0  0
 14 31  1  0  0  0  0
 15 20  1  0  0  0  0
 15 16  1  0  0  0  0
 15 32  1  0  0  0  0
 16 17  1  0  0  0  0
 16 33  1  0  0  0  0
 16 34  1  0  0  0  0
 17 18  1  0  0  0  0
 17 35  1  0  0  0  0
 17 36  1  0  0  0  0
 18 19  1  0  0  0  0
 18 37  1  0  0  0  0
 18 38  1  0  0  0  0
 19 20  1  0  0  0  0
 19 39  1  0  0  0  0
 19 40  1  0  0  0  0
 20 21  1  0  0  0  0
 20 41  1  0  0  0  0
 21 42  1  0  0  0  0
 21 43  1  0  0  0  0
 21 44  1  0  0  0  0
 22 45  1  0  0  0  0
M  END
> <s_m_source_file>
AV-unprocessed.smi

> <i_m_source_file_index>
1844

> <i_lp_mmshare_version>
43012

> <i_f3d_flags>
0

> <s_epik_input>
W0NIM11bTkhdQyg9TyljMVtjSF1bY0hdYyg9TyluKFtjSF0xKVtDSDJdQyg9TylbTkhdW0NAQEhdMltDSDJdW0NIMl1bQ0gyXVtDSDJdW0NASF0yW0NIM10=

> <s_epik_cmdline>
J2VwaWtfcHl0aG9uJywgJy1waCcsICc3LjAnLCAnLXRuJywgJzgnLCAnLW1hJywgJzIwMCcsICctbWV0YWxfYmluZGluZycsICctaW1hZScsICc8aW5maWxlLm1hZT4nLCAnLW9tYWUnLCAnPG91dGZpbGUubWFlPic=

> <r_lp_tautomer_probability>
1

> <r_epik_Ionization_Penalty>
3.66612e-07

> <r_epik_Ionization_Penalty_Charging>
5.18929e-08

> <r_epik_Ionization_Penalty_Neutral>
3.14719e-07

> <r_epik_State_Penalty>
-0

> <r_epik_Charging_Adjusted_Penalty>
5.18929e-08

> <i_epik_Tot_Q>
0

> <i_epik_Tot_abs_Q>
0

> <r_epik_Metal_State_Penalty>
-0

> <b_epik_Metal_Only>
0

> <s_lp_Force_Field>
OPLS_2005

> <r_lp_Energy>
22.567

> <b_lp_Chiralities_Consistent>
1

> <s_lp_Variant>
AV-unprocessed.smi:1844-4

> <Gold.Version>
5.8.1

> <Gold.Id.Protein>
6NUR|6NUR_protein|mol2

> <Gold.PLP.Fitness>
42.5649

> <Gold.PLP.PLP>
-38.5034

> <Gold.PLP.part.hbond>
-2.4420

> <Gold.PLP.part.metal>
0.0000

> <Gold.PLP.part.buried>
-3.8077

> <Gold.PLP.part.nonpolar>
-32.2386

> <Gold.PLP.part.repulsive>
0.3631

> <Gold.PLP.ligand.clash>
0.0000

> <Gold.PLP.ligand.torsion>
0.9788

> <Gold.PLP.Chemscore.Hbond>
2.0000

> <Gold.PLP.Chemscore.CHOScore>
0.0000

> <Gold.PLP.Chemscore.Metal>
0.0000

> <Gold.Chemscore.Hbonds>
donor molecule, donor type, donor heavy atom, donor atom, acceptor molecule, acceptor atom, score
      P1  H  6896  6908       L1     4  1.00
      P1  H  7989  7998       L1     9  1.00

> <Gold.PLP.Chemscore.Internal.Correction>
0.0190

> <Gold.Rescore>
     Score         DG    S(hbond)    S(metal)    S(lipo)     H(rot)  DE(clash)    DE(int)     intcor
     17.98     -20.14       2.00        0.00     100.89       1.49       0.11       2.05       ----

> <Gold.Chemscore.Fitness>
17.9818

> <Gold.Chemscore.DG>
-20.1430

> <Gold.Chemscore.ZeroCoef>
-5.4800

> <Gold.Chemscore.Hbond>
1.9998

> <Gold.Chemscore.Metal>
0.0000

> <Gold.Chemscore.Lipo>
100.8905

> <Gold.Chemscore.Internal_Hbond>
0.0000

> <Gold.Chemscore.DEClash>
0.1125

> <Gold.Chemscore.DEInternal>
2.0487

> <Gold.Chemscore.Rot>
1.4923

> <Gold.Chemscore.Internal.Correction>
   9.000000E+99

> <Gold.Chemscore.Hbonds>
donor molecule, donor type, donor heavy atom, donor atom, acceptor molecule, acceptor atom, score
      P1  H  6896  6908       L1     4  1.00
      P1  H  7989  7998       L1     9  0.94

> <Gold.Chemscore.Hbond.Weighted>
-6.6792

> <Gold.Chemscore.Metal.Weighted>
-0.0000

> <Gold.Chemscore.Lipo.Weighted>
-11.8042

> <Gold.Chemscore.Internal_Hbond.Weighted>
0.0000

> <Gold.Chemscore.DEClash.Weighted>
0.1125

> <Gold.Chemscore.DEInternal.Weighted>
2.0487

> <Gold.Chemscore.Rot.Weighted>
3.8204

> <Gold.Chemscore.Internal.Correction.Weighted>
   9.000000E+99

> <Gold.Protein.RotatedTorsions>
[ 6907 6896 6895 6894 ] final -174.87 input  -60.11 | X-H torsion
[ 7974 7965 7964 7962 ] final  -96.80 input  175.53 | X-H torsion
[ 8008 7997 7996 7995 ] final -154.07 input   59.86 | X-H torsion
[ 10167 10162 10161 10158 ] final   68.30 input  -65.29 | X-H torsion
[ 10718 10713 10712 10709 ] final   19.52 input   66.30 | X-H torsion
[ 10763 10752 10751 10750 ] final  -11.40 input  -60.55 | X-H torsion
[ 11005 11000 10999 10996 ] final -164.17 input  -57.11 | X-H torsion

> <Gold.Protein.ActiveResidues>
 VAL166  LYS551  ARG553  GLY616  TRP617  ASP618  TYR619  PRO620  LYS621  CYS622 
 ASP623  PHE694  ASN695  SER759  ASP760  ASP761  ALA762  ILE779  LEU786  VAL792 
 PHE793  MET794  SER795  GLU796  ALA797  LYS798  CYS799  TRP800  GLU811  SER814 

> <Gold.Protein.RotatedAtoms>
  151.5793  133.3380  159.3004 H   0  0  0  0  0  0  0  0  0  0  0  0  # atno 6907 bound_to 6896
  150.8322  134.7584  159.6875 H   0  0  0  0  0  0  0  0  0  0  0  0  # atno 6908 bound_to 6896
  152.4404  134.5608  159.9945 H   0  0  0  0  0  0  0  0  0  0  0  0  # atno 6909 bound_to 6896
  145.3421  140.9461  143.2602 H   0  0  0  0  0  0  0  0  0  0  0  0  # atno 7974 bound_to 7965
  155.6806  140.0744  157.2486 H   0  0  0  0  0  0  0  0  0  0  0  0  # atno 8008 bound_to 7997
  154.4106  140.1682  156.2030 H   0  0  0  0  0  0  0  0  0  0  0  0  # atno 8009 bound_to 7997
  155.9538  140.3375  155.6434 H   0  0  0  0  0  0  0  0  0  0  0  0  # atno 8010 bound_to 7997
  140.0802  144.5077  150.7167 H   0  0  0  0  0  0  0  0  0  0  0  0  # atno 10167 bound_to 10162
  157.1116  130.6511  149.5899 H   0  0  0  0  0  0  0  0  0  0  0  0  # atno 10718 bound_to 10713
  153.4832  135.7017  153.5926 H   0  0  0  0  0  0  0  0  0  0  0  0  # atno 10763 bound_to 10752
  153.4130  135.3844  155.2062 H   0  0  0  0  0  0  0  0  0  0  0  0  # atno 10764 bound_to 10752
  154.8720  135.3909  154.4284 H   0  0  0  0  0  0  0  0  0  0  0  0  # atno 10765 bound_to 10752
  140.5899  134.5055  157.5191 H   0  0  0  0  0  0  0  0  0  0  0  0  # atno 11005 bound_to 11000
  144.8782  139.4941  143.6735 LP  0  0  0  0  0  0  0  0  0  0  0  0  # atno 17320 bound_to 7965
  146.3003  139.7405  142.9096 LP  0  0  0  0  0  0  0  0  0  0  0  0  # atno 17321 bound_to 7965
  140.7082  143.2484  151.4663 LP  0  0  0  0  0  0  0  0  0  0  0  0  # atno 17342 bound_to 10162
  139.5784  144.1766  152.1935 LP  0  0  0  0  0  0  0  0  0  0  0  0  # atno 17343 bound_to 10162
  155.9849  130.4876  150.7006 LP  0  0  0  0  0  0  0  0  0  0  0  0  # atno 17370 bound_to 10713
  157.4554  131.0877  151.0802 LP  0  0  0  0  0  0  0  0  0  0  0  0  # atno 17371 bound_to 10713
  139.9279  134.8021  156.1016 LP  0  0  0  0  0  0  0  0  0  0  0  0  # atno 17394 bound_to 11000
  141.0941  133.6702  156.2607 LP  0  0  0  0  0  0  0  0  0  0  0  0  # atno 17395 bound_to 11000

$$$$
