AV-unprocessed.smi:1982|AV-procd|sdf|8024|dock5
  -GOLD-   2272010213D 1   1.00000     0.00000
 Structure written by MMmdl.
 36 37  0  0  0  0  0  0  0  0  1 V2000
  152.7962  144.3699  158.2916 C   0  0  0  0  0  0  0  0  0  0  0  0
  151.8815  143.6884  159.3302 C   0  0  2  0  0  0  0  0  0  0  0  0
  152.6025  143.4929  160.6796 C   0  0  0  0  0  0  0  0  0  0  0  0
  153.6546  142.3745  160.6191 C   0  0  0  0  0  0  0  0  0  0  0  0
  153.0316  141.0545  160.1446 C   0  0  0  0  0  0  0  0  0  0  0  0
  152.3095  141.2115  158.7926 C   0  0  1  0  0  0  0  0  0  0  0  0
  151.6824  139.9350  158.4496 N   0  0  0  0  0  0  0  0  0  0  0  0
  152.3249  138.7967  158.1439 C   0  0  0  0  0  0  0  0  0  0  0  0
  153.5526  138.7016  158.1040 O   0  0  0  0  0  0  0  0  0  0  0  0
  151.4257  137.5941  157.8337 C   0  0  0  0  0  0  0  0  0  0  0  0
  150.2380  137.5466  158.6690 N   0  0  0  0  0  0  0  0  0  0  0  0
  149.0152  138.0489  158.4852 C   0  0  0  0  0  0  0  0  0  0  0  0
  148.2145  137.7712  159.5028 N   0  0  0  0  0  0  0  0  0  0  0  0
  149.0298  137.0463  160.3558 N   0  0  0  0  0  0  0  0  0  0  0  0
  150.2318  136.9102  159.8668 N   0  0  0  0  0  0  0  0  0  0  0  0
  151.2570  142.3508  158.8485 C   0  0  2  0  0  0  0  0  0  0  0  0
  150.4694  142.5133  157.5332 C   0  0  0  0  0  0  0  0  0  0  0  0
  153.6323  143.7360  157.9985 H   0  0  0  0  0  0  0  0  0  0  0  0
  153.2118  145.2959  158.6898 H   0  0  0  0  0  0  0  0  0  0  0  0
  152.2487  144.6339  157.3870 H   0  0  0  0  0  0  0  0  0  0  0  0
  151.0602  144.3829  159.5122 H   0  0  0  0  0  0  0  0  0  0  0  0
  153.0683  144.4257  160.9989 H   0  0  0  0  0  0  0  0  0  0  0  0
  151.8670  143.2470  161.4468 H   0  0  0  0  0  0  0  0  0  0  0  0
  154.4673  142.6595  159.9505 H   0  0  0  0  0  0  0  0  0  0  0  0
  154.1039  142.2368  161.6029 H   0  0  0  0  0  0  0  0  0  0  0  0
  153.8076  140.2921  160.0661 H   0  0  0  0  0  0  0  0  0  0  0  0
  152.3281  140.7006  160.8997 H   0  0  0  0  0  0  0  0  0  0  0  0
  153.0590  141.4687  158.0428 H   0  0  0  0  0  0  0  0  0  0  0  0
  150.6729  139.9158  158.4540 H   0  0  0  0  0  0  0  0  0  0  0  0
  151.1243  137.6239  156.7852 H   0  0  0  0  0  0  0  0  0  0  0  0
  151.9890  136.6721  157.9828 H   0  0  0  0  0  0  0  0  0  0  0  0
  148.7150  138.6103  157.6127 H   0  0  0  0  0  0  0  0  0  0  0  0
  150.5231  142.0675  159.6051 H   0  0  0  0  0  0  0  0  0  0  0  0
  151.1348  142.6665  156.6834 H   0  0  0  0  0  0  0  0  0  0  0  0
  149.7889  143.3636  157.5851 H   0  0  0  0  0  0  0  0  0  0  0  0
  149.8645  141.6323  157.3185 H   0  0  0  0  0  0  0  0  0  0  0  0
  1  2  1  0  0  0  0
  1 18  1  0  0  0  0
  1 19  1  0  0  0  0
  1 20  1  0  0  0  0
  2 16  1  0  0  0  0
  2  3  1  0  0  0  0
  2 21  1  0  0  0  0
  3  4  1  0  0  0  0
  3 22  1  0  0  0  0
  3 23  1  0  0  0  0
  4  5  1  0  0  0  0
  4 24  1  0  0  0  0
  4 25  1  0  0  0  0
  5  6  1  0  0  0  0
  5 26  1  0  0  0  0
  5 27  1  0  0  0  0
  6  7  1  0  0  0  0
  6 16  1  0  0  0  0
  6 28  1  0  0  0  0
  7  8  1  0  0  0  0
  7 29  1  0  0  0  0
  8  9  2  0  0  0  0
  8 10  1  0  0  0  0
 10 11  1  0  0  0  0
 10 30  1  0  0  0  0
 10 31  1  0  0  0  0
 11 15  1  0  0  0  0
 11 12  1  0  0  0  0
 12 13  2  0  0  0  0
 12 32  1  0  0  0  0
 13 14  1  0  0  0  0
 14 15  2  0  0  0  0
 16 17  1  0  0  0  0
 16 33  1  0  0  0  0
 17 34  1  0  0  0  0
 17 35  1  0  0  0  0
 17 36  1  0  0  0  0
M  END
> <s_m_source_file>
AV-unprocessed.smi

> <i_m_source_file_index>
1982

> <i_lp_mmshare_version>
43012

> <i_f3d_flags>
0

> <s_epik_input>
W0NIM11bQ0BASF0xW0NIMl1bQ0gyXVtDSDJdW0NASF0oW0NASF0xW0NIM10pW05IXUMoPU8pW0NIMl1uMltjSF1ubm4y

> <s_epik_cmdline>
J2VwaWtfcHl0aG9uJywgJy1waCcsICc3LjAnLCAnLXRuJywgJzgnLCAnLW1hJywgJzIwMCcsICctbWV0YWxfYmluZGluZycsICctaW1hZScsICc8aW5maWxlLm1hZT4nLCAnLW9tYWUnLCAnPG91dGZpbGUubWFlPic=

> <r_lp_tautomer_probability>
1

> <r_epik_Ionization_Penalty>
5.03816e-07

> <r_epik_Ionization_Penalty_Charging>
0

> <r_epik_Ionization_Penalty_Neutral>
5.03816e-07

> <r_epik_State_Penalty>
-0

> <r_epik_Charging_Adjusted_Penalty>
0

> <i_epik_Tot_Q>
0

> <i_epik_Tot_abs_Q>
0

> <r_epik_Metal_State_Penalty>
-0

> <b_epik_Metal_Only>
0

> <s_lp_Force_Field>
OPLS_2005

> <r_lp_Energy>
16.2726

> <b_lp_Chiralities_Consistent>
1

> <s_lp_Variant>
AV-unprocessed.smi:1982-5

> <Gold.Version>
5.8.1

> <Gold.Id.Protein>
6NUR|6NUR_protein|mol2

> <Gold.PLP.Fitness>
41.3393

> <Gold.PLP.PLP>
-34.1007

> <Gold.PLP.part.hbond>
-5.2194

> <Gold.PLP.part.metal>
0.0000

> <Gold.PLP.part.buried>
-4.6944

> <Gold.PLP.part.nonpolar>
-24.8531

> <Gold.PLP.part.repulsive>
0.1147

> <Gold.PLP.ligand.clash>
0.0000

> <Gold.PLP.ligand.torsion>
0.7673

> <Gold.PLP.Chemscore.Hbond>
2.9230

> <Gold.PLP.Chemscore.CHOScore>
0.0000

> <Gold.PLP.Chemscore.Metal>
0.0000

> <Gold.Chemscore.Hbonds>
donor molecule, donor type, donor heavy atom, donor atom, acceptor molecule, acceptor atom, score
      P1  H  6896  6908       L1    15  1.00
      P1  H  6931  6943       L1    14  0.62
      P1  H  6934  6947       L1    13  0.30
      P1  H  7997  8008       L1     9  1.00

> <Gold.PLP.Chemscore.Internal.Correction>
0.0041

> <Gold.Rescore>
     Score         DG    S(hbond)    S(metal)    S(lipo)     H(rot)  DE(clash)    DE(int)     intcor
     17.30     -18.28       2.28        0.00      86.02       1.91       0.02       0.96       ----

> <Gold.Chemscore.Fitness>
17.2960

> <Gold.Chemscore.DG>
-18.2755

> <Gold.Chemscore.ZeroCoef>
-5.4800

> <Gold.Chemscore.Hbond>
2.2784

> <Gold.Chemscore.Metal>
0.0000

> <Gold.Chemscore.Lipo>
86.0213

> <Gold.Chemscore.Internal_Hbond>
0.0000

> <Gold.Chemscore.DEClash>
0.0202

> <Gold.Chemscore.DEInternal>
0.9593

> <Gold.Chemscore.Rot>
1.9058

> <Gold.Chemscore.Internal.Correction>
   9.000000E+99

> <Gold.Chemscore.Hbonds>
donor molecule, donor type, donor heavy atom, donor atom, acceptor molecule, acceptor atom, score
      P1  H  6896  6908       L1    15  0.82
      P1  H  6931  6943       L1    14  0.12
      P1  H  6934  6947       L1    13  0.09
      P1  H  7997  8008       L1     9  0.89

> <Gold.Chemscore.Hbond.Weighted>
-7.6099

> <Gold.Chemscore.Metal.Weighted>
-0.0000

> <Gold.Chemscore.Lipo.Weighted>
-10.0645

> <Gold.Chemscore.Internal_Hbond.Weighted>
0.0000

> <Gold.Chemscore.DEClash.Weighted>
0.0202

> <Gold.Chemscore.DEInternal.Weighted>
0.9593

> <Gold.Chemscore.Rot.Weighted>
4.8788

> <Gold.Chemscore.Internal.Correction.Weighted>
   9.000000E+99

> <Gold.Protein.RotatedTorsions>
[ 6907 6896 6895 6894 ] final -149.35 input  -60.11 | X-H torsion
[ 7974 7965 7964 7962 ] final  138.61 input  175.53 | X-H torsion
[ 8008 7997 7996 7995 ] final  -78.54 input   59.86 | X-H torsion
[ 10167 10162 10161 10158 ] final -114.77 input  -65.29 | X-H torsion
[ 10718 10713 10712 10709 ] final   69.96 input   66.30 | X-H torsion
[ 10763 10752 10751 10750 ] final  126.06 input  -60.55 | X-H torsion
[ 11005 11000 10999 10996 ] final  -88.19 input  -57.11 | X-H torsion

> <Gold.Protein.ActiveResidues>
 VAL166  LYS551  ARG553  GLY616  TRP617  ASP618  TYR619  PRO620  LYS621  CYS622 
 ASP623  PHE694  ASN695  SER759  ASP760  ASP761  ALA762  ILE779  LEU786  VAL792 
 PHE793  MET794  SER795  GLU796  ALA797  LYS798  CYS799  TRP800  GLU811  SER814 

> <Gold.Protein.RotatedAtoms>
  151.1829  133.4714  159.2593 H   0  0  0  0  0  0  0  0  0  0  0  0  # atno 6907 bound_to 6896
  151.1241  135.0095  159.8562 H   0  0  0  0  0  0  0  0  0  0  0  0  # atno 6908 bound_to 6896
  152.5457  134.1737  159.8660 H   0  0  0  0  0  0  0  0  0  0  0  0  # atno 6909 bound_to 6896
  144.9356  139.4993  143.5597 H   0  0  0  0  0  0  0  0  0  0  0  0  # atno 7974 bound_to 7965
  154.5699  140.0692  156.8948 H   0  0  0  0  0  0  0  0  0  0  0  0  # atno 8008 bound_to 7997
  155.2654  140.3361  155.4251 H   0  0  0  0  0  0  0  0  0  0  0  0  # atno 8009 bound_to 7997
  156.2110  140.1759  156.7681 H   0  0  0  0  0  0  0  0  0  0  0  0  # atno 8010 bound_to 7997
  140.0974  143.4644  152.1833 H   0  0  0  0  0  0  0  0  0  0  0  0  # atno 10167 bound_to 10162
  157.6374  130.9453  150.0586 H   0  0  0  0  0  0  0  0  0  0  0  0  # atno 10718 bound_to 10713
  153.6872  135.3304  155.3193 H   0  0  0  0  0  0  0  0  0  0  0  0  # atno 10763 bound_to 10752
  154.8450  135.4423  154.1545 H   0  0  0  0  0  0  0  0  0  0  0  0  # atno 10764 bound_to 10752
  153.2577  135.6988  153.7689 H   0  0  0  0  0  0  0  0  0  0  0  0  # atno 10765 bound_to 10752
  141.1605  133.7555  156.9416 H   0  0  0  0  0  0  0  0  0  0  0  0  # atno 11005 bound_to 11000
  146.3265  139.8338  142.8903 LP  0  0  0  0  0  0  0  0  0  0  0  0  # atno 17320 bound_to 7965
  145.3073  141.0210  143.3575 LP  0  0  0  0  0  0  0  0  0  0  0  0  # atno 17321 bound_to 7965
  139.5690  144.7452  151.3942 LP  0  0  0  0  0  0  0  0  0  0  0  0  # atno 17342 bound_to 10162
  140.6996  143.7664  150.7382 LP  0  0  0  0  0  0  0  0  0  0  0  0  # atno 17343 bound_to 10162
  156.1625  130.3644  149.9278 LP  0  0  0  0  0  0  0  0  0  0  0  0  # atno 17370 bound_to 10713
  156.7273  130.9030  151.3623 LP  0  0  0  0  0  0  0  0  0  0  0  0  # atno 17371 bound_to 10713
  140.1318  134.9351  157.2347 LP  0  0  0  0  0  0  0  0  0  0  0  0  # atno 17394 bound_to 11000
  140.2944  134.3203  155.7306 LP  0  0  0  0  0  0  0  0  0  0  0  0  # atno 17395 bound_to 11000

$$$$
