AV-unprocessed.smi:3234|AV-procd|sdf|12355|dock3
  -GOLD-   2272018213D 1   1.00000     0.00000
 Structure written by MMmdl.
 38 40  0  0  0  0  0  0  0  0  3 V2000
  146.7529  137.3733  153.5996 O   0  0  0  0  0  0  0  0  0  0  0  0
  146.2792  137.9789  152.6385 C   0  0  0  0  0  0  0  0  0  0  0  0
  146.4318  139.2924  152.3961 N   0  0  0  0  0  0  0  0  0  0  0  0
  147.0912  140.2659  153.1950 C   0  0  0  0  0  0  0  0  0  0  0  0
  146.4995  141.5450  153.2924 C   0  0  0  0  0  0  0  0  0  0  0  0
  147.1092  142.5344  154.0905 C   0  0  0  0  0  0  0  0  0  0  0  0
  148.2447  142.2500  154.7634 N   0  3  0  0  0  0  0  0  0  0  0  0
  148.8393  141.0387  154.7129 C   0  0  0  0  0  0  0  0  0  0  0  0
  148.2767  140.0100  153.9303 C   0  0  0  0  0  0  0  0  0  0  0  0
  145.5555  137.3844  151.6792 N   0  0  0  0  0  0  0  0  0  0  0  0
  145.2161  135.9652  151.6567 C   0  0  1  0  0  0  0  0  0  0  0  0
  144.2471  135.5463  152.7545 C   0  0  0  0  0  0  0  0  0  0  0  0
  143.6864  134.2244  152.2159 C   0  0  0  0  0  0  0  0  0  0  0  0
  143.7608  134.2980  150.7349 N   0  3  2  0  0  0  0  0  0  0  0  0
  144.3561  133.0951  150.1131 C   0  0  0  0  0  0  0  0  0  0  0  0
  144.1234  131.8285  150.9019 C   0  0  0  0  0  0  0  0  0  0  0  0
  145.4822  132.4942  150.9201 C   0  0  0  0  0  0  0  0  0  0  0  0
  144.4650  135.5520  150.3885 C   0  0  0  0  0  0  0  0  0  0  0  0
  146.0695  139.6279  151.5153 H   0  0  0  0  0  0  0  0  0  0  0  0
  145.5890  141.7725  152.7568 H   0  0  0  0  0  0  0  0  0  0  0  0
  146.7237  143.5363  154.2123 H   0  0  0  0  0  0  0  0  0  0  0  0
  149.7383  140.9263  155.3013 H   0  0  0  0  0  0  0  0  0  0  0  0
  148.7573  139.0437  153.9203 H   0  0  0  0  0  0  0  0  0  0  0  0
  145.2047  137.9521  150.9212 H   0  0  0  0  0  0  0  0  0  0  0  0
  146.1269  135.3695  151.7493 H   0  0  0  0  0  0  0  0  0  0  0  0
  144.7271  135.4355  153.7274 H   0  0  0  0  0  0  0  0  0  0  0  0
  143.4442  136.2787  152.8533 H   0  0  0  0  0  0  0  0  0  0  0  0
  144.2965  133.3966  152.5820 H   0  0  0  0  0  0  0  0  0  0  0  0
  142.6629  134.0485  152.5479 H   0  0  0  0  0  0  0  0  0  0  0  0
  144.3820  133.0731  149.0247 H   0  0  0  0  0  0  0  0  0  0  0  0
  143.5218  131.8879  151.8069 H   0  0  0  0  0  0  0  0  0  0  0  0
  144.0332  130.8984  150.3443 H   0  0  0  0  0  0  0  0  0  0  0  0
  146.2845  132.0017  150.3743 H   0  0  0  0  0  0  0  0  0  0  0  0
  145.7838  132.9957  151.8380 H   0  0  0  0  0  0  0  0  0  0  0  0
  143.7129  136.2997  150.1311 H   0  0  0  0  0  0  0  0  0  0  0  0
  145.1257  135.4421  149.5270 H   0  0  0  0  0  0  0  0  0  0  0  0
  142.8186  134.3803  150.3803 H   0  0  0  0  0  0  0  0  0  0  0  0
  148.6683  142.9788  155.3386 H   0  0  0  0  0  0  0  0  0  0  0  0
  1  2  2  0  0  0  0
  2  3  1  0  0  0  0
  2 10  1  0  0  0  0
  3  4  1  0  0  0  0
  3 19  1  0  0  0  0
  4  9  1  0  0  0  0
  4  5  2  0  0  0  0
  5  6  1  0  0  0  0
  5 20  1  0  0  0  0
  6  7  2  0  0  0  0
  6 21  1  0  0  0  0
  7  8  1  0  0  0  0
  7 38  1  0  0  0  0
  8  9  2  0  0  0  0
  8 22  1  0  0  0  0
  9 23  1  0  0  0  0
 10 11  1  0  0  0  0
 10 24  1  0  0  0  0
 11 18  1  0  0  0  0
 11 12  1  0  0  0  0
 11 25  1  0  0  0  0
 12 13  1  0  0  0  0
 12 26  1  0  0  0  0
 12 27  1  0  0  0  0
 13 14  1  0  0  0  0
 13 28  1  0  0  0  0
 13 29  1  0  0  0  0
 14 15  1  0  0  0  0
 14 18  1  0  0  0  0
 14 37  1  0  0  0  0
 15 17  1  0  0  0  0
 15 16  1  0  0  0  0
 15 30  1  0  0  0  0
 16 17  1  0  0  0  0
 16 31  1  0  0  0  0
 16 32  1  0  0  0  0
 17 33  1  0  0  0  0
 17 34  1  0  0  0  0
 18 35  1  0  0  0  0
 18 36  1  0  0  0  0
M  CHG  1   7   1
M  CHG  1  14   1
M  END
> <s_m_source_file>
AV-unprocessed.smi

> <i_m_source_file_index>
3234

> <i_lp_mmshare_version>
43012

> <i_f3d_flags>
0

> <s_epik_input>
W2NIXTFbY0hdbltjSF1bY0hdYzFbTkhdQyg9TylbTkhdW0NAQEhdMltDSDJdW0NIMl1OKFtDSDJdMilbQ0hdM1tDSDJdW0NIMl0z

> <s_epik_cmdline>
J2VwaWtfcHl0aG9uJywgJy1waCcsICc3LjAnLCAnLXRuJywgJzgnLCAnLW1hJywgJzIwMCcsICctbWV0YWxfYmluZGluZycsICctaW1hZScsICc8aW5maWxlLm1hZT4nLCAnLW9tYWUnLCAnPG91dGZpbGUubWFlPic=

> <r_epik_Ionization_Penalty>
1.14489

> <r_epik_Ionization_Penalty_Charging>
1.14487

> <r_epik_Ionization_Penalty_Neutral>
1.95212e-05

> <r_epik_State_Penalty>
1.205

> <r_epik_Charging_Adjusted_Penalty>
2.34987

> <i_epik_Tot_Q>
2

> <i_epik_Tot_abs_Q>
2

> <r_epik_Metal_State_Penalty>
1.28709

> <b_epik_Metal_Only>
0

> <s_lp_Force_Field>
OPLS_2005

> <r_lp_Energy>
49.112

> <b_lp_Chiralities_Consistent>
1

> <s_lp_Variant>
AV-unprocessed.smi:3234-8

> <Gold.Version>
5.8.1

> <Gold.Id.Protein>
6NUR|6NUR_protein|mol2

> <Gold.PLP.Fitness>
48.9562

> <Gold.PLP.PLP>
-34.9390

> <Gold.PLP.part.hbond>
-4.0000

> <Gold.PLP.part.metal>
0.0000

> <Gold.PLP.part.buried>
-3.2710

> <Gold.PLP.part.nonpolar>
-28.3107

> <Gold.PLP.part.repulsive>
1.1707

> <Gold.PLP.ligand.clash>
0.0000

> <Gold.PLP.ligand.torsion>
0.9570

> <Gold.PLP.Chemscore.Hbond>
4.8880

> <Gold.PLP.Chemscore.CHOScore>
0.0000

> <Gold.PLP.Chemscore.Metal>
0.0000

> <Gold.Chemscore.Hbonds>
donor molecule, donor type, donor heavy atom, donor atom, acceptor molecule, acceptor atom, score
      L1  H     7    38       P1  8028  1.89
      L1  H    10    24       P1 10171  1.00
      L1  H    14    37       P1 10186  2.00

> <Gold.PLP.Chemscore.Internal.Correction>
1.2672

> <Gold.Rescore>
     Score         DG    S(hbond)    S(metal)    S(lipo)     H(rot)  DE(clash)    DE(int)     intcor
     19.06     -21.14       2.76        0.00      81.97       1.22       0.34       1.74       ----

> <Gold.Chemscore.Fitness>
19.0606

> <Gold.Chemscore.DG>
-21.1430

> <Gold.Chemscore.ZeroCoef>
-5.4800

> <Gold.Chemscore.Hbond>
2.7569

> <Gold.Chemscore.Metal>
0.0000

> <Gold.Chemscore.Lipo>
81.9699

> <Gold.Chemscore.Internal_Hbond>
0.0000

> <Gold.Chemscore.DEClash>
0.3417

> <Gold.Chemscore.DEInternal>
1.7407

> <Gold.Chemscore.Rot>
1.2248

> <Gold.Chemscore.Internal.Correction>
   9.000000E+99

> <Gold.Chemscore.Hbonds>
donor molecule, donor type, donor heavy atom, donor atom, acceptor molecule, acceptor atom, score
      L1  H     7    38       P1  8028  0.91
      L1  H    10    24       P1 10171  0.98
      L1  H    14    37       P1 10186  0.68

> <Gold.Chemscore.Hbond.Weighted>
-9.2079

> <Gold.Chemscore.Metal.Weighted>
-0.0000

> <Gold.Chemscore.Lipo.Weighted>
-9.5905

> <Gold.Chemscore.Internal_Hbond.Weighted>
0.0000

> <Gold.Chemscore.DEClash.Weighted>
0.3417

> <Gold.Chemscore.DEInternal.Weighted>
1.7407

> <Gold.Chemscore.Rot.Weighted>
3.1355

> <Gold.Chemscore.Internal.Correction.Weighted>
   9.000000E+99

> <Gold.Protein.RotatedTorsions>
[ 6907 6896 6895 6894 ] final  110.52 input  -60.11 | X-H torsion
[ 7974 7965 7964 7962 ] final  -95.87 input  175.53 | X-H torsion
[ 8008 7997 7996 7995 ] final -125.27 input   59.86 | X-H torsion
[ 10167 10162 10161 10158 ] final -179.97 input  -65.29 | X-H torsion
[ 10718 10713 10712 10709 ] final   97.06 input   66.30 | X-H torsion
[ 10763 10752 10751 10750 ] final   -9.33 input  -60.55 | X-H torsion
[ 11005 11000 10999 10996 ] final   61.36 input  -57.11 | X-H torsion

> <Gold.Protein.ActiveResidues>
 VAL166  LYS551  ARG553  GLY616  TRP617  ASP618  TYR619  PRO620  LYS621  CYS622 
 ASP623  PHE694  ASN695  SER759  ASP760  ASP761  ALA762  ILE779  LEU786  VAL792 
 PHE793  MET794  SER795  GLU796  ALA797  LYS798  CYS799  TRP800  GLU811  SER814 

> <Gold.Protein.RotatedAtoms>
  152.5015  133.8789  159.7335 H   0  0  0  0  0  0  0  0  0  0  0  0  # atno 6907 bound_to 6896
  150.9256  133.6819  159.2829 H   0  0  0  0  0  0  0  0  0  0  0  0  # atno 6908 bound_to 6896
  151.4181  135.0998  159.9658 H   0  0  0  0  0  0  0  0  0  0  0  0  # atno 6909 bound_to 6896
  145.3544  140.9482  143.2536 H   0  0  0  0  0  0  0  0  0  0  0  0  # atno 7974 bound_to 7965
  155.2105  140.0418  157.2932 H   0  0  0  0  0  0  0  0  0  0  0  0  # atno 8008 bound_to 7997
  154.6015  140.2453  155.7758 H   0  0  0  0  0  0  0  0  0  0  0  0  # atno 8009 bound_to 7997
  156.2323  140.2934  156.0231 H   0  0  0  0  0  0  0  0  0  0  0  0  # atno 8010 bound_to 7997
  139.5362  144.2491  152.0799 H   0  0  0  0  0  0  0  0  0  0  0  0  # atno 10167 bound_to 10162
  157.6918  131.0597  150.4585 H   0  0  0  0  0  0  0  0  0  0  0  0  # atno 10718 bound_to 10713
  153.4532  135.7015  153.6096 H   0  0  0  0  0  0  0  0  0  0  0  0  # atno 10763 bound_to 10752
  153.4422  135.3777  155.2235 H   0  0  0  0  0  0  0  0  0  0  0  0  # atno 10764 bound_to 10752
  154.8728  135.3976  154.3947 H   0  0  0  0  0  0  0  0  0  0  0  0  # atno 10765 bound_to 10752
  140.0166  134.6215  155.9700 H   0  0  0  0  0  0  0  0  0  0  0  0  # atno 11005 bound_to 11000
  144.8693  139.5061  143.6775 LP  0  0  0  0  0  0  0  0  0  0  0  0  # atno 17320 bound_to 7965
  146.2954  139.7263  142.9130 LP  0  0  0  0  0  0  0  0  0  0  0  0  # atno 17321 bound_to 7965
  140.1962  144.4703  150.6454 LP  0  0  0  0  0  0  0  0  0  0  0  0  # atno 17342 bound_to 10162
  140.6570  143.2240  151.5946 LP  0  0  0  0  0  0  0  0  0  0  0  0  # atno 17343 bound_to 10162
  156.4931  130.4100  149.6395 LP  0  0  0  0  0  0  0  0  0  0  0  0  # atno 17370 bound_to 10713
  156.3398  130.7376  151.2319 LP  0  0  0  0  0  0  0  0  0  0  0  0  # atno 17371 bound_to 10713
  141.1747  133.6539  156.4783 LP  0  0  0  0  0  0  0  0  0  0  0  0  # atno 17394 bound_to 11000
  140.4460  134.6972  157.5015 LP  0  0  0  0  0  0  0  0  0  0  0  0  # atno 17395 bound_to 11000

$$$$
