AV-unprocessed.smi:1883|AV-procd|sdf|7643|dock6
  -GOLD-   22720 9373D 1   1.00000     0.00000
 Structure written by MMmdl.
 35 37  0  0  0  0  0  0  0  0  1 V2000
  152.0814  140.1763  156.1449 C   0  0  0  0  0  0  0  0  0  0  0  0
  150.7439  140.5968  155.6236 C   0  0  0  0  0  0  0  0  0  0  0  0
  150.2806  140.1883  154.4423 N   0  0  0  0  0  0  0  0  0  0  0  0
  149.0438  140.8001  154.3745 C   0  0  0  0  0  0  0  0  0  0  0  0
  148.0556  140.7627  153.3648 C   0  0  0  0  0  0  0  0  0  0  0  0
  146.8508  141.4796  153.5185 C   0  0  0  0  0  0  0  0  0  0  0  0
  146.6175  142.2427  154.6808 C   0  0  0  0  0  0  0  0  0  0  0  0
  147.5891  142.2936  155.6990 C   0  0  0  0  0  0  0  0  0  0  0  0
  148.7899  141.5759  155.5414 C   0  0  0  0  0  0  0  0  0  0  0  0
  149.9260  141.4157  156.3293 N   0  0  0  0  0  0  0  0  0  0  0  0
  150.1682  142.0103  157.6370 C   0  0  0  0  0  0  0  0  0  0  0  0
  151.4482  142.8691  157.6761 C   0  0  1  0  0  0  0  0  0  0  0  0
  151.1990  144.1347  157.0934 O   0  0  0  0  0  0  0  0  0  0  0  0
  151.9953  142.9754  159.0936 C   0  0  0  0  0  0  0  0  0  0  0  0
  152.8044  141.9489  159.6317 C   0  0  0  0  0  0  0  0  0  0  0  0
  153.3109  142.0540  160.9413 C   0  0  0  0  0  0  0  0  0  0  0  0
  154.0817  141.0640  161.4500 F   0  0  0  0  0  0  0  0  0  0  0  0
  153.0171  143.1883  161.7213 C   0  0  0  0  0  0  0  0  0  0  0  0
  152.2207  144.2197  161.1886 C   0  0  0  0  0  0  0  0  0  0  0  0
  151.7130  144.1165  159.8787 C   0  0  0  0  0  0  0  0  0  0  0  0
  150.9560  145.1224  159.3784 F   0  0  0  0  0  0  0  0  0  0  0  0
  152.6100  139.5779  155.4019 H   0  0  0  0  0  0  0  0  0  0  0  0
  151.9620  139.5759  157.0468 H   0  0  0  0  0  0  0  0  0  0  0  0
  152.6919  141.0480  156.3787 H   0  0  0  0  0  0  0  0  0  0  0  0
  148.2254  140.1819  152.4702 H   0  0  0  0  0  0  0  0  0  0  0  0
  146.1026  141.4445  152.7403 H   0  0  0  0  0  0  0  0  0  0  0  0
  145.6926  142.7900  154.7901 H   0  0  0  0  0  0  0  0  0  0  0  0
  147.4153  142.8802  156.5889 H   0  0  0  0  0  0  0  0  0  0  0  0
  149.3003  142.6106  157.9128 H   0  0  0  0  0  0  0  0  0  0  0  0
  150.2276  141.2108  158.3761 H   0  0  0  0  0  0  0  0  0  0  0  0
  152.2097  142.4002  157.0530 H   0  0  0  0  0  0  0  0  0  0  0  0
  150.4703  144.0522  156.4974 H   0  0  0  0  0  0  0  0  0  0  0  0
  153.0428  141.0758  159.0420 H   0  0  0  0  0  0  0  0  0  0  0  0
  153.4057  143.2690  162.7258 H   0  0  0  0  0  0  0  0  0  0  0  0
  152.0005  145.0930  161.7849 H   0  0  0  0  0  0  0  0  0  0  0  0
  1  2  1  0  0  0  0
  1 22  1  0  0  0  0
  1 23  1  0  0  0  0
  1 24  1  0  0  0  0
  2 10  1  0  0  0  0
  2  3  2  0  0  0  0
  3  4  1  0  0  0  0
  4  9  2  0  0  0  0
  4  5  1  0  0  0  0
  5  6  2  0  0  0  0
  5 25  1  0  0  0  0
  6  7  1  0  0  0  0
  6 26  1  0  0  0  0
  7  8  2  0  0  0  0
  7 27  1  0  0  0  0
  8  9  1  0  0  0  0
  8 28  1  0  0  0  0
  9 10  1  0  0  0  0
 10 11  1  0  0  0  0
 11 12  1  0  0  0  0
 11 29  1  0  0  0  0
 11 30  1  0  0  0  0
 12 13  1  0  0  0  0
 12 14  1  0  0  0  0
 12 31  1  0  0  0  0
 13 32  1  0  0  0  0
 14 20  1  0  0  0  0
 14 15  2  0  0  0  0
 15 16  1  0  0  0  0
 15 33  1  0  0  0  0
 16 17  1  0  0  0  0
 16 18  2  0  0  0  0
 18 19  1  0  0  0  0
 18 34  1  0  0  0  0
 19 20  2  0  0  0  0
 19 35  1  0  0  0  0
 20 21  1  0  0  0  0
M  END
> <s_m_source_file>
AV-unprocessed.smi

> <i_m_source_file_index>
1883

> <i_lp_mmshare_version>
43012

> <i_f3d_flags>
0

> <s_epik_input>
W2NIXTFbY0hdW2NIXVtjSF1jKGMxMiluKGMobjIpW0NIM10pW0NIMl1bQ0BIXShbT0hdKWMzW2NIXWMoRilbY0hdW2NIXWMzRg==

> <s_epik_cmdline>
J2VwaWtfcHl0aG9uJywgJy1waCcsICc3LjAnLCAnLXRuJywgJzgnLCAnLW1hJywgJzIwMCcsICctbWV0YWxfYmluZGluZycsICctaW1hZScsICc8aW5maWxlLm1hZT4nLCAnLW9tYWUnLCAnPG91dGZpbGUubWFlPic=

> <r_epik_Ionization_Penalty>
0.129664

> <r_epik_Ionization_Penalty_Charging>
0

> <r_epik_Ionization_Penalty_Neutral>
0.129664

> <r_epik_State_Penalty>
0.119073

> <r_epik_Charging_Adjusted_Penalty>
0.119073

> <i_epik_Tot_Q>
0

> <i_epik_Tot_abs_Q>
0

> <r_epik_Metal_State_Penalty>
0.000131867

> <b_epik_Metal_Only>
0

> <s_lp_Force_Field>
OPLS_2005

> <r_lp_Energy>
10.6561

> <b_lp_Chiralities_Consistent>
1

> <s_lp_Variant>
AV-unprocessed.smi:1883-2

> <Gold.Version>
5.8.1

> <Gold.Id.Protein>
6NUR|6NUR_protein|mol2

> <Gold.PLP.Fitness>
55.8416

> <Gold.PLP.PLP>
-51.9010

> <Gold.PLP.part.hbond>
-2.0000

> <Gold.PLP.part.metal>
0.0000

> <Gold.PLP.part.buried>
-1.4520

> <Gold.PLP.part.nonpolar>
-48.2502

> <Gold.PLP.part.repulsive>
0.1013

> <Gold.PLP.ligand.clash>
0.0000

> <Gold.PLP.ligand.torsion>
0.8929

> <Gold.PLP.Chemscore.Hbond>
1.9000

> <Gold.PLP.Chemscore.CHOScore>
0.0000

> <Gold.PLP.Chemscore.Metal>
0.0000

> <Gold.Chemscore.Hbonds>
donor molecule, donor type, donor heavy atom, donor atom, acceptor molecule, acceptor atom, score
      L1  H    13    32       P1  8028  1.00
      P1  H  7989  7998       L1     3  0.80

> <Gold.PLP.Chemscore.Internal.Correction>
0.0265

> <Gold.Rescore>
     Score         DG    S(hbond)    S(metal)    S(lipo)     H(rot)  DE(clash)    DE(int)     intcor
     16.30     -19.26       1.28        0.00     122.47       1.88       0.25       2.71       ----

> <Gold.Chemscore.Fitness>
16.2958

> <Gold.Chemscore.DG>
-19.2573

> <Gold.Chemscore.ZeroCoef>
-5.4800

> <Gold.Chemscore.Hbond>
1.2786

> <Gold.Chemscore.Metal>
0.0000

> <Gold.Chemscore.Lipo>
122.4743

> <Gold.Chemscore.Internal_Hbond>
0.0000

> <Gold.Chemscore.DEClash>
0.2521

> <Gold.Chemscore.DEInternal>
2.7094

> <Gold.Chemscore.Rot>
1.8839

> <Gold.Chemscore.Internal.Correction>
   9.000000E+99

> <Gold.Chemscore.Hbonds>
donor molecule, donor type, donor heavy atom, donor atom, acceptor molecule, acceptor atom, score
      L1  H    13    32       P1  8028  0.95
      P1  H  7989  7998       L1     3  0.11

> <Gold.Chemscore.Hbond.Weighted>
-4.2706

> <Gold.Chemscore.Metal.Weighted>
-0.0000

> <Gold.Chemscore.Lipo.Weighted>
-14.3295

> <Gold.Chemscore.Internal_Hbond.Weighted>
0.0000

> <Gold.Chemscore.DEClash.Weighted>
0.2521

> <Gold.Chemscore.DEInternal.Weighted>
2.7094

> <Gold.Chemscore.Rot.Weighted>
4.8227

> <Gold.Chemscore.Internal.Correction.Weighted>
   9.000000E+99

> <Gold.Protein.RotatedTorsions>
[ 6907 6896 6895 6894 ] final    6.48 input  -60.11 | X-H torsion
[ 7974 7965 7964 7962 ] final  -72.52 input  175.53 | X-H torsion
[ 8008 7997 7996 7995 ] final  -51.36 input   59.86 | X-H torsion
[ 10167 10162 10161 10158 ] final  -14.79 input  -65.29 | X-H torsion
[ 10718 10713 10712 10709 ] final   49.12 input   66.30 | X-H torsion
[ 10763 10752 10751 10750 ] final  145.27 input  -60.55 | X-H torsion
[ 11005 11000 10999 10996 ] final  -11.26 input  -57.11 | X-H torsion

> <Gold.Protein.ActiveResidues>
 VAL166  LYS551  ARG553  GLY616  TRP617  ASP618  TYR619  PRO620  LYS621  CYS622 
 ASP623  PHE694  ASN695  SER759  ASP760  ASP761  ALA762  ILE779  LEU786  VAL792 
 PHE793  MET794  SER795  GLU796  ALA797  LYS798  CYS799  TRP800  GLU811  SER814 

> <Gold.Protein.RotatedAtoms>
  151.6744  135.0971  160.0203 H   0  0  0  0  0  0  0  0  0  0  0  0  # atno 6907 bound_to 6896
  152.3872  133.6624  159.6217 H   0  0  0  0  0  0  0  0  0  0  0  0  # atno 6908 bound_to 6896
  150.7795  133.8931  159.3360 H   0  0  0  0  0  0  0  0  0  0  0  0  # atno 6909 bound_to 6896
  145.6641  140.9243  143.0918 H   0  0  0  0  0  0  0  0  0  0  0  0  # atno 7974 bound_to 7965
  154.4081  140.1250  156.4816 H   0  0  0  0  0  0  0  0  0  0  0  0  # atno 8008 bound_to 7997
  155.7080  140.3494  155.4942 H   0  0  0  0  0  0  0  0  0  0  0  0  # atno 8009 bound_to 7997
  155.9326  140.1072  157.1110 H   0  0  0  0  0  0  0  0  0  0  0  0  # atno 8010 bound_to 7997
  140.7207  143.5285  150.9548 H   0  0  0  0  0  0  0  0  0  0  0  0  # atno 10167 bound_to 10162
  157.4755  130.8282  149.8035 H   0  0  0  0  0  0  0  0  0  0  0  0  # atno 10718 bound_to 10713
  154.0027  135.2922  155.3401 H   0  0  0  0  0  0  0  0  0  0  0  0  # atno 10763 bound_to 10752
  154.7150  135.5133  153.8727 H   0  0  0  0  0  0  0  0  0  0  0  0  # atno 10764 bound_to 10752
  153.0759  135.6663  154.0267 H   0  0  0  0  0  0  0  0  0  0  0  0  # atno 10765 bound_to 10752
  140.7534  133.8573  155.9064 H   0  0  0  0  0  0  0  0  0  0  0  0  # atno 11005 bound_to 11000
  144.7079  139.8487  143.7424 LP  0  0  0  0  0  0  0  0  0  0  0  0  # atno 17320 bound_to 7965
  146.1101  139.4105  143.0293 LP  0  0  0  0  0  0  0  0  0  0  0  0  # atno 17321 bound_to 7965
  139.9004  143.6842  152.3132 LP  0  0  0  0  0  0  0  0  0  0  0  0  # atno 17342 bound_to 10162
  139.7190  144.7606  151.0986 LP  0  0  0  0  0  0  0  0  0  0  0  0  # atno 17343 bound_to 10162
  156.0094  130.3840  150.2315 LP  0  0  0  0  0  0  0  0  0  0  0  0  # atno 17370 bound_to 10713
  157.0499  131.0060  151.3257 LP  0  0  0  0  0  0  0  0  0  0  0  0  # atno 17371 bound_to 10713
  140.9730  134.1507  157.4560 LP  0  0  0  0  0  0  0  0  0  0  0  0  # atno 17394 bound_to 11000
  139.8783  134.9985  156.5902 LP  0  0  0  0  0  0  0  0  0  0  0  0  # atno 17395 bound_to 11000

$$$$
