AV-unprocessed.smi:2140|AV-procd|sdf|8716|dock9
  -GOLD-   2272011483D 1   1.00000     0.00000
 Structure written by MMmdl.
 40 41  0  0  0  0  0  0  0  0  2 V2000
  147.6395  140.5211  154.2711 C   0  0  0  0  0  0  0  0  0  0  0  0
  147.8549  139.3181  153.3204 C   0  0  2  0  0  0  0  0  0  0  0  0
  146.5086  138.5825  153.0807 C   0  0  0  0  0  0  0  0  0  0  0  0
  146.6723  137.2880  152.4248 N   0  0  0  0  0  0  0  0  0  0  0  0
  145.6752  136.4291  152.1696 C   0  0  0  0  0  0  0  0  0  0  0  0
  144.5013  136.6534  152.4629 O   0  0  0  0  0  0  0  0  0  0  0  0
  146.1355  135.3111  151.5825 N   0  0  0  0  0  0  0  0  0  0  0  0
  145.4158  134.1537  151.1777 C   0  0  0  0  0  0  0  0  0  0  0  0
  145.9811  133.0569  150.4820 C   0  0  0  0  0  0  0  0  0  0  0  0
  145.1570  131.9639  150.1513 C   0  0  0  0  0  0  0  0  0  0  0  0
  143.8020  132.0020  150.5333 C   0  0  0  0  0  0  0  0  0  0  0  0
  143.2525  133.0345  151.2064 N   0  0  0  0  0  0  0  0  0  0  0  0
  144.0485  134.0789  151.5197 C   0  0  0  0  0  0  0  0  0  0  0  0
  148.8996  138.3562  153.8033 N   0  3  0  0  0  0  0  0  0  0  0  0
  150.2103  139.0168  154.0542 C   0  0  0  0  0  0  0  0  0  0  0  0
  151.2794  137.9906  154.4621 C   0  0  0  0  0  0  0  0  0  0  0  0
  150.8499  137.2994  155.6252 O   0  0  0  0  0  0  0  0  0  0  0  0
  149.6515  136.5762  155.3874 C   0  0  0  0  0  0  0  0  0  0  0  0
  148.5218  137.5436  154.9929 C   0  0  0  0  0  0  0  0  0  0  0  0
  146.8522  141.1839  153.9130 H   0  0  0  0  0  0  0  0  0  0  0  0
  148.5305  141.1438  154.3518 H   0  0  0  0  0  0  0  0  0  0  0  0
  147.3583  140.1931  155.2723 H   0  0  0  0  0  0  0  0  0  0  0  0
  148.2075  139.7282  152.3727 H   0  0  0  0  0  0  0  0  0  0  0  0
  145.9583  138.4181  154.0059 H   0  0  0  0  0  0  0  0  0  0  0  0
  145.8622  139.1956  152.4521 H   0  0  0  0  0  0  0  0  0  0  0  0
  147.6095  137.0269  152.1540 H   0  0  0  0  0  0  0  0  0  0  0  0
  147.1363  135.2561  151.4614 H   0  0  0  0  0  0  0  0  0  0  0  0
  147.0231  133.0217  150.2065 H   0  0  0  0  0  0  0  0  0  0  0  0
  145.5562  131.1126  149.6201 H   0  0  0  0  0  0  0  0  0  0  0  0
  143.1438  131.1795  150.2964 H   0  0  0  0  0  0  0  0  0  0  0  0
  143.5749  134.8855  152.0603 H   0  0  0  0  0  0  0  0  0  0  0  0
  150.5632  139.5471  153.1722 H   0  0  0  0  0  0  0  0  0  0  0  0
  150.0976  139.7618  154.8437 H   0  0  0  0  0  0  0  0  0  0  0  0
  151.4769  137.2869  153.6517 H   0  0  0  0  0  0  0  0  0  0  0  0
  152.2203  138.4961  154.6810 H   0  0  0  0  0  0  0  0  0  0  0  0
  149.8122  135.8276  154.6099 H   0  0  0  0  0  0  0  0  0  0  0  0
  149.3820  136.0364  156.2954 H   0  0  0  0  0  0  0  0  0  0  0  0
  148.2861  138.2049  155.8284 H   0  0  0  0  0  0  0  0  0  0  0  0
  147.6361  136.9424  154.7895 H   0  0  0  0  0  0  0  0  0  0  0  0
  149.0423  137.6943  153.0539 H   0  0  0  0  0  0  0  0  0  0  0  0
  1  2  1  0  0  0  0
  1 20  1  0  0  0  0
  1 21  1  0  0  0  0
  1 22  1  0  0  0  0
  2  3  1  0  0  0  0
  2 14  1  0  0  0  0
  2 23  1  0  0  0  0
  3  4  1  0  0  0  0
  3 24  1  0  0  0  0
  3 25  1  0  0  0  0
  4  5  1  0  0  0  0
  4 26  1  0  0  0  0
  5  6  2  0  0  0  0
  5  7  1  0  0  0  0
  7  8  1  0  0  0  0
  7 27  1  0  0  0  0
  8 13  1  0  0  0  0
  8  9  2  0  0  0  0
  9 10  1  0  0  0  0
  9 28  1  0  0  0  0
 10 11  2  0  0  0  0
 10 29  1  0  0  0  0
 11 12  1  0  0  0  0
 11 30  1  0  0  0  0
 12 13  2  0  0  0  0
 13 31  1  0  0  0  0
 14 19  1  0  0  0  0
 14 15  1  0  0  0  0
 14 40  1  0  0  0  0
 15 16  1  0  0  0  0
 15 32  1  0  0  0  0
 15 33  1  0  0  0  0
 16 17  1  0  0  0  0
 16 34  1  0  0  0  0
 16 35  1  0  0  0  0
 17 18  1  0  0  0  0
 18 19  1  0  0  0  0
 18 36  1  0  0  0  0
 18 37  1  0  0  0  0
 19 38  1  0  0  0  0
 19 39  1  0  0  0  0
M  CHG  1  14   1
M  END
> <s_m_source_file>
AV-unprocessed.smi

> <i_m_source_file_index>
2140

> <i_lp_mmshare_version>
43012

> <i_f3d_flags>
0

> <s_epik_input>
W0NIMl0xW0NIMl1PW0NIMl1bQ0gyXU4xW0NASF0oW0NIM10pW0NIMl1bTkhdQyg9TylbTkhdYzJbY0hdW2NIXVtjSF1uW2NIXTI=

> <s_epik_cmdline>
J2VwaWtfcHl0aG9uJywgJy1waCcsICc3LjAnLCAnLXRuJywgJzgnLCAnLW1hJywgJzIwMCcsICctbWV0YWxfYmluZGluZycsICctaW1hZScsICc8aW5maWxlLm1hZT4nLCAnLW9tYWUnLCAnPG91dGZpbGUubWFlPic=

> <r_epik_Ionization_Penalty>
0.60672

> <r_epik_Ionization_Penalty_Charging>
0.602531

> <r_epik_Ionization_Penalty_Neutral>
0.00418997

> <r_epik_State_Penalty>
0.607459

> <r_epik_Charging_Adjusted_Penalty>
1.20999

> <i_epik_Tot_Q>
1

> <i_epik_Tot_abs_Q>
1

> <r_epik_Metal_State_Penalty>
0.604586

> <b_epik_Metal_Only>
0

> <s_lp_Force_Field>
OPLS_2005

> <r_lp_Energy>
23.5262

> <b_lp_Chiralities_Consistent>
1

> <s_lp_Variant>
AV-unprocessed.smi:2140-3

> <Gold.Version>
5.8.1

> <Gold.Id.Protein>
6NUR|6NUR_protein|mol2

> <Gold.PLP.Fitness>
44.8821

> <Gold.PLP.PLP>
-30.7621

> <Gold.PLP.part.hbond>
-3.3341

> <Gold.PLP.part.metal>
0.0000

> <Gold.PLP.part.buried>
-4.5374

> <Gold.PLP.part.nonpolar>
-24.9720

> <Gold.PLP.part.repulsive>
0.9981

> <Gold.PLP.ligand.clash>
0.0000

> <Gold.PLP.ligand.torsion>
0.1689

> <Gold.PLP.Chemscore.Hbond>
3.9040

> <Gold.PLP.Chemscore.CHOScore>
0.8992

> <Gold.PLP.Chemscore.Metal>
0.0000

> <Gold.Chemscore.Hbonds>
donor molecule, donor type, donor heavy atom, donor atom, acceptor molecule, acceptor atom, score
      L1  H     4    26       P1  7948  1.00
      L1  H     7    27       P1  7948  0.86
      L1  H    14    40       P1  7948  2.00
      L1  C    11    30       P1 10952  0.89

> <Gold.PLP.Chemscore.Internal.Correction>
0.0481

> <Gold.Rescore>
     Score         DG    S(hbond)    S(metal)    S(lipo)     H(rot)  DE(clash)    DE(int)     intcor
     18.47     -20.12       2.77        0.00      79.34       1.52       0.06       1.59       ----

> <Gold.Chemscore.Fitness>
18.4686

> <Gold.Chemscore.DG>
-20.1197

> <Gold.Chemscore.ZeroCoef>
-5.4800

> <Gold.Chemscore.Hbond>
2.7675

> <Gold.Chemscore.Metal>
0.0000

> <Gold.Chemscore.Lipo>
79.3356

> <Gold.Chemscore.Internal_Hbond>
0.0000

> <Gold.Chemscore.DEClash>
0.0610

> <Gold.Chemscore.DEInternal>
1.5900

> <Gold.Chemscore.Rot>
1.5179

> <Gold.Chemscore.Internal.Correction>
   9.000000E+99

> <Gold.Chemscore.Hbonds>
donor molecule, donor type, donor heavy atom, donor atom, acceptor molecule, acceptor atom, score
      L1  H     4    26       P1  7948  0.97
      L1  H     7    27       P1  7948  0.73
      L1  H    14    40       P1  7948  1.00

> <Gold.Chemscore.Hbond.Weighted>
-9.2433

> <Gold.Chemscore.Metal.Weighted>
-0.0000

> <Gold.Chemscore.Lipo.Weighted>
-9.2823

> <Gold.Chemscore.Internal_Hbond.Weighted>
0.0000

> <Gold.Chemscore.DEClash.Weighted>
0.0610

> <Gold.Chemscore.DEInternal.Weighted>
1.5900

> <Gold.Chemscore.Rot.Weighted>
3.8859

> <Gold.Chemscore.Internal.Correction.Weighted>
   9.000000E+99

> <Gold.Protein.RotatedTorsions>
[ 6907 6896 6895 6894 ] final   -8.38 input  -60.11 | X-H torsion
[ 7974 7965 7964 7962 ] final -165.00 input  175.53 | X-H torsion
[ 8008 7997 7996 7995 ] final  -69.93 input   59.86 | X-H torsion
[ 10167 10162 10161 10158 ] final  -59.72 input  -65.29 | X-H torsion
[ 10718 10713 10712 10709 ] final  -24.73 input   66.30 | X-H torsion
[ 10763 10752 10751 10750 ] final  -95.20 input  -60.55 | X-H torsion
[ 11005 11000 10999 10996 ] final  120.96 input  -57.11 | X-H torsion

> <Gold.Protein.ActiveResidues>
 VAL166  LYS551  ARG553  GLY616  TRP617  ASP618  TYR619  PRO620  LYS621  CYS622 
 ASP623  PHE694  ASN695  SER759  ASP760  ASP761  ALA762  ILE779  LEU786  VAL792 
 PHE793  MET794  SER795  GLU796  ALA797  LYS798  CYS799  TRP800  GLU811  SER814 

> <Gold.Protein.RotatedAtoms>
  151.4345  135.1013  159.9651 H   0  0  0  0  0  0  0  0  0  0  0  0  # atno 6907 bound_to 6896
  152.4944  133.8586  159.7249 H   0  0  0  0  0  0  0  0  0  0  0  0  # atno 6908 bound_to 6896
  150.9131  133.6914  159.2877 H   0  0  0  0  0  0  0  0  0  0  0  0  # atno 6909 bound_to 6896
  144.7281  140.2878  143.6225 H   0  0  0  0  0  0  0  0  0  0  0  0  # atno 7974 bound_to 7965
  154.4975  140.0844  156.7727 H   0  0  0  0  0  0  0  0  0  0  0  0  # atno 8008 bound_to 7997
  155.4082  140.3440  155.4243 H   0  0  0  0  0  0  0  0  0  0  0  0  # atno 8009 bound_to 7997
  156.1412  140.1530  156.8904 H   0  0  0  0  0  0  0  0  0  0  0  0  # atno 8010 bound_to 7997
  140.6117  143.2389  151.5693 H   0  0  0  0  0  0  0  0  0  0  0  0  # atno 10167 bound_to 10162
  156.4737  130.4530  149.6853 H   0  0  0  0  0  0  0  0  0  0  0  0  # atno 10718 bound_to 10713
  154.7126  135.5129  153.8690 H   0  0  0  0  0  0  0  0  0  0  0  0  # atno 10763 bound_to 10752
  153.0794  135.6626  154.0086 H   0  0  0  0  0  0  0  0  0  0  0  0  # atno 10764 bound_to 10752
  153.9925  135.3018  155.3390 H   0  0  0  0  0  0  0  0  0  0  0  0  # atno 10765 bound_to 10752
  139.9206  134.9637  156.7886 H   0  0  0  0  0  0  0  0  0  0  0  0  # atno 11005 bound_to 11000
  145.7885  139.1918  143.2116 LP  0  0  0  0  0  0  0  0  0  0  0  0  # atno 17320 bound_to 7965
  146.0775  140.7801  142.9657 LP  0  0  0  0  0  0  0  0  0  0  0  0  # atno 17321 bound_to 7965
  139.5367  144.2762  152.1265 LP  0  0  0  0  0  0  0  0  0  0  0  0  # atno 17342 bound_to 10162
  140.1963  144.4702  150.6453 LP  0  0  0  0  0  0  0  0  0  0  0  0  # atno 17343 bound_to 10162
  156.3592  130.7472  151.2442 LP  0  0  0  0  0  0  0  0  0  0  0  0  # atno 17370 bound_to 10713
  157.7489  131.0355  150.4366 LP  0  0  0  0  0  0  0  0  0  0  0  0  # atno 17371 bound_to 10713
  140.6486  133.9752  155.7743 LP  0  0  0  0  0  0  0  0  0  0  0  0  # atno 17394 bound_to 11000
  141.0723  134.0186  157.3508 LP  0  0  0  0  0  0  0  0  0  0  0  0  # atno 17395 bound_to 11000

$$$$
