AV-unprocessed.smi:315|AV-procd|sdf|2316|dock5
  -GOLD-   2262022223D 1   1.00000     0.00000
 Structure written by MMmdl.
 47 49  0  0  0  0  0  0  0  0  2 V2000
  152.4580  138.9154  154.6696 C   0  0  0  0  0  0  0  0  0  0  0  0
  151.3340  137.9778  155.1173 C   0  0  0  0  0  0  0  0  0  0  0  0
  150.2594  138.0889  154.1905 O   0  0  0  0  0  0  0  0  0  0  0  0
  149.4984  139.2427  154.1876 C   0  0  0  0  0  0  0  0  0  0  0  0
  150.0476  140.3827  154.6756 N   0  0  0  0  0  0  0  0  0  0  0  0
  149.3008  141.5062  154.6721 C   0  0  0  0  0  0  0  0  0  0  0  0
  147.9782  141.5511  154.1933 C   0  0  0  0  0  0  0  0  0  0  0  0
  147.4065  140.3689  153.6872 C   0  0  0  0  0  0  0  0  0  0  0  0
  148.1831  139.1852  153.6719 C   0  0  0  0  0  0  0  0  0  0  0  0
  147.7155  137.9290  153.2002 N   0  0  0  0  0  0  0  0  0  0  0  0
  146.4523  137.4934  153.0343 C   0  0  0  0  0  0  0  0  0  0  0  0
  145.4435  138.1187  153.3513 O   0  0  0  0  0  0  0  0  0  0  0  0
  146.3679  136.2789  152.4620 N   0  0  0  0  0  0  0  0  0  0  0  0
  145.1567  135.5205  152.1416 C   0  0  2  0  0  0  0  0  0  0  0  0
  143.8723  136.0797  152.7786 C   0  0  0  0  0  0  0  0  0  0  0  0
  143.0534  134.8454  153.2051 C   0  0  0  0  0  0  0  0  0  0  0  0
  143.8030  133.6560  152.7401 N   0  3  1  0  0  0  0  0  0  0  0  0
  143.2769  133.1326  151.4493 C   0  0  0  0  0  0  0  0  0  0  0  0
  144.1879  132.0541  150.8491 C   0  0  0  0  0  0  0  0  0  0  0  0
  145.5974  132.6120  150.6374 C   0  0  0  0  0  0  0  0  0  0  0  0
  146.1585  133.1065  151.9751 C   0  0  0  0  0  0  0  0  0  0  0  0
  145.2190  134.0958  152.7011 C   0  0  1  0  0  0  0  0  0  0  0  0
  153.3033  138.8654  155.3564 H   0  0  0  0  0  0  0  0  0  0  0  0
  152.1147  139.9496  154.6358 H   0  0  0  0  0  0  0  0  0  0  0  0
  152.8177  138.6484  153.6758 H   0  0  0  0  0  0  0  0  0  0  0  0
  151.7029  136.9515  155.1513 H   0  0  0  0  0  0  0  0  0  0  0  0
  151.0047  138.2540  156.1202 H   0  0  0  0  0  0  0  0  0  0  0  0
  149.7697  142.3945  155.0682 H   0  0  0  0  0  0  0  0  0  0  0  0
  147.4136  142.4714  154.2175 H   0  0  0  0  0  0  0  0  0  0  0  0
  146.3870  140.3942  153.3362 H   0  0  0  0  0  0  0  0  0  0  0  0
  148.4362  137.3154  152.8497 H   0  0  0  0  0  0  0  0  0  0  0  0
  147.2430  135.8368  152.2194 H   0  0  0  0  0  0  0  0  0  0  0  0
  145.0314  135.4728  151.0585 H   0  0  0  0  0  0  0  0  0  0  0  0
  144.0936  136.6961  153.6514 H   0  0  0  0  0  0  0  0  0  0  0  0
  143.3231  136.7015  152.0707 H   0  0  0  0  0  0  0  0  0  0  0  0
  142.9908  134.8064  154.2932 H   0  0  0  0  0  0  0  0  0  0  0  0
  142.0311  134.8714  152.8244 H   0  0  0  0  0  0  0  0  0  0  0  0
  142.2790  132.7242  151.6127 H   0  0  0  0  0  0  0  0  0  0  0  0
  143.1646  133.9496  150.7345 H   0  0  0  0  0  0  0  0  0  0  0  0
  144.2232  131.1855  151.5080 H   0  0  0  0  0  0  0  0  0  0  0  0
  143.7784  131.7082  149.8994 H   0  0  0  0  0  0  0  0  0  0  0  0
  146.2480  131.8431  150.2200 H   0  0  0  0  0  0  0  0  0  0  0  0
  145.5738  133.4266  149.9127 H   0  0  0  0  0  0  0  0  0  0  0  0
  146.3207  132.2427  152.6212 H   0  0  0  0  0  0  0  0  0  0  0  0
  147.1403  133.5573  151.8270 H   0  0  0  0  0  0  0  0  0  0  0  0
  145.5516  134.1609  153.7394 H   0  0  0  0  0  0  0  0  0  0  0  0
  143.7128  132.9157  153.4215 H   0  0  0  0  0  0  0  0  0  0  0  0
  1  2  1  0  0  0  0
  1 23  1  0  0  0  0
  1 24  1  0  0  0  0
  1 25  1  0  0  0  0
  2  3  1  0  0  0  0
  2 26  1  0  0  0  0
  2 27  1  0  0  0  0
  3  4  1  0  0  0  0
  4  9  1  0  0  0  0
  4  5  2  0  0  0  0
  5  6  1  0  0  0  0
  6  7  2  0  0  0  0
  6 28  1  0  0  0  0
  7  8  1  0  0  0  0
  7 29  1  0  0  0  0
  8  9  2  0  0  0  0
  8 30  1  0  0  0  0
  9 10  1  0  0  0  0
 10 11  1  0  0  0  0
 10 31  1  0  0  0  0
 11 12  2  0  0  0  0
 11 13  1  0  0  0  0
 13 14  1  0  0  0  0
 13 32  1  0  0  0  0
 14 22  1  0  0  0  0
 14 15  1  0  0  0  0
 14 33  1  0  0  0  0
 15 16  1  0  0  0  0
 15 34  1  0  0  0  0
 15 35  1  0  0  0  0
 16 17  1  0  0  0  0
 16 36  1  0  0  0  0
 16 37  1  0  0  0  0
 17 22  1  0  0  0  0
 17 18  1  0  0  0  0
 17 47  1  0  0  0  0
 18 19  1  0  0  0  0
 18 38  1  0  0  0  0
 18 39  1  0  0  0  0
 19 20  1  0  0  0  0
 19 40  1  0  0  0  0
 19 41  1  0  0  0  0
 20 21  1  0  0  0  0
 20 42  1  0  0  0  0
 20 43  1  0  0  0  0
 21 22  1  0  0  0  0
 21 44  1  0  0  0  0
 21 45  1  0  0  0  0
 22 46  1  0  0  0  0
M  CHG  1  17   1
M  END
> <s_m_source_file>
AV-unprocessed.smi

> <i_m_source_file_index>
315

> <i_lp_mmshare_version>
43012

> <i_f3d_flags>
0

> <s_epik_input>
W0NIM11bQ0gyXU9jMW5bY0hdW2NIXVtjSF1jMVtOSF1DKD1PKVtOSF1bQ0BIXShbQ0gyXVtDSDJdMilbQ0BASF0oTjIzKVtDSDJdW0NIMl1bQ0gyXVtDSDJdMw==

> <s_epik_cmdline>
J2VwaWtfcHl0aG9uJywgJy1waCcsICc3LjAnLCAnLXRuJywgJzgnLCAnLW1hJywgJzIwMCcsICctbWV0YWxfYmluZGluZycsICctaW1hZScsICc8aW5maWxlLm1hZT4nLCAnLW9tYWUnLCAnPG91dGZpbGUubWFlPic=

> <r_lp_tautomer_probability>
1

> <r_epik_Ionization_Penalty>
0.00106455

> <r_epik_Ionization_Penalty_Charging>
0.000974069

> <r_epik_Ionization_Penalty_Neutral>
9.04821e-05

> <r_epik_State_Penalty>
0.000633842

> <r_epik_Charging_Adjusted_Penalty>
0.00160791

> <i_epik_Tot_Q>
1

> <i_epik_Tot_abs_Q>
1

> <r_epik_Metal_State_Penalty>
-0

> <b_epik_Metal_Only>
0

> <s_lp_Force_Field>
OPLS_2005

> <r_lp_Energy>
51.3526

> <b_lp_Chiralities_Consistent>
1

> <s_lp_Variant>
AV-unprocessed.smi:315-1

> <Gold.Version>
5.8.1

> <Gold.Id.Protein>
6NUR|6NUR_protein|mol2

> <Gold.PLP.Fitness>
50.2397

> <Gold.PLP.PLP>
-38.0406

> <Gold.PLP.part.hbond>
-3.8809

> <Gold.PLP.part.metal>
0.0000

> <Gold.PLP.part.buried>
-3.0568

> <Gold.PLP.part.nonpolar>
-32.5597

> <Gold.PLP.part.repulsive>
1.0903

> <Gold.PLP.ligand.clash>
4.0204

> <Gold.PLP.ligand.torsion>
0.5642

> <Gold.PLP.Chemscore.Hbond>
4.7836

> <Gold.PLP.Chemscore.CHOScore>
0.9947

> <Gold.PLP.Chemscore.Metal>
0.0000

> <Gold.Chemscore.Hbonds>
donor molecule, donor type, donor heavy atom, donor atom, acceptor molecule, acceptor atom, score
      L1  H    10    31       P1  7948  1.00
      L1  H    13    32       P1  7948  0.85
      L1  H    17    47       P1 10957  1.85
      P1  H  7989  7998       L1     5  0.96
      L1  C     6    28       P1  8028  0.95

> <Gold.PLP.Chemscore.Internal.Correction>
0.0130

> <Gold.Rescore>
     Score         DG    S(hbond)    S(metal)    S(lipo)     H(rot)  DE(clash)    DE(int)     intcor
     17.45     -22.39       3.11        0.00      85.81       1.38       0.53       4.41       ----

> <Gold.Chemscore.Fitness>
17.4460

> <Gold.Chemscore.DG>
-22.3861

> <Gold.Chemscore.ZeroCoef>
-5.4800

> <Gold.Chemscore.Hbond>
3.1113

> <Gold.Chemscore.Metal>
0.0000

> <Gold.Chemscore.Lipo>
85.8081

> <Gold.Chemscore.Internal_Hbond>
0.0000

> <Gold.Chemscore.DEClash>
0.5256

> <Gold.Chemscore.DEInternal>
4.4145

> <Gold.Chemscore.Rot>
1.3770

> <Gold.Chemscore.Internal.Correction>
   9.000000E+99

> <Gold.Chemscore.Hbonds>
donor molecule, donor type, donor heavy atom, donor atom, acceptor molecule, acceptor atom, score
      L1  H    10    31       P1  7948  0.91
      L1  H    13    32       P1  7948  0.83
      L1  H    17    47       P1 10957  0.64
      P1  H  7989  7998       L1     5  0.22

> <Gold.Chemscore.Hbond.Weighted>
-10.3917

> <Gold.Chemscore.Metal.Weighted>
-0.0000

> <Gold.Chemscore.Lipo.Weighted>
-10.0395

> <Gold.Chemscore.Internal_Hbond.Weighted>
0.0000

> <Gold.Chemscore.DEClash.Weighted>
0.5256

> <Gold.Chemscore.DEInternal.Weighted>
4.4145

> <Gold.Chemscore.Rot.Weighted>
3.5252

> <Gold.Chemscore.Internal.Correction.Weighted>
   9.000000E+99

> <Gold.Protein.RotatedTorsions>
[ 6907 6896 6895 6894 ] final  131.84 input  -60.11 | X-H torsion
[ 7974 7965 7964 7962 ] final   16.64 input  175.53 | X-H torsion
[ 8008 7997 7996 7995 ] final  125.05 input   59.86 | X-H torsion
[ 10167 10162 10161 10158 ] final   57.66 input  -65.29 | X-H torsion
[ 10718 10713 10712 10709 ] final -120.24 input   66.30 | X-H torsion
[ 10763 10752 10751 10750 ] final    5.75 input  -60.55 | X-H torsion
[ 11005 11000 10999 10996 ] final -108.73 input  -57.11 | X-H torsion

> <Gold.Protein.ActiveResidues>
 VAL166  LYS551  ARG553  GLY616  TRP617  ASP618  TYR619  PRO620  LYS621  CYS622 
 ASP623  PHE694  ASN695  SER759  ASP760  ASP761  ALA762  ILE779  LEU786  VAL792 
 PHE793  MET794  SER795  GLU796  ALA797  LYS798  CYS799  TRP800  GLU811  SER814 

> <Gold.Protein.RotatedAtoms>
  152.3386  133.6040  159.5859 H   0  0  0  0  0  0  0  0  0  0  0  0  # atno 6907 bound_to 6896
  150.7465  133.9758  159.3569 H   0  0  0  0  0  0  0  0  0  0  0  0  # atno 6908 bound_to 6896
  151.7625  135.0807  160.0398 H   0  0  0  0  0  0  0  0  0  0  0  0  # atno 6909 bound_to 6896
  146.2243  139.8718  142.8586 H   0  0  0  0  0  0  0  0  0  0  0  0  # atno 7974 bound_to 7965
  156.2821  140.2725  156.1886 H   0  0  0  0  0  0  0  0  0  0  0  0  # atno 8008 bound_to 7997
  155.0482  140.0386  157.2552 H   0  0  0  0  0  0  0  0  0  0  0  0  # atno 8009 bound_to 7997
  154.7217  140.2689  155.6540 H   0  0  0  0  0  0  0  0  0  0  0  0  # atno 8010 bound_to 7997
  140.1956  144.4040  150.6551 H   0  0  0  0  0  0  0  0  0  0  0  0  # atno 10167 bound_to 10162
  156.1242  130.6346  150.9515 H   0  0  0  0  0  0  0  0  0  0  0  0  # atno 10718 bound_to 10713
  153.2557  135.6918  153.7631 H   0  0  0  0  0  0  0  0  0  0  0  0  # atno 10763 bound_to 10752
  153.6709  135.3344  155.3154 H   0  0  0  0  0  0  0  0  0  0  0  0  # atno 10764 bound_to 10752
  154.8411  135.4499  154.1530 H   0  0  0  0  0  0  0  0  0  0  0  0  # atno 10765 bound_to 10752
  141.0886  133.9095  157.2128 H   0  0  0  0  0  0  0  0  0  0  0  0  # atno 11005 bound_to 11000
  145.2600  141.0074  143.3831 LP  0  0  0  0  0  0  0  0  0  0  0  0  # atno 17320 bound_to 7965
  144.9306  139.4303  143.6497 LP  0  0  0  0  0  0  0  0  0  0  0  0  # atno 17321 bound_to 7965
  140.6425  143.2206  151.6258 LP  0  0  0  0  0  0  0  0  0  0  0  0  # atno 17342 bound_to 10162
  139.5238  144.3123  152.0982 LP  0  0  0  0  0  0  0  0  0  0  0  0  # atno 17343 bound_to 10162
  157.6425  131.0908  150.8222 LP  0  0  0  0  0  0  0  0  0  0  0  0  # atno 17370 bound_to 10713
  156.8315  130.5017  149.5331 LP  0  0  0  0  0  0  0  0  0  0  0  0  # atno 17371 bound_to 10713
  139.9708  135.0129  156.9506 LP  0  0  0  0  0  0  0  0  0  0  0  0  # atno 17394 bound_to 11000
  140.5305  134.0818  155.7314 LP  0  0  0  0  0  0  0  0  0  0  0  0  # atno 17395 bound_to 11000

$$$$
