AV-unprocessed.smi:840|AV-procd|sdf|3912|dock4
  -GOLD-   22720 1373D 1   1.00000     0.00000
 Structure written by MMmdl.
 37 38  0  0  0  0  0  0  0  0  1 V2000
  146.5678  139.3828  152.0582 C   0  0  0  0  0  0  0  0  0  0  0  0
  146.3527  138.2508  153.0764 C   0  0  1  0  0  0  0  0  0  0  0  0
  146.5998  136.9782  152.4005 N   0  0  0  0  0  0  0  0  0  0  0  0
  145.6617  136.0635  152.1118 C   0  0  0  0  0  0  0  0  0  0  0  0
  144.4680  136.2096  152.3779 O   0  0  0  0  0  0  0  0  0  0  0  0
  146.1984  134.9883  151.5087 N   0  0  0  0  0  0  0  0  0  0  0  0
  145.5351  133.8262  151.0346 C   0  0  0  0  0  0  0  0  0  0  0  0
  146.0952  132.9106  150.2352 N   0  0  0  0  0  0  0  0  0  0  0  0
  145.2137  131.8700  149.9315 C   0  0  0  0  0  0  0  0  0  0  0  0
  143.9777  132.0104  150.5120 C   0  0  0  0  0  0  0  0  0  0  0  0
  143.8713  133.4635  151.4698 S   0  0  0  0  0  0  0  0  0  0  0  0
  147.3467  138.4432  154.2323 C   0  0  0  0  0  0  0  0  0  0  0  0
  147.0598  139.1593  155.1930 O   0  0  0  0  0  0  0  0  0  0  0  0
  148.5128  137.7892  154.1240 N   0  0  0  0  0  0  0  0  0  0  0  0
  149.6016  137.8436  155.0954 C   0  0  0  0  0  0  0  0  0  0  0  0
  150.7963  138.6578  154.5589 C   0  0  0  0  0  0  0  0  0  0  0  0
  151.8880  137.6378  154.2358 C   0  0  0  0  0  0  0  0  0  0  0  0
  151.6650  136.5219  155.2514 C   0  0  0  0  0  0  0  0  0  0  0  0
  150.1438  136.4310  155.3879 C   0  0  0  0  0  0  0  0  0  0  0  0
  146.4049  140.3607  152.5131 H   0  0  0  0  0  0  0  0  0  0  0  0
  145.8695  139.2936  151.2257 H   0  0  0  0  0  0  0  0  0  0  0  0
  147.5771  139.3726  151.6433 H   0  0  0  0  0  0  0  0  0  0  0  0
  145.3260  138.2837  153.4471 H   0  0  0  0  0  0  0  0  0  0  0  0
  147.5569  136.7749  152.1529 H   0  0  0  0  0  0  0  0  0  0  0  0
  147.1979  135.0041  151.3687 H   0  0  0  0  0  0  0  0  0  0  0  0
  145.5503  131.0673  149.2921 H   0  0  0  0  0  0  0  0  0  0  0  0
  143.1273  131.3493  150.4346 H   0  0  0  0  0  0  0  0  0  0  0  0
  148.6649  137.2273  153.2990 H   0  0  0  0  0  0  0  0  0  0  0  0
  149.2407  138.2933  156.0223 H   0  0  0  0  0  0  0  0  0  0  0  0
  150.5502  139.2793  153.6966 H   0  0  0  0  0  0  0  0  0  0  0  0
  151.1525  139.3278  155.3425 H   0  0  0  0  0  0  0  0  0  0  0  0
  151.7432  137.2507  153.2262 H   0  0  0  0  0  0  0  0  0  0  0  0
  152.8906  138.0631  154.2902 H   0  0  0  0  0  0  0  0  0  0  0  0
  152.1163  135.5780  154.9444 H   0  0  0  0  0  0  0  0  0  0  0  0
  152.1039  136.8062  156.2086 H   0  0  0  0  0  0  0  0  0  0  0  0
  149.8457  136.0725  156.3738 H   0  0  0  0  0  0  0  0  0  0  0  0
  149.7650  135.7134  154.6577 H   0  0  0  0  0  0  0  0  0  0  0  0
  1  2  1  0  0  0  0
  1 20  1  0  0  0  0
  1 21  1  0  0  0  0
  1 22  1  0  0  0  0
  2  3  1  0  0  0  0
  2 12  1  0  0  0  0
  2 23  1  0  0  0  0
  3  4  1  0  0  0  0
  3 24  1  0  0  0  0
  4  5  2  0  0  0  0
  4  6  1  0  0  0  0
  6  7  1  0  0  0  0
  6 25  1  0  0  0  0
  7 11  1  0  0  0  0
  7  8  2  0  0  0  0
  8  9  1  0  0  0  0
  9 10  2  0  0  0  0
  9 26  1  0  0  0  0
 10 11  1  0  0  0  0
 10 27  1  0  0  0  0
 12 13  2  0  0  0  0
 12 14  1  0  0  0  0
 14 15  1  0  0  0  0
 14 28  1  0  0  0  0
 15 19  1  0  0  0  0
 15 16  1  0  0  0  0
 15 29  1  0  0  0  0
 16 17  1  0  0  0  0
 16 30  1  0  0  0  0
 16 31  1  0  0  0  0
 17 18  1  0  0  0  0
 17 32  1  0  0  0  0
 17 33  1  0  0  0  0
 18 19  1  0  0  0  0
 18 34  1  0  0  0  0
 18 35  1  0  0  0  0
 19 36  1  0  0  0  0
 19 37  1  0  0  0  0
M  END
> <s_m_source_file>
AV-unprocessed.smi

> <i_m_source_file_index>
840

> <i_lp_mmshare_version>
43012

> <i_f3d_flags>
0

> <s_epik_input>
W0NIMl0xW0NIMl1bQ0gyXVtDSDJdW0NIXTFbTkhdQyg9TylbQ0BIXShbQ0gzXSlbTkhdQyg9TylbTkhdYzJuW2NIXVtjSF1zMg==

> <s_epik_cmdline>
J2VwaWtfcHl0aG9uJywgJy1waCcsICc3LjAnLCAnLXRuJywgJzgnLCAnLW1hJywgJzIwMCcsICctbWV0YWxfYmluZGluZycsICctaW1hZScsICc8aW5maWxlLm1hZT4nLCAnLW9tYWUnLCAnPG91dGZpbGUubWFlPic=

> <r_lp_tautomer_probability>
1

> <r_epik_Ionization_Penalty>
0.000138928

> <r_epik_Ionization_Penalty_Charging>
0

> <r_epik_Ionization_Penalty_Neutral>
0.000138928

> <r_epik_State_Penalty>
-0

> <r_epik_Charging_Adjusted_Penalty>
0

> <i_epik_Tot_Q>
0

> <i_epik_Tot_abs_Q>
0

> <r_epik_Metal_State_Penalty>
0.0502858

> <b_epik_Metal_Only>
0

> <s_lp_Force_Field>
OPLS_2005

> <r_lp_Energy>
16.0697

> <b_lp_Chiralities_Consistent>
1

> <s_lp_Variant>
AV-unprocessed.smi:840-2

> <Gold.Version>
5.8.1

> <Gold.Id.Protein>
6NUR|6NUR_protein|mol2

> <Gold.PLP.Fitness>
41.0645

> <Gold.PLP.PLP>
-32.9269

> <Gold.PLP.part.hbond>
-2.9876

> <Gold.PLP.part.metal>
0.0000

> <Gold.PLP.part.buried>
-4.7546

> <Gold.PLP.part.nonpolar>
-29.0058

> <Gold.PLP.part.repulsive>
1.5013

> <Gold.PLP.ligand.clash>
0.0000

> <Gold.PLP.ligand.torsion>
0.9973

> <Gold.PLP.Chemscore.Hbond>
2.5976

> <Gold.PLP.Chemscore.CHOScore>
0.7760

> <Gold.PLP.Chemscore.Metal>
0.0000

> <Gold.Chemscore.Hbonds>
donor molecule, donor type, donor heavy atom, donor atom, acceptor molecule, acceptor atom, score
      L1  H     3    24       P1  7948  0.96
      L1  H     6    25       P1  7948  0.59
      L1  H    14    28       P1  7948  1.00
      L1  C    10    27       P1 10952  0.68

> <Gold.PLP.Chemscore.Internal.Correction>
0.0114

> <Gold.Rescore>
     Score         DG    S(hbond)    S(metal)    S(lipo)     H(rot)  DE(clash)    DE(int)     intcor
     16.26     -18.79       2.63        0.00      74.78       1.65       0.43       2.10       ----

> <Gold.Chemscore.Fitness>
16.2558

> <Gold.Chemscore.DG>
-18.7922

> <Gold.Chemscore.ZeroCoef>
-5.4800

> <Gold.Chemscore.Hbond>
2.6301

> <Gold.Chemscore.Metal>
0.0000

> <Gold.Chemscore.Lipo>
74.7796

> <Gold.Chemscore.Internal_Hbond>
0.0000

> <Gold.Chemscore.DEClash>
0.4332

> <Gold.Chemscore.DEInternal>
2.1032

> <Gold.Chemscore.Rot>
1.6490

> <Gold.Chemscore.Internal.Correction>
   9.000000E+99

> <Gold.Chemscore.Hbonds>
donor molecule, donor type, donor heavy atom, donor atom, acceptor molecule, acceptor atom, score
      L1  H     3    24       P1  7948  0.90
      L1  H     6    25       P1  7948  0.41
      L1  H    14    28       P1  7948  1.00

> <Gold.Chemscore.Hbond.Weighted>
-8.7844

> <Gold.Chemscore.Metal.Weighted>
-0.0000

> <Gold.Chemscore.Lipo.Weighted>
-8.7492

> <Gold.Chemscore.Internal_Hbond.Weighted>
0.0000

> <Gold.Chemscore.DEClash.Weighted>
0.4332

> <Gold.Chemscore.DEInternal.Weighted>
2.1032

> <Gold.Chemscore.Rot.Weighted>
4.2215

> <Gold.Chemscore.Internal.Correction.Weighted>
   9.000000E+99

> <Gold.Protein.RotatedTorsions>
[ 6907 6896 6895 6894 ] final -167.46 input  -60.11 | X-H torsion
[ 7974 7965 7964 7962 ] final  121.12 input  175.53 | X-H torsion
[ 8008 7997 7996 7995 ] final   57.30 input   59.86 | X-H torsion
[ 10167 10162 10161 10158 ] final -162.07 input  -65.29 | X-H torsion
[ 10718 10713 10712 10709 ] final  -99.62 input   66.30 | X-H torsion
[ 10763 10752 10751 10750 ] final  -36.02 input  -60.55 | X-H torsion
[ 11005 11000 10999 10996 ] final  -21.57 input  -57.11 | X-H torsion

> <Gold.Protein.ActiveResidues>
 VAL166  LYS551  ARG553  GLY616  TRP617  ASP618  TYR619  PRO620  LYS621  CYS622 
 ASP623  PHE694  ASN695  SER759  ASP760  ASP761  ALA762  ILE779  LEU786  VAL792 
 PHE793  MET794  SER795  GLU796  ALA797  LYS798  CYS799  TRP800  GLU811  SER814 

> <Gold.Protein.RotatedAtoms>
  151.4598  133.3595  159.2807 H   0  0  0  0  0  0  0  0  0  0  0  0  # atno 6907 bound_to 6896
  150.9033  134.8448  159.7386 H   0  0  0  0  0  0  0  0  0  0  0  0  # atno 6908 bound_to 6896
  152.4892  134.4521  159.9630 H   0  0  0  0  0  0  0  0  0  0  0  0  # atno 6909 bound_to 6896
  145.1231  139.3376  143.4704 H   0  0  0  0  0  0  0  0  0  0  0  0  # atno 7974 bound_to 7965
  155.5315  140.3482  155.4427 H   0  0  0  0  0  0  0  0  0  0  0  0  # atno 8008 bound_to 7997
  156.0715  140.1364  156.9850 H   0  0  0  0  0  0  0  0  0  0  0  0  # atno 8009 bound_to 7997
  154.4530  140.0965  156.6651 H   0  0  0  0  0  0  0  0  0  0  0  0  # atno 8010 bound_to 7997
  139.6419  144.0244  152.2098 H   0  0  0  0  0  0  0  0  0  0  0  0  # atno 10167 bound_to 10162
  156.0139  130.5290  150.6697 H   0  0  0  0  0  0  0  0  0  0  0  0  # atno 10718 bound_to 10713
  153.8729  135.6829  153.4773 H   0  0  0  0  0  0  0  0  0  0  0  0  # atno 10763 bound_to 10752
  153.1277  135.4711  154.9297 H   0  0  0  0  0  0  0  0  0  0  0  0  # atno 10764 bound_to 10752
  154.7706  135.3237  154.8149 H   0  0  0  0  0  0  0  0  0  0  0  0  # atno 10765 bound_to 10752
  140.8573  133.7813  156.0035 H   0  0  0  0  0  0  0  0  0  0  0  0  # atno 11005 bound_to 11000
  146.3519  140.1199  142.8600 LP  0  0  0  0  0  0  0  0  0  0  0  0  # atno 17320 bound_to 7965
  145.0718  140.9160  143.4877 LP  0  0  0  0  0  0  0  0  0  0  0  0  # atno 17321 bound_to 7965
  139.9936  144.6344  150.7792 LP  0  0  0  0  0  0  0  0  0  0  0  0  # atno 17342 bound_to 10162
  140.7495  143.2940  151.3255 LP  0  0  0  0  0  0  0  0  0  0  0  0  # atno 17343 bound_to 10162
  157.4422  131.0862  151.0932 LP  0  0  0  0  0  0  0  0  0  0  0  0  # atno 17370 bound_to 10713
  157.1473  130.6169  149.5572 LP  0  0  0  0  0  0  0  0  0  0  0  0  # atno 17371 bound_to 10713
  140.8722  134.2712  157.5185 LP  0  0  0  0  0  0  0  0  0  0  0  0  # atno 17394 bound_to 11000
  139.8705  134.9573  156.4264 LP  0  0  0  0  0  0  0  0  0  0  0  0  # atno 17395 bound_to 11000

$$$$
