AV-unprocessed.smi:37|AV-procd|sdf|310|dock4
  -GOLD-   2262016123D 1   1.00000     0.00000
 Structure written by MMmdl.
 44 45  0  0  0  0  0  0  0  0  1 V2000
  146.2501  134.7861  162.5162 C   0  0  0  0  0  0  0  0  0  0  0  0
  146.4784  135.1898  161.0532 C   0  0  0  0  0  0  0  0  0  0  0  0
  147.4682  136.3449  160.9210 C   0  0  0  0  0  0  0  0  0  0  0  0
  147.2938  137.4107  161.5121 O   0  0  0  0  0  0  0  0  0  0  0  0
  148.5044  136.0497  160.1205 O   0  0  0  0  0  0  0  0  0  0  0  0
  149.5364  137.0027  159.9306 C   0  0  0  0  0  0  0  0  0  0  0  0
  149.7051  137.2692  158.4296 C   0  0  1  0  0  0  0  0  0  0  0  0
  149.8566  138.6589  158.1636 O   0  0  0  0  0  0  0  0  0  0  0  0
  150.5630  138.8411  156.9706 C   0  0  2  0  0  0  0  0  0  0  0  0
  149.6707  139.4969  155.9407 N   0  0  0  0  0  0  0  0  0  0  0  0
  148.3408  139.8068  156.2005 C   0  0  0  0  0  0  0  0  0  0  0  0
  147.5303  140.3893  155.2855 C   0  0  0  0  0  0  0  0  0  0  0  0
  146.2530  140.6566  155.6062 F   0  0  0  0  0  0  0  0  0  0  0  0
  148.0284  140.7258  153.9548 C   0  0  0  0  0  0  0  0  0  0  0  0
  147.3713  141.2551  153.0605 O   0  0  0  0  0  0  0  0  0  0  0  0
  149.3691  140.3931  153.7387 N   0  0  0  0  0  0  0  0  0  0  0  0
  150.2148  139.7911  154.6716 C   0  0  0  0  0  0  0  0  0  0  0  0
  151.3794  139.5298  154.3732 O   0  0  0  0  0  0  0  0  0  0  0  0
  151.0886  137.4583  156.5246 C   0  0  2  0  0  0  0  0  0  0  0  0
  149.9609  136.5864  155.1216 Br  0  0  0  0  0  0  0  0  0  0  0  0
  150.9553  136.6485  157.8029 C   0  0  1  0  0  0  0  0  0  0  0  0
  152.0788  136.8537  158.6536 O   0  0  0  0  0  0  0  0  0  0  0  0
  153.3061  136.4607  158.2681 C   0  0  0  0  0  0  0  0  0  0  0  0
  153.6022  135.9944  157.1680 O   0  0  0  0  0  0  0  0  0  0  0  0
  154.3576  136.6652  159.3562 C   0  0  0  0  0  0  0  0  0  0  0  0
  153.8072  137.4508  160.5545 C   0  0  0  0  0  0  0  0  0  0  0  0
  149.7561  140.6032  152.8303 H   0  0  0  0  0  0  0  0  0  0  0  0
  145.5496  133.9534  162.5792 H   0  0  0  0  0  0  0  0  0  0  0  0
  145.8361  135.6093  163.0999 H   0  0  0  0  0  0  0  0  0  0  0  0
  147.1809  134.4710  162.9893 H   0  0  0  0  0  0  0  0  0  0  0  0
  146.8528  134.3364  160.4873 H   0  0  0  0  0  0  0  0  0  0  0  0
  145.5335  135.4830  160.5951 H   0  0  0  0  0  0  0  0  0  0  0  0
  149.3110  137.9271  160.4642 H   0  0  0  0  0  0  0  0  0  0  0  0
  150.4646  136.6023  160.3409 H   0  0  0  0  0  0  0  0  0  0  0  0
  148.8288  136.9048  157.8907 H   0  0  0  0  0  0  0  0  0  0  0  0
  151.3607  139.5565  157.1806 H   0  0  0  0  0  0  0  0  0  0  0  0
  147.9112  139.5751  157.1639 H   0  0  0  0  0  0  0  0  0  0  0  0
  152.1079  137.5278  156.1430 H   0  0  0  0  0  0  0  0  0  0  0  0
  150.8142  135.5842  157.6087 H   0  0  0  0  0  0  0  0  0  0  0  0
  154.7164  135.6902  159.6872 H   0  0  0  0  0  0  0  0  0  0  0  0
  155.2122  137.1882  158.9265 H   0  0  0  0  0  0  0  0  0  0  0  0
  154.5663  137.5476  161.3307 H   0  0  0  0  0  0  0  0  0  0  0  0
  152.9458  136.9485  160.9962 H   0  0  0  0  0  0  0  0  0  0  0  0
  153.4998  138.4572  160.2679 H   0  0  0  0  0  0  0  0  0  0  0  0
  1  2  1  0  0  0  0
  1 28  1  0  0  0  0
  1 29  1  0  0  0  0
  1 30  1  0  0  0  0
  2  3  1  0  0  0  0
  2 31  1  0  0  0  0
  2 32  1  0  0  0  0
  3  4  2  0  0  0  0
  3  5  1  0  0  0  0
  5  6  1  0  0  0  0
  6  7  1  0  0  0  0
  6 33  1  0  0  0  0
  6 34  1  0  0  0  0
  7 21  1  0  0  0  0
  7  8  1  0  0  0  0
  7 35  1  0  0  0  0
  8  9  1  0  0  0  0
  9 10  1  0  0  0  0
  9 19  1  0  0  0  0
  9 36  1  0  0  0  0
 10 17  1  0  0  0  0
 10 11  1  0  0  0  0
 11 12  2  0  0  0  0
 11 37  1  0  0  0  0
 12 13  1  0  0  0  0
 12 14  1  0  0  0  0
 14 15  2  0  0  0  0
 14 16  1  0  0  0  0
 16 27  1  0  0  0  0
 16 17  1  0  0  0  0
 17 18  2  0  0  0  0
 19 20  1  0  0  0  0
 19 21  1  0  0  0  0
 19 38  1  0  0  0  0
 21 22  1  0  0  0  0
 21 39  1  0  0  0  0
 22 23  1  0  0  0  0
 23 24  2  0  0  0  0
 23 25  1  0  0  0  0
 25 26  1  0  0  0  0
 25 40  1  0  0  0  0
 25 41  1  0  0  0  0
 26 42  1  0  0  0  0
 26 43  1  0  0  0  0
 26 44  1  0  0  0  0
M  END
> <s_m_source_file>
AV-unprocessed.smi

> <i_m_source_file_index>
37

> <i_lp_mmshare_version>
43012

> <i_f3d_flags>
0

> <s_epik_input>
W0NIM11bQ0gyXUMoPU8pT1tDSDJdW0NAQEhdMU9bQ0BASF0objJbY0hdYyhGKWMoPU8pW25IXWMyPU8pW0NAQEhdKEJyKVtDQEhdMU9DKD1PKVtDSDJdW0NIM10=

> <s_epik_cmdline>
J2VwaWtfcHl0aG9uJywgJy1waCcsICc3LjAnLCAnLXRuJywgJzgnLCAnLW1hJywgJzIwMCcsICctbWV0YWxfYmluZGluZycsICctaW1hZScsICc8aW5maWxlLm1hZT4nLCAnLW9tYWUnLCAnPG91dGZpbGUubWFlPic=

> <r_lp_tautomer_probability>
0.999537

> <r_epik_Ionization_Penalty>
0.104106

> <r_epik_Ionization_Penalty_Charging>
0.104106

> <r_epik_Ionization_Penalty_Neutral>
3.94675e-16

> <r_epik_State_Penalty>
0.0940182

> <r_epik_Charging_Adjusted_Penalty>
0.198124

> <i_epik_Tot_Q>
0

> <i_epik_Tot_abs_Q>
0

> <r_epik_Metal_State_Penalty>
3.05314

> <b_epik_Metal_Only>
0

> <s_epik_Chemistry_Notes>
This compound has an ester and may undergo hydrolysis at high or low pH. This compound contains an acetal/aminal-like group ( X-CH(R)-Y where X, Y are N, S, or O) that may be acid/base labile, releasing an aldehyde.

> <s_lp_Force_Field>
OPLS_2005

> <r_lp_Energy>
24.0333

> <b_lp_Chiralities_Consistent>
1

> <s_lp_Variant>
AV-unprocessed.smi:37-8

> <Gold.Version>
5.8.1

> <Gold.Id.Protein>
6NUR|6NUR_protein|mol2

> <Gold.PLP.Fitness>
40.2955

> <Gold.PLP.PLP>
-27.7493

> <Gold.PLP.part.hbond>
-5.5207

> <Gold.PLP.part.metal>
0.0000

> <Gold.PLP.part.buried>
-1.4835

> <Gold.PLP.part.nonpolar>
-20.1380

> <Gold.PLP.part.repulsive>
0.5090

> <Gold.PLP.ligand.clash>
0.0000

> <Gold.PLP.ligand.torsion>
1.1359

> <Gold.PLP.Chemscore.Hbond>
4.8560

> <Gold.PLP.Chemscore.CHOScore>
0.0000

> <Gold.PLP.Chemscore.Metal>
0.0000

> <Gold.Chemscore.Hbonds>
donor molecule, donor type, donor heavy atom, donor atom, acceptor molecule, acceptor atom, score
      L1  H    16    27       P1  7957  0.80
      P1  H  6931  6943       L1     4  0.77
      P1  H  6934  6947       L1     4  0.90
      P1  H  7989  7998       L1    18  0.85
      P1  H 10752 10764       L1    24  1.00

> <Gold.PLP.Chemscore.Internal.Correction>
0.2500

> <Gold.Rescore>
     Score         DG    S(hbond)    S(metal)    S(lipo)     H(rot)  DE(clash)    DE(int)     intcor
     14.15     -15.59       3.90        0.00      47.83       3.33       0.20       1.25       ----

> <Gold.Chemscore.Fitness>
14.1506

> <Gold.Chemscore.DG>
-15.5934

> <Gold.Chemscore.ZeroCoef>
-5.4800

> <Gold.Chemscore.Hbond>
3.9050

> <Gold.Chemscore.Metal>
0.0000

> <Gold.Chemscore.Lipo>
47.8329

> <Gold.Chemscore.Internal_Hbond>
0.0000

> <Gold.Chemscore.DEClash>
0.1971

> <Gold.Chemscore.DEInternal>
1.2457

> <Gold.Chemscore.Rot>
3.3303

> <Gold.Chemscore.Internal.Correction>
   9.000000E+99

> <Gold.Chemscore.Hbonds>
donor molecule, donor type, donor heavy atom, donor atom, acceptor molecule, acceptor atom, score
      L1  H    16    27       P1  7957  0.80
      P1  H  6931  6943       L1     4  0.60
      P1  H  6934  6947       L1     4  0.88
      P1  H  7989  7998       L1    18  0.14
      P1  H 10752 10764       L1    24  0.99

> <Gold.Chemscore.Hbond.Weighted>
-13.0425

> <Gold.Chemscore.Metal.Weighted>
-0.0000

> <Gold.Chemscore.Lipo.Weighted>
-5.5965

> <Gold.Chemscore.Internal_Hbond.Weighted>
0.0000

> <Gold.Chemscore.DEClash.Weighted>
0.1971

> <Gold.Chemscore.DEInternal.Weighted>
1.2457

> <Gold.Chemscore.Rot.Weighted>
8.5256

> <Gold.Chemscore.Internal.Correction.Weighted>
   9.000000E+99

> <Gold.Protein.RotatedTorsions>
[ 6907 6896 6895 6894 ] final   74.77 input  -60.11 | X-H torsion
[ 7974 7965 7964 7962 ] final  -61.00 input  175.53 | X-H torsion
[ 8008 7997 7996 7995 ] final  -22.50 input   59.86 | X-H torsion
[ 10167 10162 10161 10158 ] final   36.45 input  -65.29 | X-H torsion
[ 10718 10713 10712 10709 ] final   39.91 input   66.30 | X-H torsion
[ 10763 10752 10751 10750 ] final   23.62 input  -60.55 | X-H torsion
[ 11005 11000 10999 10996 ] final  156.07 input  -57.11 | X-H torsion

> <Gold.Protein.ActiveResidues>
 VAL166  LYS551  ARG553  GLY616  TRP617  ASP618  TYR619  PRO620  LYS621  CYS622 
 ASP623  PHE694  ASN695  SER759  ASP760  ASP761  ALA762  ILE779  LEU786  VAL792 
 PHE793  MET794  SER795  GLU796  ALA797  LYS798  CYS799  TRP800  GLU811  SER814 

> <Gold.Protein.RotatedAtoms>
  152.4993  134.4221  159.9483 H   0  0  0  0  0  0  0  0  0  0  0  0  # atno 6907 bound_to 6896
  151.4194  133.3697  159.2762 H   0  0  0  0  0  0  0  0  0  0  0  0  # atno 6908 bound_to 6896
  150.9233  134.8673  159.7563 H   0  0  0  0  0  0  0  0  0  0  0  0  # atno 6909 bound_to 6896
  145.8087  140.8612  143.0193 H   0  0  0  0  0  0  0  0  0  0  0  0  # atno 7974 bound_to 7965
  154.4640  140.2006  156.0167 H   0  0  0  0  0  0  0  0  0  0  0  0  # atno 8008 bound_to 7997
  156.0893  140.3260  155.7767 H   0  0  0  0  0  0  0  0  0  0  0  0  # atno 8009 bound_to 7997
  155.4982  140.0551  157.2934 H   0  0  0  0  0  0  0  0  0  0  0  0  # atno 8010 bound_to 7997
  140.4127  144.1570  150.6140 H   0  0  0  0  0  0  0  0  0  0  0  0  # atno 10167 bound_to 10162
  157.3760  130.7727  149.7156 H   0  0  0  0  0  0  0  0  0  0  0  0  # atno 10718 bound_to 10713
  153.0824  135.6623  154.0017 H   0  0  0  0  0  0  0  0  0  0  0  0  # atno 10763 bound_to 10752
  153.9635  135.2971  155.3433 H   0  0  0  0  0  0  0  0  0  0  0  0  # atno 10764 bound_to 10752
  154.7226  135.5158  153.8908 H   0  0  0  0  0  0  0  0  0  0  0  0  # atno 10765 bound_to 10752
  140.1641  134.8589  157.2610 H   0  0  0  0  0  0  0  0  0  0  0  0  # atno 11005 bound_to 11000
  144.6760  140.0364  143.7481 LP  0  0  0  0  0  0  0  0  0  0  0  0  # atno 17320 bound_to 7965
  145.9800  139.2934  143.1047 LP  0  0  0  0  0  0  0  0  0  0  0  0  # atno 17321 bound_to 7965
  140.4621  143.2445  151.9206 LP  0  0  0  0  0  0  0  0  0  0  0  0  # atno 17342 bound_to 10162
  139.4782  144.5457  151.8461 LP  0  0  0  0  0  0  0  0  0  0  0  0  # atno 17343 bound_to 10162
  155.9765  130.4074  150.3772 LP  0  0  0  0  0  0  0  0  0  0  0  0  # atno 17370 bound_to 10713
  157.1870  131.0406  151.2720 LP  0  0  0  0  0  0  0  0  0  0  0  0  # atno 17371 bound_to 10713
  140.2455  134.3745  155.7463 LP  0  0  0  0  0  0  0  0  0  0  0  0  # atno 17394 bound_to 11000
  141.2212  133.7288  156.8855 LP  0  0  0  0  0  0  0  0  0  0  0  0  # atno 17395 bound_to 11000

$$$$
