AV-unprocessed.smi:283|AV-procd|sdf|2129|dock3
  -GOLD-   2262021443D 1   1.00000     0.00000
 Structure written by MMmdl.
 48 51  0  0  0  0  0  0  0  0  1 V2000
  154.5960  142.9004  163.6535 C   0  0  0  0  0  0  0  0  0  0  0  0
  153.8702  141.8573  162.7930 C   0  0  2  0  0  0  0  0  0  0  0  0
  154.8217  140.8445  162.3401 N   0  0  0  0  0  0  0  0  0  0  0  0
  155.3140  139.9173  163.1911 C   0  0  0  0  0  0  0  0  0  0  0  0
  156.2259  140.3697  164.0843 N   0  0  0  0  0  0  0  0  0  0  0  0
  156.7894  139.5266  164.9535 C   0  0  0  0  0  0  0  0  0  0  0  0
  156.5809  138.2171  165.0998 N   0  0  0  0  0  0  0  0  0  0  0  0
  155.6505  137.7550  164.2148 C   0  0  0  0  0  0  0  0  0  0  0  0
  154.9709  138.5335  163.2346 C   0  0  0  0  0  0  0  0  0  0  0  0
  154.0959  137.7162  162.5300 N   0  0  0  0  0  0  0  0  0  0  0  0
  154.2682  136.5315  163.0476 C   0  0  0  0  0  0  0  0  0  0  0  0
  155.1782  136.4657  164.0826 N   0  0  0  0  0  0  0  0  0  0  0  0
  155.6402  135.2822  164.8831 C   0  0  2  0  0  0  0  0  0  0  0  0
  156.0286  134.2906  163.9822 O   0  0  0  0  0  0  0  0  0  0  0  0
  154.9627  133.3680  163.7926 C   0  0  1  0  0  0  0  0  0  0  0  0
  155.4683  132.0488  163.1807 C   0  0  0  0  0  0  0  0  0  0  0  0
  154.3810  131.1881  162.9158 O   0  0  0  0  0  0  0  0  0  0  0  0
  154.3717  133.2657  165.2065 C   0  0  1  0  0  0  0  0  0  0  0  0
  155.0938  132.3216  165.9814 O   0  0  0  0  0  0  0  0  0  0  0  0
  154.5021  134.6960  165.7413 C   0  0  1  0  0  0  0  0  0  0  0  0
  154.7780  134.7435  167.1288 O   0  0  0  0  0  0  0  0  0  0  0  0
  153.0847  142.5457  161.6727 C   0  0  0  0  0  0  0  0  0  0  0  0
  152.2813  143.6730  161.9641 C   0  0  0  0  0  0  0  0  0  0  0  0
  151.5575  144.3223  160.9469 C   0  0  0  0  0  0  0  0  0  0  0  0
  151.6205  143.8450  159.6257 C   0  0  0  0  0  0  0  0  0  0  0  0
  152.4032  142.7149  159.3261 C   0  0  0  0  0  0  0  0  0  0  0  0
  153.1306  142.0611  160.3408 C   0  0  0  0  0  0  0  0  0  0  0  0
  154.0633  140.6685  159.9157 Cl  0  0  0  0  0  0  0  0  0  0  0  0
  156.4946  135.6336  165.4621 H   0  0  0  0  0  0  0  0  0  0  0  0
  154.2138  133.8102  163.1352 H   0  0  0  0  0  0  0  0  0  0  0  0
  153.3299  132.9447  165.1780 H   0  0  0  0  0  0  0  0  0  0  0  0
  153.5766  135.2437  165.5654 H   0  0  0  0  0  0  0  0  0  0  0  0
  153.8923  143.6175  164.0772 H   0  0  0  0  0  0  0  0  0  0  0  0
  155.3279  143.4587  163.0686 H   0  0  0  0  0  0  0  0  0  0  0  0
  155.1219  142.4282  164.4839 H   0  0  0  0  0  0  0  0  0  0  0  0
  153.1727  141.3405  163.4496 H   0  0  0  0  0  0  0  0  0  0  0  0
  154.8518  140.7144  161.3394 H   0  0  0  0  0  0  0  0  0  0  0  0
  157.5124  139.9631  165.6266 H   0  0  0  0  0  0  0  0  0  0  0  0
  153.7202  135.6763  162.6819 H   0  0  0  0  0  0  0  0  0  0  0  0
  156.0398  132.2237  162.2687 H   0  0  0  0  0  0  0  0  0  0  0  0
  156.1252  131.5363  163.8843 H   0  0  0  0  0  0  0  0  0  0  0  0
  153.7296  131.6667  162.4264 H   0  0  0  0  0  0  0  0  0  0  0  0
  154.5319  132.0120  166.6755 H   0  0  0  0  0  0  0  0  0  0  0  0
  155.3703  135.4616  167.2927 H   0  0  0  0  0  0  0  0  0  0  0  0
  152.2176  144.0512  162.9738 H   0  0  0  0  0  0  0  0  0  0  0  0
  150.9528  145.1859  161.1814 H   0  0  0  0  0  0  0  0  0  0  0  0
  151.0649  144.3418  158.8439 H   0  0  0  0  0  0  0  0  0  0  0  0
  152.4432  142.3462  158.3117 H   0  0  0  0  0  0  0  0  0  0  0  0
  1  2  1  0  0  0  0
  1 33  1  0  0  0  0
  1 34  1  0  0  0  0
  1 35  1  0  0  0  0
  2  3  1  0  0  0  0
  2 22  1  0  0  0  0
  2 36  1  0  0  0  0
  3  4  1  0  0  0  0
  3 37  1  0  0  0  0
  4  9  1  0  0  0  0
  4  5  2  0  0  0  0
  5  6  1  0  0  0  0
  6  7  2  0  0  0  0
  6 38  1  0  0  0  0
  7  8  1  0  0  0  0
  8 12  1  0  0  0  0
  8  9  2  0  0  0  0
  9 10  1  0  0  0  0
 10 11  2  0  0  0  0
 11 12  1  0  0  0  0
 11 39  1  0  0  0  0
 12 13  1  0  0  0  0
 13 29  1  0  0  0  0
 13 20  1  0  0  0  0
 13 14  1  0  0  0  0
 14 15  1  0  0  0  0
 15 30  1  0  0  0  0
 15 16  1  0  0  0  0
 15 18  1  0  0  0  0
 16 17  1  0  0  0  0
 16 40  1  0  0  0  0
 16 41  1  0  0  0  0
 17 42  1  0  0  0  0
 18 31  1  0  0  0  0
 18 19  1  0  0  0  0
 18 20  1  0  0  0  0
 19 43  1  0  0  0  0
 20 32  1  0  0  0  0
 20 21  1  0  0  0  0
 21 44  1  0  0  0  0
 22 27  1  0  0  0  0
 22 23  2  0  0  0  0
 23 24  1  0  0  0  0
 23 45  1  0  0  0  0
 24 25  2  0  0  0  0
 24 46  1  0  0  0  0
 25 26  1  0  0  0  0
 25 47  1  0  0  0  0
 26 27  2  0  0  0  0
 26 48  1  0  0  0  0
 27 28  1  0  0  0  0
M  END
> <s_m_source_file>
AV-unprocessed.smi

> <i_m_source_file_index>
283

> <i_lp_mmshare_version>
43012

> <i_f3d_flags>
0

> <s_epik_input>
Q2xjMVtjSF1bY0hdW2NIXVtjSF1jMVtDQEhdKFtDSDNdKVtOSF1jKG5bY0hdbjIpYyhjMjMpbltjSF1uM1tDQEBIXTRPW0NASF0oW0NIMl1bT0hdKVtDQEBIXShbT0hdKVtDQEhdNFtPSF0=

> <s_epik_cmdline>
J2VwaWtfcHl0aG9uJywgJy1waCcsICc3LjAnLCAnLXRuJywgJzgnLCAnLW1hJywgJzIwMCcsICctbWV0YWxfYmluZGluZycsICctaW1hZScsICc8aW5maWxlLm1hZT4nLCAnLW9tYWUnLCAnPG91dGZpbGUubWFlPic=

> <r_lp_tautomer_probability>
1

> <r_epik_Ionization_Penalty>
0.000266407

> <r_epik_Ionization_Penalty_Charging>
0

> <r_epik_Ionization_Penalty_Neutral>
0.000266407

> <r_epik_State_Penalty>
-0

> <r_epik_Charging_Adjusted_Penalty>
0

> <i_epik_Tot_Q>
0

> <i_epik_Tot_abs_Q>
0

> <r_epik_Metal_State_Penalty>
-0

> <b_epik_Metal_Only>
0

> <s_epik_Chemistry_Notes>
This compound contains an acetal/aminal-like group ( X-CH(R)-Y where X, Y are N, S, or O) that may be acid/base labile, releasing an aldehyde.

> <s_lp_Force_Field>
OPLS_2005

> <r_lp_Energy>
46.6771

> <b_lp_Chiralities_Consistent>
1

> <s_lp_Variant>
AV-unprocessed.smi:283-5

> <Gold.Version>
5.8.1

> <Gold.Id.Protein>
6NUR|6NUR_protein|mol2

> <Gold.PLP.Fitness>
51.9143

> <Gold.PLP.PLP>
-54.2720

> <Gold.PLP.part.hbond>
-1.5445

> <Gold.PLP.part.metal>
0.0000

> <Gold.PLP.part.buried>
-6.5858

> <Gold.PLP.part.nonpolar>
-46.1788

> <Gold.PLP.part.repulsive>
0.0655

> <Gold.PLP.ligand.clash>
0.0000

> <Gold.PLP.ligand.torsion>
1.2473

> <Gold.PLP.Chemscore.Hbond>
0.0000

> <Gold.PLP.Chemscore.CHOScore>
0.0000

> <Gold.PLP.Chemscore.Metal>
0.0000

> <Gold.PLP.Chemscore.Internal.Correction>
0.1369

> <Gold.Rescore>
     Score         DG    S(hbond)    S(metal)    S(lipo)     H(rot)  DE(clash)    DE(int)     intcor
      6.03      -9.41       0.00        0.00     123.25       4.10       0.42       2.97       ----

> <Gold.Chemscore.Fitness>
6.0277

> <Gold.Chemscore.DG>
-9.4127

> <Gold.Chemscore.ZeroCoef>
-5.4800

> <Gold.Chemscore.Hbond>
0.0000

> <Gold.Chemscore.Metal>
0.0000

> <Gold.Chemscore.Lipo>
123.2529

> <Gold.Chemscore.Internal_Hbond>
0.0000

> <Gold.Chemscore.DEClash>
0.4184

> <Gold.Chemscore.DEInternal>
2.9666

> <Gold.Chemscore.Rot>
4.0968

> <Gold.Chemscore.Internal.Correction>
   9.000000E+99

> <Gold.Chemscore.Hbond.Weighted>
-0.0000

> <Gold.Chemscore.Metal.Weighted>
-0.0000

> <Gold.Chemscore.Lipo.Weighted>
-14.4206

> <Gold.Chemscore.Internal_Hbond.Weighted>
0.0000

> <Gold.Chemscore.DEClash.Weighted>
0.4184

> <Gold.Chemscore.DEInternal.Weighted>
2.9666

> <Gold.Chemscore.Rot.Weighted>
10.4879

> <Gold.Chemscore.Internal.Correction.Weighted>
   9.000000E+99

> <Gold.Protein.RotatedTorsions>
[ 6907 6896 6895 6894 ] final -147.15 input  -60.11 | X-H torsion
[ 7974 7965 7964 7962 ] final -124.57 input  175.53 | X-H torsion
[ 8008 7997 7996 7995 ] final  161.11 input   59.86 | X-H torsion
[ 10167 10162 10161 10158 ] final  174.75 input  -65.29 | X-H torsion
[ 10718 10713 10712 10709 ] final  116.29 input   66.30 | X-H torsion
[ 10763 10752 10751 10750 ] final  148.72 input  -60.55 | X-H torsion
[ 11005 11000 10999 10996 ] final   97.15 input  -57.11 | X-H torsion

> <Gold.Protein.ActiveResidues>
 VAL166  LYS551  ARG553  GLY616  TRP617  ASP618  TYR619  PRO620  LYS621  CYS622 
 ASP623  PHE694  ASN695  SER759  ASP760  ASP761  ALA762  ILE779  LEU786  VAL792 
 PHE793  MET794  SER795  GLU796  ALA797  LYS798  CYS799  TRP800  GLU811  SER814 

> <Gold.Protein.RotatedAtoms>
  151.1516  133.4903  159.2594 H   0  0  0  0  0  0  0  0  0  0  0  0  # atno 6907 bound_to 6896
  151.1548  135.0244  159.8694 H   0  0  0  0  0  0  0  0  0  0  0  0  # atno 6908 bound_to 6896
  152.5463  134.1396  159.8526 H   0  0  0  0  0  0  0  0  0  0  0  0  # atno 6909 bound_to 6896
  145.0067  140.7869  143.4463 H   0  0  0  0  0  0  0  0  0  0  0  0  # atno 7974 bound_to 7965
  156.2126  140.1786  156.7661 H   0  0  0  0  0  0  0  0  0  0  0  0  # atno 8008 bound_to 7997
  154.5744  140.0677  156.9042 H   0  0  0  0  0  0  0  0  0  0  0  0  # atno 8009 bound_to 7997
  155.2614  140.3336  155.4275 H   0  0  0  0  0  0  0  0  0  0  0  0  # atno 8010 bound_to 7997
  139.5153  144.3111  152.0291 H   0  0  0  0  0  0  0  0  0  0  0  0  # atno 10167 bound_to 10162
  157.6170  131.1023  150.7451 H   0  0  0  0  0  0  0  0  0  0  0  0  # atno 10718 bound_to 10713
  154.0594  135.2875  155.3327 H   0  0  0  0  0  0  0  0  0  0  0  0  # atno 10763 bound_to 10752
  154.6818  135.5260  153.8277 H   0  0  0  0  0  0  0  0  0  0  0  0  # atno 10764 bound_to 10752
  153.0529  135.6583  154.0783 H   0  0  0  0  0  0  0  0  0  0  0  0  # atno 10765 bound_to 10752
  139.8777  134.8986  156.4264 H   0  0  0  0  0  0  0  0  0  0  0  0  # atno 11005 bound_to 11000
  145.2078  139.2219  143.5159 LP  0  0  0  0  0  0  0  0  0  0  0  0  # atno 17320 bound_to 7965
  146.3462  140.1910  142.8589 LP  0  0  0  0  0  0  0  0  0  0  0  0  # atno 17321 bound_to 7965
  140.2555  144.4123  150.6205 LP  0  0  0  0  0  0  0  0  0  0  0  0  # atno 17342 bound_to 10162
  140.6194  143.2175  151.6724 LP  0  0  0  0  0  0  0  0  0  0  0  0  # atno 17343 bound_to 10162
  156.7817  130.4861  149.5400 LP  0  0  0  0  0  0  0  0  0  0  0  0  # atno 17370 bound_to 10713
  156.1296  130.6168  151.0314 LP  0  0  0  0  0  0  0  0  0  0  0  0  # atno 17371 bound_to 10713
  140.9098  133.7720  155.9778 LP  0  0  0  0  0  0  0  0  0  0  0  0  # atno 17394 bound_to 11000
  140.8559  134.2898  157.5255 LP  0  0  0  0  0  0  0  0  0  0  0  0  # atno 17395 bound_to 11000

$$$$
