AV-unprocessed.smi:1135|AV-procd|sdf|4860|dock7
  -GOLD-   22720 3433D 1   1.00000     0.00000
 Structure written by MMmdl.
 46 47  0  0  0  0  0  0  0  0  2 V2000
  136.6871  137.1655  155.8942 C   0  0  0  0  0  0  0  0  0  0  0  0
  138.0443  137.2498  155.1815 C   0  0  2  0  0  0  0  0  0  0  0  0
  139.0938  137.9656  156.0473 C   0  0  0  0  0  0  0  0  0  0  0  0
  140.4559  138.0501  155.3356 C   0  0  0  0  0  0  0  0  0  0  0  0
  140.3927  138.7126  153.9358 C   0  0  1  0  0  0  0  0  0  0  0  0
  140.1588  140.2362  154.0705 C   0  0  0  0  0  0  0  0  0  0  0  0
  141.7005  138.4658  153.3138 N   0  0  0  0  0  0  0  0  0  0  0  0
  142.3195  137.2892  153.1227 C   0  0  0  0  0  0  0  0  0  0  0  0
  141.8360  136.1911  153.3986 O   0  0  0  0  0  0  0  0  0  0  0  0
  143.5580  137.4555  152.6361 N   0  0  0  0  0  0  0  0  0  0  0  0
  144.5316  136.3852  152.4280 C   0  0  0  0  0  0  0  0  0  0  0  0
  144.4705  135.8001  151.0012 C   0  0  0  0  0  0  0  0  0  0  0  0
  144.7024  134.2994  150.9415 C   0  0  0  0  0  0  0  0  0  0  0  0
  145.9148  133.7085  151.3611 C   0  0  0  0  0  0  0  0  0  0  0  0
  146.0477  132.3049  151.3218 C   0  0  0  0  0  0  0  0  0  0  0  0
  144.9697  131.5225  150.8586 C   0  0  0  0  0  0  0  0  0  0  0  0
  143.7847  132.1649  150.4454 C   0  0  0  0  0  0  0  0  0  0  0  0
  143.6947  133.5120  150.5007 N   0  3  0  0  0  0  0  0  0  0  0  0
  139.2767  138.0300  153.0953 C   0  0  0  0  0  0  0  0  0  0  0  0
  137.9218  137.9507  153.8191 C   0  0  0  0  0  0  0  0  0  0  0  0
  136.2837  138.1579  156.0979 H   0  0  0  0  0  0  0  0  0  0  0  0
  136.7749  136.6395  156.8453 H   0  0  0  0  0  0  0  0  0  0  0  0
  135.9583  136.6282  155.2869 H   0  0  0  0  0  0  0  0  0  0  0  0
  138.3881  136.2290  155.0072 H   0  0  0  0  0  0  0  0  0  0  0  0
  138.7450  138.9659  156.3051 H   0  0  0  0  0  0  0  0  0  0  0  0
  139.2146  137.4362  156.9929 H   0  0  0  0  0  0  0  0  0  0  0  0
  141.1669  138.5801  155.9712 H   0  0  0  0  0  0  0  0  0  0  0  0
  140.8452  137.0350  155.2379 H   0  0  0  0  0  0  0  0  0  0  0  0
  139.2339  140.4624  154.5996 H   0  0  0  0  0  0  0  0  0  0  0  0
  140.0898  140.7262  153.0995 H   0  0  0  0  0  0  0  0  0  0  0  0
  140.9704  140.7132  154.6210 H   0  0  0  0  0  0  0  0  0  0  0  0
  142.2082  139.2936  153.0376 H   0  0  0  0  0  0  0  0  0  0  0  0
  143.8659  138.3957  152.4333 H   0  0  0  0  0  0  0  0  0  0  0  0
  145.5397  136.7424  152.6449 H   0  0  0  0  0  0  0  0  0  0  0  0
  144.3294  135.5970  153.1535 H   0  0  0  0  0  0  0  0  0  0  0  0
  143.5002  136.0233  150.5557 H   0  0  0  0  0  0  0  0  0  0  0  0
  145.2111  136.2954  150.3722 H   0  0  0  0  0  0  0  0  0  0  0  0
  146.7276  134.3203  151.7241 H   0  0  0  0  0  0  0  0  0  0  0  0
  146.9637  131.8343  151.6479 H   0  0  0  0  0  0  0  0  0  0  0  0
  145.0499  130.4459  150.8231 H   0  0  0  0  0  0  0  0  0  0  0  0
  142.9100  131.6458  150.0814 H   0  0  0  0  0  0  0  0  0  0  0  0
  139.1364  138.5465  152.1456 H   0  0  0  0  0  0  0  0  0  0  0  0
  139.5864  137.0149  152.8412 H   0  0  0  0  0  0  0  0  0  0  0  0
  137.2088  137.4161  153.1906 H   0  0  0  0  0  0  0  0  0  0  0  0
  137.5145  138.9535  153.9524 H   0  0  0  0  0  0  0  0  0  0  0  0
  142.8226  133.9539  150.2093 H   0  0  0  0  0  0  0  0  0  0  0  0
  1  2  1  0  0  0  0
  1 21  1  0  0  0  0
  1 22  1  0  0  0  0
  1 23  1  0  0  0  0
  2 20  1  0  0  0  0
  2  3  1  0  0  0  0
  2 24  1  0  0  0  0
  3  4  1  0  0  0  0
  3 25  1  0  0  0  0
  3 26  1  0  0  0  0
  4  5  1  0  0  0  0
  4 27  1  0  0  0  0
  4 28  1  0  0  0  0
  5  6  1  0  0  0  0
  5  7  1  0  0  0  0
  5 19  1  0  0  0  0
  6 29  1  0  0  0  0
  6 30  1  0  0  0  0
  6 31  1  0  0  0  0
  7  8  1  0  0  0  0
  7 32  1  0  0  0  0
  8  9  2  0  0  0  0
  8 10  1  0  0  0  0
 10 11  1  0  0  0  0
 10 33  1  0  0  0  0
 11 12  1  0  0  0  0
 11 34  1  0  0  0  0
 11 35  1  0  0  0  0
 12 13  1  0  0  0  0
 12 36  1  0  0  0  0
 12 37  1  0  0  0  0
 13 18  1  0  0  0  0
 13 14  2  0  0  0  0
 14 15  1  0  0  0  0
 14 38  1  0  0  0  0
 15 16  2  0  0  0  0
 15 39  1  0  0  0  0
 16 17  1  0  0  0  0
 16 40  1  0  0  0  0
 17 18  2  0  0  0  0
 17 41  1  0  0  0  0
 18 46  1  0  0  0  0
 19 20  1  0  0  0  0
 19 42  1  0  0  0  0
 19 43  1  0  0  0  0
 20 44  1  0  0  0  0
 20 45  1  0  0  0  0
M  CHG  1  18   1
M  END
> <s_m_source_file>
AV-unprocessed.smi

> <i_m_source_file_index>
1135

> <i_lp_mmshare_version>
43012

> <i_f3d_flags>
0

> <s_epik_input>
W0NIMl0xW0NIMl1bQ0BIXShbQ0gzXSlbQ0gyXVtDSDJdW0NAQF0xKFtDSDNdKVtOSF1DKD1PKVtOSF1bQ0gyXVtDSDJdYzJbY0hdW2NIXVtjSF1bY0hdbjI=

> <s_epik_cmdline>
J2VwaWtfcHl0aG9uJywgJy1waCcsICc3LjAnLCAnLXRuJywgJzgnLCAnLW1hJywgJzIwMCcsICctbWV0YWxfYmluZGluZycsICctaW1hZScsICc8aW5maWxlLm1hZT4nLCAnLW9tYWUnLCAnPG91dGZpbGUubWFlPic=

> <r_epik_Ionization_Penalty>
1.55217

> <r_epik_Ionization_Penalty_Charging>
1.55211

> <r_epik_Ionization_Penalty_Neutral>
5.91929e-05

> <r_epik_State_Penalty>
1.64641

> <r_epik_Charging_Adjusted_Penalty>
3.19851

> <i_epik_Tot_Q>
1

> <i_epik_Tot_abs_Q>
1

> <r_epik_Metal_State_Penalty>
1.68848

> <b_epik_Metal_Only>
0

> <s_lp_Force_Field>
OPLS_2005

> <r_lp_Energy>
15.0823

> <b_lp_Chiralities_Consistent>
1

> <s_lp_Variant>
AV-unprocessed.smi:1135-3

> <Gold.Version>
5.8.1

> <Gold.Id.Protein>
6NUR|6NUR_protein|mol2

> <Gold.PLP.Fitness>
49.4186

> <Gold.PLP.PLP>
-38.3663

> <Gold.PLP.part.hbond>
-4.0000

> <Gold.PLP.part.metal>
0.0000

> <Gold.PLP.part.buried>
-5.8222

> <Gold.PLP.part.nonpolar>
-29.6167

> <Gold.PLP.part.repulsive>
0.2165

> <Gold.PLP.ligand.clash>
0.0000

> <Gold.PLP.ligand.torsion>
0.4794

> <Gold.PLP.Chemscore.Hbond>
4.0000

> <Gold.PLP.Chemscore.CHOScore>
0.0000

> <Gold.PLP.Chemscore.Metal>
0.0000

> <Gold.Chemscore.Hbonds>
donor molecule, donor type, donor heavy atom, donor atom, acceptor molecule, acceptor atom, score
      L1  H     7    32       P1 10175  1.00
      L1  H    10    33       P1 10175  0.96
      L1  H    18    46       P1 10186  2.00

> <Gold.PLP.Chemscore.Internal.Correction>
0.0111

> <Gold.Rescore>
     Score         DG    S(hbond)    S(metal)    S(lipo)     H(rot)  DE(clash)    DE(int)     intcor
     20.62     -22.00       2.93        0.00      90.70       1.51       0.32       1.06       ----

> <Gold.Chemscore.Fitness>
20.6222

> <Gold.Chemscore.DG>
-22.0006

> <Gold.Chemscore.ZeroCoef>
-5.4800

> <Gold.Chemscore.Hbond>
2.9253

> <Gold.Chemscore.Metal>
0.0000

> <Gold.Chemscore.Lipo>
90.6998

> <Gold.Chemscore.Internal_Hbond>
0.0000

> <Gold.Chemscore.DEClash>
0.3234

> <Gold.Chemscore.DEInternal>
1.0550

> <Gold.Chemscore.Rot>
1.5085

> <Gold.Chemscore.Internal.Correction>
   9.000000E+99

> <Gold.Chemscore.Hbonds>
donor molecule, donor type, donor heavy atom, donor atom, acceptor molecule, acceptor atom, score
      L1  H     7    32       P1 10175  0.97
      L1  H    10    33       P1 10175  0.87
      L1  H    18    46       P1 10186  0.96

> <Gold.Chemscore.Hbond.Weighted>
-9.7705

> <Gold.Chemscore.Metal.Weighted>
-0.0000

> <Gold.Chemscore.Lipo.Weighted>
-10.6119

> <Gold.Chemscore.Internal_Hbond.Weighted>
0.0000

> <Gold.Chemscore.DEClash.Weighted>
0.3234

> <Gold.Chemscore.DEInternal.Weighted>
1.0550

> <Gold.Chemscore.Rot.Weighted>
3.8617

> <Gold.Chemscore.Internal.Correction.Weighted>
   9.000000E+99

> <Gold.Protein.RotatedTorsions>
[ 6907 6896 6895 6894 ] final  117.71 input  -60.11 | X-H torsion
[ 7974 7965 7964 7962 ] final  -24.15 input  175.53 | X-H torsion
[ 8008 7997 7996 7995 ] final -165.95 input   59.86 | X-H torsion
[ 10167 10162 10161 10158 ] final    5.71 input  -65.29 | X-H torsion
[ 10718 10713 10712 10709 ] final  -50.71 input   66.30 | X-H torsion
[ 10763 10752 10751 10750 ] final -163.73 input  -60.55 | X-H torsion
[ 11005 11000 10999 10996 ] final -179.05 input  -57.11 | X-H torsion

> <Gold.Protein.ActiveResidues>
 VAL166  LYS551  ARG553  GLY616  TRP617  ASP618  TYR619  PRO620  LYS621  CYS622 
 ASP623  PHE694  ASN695  SER759  ASP760  ASP761  ALA762  ILE779  LEU786  VAL792 
 PHE793  MET794  SER795  GLU796  ALA797  LYS798  CYS799  TRP800  GLU811  SER814 

> <Gold.Protein.RotatedAtoms>
  152.4593  133.7789  159.6839 H   0  0  0  0  0  0  0  0  0  0  0  0  # atno 6907 bound_to 6896
  150.8531  133.7746  159.3024 H   0  0  0  0  0  0  0  0  0  0  0  0  # atno 6908 bound_to 6896
  151.5335  135.1071  159.9960 H   0  0  0  0  0  0  0  0  0  0  0  0  # atno 6909 bound_to 6896
  146.1572  140.4713  142.8586 H   0  0  0  0  0  0  0  0  0  0  0  0  # atno 7974 bound_to 7965
  155.8570  140.0972  157.1638 H   0  0  0  0  0  0  0  0  0  0  0  0  # atno 8008 bound_to 7997
  154.3988  140.1372  156.3976 H   0  0  0  0  0  0  0  0  0  0  0  0  # atno 8009 bound_to 7997
  155.7899  140.3456  155.5346 H   0  0  0  0  0  0  0  0  0  0  0  0  # atno 8010 bound_to 7997
  140.6467  143.7644  150.7510 H   0  0  0  0  0  0  0  0  0  0  0  0  # atno 10167 bound_to 10162
  156.1776  130.4150  149.9554 H   0  0  0  0  0  0  0  0  0  0  0  0  # atno 10718 bound_to 10713
  154.7095  135.3003  154.9218 H   0  0  0  0  0  0  0  0  0  0  0  0  # atno 10763 bound_to 10752
  154.0125  135.6693  153.4770 H   0  0  0  0  0  0  0  0  0  0  0  0  # atno 10764 bound_to 10752
  153.0744  135.5043  154.8286 H   0  0  0  0  0  0  0  0  0  0  0  0  # atno 10765 bound_to 10752
  140.4230  134.6589  157.4673 H   0  0  0  0  0  0  0  0  0  0  0  0  # atno 11005 bound_to 11000
  144.7979  140.6158  143.6498 LP  0  0  0  0  0  0  0  0  0  0  0  0  # atno 17320 bound_to 7965
  145.4678  139.1506  143.3831 LP  0  0  0  0  0  0  0  0  0  0  0  0  # atno 17321 bound_to 7965
  140.1287  143.4546  152.2268 LP  0  0  0  0  0  0  0  0  0  0  0  0  # atno 17342 bound_to 10162
  139.5678  144.7445  151.3973 LP  0  0  0  0  0  0  0  0  0  0  0  0  # atno 17343 bound_to 10162
  156.7335  130.9052  151.3627 LP  0  0  0  0  0  0  0  0  0  0  0  0  # atno 17370 bound_to 10713
  157.6846  130.9173  150.0354 LP  0  0  0  0  0  0  0  0  0  0  0  0  # atno 17371 bound_to 10713
  140.0187  134.6580  155.9271 LP  0  0  0  0  0  0  0  0  0  0  0  0  # atno 17394 bound_to 11000
  141.1776  133.6542  156.4892 LP  0  0  0  0  0  0  0  0  0  0  0  0  # atno 17395 bound_to 11000

$$$$
