AV-unprocessed.smi:270|AV-procd|sdf|2047|dock6
  -GOLD-   2262021273D 1   1.00000     0.00000
 Structure written by MMmdl.
 54 57  0  0  0  0  0  0  0  0  1 V2000
  145.6411  133.6462  153.8603 C   0  0  0  0  0  0  0  0  0  0  0  0
  144.6599  134.0709  152.7553 C   0  0  2  0  0  0  0  0  0  0  0  0
  144.3130  132.9572  151.9327 O   0  0  0  0  0  0  0  0  0  0  0  0
  144.6291  133.2346  150.5758 C   0  0  0  0  0  0  0  0  0  0  0  0
  144.5517  134.7523  150.4739 C   0  0  0  0  0  0  0  0  0  0  0  0
  145.1297  135.2007  151.8090 C   0  0  2  0  0  0  0  0  0  0  0  0
  146.5446  135.2144  151.6998 O   0  0  0  0  0  0  0  0  0  0  0  0
  144.6569  136.6028  152.2606 C   0  0  0  0  0  0  0  0  0  0  0  0
  145.7241  137.4204  152.8158 N   0  0  0  0  0  0  0  0  0  0  0  0
  146.2446  138.5745  152.2767 C   0  0  0  0  0  0  0  0  0  0  0  0
  147.2065  139.1246  152.9658 N   0  0  0  0  0  0  0  0  0  0  0  0
  147.3596  138.2918  154.0689 C   0  0  0  0  0  0  0  0  0  0  0  0
  148.2242  138.3051  155.2026 C   0  0  0  0  0  0  0  0  0  0  0  0
  149.2073  139.3075  155.4483 N   0  0  0  0  0  0  0  0  0  0  0  0
  150.5703  138.8343  155.6410 C   0  0  0  0  0  0  0  0  0  0  0  0
  150.6655  139.8124  156.8161 C   0  0  0  0  0  0  0  0  0  0  0  0
  151.3740  141.0052  156.5177 O   0  0  0  0  0  0  0  0  0  0  0  0
  151.5147  141.8579  157.6430 C   0  0  0  0  0  0  0  0  0  0  0  0
  152.5463  141.2503  158.6011 C   0  0  0  0  0  0  0  0  0  0  0  0
  153.0308  140.1540  158.3167 O   0  0  0  0  0  0  0  0  0  0  0  0
  152.8955  141.9304  159.7183 N   0  0  0  0  0  0  0  0  0  0  0  0
  152.3356  143.2397  160.0677 C   0  0  0  0  0  0  0  0  0  0  0  0
  153.8810  141.3700  160.6469 C   0  0  0  0  0  0  0  0  0  0  0  0
  149.1513  140.0064  156.7272 C   0  0  0  0  0  0  0  0  0  0  0  0
  148.0410  137.3070  156.1087 N   0  0  0  0  0  0  0  0  0  0  0  0
  147.1211  136.3573  155.9166 C   0  0  0  0  0  0  0  0  0  0  0  0
  146.2700  136.2163  154.9006 N   0  0  0  0  0  0  0  0  0  0  0  0
  146.4238  137.2205  153.9930 C   0  0  0  0  0  0  0  0  0  0  0  0
  145.9234  134.4962  154.4818 H   0  0  0  0  0  0  0  0  0  0  0  0
  146.5517  133.2134  153.4451 H   0  0  0  0  0  0  0  0  0  0  0  0
  145.1901  132.8958  154.5098 H   0  0  0  0  0  0  0  0  0  0  0  0
  143.7281  134.3775  153.2325 H   0  0  0  0  0  0  0  0  0  0  0  0
  145.6411  132.8851  150.3659 H   0  0  0  0  0  0  0  0  0  0  0  0
  143.9451  132.7294  149.8939 H   0  0  0  0  0  0  0  0  0  0  0  0
  145.0806  135.1515  149.6071 H   0  0  0  0  0  0  0  0  0  0  0  0
  143.5058  135.0528  150.3955 H   0  0  0  0  0  0  0  0  0  0  0  0
  146.7785  135.6001  150.8694 H   0  0  0  0  0  0  0  0  0  0  0  0
  144.2245  137.1445  151.4183 H   0  0  0  0  0  0  0  0  0  0  0  0
  143.8639  136.5135  153.0044 H   0  0  0  0  0  0  0  0  0  0  0  0
  145.8900  138.9954  151.3471 H   0  0  0  0  0  0  0  0  0  0  0  0
  150.6311  137.7906  155.9528 H   0  0  0  0  0  0  0  0  0  0  0  0
  151.2267  139.0608  154.8006 H   0  0  0  0  0  0  0  0  0  0  0  0
  150.9718  139.3458  157.7540 H   0  0  0  0  0  0  0  0  0  0  0  0
  151.8565  142.8418  157.3172 H   0  0  0  0  0  0  0  0  0  0  0  0
  150.5640  142.0066  158.1561 H   0  0  0  0  0  0  0  0  0  0  0  0
  152.5458  143.9723  159.2880 H   0  0  0  0  0  0  0  0  0  0  0  0
  152.7456  143.6394  160.9951 H   0  0  0  0  0  0  0  0  0  0  0  0
  151.2549  143.1774  160.1998 H   0  0  0  0  0  0  0  0  0  0  0  0
  153.5467  140.4008  161.0201 H   0  0  0  0  0  0  0  0  0  0  0  0
  154.0609  142.0047  161.5145 H   0  0  0  0  0  0  0  0  0  0  0  0
  154.8393  141.2272  160.1452 H   0  0  0  0  0  0  0  0  0  0  0  0
  148.8335  141.0457  156.6400 H   0  0  0  0  0  0  0  0  0  0  0  0
  148.6162  139.4698  157.5120 H   0  0  0  0  0  0  0  0  0  0  0  0
  147.0592  135.6029  156.6871 H   0  0  0  0  0  0  0  0  0  0  0  0
  1  2  1  0  0  0  0
  1 29  1  0  0  0  0
  1 30  1  0  0  0  0
  1 31  1  0  0  0  0
  2  6  1  0  0  0  0
  2  3  1  0  0  0  0
  2 32  1  0  0  0  0
  3  4  1  0  0  0  0
  4  5  1  0  0  0  0
  4 33  1  0  0  0  0
  4 34  1  0  0  0  0
  5  6  1  0  0  0  0
  5 35  1  0  0  0  0
  5 36  1  0  0  0  0
  6  7  1  0  0  0  0
  6  8  1  0  0  0  0
  7 37  1  0  0  0  0
  8  9  1  0  0  0  0
  8 38  1  0  0  0  0
  8 39  1  0  0  0  0
  9 28  1  0  0  0  0
  9 10  1  0  0  0  0
 10 11  2  0  0  0  0
 10 40  1  0  0  0  0
 11 12  1  0  0  0  0
 12 28  2  0  0  0  0
 12 13  1  0  0  0  0
 13 14  1  0  0  0  0
 13 25  2  0  0  0  0
 14 24  1  0  0  0  0
 14 15  1  0  0  0  0
 15 16  1  0  0  0  0
 15 41  1  0  0  0  0
 15 42  1  0  0  0  0
 16 17  1  0  0  0  0
 16 24  1  0  0  0  0
 16 43  1  0  0  0  0
 17 18  1  0  0  0  0
 18 19  1  0  0  0  0
 18 44  1  0  0  0  0
 18 45  1  0  0  0  0
 19 20  2  0  0  0  0
 19 21  1  0  0  0  0
 21 22  1  0  0  0  0
 21 23  1  0  0  0  0
 22 46  1  0  0  0  0
 22 47  1  0  0  0  0
 22 48  1  0  0  0  0
 23 49  1  0  0  0  0
 23 50  1  0  0  0  0
 23 51  1  0  0  0  0
 24 52  1  0  0  0  0
 24 53  1  0  0  0  0
 25 26  1  0  0  0  0
 26 27  2  0  0  0  0
 26 54  1  0  0  0  0
 27 28  1  0  0  0  0
M  END
> <s_m_source_file>
AV-unprocessed.smi

> <i_m_source_file_index>
270

> <i_lp_mmshare_version>
43012

> <i_f3d_flags>
0

> <s_epik_input>
W0NIMl0xW0NIMl1PW0NAQEhdKFtDSDNdKVtDQEBdMShbT0hdKVtDSDJdbihbY0hdbjIpYyhjMjMpbltjSF1uYzNONFtDSDJdW0NIXShbQ0gyXTQpT1tDSDJdQyg9TylOKFtDSDNdKVtDSDNd

> <s_epik_cmdline>
J2VwaWtfcHl0aG9uJywgJy1waCcsICc3LjAnLCAnLXRuJywgJzgnLCAnLW1hJywgJzIwMCcsICctbWV0YWxfYmluZGluZycsICctaW1hZScsICc8aW5maWxlLm1hZT4nLCAnLW9tYWUnLCAnPG91dGZpbGUubWFlPic=

> <r_lp_tautomer_probability>
1

> <r_epik_Ionization_Penalty>
0.00375854

> <r_epik_Ionization_Penalty_Charging>
0

> <r_epik_Ionization_Penalty_Neutral>
0.00375854

> <r_epik_State_Penalty>
-0

> <r_epik_Charging_Adjusted_Penalty>
0

> <i_epik_Tot_Q>
0

> <i_epik_Tot_abs_Q>
0

> <r_epik_Metal_State_Penalty>
-0

> <b_epik_Metal_Only>
0

> <s_lp_Force_Field>
OPLS_2005

> <r_lp_Energy>
53.9225

> <b_lp_Chiralities_Consistent>
1

> <s_lp_Variant>
AV-unprocessed.smi:270-3

> <Gold.Version>
5.8.1

> <Gold.Id.Protein>
6NUR|6NUR_protein|mol2

> <Gold.PLP.Fitness>
39.7617

> <Gold.PLP.PLP>
-35.5511

> <Gold.PLP.part.hbond>
-2.0000

> <Gold.PLP.part.metal>
0.0000

> <Gold.PLP.part.buried>
-5.6911

> <Gold.PLP.part.nonpolar>
-28.9885

> <Gold.PLP.part.repulsive>
0.5316

> <Gold.PLP.ligand.clash>
0.0000

> <Gold.PLP.ligand.torsion>
1.2312

> <Gold.PLP.Chemscore.Hbond>
0.9920

> <Gold.PLP.Chemscore.CHOScore>
1.1334

> <Gold.PLP.Chemscore.Metal>
0.0000

> <Gold.Chemscore.Hbonds>
donor molecule, donor type, donor heavy atom, donor atom, acceptor molecule, acceptor atom, score
      P1  H  7997  8008       L1    20  0.99
      L1  C    10    40       P1 10171  0.95
      L1  C    10    40       P1 10175  0.06

> <Gold.PLP.Chemscore.Internal.Correction>
0.2969

> <Gold.Rescore>
     Score         DG    S(hbond)    S(metal)    S(lipo)     H(rot)  DE(clash)    DE(int)     intcor
      6.58      -9.37       0.93        0.00      75.06       3.12       0.03       2.76       ----

> <Gold.Chemscore.Fitness>
6.5780

> <Gold.Chemscore.DG>
-9.3677

> <Gold.Chemscore.ZeroCoef>
-5.4800

> <Gold.Chemscore.Hbond>
0.9286

> <Gold.Chemscore.Metal>
0.0000

> <Gold.Chemscore.Lipo>
75.0608

> <Gold.Chemscore.Internal_Hbond>
0.0000

> <Gold.Chemscore.DEClash>
0.0312

> <Gold.Chemscore.DEInternal>
2.7586

> <Gold.Chemscore.Rot>
3.1234

> <Gold.Chemscore.Internal.Correction>
   9.000000E+99

> <Gold.Chemscore.Hbonds>
donor molecule, donor type, donor heavy atom, donor atom, acceptor molecule, acceptor atom, score
      P1  H  7997  8008       L1    20  0.86

> <Gold.Chemscore.Hbond.Weighted>
-3.1015

> <Gold.Chemscore.Metal.Weighted>
-0.0000

> <Gold.Chemscore.Lipo.Weighted>
-8.7821

> <Gold.Chemscore.Internal_Hbond.Weighted>
0.0000

> <Gold.Chemscore.DEClash.Weighted>
0.0312

> <Gold.Chemscore.DEInternal.Weighted>
2.7586

> <Gold.Chemscore.Rot.Weighted>
7.9959

> <Gold.Chemscore.Internal.Correction.Weighted>
   9.000000E+99

> <Gold.Protein.RotatedTorsions>
[ 6907 6896 6895 6894 ] final   78.05 input  -60.11 | X-H torsion
[ 7974 7965 7964 7962 ] final  -86.39 input  175.53 | X-H torsion
[ 8008 7997 7996 7995 ] final  -84.27 input   59.86 | X-H torsion
[ 10167 10162 10161 10158 ] final  -18.83 input  -65.29 | X-H torsion
[ 10718 10713 10712 10709 ] final   57.38 input   66.30 | X-H torsion
[ 10763 10752 10751 10750 ] final  -55.74 input  -60.55 | X-H torsion
[ 11005 11000 10999 10996 ] final  177.49 input  -57.11 | X-H torsion

> <Gold.Protein.ActiveResidues>
 VAL166  LYS551  ARG553  GLY616  TRP617  ASP618  TYR619  PRO620  LYS621  CYS622 
 ASP623  PHE694  ASN695  SER759  ASP760  ASP761  ALA762  ILE779  LEU786  VAL792 
 PHE793  MET794  SER795  GLU796  ALA797  LYS798  CYS799  TRP800  GLU811  SER814 

> <Gold.Protein.RotatedAtoms>
  152.5143  134.3723  159.9322 H   0  0  0  0  0  0  0  0  0  0  0  0  # atno 6907 bound_to 6896
  151.3678  133.3860  159.2704 H   0  0  0  0  0  0  0  0  0  0  0  0  # atno 6908 bound_to 6896
  150.9602  134.9010  159.7784 H   0  0  0  0  0  0  0  0  0  0  0  0  # atno 6909 bound_to 6896
  145.4805  140.9557  143.1867 H   0  0  0  0  0  0  0  0  0  0  0  0  # atno 7974 bound_to 7965
  154.6280  140.0607  156.9698 H   0  0  0  0  0  0  0  0  0  0  0  0  # atno 8008 bound_to 7997
  155.1710  140.3291  155.4374 H   0  0  0  0  0  0  0  0  0  0  0  0  # atno 8009 bound_to 7997
  156.2468  140.1914  156.6812 H   0  0  0  0  0  0  0  0  0  0  0  0  # atno 8010 bound_to 7997
  140.7262  143.4878  151.0032 H   0  0  0  0  0  0  0  0  0  0  0  0  # atno 10167 bound_to 10162
  157.5510  130.8765  149.8963 H   0  0  0  0  0  0  0  0  0  0  0  0  # atno 10718 bound_to 10713
  154.1955  135.6420  153.5072 H   0  0  0  0  0  0  0  0  0  0  0  0  # atno 10763 bound_to 10752
  153.0024  135.5439  154.6370 H   0  0  0  0  0  0  0  0  0  0  0  0  # atno 10764 bound_to 10752
  154.5770  135.2922  155.0744 H   0  0  0  0  0  0  0  0  0  0  0  0  # atno 10765 bound_to 10752
  140.3847  134.6915  157.4472 H   0  0  0  0  0  0  0  0  0  0  0  0  # atno 11005 bound_to 11000
  144.7891  139.6364  143.7121 LP  0  0  0  0  0  0  0  0  0  0  0  0  # atno 17320 bound_to 7965
  146.2343  139.5875  142.9534 LP  0  0  0  0  0  0  0  0  0  0  0  0  # atno 17321 bound_to 7965
  139.8580  143.7351  152.3175 LP  0  0  0  0  0  0  0  0  0  0  0  0  # atno 17342 bound_to 10162
  139.7557  144.7521  151.0440 LP  0  0  0  0  0  0  0  0  0  0  0  0  # atno 17343 bound_to 10162
  156.0576  130.3705  150.1054 LP  0  0  0  0  0  0  0  0  0  0  0  0  # atno 17370 bound_to 10713
  156.9227  130.9688  151.3546 LP  0  0  0  0  0  0  0  0  0  0  0  0  # atno 17371 bound_to 10713
  140.0452  134.6210  155.8931 LP  0  0  0  0  0  0  0  0  0  0  0  0  # atno 17394 bound_to 11000
  141.1911  133.6571  156.5443 LP  0  0  0  0  0  0  0  0  0  0  0  0  # atno 17395 bound_to 11000

$$$$
