AV-unprocessed.smi:1797|AV-procd|sdf|7257|dock9
  -GOLD-   22720 8513D 1   1.00000     0.00000
 Structure written by MMmdl.
 29 30  0  0  0  0  0  0  0  0  2 V2000
  143.6428  135.8693  162.7979 C   0  0  0  0  0  0  0  0  0  0  0  0
  144.9375  136.2169  162.1467 C   0  0  0  0  0  0  0  0  0  0  0  0
  145.0900  137.2919  161.3697 N   0  0  0  0  0  0  0  0  0  0  0  0
  146.3831  137.4034  160.8794 N   0  0  0  0  0  0  0  0  0  0  0  0
  147.1848  136.4062  161.2799 C   0  0  0  0  0  0  0  0  0  0  0  0
  148.4768  136.3224  160.9120 N   0  5  0  0  0  0  0  0  0  0  0  0
  148.8783  136.4224  159.6174 C   0  0  0  0  0  0  0  0  0  0  0  0
  149.3369  135.4756  158.9793 O   0  0  0  0  0  0  0  0  0  0  0  0
  148.7656  137.6220  159.0143 N   0  0  0  0  0  0  0  0  0  0  0  0
  149.1259  137.9358  157.6350 C   0  0  2  0  0  0  0  0  0  0  0  0
  150.5901  137.5676  157.3510 C   0  0  0  0  0  0  0  0  0  0  0  0
  150.9701  137.8961  155.8983 C   0  0  0  0  0  0  0  0  0  0  0  0
  150.4937  139.2820  155.4376 C   0  0  0  0  0  0  0  0  0  0  0  0
  150.9910  139.7892  154.4346 O   0  0  0  0  0  0  0  0  0  0  0  0
  149.5138  139.8969  156.1231 N   0  0  0  0  0  0  0  0  0  0  0  0
  148.9103  139.4372  157.3736 C   0  0  0  0  0  0  0  0  0  0  0  0
  146.3850  135.2418  162.3350 S   0  0  0  0  0  0  0  0  0  0  0  0
  142.9862  135.3767  162.0809 H   0  0  0  0  0  0  0  0  0  0  0  0
  143.1504  136.7699  163.1657 H   0  0  0  0  0  0  0  0  0  0  0  0
  143.8113  135.1968  163.6391 H   0  0  0  0  0  0  0  0  0  0  0  0
  148.3952  138.3813  159.5668 H   0  0  0  0  0  0  0  0  0  0  0  0
  148.4799  137.3730  156.9580 H   0  0  0  0  0  0  0  0  0  0  0  0
  151.2482  138.1069  158.0340 H   0  0  0  0  0  0  0  0  0  0  0  0
  150.7579  136.5061  157.5368 H   0  0  0  0  0  0  0  0  0  0  0  0
  152.0501  137.8200  155.7687 H   0  0  0  0  0  0  0  0  0  0  0  0
  150.5236  137.1574  155.2317 H   0  0  0  0  0  0  0  0  0  0  0  0
  149.1982  140.7911  155.7764 H   0  0  0  0  0  0  0  0  0  0  0  0
  147.8451  139.6699  157.3626 H   0  0  0  0  0  0  0  0  0  0  0  0
  149.3503  140.0244  158.1810 H   0  0  0  0  0  0  0  0  0  0  0  0
  1  2  1  0  0  0  0
  1 18  1  0  0  0  0
  1 19  1  0  0  0  0
  1 20  1  0  0  0  0
  2 17  1  0  0  0  0
  2  3  2  0  0  0  0
  3  4  1  0  0  0  0
  4  5  2  0  0  0  0
  5  6  1  0  0  0  0
  5 17  1  0  0  0  0
  6  7  1  0  0  0  0
  7  8  2  0  0  0  0
  7  9  1  0  0  0  0
  9 10  1  0  0  0  0
  9 21  1  0  0  0  0
 10 16  1  0  0  0  0
 10 11  1  0  0  0  0
 10 22  1  0  0  0  0
 11 12  1  0  0  0  0
 11 23  1  0  0  0  0
 11 24  1  0  0  0  0
 12 13  1  0  0  0  0
 12 25  1  0  0  0  0
 12 26  1  0  0  0  0
 13 14  2  0  0  0  0
 13 15  1  0  0  0  0
 15 16  1  0  0  0  0
 15 27  1  0  0  0  0
 16 28  1  0  0  0  0
 16 29  1  0  0  0  0
M  CHG  1   6  -1
M  END
> <s_m_source_file>
AV-unprocessed.smi

> <i_m_source_file_index>
1797

> <i_lp_mmshare_version>
43012

> <i_f3d_flags>
0

> <s_epik_input>
W0NIM11jMW5uYyhzMSlbTkhdQyg9TylbTkhdW0NAQEhdMltDSDJdW0NIMl1DKD1PKVtOSF1bQ0gyXTI=

> <s_epik_cmdline>
J2VwaWtfcHl0aG9uJywgJy1waCcsICc3LjAnLCAnLXRuJywgJzgnLCAnLW1hJywgJzIwMCcsICctbWV0YWxfYmluZGluZycsICctaW1hZScsICc8aW5maWxlLm1hZT4nLCAnLW9tYWUnLCAnPG91dGZpbGUubWFlPic=

> <r_lp_tautomer_probability>
1

> <r_epik_Ionization_Penalty>
3.31792

> <r_epik_Ionization_Penalty_Charging>
3.17379

> <r_epik_Ionization_Penalty_Neutral>
0.144127

> <r_epik_State_Penalty>
3.17099

> <r_epik_Charging_Adjusted_Penalty>
6.34478

> <i_epik_Tot_Q>
-1

> <i_epik_Tot_abs_Q>
1

> <r_epik_Metal_State_Penalty>
0.468583

> <b_epik_Metal_Only>
1

> <s_lp_Force_Field>
OPLS_2005

> <r_lp_Energy>
8.3623

> <b_lp_Chiralities_Consistent>
1

> <s_lp_Variant>
AV-unprocessed.smi:1797-3

> <Gold.Version>
5.8.1

> <Gold.Id.Protein>
6NUR|6NUR_protein|mol2

> <Gold.PLP.Fitness>
34.2429

> <Gold.PLP.PLP>
-21.4567

> <Gold.PLP.part.hbond>
-4.0000

> <Gold.PLP.part.metal>
0.0000

> <Gold.PLP.part.buried>
-5.1498

> <Gold.PLP.part.nonpolar>
-13.4581

> <Gold.PLP.part.repulsive>
0.3603

> <Gold.PLP.ligand.clash>
0.0000

> <Gold.PLP.ligand.torsion>
1.1084

> <Gold.PLP.Chemscore.Hbond>
5.0000

> <Gold.PLP.Chemscore.CHOScore>
0.0000

> <Gold.PLP.Chemscore.Metal>
0.0000

> <Gold.Chemscore.Hbonds>
donor molecule, donor type, donor heavy atom, donor atom, acceptor molecule, acceptor atom, score
      P1  H  6896  6909       L1     8  1.00
      P1  H  6931  6943       L1     6  0.68
      P1  H  6934  6947       L1     4  1.00
      P1  H  7989  7998       L1    14  1.00

> <Gold.PLP.Chemscore.Internal.Correction>
0.0030

> <Gold.Rescore>
     Score         DG    S(hbond)    S(metal)    S(lipo)     H(rot)  DE(clash)    DE(int)     intcor
     13.93     -16.36       2.95        0.00      30.73       1.00       0.01       2.41       ----

> <Gold.Chemscore.Fitness>
13.9295

> <Gold.Chemscore.DG>
-16.3564

> <Gold.Chemscore.ZeroCoef>
-5.4800

> <Gold.Chemscore.Hbond>
2.9466

> <Gold.Chemscore.Metal>
0.0000

> <Gold.Chemscore.Lipo>
30.7251

> <Gold.Chemscore.Internal_Hbond>
0.0000

> <Gold.Chemscore.DEClash>
0.0135

> <Gold.Chemscore.DEInternal>
2.4133

> <Gold.Chemscore.Rot>
1.0000

> <Gold.Chemscore.Internal.Correction>
   9.000000E+99

> <Gold.Chemscore.Hbonds>
donor molecule, donor type, donor heavy atom, donor atom, acceptor molecule, acceptor atom, score
      P1  H  6896  6909       L1     8  0.96
      P1  H  6931  6943       L1     6  0.02
      P1  H  6934  6947       L1     4  0.83
      P1  H  7989  7998       L1    14  0.97

> <Gold.Chemscore.Hbond.Weighted>
-9.8415

> <Gold.Chemscore.Metal.Weighted>
-0.0000

> <Gold.Chemscore.Lipo.Weighted>
-3.5948

> <Gold.Chemscore.Internal_Hbond.Weighted>
0.0000

> <Gold.Chemscore.DEClash.Weighted>
0.0135

> <Gold.Chemscore.DEInternal.Weighted>
2.4133

> <Gold.Chemscore.Rot.Weighted>
2.5600

> <Gold.Chemscore.Internal.Correction.Weighted>
   9.000000E+99

> <Gold.Protein.RotatedTorsions>
[ 6907 6896 6895 6894 ] final   56.86 input  -60.11 | X-H torsion
[ 7974 7965 7964 7962 ] final  -69.40 input  175.53 | X-H torsion
[ 8008 7997 7996 7995 ] final   31.62 input   59.86 | X-H torsion
[ 10167 10162 10161 10158 ] final -140.47 input  -65.29 | X-H torsion
[ 10718 10713 10712 10709 ] final  -43.64 input   66.30 | X-H torsion
[ 10763 10752 10751 10750 ] final  -52.17 input  -60.55 | X-H torsion
[ 11005 11000 10999 10996 ] final  -67.66 input  -57.11 | X-H torsion

> <Gold.Protein.ActiveResidues>
 VAL166  LYS551  ARG553  GLY616  TRP617  ASP618  TYR619  PRO620  LYS621  CYS622 
 ASP623  PHE694  ASN695  SER759  ASP760  ASP761  ALA762  ILE779  LEU786  VAL792 
 PHE793  MET794  SER795  GLU796  ALA797  LYS798  CYS799  TRP800  GLU811  SER814 

> <Gold.Protein.RotatedAtoms>
  152.3676  134.6781  160.0186 H   0  0  0  0  0  0  0  0  0  0  0  0  # atno 6907 bound_to 6896
  151.7084  133.3306  159.3292 H   0  0  0  0  0  0  0  0  0  0  0  0  # atno 6908 bound_to 6896
  150.7650  134.6489  159.6322 H   0  0  0  0  0  0  0  0  0  0  0  0  # atno 6909 bound_to 6896
  145.7043  140.9104  143.0714 H   0  0  0  0  0  0  0  0  0  0  0  0  # atno 7974 bound_to 7965
  155.1093  140.3237  155.4526 H   0  0  0  0  0  0  0  0  0  0  0  0  # atno 8008 bound_to 7997
  156.2695  140.2047  156.6165 H   0  0  0  0  0  0  0  0  0  0  0  0  # atno 8009 bound_to 7997
  154.6768  140.0530  157.0211 H   0  0  0  0  0  0  0  0  0  0  0  0  # atno 8010 bound_to 7997
  139.8279  143.7486  152.2666 H   0  0  0  0  0  0  0  0  0  0  0  0  # atno 10167 bound_to 10162
  156.2469  130.4184  149.8695 H   0  0  0  0  0  0  0  0  0  0  0  0  # atno 10718 bound_to 10713
  154.1384  135.6509  153.4937 H   0  0  0  0  0  0  0  0  0  0  0  0  # atno 10763 bound_to 10752
  153.0173  135.5309  154.6930 H   0  0  0  0  0  0  0  0  0  0  0  0  # atno 10764 bound_to 10752
  154.6185  135.2962  155.0324 H   0  0  0  0  0  0  0  0  0  0  0  0  # atno 10765 bound_to 10752
  141.1513  133.6724  156.6327 H   0  0  0  0  0  0  0  0  0  0  0  0  # atno 11005 bound_to 11000
  144.6960  139.8989  143.7457 LP  0  0  0  0  0  0  0  0  0  0  0  0  # atno 17320 bound_to 7965
  146.0770  139.3758  143.0488 LP  0  0  0  0  0  0  0  0  0  0  0  0  # atno 17321 bound_to 7965
  139.7685  144.7484  151.0260 LP  0  0  0  0  0  0  0  0  0  0  0  0  # atno 17342 bound_to 10162
  140.7809  143.4672  151.0196 LP  0  0  0  0  0  0  0  0  0  0  0  0  # atno 17343 bound_to 10162
  156.6258  130.8645  151.3485 LP  0  0  0  0  0  0  0  0  0  0  0  0  # atno 17370 bound_to 10713
  157.7198  130.9544  150.1395 LP  0  0  0  0  0  0  0  0  0  0  0  0  # atno 17371 bound_to 10713
  140.3454  134.7814  157.4428 LP  0  0  0  0  0  0  0  0  0  0  0  0  # atno 17394 bound_to 11000
  140.0904  134.5609  155.8450 LP  0  0  0  0  0  0  0  0  0  0  0  0  # atno 17395 bound_to 11000

$$$$
