AV-unprocessed.smi:1857|AV-procd|sdf|7541|dock8
  -GOLD-   22720 9253D 1   1.00000     0.00000
 Structure written by MMmdl.
 45 46  0  0  0  0  0  0  0  0  1 V2000
  143.9549  141.3366  156.0141 C   0  0  0  0  0  0  0  0  0  0  0  0
  145.4672  141.3403  155.6855 C   0  0  0  0  0  0  0  0  0  0  0  0
  145.7688  140.0572  154.8862 C   0  0  0  0  0  0  0  0  0  0  0  0
  145.7052  142.5933  154.8150 C   0  0  0  0  0  0  0  0  0  0  0  0
  146.2867  141.3666  156.9667 C   0  0  0  0  0  0  0  0  0  0  0  0
  145.7548  141.3033  158.1863 N   0  0  0  0  0  0  0  0  0  0  0  0
  146.8332  141.2869  159.0412 N   0  0  0  0  0  0  0  0  0  0  0  0
  147.9502  141.3070  158.3827 N   0  0  0  0  0  0  0  0  0  0  0  0
  147.6347  141.3476  157.0625 N   0  0  0  0  0  0  0  0  0  0  0  0
  148.7206  141.3386  156.0906 C   0  0  0  0  0  0  0  0  0  0  0  0
  150.0878  141.5104  156.7621 C   0  0  0  0  0  0  0  0  0  0  0  0
  150.8622  140.5573  156.8517 O   0  0  0  0  0  0  0  0  0  0  0  0
  150.3718  142.7369  157.2280 N   0  0  0  0  0  0  0  0  0  0  0  0
  151.6162  143.1301  157.8866 C   0  0  0  0  0  0  0  0  0  0  0  0
  151.8995  142.1804  159.0719 C   0  0  0  0  0  0  0  0  0  0  0  0
  152.9566  142.6732  160.0735 C   0  0  0  0  0  0  0  0  0  0  0  0
  152.3548  143.5485  161.1872 C   0  0  0  0  0  0  0  0  0  0  0  0
  151.9294  144.9572  160.7447 C   0  0  0  0  0  0  0  0  0  0  0  0
  150.9256  144.9945  159.5786 C   0  0  0  0  0  0  0  0  0  0  0  0
  151.5702  144.6348  158.2289 C   0  0  0  0  0  0  0  0  0  0  0  0
  143.3485  141.3276  155.1076 H   0  0  0  0  0  0  0  0  0  0  0  0
  143.6677  142.2193  156.5871 H   0  0  0  0  0  0  0  0  0  0  0  0
  143.6689  140.4585  156.5947 H   0  0  0  0  0  0  0  0  0  0  0  0
  145.5478  139.1662  155.4753 H   0  0  0  0  0  0  0  0  0  0  0  0
  146.8126  139.9936  154.5834 H   0  0  0  0  0  0  0  0  0  0  0  0
  145.1673  140.0060  153.9781 H   0  0  0  0  0  0  0  0  0  0  0  0
  145.0281  142.6123  153.9601 H   0  0  0  0  0  0  0  0  0  0  0  0
  146.7086  142.6456  154.4023 H   0  0  0  0  0  0  0  0  0  0  0  0
  145.5334  143.5072  155.3849 H   0  0  0  0  0  0  0  0  0  0  0  0
  148.6858  140.3908  155.5505 H   0  0  0  0  0  0  0  0  0  0  0  0
  148.5733  142.1117  155.3417 H   0  0  0  0  0  0  0  0  0  0  0  0
  149.6759  143.4587  157.1097 H   0  0  0  0  0  0  0  0  0  0  0  0
  152.4273  143.0148  157.1650 H   0  0  0  0  0  0  0  0  0  0  0  0
  150.9751  141.9574  159.6071 H   0  0  0  0  0  0  0  0  0  0  0  0
  152.2291  141.2240  158.6635 H   0  0  0  0  0  0  0  0  0  0  0  0
  153.4041  141.7988  160.5474 H   0  0  0  0  0  0  0  0  0  0  0  0
  153.7732  143.1863  159.5642 H   0  0  0  0  0  0  0  0  0  0  0  0
  151.5045  143.0354  161.6379 H   0  0  0  0  0  0  0  0  0  0  0  0
  153.0905  143.6512  161.9855 H   0  0  0  0  0  0  0  0  0  0  0  0
  151.4841  145.4622  161.6026 H   0  0  0  0  0  0  0  0  0  0  0  0
  152.8132  145.5425  160.4879 H   0  0  0  0  0  0  0  0  0  0  0  0
  150.0581  144.3657  159.7828 H   0  0  0  0  0  0  0  0  0  0  0  0
  150.5437  146.0133  159.5063 H   0  0  0  0  0  0  0  0  0  0  0  0
  152.5827  145.0393  158.2018 H   0  0  0  0  0  0  0  0  0  0  0  0
  151.0432  145.1615  157.4318 H   0  0  0  0  0  0  0  0  0  0  0  0
  1  2  1  0  0  0  0
  1 21  1  0  0  0  0
  1 22  1  0  0  0  0
  1 23  1  0  0  0  0
  2  3  1  0  0  0  0
  2  4  1  0  0  0  0
  2  5  1  0  0  0  0
  3 24  1  0  0  0  0
  3 25  1  0  0  0  0
  3 26  1  0  0  0  0
  4 27  1  0  0  0  0
  4 28  1  0  0  0  0
  4 29  1  0  0  0  0
  5  9  1  0  0  0  0
  5  6  2  0  0  0  0
  6  7  1  0  0  0  0
  7  8  2  0  0  0  0
  8  9  1  0  0  0  0
  9 10  1  0  0  0  0
 10 11  1  0  0  0  0
 10 30  1  0  0  0  0
 10 31  1  0  0  0  0
 11 12  2  0  0  0  0
 11 13  1  0  0  0  0
 13 14  1  0  0  0  0
 13 32  1  0  0  0  0
 14 20  1  0  0  0  0
 14 15  1  0  0  0  0
 14 33  1  0  0  0  0
 15 16  1  0  0  0  0
 15 34  1  0  0  0  0
 15 35  1  0  0  0  0
 16 17  1  0  0  0  0
 16 36  1  0  0  0  0
 16 37  1  0  0  0  0
 17 18  1  0  0  0  0
 17 38  1  0  0  0  0
 17 39  1  0  0  0  0
 18 19  1  0  0  0  0
 18 40  1  0  0  0  0
 18 41  1  0  0  0  0
 19 20  1  0  0  0  0
 19 42  1  0  0  0  0
 19 43  1  0  0  0  0
 20 44  1  0  0  0  0
 20 45  1  0  0  0  0
M  END
> <s_m_source_file>
AV-unprocessed.smi

> <i_m_source_file_index>
1857

> <i_lp_mmshare_version>
43012

> <i_f3d_flags>
0

> <s_epik_input>
W0NIM11DKFtDSDNdKShbQ0gzXSljMW5ubm4xW0NIMl1DKD1PKVtOSF1bQ0hdMltDSDJdW0NIMl1bQ0gyXVtDSDJdW0NIMl1bQ0gyXTI=

> <s_epik_cmdline>
J2VwaWtfcHl0aG9uJywgJy1waCcsICc3LjAnLCAnLXRuJywgJzgnLCAnLW1hJywgJzIwMCcsICctbWV0YWxfYmluZGluZycsICctaW1hZScsICc8aW5maWxlLm1hZT4nLCAnLW9tYWUnLCAnPG91dGZpbGUubWFlPic=

> <r_lp_tautomer_probability>
1

> <r_epik_Ionization_Penalty>
4.53904e-07

> <r_epik_Ionization_Penalty_Charging>
0

> <r_epik_Ionization_Penalty_Neutral>
4.53904e-07

> <r_epik_State_Penalty>
-0

> <r_epik_Charging_Adjusted_Penalty>
0

> <i_epik_Tot_Q>
0

> <i_epik_Tot_abs_Q>
0

> <r_epik_Metal_State_Penalty>
-0

> <b_epik_Metal_Only>
0

> <s_lp_Force_Field>
OPLS_2005

> <r_lp_Energy>
25.0233

> <b_lp_Chiralities_Consistent>
1

> <s_lp_Variant>
AV-unprocessed.smi:1857-1

> <Gold.Version>
5.8.1

> <Gold.Id.Protein>
6NUR|6NUR_protein|mol2

> <Gold.PLP.Fitness>
42.5589

> <Gold.PLP.PLP>
-37.8685

> <Gold.PLP.part.hbond>
-2.6678

> <Gold.PLP.part.metal>
0.0000

> <Gold.PLP.part.buried>
-6.0570

> <Gold.PLP.part.nonpolar>
-29.5124

> <Gold.PLP.part.repulsive>
0.1372

> <Gold.PLP.ligand.clash>
0.0000

> <Gold.PLP.ligand.torsion>
0.2710

> <Gold.PLP.Chemscore.Hbond>
1.7088

> <Gold.PLP.Chemscore.CHOScore>
0.0000

> <Gold.PLP.Chemscore.Metal>
0.0000

> <Gold.Chemscore.Hbonds>
donor molecule, donor type, donor heavy atom, donor atom, acceptor molecule, acceptor atom, score
      L1  H    13    32       P1  8028  0.76
      P1  H  6934  6946       L1     7  0.46

> <Gold.PLP.Chemscore.Internal.Correction>
0.1061

> <Gold.Rescore>
     Score         DG    S(hbond)    S(metal)    S(lipo)     H(rot)  DE(clash)    DE(int)     intcor
     15.96     -17.70       1.48        0.00      96.21       1.55       0.20       1.53       ----

> <Gold.Chemscore.Fitness>
15.9599

> <Gold.Chemscore.DG>
-17.6972

> <Gold.Chemscore.ZeroCoef>
-5.4800

> <Gold.Chemscore.Hbond>
1.4772

> <Gold.Chemscore.Metal>
0.0000

> <Gold.Chemscore.Lipo>
96.2092

> <Gold.Chemscore.Internal_Hbond>
0.0000

> <Gold.Chemscore.DEClash>
0.2036

> <Gold.Chemscore.DEInternal>
1.5337

> <Gold.Chemscore.Rot>
1.5520

> <Gold.Chemscore.Internal.Correction>
   9.000000E+99

> <Gold.Chemscore.Hbonds>
donor molecule, donor type, donor heavy atom, donor atom, acceptor molecule, acceptor atom, score
      L1  H    13    32       P1  8028  0.69
      P1  H  6934  6946       L1     7  0.43

> <Gold.Chemscore.Hbond.Weighted>
-4.9338

> <Gold.Chemscore.Metal.Weighted>
-0.0000

> <Gold.Chemscore.Lipo.Weighted>
-11.2565

> <Gold.Chemscore.Internal_Hbond.Weighted>
0.0000

> <Gold.Chemscore.DEClash.Weighted>
0.2036

> <Gold.Chemscore.DEInternal.Weighted>
1.5337

> <Gold.Chemscore.Rot.Weighted>
3.9731

> <Gold.Chemscore.Internal.Correction.Weighted>
   9.000000E+99

> <Gold.Protein.RotatedTorsions>
[ 6907 6896 6895 6894 ] final -144.02 input  -60.11 | X-H torsion
[ 7974 7965 7964 7962 ] final   93.10 input  175.53 | X-H torsion
[ 8008 7997 7996 7995 ] final -117.01 input   59.86 | X-H torsion
[ 10167 10162 10161 10158 ] final  132.71 input  -65.29 | X-H torsion
[ 10718 10713 10712 10709 ] final   97.57 input   66.30 | X-H torsion
[ 10763 10752 10751 10750 ] final  141.90 input  -60.55 | X-H torsion
[ 11005 11000 10999 10996 ] final   71.18 input  -57.11 | X-H torsion

> <Gold.Protein.ActiveResidues>
 VAL166  LYS551  ARG553  GLY616  TRP617  ASP618  TYR619  PRO620  LYS621  CYS622 
 ASP623  PHE694  ASN695  SER759  ASP760  ASP761  ALA762  ILE779  LEU786  VAL792 
 PHE793  MET794  SER795  GLU796  ALA797  LYS798  CYS799  TRP800  GLU811  SER814 

> <Gold.Protein.RotatedAtoms>
  151.1084  133.5191  159.2606 H   0  0  0  0  0  0  0  0  0  0  0  0  # atno 6907 bound_to 6896
  151.1995  135.0436  159.8876 H   0  0  0  0  0  0  0  0  0  0  0  0  # atno 6908 bound_to 6896
  152.5448  134.0914  159.8332 H   0  0  0  0  0  0  0  0  0  0  0  0  # atno 6909 bound_to 6896
  145.4835  139.2278  143.2869 H   0  0  0  0  0  0  0  0  0  0  0  0  # atno 7974 bound_to 7965
  155.0770  140.0394  157.2627 H   0  0  0  0  0  0  0  0  0  0  0  0  # atno 8008 bound_to 7997
  154.6937  140.2659  155.6763 H   0  0  0  0  0  0  0  0  0  0  0  0  # atno 8009 bound_to 7997
  156.2737  140.2754  156.1524 H   0  0  0  0  0  0  0  0  0  0  0  0  # atno 8010 bound_to 7997
  139.5328  144.6650  151.4890 H   0  0  0  0  0  0  0  0  0  0  0  0  # atno 10167 bound_to 10162
  157.6910  131.0613  150.4664 H   0  0  0  0  0  0  0  0  0  0  0  0  # atno 10718 bound_to 10713
  153.9469  135.2974  155.3440 H   0  0  0  0  0  0  0  0  0  0  0  0  # atno 10763 bound_to 10752
  154.7447  135.5008  153.9187 H   0  0  0  0  0  0  0  0  0  0  0  0  # atno 10764 bound_to 10752
  153.1014  135.6735  153.9774 H   0  0  0  0  0  0  0  0  0  0  0  0  # atno 10765 bound_to 10752
  139.9557  134.7148  156.0758 H   0  0  0  0  0  0  0  0  0  0  0  0  # atno 11005 bound_to 11000
  146.2327  140.5623  142.8968 LP  0  0  0  0  0  0  0  0  0  0  0  0  # atno 17320 bound_to 7965
  144.7875  140.5966  143.6564 LP  0  0  0  0  0  0  0  0  0  0  0  0  # atno 17321 bound_to 7965
  140.6517  143.8683  150.6792 LP  0  0  0  0  0  0  0  0  0  0  0  0  # atno 17342 bound_to 10162
  140.2050  143.3929  152.1762 LP  0  0  0  0  0  0  0  0  0  0  0  0  # atno 17343 bound_to 10162
  156.5005  130.4116  149.6356 LP  0  0  0  0  0  0  0  0  0  0  0  0  # atno 17370 bound_to 10713
  156.3332  130.7343  151.2276 LP  0  0  0  0  0  0  0  0  0  0  0  0  # atno 17371 bound_to 10713
  141.1228  133.6608  156.3260 LP  0  0  0  0  0  0  0  0  0  0  0  0  # atno 17394 bound_to 11000
  140.5614  134.5930  157.5434 LP  0  0  0  0  0  0  0  0  0  0  0  0  # atno 17395 bound_to 11000

$$$$
