AV-unprocessed.smi:2321|AV-procd|sdf|9282|dock6
  -GOLD-   2272012503D 1   1.00000     0.00000
 Structure written by MMmdl.
 36 37  0  0  0  0  0  0  0  0  1 V2000
  147.2290  136.6203  154.4394 O   0  0  0  0  0  0  0  0  0  0  0  0
  146.5458  137.5373  153.9892 C   0  0  0  0  0  0  0  0  0  0  0  0
  146.9537  138.8164  153.8753 N   0  0  0  0  0  0  0  0  0  0  0  0
  148.2040  139.3935  154.2261 C   0  0  0  0  0  0  0  0  0  0  0  0
  149.3784  138.6486  154.4927 C   0  0  0  0  0  0  0  0  0  0  0  0
  150.5605  139.3459  154.8136 C   0  0  0  0  0  0  0  0  0  0  0  0
  150.6378  140.6925  154.8728 N   0  0  0  0  0  0  0  0  0  0  0  0
  149.5197  141.3993  154.6037 C   0  0  0  0  0  0  0  0  0  0  0  0
  148.2871  140.8013  154.2731 C   0  0  0  0  0  0  0  0  0  0  0  0
  147.2022  141.5697  154.0100 F   0  0  0  0  0  0  0  0  0  0  0  0
  145.2798  137.3246  153.5845 N   0  0  0  0  0  0  0  0  0  0  0  0
  144.5256  136.0688  153.5713 C   0  0  1  0  0  0  0  0  0  0  0  0
  143.0187  136.3778  153.6217 C   0  0  0  0  0  0  0  0  0  0  0  0
  142.1832  135.0908  153.5575 C   0  0  0  0  0  0  0  0  0  0  0  0
  142.5303  134.2632  152.3102 C   0  0  0  0  0  0  0  0  0  0  0  0
  144.0370  133.9355  152.2461 C   0  0  1  0  0  0  0  0  0  0  0  0
  144.3927  133.0891  151.0063 C   0  0  0  0  0  0  0  0  0  0  0  0
  145.5951  132.5292  151.1427 F   0  0  0  0  0  0  0  0  0  0  0  0
  143.4858  132.1271  150.8348 F   0  0  0  0  0  0  0  0  0  0  0  0
  144.3957  133.8558  149.9158 F   0  0  0  0  0  0  0  0  0  0  0  0
  144.8663  135.2359  152.3168 C   0  0  0  0  0  0  0  0  0  0  0  0
  146.2543  139.4723  153.5592 H   0  0  0  0  0  0  0  0  0  0  0  0
  149.4015  137.5709  154.4462 H   0  0  0  0  0  0  0  0  0  0  0  0
  151.4719  138.8056  155.0223 H   0  0  0  0  0  0  0  0  0  0  0  0
  149.6103  142.4745  154.6513 H   0  0  0  0  0  0  0  0  0  0  0  0
  144.7740  138.1375  153.2630 H   0  0  0  0  0  0  0  0  0  0  0  0
  144.7719  135.4891  154.4628 H   0  0  0  0  0  0  0  0  0  0  0  0
  142.7786  136.9247  154.5344 H   0  0  0  0  0  0  0  0  0  0  0  0
  142.7445  137.0287  152.7900 H   0  0  0  0  0  0  0  0  0  0  0  0
  142.3590  134.4945  154.4536 H   0  0  0  0  0  0  0  0  0  0  0  0
  141.1213  135.3383  153.5550 H   0  0  0  0  0  0  0  0  0  0  0  0
  141.9455  133.3428  152.3138 H   0  0  0  0  0  0  0  0  0  0  0  0
  142.2331  134.8134  151.4166 H   0  0  0  0  0  0  0  0  0  0  0  0
  144.2829  133.3394  153.1263 H   0  0  0  0  0  0  0  0  0  0  0  0
  144.6867  135.8332  151.4218 H   0  0  0  0  0  0  0  0  0  0  0  0
  145.9288  134.9911  152.3114 H   0  0  0  0  0  0  0  0  0  0  0  0
  1  2  2  0  0  0  0
  2  3  1  0  0  0  0
  2 11  1  0  0  0  0
  3  4  1  0  0  0  0
  3 22  1  0  0  0  0
  4  9  1  0  0  0  0
  4  5  2  0  0  0  0
  5  6  1  0  0  0  0
  5 23  1  0  0  0  0
  6  7  2  0  0  0  0
  6 24  1  0  0  0  0
  7  8  1  0  0  0  0
  8  9  2  0  0  0  0
  8 25  1  0  0  0  0
  9 10  1  0  0  0  0
 11 12  1  0  0  0  0
 11 26  1  0  0  0  0
 12 21  1  0  0  0  0
 12 13  1  0  0  0  0
 12 27  1  0  0  0  0
 13 14  1  0  0  0  0
 13 28  1  0  0  0  0
 13 29  1  0  0  0  0
 14 15  1  0  0  0  0
 14 30  1  0  0  0  0
 14 31  1  0  0  0  0
 15 16  1  0  0  0  0
 15 32  1  0  0  0  0
 15 33  1  0  0  0  0
 16 17  1  0  0  0  0
 16 21  1  0  0  0  0
 16 34  1  0  0  0  0
 17 18  1  0  0  0  0
 17 19  1  0  0  0  0
 17 20  1  0  0  0  0
 21 35  1  0  0  0  0
 21 36  1  0  0  0  0
M  END
> <s_m_source_file>
AV-unprocessed.smi

> <i_m_source_file_index>
2321

> <i_lp_mmshare_version>
43012

> <i_f3d_flags>
0

> <s_epik_input>
RkMoRikoRilbQ0BASF0oW0NIMl0xKVtDSDJdW0NIMl1bQ0gyXVtDQEhdMVtOSF1DKD1PKVtOSF1jMltjSF1bY0hdbltjSF1jMkY=

> <s_epik_cmdline>
J2VwaWtfcHl0aG9uJywgJy1waCcsICc3LjAnLCAnLXRuJywgJzgnLCAnLW1hJywgJzIwMCcsICctbWV0YWxfYmluZGluZycsICctaW1hZScsICc8aW5maWxlLm1hZT4nLCAnLW9tYWUnLCAnPG91dGZpbGUubWFlPic=

> <r_epik_Ionization_Penalty>
0.00319438

> <r_epik_Ionization_Penalty_Charging>
0

> <r_epik_Ionization_Penalty_Neutral>
0.00319438

> <r_epik_State_Penalty>
0.00222511

> <r_epik_Charging_Adjusted_Penalty>
0.00222511

> <i_epik_Tot_Q>
0

> <i_epik_Tot_abs_Q>
0

> <r_epik_Metal_State_Penalty>
-0

> <b_epik_Metal_Only>
0

> <s_lp_Force_Field>
OPLS_2005

> <r_lp_Energy>
26.7556

> <b_lp_Chiralities_Consistent>
1

> <s_lp_Variant>
AV-unprocessed.smi:2321-2

> <Gold.Version>
5.8.1

> <Gold.Id.Protein>
6NUR|6NUR_protein|mol2

> <Gold.PLP.Fitness>
38.4716

> <Gold.PLP.PLP>
-34.4615

> <Gold.PLP.part.hbond>
-1.0000

> <Gold.PLP.part.metal>
0.0000

> <Gold.PLP.part.buried>
-2.6608

> <Gold.PLP.part.nonpolar>
-30.3466

> <Gold.PLP.part.repulsive>
0.1813

> <Gold.PLP.ligand.clash>
0.0000

> <Gold.PLP.ligand.torsion>
0.6680

> <Gold.PLP.Chemscore.Hbond>
0.7752

> <Gold.PLP.Chemscore.CHOScore>
1.0000

> <Gold.PLP.Chemscore.Metal>
0.0000

> <Gold.Chemscore.Hbonds>
donor molecule, donor type, donor heavy atom, donor atom, acceptor molecule, acceptor atom, score
      P1  H  7989  7998       L1     7  0.78
      L1  C     8    25       P1  8028  0.94

> <Gold.PLP.Chemscore.Internal.Correction>
0.0204

> <Gold.Rescore>
     Score         DG    S(hbond)    S(metal)    S(lipo)     H(rot)  DE(clash)    DE(int)     intcor
     11.96     -15.24       1.36        0.00      66.34       1.00       1.44       1.84       ----

> <Gold.Chemscore.Fitness>
11.9640

> <Gold.Chemscore.DG>
-15.2381

> <Gold.Chemscore.ZeroCoef>
-5.4800

> <Gold.Chemscore.Hbond>
1.3643

> <Gold.Chemscore.Metal>
0.0000

> <Gold.Chemscore.Lipo>
66.3355

> <Gold.Chemscore.Internal_Hbond>
0.0000

> <Gold.Chemscore.DEClash>
1.4369

> <Gold.Chemscore.DEInternal>
1.8372

> <Gold.Chemscore.Rot>
1.0000

> <Gold.Chemscore.Internal.Correction>
   9.000000E+99

> <Gold.Chemscore.Hbonds>
donor molecule, donor type, donor heavy atom, donor atom, acceptor molecule, acceptor atom, score
      P1  H  7989  7998       L1     7  0.07

> <Gold.Chemscore.Hbond.Weighted>
-4.5569

> <Gold.Chemscore.Metal.Weighted>
-0.0000

> <Gold.Chemscore.Lipo.Weighted>
-7.7613

> <Gold.Chemscore.Internal_Hbond.Weighted>
0.0000

> <Gold.Chemscore.DEClash.Weighted>
1.4369

> <Gold.Chemscore.DEInternal.Weighted>
1.8372

> <Gold.Chemscore.Rot.Weighted>
2.5600

> <Gold.Chemscore.Internal.Correction.Weighted>
   9.000000E+99

> <Gold.Protein.RotatedTorsions>
[ 6907 6896 6895 6894 ] final  -64.26 input  -60.11 | X-H torsion
[ 7974 7965 7964 7962 ] final  -12.82 input  175.53 | X-H torsion
[ 8008 7997 7996 7995 ] final   -8.50 input   59.86 | X-H torsion
[ 10167 10162 10161 10158 ] final  -57.50 input  -65.29 | X-H torsion
[ 10718 10713 10712 10709 ] final  -56.42 input   66.30 | X-H torsion
[ 10763 10752 10751 10750 ] final  134.26 input  -60.55 | X-H torsion
[ 11005 11000 10999 10996 ] final   33.90 input  -57.11 | X-H torsion

> <Gold.Protein.ActiveResidues>
 VAL166  LYS551  ARG553  GLY616  TRP617  ASP618  TYR619  PRO620  LYS621  CYS622 
 ASP623  PHE694  ASN695  SER759  ASP760  ASP761  ALA762  ILE779  LEU786  VAL792 
 PHE793  MET794  SER795  GLU796  ALA797  LYS798  CYS799  TRP800  GLU811  SER814 

> <Gold.Protein.RotatedAtoms>
  150.7596  134.6322  159.6192 H   0  0  0  0  0  0  0  0  0  0  0  0  # atno 6907 bound_to 6896
  152.3596  134.6888  160.0220 H   0  0  0  0  0  0  0  0  0  0  0  0  # atno 6908 bound_to 6896
  151.7282  133.3280  159.3369 H   0  0  0  0  0  0  0  0  0  0  0  0  # atno 6909 bound_to 6896
  146.2137  140.3114  142.8383 H   0  0  0  0  0  0  0  0  0  0  0  0  # atno 7974 bound_to 7965
  154.5735  140.2379  155.8157 H   0  0  0  0  0  0  0  0  0  0  0  0  # atno 8008 bound_to 7997
  156.2125  140.3022  155.9722 H   0  0  0  0  0  0  0  0  0  0  0  0  # atno 8009 bound_to 7997
  155.2669  140.0416  157.2993 H   0  0  0  0  0  0  0  0  0  0  0  0  # atno 8010 bound_to 7997
  140.6254  143.2436  151.5376 H   0  0  0  0  0  0  0  0  0  0  0  0  # atno 10167 bound_to 10162
  156.1290  130.4160  150.0303 H   0  0  0  0  0  0  0  0  0  0  0  0  # atno 10718 bound_to 10713
  153.8207  135.3116  155.3410 H   0  0  0  0  0  0  0  0  0  0  0  0  # atno 10763 bound_to 10752
  154.8014  135.4724  154.0287 H   0  0  0  0  0  0  0  0  0  0  0  0  # atno 10764 bound_to 10752
  153.1695  135.6875  153.8717 H   0  0  0  0  0  0  0  0  0  0  0  0  # atno 10765 bound_to 10752
  140.2583  134.3222  155.7866 H   0  0  0  0  0  0  0  0  0  0  0  0  # atno 11005 bound_to 11000
  144.8985  140.7614  143.5881 LP  0  0  0  0  0  0  0  0  0  0  0  0  # atno 17320 bound_to 7965
  145.3039  139.1841  143.4675 LP  0  0  0  0  0  0  0  0  0  0  0  0  # atno 17321 bound_to 7965
  139.5475  144.2481  152.1470 LP  0  0  0  0  0  0  0  0  0  0  0  0  # atno 17342 bound_to 10162
  140.1712  144.4934  150.6579 LP  0  0  0  0  0  0  0  0  0  0  0  0  # atno 17343 bound_to 10162
  156.8220  130.9362  151.3641 LP  0  0  0  0  0  0  0  0  0  0  0  0  # atno 17370 bound_to 10713
  157.6469  130.8852  149.9557 LP  0  0  0  0  0  0  0  0  0  0  0  0  # atno 17371 bound_to 10713
  141.2193  133.7394  156.9147 LP  0  0  0  0  0  0  0  0  0  0  0  0  # atno 17394 bound_to 11000
  140.1489  134.9243  157.2567 LP  0  0  0  0  0  0  0  0  0  0  0  0  # atno 17395 bound_to 11000

$$$$
