AV-unprocessed.smi:3171|AV-procd|sdf|12112|dock4
  -GOLD-   2272017553D 1   1.00000     0.00000
 Structure written by MMmdl.
 33 34  0  0  0  0  0  0  0  0  1 V2000
  151.8941  144.8843  160.3871 C   0  0  0  0  0  0  0  0  0  0  0  0
  151.4717  143.7613  159.4565 C   0  0  0  0  0  0  0  0  0  0  0  0
  150.2921  143.9556  158.8272 N   0  0  0  0  0  0  0  0  0  0  0  0
  149.8181  143.0392  157.9820 N   0  0  0  0  0  0  0  0  0  0  0  0
  150.5020  141.8953  157.7369 C   0  0  0  0  0  0  0  0  0  0  0  0
  149.9375  140.9771  156.8311 N   0  0  0  0  0  0  0  0  0  0  0  0
  150.6116  140.6176  155.5891 C   0  0  0  0  0  0  0  0  0  0  0  0
  149.6293  140.4508  154.4184 C   0  0  1  0  0  0  0  0  0  0  0  0
  148.4522  139.5343  154.7378 C   0  0  0  0  0  0  0  0  0  0  0  0
  147.4377  139.9773  153.7078 C   0  0  0  0  0  0  0  0  0  0  0  0
  147.6840  141.4837  153.6353 C   0  0  0  0  0  0  0  0  0  0  0  0
  149.0161  141.6958  154.0989 O   0  0  0  0  0  0  0  0  0  0  0  0
  151.7482  141.6274  158.3612 C   0  0  0  0  0  0  0  0  0  0  0  0
  152.4852  140.3946  158.0906 C   0  0  0  0  0  0  0  0  0  0  0  0
  153.0688  139.4186  157.8761 N   0  0  0  0  0  0  0  0  0  0  0  0
  152.2558  142.5984  159.2609 C   0  0  0  0  0  0  0  0  0  0  0  0
  153.5880  142.3956  159.9783 C   0  0  0  0  0  0  0  0  0  0  0  0
  152.8570  145.2929  160.0799 H   0  0  0  0  0  0  0  0  0  0  0  0
  151.9790  144.5194  161.4108 H   0  0  0  0  0  0  0  0  0  0  0  0
  151.1703  145.7004  160.3840 H   0  0  0  0  0  0  0  0  0  0  0  0
  148.9505  140.7753  156.9024 H   0  0  0  0  0  0  0  0  0  0  0  0
  151.3642  141.3695  155.3489 H   0  0  0  0  0  0  0  0  0  0  0  0
  151.1560  139.6866  155.7499 H   0  0  0  0  0  0  0  0  0  0  0  0
  150.1377  140.0764  153.5283 H   0  0  0  0  0  0  0  0  0  0  0  0
  148.7042  138.4762  154.6625 H   0  0  0  0  0  0  0  0  0  0  0  0
  148.0747  139.7279  155.7428 H   0  0  0  0  0  0  0  0  0  0  0  0
  147.6602  139.5146  152.7452 H   0  0  0  0  0  0  0  0  0  0  0  0
  146.4122  139.7246  153.9786 H   0  0  0  0  0  0  0  0  0  0  0  0
  147.5530  141.8689  152.6239 H   0  0  0  0  0  0  0  0  0  0  0  0
  146.9991  142.0200  154.2929 H   0  0  0  0  0  0  0  0  0  0  0  0
  153.5876  141.4491  160.5200 H   0  0  0  0  0  0  0  0  0  0  0  0
  153.8128  143.1773  160.7016 H   0  0  0  0  0  0  0  0  0  0  0  0
  154.4030  142.3736  159.2543 H   0  0  0  0  0  0  0  0  0  0  0  0
  1  2  1  0  0  0  0
  1 18  1  0  0  0  0
  1 19  1  0  0  0  0
  1 20  1  0  0  0  0
  2 16  1  0  0  0  0
  2  3  2  0  0  0  0
  3  4  1  0  0  0  0
  4  5  2  0  0  0  0
  5  6  1  0  0  0  0
  5 13  1  0  0  0  0
  6  7  1  0  0  0  0
  6 21  1  0  0  0  0
  7  8  1  0  0  0  0
  7 22  1  0  0  0  0
  7 23  1  0  0  0  0
  8 12  1  0  0  0  0
  8  9  1  0  0  0  0
  8 24  1  0  0  0  0
  9 10  1  0  0  0  0
  9 25  1  0  0  0  0
  9 26  1  0  0  0  0
 10 11  1  0  0  0  0
 10 27  1  0  0  0  0
 10 28  1  0  0  0  0
 11 12  1  0  0  0  0
 11 29  1  0  0  0  0
 11 30  1  0  0  0  0
 13 14  1  0  0  0  0
 13 16  2  0  0  0  0
 14 15  3  0  0  0  0
 16 17  1  0  0  0  0
 17 31  1  0  0  0  0
 17 32  1  0  0  0  0
 17 33  1  0  0  0  0
M  END
> <s_m_source_file>
AV-unprocessed.smi

> <i_m_source_file_index>
3171

> <i_lp_mmshare_version>
43012

> <i_f3d_flags>
0

> <s_epik_input>
W0NIM11jMW5uYyhjKEMjTiljMVtDSDNdKVtOSF1bQ0gyXVtDQEBIXTJbQ0gyXVtDSDJdW0NIMl1PMg==

> <s_epik_cmdline>
J2VwaWtfcHl0aG9uJywgJy1waCcsICc3LjAnLCAnLXRuJywgJzgnLCAnLW1hJywgJzIwMCcsICctbWV0YWxfYmluZGluZycsICctaW1hZScsICc8aW5maWxlLm1hZT4nLCAnLW9tYWUnLCAnPG91dGZpbGUubWFlPic=

> <r_lp_tautomer_probability>
1

> <r_epik_Ionization_Penalty>
0.00108228

> <r_epik_Ionization_Penalty_Charging>
0

> <r_epik_Ionization_Penalty_Neutral>
0.00108228

> <r_epik_State_Penalty>
-0

> <r_epik_Charging_Adjusted_Penalty>
0

> <i_epik_Tot_Q>
0

> <i_epik_Tot_abs_Q>
0

> <r_epik_Metal_State_Penalty>
-0

> <b_epik_Metal_Only>
0

> <s_lp_Force_Field>
OPLS_2005

> <r_lp_Energy>
28.3967

> <b_lp_Chiralities_Consistent>
1

> <s_lp_Variant>
AV-unprocessed.smi:3171-2

> <Gold.Version>
5.8.1

> <Gold.Id.Protein>
6NUR|6NUR_protein|mol2

> <Gold.PLP.Fitness>
35.9991

> <Gold.PLP.PLP>
-33.1617

> <Gold.PLP.part.hbond>
-2.3019

> <Gold.PLP.part.metal>
0.0000

> <Gold.PLP.part.buried>
-3.4016

> <Gold.PLP.part.nonpolar>
-27.6048

> <Gold.PLP.part.repulsive>
1.3417

> <Gold.PLP.ligand.clash>
0.0000

> <Gold.PLP.ligand.torsion>
0.7694

> <Gold.PLP.Chemscore.Hbond>
1.4564

> <Gold.PLP.Chemscore.CHOScore>
0.0000

> <Gold.PLP.Chemscore.Metal>
0.0000

> <Gold.Chemscore.Hbonds>
donor molecule, donor type, donor heavy atom, donor atom, acceptor molecule, acceptor atom, score
      P1  H  7997  8010       L1    15  1.00
      P1  H  8011  8017       L1    12  0.45

> <Gold.PLP.Chemscore.Internal.Correction>
0.0070

> <Gold.Rescore>
     Score         DG    S(hbond)    S(metal)    S(lipo)     H(rot)  DE(clash)    DE(int)     intcor
     14.70     -15.55       0.94        0.00      86.00       1.22       0.09       0.76       ----

> <Gold.Chemscore.Fitness>
14.7038

> <Gold.Chemscore.DG>
-15.5516

> <Gold.Chemscore.ZeroCoef>
-5.4800

> <Gold.Chemscore.Hbond>
0.9366

> <Gold.Chemscore.Metal>
0.0000

> <Gold.Chemscore.Lipo>
85.9977

> <Gold.Chemscore.Internal_Hbond>
0.0000

> <Gold.Chemscore.DEClash>
0.0922

> <Gold.Chemscore.DEInternal>
0.7557

> <Gold.Chemscore.Rot>
1.2181

> <Gold.Chemscore.Internal.Correction>
   9.000000E+99

> <Gold.Chemscore.Hbonds>
donor molecule, donor type, donor heavy atom, donor atom, acceptor molecule, acceptor atom, score
      P1  H  7997  8010       L1    15  0.35
      P1  H  8011  8017       L1    12  0.05

> <Gold.Chemscore.Hbond.Weighted>
-3.1281

> <Gold.Chemscore.Metal.Weighted>
-0.0000

> <Gold.Chemscore.Lipo.Weighted>
-10.0617

> <Gold.Chemscore.Internal_Hbond.Weighted>
0.0000

> <Gold.Chemscore.DEClash.Weighted>
0.0922

> <Gold.Chemscore.DEInternal.Weighted>
0.7557

> <Gold.Chemscore.Rot.Weighted>
3.1182

> <Gold.Chemscore.Internal.Correction.Weighted>
   9.000000E+99

> <Gold.Protein.RotatedTorsions>
[ 6907 6896 6895 6894 ] final -155.53 input  -60.11 | X-H torsion
[ 7974 7965 7964 7962 ] final -124.38 input  175.53 | X-H torsion
[ 8008 7997 7996 7995 ] final   42.57 input   59.86 | X-H torsion
[ 10167 10162 10161 10158 ] final  -40.89 input  -65.29 | X-H torsion
[ 10718 10713 10712 10709 ] final   75.18 input   66.30 | X-H torsion
[ 10763 10752 10751 10750 ] final  138.43 input  -60.55 | X-H torsion
[ 11005 11000 10999 10996 ] final -155.07 input  -57.11 | X-H torsion

> <Gold.Protein.ActiveResidues>
 VAL166  LYS551  ARG553  GLY616  TRP617  ASP618  TYR619  PRO620  LYS621  CYS622 
 ASP623  PHE694  ASN695  SER759  ASP760  ASP761  ALA762  ILE779  LEU786  VAL792 
 PHE793  MET794  SER795  GLU796  ALA797  LYS798  CYS799  TRP800  GLU811  SER814 

> <Gold.Protein.RotatedAtoms>
  151.2739  133.4242  159.2622 H   0  0  0  0  0  0  0  0  0  0  0  0  # atno 6907 bound_to 6896
  151.0420  134.9614  159.8177 H   0  0  0  0  0  0  0  0  0  0  0  0  # atno 6908 bound_to 6896
  152.5367  134.2697  159.9019 H   0  0  0  0  0  0  0  0  0  0  0  0  # atno 6909 bound_to 6896
  145.0087  140.7886  143.4452 H   0  0  0  0  0  0  0  0  0  0  0  0  # atno 7974 bound_to 7965
  155.2883  140.3377  155.4254 H   0  0  0  0  0  0  0  0  0  0  0  0  # atno 8008 bound_to 7997
  156.2058  140.1750  156.7844 H   0  0  0  0  0  0  0  0  0  0  0  0  # atno 8009 bound_to 7997
  154.5618  140.0686  156.8815 H   0  0  0  0  0  0  0  0  0  0  0  0  # atno 8010 bound_to 7997
  140.7020  143.3126  151.2989 H   0  0  0  0  0  0  0  0  0  0  0  0  # atno 10167 bound_to 10162
  157.6623  130.9714  150.1317 H   0  0  0  0  0  0  0  0  0  0  0  0  # atno 10718 bound_to 10713
  153.8895  135.3035  155.3447 H   0  0  0  0  0  0  0  0  0  0  0  0  # atno 10763 bound_to 10752
  154.7723  135.4879  153.9677 H   0  0  0  0  0  0  0  0  0  0  0  0  # atno 10764 bound_to 10752
  153.1306  135.6803  153.9283 H   0  0  0  0  0  0  0  0  0  0  0  0  # atno 10765 bound_to 10752
  140.6905  134.4046  157.5219 H   0  0  0  0  0  0  0  0  0  0  0  0  # atno 11005 bound_to 11000
  145.2053  139.2231  143.5171 LP  0  0  0  0  0  0  0  0  0  0  0  0  # atno 17320 bound_to 7965
  146.3466  140.1880  142.8589 LP  0  0  0  0  0  0  0  0  0  0  0  0  # atno 17321 bound_to 7965
  139.6554  144.0285  152.2656 LP  0  0  0  0  0  0  0  0  0  0  0  0  # atno 17342 bound_to 10162
  139.9835  144.6411  150.7879 LP  0  0  0  0  0  0  0  0  0  0  0  0  # atno 17343 bound_to 10162
  156.2162  130.3670  149.8611 LP  0  0  0  0  0  0  0  0  0  0  0  0  # atno 17370 bound_to 10713
  156.6476  130.8730  151.3525 LP  0  0  0  0  0  0  0  0  0  0  0  0  # atno 17371 bound_to 10713
  139.8925  134.8754  156.2269 LP  0  0  0  0  0  0  0  0  0  0  0  0  # atno 17394 bound_to 11000
  141.0245  133.7023  156.1324 LP  0  0  0  0  0  0  0  0  0  0  0  0  # atno 17395 bound_to 11000

$$$$
