AV-unprocessed.smi:247|AV-procd|sdf|1895|dock7
  -GOLD-   2262020563D 1   1.00000     0.00000
 Structure written by MMmdl.
 61 65  0  0  0  0  0  0  0  0  1 V2000
  146.9187  134.1231  154.8282 O   0  0  0  0  0  0  0  0  0  0  0  0
  148.2376  134.6280  154.9057 C   0  0  0  0  0  0  0  0  0  0  0  0
  149.2152  133.6899  155.6671 C   0  0  0  0  0  0  0  0  0  0  0  0
  150.6169  134.3761  155.7266 C   0  0  0  0  0  0  0  0  0  0  0  0
  150.5966  135.8081  155.9914 N   0  0  0  0  0  0  0  0  0  0  0  0
  150.8827  136.8155  155.0973 C   0  0  0  0  0  0  0  0  0  0  0  0
  150.7819  138.0269  155.5707 N   0  0  0  0  0  0  0  0  0  0  0  0
  150.3724  137.8458  156.8865 C   0  0  0  0  0  0  0  0  0  0  0  0
  150.0705  138.7299  157.9616 C   0  0  0  0  0  0  0  0  0  0  0  0
  150.1331  140.0822  157.8400 N   0  0  0  0  0  0  0  0  0  0  0  0
  151.0405  140.7764  158.7485 C   0  0  0  0  0  0  0  0  0  0  0  0
  151.6630  141.9224  157.9462 C   0  0  0  0  0  0  0  0  0  0  0  0
  150.6635  142.1579  156.8192 C   0  0  0  0  0  0  0  0  0  0  0  0
  150.1467  140.7418  156.5331 C   0  0  2  0  0  0  0  0  0  0  0  0
  148.7932  140.6580  155.7705 C   0  0  1  0  0  0  0  0  0  0  0  0
  147.5847  141.1436  156.6063 C   0  0  0  0  0  0  0  0  0  0  0  0
  146.3750  140.9801  155.8737 O   0  0  0  0  0  0  0  0  0  0  0  0
  146.3360  141.7627  154.6862 C   0  0  0  0  0  0  0  0  0  0  0  0
  147.4510  141.3076  153.7340 C   0  0  0  0  0  0  0  0  0  0  0  0
  148.8190  141.4110  154.4228 C   0  0  2  0  0  0  0  0  0  0  0  0
  149.8005  140.8678  153.5619 O   0  0  0  0  0  0  0  0  0  0  0  0
  149.6996  138.1679  159.1428 N   0  0  0  0  0  0  0  0  0  0  0  0
  149.6217  136.8401  159.2670 C   0  0  0  0  0  0  0  0  0  0  0  0
  149.8674  135.9010  158.3520 N   0  0  0  0  0  0  0  0  0  0  0  0
  150.2488  136.4549  157.1656 C   0  0  0  0  0  0  0  0  0  0  0  0
  148.6564  133.3845  157.0811 C   0  0  0  0  0  0  0  0  0  0  0  0
  149.4546  132.2819  157.7997 C   0  0  0  0  0  0  0  0  0  0  0  0
  149.4609  131.0981  157.0111 O   0  0  0  0  0  0  0  0  0  0  0  0
  150.0940  131.2716  155.7490 C   0  0  0  0  0  0  0  0  0  0  0  0
  149.3486  132.3366  154.9214 C   0  0  0  0  0  0  0  0  0  0  0  0
  146.8948  133.4440  154.1714 H   0  0  0  0  0  0  0  0  0  0  0  0
  148.5922  134.7989  153.8885 H   0  0  0  0  0  0  0  0  0  0  0  0
  148.1809  135.6031  155.3891 H   0  0  0  0  0  0  0  0  0  0  0  0
  151.2502  133.9212  156.4864 H   0  0  0  0  0  0  0  0  0  0  0  0
  151.1438  134.2188  154.7843 H   0  0  0  0  0  0  0  0  0  0  0  0
  151.1757  136.6230  154.0757 H   0  0  0  0  0  0  0  0  0  0  0  0
  150.4601  141.1700  159.5835 H   0  0  0  0  0  0  0  0  0  0  0  0
  151.8119  140.1199  159.1540 H   0  0  0  0  0  0  0  0  0  0  0  0
  151.8450  142.8125  158.5490 H   0  0  0  0  0  0  0  0  0  0  0  0
  152.6167  141.6000  157.5263 H   0  0  0  0  0  0  0  0  0  0  0  0
  149.8684  142.8108  157.1768 H   0  0  0  0  0  0  0  0  0  0  0  0
  151.1187  142.6269  155.9465 H   0  0  0  0  0  0  0  0  0  0  0  0
  150.9099  140.2437  155.9330 H   0  0  0  0  0  0  0  0  0  0  0  0
  148.6045  139.6090  155.5414 H   0  0  0  0  0  0  0  0  0  0  0  0
  147.5002  140.5645  157.5260 H   0  0  0  0  0  0  0  0  0  0  0  0
  147.6872  142.1885  156.8992 H   0  0  0  0  0  0  0  0  0  0  0  0
  145.3627  141.6358  154.2119 H   0  0  0  0  0  0  0  0  0  0  0  0
  146.4372  142.8217  154.9288 H   0  0  0  0  0  0  0  0  0  0  0  0
  147.2624  140.2768  153.4301 H   0  0  0  0  0  0  0  0  0  0  0  0
  147.4365  141.9101  152.8251 H   0  0  0  0  0  0  0  0  0  0  0  0
  149.0537  142.4632  154.5885 H   0  0  0  0  0  0  0  0  0  0  0  0
  149.3960  140.2029  153.0258 H   0  0  0  0  0  0  0  0  0  0  0  0
  149.3178  136.4790  160.2384 H   0  0  0  0  0  0  0  0  0  0  0  0
  148.6161  134.2844  157.6935 H   0  0  0  0  0  0  0  0  0  0  0  0
  147.6241  133.0416  157.0041 H   0  0  0  0  0  0  0  0  0  0  0  0
  150.4756  132.5979  158.0148 H   0  0  0  0  0  0  0  0  0  0  0  0
  148.9907  132.0559  158.7598 H   0  0  0  0  0  0  0  0  0  0  0  0
  151.1447  131.5267  155.8871 H   0  0  0  0  0  0  0  0  0  0  0  0
  150.0773  130.3180  155.2211 H   0  0  0  0  0  0  0  0  0  0  0  0
  148.3620  131.9337  154.6921 H   0  0  0  0  0  0  0  0  0  0  0  0
  149.8445  132.4777  153.9605 H   0  0  0  0  0  0  0  0  0  0  0  0
  1  2  1  0  0  0  0
  1 31  1  0  0  0  0
  2  3  1  0  0  0  0
  2 32  1  0  0  0  0
  2 33  1  0  0  0  0
  3 30  1  0  0  0  0
  3  4  1  0  0  0  0
  3 26  1  0  0  0  0
  4  5  1  0  0  0  0
  4 34  1  0  0  0  0
  4 35  1  0  0  0  0
  5 25  1  0  0  0  0
  5  6  1  0  0  0  0
  6  7  2  0  0  0  0
  6 36  1  0  0  0  0
  7  8  1  0  0  0  0
  8 25  2  0  0  0  0
  8  9  1  0  0  0  0
  9 10  1  0  0  0  0
  9 22  2  0  0  0  0
 10 14  1  0  0  0  0
 10 11  1  0  0  0  0
 11 12  1  0  0  0  0
 11 37  1  0  0  0  0
 11 38  1  0  0  0  0
 12 13  1  0  0  0  0
 12 39  1  0  0  0  0
 12 40  1  0  0  0  0
 13 14  1  0  0  0  0
 13 41  1  0  0  0  0
 13 42  1  0  0  0  0
 14 15  1  0  0  0  0
 14 43  1  0  0  0  0
 15 20  1  0  0  0  0
 15 16  1  0  0  0  0
 15 44  1  0  0  0  0
 16 17  1  0  0  0  0
 16 45  1  0  0  0  0
 16 46  1  0  0  0  0
 17 18  1  0  0  0  0
 18 19  1  0  0  0  0
 18 47  1  0  0  0  0
 18 48  1  0  0  0  0
 19 20  1  0  0  0  0
 19 49  1  0  0  0  0
 19 50  1  0  0  0  0
 20 21  1  0  0  0  0
 20 51  1  0  0  0  0
 21 52  1  0  0  0  0
 22 23  1  0  0  0  0
 23 24  2  0  0  0  0
 23 53  1  0  0  0  0
 24 25  1  0  0  0  0
 26 27  1  0  0  0  0
 26 54  1  0  0  0  0
 26 55  1  0  0  0  0
 27 28  1  0  0  0  0
 27 56  1  0  0  0  0
 27 57  1  0  0  0  0
 28 29  1  0  0  0  0
 29 30  1  0  0  0  0
 29 58  1  0  0  0  0
 29 59  1  0  0  0  0
 30 60  1  0  0  0  0
 30 61  1  0  0  0  0
M  END
> <s_m_source_file>
AV-unprocessed.smi

> <i_m_source_file_index>
247

> <i_lp_mmshare_version>
43012

> <i_f3d_flags>
0

> <s_epik_input>
W0NIMl0xW0NIMl1PW0NIMl1bQ0gyXUMxKFtDSDJdW09IXSlbQ0gyXW4oW2NIXW4yKWMoYzIzKW5bY0hdbmMzTjRbQ0gyXVtDSDJdW0NIMl1bQ0BIXTRbQ0BASF01W0NIMl1PW0NIMl1bQ0gyXVtDQEhdNVtPSF0=

> <s_epik_cmdline>
J2VwaWtfcHl0aG9uJywgJy1waCcsICc3LjAnLCAnLXRuJywgJzgnLCAnLW1hJywgJzIwMCcsICctbWV0YWxfYmluZGluZycsICctaW1hZScsICc8aW5maWxlLm1hZT4nLCAnLW9tYWUnLCAnPG91dGZpbGUubWFlPic=

> <r_lp_tautomer_probability>
1

> <r_epik_Ionization_Penalty>
0.00362597

> <r_epik_Ionization_Penalty_Charging>
0

> <r_epik_Ionization_Penalty_Neutral>
0.00362597

> <r_epik_State_Penalty>
0.00241433

> <r_epik_Charging_Adjusted_Penalty>
0.00241433

> <i_epik_Tot_Q>
0

> <i_epik_Tot_abs_Q>
0

> <r_epik_Metal_State_Penalty>
-0

> <b_epik_Metal_Only>
0

> <s_lp_Force_Field>
OPLS_2005

> <r_lp_Energy>
58.878

> <b_lp_Chiralities_Consistent>
1

> <s_lp_Variant>
AV-unprocessed.smi:247-8

> <Gold.Version>
5.8.1

> <Gold.Id.Protein>
6NUR|6NUR_protein|mol2

> <Gold.PLP.Fitness>
47.0939

> <Gold.PLP.PLP>
-37.7508

> <Gold.PLP.part.hbond>
-4.4016

> <Gold.PLP.part.metal>
0.0000

> <Gold.PLP.part.buried>
-5.2370

> <Gold.PLP.part.nonpolar>
-29.2938

> <Gold.PLP.part.repulsive>
0.1104

> <Gold.PLP.ligand.clash>
0.0000

> <Gold.PLP.ligand.torsion>
0.6594

> <Gold.PLP.Chemscore.Hbond>
2.4143

> <Gold.PLP.Chemscore.CHOScore>
1.0000

> <Gold.PLP.Chemscore.Metal>
0.0000

> <Gold.Chemscore.Hbonds>
donor molecule, donor type, donor heavy atom, donor atom, acceptor molecule, acceptor atom, score
      L1  H    21    52       P1  7957  0.50
      P1  H  6896  6908       L1    24  0.68
      P1  H  7989  7998       L1    21  0.35
      P1  H  8011  8017       L1    21  0.75
      L1  C     6    36       P1  7949  0.68

> <Gold.PLP.Chemscore.Internal.Correction>
0.4190

> <Gold.Rescore>
     Score         DG    S(hbond)    S(metal)    S(lipo)     H(rot)  DE(clash)    DE(int)     intcor
      7.41     -10.59       1.02        0.00      85.18       3.23       0.23       2.95       ----

> <Gold.Chemscore.Fitness>
7.4140

> <Gold.Chemscore.DG>
-10.5898

> <Gold.Chemscore.ZeroCoef>
-5.4800

> <Gold.Chemscore.Hbond>
1.0199

> <Gold.Chemscore.Metal>
0.0000

> <Gold.Chemscore.Lipo>
85.1846

> <Gold.Chemscore.Internal_Hbond>
0.0000

> <Gold.Chemscore.DEClash>
0.2291

> <Gold.Chemscore.DEInternal>
2.9468

> <Gold.Chemscore.Rot>
3.2278

> <Gold.Chemscore.Internal.Correction>
   9.000000E+99

> <Gold.Chemscore.Hbonds>
donor molecule, donor type, donor heavy atom, donor atom, acceptor molecule, acceptor atom, score
      L1  H    21    52       P1  7957  0.50
      P1  H  6896  6908       L1    24  0.29
      P1  H  7989  7998       L1    21  0.30
      P1  H  8011  8017       L1    21  0.03

> <Gold.Chemscore.Hbond.Weighted>
-3.4065

> <Gold.Chemscore.Metal.Weighted>
-0.0000

> <Gold.Chemscore.Lipo.Weighted>
-9.9666

> <Gold.Chemscore.Internal_Hbond.Weighted>
0.0000

> <Gold.Chemscore.DEClash.Weighted>
0.2291

> <Gold.Chemscore.DEInternal.Weighted>
2.9468

> <Gold.Chemscore.Rot.Weighted>
8.2633

> <Gold.Chemscore.Internal.Correction.Weighted>
   9.000000E+99

> <Gold.Protein.RotatedTorsions>
[ 6907 6896 6895 6894 ] final  151.85 input  -60.11 | X-H torsion
[ 7974 7965 7964 7962 ] final  164.52 input  175.53 | X-H torsion
[ 8008 7997 7996 7995 ] final  103.81 input   59.86 | X-H torsion
[ 10167 10162 10161 10158 ] final  -68.39 input  -65.29 | X-H torsion
[ 10718 10713 10712 10709 ] final  152.88 input   66.30 | X-H torsion
[ 10763 10752 10751 10750 ] final   39.37 input  -60.55 | X-H torsion
[ 11005 11000 10999 10996 ] final  133.98 input  -57.11 | X-H torsion

> <Gold.Protein.ActiveResidues>
 VAL166  LYS551  ARG553  GLY616  TRP617  ASP618  TYR619  PRO620  LYS621  CYS622 
 ASP623  PHE694  ASN695  SER759  ASP760  ASP761  ALA762  ILE779  LEU786  VAL792 
 PHE793  MET794  SER795  GLU796  ALA797  LYS798  CYS799  TRP800  GLU811  SER814 

> <Gold.Protein.RotatedAtoms>
  152.0950  133.4220  159.4560 H   0  0  0  0  0  0  0  0  0  0  0  0  # atno 6907 bound_to 6896
  150.6863  134.2828  159.4643 H   0  0  0  0  0  0  0  0  0  0  0  0  # atno 6908 bound_to 6896
  152.0682  134.9550  160.0625 H   0  0  0  0  0  0  0  0  0  0  0  0  # atno 6909 bound_to 6896
  144.7541  139.8338  143.6356 H   0  0  0  0  0  0  0  0  0  0  0  0  # atno 7974 bound_to 7965
  156.1517  140.3158  155.8659 H   0  0  0  0  0  0  0  0  0  0  0  0  # atno 8008 bound_to 7997
  155.3957  140.0496  157.3056 H   0  0  0  0  0  0  0  0  0  0  0  0  # atno 8009 bound_to 7997
  154.5065  140.2149  155.9253 H   0  0  0  0  0  0  0  0  0  0  0  0  # atno 8010 bound_to 7997
  140.5511  143.2312  151.6909 H   0  0  0  0  0  0  0  0  0  0  0  0  # atno 10167 bound_to 10162
  157.2520  131.0781  151.1723 H   0  0  0  0  0  0  0  0  0  0  0  0  # atno 10718 bound_to 10713
  152.9969  135.6222  154.2455 H   0  0  0  0  0  0  0  0  0  0  0  0  # atno 10763 bound_to 10752
  154.2194  135.2796  155.2932 H   0  0  0  0  0  0  0  0  0  0  0  0  # atno 10764 bound_to 10752
  154.5541  135.5724  153.7006 H   0  0  0  0  0  0  0  0  0  0  0  0  # atno 10765 bound_to 10752
  139.9886  134.9523  156.9802 H   0  0  0  0  0  0  0  0  0  0  0  0  # atno 11005 bound_to 11000
  146.1530  139.4619  143.0036 LP  0  0  0  0  0  0  0  0  0  0  0  0  # atno 17320 bound_to 7965
  145.6839  141.0183  143.1591 LP  0  0  0  0  0  0  0  0  0  0  0  0  # atno 17321 bound_to 7965
  139.5028  144.3816  152.0370 LP  0  0  0  0  0  0  0  0  0  0  0  0  # atno 17342 bound_to 10162
  140.2933  144.3729  150.6082 LP  0  0  0  0  0  0  0  0  0  0  0  0  # atno 17343 bound_to 10162
  157.3267  130.6964  149.6300 LP  0  0  0  0  0  0  0  0  0  0  0  0  # atno 17370 bound_to 10713
  155.9666  130.4319  150.4941 LP  0  0  0  0  0  0  0  0  0  0  0  0  # atno 17371 bound_to 10713
  140.4953  134.1151  155.7240 LP  0  0  0  0  0  0  0  0  0  0  0  0  # atno 17394 bound_to 11000
  141.1546  133.8906  157.2010 LP  0  0  0  0  0  0  0  0  0  0  0  0  # atno 17395 bound_to 11000

$$$$
