AV-unprocessed.smi:39|AV-procd|sdf|356|dock7
  -GOLD-   2262016193D 1   1.00000     0.00000
 Structure written by MMmdl.
 32 33  0  0  0  0  0  0  0  0  3 V2000
  152.9512  141.9857  159.3670 C   0  0  0  0  0  0  0  0  0  0  0  0
  151.9902  141.9162  158.1914 C   0  0  0  0  0  0  0  0  0  0  0  0
  151.6426  140.7423  157.6044 C   0  0  0  0  0  0  0  0  0  0  0  0
  150.7620  140.6444  156.5325 N   0  0  0  0  0  0  0  0  0  0  0  0
  150.4098  139.3198  155.8813 C   0  0  2  0  0  0  0  0  0  0  0  0
  150.9117  138.1292  156.7157 C   0  0  0  0  0  0  0  0  0  0  0  0
  151.4378  137.1975  155.6441 C   0  0  2  0  0  0  0  0  0  0  0  0
  152.3906  136.2125  156.1637 N   0  0  0  0  0  0  0  0  0  0  0  0
  152.6825  136.3081  157.3631 N   0  3  0  0  0  0  0  0  0  0  0  0
  152.8408  136.3354  158.4897 N   0  5  0  0  0  0  0  0  0  0  0  0
  152.0161  138.1838  154.6179 C   0  0  2  0  0  0  0  0  0  0  0  0
  153.4030  138.7700  154.9695 C   0  0  0  0  0  0  0  0  0  0  0  0
  154.3774  137.7501  154.9275 O   0  0  0  0  0  0  0  0  0  0  0  0
  151.0333  139.2198  154.6294 O   0  0  0  0  0  0  0  0  0  0  0  0
  150.2325  141.8263  155.9727 C   0  0  0  0  0  0  0  0  0  0  0  0
  149.4915  141.8248  154.9904 O   0  0  0  0  0  0  0  0  0  0  0  0
  150.5845  143.0310  156.5779 N   0  0  0  0  0  0  0  0  0  0  0  0
  151.4347  143.1704  157.6768 C   0  0  0  0  0  0  0  0  0  0  0  0
  151.6652  144.2908  158.1286 O   0  0  0  0  0  0  0  0  0  0  0  0
  149.3266  139.3409  155.7468 H   0  0  0  0  0  0  0  0  0  0  0  0
  150.5811  136.6919  155.1929 H   0  0  0  0  0  0  0  0  0  0  0  0
  152.0540  137.7150  153.6336 H   0  0  0  0  0  0  0  0  0  0  0  0
  150.1975  143.8764  156.1843 H   0  0  0  0  0  0  0  0  0  0  0  0
  153.2959  140.9961  159.6687 H   0  0  0  0  0  0  0  0  0  0  0  0
  152.4669  142.4464  160.2286 H   0  0  0  0  0  0  0  0  0  0  0  0
  153.8277  142.5803  159.1073 H   0  0  0  0  0  0  0  0  0  0  0  0
  152.0877  139.8454  158.0070 H   0  0  0  0  0  0  0  0  0  0  0  0
  151.7146  138.4498  157.3819 H   0  0  0  0  0  0  0  0  0  0  0  0
  150.1070  137.6955  157.3101 H   0  0  0  0  0  0  0  0  0  0  0  0
  153.6858  139.5913  154.3124 H   0  0  0  0  0  0  0  0  0  0  0  0
  153.4105  139.1626  155.9858 H   0  0  0  0  0  0  0  0  0  0  0  0
  154.9791  137.8795  155.6448 H   0  0  0  0  0  0  0  0  0  0  0  0
  1  2  1  0  0  0  0
  1 24  1  0  0  0  0
  1 25  1  0  0  0  0
  1 26  1  0  0  0  0
  2 18  1  0  0  0  0
  2  3  2  0  0  0  0
  3  4  1  0  0  0  0
  3 27  1  0  0  0  0
  4  5  1  0  0  0  0
  4 15  1  0  0  0  0
  5 20  1  0  0  0  0
  5 14  1  0  0  0  0
  5  6  1  0  0  0  0
  6  7  1  0  0  0  0
  6 28  1  0  0  0  0
  6 29  1  0  0  0  0
  7 21  1  0  0  0  0
  7  8  1  0  0  0  0
  7 11  1  0  0  0  0
  8  9  2  0  0  0  0
  9 10  2  0  0  0  0
 11 22  1  0  0  0  0
 11 12  1  0  0  0  0
 11 14  1  0  0  0  0
 12 13  1  0  0  0  0
 12 30  1  0  0  0  0
 12 31  1  0  0  0  0
 13 32  1  0  0  0  0
 15 16  2  0  0  0  0
 15 17  1  0  0  0  0
 17 23  1  0  0  0  0
 17 18  1  0  0  0  0
 18 19  2  0  0  0  0
M  CHG  1   9   1
M  CHG  1  10  -1
M  END
> <s_m_source_file>
AV-unprocessed.smi

> <i_m_source_file_index>
39

> <i_lp_mmshare_version>
43012

> <i_f3d_flags>
0

> <s_epik_input>
Tz1jMVtuSF1jKD1PKW4oW2NIXWMxW0NIM10pW0NASF0yW0NIMl1bQ0BIXShOPVtOK109W04tXSlbQ0BIXShPMilbQ0gyXVtPSF0=

> <s_epik_cmdline>
J2VwaWtfcHl0aG9uJywgJy1waCcsICc3LjAnLCAnLXRuJywgJzgnLCAnLW1hJywgJzIwMCcsICctbWV0YWxfYmluZGluZycsICctaW1hZScsICc8aW5maWxlLm1hZT4nLCAnLW9tYWUnLCAnPG91dGZpbGUubWFlPic=

> <r_lp_tautomer_probability>
0.999537

> <r_epik_Ionization_Penalty>
0.00127512

> <r_epik_Ionization_Penalty_Charging>
0.00127507

> <r_epik_Ionization_Penalty_Neutral>
5.43433e-08

> <r_epik_State_Penalty>
0.000844892

> <r_epik_Charging_Adjusted_Penalty>
0.00211996

> <i_epik_Tot_Q>
0

> <i_epik_Tot_abs_Q>
2

> <r_epik_Metal_State_Penalty>
0.680636

> <b_epik_Metal_Only>
0

> <s_epik_Chemistry_Notes>
This compound contains an acetal/aminal-like group ( X-CH(R)-Y where X, Y are N, S, or O) that may be acid/base labile, releasing an aldehyde.

> <s_lp_Force_Field>
OPLS_2005

> <r_lp_Energy>
27.6629

> <b_lp_Chiralities_Consistent>
1

> <s_lp_Variant>
AV-unprocessed.smi:39-6

> <Gold.Version>
5.8.1

> <Gold.Id.Protein>
6NUR|6NUR_protein|mol2

> <Gold.PLP.Fitness>
38.4882

> <Gold.PLP.PLP>
-28.5331

> <Gold.PLP.part.hbond>
-6.9829

> <Gold.PLP.part.metal>
0.0000

> <Gold.PLP.part.buried>
-2.6436

> <Gold.PLP.part.nonpolar>
-21.1890

> <Gold.PLP.part.repulsive>
0.8387

> <Gold.PLP.ligand.clash>
0.0000

> <Gold.PLP.ligand.torsion>
0.2477

> <Gold.PLP.Chemscore.Hbond>
3.4720

> <Gold.PLP.Chemscore.CHOScore>
0.0000

> <Gold.PLP.Chemscore.Metal>
0.0000

> <Gold.Chemscore.Hbonds>
donor molecule, donor type, donor heavy atom, donor atom, acceptor molecule, acceptor atom, score
      L1  H    17    23       P1  8028  1.00
      P1  H  6896  6909       L1    10  0.37
      P1  H  7989  7998       L1    14  0.86
      P1  H 10752 10763       L1     8  1.00

> <Gold.PLP.Chemscore.Internal.Correction>
0.0344

> <Gold.Rescore>
     Score         DG    S(hbond)    S(metal)    S(lipo)     H(rot)  DE(clash)    DE(int)     intcor
     13.62     -15.85       3.41        0.00      51.54       2.75       1.76       0.47       ----

> <Gold.Chemscore.Fitness>
13.6210

> <Gold.Chemscore.DG>
-15.8492

> <Gold.Chemscore.ZeroCoef>
-5.4800

> <Gold.Chemscore.Hbond>
3.4086

> <Gold.Chemscore.Metal>
0.0000

> <Gold.Chemscore.Lipo>
51.5441

> <Gold.Chemscore.Internal_Hbond>
0.0000

> <Gold.Chemscore.DEClash>
1.7552

> <Gold.Chemscore.DEInternal>
0.4730

> <Gold.Chemscore.Rot>
2.7524

> <Gold.Chemscore.Internal.Correction>
   9.000000E+99

> <Gold.Chemscore.Hbonds>
donor molecule, donor type, donor heavy atom, donor atom, acceptor molecule, acceptor atom, score
      L1  H    17    23       P1  8028  0.95
      P1  H  6896  6909       L1    10  0.37
      P1  H  7989  7998       L1    14  0.66
      P1  H 10752 10763       L1     8  0.87

> <Gold.Chemscore.Hbond.Weighted>
-11.3847

> <Gold.Chemscore.Metal.Weighted>
-0.0000

> <Gold.Chemscore.Lipo.Weighted>
-6.0307

> <Gold.Chemscore.Internal_Hbond.Weighted>
0.0000

> <Gold.Chemscore.DEClash.Weighted>
1.7552

> <Gold.Chemscore.DEInternal.Weighted>
0.4730

> <Gold.Chemscore.Rot.Weighted>
7.0461

> <Gold.Chemscore.Internal.Correction.Weighted>
   9.000000E+99

> <Gold.Protein.RotatedTorsions>
[ 6907 6896 6895 6894 ] final  141.69 input  -60.11 | X-H torsion
[ 7974 7965 7964 7962 ] final   93.32 input  175.53 | X-H torsion
[ 8008 7997 7996 7995 ] final  -69.57 input   59.86 | X-H torsion
[ 10167 10162 10161 10158 ] final  161.15 input  -65.29 | X-H torsion
[ 10718 10713 10712 10709 ] final  167.34 input   66.30 | X-H torsion
[ 10763 10752 10751 10750 ] final  110.38 input  -60.55 | X-H torsion
[ 11005 11000 10999 10996 ] final  -52.22 input  -57.11 | X-H torsion

> <Gold.Protein.ActiveResidues>
 VAL166  LYS551  ARG553  GLY616  TRP617  ASP618  TYR619  PRO620  LYS621  CYS622 
 ASP623  PHE694  ASN695  SER759  ASP760  ASP761  ALA762  ILE779  LEU786  VAL792 
 PHE793  MET794  SER795  GLU796  ALA797  LYS798  CYS799  TRP800  GLU811  SER814 

> <Gold.Protein.RotatedAtoms>
  152.2279  133.5035  159.5198 H   0  0  0  0  0  0  0  0  0  0  0  0  # atno 6907 bound_to 6896
  150.7029  134.1256  159.4060 H   0  0  0  0  0  0  0  0  0  0  0  0  # atno 6908 bound_to 6896
  151.9177  135.0312  160.0570 H   0  0  0  0  0  0  0  0  0  0  0  0  # atno 6909 bound_to 6896
  145.4805  139.2278  143.2885 H   0  0  0  0  0  0  0  0  0  0  0  0  # atno 7974 bound_to 7965
  154.4948  140.0851  156.7673 H   0  0  0  0  0  0  0  0  0  0  0  0  # atno 8008 bound_to 7997
  155.4143  140.3443  155.4248 H   0  0  0  0  0  0  0  0  0  0  0  0  # atno 8009 bound_to 7997
  156.1379  140.1520  156.8954 H   0  0  0  0  0  0  0  0  0  0  0  0  # atno 8010 bound_to 7997
  139.4846  144.4565  151.8761 H   0  0  0  0  0  0  0  0  0  0  0  0  # atno 10167 bound_to 10162
  157.0529  131.0318  151.2674 H   0  0  0  0  0  0  0  0  0  0  0  0  # atno 10718 bound_to 10713
  153.4481  135.3750  155.2267 H   0  0  0  0  0  0  0  0  0  0  0  0  # atno 10763 bound_to 10752
  154.8755  135.3879  154.4072 H   0  0  0  0  0  0  0  0  0  0  0  0  # atno 10764 bound_to 10752
  153.4627  135.7087  153.6104 H   0  0  0  0  0  0  0  0  0  0  0  0  # atno 10765 bound_to 10752
  141.0913  133.6632  156.3993 H   0  0  0  0  0  0  0  0  0  0  0  0  # atno 11005 bound_to 11000
  146.2344  140.5591  142.8961 LP  0  0  0  0  0  0  0  0  0  0  0  0  # atno 17320 bound_to 7965
  144.7892  140.5997  143.6553 LP  0  0  0  0  0  0  0  0  0  0  0  0  # atno 17321 bound_to 7965
  140.4025  144.2475  150.5892 LP  0  0  0  0  0  0  0  0  0  0  0  0  # atno 17342 bound_to 10162
  140.5044  143.2308  151.8630 LP  0  0  0  0  0  0  0  0  0  0  0  0  # atno 17343 bound_to 10162
  157.5016  130.7883  149.7610 LP  0  0  0  0  0  0  0  0  0  0  0  0  # atno 17370 bound_to 10713
  156.0002  130.3884  150.2636 LP  0  0  0  0  0  0  0  0  0  0  0  0  # atno 17371 bound_to 10713
  140.5245  134.6272  157.5329 LP  0  0  0  0  0  0  0  0  0  0  0  0  # atno 17394 bound_to 11000
  139.9739  134.7247  155.9987 LP  0  0  0  0  0  0  0  0  0  0  0  0  # atno 17395 bound_to 11000

$$$$
