AV-unprocessed.smi:1225|AV-procd|sdf|5143|dock5
  -GOLD-   22720 4213D 1   1.00000     0.00000
 Structure written by MMmdl.
 49 51  0  0  0  0  0  0  0  0  2 V2000
  145.6457  133.7828  152.4967 C   0  0  0  0  0  0  0  0  0  0  0  0
  145.6529  135.2567  152.7184 C   0  0  0  0  0  0  0  0  0  0  0  0
  144.8779  136.1100  152.0453 N   0  0  0  0  0  0  0  0  0  0  0  0
  145.0779  137.4355  152.4361 C   0  0  0  0  0  0  0  0  0  0  0  0
  146.0188  137.5862  153.4252 C   0  0  0  0  0  0  0  0  0  0  0  0
  146.4705  138.8554  154.0729 C   0  0  0  0  0  0  0  0  0  0  0  0
  146.5034  140.0029  153.1304 N   0  3  2  0  0  0  0  0  0  0  0  0
  147.0618  139.6369  151.8045 C   0  0  0  0  0  0  0  0  0  0  0  0
  147.1629  141.1969  153.7204 C   0  0  0  0  0  0  0  0  0  0  0  0
  148.5655  140.8798  154.2853 C   0  0  1  0  0  0  0  0  0  0  0  0
  149.5237  141.0979  153.2698 O   0  0  0  0  0  0  0  0  0  0  0  0
  148.9534  141.7544  155.4945 C   0  0  0  0  0  0  0  0  0  0  0  0
  150.1016  141.2345  156.2146 N   0  0  0  0  0  0  0  0  0  0  0  0
  150.8016  140.1185  155.9320 C   0  0  0  0  0  0  0  0  0  0  0  0
  151.8324  139.8308  156.7207 N   0  0  0  0  0  0  0  0  0  0  0  0
  151.7884  140.8736  157.6301 C   0  0  0  0  0  0  0  0  0  0  0  0
  152.6157  141.1598  158.7379 C   0  0  0  0  0  0  0  0  0  0  0  0
  152.3819  142.2979  159.5421 C   0  0  0  0  0  0  0  0  0  0  0  0
  153.2961  142.5670  160.7246 C   0  0  0  0  0  0  0  0  0  0  0  0
  151.3051  143.1708  159.2424 C   0  0  0  0  0  0  0  0  0  0  0  0
  151.0317  144.3966  160.0959 C   0  0  0  0  0  0  0  0  0  0  0  0
  150.4699  142.9004  158.1384 C   0  0  0  0  0  0  0  0  0  0  0  0
  150.7140  141.7660  157.3445 C   0  0  0  0  0  0  0  0  0  0  0  0
  146.6903  136.0467  153.8993 S   0  0  0  0  0  0  0  0  0  0  0  0
  144.8918  133.5084  151.7582 H   0  0  0  0  0  0  0  0  0  0  0  0
  145.4239  133.2663  153.4307 H   0  0  0  0  0  0  0  0  0  0  0  0
  146.6216  133.4554  152.1379 H   0  0  0  0  0  0  0  0  0  0  0  0
  144.5020  138.2135  151.9570 H   0  0  0  0  0  0  0  0  0  0  0  0
  145.7878  139.0750  154.8945 H   0  0  0  0  0  0  0  0  0  0  0  0
  147.4563  138.7229  154.5213 H   0  0  0  0  0  0  0  0  0  0  0  0
  148.0969  139.3057  151.8960 H   0  0  0  0  0  0  0  0  0  0  0  0
  147.0373  140.4766  151.1116 H   0  0  0  0  0  0  0  0  0  0  0  0
  146.4887  138.8325  151.3435 H   0  0  0  0  0  0  0  0  0  0  0  0
  147.2723  141.9797  152.9683 H   0  0  0  0  0  0  0  0  0  0  0  0
  146.5093  141.6093  154.4903 H   0  0  0  0  0  0  0  0  0  0  0  0
  148.6278  139.8338  154.5830 H   0  0  0  0  0  0  0  0  0  0  0  0
  149.3679  140.4809  152.5702 H   0  0  0  0  0  0  0  0  0  0  0  0
  149.1870  142.7696  155.1706 H   0  0  0  0  0  0  0  0  0  0  0  0
  148.1161  141.8328  156.1900 H   0  0  0  0  0  0  0  0  0  0  0  0
  150.5460  139.4863  155.0939 H   0  0  0  0  0  0  0  0  0  0  0  0
  153.4349  140.4940  158.9669 H   0  0  0  0  0  0  0  0  0  0  0  0
  152.7237  142.6013  161.6514 H   0  0  0  0  0  0  0  0  0  0  0  0
  153.8110  143.5195  160.5996 H   0  0  0  0  0  0  0  0  0  0  0  0
  154.0527  141.7889  160.8285 H   0  0  0  0  0  0  0  0  0  0  0  0
  150.1867  144.9686  159.7118 H   0  0  0  0  0  0  0  0  0  0  0  0
  151.9008  145.0545  160.1118 H   0  0  0  0  0  0  0  0  0  0  0  0
  150.7996  144.1036  161.1200 H   0  0  0  0  0  0  0  0  0  0  0  0
  149.6451  143.5562  157.9021 H   0  0  0  0  0  0  0  0  0  0  0  0
  145.5392  140.2673  152.9849 H   0  0  0  0  0  0  0  0  0  0  0  0
  1  2  1  0  0  0  0
  1 25  1  0  0  0  0
  1 26  1  0  0  0  0
  1 27  1  0  0  0  0
  2 24  1  0  0  0  0
  2  3  2  0  0  0  0
  3  4  1  0  0  0  0
  4  5  2  0  0  0  0
  4 28  1  0  0  0  0
  5  6  1  0  0  0  0
  5 24  1  0  0  0  0
  6  7  1  0  0  0  0
  6 29  1  0  0  0  0
  6 30  1  0  0  0  0
  7  8  1  0  0  0  0
  7  9  1  0  0  0  0
  7 49  1  0  0  0  0
  8 31  1  0  0  0  0
  8 32  1  0  0  0  0
  8 33  1  0  0  0  0
  9 10  1  0  0  0  0
  9 34  1  0  0  0  0
  9 35  1  0  0  0  0
 10 11  1  0  0  0  0
 10 12  1  0  0  0  0
 10 36  1  0  0  0  0
 11 37  1  0  0  0  0
 12 13  1  0  0  0  0
 12 38  1  0  0  0  0
 12 39  1  0  0  0  0
 13 23  1  0  0  0  0
 13 14  1  0  0  0  0
 14 15  2  0  0  0  0
 14 40  1  0  0  0  0
 15 16  1  0  0  0  0
 16 23  2  0  0  0  0
 16 17  1  0  0  0  0
 17 18  2  0  0  0  0
 17 41  1  0  0  0  0
 18 19  1  0  0  0  0
 18 20  1  0  0  0  0
 19 42  1  0  0  0  0
 19 43  1  0  0  0  0
 19 44  1  0  0  0  0
 20 21  1  0  0  0  0
 20 22  2  0  0  0  0
 21 45  1  0  0  0  0
 21 46  1  0  0  0  0
 21 47  1  0  0  0  0
 22 23  1  0  0  0  0
 22 48  1  0  0  0  0
M  CHG  1   7   1
M  END
> <s_m_source_file>
AV-unprocessed.smi

> <i_m_source_file_index>
1225

> <i_lp_mmshare_version>
43012

> <i_f3d_flags>
0

> <s_epik_input>
W0NIM11jMW5bY0hdYyhzMSlbQ0gyXU4oW0NIM10pW0NIMl1bQ0BIXShbT0hdKVtDSDJdbihbY0hdbjIpYyhjMjMpW2NIXWMoW0NIM10pYyhbY0hdMylbQ0gzXQ==

> <s_epik_cmdline>
J2VwaWtfcHl0aG9uJywgJy1waCcsICc3LjAnLCAnLXRuJywgJzgnLCAnLW1hJywgJzIwMCcsICctbWV0YWxfYmluZGluZycsICctaW1hZScsICc8aW5maWxlLm1hZT4nLCAnLW9tYWUnLCAnPG91dGZpbGUubWFlPic=

> <r_epik_Ionization_Penalty>
1.62543

> <r_epik_Ionization_Penalty_Charging>
1.53932

> <r_epik_Ionization_Penalty_Neutral>
0.0861152

> <r_epik_State_Penalty>
1.73127

> <r_epik_Charging_Adjusted_Penalty>
3.27059

> <i_epik_Tot_Q>
1

> <i_epik_Tot_abs_Q>
1

> <r_epik_Metal_State_Penalty>
1.71387

> <b_epik_Metal_Only>
0

> <s_lp_Force_Field>
OPLS_2005

> <r_lp_Energy>
12.5396

> <b_lp_Chiralities_Consistent>
1

> <s_lp_Variant>
AV-unprocessed.smi:1225-8

> <Gold.Version>
5.8.1

> <Gold.Id.Protein>
6NUR|6NUR_protein|mol2

> <Gold.PLP.Fitness>
57.5717

> <Gold.PLP.PLP>
-41.7102

> <Gold.PLP.part.hbond>
-3.3114

> <Gold.PLP.part.metal>
0.0000

> <Gold.PLP.part.buried>
-0.5080

> <Gold.PLP.part.nonpolar>
-37.8832

> <Gold.PLP.part.repulsive>
0.1428

> <Gold.PLP.ligand.clash>
0.0000

> <Gold.PLP.ligand.torsion>
1.0146

> <Gold.PLP.Chemscore.Hbond>
3.9308

> <Gold.PLP.Chemscore.CHOScore>
2.0000

> <Gold.PLP.Chemscore.Metal>
0.0000

> <Gold.Chemscore.Hbonds>
donor molecule, donor type, donor heavy atom, donor atom, acceptor molecule, acceptor atom, score
      L1  H     7    49       P1 10175  2.00
      L1  H    11    37       P1  7957  0.89
      P1  H  7989  7998       L1    11  0.12
      P1  H  8011  8017       L1    11  0.85
      L1  C     4    28       P1 10171  1.00
      L1  C     4    28       P1 10175  1.00

> <Gold.PLP.Chemscore.Internal.Correction>
0.0982

> <Gold.Rescore>
     Score         DG    S(hbond)    S(metal)    S(lipo)     H(rot)  DE(clash)    DE(int)     intcor
     19.69     -21.27       2.34        0.00     120.19       2.37       0.67       0.91       ----

> <Gold.Chemscore.Fitness>
19.6883

> <Gold.Chemscore.DG>
-21.2660

> <Gold.Chemscore.ZeroCoef>
-5.4800

> <Gold.Chemscore.Hbond>
2.3366

> <Gold.Chemscore.Metal>
0.0000

> <Gold.Chemscore.Lipo>
120.1870

> <Gold.Chemscore.Internal_Hbond>
0.0000

> <Gold.Chemscore.DEClash>
0.6719

> <Gold.Chemscore.DEInternal>
0.9057

> <Gold.Chemscore.Rot>
2.3750

> <Gold.Chemscore.Internal.Correction>
   9.000000E+99

> <Gold.Chemscore.Hbonds>
donor molecule, donor type, donor heavy atom, donor atom, acceptor molecule, acceptor atom, score
      L1  H     7    49       P1 10175  0.95
      L1  H    11    37       P1  7957  0.81
      P1  H  7989  7998       L1    11  0.03
      P1  H  8011  8017       L1    11  0.14

> <Gold.Chemscore.Hbond.Weighted>
-7.8041

> <Gold.Chemscore.Metal.Weighted>
-0.0000

> <Gold.Chemscore.Lipo.Weighted>
-14.0619

> <Gold.Chemscore.Internal_Hbond.Weighted>
0.0000

> <Gold.Chemscore.DEClash.Weighted>
0.6719

> <Gold.Chemscore.DEInternal.Weighted>
0.9057

> <Gold.Chemscore.Rot.Weighted>
6.0800

> <Gold.Chemscore.Internal.Correction.Weighted>
   9.000000E+99

> <Gold.Protein.RotatedTorsions>
[ 6907 6896 6895 6894 ] final  -36.55 input  -60.11 | X-H torsion
[ 7974 7965 7964 7962 ] final  -42.80 input  175.53 | X-H torsion
[ 8008 7997 7996 7995 ] final -149.61 input   59.86 | X-H torsion
[ 10167 10162 10161 10158 ] final  150.19 input  -65.29 | X-H torsion
[ 10718 10713 10712 10709 ] final   30.93 input   66.30 | X-H torsion
[ 10763 10752 10751 10750 ] final  106.24 input  -60.55 | X-H torsion
[ 11005 11000 10999 10996 ] final   76.12 input  -57.11 | X-H torsion

> <Gold.Protein.ActiveResidues>
 VAL166  LYS551  ARG553  GLY616  TRP617  ASP618  TYR619  PRO620  LYS621  CYS622 
 ASP623  PHE694  ASN695  SER759  ASP760  ASP761  ALA762  ILE779  LEU786  VAL792 
 PHE793  MET794  SER795  GLU796  ALA797  LYS798  CYS799  TRP800  GLU811  SER814 

> <Gold.Protein.RotatedAtoms>
  151.0257  134.9502  159.8083 H   0  0  0  0  0  0  0  0  0  0  0  0  # atno 6907 bound_to 6896
  152.5335  134.2845  159.9030 H   0  0  0  0  0  0  0  0  0  0  0  0  # atno 6908 bound_to 6896
  151.2853  133.4148  159.2663 H   0  0  0  0  0  0  0  0  0  0  0  0  # atno 6909 bound_to 6896
  146.0081  140.6996  142.9238 H   0  0  0  0  0  0  0  0  0  0  0  0  # atno 7974 bound_to 7965
  155.6104  140.0671  157.2707 H   0  0  0  0  0  0  0  0  0  0  0  0  # atno 8008 bound_to 7997
  154.4255  140.1802  156.1314 H   0  0  0  0  0  0  0  0  0  0  0  0  # atno 8009 bound_to 7997
  156.0089  140.3328  155.6924 H   0  0  0  0  0  0  0  0  0  0  0  0  # atno 8010 bound_to 7997
  139.4853  144.5542  151.7347 H   0  0  0  0  0  0  0  0  0  0  0  0  # atno 10167 bound_to 10162
  157.2660  130.7184  149.6479 H   0  0  0  0  0  0  0  0  0  0  0  0  # atno 10718 bound_to 10713
  153.3902  135.3883  155.1918 H   0  0  0  0  0  0  0  0  0  0  0  0  # atno 10763 bound_to 10752
  154.8718  135.3746  154.4747 H   0  0  0  0  0  0  0  0  0  0  0  0  # atno 10764 bound_to 10752
  153.5233  135.7086  153.5782 H   0  0  0  0  0  0  0  0  0  0  0  0  # atno 10765 bound_to 10752
  139.9313  134.7574  156.1355 H   0  0  0  0  0  0  0  0  0  0  0  0  # atno 11005 bound_to 11000
  144.6943  140.3350  143.7209 LP  0  0  0  0  0  0  0  0  0  0  0  0  # atno 17320 bound_to 7965
  145.7385  139.1757  143.2390 LP  0  0  0  0  0  0  0  0  0  0  0  0  # atno 17321 bound_to 7965
  140.5101  144.1038  150.5993 LP  0  0  0  0  0  0  0  0  0  0  0  0  # atno 17342 bound_to 10162
  140.3961  143.2727  152.0003 LP  0  0  0  0  0  0  0  0  0  0  0  0  # atno 17343 bound_to 10162
  155.9663  130.4382  150.5209 LP  0  0  0  0  0  0  0  0  0  0  0  0  # atno 17370 bound_to 10713
  157.3124  131.0666  151.1991 LP  0  0  0  0  0  0  0  0  0  0  0  0  # atno 17371 bound_to 10713
  141.0902  133.6717  156.2525 LP  0  0  0  0  0  0  0  0  0  0  0  0  # atno 17394 bound_to 11000
  140.6195  134.5376  157.5545 LP  0  0  0  0  0  0  0  0  0  0  0  0  # atno 17395 bound_to 11000

$$$$
