AV-unprocessed.smi:1560|AV-procd|sdf|6276|dock1
  -GOLD-   22720 6473D 1   1.00000     0.00000
 Structure written by MMmdl.
 47 48  0  0  0  0  0  0  0  0  1 V2000
  149.0239  141.0494  154.1320 C   0  0  0  0  0  0  0  0  0  0  0  0
  149.0855  140.8041  155.6504 C   0  0  0  0  0  0  0  0  0  0  0  0
  149.1030  139.3052  156.0917 C   0  0  2  0  0  0  0  0  0  0  0  0
  148.1106  138.5620  155.1550 C   0  0  0  0  0  0  0  0  0  0  0  0
  148.5552  139.2220  157.5513 C   0  0  0  0  0  0  0  0  0  0  0  0
  148.8391  137.9363  158.1792 N   0  0  0  0  0  0  0  0  0  0  0  0
  148.0861  137.3209  159.1043 C   0  0  0  0  0  0  0  0  0  0  0  0
  147.0559  137.8126  159.5634 O   0  0  0  0  0  0  0  0  0  0  0  0
  148.5459  135.9375  159.5976 C   0  0  0  0  0  0  0  0  0  0  0  0
  147.6371  135.3024  160.5677 N   0  0  0  0  0  0  0  0  0  0  0  0
  147.0914  134.0551  160.2987 C   0  0  0  0  0  0  0  0  0  0  0  0
  146.2249  133.4257  161.1270 C   0  0  0  0  0  0  0  0  0  0  0  0
  145.8125  134.0515  162.3786 C   0  0  0  0  0  0  0  0  0  0  0  0
  145.0312  133.5635  163.1919 O   0  0  0  0  0  0  0  0  0  0  0  0
  146.3837  135.3048  162.6146 N   0  0  0  0  0  0  0  0  0  0  0  0
  147.2781  135.9587  161.7660 C   0  0  0  0  0  0  0  0  0  0  0  0
  147.7142  137.0695  162.0648 O   0  0  0  0  0  0  0  0  0  0  0  0
  150.4712  138.7261  155.9715 N   0  0  0  0  0  0  0  0  0  0  0  0
  151.3988  139.0841  157.0510 C   0  0  0  0  0  0  0  0  0  0  0  0
  152.7374  138.3359  156.9318 C   0  0  0  0  0  0  0  0  0  0  0  0
  153.3239  138.5999  155.6631 O   0  0  0  0  0  0  0  0  0  0  0  0
  152.4796  138.2172  154.5839 C   0  0  0  0  0  0  0  0  0  0  0  0
  151.1382  138.9631  154.6851 C   0  0  0  0  0  0  0  0  0  0  0  0
  146.1266  135.7766  163.4697 H   0  0  0  0  0  0  0  0  0  0  0  0
  149.0192  142.1185  153.9193 H   0  0  0  0  0  0  0  0  0  0  0  0
  148.1215  140.6288  153.6900 H   0  0  0  0  0  0  0  0  0  0  0  0
  149.8826  140.6198  153.6162 H   0  0  0  0  0  0  0  0  0  0  0  0
  149.9509  141.3278  156.0562 H   0  0  0  0  0  0  0  0  0  0  0  0
  148.2303  141.3145  156.0946 H   0  0  0  0  0  0  0  0  0  0  0  0
  147.1716  139.1044  155.0357 H   0  0  0  0  0  0  0  0  0  0  0  0
  147.8484  137.5760  155.5391 H   0  0  0  0  0  0  0  0  0  0  0  0
  148.5270  138.4217  154.1571 H   0  0  0  0  0  0  0  0  0  0  0  0
  148.9994  139.9902  158.1838 H   0  0  0  0  0  0  0  0  0  0  0  0
  147.4783  139.3929  157.5620 H   0  0  0  0  0  0  0  0  0  0  0  0
  149.6685  137.4564  157.8607 H   0  0  0  0  0  0  0  0  0  0  0  0
  148.6681  135.2923  158.7264 H   0  0  0  0  0  0  0  0  0  0  0  0
  149.5473  136.0323  160.0214 H   0  0  0  0  0  0  0  0  0  0  0  0
  147.3638  133.5568  159.3789 H   0  0  0  0  0  0  0  0  0  0  0  0
  145.8323  132.4550  160.8607 H   0  0  0  0  0  0  0  0  0  0  0  0
  151.5960  140.1560  157.0419 H   0  0  0  0  0  0  0  0  0  0  0  0
  150.9732  138.8481  158.0249 H   0  0  0  0  0  0  0  0  0  0  0  0
  153.4235  138.6598  157.7147 H   0  0  0  0  0  0  0  0  0  0  0  0
  152.5915  137.2618  157.0573 H   0  0  0  0  0  0  0  0  0  0  0  0
  152.9757  138.4565  153.6434 H   0  0  0  0  0  0  0  0  0  0  0  0
  152.3234  137.1374  154.5980 H   0  0  0  0  0  0  0  0  0  0  0  0
  150.5133  138.6393  153.8548 H   0  0  0  0  0  0  0  0  0  0  0  0
  151.3228  140.0281  154.5452 H   0  0  0  0  0  0  0  0  0  0  0  0
  1  2  1  0  0  0  0
  1 25  1  0  0  0  0
  1 26  1  0  0  0  0
  1 27  1  0  0  0  0
  2  3  1  0  0  0  0
  2 28  1  0  0  0  0
  2 29  1  0  0  0  0
  3  4  1  0  0  0  0
  3  5  1  0  0  0  0
  3 18  1  0  0  0  0
  4 30  1  0  0  0  0
  4 31  1  0  0  0  0
  4 32  1  0  0  0  0
  5  6  1  0  0  0  0
  5 33  1  0  0  0  0
  5 34  1  0  0  0  0
  6  7  1  0  0  0  0
  6 35  1  0  0  0  0
  7  8  2  0  0  0  0
  7  9  1  0  0  0  0
  9 10  1  0  0  0  0
  9 36  1  0  0  0  0
  9 37  1  0  0  0  0
 10 16  1  0  0  0  0
 10 11  1  0  0  0  0
 11 12  2  0  0  0  0
 11 38  1  0  0  0  0
 12 13  1  0  0  0  0
 12 39  1  0  0  0  0
 13 14  2  0  0  0  0
 13 15  1  0  0  0  0
 15 24  1  0  0  0  0
 15 16  1  0  0  0  0
 16 17  2  0  0  0  0
 18 23  1  0  0  0  0
 18 19  1  0  0  0  0
 19 20  1  0  0  0  0
 19 40  1  0  0  0  0
 19 41  1  0  0  0  0
 20 21  1  0  0  0  0
 20 42  1  0  0  0  0
 20 43  1  0  0  0  0
 21 22  1  0  0  0  0
 22 23  1  0  0  0  0
 22 44  1  0  0  0  0
 22 45  1  0  0  0  0
 23 46  1  0  0  0  0
 23 47  1  0  0  0  0
M  END
> <s_m_source_file>
AV-unprocessed.smi

> <i_m_source_file_index>
1560

> <i_lp_mmshare_version>
43012

> <i_f3d_flags>
0

> <s_epik_input>
W0NIMl0xW0NIMl1PW0NIMl1bQ0gyXU4xW0NAQF0oW0NIM10pKFtDSDJdW0NIM10pW0NIMl1bTkhdQyg9TylbQ0gyXW4yW2NIXVtjSF1jKD1PKVtuSF1jMj1P

> <s_epik_cmdline>
J2VwaWtfcHl0aG9uJywgJy1waCcsICc3LjAnLCAnLXRuJywgJzgnLCAnLW1hJywgJzIwMCcsICctbWV0YWxfYmluZGluZycsICctaW1hZScsICc8aW5maWxlLm1hZT4nLCAnLW9tYWUnLCAnPG91dGZpbGUubWFlPic=

> <r_lp_tautomer_probability>
0.999537

> <r_epik_Ionization_Penalty>
0.321965

> <r_epik_Ionization_Penalty_Charging>
0.00329831

> <r_epik_Ionization_Penalty_Neutral>
0.318667

> <r_epik_State_Penalty>
0.288097

> <r_epik_Charging_Adjusted_Penalty>
0.291396

> <i_epik_Tot_Q>
0

> <i_epik_Tot_abs_Q>
0

> <r_epik_Metal_State_Penalty>
0.654595

> <b_epik_Metal_Only>
0

> <s_lp_Force_Field>
OPLS_2005

> <r_lp_Energy>
43.0709

> <b_lp_Chiralities_Consistent>
1

> <s_lp_Variant>
AV-unprocessed.smi:1560-2

> <Gold.Version>
5.8.1

> <Gold.Id.Protein>
6NUR|6NUR_protein|mol2

> <Gold.PLP.Fitness>
40.1373

> <Gold.PLP.PLP>
-33.7515

> <Gold.PLP.part.hbond>
-4.9846

> <Gold.PLP.part.metal>
0.0000

> <Gold.PLP.part.buried>
-2.5123

> <Gold.PLP.part.nonpolar>
-26.1473

> <Gold.PLP.part.repulsive>
0.3191

> <Gold.PLP.ligand.clash>
0.0000

> <Gold.PLP.ligand.torsion>
1.0236

> <Gold.PLP.Chemscore.Hbond>
2.7760

> <Gold.PLP.Chemscore.CHOScore>
0.0000

> <Gold.PLP.Chemscore.Metal>
0.0000

> <Gold.Chemscore.Hbonds>
donor molecule, donor type, donor heavy atom, donor atom, acceptor molecule, acceptor atom, score
      P1  H  6931  6943       L1    17  1.00
      P1  H  6934  6947       L1     8  0.78
      P1  H  7997  8008       L1    21  0.79

> <Gold.PLP.Chemscore.Internal.Correction>
0.1051

> <Gold.Rescore>
     Score         DG    S(hbond)    S(metal)    S(lipo)     H(rot)  DE(clash)    DE(int)     intcor
     12.36     -14.39       2.62        0.00      55.65       2.49       0.08       1.94       ----

> <Gold.Chemscore.Fitness>
12.3599

> <Gold.Chemscore.DG>
-14.3855

> <Gold.Chemscore.ZeroCoef>
-5.4800

> <Gold.Chemscore.Hbond>
2.6225

> <Gold.Chemscore.Metal>
0.0000

> <Gold.Chemscore.Lipo>
55.6499

> <Gold.Chemscore.Internal_Hbond>
0.0000

> <Gold.Chemscore.DEClash>
0.0816

> <Gold.Chemscore.DEInternal>
1.9440

> <Gold.Chemscore.Rot>
2.4862

> <Gold.Chemscore.Internal.Correction>
   9.000000E+99

> <Gold.Chemscore.Hbonds>
donor molecule, donor type, donor heavy atom, donor atom, acceptor molecule, acceptor atom, score
      P1  H  6931  6943       L1    17  0.97
      P1  H  6934  6947       L1     8  0.75
      P1  H  7997  8008       L1    21  0.13

> <Gold.Chemscore.Hbond.Weighted>
-8.7591

> <Gold.Chemscore.Metal.Weighted>
-0.0000

> <Gold.Chemscore.Lipo.Weighted>
-6.5110

> <Gold.Chemscore.Internal_Hbond.Weighted>
0.0000

> <Gold.Chemscore.DEClash.Weighted>
0.0816

> <Gold.Chemscore.DEInternal.Weighted>
1.9440

> <Gold.Chemscore.Rot.Weighted>
6.3646

> <Gold.Chemscore.Internal.Correction.Weighted>
   9.000000E+99

> <Gold.Protein.RotatedTorsions>
[ 6907 6896 6895 6894 ] final -150.32 input  -60.11 | X-H torsion
[ 7974 7965 7964 7962 ] final  -59.29 input  175.53 | X-H torsion
[ 8008 7997 7996 7995 ] final  -35.48 input   59.86 | X-H torsion
[ 10167 10162 10161 10158 ] final -125.16 input  -65.29 | X-H torsion
[ 10718 10713 10712 10709 ] final  -66.46 input   66.30 | X-H torsion
[ 10763 10752 10751 10750 ] final   96.15 input  -60.55 | X-H torsion
[ 11005 11000 10999 10996 ] final -176.35 input  -57.11 | X-H torsion

> <Gold.Protein.ActiveResidues>
 VAL166  LYS551  ARG553  GLY616  TRP617  ASP618  TYR619  PRO620  LYS621  CYS622 
 ASP623  PHE694  ASN695  SER759  ASP760  ASP761  ALA762  ILE779  LEU786  VAL792 
 PHE793  MET794  SER795  GLU796  ALA797  LYS798  CYS799  TRP800  GLU811  SER814 

> <Gold.Protein.RotatedAtoms>
  151.1969  133.4634  159.2595 H   0  0  0  0  0  0  0  0  0  0  0  0  # atno 6907 bound_to 6896
  151.1108  135.0025  159.8503 H   0  0  0  0  0  0  0  0  0  0  0  0  # atno 6908 bound_to 6896
  152.5450  134.1888  159.8718 H   0  0  0  0  0  0  0  0  0  0  0  0  # atno 6909 bound_to 6896
  145.8292  140.8490  143.0092 H   0  0  0  0  0  0  0  0  0  0  0  0  # atno 7974 bound_to 7965
  154.4094  140.1656  156.2218 H   0  0  0  0  0  0  0  0  0  0  0  0  # atno 8008 bound_to 7997
  155.9357  140.3411  155.6262 H   0  0  0  0  0  0  0  0  0  0  0  0  # atno 8009 bound_to 7997
  155.7052  140.0750  157.2385 H   0  0  0  0  0  0  0  0  0  0  0  0  # atno 8010 bound_to 7997
  139.9851  143.5701  152.2363 H   0  0  0  0  0  0  0  0  0  0  0  0  # atno 10167 bound_to 10162
  156.0611  130.4262  150.1711 H   0  0  0  0  0  0  0  0  0  0  0  0  # atno 10718 bound_to 10713
  153.2615  135.4229  155.0899 H   0  0  0  0  0  0  0  0  0  0  0  0  # atno 10763 bound_to 10752
  154.8422  135.3450  154.6371 H   0  0  0  0  0  0  0  0  0  0  0  0  # atno 10764 bound_to 10752
  153.6791  135.7040  153.5180 H   0  0  0  0  0  0  0  0  0  0  0  0  # atno 10765 bound_to 10752
  140.4531  134.6325  157.4810 H   0  0  0  0  0  0  0  0  0  0  0  0  # atno 11005 bound_to 11000
  144.6741  140.0648  143.7475 LP  0  0  0  0  0  0  0  0  0  0  0  0  # atno 17320 bound_to 7965
  145.9589  139.2786  143.1167 LP  0  0  0  0  0  0  0  0  0  0  0  0  # atno 17321 bound_to 7965
  139.6381  144.7652  151.2396 LP  0  0  0  0  0  0  0  0  0  0  0  0  # atno 17342 bound_to 10162
  140.7475  143.6364  150.8375 LP  0  0  0  0  0  0  0  0  0  0  0  0  # atno 17343 bound_to 10162
  156.9779  130.9855  151.3444 LP  0  0  0  0  0  0  0  0  0  0  0  0  # atno 17370 bound_to 10713
  157.5621  130.8252  149.8279 LP  0  0  0  0  0  0  0  0  0  0  0  0  # atno 17371 bound_to 10713
  139.9994  134.6860  155.9555 LP  0  0  0  0  0  0  0  0  0  0  0  0  # atno 17394 bound_to 11000
  141.1655  133.6537  156.4466 LP  0  0  0  0  0  0  0  0  0  0  0  0  # atno 17395 bound_to 11000

$$$$
