AV-unprocessed.smi:1797|AV-procd|sdf|7256|dock7
  -GOLD-   22720 8503D 1   1.00000     0.00000
 Structure written by MMmdl.
 30 31  0  0  0  0  0  0  0  0  1 V2000
  150.9488  141.5544  156.1291 C   0  0  0  0  0  0  0  0  0  0  0  0
  150.2981  140.4537  155.3632 C   0  0  0  0  0  0  0  0  0  0  0  0
  150.9663  139.6875  154.4935 N   0  0  0  0  0  0  0  0  0  0  0  0
  150.1525  138.7328  153.9007 N   0  0  0  0  0  0  0  0  0  0  0  0
  148.8883  138.8034  154.3422 C   0  0  0  0  0  0  0  0  0  0  0  0
  147.8274  137.9564  153.9071 N   0  0  0  0  0  0  0  0  0  0  0  0
  146.5671  137.7864  154.3613 C   0  0  0  0  0  0  0  0  0  0  0  0
  146.1527  138.4236  155.3280 O   0  0  0  0  0  0  0  0  0  0  0  0
  145.8114  136.8878  153.7087 N   0  0  0  0  0  0  0  0  0  0  0  0
  144.4312  136.5440  154.0340 C   0  0  1  0  0  0  0  0  0  0  0  0
  143.5045  136.9907  152.8966 C   0  0  0  0  0  0  0  0  0  0  0  0
  142.0377  136.6634  153.2186 C   0  0  0  0  0  0  0  0  0  0  0  0
  141.8343  135.2398  153.7582 C   0  0  0  0  0  0  0  0  0  0  0  0
  140.7104  134.7431  153.7438 O   0  0  0  0  0  0  0  0  0  0  0  0
  142.8880  134.5789  154.2690 N   0  0  0  0  0  0  0  0  0  0  0  0
  144.2804  135.0266  154.2642 C   0  0  0  0  0  0  0  0  0  0  0  0
  148.5898  140.0663  155.5254 S   0  0  0  0  0  0  0  0  0  0  0  0
  151.9063  141.2206  156.5297 H   0  0  0  0  0  0  0  0  0  0  0  0
  150.3141  141.8658  156.9591 H   0  0  0  0  0  0  0  0  0  0  0  0
  151.1189  142.4116  155.4776 H   0  0  0  0  0  0  0  0  0  0  0  0
  148.0624  137.3763  153.1150 H   0  0  0  0  0  0  0  0  0  0  0  0
  146.2272  136.4062  152.9241 H   0  0  0  0  0  0  0  0  0  0  0  0
  144.1367  137.0757  154.9412 H   0  0  0  0  0  0  0  0  0  0  0  0
  143.6092  138.0628  152.7259 H   0  0  0  0  0  0  0  0  0  0  0  0
  143.7931  136.5005  151.9653 H   0  0  0  0  0  0  0  0  0  0  0  0
  141.6682  137.3574  153.9743 H   0  0  0  0  0  0  0  0  0  0  0  0
  141.4190  136.8093  152.3326 H   0  0  0  0  0  0  0  0  0  0  0  0
  142.7158  133.6581  154.6462 H   0  0  0  0  0  0  0  0  0  0  0  0
  144.7949  134.4766  153.4750 H   0  0  0  0  0  0  0  0  0  0  0  0
  144.7488  134.7354  155.2048 H   0  0  0  0  0  0  0  0  0  0  0  0
  1  2  1  0  0  0  0
  1 18  1  0  0  0  0
  1 19  1  0  0  0  0
  1 20  1  0  0  0  0
  2 17  1  0  0  0  0
  2  3  2  0  0  0  0
  3  4  1  0  0  0  0
  4  5  2  0  0  0  0
  5  6  1  0  0  0  0
  5 17  1  0  0  0  0
  6  7  1  0  0  0  0
  6 21  1  0  0  0  0
  7  8  2  0  0  0  0
  7  9  1  0  0  0  0
  9 10  1  0  0  0  0
  9 22  1  0  0  0  0
 10 16  1  0  0  0  0
 10 11  1  0  0  0  0
 10 23  1  0  0  0  0
 11 12  1  0  0  0  0
 11 24  1  0  0  0  0
 11 25  1  0  0  0  0
 12 13  1  0  0  0  0
 12 26  1  0  0  0  0
 12 27  1  0  0  0  0
 13 14  2  0  0  0  0
 13 15  1  0  0  0  0
 15 16  1  0  0  0  0
 15 28  1  0  0  0  0
 16 29  1  0  0  0  0
 16 30  1  0  0  0  0
M  END
> <s_m_source_file>
AV-unprocessed.smi

> <i_m_source_file_index>
1797

> <i_lp_mmshare_version>
43012

> <i_f3d_flags>
0

> <s_epik_input>
W0NIM11jMW5uYyhzMSlbTkhdQyg9TylbTkhdW0NAQEhdMltDSDJdW0NIMl1DKD1PKVtOSF1bQ0gyXTI=

> <s_epik_cmdline>
J2VwaWtfcHl0aG9uJywgJy1waCcsICc3LjAnLCAnLXRuJywgJzgnLCAnLW1hJywgJzIwMCcsICctbWV0YWxfYmluZGluZycsICctaW1hZScsICc8aW5maWxlLm1hZT4nLCAnLW9tYWUnLCAnPG91dGZpbGUubWFlPic=

> <r_lp_tautomer_probability>
1

> <r_epik_Ionization_Penalty>
0.00282347

> <r_epik_Ionization_Penalty_Charging>
0

> <r_epik_Ionization_Penalty_Neutral>
0.00282347

> <r_epik_State_Penalty>
-0

> <r_epik_Charging_Adjusted_Penalty>
0

> <i_epik_Tot_Q>
0

> <i_epik_Tot_abs_Q>
0

> <r_epik_Metal_State_Penalty>
0.357935

> <b_epik_Metal_Only>
0

> <s_lp_Force_Field>
OPLS_2005

> <r_lp_Energy>
10.7191

> <b_lp_Chiralities_Consistent>
1

> <s_lp_Variant>
AV-unprocessed.smi:1797-2

> <Gold.Version>
5.8.1

> <Gold.Id.Protein>
6NUR|6NUR_protein|mol2

> <Gold.PLP.Fitness>
34.1765

> <Gold.PLP.PLP>
-22.2811

> <Gold.PLP.part.hbond>
-5.0000

> <Gold.PLP.part.metal>
0.0000

> <Gold.PLP.part.buried>
-5.7359

> <Gold.PLP.part.nonpolar>
-12.4692

> <Gold.PLP.part.repulsive>
1.0117

> <Gold.PLP.ligand.clash>
0.0000

> <Gold.PLP.ligand.torsion>
0.0529

> <Gold.PLP.Chemscore.Hbond>
4.0000

> <Gold.PLP.Chemscore.CHOScore>
0.0000

> <Gold.PLP.Chemscore.Metal>
0.0000

> <Gold.Chemscore.Hbonds>
donor molecule, donor type, donor heavy atom, donor atom, acceptor molecule, acceptor atom, score
      L1  H     6    21       P1  7948  1.00
      L1  H    15    28       P1 10957  1.00
      P1  H  7989  7998       L1     3  1.00
      P1  H 11000 11005       L1    14  0.93

> <Gold.PLP.Chemscore.Internal.Correction>
0.0012

> <Gold.Rescore>
     Score         DG    S(hbond)    S(metal)    S(lipo)     H(rot)  DE(clash)    DE(int)     intcor
     15.90     -17.57       3.31        0.00      30.64       1.00       0.44       1.24       ----

> <Gold.Chemscore.Fitness>
15.8986

> <Gold.Chemscore.DG>
-17.5738

> <Gold.Chemscore.ZeroCoef>
-5.4800

> <Gold.Chemscore.Hbond>
3.3142

> <Gold.Chemscore.Metal>
0.0000

> <Gold.Chemscore.Lipo>
30.6360

> <Gold.Chemscore.Internal_Hbond>
0.0000

> <Gold.Chemscore.DEClash>
0.4370

> <Gold.Chemscore.DEInternal>
1.2382

> <Gold.Chemscore.Rot>
1.0000

> <Gold.Chemscore.Internal.Correction>
   9.000000E+99

> <Gold.Chemscore.Hbonds>
donor molecule, donor type, donor heavy atom, donor atom, acceptor molecule, acceptor atom, score
      L1  H     6    21       P1  7948  1.00
      L1  H    15    28       P1 10957  1.00
      P1  H  7989  7998       L1     3  0.28
      P1  H 10995 11001       L1    14  0.01
      P1  H 11000 11005       L1    14  0.44

> <Gold.Chemscore.Hbond.Weighted>
-11.0694

> <Gold.Chemscore.Metal.Weighted>
-0.0000

> <Gold.Chemscore.Lipo.Weighted>
-3.5844

> <Gold.Chemscore.Internal_Hbond.Weighted>
0.0000

> <Gold.Chemscore.DEClash.Weighted>
0.4370

> <Gold.Chemscore.DEInternal.Weighted>
1.2382

> <Gold.Chemscore.Rot.Weighted>
2.5600

> <Gold.Chemscore.Internal.Correction.Weighted>
   9.000000E+99

> <Gold.Protein.RotatedTorsions>
[ 6907 6896 6895 6894 ] final  131.64 input  -60.11 | X-H torsion
[ 7974 7965 7964 7962 ] final -132.09 input  175.53 | X-H torsion
[ 8008 7997 7996 7995 ] final  -81.92 input   59.86 | X-H torsion
[ 10167 10162 10161 10158 ] final  -24.98 input  -65.29 | X-H torsion
[ 10718 10713 10712 10709 ] final   93.12 input   66.30 | X-H torsion
[ 10763 10752 10751 10750 ] final   70.97 input  -60.55 | X-H torsion
[ 11005 11000 10999 10996 ] final   30.77 input  -57.11 | X-H torsion

> <Gold.Protein.ActiveResidues>
 VAL166  LYS551  ARG553  GLY616  TRP617  ASP618  TYR619  PRO620  LYS621  CYS622 
 ASP623  PHE694  ASN695  SER759  ASP760  ASP761  ALA762  ILE779  LEU786  VAL792 
 PHE793  MET794  SER795  GLU796  ALA797  LYS798  CYS799  TRP800  GLU811  SER814 

> <Gold.Protein.RotatedAtoms>
  152.3406  133.6062  159.5873 H   0  0  0  0  0  0  0  0  0  0  0  0  # atno 6907 bound_to 6896
  150.7476  133.9728  159.3560 H   0  0  0  0  0  0  0  0  0  0  0  0  # atno 6908 bound_to 6896
  151.7593  135.0815  160.0394 H   0  0  0  0  0  0  0  0  0  0  0  0  # atno 6909 bound_to 6896
  144.9318  140.7137  143.4901 H   0  0  0  0  0  0  0  0  0  0  0  0  # atno 7974 bound_to 7965
  154.6033  140.0641  156.9397 H   0  0  0  0  0  0  0  0  0  0  0  0  # atno 8008 bound_to 7997
  155.2096  140.3321  155.4312 H   0  0  0  0  0  0  0  0  0  0  0  0  # atno 8009 bound_to 7997
  156.2332  140.1850  156.7173 H   0  0  0  0  0  0  0  0  0  0  0  0  # atno 8010 bound_to 7997
  140.7287  143.4305  151.0809 H   0  0  0  0  0  0  0  0  0  0  0  0  # atno 10167 bound_to 10162
  157.6956  131.0467  150.3985 H   0  0  0  0  0  0  0  0  0  0  0  0  # atno 10718 bound_to 10713
  153.0372  135.5154  154.7522 H   0  0  0  0  0  0  0  0  0  0  0  0  # atno 10763 bound_to 10752
  154.6489  135.2922  155.0014 H   0  0  0  0  0  0  0  0  0  0  0  0  # atno 10764 bound_to 10752
  154.0905  135.6651  153.4904 H   0  0  0  0  0  0  0  0  0  0  0  0  # atno 10765 bound_to 10752
  140.2909  134.2865  155.7776 H   0  0  0  0  0  0  0  0  0  0  0  0  # atno 11005 bound_to 11000
  145.3130  139.1812  143.4628 LP  0  0  0  0  0  0  0  0  0  0  0  0  # atno 17320 bound_to 7965
  146.3250  140.3137  142.8628 LP  0  0  0  0  0  0  0  0  0  0  0  0  # atno 17321 bound_to 7965
  139.7961  143.8149  152.3157 LP  0  0  0  0  0  0  0  0  0  0  0  0  # atno 17342 bound_to 10162
  139.8150  144.7320  150.9647 LP  0  0  0  0  0  0  0  0  0  0  0  0  # atno 17343 bound_to 10162
  156.4381  130.3986  149.6715 LP  0  0  0  0  0  0  0  0  0  0  0  0  # atno 17370 bound_to 10713
  156.3909  130.7626  151.2627 LP  0  0  0  0  0  0  0  0  0  0  0  0  # atno 17371 bound_to 10713
  141.2146  133.7585  156.9624 LP  0  0  0  0  0  0  0  0  0  0  0  0  # atno 17394 bound_to 11000
  140.1196  134.9425  157.2184 LP  0  0  0  0  0  0  0  0  0  0  0  0  # atno 17395 bound_to 11000

$$$$
