AV-unprocessed.smi:334|AV-procd|sdf|2363|dock6
  -GOLD-   2262022273D 1   1.00000     0.00000
 Structure written by MMmdl.
 44 46  0  0  0  0  0  0  0  0  3 V2000
  153.9595  141.3225  160.6709 C   0  0  0  0  0  0  0  0  0  0  0  0
  153.2485  141.5793  159.3318 C   0  0  1  0  0  0  0  0  0  0  0  0
  152.6324  140.3283  158.8918 N   0  0  0  0  0  0  0  0  0  0  0  0
  153.2819  139.1984  158.5714 C   0  0  0  0  0  0  0  0  0  0  0  0
  154.5028  139.0654  158.6619 O   0  0  0  0  0  0  0  0  0  0  0  0
  152.4084  138.0371  158.0795 C   0  0  0  0  0  0  0  0  0  0  0  0
  151.8614  138.2700  156.7326 N   0  0  0  0  0  0  0  0  0  0  0  0
  150.4601  138.2275  156.5910 C   0  0  0  0  0  0  0  0  0  0  0  0
  149.8547  138.4185  155.4026 C   0  0  0  0  0  0  0  0  0  0  0  0
  148.4149  138.3651  155.2742 N   0  3  0  0  0  0  0  0  0  0  0  0
  147.7422  138.1539  156.2782 O   0  0  0  0  0  0  0  0  0  0  0  0
  147.9087  138.5311  154.1683 O   0  5  0  0  0  0  0  0  0  0  0  0
  150.6970  138.6758  154.2504 C   0  0  0  0  0  0  0  0  0  0  0  0
  152.0377  138.7145  154.3784 C   0  0  0  0  0  0  0  0  0  0  0  0
  152.6948  138.5032  155.6722 C   0  0  0  0  0  0  0  0  0  0  0  0
  153.9196  138.5335  155.7954 O   0  0  0  0  0  0  0  0  0  0  0  0
  152.1669  142.6851  159.4223 C   0  0  2  0  0  0  0  0  0  0  0  0
  151.3921  142.9145  158.0986 C   0  0  0  0  0  0  0  0  0  0  0  0
  151.5337  144.4274  157.8603 C   0  0  1  0  0  0  0  0  0  0  0  0
  150.7195  145.1972  158.9159 C   0  0  0  0  0  0  0  0  0  0  0  0
  151.5536  144.9994  160.1950 C   0  0  0  0  0  0  0  0  0  0  0  0
  152.7127  144.1067  159.7116 C   0  0  2  0  0  0  0  0  0  0  0  0
  152.9647  144.6725  158.3174 C   0  0  0  0  0  0  0  0  0  0  0  0
  154.5127  142.1966  161.0116 H   0  0  0  0  0  0  0  0  0  0  0  0
  154.6782  140.5072  160.5797 H   0  0  0  0  0  0  0  0  0  0  0  0
  153.2495  141.0521  161.4533 H   0  0  0  0  0  0  0  0  0  0  0  0
  154.0046  141.8958  158.6117 H   0  0  0  0  0  0  0  0  0  0  0  0
  151.6278  140.3347  158.7906 H   0  0  0  0  0  0  0  0  0  0  0  0
  153.0102  137.1279  158.1038 H   0  0  0  0  0  0  0  0  0  0  0  0
  151.5939  137.8594  158.7848 H   0  0  0  0  0  0  0  0  0  0  0  0
  149.9225  138.0230  157.5055 H   0  0  0  0  0  0  0  0  0  0  0  0
  150.2591  138.8380  153.2765 H   0  0  0  0  0  0  0  0  0  0  0  0
  152.6461  138.9061  153.5067 H   0  0  0  0  0  0  0  0  0  0  0  0
  151.4630  142.3999  160.2060 H   0  0  0  0  0  0  0  0  0  0  0  0
  151.8443  142.3731  157.2666 H   0  0  0  0  0  0  0  0  0  0  0  0
  150.3506  142.5987  158.1670 H   0  0  0  0  0  0  0  0  0  0  0  0
  151.3190  144.7297  156.8350 H   0  0  0  0  0  0  0  0  0  0  0  0
  150.6532  146.2558  158.6612 H   0  0  0  0  0  0  0  0  0  0  0  0
  149.7043  144.8116  159.0159 H   0  0  0  0  0  0  0  0  0  0  0  0
  151.9303  145.9572  160.5561 H   0  0  0  0  0  0  0  0  0  0  0  0
  150.9803  144.5429  161.0027 H   0  0  0  0  0  0  0  0  0  0  0  0
  153.5742  144.1402  160.3771 H   0  0  0  0  0  0  0  0  0  0  0  0
  153.7054  144.1124  157.7444 H   0  0  0  0  0  0  0  0  0  0  0  0
  153.2415  145.7282  158.3220 H   0  0  0  0  0  0  0  0  0  0  0  0
  1  2  1  0  0  0  0
  1 24  1  0  0  0  0
  1 25  1  0  0  0  0
  1 26  1  0  0  0  0
  2  3  1  0  0  0  0
  2 17  1  0  0  0  0
  2 27  1  0  0  0  0
  3  4  1  0  0  0  0
  3 28  1  0  0  0  0
  4  5  2  0  0  0  0
  4  6  1  0  0  0  0
  6  7  1  0  0  0  0
  6 29  1  0  0  0  0
  6 30  1  0  0  0  0
  7 15  1  0  0  0  0
  7  8  1  0  0  0  0
  8  9  2  0  0  0  0
  8 31  1  0  0  0  0
  9 10  1  0  0  0  0
  9 13  1  0  0  0  0
 10 11  2  0  0  0  0
 10 12  1  0  0  0  0
 13 14  2  0  0  0  0
 13 32  1  0  0  0  0
 14 15  1  0  0  0  0
 14 33  1  0  0  0  0
 15 16  2  0  0  0  0
 17 22  1  0  0  0  0
 17 18  1  0  0  0  0
 17 34  1  0  0  0  0
 18 19  1  0  0  0  0
 18 35  1  0  0  0  0
 18 36  1  0  0  0  0
 19 23  1  0  0  0  0
 19 20  1  0  0  0  0
 19 37  1  0  0  0  0
 20 21  1  0  0  0  0
 20 38  1  0  0  0  0
 20 39  1  0  0  0  0
 21 22  1  0  0  0  0
 21 40  1  0  0  0  0
 21 41  1  0  0  0  0
 22 23  1  0  0  0  0
 22 42  1  0  0  0  0
 23 43  1  0  0  0  0
 23 44  1  0  0  0  0
M  CHG  1  10   1
M  CHG  1  12  -1
M  END
> <s_m_source_file>
AV-unprocessed.smi

> <i_m_source_file_index>
334

> <i_lp_mmshare_version>
43012

> <i_f3d_flags>
0

> <s_epik_input>
W0NIMl0xW0NIMl1bQ0BIXShbQ0gyXTIpW0NAQEhdKFtDSDJdW0NAQEhdMTIpW0NASF0oW0NIM10pW05IXUMoPU8pW0NIMl1uM1tjSF1jKFtOK10oPU8pW08tXSlbY0hdW2NIXWMzPU8=

> <s_epik_cmdline>
J2VwaWtfcHl0aG9uJywgJy1waCcsICc3LjAnLCAnLXRuJywgJzgnLCAnLW1hJywgJzIwMCcsICctbWV0YWxfYmluZGluZycsICctaW1hZScsICc8aW5maWxlLm1hZT4nLCAnLW9tYWUnLCAnPG91dGZpbGUubWFlPic=

> <r_lp_tautomer_probability>
1

> <r_epik_Ionization_Penalty>
2.17081e-08

> <r_epik_Ionization_Penalty_Charging>
8.1195e-11

> <r_epik_Ionization_Penalty_Neutral>
2.16269e-08

> <r_epik_State_Penalty>
-0

> <r_epik_Charging_Adjusted_Penalty>
8.1195e-11

> <i_epik_Tot_Q>
0

> <i_epik_Tot_abs_Q>
2

> <r_epik_Metal_State_Penalty>
-0

> <b_epik_Metal_Only>
0

> <s_lp_Force_Field>
OPLS_2005

> <r_lp_Energy>
62.172

> <b_lp_Chiralities_Consistent>
1

> <s_lp_Variant>
AV-unprocessed.smi:334-2

> <Gold.Version>
5.8.1

> <Gold.Id.Protein>
6NUR|6NUR_protein|mol2

> <Gold.PLP.Fitness>
49.3121

> <Gold.PLP.PLP>
-45.0475

> <Gold.PLP.part.hbond>
-2.0000

> <Gold.PLP.part.metal>
0.0000

> <Gold.PLP.part.buried>
-6.2610

> <Gold.PLP.part.nonpolar>
-37.2229

> <Gold.PLP.part.repulsive>
0.2442

> <Gold.PLP.ligand.clash>
0.0000

> <Gold.PLP.ligand.torsion>
0.1824

> <Gold.PLP.Chemscore.Hbond>
1.5360

> <Gold.PLP.Chemscore.CHOScore>
0.0000

> <Gold.PLP.Chemscore.Metal>
0.0000

> <Gold.Chemscore.Hbonds>
donor molecule, donor type, donor heavy atom, donor atom, acceptor molecule, acceptor atom, score
      P1  H  7997  8008       L1     5  1.00
      P1  H  7997  8009       L1    16  0.51

> <Gold.PLP.Chemscore.Internal.Correction>
0.0214

> <Gold.Rescore>
     Score         DG    S(hbond)    S(metal)    S(lipo)     H(rot)  DE(clash)    DE(int)     intcor
     20.45     -21.79       1.76        0.00     127.53       1.75       0.12       1.22       ----

> <Gold.Chemscore.Fitness>
20.4515

> <Gold.Chemscore.DG>
-21.7911

> <Gold.Chemscore.ZeroCoef>
-5.4800

> <Gold.Chemscore.Hbond>
1.7556

> <Gold.Chemscore.Metal>
0.0000

> <Gold.Chemscore.Lipo>
127.5289

> <Gold.Chemscore.Internal_Hbond>
0.0000

> <Gold.Chemscore.DEClash>
0.1242

> <Gold.Chemscore.DEInternal>
1.2154

> <Gold.Chemscore.Rot>
1.7474

> <Gold.Chemscore.Internal.Correction>
   9.000000E+99

> <Gold.Chemscore.Hbonds>
donor molecule, donor type, donor heavy atom, donor atom, acceptor molecule, acceptor atom, score
      P1  H  7997  8008       L1     5  0.70
      P1  H  7997  8009       L1    16  0.41

> <Gold.Chemscore.Hbond.Weighted>
-5.8636

> <Gold.Chemscore.Metal.Weighted>
-0.0000

> <Gold.Chemscore.Lipo.Weighted>
-14.9209

> <Gold.Chemscore.Internal_Hbond.Weighted>
0.0000

> <Gold.Chemscore.DEClash.Weighted>
0.1242

> <Gold.Chemscore.DEInternal.Weighted>
1.2154

> <Gold.Chemscore.Rot.Weighted>
4.4733

> <Gold.Chemscore.Internal.Correction.Weighted>
   9.000000E+99

> <Gold.Protein.RotatedTorsions>
[ 6907 6896 6895 6894 ] final -120.19 input  -60.11 | X-H torsion
[ 7974 7965 7964 7962 ] final   -4.72 input  175.53 | X-H torsion
[ 8008 7997 7996 7995 ] final -134.39 input   59.86 | X-H torsion
[ 10167 10162 10161 10158 ] final  172.04 input  -65.29 | X-H torsion
[ 10718 10713 10712 10709 ] final -160.28 input   66.30 | X-H torsion
[ 10763 10752 10751 10750 ] final   -3.85 input  -60.55 | X-H torsion
[ 11005 11000 10999 10996 ] final  -68.11 input  -57.11 | X-H torsion

> <Gold.Protein.ActiveResidues>
 VAL166  LYS551  ARG553  GLY616  TRP617  ASP618  TYR619  PRO620  LYS621  CYS622 
 ASP623  PHE694  ASN695  SER759  ASP760  ASP761  ALA762  ILE779  LEU786  VAL792 
 PHE793  MET794  SER795  GLU796  ALA797  LYS798  CYS799  TRP800  GLU811  SER814 

> <Gold.Protein.RotatedAtoms>
  150.8371  133.7996  159.3075 H   0  0  0  0  0  0  0  0  0  0  0  0  # atno 6907 bound_to 6896
  151.5709  135.1061  160.0004 H   0  0  0  0  0  0  0  0  0  0  0  0  # atno 6908 bound_to 6896
  152.4441  133.7461  159.6724 H   0  0  0  0  0  0  0  0  0  0  0  0  # atno 6909 bound_to 6896
  146.2367  140.1913  142.8332 H   0  0  0  0  0  0  0  0  0  0  0  0  # atno 7974 bound_to 7965
  155.3612  140.0483  157.3046 H   0  0  0  0  0  0  0  0  0  0  0  0  # atno 8008 bound_to 7997
  154.5177  140.2214  155.8998 H   0  0  0  0  0  0  0  0  0  0  0  0  # atno 8009 bound_to 7997
  156.1655  140.3107  155.8887 H   0  0  0  0  0  0  0  0  0  0  0  0  # atno 8010 bound_to 7997
  139.5064  144.3418  152.0010 H   0  0  0  0  0  0  0  0  0  0  0  0  # atno 10167 bound_to 10162
  156.5799  130.8725  151.2861 H   0  0  0  0  0  0  0  0  0  0  0  0  # atno 10718 bound_to 10713
  153.3769  135.6997  153.6595 H   0  0  0  0  0  0  0  0  0  0  0  0  # atno 10763 bound_to 10752
  153.5222  135.3609  155.2637 H   0  0  0  0  0  0  0  0  0  0  0  0  # atno 10764 bound_to 10752
  154.8688  135.4160  154.3059 H   0  0  0  0  0  0  0  0  0  0  0  0  # atno 10765 bound_to 10752
  141.1524  133.6733  156.6395 H   0  0  0  0  0  0  0  0  0  0  0  0  # atno 11005 bound_to 11000
  144.9855  140.8499  143.5371 LP  0  0  0  0  0  0  0  0  0  0  0  0  # atno 17320 bound_to 7965
  145.1912  139.2300  143.5241 LP  0  0  0  0  0  0  0  0  0  0  0  0  # atno 17321 bound_to 7965
  140.2856  144.3811  150.6105 LP  0  0  0  0  0  0  0  0  0  0  0  0  # atno 17342 bound_to 10162
  140.5985  143.2167  151.7117 LP  0  0  0  0  0  0  0  0  0  0  0  0  # atno 17343 bound_to 10162
  157.7329  130.9722  150.1951 LP  0  0  0  0  0  0  0  0  0  0  0  0  # atno 17370 bound_to 10713
  156.2641  130.3714  149.8100 LP  0  0  0  0  0  0  0  0  0  0  0  0  # atno 17371 bound_to 10713
  140.3404  134.7854  157.4393 LP  0  0  0  0  0  0  0  0  0  0  0  0  # atno 17394 bound_to 11000
  140.0943  134.5559  155.8414 LP  0  0  0  0  0  0  0  0  0  0  0  0  # atno 17395 bound_to 11000

$$$$
