AV-unprocessed.smi:2599|AV-procd|sdf|10180|dock1
  -GOLD-   2272014193D 1   1.00000     0.00000
 Structure written by MMmdl.
 40 41  0  0  0  0  0  0  0  0  1 V2000
  153.0435  139.3400  158.7646 C   0  0  0  0  0  0  0  0  0  0  0  0
  153.0478  139.5176  157.3523 O   0  0  0  0  0  0  0  0  0  0  0  0
  152.2895  138.6579  156.5848 C   0  0  0  0  0  0  0  0  0  0  0  0
  152.2277  138.8583  155.1952 C   0  0  0  0  0  0  0  0  0  0  0  0
  151.4423  137.9696  154.4422 C   0  0  0  0  0  0  0  0  0  0  0  0
  150.7725  136.9241  155.1239 C   0  0  0  0  0  0  0  0  0  0  0  0
  149.9336  136.0157  154.4256 N   0  0  0  0  0  0  0  0  0  0  0  0
  149.3869  134.8712  154.8706 C   0  0  0  0  0  0  0  0  0  0  0  0
  149.5007  134.4286  156.0138 O   0  0  0  0  0  0  0  0  0  0  0  0
  148.6796  134.2668  153.9040 N   0  0  0  0  0  0  0  0  0  0  0  0
  147.9690  132.9934  154.0258 C   0  0  1  0  0  0  0  0  0  0  0  0
  146.9973  133.0968  155.2141 C   0  0  0  0  0  0  0  0  0  0  0  0
  147.2711  132.6372  152.6864 C   0  0  0  0  0  0  0  0  0  0  0  0
  146.4067  133.7925  152.1417 C   0  0  0  0  0  0  0  0  0  0  0  0
  145.6634  133.3804  150.8606 C   0  0  0  0  0  0  0  0  0  0  0  0
  144.8646  132.2303  151.1080 O   0  0  0  0  0  0  0  0  0  0  0  0
  145.6376  131.0983  151.4862 C   0  0  0  0  0  0  0  0  0  0  0  0
  146.3771  131.3833  152.8027 C   0  0  0  0  0  0  0  0  0  0  0  0
  150.8696  136.8061  156.4698 N   0  0  0  0  0  0  0  0  0  0  0  0
  151.6170  137.6476  157.1911 N   0  0  0  0  0  0  0  0  0  0  0  0
  153.6743  140.0991  159.2267 H   0  0  0  0  0  0  0  0  0  0  0  0
  153.4420  138.3637  159.0444 H   0  0  0  0  0  0  0  0  0  0  0  0
  152.0396  139.4492  159.1775 H   0  0  0  0  0  0  0  0  0  0  0  0
  152.7585  139.6716  154.7234 H   0  0  0  0  0  0  0  0  0  0  0  0
  151.3558  138.1131  153.3760 H   0  0  0  0  0  0  0  0  0  0  0  0
  149.6596  136.3086  153.4993 H   0  0  0  0  0  0  0  0  0  0  0  0
  148.6412  134.7157  153.0008 H   0  0  0  0  0  0  0  0  0  0  0  0
  148.6789  132.1959  154.2523 H   0  0  0  0  0  0  0  0  0  0  0  0
  146.5330  132.1378  155.4415 H   0  0  0  0  0  0  0  0  0  0  0  0
  146.2025  133.8171  155.0180 H   0  0  0  0  0  0  0  0  0  0  0  0
  147.5184  133.4157  156.1174 H   0  0  0  0  0  0  0  0  0  0  0  0
  148.0455  132.4238  151.9475 H   0  0  0  0  0  0  0  0  0  0  0  0
  145.6821  134.1002  152.8969 H   0  0  0  0  0  0  0  0  0  0  0  0
  147.0209  134.6655  151.9234 H   0  0  0  0  0  0  0  0  0  0  0  0
  145.0156  134.1913  150.5272 H   0  0  0  0  0  0  0  0  0  0  0  0
  146.3659  133.1816  150.0497 H   0  0  0  0  0  0  0  0  0  0  0  0
  144.9718  130.2440  151.6090 H   0  0  0  0  0  0  0  0  0  0  0  0
  146.3401  130.8412  150.6919 H   0  0  0  0  0  0  0  0  0  0  0  0
  146.9676  130.5073  153.0715 H   0  0  0  0  0  0  0  0  0  0  0  0
  145.6491  131.5238  153.6028 H   0  0  0  0  0  0  0  0  0  0  0  0
  1  2  1  0  0  0  0
  1 21  1  0  0  0  0
  1 22  1  0  0  0  0
  1 23  1  0  0  0  0
  2  3  1  0  0  0  0
  3 20  1  0  0  0  0
  3  4  2  0  0  0  0
  4  5  1  0  0  0  0
  4 24  1  0  0  0  0
  5  6  2  0  0  0  0
  5 25  1  0  0  0  0
  6  7  1  0  0  0  0
  6 19  1  0  0  0  0
  7  8  1  0  0  0  0
  7 26  1  0  0  0  0
  8  9  2  0  0  0  0
  8 10  1  0  0  0  0
 10 11  1  0  0  0  0
 10 27  1  0  0  0  0
 11 12  1  0  0  0  0
 11 13  1  0  0  0  0
 11 28  1  0  0  0  0
 12 29  1  0  0  0  0
 12 30  1  0  0  0  0
 12 31  1  0  0  0  0
 13 18  1  0  0  0  0
 13 14  1  0  0  0  0
 13 32  1  0  0  0  0
 14 15  1  0  0  0  0
 14 33  1  0  0  0  0
 14 34  1  0  0  0  0
 15 16  1  0  0  0  0
 15 35  1  0  0  0  0
 15 36  1  0  0  0  0
 16 17  1  0  0  0  0
 17 18  1  0  0  0  0
 17 37  1  0  0  0  0
 17 38  1  0  0  0  0
 18 39  1  0  0  0  0
 18 40  1  0  0  0  0
 19 20  2  0  0  0  0
M  END
> <s_m_source_file>
AV-unprocessed.smi

> <i_m_source_file_index>
2599

> <i_lp_mmshare_version>
43012

> <i_f3d_flags>
0

> <s_epik_input>
W0NIM11PYzFbY0hdW2NIXWMobm4xKVtOSF1DKD1PKVtOSF1bQ0BIXShbQ0gzXSlbQ0hdMltDSDJdW0NIMl1PW0NIMl1bQ0gyXTI=

> <s_epik_cmdline>
J2VwaWtfcHl0aG9uJywgJy1waCcsICc3LjAnLCAnLXRuJywgJzgnLCAnLW1hJywgJzIwMCcsICctbWV0YWxfYmluZGluZycsICctaW1hZScsICc8aW5maWxlLm1hZT4nLCAnLW9tYWUnLCAnPG91dGZpbGUubWFlPic=

> <r_lp_tautomer_probability>
1

> <r_epik_Ionization_Penalty>
0.00150063

> <r_epik_Ionization_Penalty_Charging>
0

> <r_epik_Ionization_Penalty_Neutral>
0.00150063

> <r_epik_State_Penalty>
-0

> <r_epik_Charging_Adjusted_Penalty>
0

> <i_epik_Tot_Q>
0

> <i_epik_Tot_abs_Q>
0

> <r_epik_Metal_State_Penalty>
-0

> <b_epik_Metal_Only>
0

> <s_lp_Force_Field>
OPLS_2005

> <r_lp_Energy>
19.9533

> <b_lp_Chiralities_Consistent>
1

> <s_lp_Variant>
AV-unprocessed.smi:2599-2

> <Gold.Version>
5.8.1

> <Gold.Id.Protein>
6NUR|6NUR_protein|mol2

> <Gold.PLP.Fitness>
38.6955

> <Gold.PLP.PLP>
-30.3609

> <Gold.PLP.part.hbond>
-3.8585

> <Gold.PLP.part.metal>
0.0000

> <Gold.PLP.part.buried>
-2.8369

> <Gold.PLP.part.nonpolar>
-23.6798

> <Gold.PLP.part.repulsive>
0.1951

> <Gold.PLP.ligand.clash>
0.0000

> <Gold.PLP.ligand.torsion>
0.1244

> <Gold.PLP.Chemscore.Hbond>
2.8500

> <Gold.PLP.Chemscore.CHOScore>
0.0000

> <Gold.PLP.Chemscore.Metal>
0.0000

> <Gold.Chemscore.Hbonds>
donor molecule, donor type, donor heavy atom, donor atom, acceptor molecule, acceptor atom, score
      L1  H     7    26       P1  7948  1.00
      L1  H    10    27       P1  7948  1.00
      P1  H  7997  8010       L1     2  1.00

> <Gold.PLP.Chemscore.Internal.Correction>
0.0336

> <Gold.Rescore>
     Score         DG    S(hbond)    S(metal)    S(lipo)     H(rot)  DE(clash)    DE(int)     intcor
     15.21     -16.90       2.52        0.00      59.51       1.55       0.00       1.68       ----

> <Gold.Chemscore.Fitness>
15.2144

> <Gold.Chemscore.DG>
-16.9002

> <Gold.Chemscore.ZeroCoef>
-5.4800

> <Gold.Chemscore.Hbond>
2.5219

> <Gold.Chemscore.Metal>
0.0000

> <Gold.Chemscore.Lipo>
59.5127

> <Gold.Chemscore.Internal_Hbond>
0.0000

> <Gold.Chemscore.DEClash>
0.0048

> <Gold.Chemscore.DEInternal>
1.6810

> <Gold.Chemscore.Rot>
1.5492

> <Gold.Chemscore.Internal.Correction>
   9.000000E+99

> <Gold.Chemscore.Hbonds>
donor molecule, donor type, donor heavy atom, donor atom, acceptor molecule, acceptor atom, score
      L1  H     7    26       P1  7948  0.39
      L1  H    10    27       P1  7948  0.25
      P1  H  7997  8010       L1     2  0.88

> <Gold.Chemscore.Hbond.Weighted>
-8.4231

> <Gold.Chemscore.Metal.Weighted>
-0.0000

> <Gold.Chemscore.Lipo.Weighted>
-6.9630

> <Gold.Chemscore.Internal_Hbond.Weighted>
0.0000

> <Gold.Chemscore.DEClash.Weighted>
0.0048

> <Gold.Chemscore.DEInternal.Weighted>
1.6810

> <Gold.Chemscore.Rot.Weighted>
3.9659

> <Gold.Chemscore.Internal.Correction.Weighted>
   9.000000E+99

> <Gold.Protein.RotatedTorsions>
[ 6907 6896 6895 6894 ] final  113.84 input  -60.11 | X-H torsion
[ 7974 7965 7964 7962 ] final  -36.10 input  175.53 | X-H torsion
[ 8008 7997 7996 7995 ] final   57.06 input   59.86 | X-H torsion
[ 10167 10162 10161 10158 ] final  125.74 input  -65.29 | X-H torsion
[ 10718 10713 10712 10709 ] final  -38.27 input   66.30 | X-H torsion
[ 10763 10752 10751 10750 ] final  174.11 input  -60.55 | X-H torsion
[ 11005 11000 10999 10996 ] final -157.99 input  -57.11 | X-H torsion

> <Gold.Protein.ActiveResidues>
 VAL166  LYS551  ARG553  GLY616  TRP617  ASP618  TYR619  PRO620  LYS621  CYS622 
 ASP623  PHE694  ASN695  SER759  ASP760  ASP761  ALA762  ILE779  LEU786  VAL792 
 PHE793  MET794  SER795  GLU796  ALA797  LYS798  CYS799  TRP800  GLU811  SER814 

> <Gold.Protein.RotatedAtoms>
  152.4837  133.8319  159.7107 H   0  0  0  0  0  0  0  0  0  0  0  0  # atno 6907 bound_to 6896
  150.8907  133.7238  159.2912 H   0  0  0  0  0  0  0  0  0  0  0  0  # atno 6908 bound_to 6896
  151.4712  135.1049  159.9804 H   0  0  0  0  0  0  0  0  0  0  0  0  # atno 6909 bound_to 6896
  146.0690  140.6238  142.8961 H   0  0  0  0  0  0  0  0  0  0  0  0  # atno 7974 bound_to 7965
  155.5276  140.3481  155.4419 H   0  0  0  0  0  0  0  0  0  0  0  0  # atno 8008 bound_to 7997
  156.0741  140.1370  156.9820 H   0  0  0  0  0  0  0  0  0  0  0  0  # atno 8009 bound_to 7997
  154.4544  140.0959  156.6688 H   0  0  0  0  0  0  0  0  0  0  0  0  # atno 8010 bound_to 7997
  139.5669  144.6916  151.3886 H   0  0  0  0  0  0  0  0  0  0  0  0  # atno 10167 bound_to 10162
  156.3057  130.4246  149.8099 H   0  0  0  0  0  0  0  0  0  0  0  0  # atno 10718 bound_to 10713
  154.4494  135.2764  155.1792 H   0  0  0  0  0  0  0  0  0  0  0  0  # atno 10763 bound_to 10752
  154.3625  135.6126  153.5702 H   0  0  0  0  0  0  0  0  0  0  0  0  # atno 10764 bound_to 10752
  152.9846  135.5838  154.4835 H   0  0  0  0  0  0  0  0  0  0  0  0  # atno 10765 bound_to 10752
  140.6585  134.4374  157.5234 H   0  0  0  0  0  0  0  0  0  0  0  0  # atno 11005 bound_to 11000
  144.7220  140.4404  143.7001 LP  0  0  0  0  0  0  0  0  0  0  0  0  # atno 17320 bound_to 7965
  145.6425  139.1552  143.2907 LP  0  0  0  0  0  0  0  0  0  0  0  0  # atno 17321 bound_to 7965
  140.6953  143.7765  150.7316 LP  0  0  0  0  0  0  0  0  0  0  0  0  # atno 17342 bound_to 10162
  140.1259  143.4569  152.2284 LP  0  0  0  0  0  0  0  0  0  0  0  0  # atno 17343 bound_to 10162
  156.5461  130.8321  151.3284 LP  0  0  0  0  0  0  0  0  0  0  0  0  # atno 17370 bound_to 10713
  157.7379  130.9804  150.2220 LP  0  0  0  0  0  0  0  0  0  0  0  0  # atno 17371 bound_to 10713
  139.9021  134.8532  156.1853 LP  0  0  0  0  0  0  0  0  0  0  0  0  # atno 17394 bound_to 11000
  141.0483  133.6902  156.1724 LP  0  0  0  0  0  0  0  0  0  0  0  0  # atno 17395 bound_to 11000

$$$$
