AV-unprocessed.smi:162|AV-procd|sdf|1379|dock4
  -GOLD-   2262019103D 1   1.00000     0.00000
 Structure written by MMmdl.
 54 57  0  0  0  0  0  0  0  0  1 V2000
  151.6707  145.1607  160.4795 C   0  0  0  0  0  0  0  0  0  0  0  0
  152.1595  143.9806  159.8672 O   0  0  0  0  0  0  0  0  0  0  0  0
  152.7237  143.0767  160.8021 C   0  0  0  0  0  0  0  0  0  0  0  0
  153.3317  141.8856  160.0419 C   0  0  1  0  0  0  0  0  0  0  0  0
  154.3708  141.1071  160.8469 C   0  0  0  0  0  0  0  0  0  0  0  0
  154.4066  139.7327  160.1692 C   0  0  2  0  0  0  0  0  0  0  0  0
  155.5327  139.6664  159.3047 O   0  0  0  0  0  0  0  0  0  0  0  0
  156.7603  139.9690  159.9481 C   0  0  0  0  0  0  0  0  0  0  0  0
  153.0930  139.6634  159.3658 C   0  0  0  0  0  0  0  0  0  0  0  0
  152.3481  140.8727  159.6863 N   0  0  0  0  0  0  0  0  0  0  0  0
  151.4254  141.2258  158.7648 C   0  0  0  0  0  0  0  0  0  0  0  0
  150.5495  142.1968  159.1206 N   0  0  0  0  0  0  0  0  0  0  0  0
  149.6156  142.6044  158.2559 C   0  0  0  0  0  0  0  0  0  0  0  0
  149.3892  142.1817  157.0103 N   0  0  0  0  0  0  0  0  0  0  0  0
  150.2680  141.2020  156.6513 C   0  0  0  0  0  0  0  0  0  0  0  0
  151.3086  140.6656  157.4605 C   0  0  0  0  0  0  0  0  0  0  0  0
  151.9934  139.6807  156.7584 N   0  0  0  0  0  0  0  0  0  0  0  0
  151.3969  139.6429  155.5983 C   0  0  0  0  0  0  0  0  0  0  0  0
  150.3543  140.5287  155.4454 N   0  0  0  0  0  0  0  0  0  0  0  0
  149.5256  140.7039  154.2627 C   0  0  0  0  0  0  0  0  0  0  0  0
  148.7344  139.4348  153.8602 C   0  0  0  0  0  0  0  0  0  0  0  0
  149.6487  138.5311  153.2628 O   0  0  0  0  0  0  0  0  0  0  0  0
  148.1280  138.7596  155.1067 C   0  0  0  0  0  0  0  0  0  0  0  0
  147.1970  137.5905  154.7384 C   0  0  0  0  0  0  0  0  0  0  0  0
  146.1819  138.0384  153.8484 O   0  0  0  0  0  0  0  0  0  0  0  0
  146.7027  138.5084  152.6109 C   0  0  0  0  0  0  0  0  0  0  0  0
  147.6072  139.7312  152.8463 C   0  0  0  0  0  0  0  0  0  0  0  0
  153.8083  142.2531  159.1328 H   0  0  0  0  0  0  0  0  0  0  0  0
  154.4591  138.9509  160.9291 H   0  0  0  0  0  0  0  0  0  0  0  0
  151.2407  145.8145  159.7211 H   0  0  0  0  0  0  0  0  0  0  0  0
  152.4726  145.7064  160.9785 H   0  0  0  0  0  0  0  0  0  0  0  0
  150.8928  144.9346  161.2099 H   0  0  0  0  0  0  0  0  0  0  0  0
  153.4875  143.5754  161.4013 H   0  0  0  0  0  0  0  0  0  0  0  0
  151.9445  142.7338  161.4847 H   0  0  0  0  0  0  0  0  0  0  0  0
  155.3431  141.6003  160.8736 H   0  0  0  0  0  0  0  0  0  0  0  0
  154.0306  140.9920  161.8771 H   0  0  0  0  0  0  0  0  0  0  0  0
  157.5744  139.9050  159.2263 H   0  0  0  0  0  0  0  0  0  0  0  0
  156.9757  139.2703  160.7570 H   0  0  0  0  0  0  0  0  0  0  0  0
  156.7522  140.9812  160.3541 H   0  0  0  0  0  0  0  0  0  0  0  0
  153.2913  139.5956  158.2953 H   0  0  0  0  0  0  0  0  0  0  0  0
  152.5112  138.7858  159.6492 H   0  0  0  0  0  0  0  0  0  0  0  0
  148.9568  143.3826  158.6122 H   0  0  0  0  0  0  0  0  0  0  0  0
  151.7069  138.9680  154.8138 H   0  0  0  0  0  0  0  0  0  0  0  0
  148.8435  141.5360  154.4436 H   0  0  0  0  0  0  0  0  0  0  0  0
  150.1717  141.0168  153.4412 H   0  0  0  0  0  0  0  0  0  0  0  0
  149.9546  138.9062  152.4511 H   0  0  0  0  0  0  0  0  0  0  0  0
  148.9162  138.4142  155.7771 H   0  0  0  0  0  0  0  0  0  0  0  0
  147.5502  139.4941  155.6694 H   0  0  0  0  0  0  0  0  0  0  0  0
  147.7553  136.7681  154.2888 H   0  0  0  0  0  0  0  0  0  0  0  0
  146.7241  137.1949  155.6374 H   0  0  0  0  0  0  0  0  0  0  0  0
  147.2459  137.7088  152.1049 H   0  0  0  0  0  0  0  0  0  0  0  0
  145.8704  138.7820  151.9622 H   0  0  0  0  0  0  0  0  0  0  0  0
  146.9915  140.5488  153.2236 H   0  0  0  0  0  0  0  0  0  0  0  0
  148.0176  140.0704  151.8944 H   0  0  0  0  0  0  0  0  0  0  0  0
  1  2  1  0  0  0  0
  1 30  1  0  0  0  0
  1 31  1  0  0  0  0
  1 32  1  0  0  0  0
  2  3  1  0  0  0  0
  3  4  1  0  0  0  0
  3 33  1  0  0  0  0
  3 34  1  0  0  0  0
  4 28  1  0  0  0  0
  4 10  1  0  0  0  0
  4  5  1  0  0  0  0
  5  6  1  0  0  0  0
  5 35  1  0  0  0  0
  5 36  1  0  0  0  0
  6 29  1  0  0  0  0
  6  7  1  0  0  0  0
  6  9  1  0  0  0  0
  7  8  1  0  0  0  0
  8 37  1  0  0  0  0
  8 38  1  0  0  0  0
  8 39  1  0  0  0  0
  9 10  1  0  0  0  0
  9 40  1  0  0  0  0
  9 41  1  0  0  0  0
 10 11  1  0  0  0  0
 11 16  1  0  0  0  0
 11 12  2  0  0  0  0
 12 13  1  0  0  0  0
 13 14  2  0  0  0  0
 13 42  1  0  0  0  0
 14 15  1  0  0  0  0
 15 19  1  0  0  0  0
 15 16  2  0  0  0  0
 16 17  1  0  0  0  0
 17 18  2  0  0  0  0
 18 19  1  0  0  0  0
 18 43  1  0  0  0  0
 19 20  1  0  0  0  0
 20 21  1  0  0  0  0
 20 44  1  0  0  0  0
 20 45  1  0  0  0  0
 21 27  1  0  0  0  0
 21 22  1  0  0  0  0
 21 23  1  0  0  0  0
 22 46  1  0  0  0  0
 23 24  1  0  0  0  0
 23 47  1  0  0  0  0
 23 48  1  0  0  0  0
 24 25  1  0  0  0  0
 24 49  1  0  0  0  0
 24 50  1  0  0  0  0
 25 26  1  0  0  0  0
 26 27  1  0  0  0  0
 26 51  1  0  0  0  0
 26 52  1  0  0  0  0
 27 53  1  0  0  0  0
 27 54  1  0  0  0  0
M  END
> <s_m_source_file>
AV-unprocessed.smi

> <i_m_source_file_index>
162

> <i_lp_mmshare_version>
43012

> <i_f3d_flags>
0

> <s_epik_input>
W0NIM11PW0NIMl1bQ0BASF0xW0NIMl1bQ0BASF0oT1tDSDNdKVtDSDJdTjFjKG5bY0hdbjIpYyhjMjMpbltjSF1uM1tDSDJdQzQoW09IXSlbQ0gyXVtDSDJdT1tDSDJdW0NIMl00

> <s_epik_cmdline>
J2VwaWtfcHl0aG9uJywgJy1waCcsICc3LjAnLCAnLXRuJywgJzgnLCAnLW1hJywgJzIwMCcsICctbWV0YWxfYmluZGluZycsICctaW1hZScsICc8aW5maWxlLm1hZT4nLCAnLW9tYWUnLCAnPG91dGZpbGUubWFlPic=

> <r_lp_tautomer_probability>
1

> <r_epik_Ionization_Penalty>
0.00660334

> <r_epik_Ionization_Penalty_Charging>
0

> <r_epik_Ionization_Penalty_Neutral>
0.00660334

> <r_epik_State_Penalty>
0.00469459

> <r_epik_Charging_Adjusted_Penalty>
0.00469459

> <i_epik_Tot_Q>
0

> <i_epik_Tot_abs_Q>
0

> <r_epik_Metal_State_Penalty>
-0

> <b_epik_Metal_Only>
0

> <s_lp_Force_Field>
OPLS_2005

> <r_lp_Energy>
43.1058

> <b_lp_Chiralities_Consistent>
1

> <s_lp_Variant>
AV-unprocessed.smi:162-4

> <Gold.Version>
5.8.1

> <Gold.Id.Protein>
6NUR|6NUR_protein|mol2

> <Gold.PLP.Fitness>
51.0409

> <Gold.PLP.PLP>
-45.9828

> <Gold.PLP.part.hbond>
-3.8884

> <Gold.PLP.part.metal>
0.0000

> <Gold.PLP.part.buried>
-4.8403

> <Gold.PLP.part.nonpolar>
-37.3483

> <Gold.PLP.part.repulsive>
0.8929

> <Gold.PLP.ligand.clash>
0.0000

> <Gold.PLP.ligand.torsion>
0.5873

> <Gold.PLP.Chemscore.Hbond>
2.0000

> <Gold.PLP.Chemscore.CHOScore>
0.0000

> <Gold.PLP.Chemscore.Metal>
0.0000

> <Gold.Chemscore.Hbonds>
donor molecule, donor type, donor heavy atom, donor atom, acceptor molecule, acceptor atom, score
      L1  H    22    46       P1  7957  0.94
      P1  H  7997  8009       L1     7  1.00

> <Gold.PLP.Chemscore.Internal.Correction>
0.2327

> <Gold.Rescore>
     Score         DG    S(hbond)    S(metal)    S(lipo)     H(rot)  DE(clash)    DE(int)     intcor
     10.16     -16.22       1.98        0.00      97.98       2.86       0.91       5.15       ----

> <Gold.Chemscore.Fitness>
10.1624

> <Gold.Chemscore.DG>
-16.2185

> <Gold.Chemscore.ZeroCoef>
-5.4800

> <Gold.Chemscore.Hbond>
1.9782

> <Gold.Chemscore.Metal>
0.0000

> <Gold.Chemscore.Lipo>
97.9794

> <Gold.Chemscore.Internal_Hbond>
0.0000

> <Gold.Chemscore.DEClash>
0.9097

> <Gold.Chemscore.DEInternal>
5.1464

> <Gold.Chemscore.Rot>
2.8642

> <Gold.Chemscore.Internal.Correction>
   9.000000E+99

> <Gold.Chemscore.Hbonds>
donor molecule, donor type, donor heavy atom, donor atom, acceptor molecule, acceptor atom, score
      L1  H    22    46       P1  7957  0.41
      P1  H  7997  8009       L1     7  0.92

> <Gold.Chemscore.Hbond.Weighted>
-6.6073

> <Gold.Chemscore.Metal.Weighted>
-0.0000

> <Gold.Chemscore.Lipo.Weighted>
-11.4636

> <Gold.Chemscore.Internal_Hbond.Weighted>
0.0000

> <Gold.Chemscore.DEClash.Weighted>
0.9097

> <Gold.Chemscore.DEInternal.Weighted>
5.1464

> <Gold.Chemscore.Rot.Weighted>
7.3324

> <Gold.Chemscore.Internal.Correction.Weighted>
   9.000000E+99

> <Gold.Protein.RotatedTorsions>
[ 6907 6896 6895 6894 ] final -142.40 input  -60.11 | X-H torsion
[ 7974 7965 7964 7962 ] final  -39.70 input  175.53 | X-H torsion
[ 8008 7997 7996 7995 ] final  101.86 input   59.86 | X-H torsion
[ 10167 10162 10161 10158 ] final -158.80 input  -65.29 | X-H torsion
[ 10718 10713 10712 10709 ] final -110.33 input   66.30 | X-H torsion
[ 10763 10752 10751 10750 ] final    9.10 input  -60.55 | X-H torsion
[ 11005 11000 10999 10996 ] final   61.70 input  -57.11 | X-H torsion

> <Gold.Protein.ActiveResidues>
 VAL166  LYS551  ARG553  GLY616  TRP617  ASP618  TYR619  PRO620  LYS621  CYS622 
 ASP623  PHE694  ASN695  SER759  ASP760  ASP761  ALA762  ILE779  LEU786  VAL792 
 PHE793  MET794  SER795  GLU796  ALA797  LYS798  CYS799  TRP800  GLU811  SER814 

> <Gold.Protein.RotatedAtoms>
  151.0866  133.5348  159.2617 H   0  0  0  0  0  0  0  0  0  0  0  0  # atno 6907 bound_to 6896
  151.2231  135.0525  159.8967 H   0  0  0  0  0  0  0  0  0  0  0  0  # atno 6908 bound_to 6896
  152.5430  134.0666  159.8229 H   0  0  0  0  0  0  0  0  0  0  0  0  # atno 6909 bound_to 6896
  146.0373  140.6655  142.9104 H   0  0  0  0  0  0  0  0  0  0  0  0  # atno 7974 bound_to 7965
  156.1339  140.3190  155.8391 H   0  0  0  0  0  0  0  0  0  0  0  0  # atno 8008 bound_to 7997
  155.4281  140.0517  157.3038 H   0  0  0  0  0  0  0  0  0  0  0  0  # atno 8009 bound_to 7997
  154.4921  140.2096  155.9539 H   0  0  0  0  0  0  0  0  0  0  0  0  # atno 8010 bound_to 7997
  139.6664  143.9822  152.2257 H   0  0  0  0  0  0  0  0  0  0  0  0  # atno 10167 bound_to 10162
  156.0585  130.5810  150.8223 H   0  0  0  0  0  0  0  0  0  0  0  0  # atno 10718 bound_to 10713
  153.2177  135.6877  153.8038 H   0  0  0  0  0  0  0  0  0  0  0  0  # atno 10763 bound_to 10752
  153.7248  135.3262  155.3275 H   0  0  0  0  0  0  0  0  0  0  0  0  # atno 10764 bound_to 10752
  154.8254  135.4621  154.1011 H   0  0  0  0  0  0  0  0  0  0  0  0  # atno 10765 bound_to 10752
  140.0143  134.6249  155.9733 H   0  0  0  0  0  0  0  0  0  0  0  0  # atno 11005 bound_to 11000
  144.7057  140.3843  143.7120 LP  0  0  0  0  0  0  0  0  0  0  0  0  # atno 17320 bound_to 7965
  145.6943  139.1646  143.2629 LP  0  0  0  0  0  0  0  0  0  0  0  0  # atno 17321 bound_to 7965
  139.9574  144.6580  150.8112 LP  0  0  0  0  0  0  0  0  0  0  0  0  # atno 17342 bound_to 10162
  140.7601  143.3143  151.2770 LP  0  0  0  0  0  0  0  0  0  0  0  0  # atno 17343 bound_to 10162
  157.5575  131.0945  150.9607 LP  0  0  0  0  0  0  0  0  0  0  0  0  # atno 17370 bound_to 10713
  156.9853  130.5542  149.5299 LP  0  0  0  0  0  0  0  0  0  0  0  0  # atno 17371 bound_to 10713
  141.1732  133.6538  156.4730 LP  0  0  0  0  0  0  0  0  0  0  0  0  # atno 17394 bound_to 11000
  140.4499  134.6938  157.5034 LP  0  0  0  0  0  0  0  0  0  0  0  0  # atno 17395 bound_to 11000

$$$$
