AV-unprocessed.smi:1389|AV-procd|sdf|5648|dock4
  -GOLD-   22720 5263D 1   1.00000     0.00000
 Structure written by MMmdl.
 52 54  0  0  0  0  0  0  0  0  2 V2000
  146.4047  132.1135  155.4175 C   0  0  0  0  0  0  0  0  0  0  0  0
  146.0813  133.3653  154.5656 C   0  0  2  0  0  0  0  0  0  0  0  0
  145.5905  134.5190  155.4788 C   0  0  0  0  0  0  0  0  0  0  0  0
  146.3215  135.7644  155.2661 N   0  0  0  0  0  0  0  0  0  0  0  0
  147.6566  135.8796  155.2779 C   0  0  0  0  0  0  0  0  0  0  0  0
  148.4164  134.9301  155.4676 O   0  0  0  0  0  0  0  0  0  0  0  0
  148.0344  137.1479  155.0473 N   0  0  0  0  0  0  0  0  0  0  0  0
  149.3511  137.6656  154.8869 C   0  0  0  0  0  0  0  0  0  0  0  0
  150.4973  136.8390  154.9882 C   0  0  0  0  0  0  0  0  0  0  0  0
  151.7751  137.4154  154.8857 C   0  0  0  0  0  0  0  0  0  0  0  0
  151.8649  138.8047  154.7012 C   0  0  0  0  0  0  0  0  0  0  0  0
  150.7855  139.6074  154.6178 N   0  0  0  0  0  0  0  0  0  0  0  0
  149.5457  139.0647  154.7002 C   0  0  0  0  0  0  0  0  0  0  0  0
  148.4512  139.9531  154.5917 N   0  0  0  0  0  0  0  0  0  0  0  0
  148.6522  141.3931  154.7110 C   0  0  0  0  0  0  0  0  0  0  0  0
  147.3676  142.0153  154.1722 C   0  0  0  0  0  0  0  0  0  0  0  0
  146.9916  141.0597  153.0437 C   0  0  0  0  0  0  0  0  0  0  0  0
  147.4574  139.6917  153.5543 C   0  0  0  0  0  0  0  0  0  0  0  0
  145.0814  133.1088  153.4777 N   0  3  0  0  0  0  0  0  0  0  0  0
  144.5878  134.3653  152.8509 C   0  0  0  0  0  0  0  0  0  0  0  0
  143.4912  134.0721  151.8143 C   0  0  0  0  0  0  0  0  0  0  0  0
  144.0023  133.1947  150.8216 O   0  0  0  0  0  0  0  0  0  0  0  0
  144.3905  131.9476  151.3787 C   0  0  0  0  0  0  0  0  0  0  0  0
  145.5098  132.1597  152.4132 C   0  0  0  0  0  0  0  0  0  0  0  0
  147.1166  132.3383  156.2114 H   0  0  0  0  0  0  0  0  0  0  0  0
  146.8667  131.3233  154.8256 H   0  0  0  0  0  0  0  0  0  0  0  0
  145.5082  131.7094  155.8891 H   0  0  0  0  0  0  0  0  0  0  0  0
  147.0151  133.6668  154.0876 H   0  0  0  0  0  0  0  0  0  0  0  0
  144.5283  134.7221  155.3469 H   0  0  0  0  0  0  0  0  0  0  0  0
  145.7126  134.2362  156.5250 H   0  0  0  0  0  0  0  0  0  0  0  0
  145.7725  136.5951  155.0984 H   0  0  0  0  0  0  0  0  0  0  0  0
  147.2917  137.8004  154.8419 H   0  0  0  0  0  0  0  0  0  0  0  0
  150.4213  135.7776  155.1660 H   0  0  0  0  0  0  0  0  0  0  0  0
  152.6648  136.8078  154.9598 H   0  0  0  0  0  0  0  0  0  0  0  0
  152.8285  139.2863  154.6246 H   0  0  0  0  0  0  0  0  0  0  0  0
  148.8422  141.6842  155.7445 H   0  0  0  0  0  0  0  0  0  0  0  0
  149.4959  141.7188  154.1013 H   0  0  0  0  0  0  0  0  0  0  0  0
  146.5951  142.0051  154.9425 H   0  0  0  0  0  0  0  0  0  0  0  0
  147.5018  143.0441  153.8368 H   0  0  0  0  0  0  0  0  0  0  0  0
  145.9285  141.0821  152.8029 H   0  0  0  0  0  0  0  0  0  0  0  0
  147.5461  141.3234  152.1419 H   0  0  0  0  0  0  0  0  0  0  0  0
  147.8589  139.0801  152.7447 H   0  0  0  0  0  0  0  0  0  0  0  0
  146.6175  139.1572  153.9985 H   0  0  0  0  0  0  0  0  0  0  0  0
  144.1857  135.0479  153.5972 H   0  0  0  0  0  0  0  0  0  0  0  0
  145.4192  134.8825  152.3690 H   0  0  0  0  0  0  0  0  0  0  0  0
  142.6092  133.6380  152.2884 H   0  0  0  0  0  0  0  0  0  0  0  0
  143.1713  134.9973  151.3346 H   0  0  0  0  0  0  0  0  0  0  0  0
  143.5289  131.4550  151.8325 H   0  0  0  0  0  0  0  0  0  0  0  0
  144.7403  131.2974  150.5765 H   0  0  0  0  0  0  0  0  0  0  0  0
  146.4078  132.5386  151.9225 H   0  0  0  0  0  0  0  0  0  0  0  0
  145.7516  131.1848  152.8355 H   0  0  0  0  0  0  0  0  0  0  0  0
  144.2875  132.6731  153.9248 H   0  0  0  0  0  0  0  0  0  0  0  0
  1  2  1  0  0  0  0
  1 25  1  0  0  0  0
  1 26  1  0  0  0  0
  1 27  1  0  0  0  0
  2  3  1  0  0  0  0
  2 19  1  0  0  0  0
  2 28  1  0  0  0  0
  3  4  1  0  0  0  0
  3 29  1  0  0  0  0
  3 30  1  0  0  0  0
  4  5  1  0  0  0  0
  4 31  1  0  0  0  0
  5  6  2  0  0  0  0
  5  7  1  0  0  0  0
  7  8  1  0  0  0  0
  7 32  1  0  0  0  0
  8 13  1  0  0  0  0
  8  9  2  0  0  0  0
  9 10  1  0  0  0  0
  9 33  1  0  0  0  0
 10 11  2  0  0  0  0
 10 34  1  0  0  0  0
 11 12  1  0  0  0  0
 11 35  1  0  0  0  0
 12 13  2  0  0  0  0
 13 14  1  0  0  0  0
 14 18  1  0  0  0  0
 14 15  1  0  0  0  0
 15 16  1  0  0  0  0
 15 36  1  0  0  0  0
 15 37  1  0  0  0  0
 16 17  1  0  0  0  0
 16 38  1  0  0  0  0
 16 39  1  0  0  0  0
 17 18  1  0  0  0  0
 17 40  1  0  0  0  0
 17 41  1  0  0  0  0
 18 42  1  0  0  0  0
 18 43  1  0  0  0  0
 19 24  1  0  0  0  0
 19 20  1  0  0  0  0
 19 52  1  0  0  0  0
 20 21  1  0  0  0  0
 20 44  1  0  0  0  0
 20 45  1  0  0  0  0
 21 22  1  0  0  0  0
 21 46  1  0  0  0  0
 21 47  1  0  0  0  0
 22 23  1  0  0  0  0
 23 24  1  0  0  0  0
 23 48  1  0  0  0  0
 23 49  1  0  0  0  0
 24 50  1  0  0  0  0
 24 51  1  0  0  0  0
M  CHG  1  19   1
M  END
> <s_m_source_file>
AV-unprocessed.smi

> <i_m_source_file_index>
1389

> <i_lp_mmshare_version>
43012

> <i_f3d_flags>
0

> <s_epik_input>
W0NIMl0xW0NIMl1PW0NIMl1bQ0gyXU4xW0NASF0oW0NIM10pW0NIMl1bTkhdQyg9TylbTkhdYzJbY0hdW2NIXVtjSF1uYzJOM1tDSDJdW0NIMl1bQ0gyXVtDSDJdMw==

> <s_epik_cmdline>
J2VwaWtfcHl0aG9uJywgJy1waCcsICc3LjAnLCAnLXRuJywgJzgnLCAnLW1hJywgJzIwMCcsICctbWV0YWxfYmluZGluZycsICctaW1hZScsICc8aW5maWxlLm1hZT4nLCAnLW9tYWUnLCAnPG91dGZpbGUubWFlPic=

> <r_lp_tautomer_probability>
1

> <r_epik_Ionization_Penalty>
0.686

> <r_epik_Ionization_Penalty_Charging>
0.602531

> <r_epik_Ionization_Penalty_Neutral>
0.08347

> <r_epik_State_Penalty>
0.679975

> <r_epik_Charging_Adjusted_Penalty>
1.28251

> <i_epik_Tot_Q>
1

> <i_epik_Tot_abs_Q>
1

> <r_epik_Metal_State_Penalty>
0.679055

> <b_epik_Metal_Only>
0

> <s_lp_Force_Field>
OPLS_2005

> <r_lp_Energy>
48.7477

> <b_lp_Chiralities_Consistent>
1

> <s_lp_Variant>
AV-unprocessed.smi:1389-3

> <Gold.Version>
5.8.1

> <Gold.Id.Protein>
6NUR|6NUR_protein|mol2

> <Gold.PLP.Fitness>
38.3414

> <Gold.PLP.PLP>
-31.7603

> <Gold.PLP.part.hbond>
-1.9972

> <Gold.PLP.part.metal>
0.0000

> <Gold.PLP.part.buried>
-5.6601

> <Gold.PLP.part.nonpolar>
-25.7187

> <Gold.PLP.part.repulsive>
0.4291

> <Gold.PLP.ligand.clash>
0.0000

> <Gold.PLP.ligand.torsion>
1.0209

> <Gold.PLP.Chemscore.Hbond>
2.7500

> <Gold.PLP.Chemscore.CHOScore>
0.0000

> <Gold.PLP.Chemscore.Metal>
0.0000

> <Gold.Chemscore.Hbonds>
donor molecule, donor type, donor heavy atom, donor atom, acceptor molecule, acceptor atom, score
      L1  H    19    52       P1 10957  1.95
      P1  H  7989  7998       L1    12  0.70

> <Gold.PLP.Chemscore.Internal.Correction>
0.3730

> <Gold.Rescore>
     Score         DG    S(hbond)    S(metal)    S(lipo)     H(rot)  DE(clash)    DE(int)     intcor
     10.37     -16.73       1.77        0.00      81.33       1.63       2.04       4.33       ----

> <Gold.Chemscore.Fitness>
10.3660

> <Gold.Chemscore.DG>
-16.7298

> <Gold.Chemscore.ZeroCoef>
-5.4800

> <Gold.Chemscore.Hbond>
1.7690

> <Gold.Chemscore.Metal>
0.0000

> <Gold.Chemscore.Lipo>
81.3317

> <Gold.Chemscore.Internal_Hbond>
0.0000

> <Gold.Chemscore.DEClash>
2.0360

> <Gold.Chemscore.DEInternal>
4.3278

> <Gold.Chemscore.Rot>
1.6307

> <Gold.Chemscore.Internal.Correction>
   9.000000E+99

> <Gold.Chemscore.Hbonds>
donor molecule, donor type, donor heavy atom, donor atom, acceptor molecule, acceptor atom, score
      L1  H    19    52       P1 10957  0.69
      P1  H  7989  7998       L1    12  0.07

> <Gold.Chemscore.Hbond.Weighted>
-5.9085

> <Gold.Chemscore.Metal.Weighted>
-0.0000

> <Gold.Chemscore.Lipo.Weighted>
-9.5158

> <Gold.Chemscore.Internal_Hbond.Weighted>
0.0000

> <Gold.Chemscore.DEClash.Weighted>
2.0360

> <Gold.Chemscore.DEInternal.Weighted>
4.3278

> <Gold.Chemscore.Rot.Weighted>
4.1746

> <Gold.Chemscore.Internal.Correction.Weighted>
   9.000000E+99

> <Gold.Protein.RotatedTorsions>
[ 6907 6896 6895 6894 ] final  -99.46 input  -60.11 | X-H torsion
[ 7974 7965 7964 7962 ] final -160.83 input  175.53 | X-H torsion
[ 8008 7997 7996 7995 ] final -138.47 input   59.86 | X-H torsion
[ 10167 10162 10161 10158 ] final   53.50 input  -65.29 | X-H torsion
[ 10718 10713 10712 10709 ] final  101.14 input   66.30 | X-H torsion
[ 10763 10752 10751 10750 ] final  145.39 input  -60.55 | X-H torsion
[ 11005 11000 10999 10996 ] final -142.75 input  -57.11 | X-H torsion

> <Gold.Protein.ActiveResidues>
 VAL166  LYS551  ARG553  GLY616  TRP617  ASP618  TYR619  PRO620  LYS621  CYS622 
 ASP623  PHE694  ASN695  SER759  ASP760  ASP761  ALA762  ILE779  LEU786  VAL792 
 PHE793  MET794  SER795  GLU796  ALA797  LYS798  CYS799  TRP800  GLU811  SER814 

> <Gold.Protein.RotatedAtoms>
  150.7081  134.1038  159.3974 H   0  0  0  0  0  0  0  0  0  0  0  0  # atno 6907 bound_to 6896
  151.9024  135.0370  160.0517 H   0  0  0  0  0  0  0  0  0  0  0  0  # atno 6908 bound_to 6896
  152.2403  133.5095  159.5303 H   0  0  0  0  0  0  0  0  0  0  0  0  # atno 6909 bound_to 6896
  144.7412  140.3484  143.6120 H   0  0  0  0  0  0  0  0  0  0  0  0  # atno 7974 bound_to 7965
  155.4289  140.0523  157.3020 H   0  0  0  0  0  0  0  0  0  0  0  0  # atno 8008 bound_to 7997
  154.4869  140.2104  155.9594 H   0  0  0  0  0  0  0  0  0  0  0  0  # atno 8009 bound_to 7997
  156.1287  140.3175  155.8321 H   0  0  0  0  0  0  0  0  0  0  0  0  # atno 8010 bound_to 7997
  140.2401  144.3593  150.6383 H   0  0  0  0  0  0  0  0  0  0  0  0  # atno 10167 bound_to 10162
  157.6837  131.0718  150.5207 H   0  0  0  0  0  0  0  0  0  0  0  0  # atno 10718 bound_to 10713
  154.0046  135.2920  155.3399 H   0  0  0  0  0  0  0  0  0  0  0  0  # atno 10763 bound_to 10752
  154.7139  135.5138  153.8711 H   0  0  0  0  0  0  0  0  0  0  0  0  # atno 10764 bound_to 10752
  153.0750  135.6660  154.0284 H   0  0  0  0  0  0  0  0  0  0  0  0  # atno 10765 bound_to 10752
  140.8194  134.2649  157.4907 H   0  0  0  0  0  0  0  0  0  0  0  0  # atno 11005 bound_to 11000
  145.7301  139.1734  143.2435 LP  0  0  0  0  0  0  0  0  0  0  0  0  # atno 17320 bound_to 7965
  146.1212  140.7306  142.9456 LP  0  0  0  0  0  0  0  0  0  0  0  0  # atno 17321 bound_to 7965
  140.6120  143.2170  151.6867 LP  0  0  0  0  0  0  0  0  0  0  0  0  # atno 17342 bound_to 10162
  139.5080  144.3626  152.0547 LP  0  0  0  0  0  0  0  0  0  0  0  0  # atno 17343 bound_to 10162
  156.5521  130.4234  149.6103 LP  0  0  0  0  0  0  0  0  0  0  0  0  # atno 17370 bound_to 10713
  156.2894  130.7115  151.1960 LP  0  0  0  0  0  0  0  0  0  0  0  0  # atno 17371 bound_to 10713
  139.8709  134.9527  156.4123 LP  0  0  0  0  0  0  0  0  0  0  0  0  # atno 17394 bound_to 11000
  140.9114  133.7709  155.9797 LP  0  0  0  0  0  0  0  0  0  0  0  0  # atno 17395 bound_to 11000

$$$$
