AV-unprocessed.smi:1701|AV-procd|sdf|6831|dock8
  -GOLD-   22720 8 13D 1   1.00000     0.00000
 Structure written by MMmdl.
 54 56  0  0  0  0  0  0  0  0  2 V2000
  152.8867  141.1767  159.0771 C   0  0  0  0  0  0  0  0  0  0  0  0
  151.4591  140.9156  158.5715 C   0  0  0  0  0  0  0  0  0  0  0  0
  151.3098  141.1533  157.1362 N   0  0  0  0  0  0  0  0  0  0  0  0
  151.0163  142.5254  156.7155 C   0  0  0  0  0  0  0  0  0  0  0  0
  151.5760  143.5848  157.6785 C   0  0  0  0  0  0  0  0  0  0  0  0
  150.7133  140.0869  156.4273 C   0  0  0  0  0  0  0  0  0  0  0  0
  149.9842  139.0968  157.1243 C   0  0  0  0  0  0  0  0  0  0  0  0
  149.3837  138.0515  156.3984 C   0  0  0  0  0  0  0  0  0  0  0  0
  149.5168  138.0156  154.9965 C   0  0  0  0  0  0  0  0  0  0  0  0
  148.8952  136.9377  154.3074 N   0  0  0  0  0  0  0  0  0  0  0  0
  147.9151  136.1056  154.7127 C   0  0  0  0  0  0  0  0  0  0  0  0
  147.3619  136.1439  155.8081 O   0  0  0  0  0  0  0  0  0  0  0  0
  147.5626  135.1880  153.7948 N   0  0  0  0  0  0  0  0  0  0  0  0
  146.5436  134.1442  153.9087 C   0  0  2  0  0  0  0  0  0  0  0  0
  146.8090  133.1249  155.0348 C   0  0  0  0  0  0  0  0  0  0  0  0
  146.3940  131.7574  154.4552 C   0  0  0  0  0  0  0  0  0  0  0  0
  145.8181  132.0549  153.1300 N   0  3  2  0  0  0  0  0  0  0  0  0
  145.8255  130.9654  152.1295 C   0  0  0  0  0  0  0  0  0  0  0  0
  145.1188  131.4482  150.8464 C   0  0  0  0  0  0  0  0  0  0  0  0
  145.7170  132.7708  150.3241 C   0  0  0  0  0  0  0  0  0  0  0  0
  145.7681  133.8362  151.4361 C   0  0  0  0  0  0  0  0  0  0  0  0
  146.5052  133.2665  152.6587 C   0  0  1  0  0  0  0  0  0  0  0  0
  150.2667  139.0503  154.3863 C   0  0  0  0  0  0  0  0  0  0  0  0
  150.8447  140.0540  155.0792 N   0  0  0  0  0  0  0  0  0  0  0  0
  152.9563  140.9834  160.1477 H   0  0  0  0  0  0  0  0  0  0  0  0
  153.1857  142.2118  158.9093 H   0  0  0  0  0  0  0  0  0  0  0  0
  153.6111  140.5327  158.5780 H   0  0  0  0  0  0  0  0  0  0  0  0
  151.1880  139.8802  158.7793 H   0  0  0  0  0  0  0  0  0  0  0  0
  150.7521  141.5215  159.1373 H   0  0  0  0  0  0  0  0  0  0  0  0
  151.3979  142.6946  155.7079 H   0  0  0  0  0  0  0  0  0  0  0  0
  149.9348  142.6494  156.6521 H   0  0  0  0  0  0  0  0  0  0  0  0
  151.2929  144.5855  157.3524 H   0  0  0  0  0  0  0  0  0  0  0  0
  152.6640  143.5567  157.7350 H   0  0  0  0  0  0  0  0  0  0  0  0
  151.1851  143.4432  158.6863 H   0  0  0  0  0  0  0  0  0  0  0  0
  149.8905  139.1246  158.1999 H   0  0  0  0  0  0  0  0  0  0  0  0
  148.8269  137.2851  156.9175 H   0  0  0  0  0  0  0  0  0  0  0  0
  149.2534  136.7656  153.3797 H   0  0  0  0  0  0  0  0  0  0  0  0
  148.0490  135.2336  152.9108 H   0  0  0  0  0  0  0  0  0  0  0  0
  145.5569  134.5911  154.0486 H   0  0  0  0  0  0  0  0  0  0  0  0
  147.8636  133.1030  155.3139 H   0  0  0  0  0  0  0  0  0  0  0  0
  146.2390  133.3744  155.9304 H   0  0  0  0  0  0  0  0  0  0  0  0
  147.2706  131.1166  154.3468 H   0  0  0  0  0  0  0  0  0  0  0  0
  145.6706  131.2394  155.0853 H   0  0  0  0  0  0  0  0  0  0  0  0
  146.8521  130.6672  151.9114 H   0  0  0  0  0  0  0  0  0  0  0  0
  145.3146  130.0918  152.5355 H   0  0  0  0  0  0  0  0  0  0  0  0
  145.1799  130.6802  150.0748 H   0  0  0  0  0  0  0  0  0  0  0  0
  144.0572  131.5919  151.0526 H   0  0  0  0  0  0  0  0  0  0  0  0
  146.7253  132.5887  149.9501 H   0  0  0  0  0  0  0  0  0  0  0  0
  145.1353  133.1385  149.4783 H   0  0  0  0  0  0  0  0  0  0  0  0
  146.2717  134.7333  151.0743 H   0  0  0  0  0  0  0  0  0  0  0  0
  144.7553  134.1341  151.7115 H   0  0  0  0  0  0  0  0  0  0  0  0
  147.5260  132.9977  152.3756 H   0  0  0  0  0  0  0  0  0  0  0  0
  150.4307  139.1015  153.3227 H   0  0  0  0  0  0  0  0  0  0  0  0
  144.8545  132.3146  153.2861 H   0  0  0  0  0  0  0  0  0  0  0  0
  1  2  1  0  0  0  0
  1 25  1  0  0  0  0
  1 26  1  0  0  0  0
  1 27  1  0  0  0  0
  2  3  1  0  0  0  0
  2 28  1  0  0  0  0
  2 29  1  0  0  0  0
  3  4  1  0  0  0  0
  3  6  1  0  0  0  0
  4  5  1  0  0  0  0
  4 30  1  0  0  0  0
  4 31  1  0  0  0  0
  5 32  1  0  0  0  0
  5 33  1  0  0  0  0
  5 34  1  0  0  0  0
  6 24  1  0  0  0  0
  6  7  2  0  0  0  0
  7  8  1  0  0  0  0
  7 35  1  0  0  0  0
  8  9  2  0  0  0  0
  8 36  1  0  0  0  0
  9 10  1  0  0  0  0
  9 23  1  0  0  0  0
 10 11  1  0  0  0  0
 10 37  1  0  0  0  0
 11 12  2  0  0  0  0
 11 13  1  0  0  0  0
 13 14  1  0  0  0  0
 13 38  1  0  0  0  0
 14 22  1  0  0  0  0
 14 15  1  0  0  0  0
 14 39  1  0  0  0  0
 15 16  1  0  0  0  0
 15 40  1  0  0  0  0
 15 41  1  0  0  0  0
 16 17  1  0  0  0  0
 16 42  1  0  0  0  0
 16 43  1  0  0  0  0
 17 22  1  0  0  0  0
 17 18  1  0  0  0  0
 17 54  1  0  0  0  0
 18 19  1  0  0  0  0
 18 44  1  0  0  0  0
 18 45  1  0  0  0  0
 19 20  1  0  0  0  0
 19 46  1  0  0  0  0
 19 47  1  0  0  0  0
 20 21  1  0  0  0  0
 20 48  1  0  0  0  0
 20 49  1  0  0  0  0
 21 22  1  0  0  0  0
 21 50  1  0  0  0  0
 21 51  1  0  0  0  0
 22 52  1  0  0  0  0
 23 24  2  0  0  0  0
 23 53  1  0  0  0  0
M  CHG  1  17   1
M  END
> <s_m_source_file>
AV-unprocessed.smi

> <i_m_source_file_index>
1701

> <i_lp_mmshare_version>
43012

> <i_f3d_flags>
0

> <s_epik_input>
W0NIM11bQ0gyXU4oW0NIMl1bQ0gzXSljMVtjSF1bY0hdYyhbY0hdbjEpW05IXUMoPU8pW05IXVtDQEhdKFtDSDJdW0NIMl0yKVtDQEBIXShOMjMpW0NIMl1bQ0gyXVtDSDJdW0NIMl0z

> <s_epik_cmdline>
J2VwaWtfcHl0aG9uJywgJy1waCcsICc3LjAnLCAnLXRuJywgJzgnLCAnLW1hJywgJzIwMCcsICctbWV0YWxfYmluZGluZycsICctaW1hZScsICc8aW5maWxlLm1hZT4nLCAnLW9tYWUnLCAnPG91dGZpbGUubWFlPic=

> <r_lp_tautomer_probability>
1

> <r_epik_Ionization_Penalty>
0.56662

> <r_epik_Ionization_Penalty_Charging>
0.000974069

> <r_epik_Ionization_Penalty_Neutral>
0.565646

> <r_epik_State_Penalty>
2.0247

> <r_epik_Charging_Adjusted_Penalty>
2.02568

> <i_epik_Tot_Q>
1

> <i_epik_Tot_abs_Q>
1

> <r_epik_Metal_State_Penalty>
1.51504

> <b_epik_Metal_Only>
0

> <s_lp_Force_Field>
OPLS_2005

> <r_lp_Energy>
54.426

> <b_lp_Chiralities_Consistent>
1

> <s_lp_Variant>
AV-unprocessed.smi:1701-11

> <Gold.Version>
5.8.1

> <Gold.Id.Protein>
6NUR|6NUR_protein|mol2

> <Gold.PLP.Fitness>
44.1874

> <Gold.PLP.PLP>
-34.4916

> <Gold.PLP.part.hbond>
-3.0000

> <Gold.PLP.part.metal>
0.0000

> <Gold.PLP.part.buried>
-5.1469

> <Gold.PLP.part.nonpolar>
-26.8020

> <Gold.PLP.part.repulsive>
0.0824

> <Gold.PLP.ligand.clash>
0.0000

> <Gold.PLP.ligand.torsion>
1.0552

> <Gold.PLP.Chemscore.Hbond>
2.6600

> <Gold.PLP.Chemscore.CHOScore>
1.0000

> <Gold.PLP.Chemscore.Metal>
0.0000

> <Gold.Chemscore.Hbonds>
donor molecule, donor type, donor heavy atom, donor atom, acceptor molecule, acceptor atom, score
      L1  H    10    37       P1  7948  0.98
      L1  H    13    38       P1  7948  0.93
      P1  H  7989  7998       L1    24  0.70
      L1  C    23    53       P1  7957  1.00

> <Gold.PLP.Chemscore.Internal.Correction>
0.8263

> <Gold.Rescore>
     Score         DG    S(hbond)    S(metal)    S(lipo)     H(rot)  DE(clash)    DE(int)     intcor
     17.17     -19.59       1.96        0.00      92.79       1.28       0.05       2.37       ----

> <Gold.Chemscore.Fitness>
17.1726

> <Gold.Chemscore.DG>
-19.5912

> <Gold.Chemscore.ZeroCoef>
-5.4800

> <Gold.Chemscore.Hbond>
1.9585

> <Gold.Chemscore.Metal>
0.0000

> <Gold.Chemscore.Lipo>
92.7879

> <Gold.Chemscore.Internal_Hbond>
0.0000

> <Gold.Chemscore.DEClash>
0.0462

> <Gold.Chemscore.DEInternal>
2.3723

> <Gold.Chemscore.Rot>
1.2838

> <Gold.Chemscore.Internal.Correction>
   9.000000E+99

> <Gold.Chemscore.Hbonds>
donor molecule, donor type, donor heavy atom, donor atom, acceptor molecule, acceptor atom, score
      L1  H    10    37       P1  7948  0.89
      L1  H    13    38       P1  7948  0.90
      P1  H  7989  7998       L1    24  0.07

> <Gold.Chemscore.Hbond.Weighted>
-6.5415

> <Gold.Chemscore.Metal.Weighted>
-0.0000

> <Gold.Chemscore.Lipo.Weighted>
-10.8562

> <Gold.Chemscore.Internal_Hbond.Weighted>
0.0000

> <Gold.Chemscore.DEClash.Weighted>
0.0462

> <Gold.Chemscore.DEInternal.Weighted>
2.3723

> <Gold.Chemscore.Rot.Weighted>
3.2865

> <Gold.Chemscore.Internal.Correction.Weighted>
   9.000000E+99

> <Gold.Protein.RotatedTorsions>
[ 6907 6896 6895 6894 ] final -160.25 input  -60.11 | X-H torsion
[ 7974 7965 7964 7962 ] final   90.34 input  175.53 | X-H torsion
[ 8008 7997 7996 7995 ] final -178.63 input   59.86 | X-H torsion
[ 10167 10162 10161 10158 ] final  170.27 input  -65.29 | X-H torsion
[ 10718 10713 10712 10709 ] final  120.91 input   66.30 | X-H torsion
[ 10763 10752 10751 10750 ] final   57.91 input  -60.55 | X-H torsion
[ 11005 11000 10999 10996 ] final  -86.09 input  -57.11 | X-H torsion

> <Gold.Protein.ActiveResidues>
 VAL166  LYS551  ARG553  GLY616  TRP617  ASP618  TYR619  PRO620  LYS621  CYS622 
 ASP623  PHE694  ASN695  SER759  ASP760  ASP761  ALA762  ILE779  LEU786  VAL792 
 PHE793  MET794  SER795  GLU796  ALA797  LYS798  CYS799  TRP800  GLU811  SER814 

> <Gold.Protein.RotatedAtoms>
  151.3461  133.3943  159.2675 H   0  0  0  0  0  0  0  0  0  0  0  0  # atno 6907 bound_to 6896
  150.9838  134.9189  159.7870 H   0  0  0  0  0  0  0  0  0  0  0  0  # atno 6908 bound_to 6896
  152.5226  134.3426  159.9275 H   0  0  0  0  0  0  0  0  0  0  0  0  # atno 6909 bound_to 6896
  145.5203  139.2279  143.2675 H   0  0  0  0  0  0  0  0  0  0  0  0  # atno 7974 bound_to 7965
  156.0210  140.1261  157.0357 H   0  0  0  0  0  0  0  0  0  0  0  0  # atno 8008 bound_to 7997
  154.4311  140.1068  156.6034 H   0  0  0  0  0  0  0  0  0  0  0  0  # atno 8009 bound_to 7997
  155.5944  140.3470  155.4578 H   0  0  0  0  0  0  0  0  0  0  0  0  # atno 8010 bound_to 7997
  139.5014  144.3615  151.9820 H   0  0  0  0  0  0  0  0  0  0  0  0  # atno 10167 bound_to 10162
  157.5856  131.1070  150.8100 H   0  0  0  0  0  0  0  0  0  0  0  0  # atno 10718 bound_to 10713
  152.9859  135.5625  154.5468 H   0  0  0  0  0  0  0  0  0  0  0  0  # atno 10763 bound_to 10752
  154.4912  135.2793  155.1497 H   0  0  0  0  0  0  0  0  0  0  0  0  # atno 10764 bound_to 10752
  154.2965  135.6316  153.5460 H   0  0  0  0  0  0  0  0  0  0  0  0  # atno 10765 bound_to 10752
  141.1634  133.7435  156.9110 H   0  0  0  0  0  0  0  0  0  0  0  0  # atno 11005 bound_to 11000
  146.2110  140.6015  142.9059 LP  0  0  0  0  0  0  0  0  0  0  0  0  # atno 17320 bound_to 7965
  144.7679  140.5573  143.6690 LP  0  0  0  0  0  0  0  0  0  0  0  0  # atno 17321 bound_to 7965
  140.3051  144.3602  150.6049 LP  0  0  0  0  0  0  0  0  0  0  0  0  # atno 17342 bound_to 10162
  140.5843  143.2171  151.7371 LP  0  0  0  0  0  0  0  0  0  0  0  0  # atno 17343 bound_to 10162
  156.8535  130.5088  149.5310 LP  0  0  0  0  0  0  0  0  0  0  0  0  # atno 17370 bound_to 10713
  156.0905  130.5892  150.9725 LP  0  0  0  0  0  0  0  0  0  0  0  0  # atno 17371 bound_to 10713
  140.1517  134.9226  157.2601 LP  0  0  0  0  0  0  0  0  0  0  0  0  # atno 17394 bound_to 11000
  140.2715  134.3454  155.7372 LP  0  0  0  0  0  0  0  0  0  0  0  0  # atno 17395 bound_to 11000

$$$$
