AV-unprocessed.smi:2739|AV-procd|sdf|10552|dock9
  -GOLD-   2272015 03D 1   1.00000     0.00000
 Structure written by MMmdl.
 35 35  0  0  0  0  0  0  0  0  1 V2000
  151.4580  144.3433  158.1221 C   0  0  0  0  0  0  0  0  0  0  0  0
  152.4602  143.5753  158.9960 C   0  0  0  0  0  0  0  0  0  0  0  0
  152.0545  142.1151  159.2785 C   0  0  2  0  0  0  0  0  0  0  0  0
  153.0746  141.4098  160.1828 C   0  0  0  0  0  0  0  0  0  0  0  0
  151.9228  141.3628  158.0322 N   0  0  0  0  0  0  0  0  0  0  0  0
  150.9017  141.4441  157.1638 C   0  0  0  0  0  0  0  0  0  0  0  0
  149.9375  142.1948  157.3095 O   0  0  0  0  0  0  0  0  0  0  0  0
  150.9833  140.5379  155.9352 C   0  0  0  0  0  0  0  0  0  0  0  0
  149.7605  140.6047  155.1559 N   0  0  0  0  0  0  0  0  0  0  0  0
  149.0879  141.7227  154.7113 C   0  0  0  0  0  0  0  0  0  0  0  0
  147.9904  141.2894  154.0248 C   0  0  0  0  0  0  0  0  0  0  0  0
  148.0708  139.8695  154.1030 C   0  0  0  0  0  0  0  0  0  0  0  0
  147.1198  138.8600  153.5132 C   0  0  1  0  0  0  0  0  0  0  0  0
  146.8749  139.1190  152.0203 C   0  0  0  0  0  0  0  0  0  0  0  0
  147.5795  137.5326  153.6697 O   0  0  0  0  0  0  0  0  0  0  0  0
  149.1370  139.4666  154.7822 N   0  0  0  0  0  0  0  0  0  0  0  0
  151.7631  145.3836  158.0077 H   0  0  0  0  0  0  0  0  0  0  0  0
  150.4625  144.3358  158.5665 H   0  0  0  0  0  0  0  0  0  0  0  0
  151.3829  143.9125  157.1237 H   0  0  0  0  0  0  0  0  0  0  0  0
  153.4436  143.6017  158.5246 H   0  0  0  0  0  0  0  0  0  0  0  0
  152.5660  144.1044  159.9437 H   0  0  0  0  0  0  0  0  0  0  0  0
  151.1027  142.1249  159.8125 H   0  0  0  0  0  0  0  0  0  0  0  0
  153.1770  141.9272  161.1370 H   0  0  0  0  0  0  0  0  0  0  0  0
  154.0603  141.3721  159.7175 H   0  0  0  0  0  0  0  0  0  0  0  0
  152.7673  140.3854  160.3963 H   0  0  0  0  0  0  0  0  0  0  0  0
  152.6657  140.7129  157.8178 H   0  0  0  0  0  0  0  0  0  0  0  0
  151.8185  140.8414  155.3026 H   0  0  0  0  0  0  0  0  0  0  0  0
  151.1696  139.5066  156.2401 H   0  0  0  0  0  0  0  0  0  0  0  0
  149.4425  142.7215  154.9198 H   0  0  0  0  0  0  0  0  0  0  0  0
  147.2408  141.8961  153.5389 H   0  0  0  0  0  0  0  0  0  0  0  0
  146.1637  138.9255  154.0335 H   0  0  0  0  0  0  0  0  0  0  0  0
  146.4716  140.1193  151.8588 H   0  0  0  0  0  0  0  0  0  0  0  0
  146.1605  138.4056  151.6085 H   0  0  0  0  0  0  0  0  0  0  0  0
  147.7978  139.0358  151.4451 H   0  0  0  0  0  0  0  0  0  0  0  0
  148.2899  137.3900  153.0632 H   0  0  0  0  0  0  0  0  0  0  0  0
  1  2  1  0  0  0  0
  1 17  1  0  0  0  0
  1 18  1  0  0  0  0
  1 19  1  0  0  0  0
  2  3  1  0  0  0  0
  2 20  1  0  0  0  0
  2 21  1  0  0  0  0
  3  4  1  0  0  0  0
  3  5  1  0  0  0  0
  3 22  1  0  0  0  0
  4 23  1  0  0  0  0
  4 24  1  0  0  0  0
  4 25  1  0  0  0  0
  5  6  1  0  0  0  0
  5 26  1  0  0  0  0
  6  7  2  0  0  0  0
  6  8  1  0  0  0  0
  8  9  1  0  0  0  0
  8 27  1  0  0  0  0
  8 28  1  0  0  0  0
  9 16  1  0  0  0  0
  9 10  1  0  0  0  0
 10 11  2  0  0  0  0
 10 29  1  0  0  0  0
 11 12  1  0  0  0  0
 11 30  1  0  0  0  0
 12 13  1  0  0  0  0
 12 16  2  0  0  0  0
 13 14  1  0  0  0  0
 13 15  1  0  0  0  0
 13 31  1  0  0  0  0
 14 32  1  0  0  0  0
 14 33  1  0  0  0  0
 14 34  1  0  0  0  0
 15 35  1  0  0  0  0
M  END
> <s_m_source_file>
AV-unprocessed.smi

> <i_m_source_file_index>
2739

> <i_lp_mmshare_version>
43012

> <i_f3d_flags>
0

> <s_epik_input>
W0NIM11bQ0gyXVtDQEhdKFtDSDNdKVtOSF1DKD1PKVtDSDJdbjFbY0hdW2NIXWMobjEpW0NASF0oW0NIM10pW09IXQ==

> <s_epik_cmdline>
J2VwaWtfcHl0aG9uJywgJy1waCcsICc3LjAnLCAnLXRuJywgJzgnLCAnLW1hJywgJzIwMCcsICctbWV0YWxfYmluZGluZycsICctaW1hZScsICc8aW5maWxlLm1hZT4nLCAnLW9tYWUnLCAnPG91dGZpbGUubWFlPic=

> <r_lp_tautomer_probability>
1

> <r_epik_Ionization_Penalty>
5.22246e-06

> <r_epik_Ionization_Penalty_Charging>
0

> <r_epik_Ionization_Penalty_Neutral>
5.22246e-06

> <r_epik_State_Penalty>
-0

> <r_epik_Charging_Adjusted_Penalty>
0

> <i_epik_Tot_Q>
0

> <i_epik_Tot_abs_Q>
0

> <r_epik_Metal_State_Penalty>
-0

> <b_epik_Metal_Only>
0

> <s_lp_Force_Field>
OPLS_2005

> <r_lp_Energy>
1.64389

> <b_lp_Chiralities_Consistent>
1

> <s_lp_Variant>
AV-unprocessed.smi:2739-3

> <Gold.Version>
5.8.1

> <Gold.Id.Protein>
6NUR|6NUR_protein|mol2

> <Gold.PLP.Fitness>
41.4272

> <Gold.PLP.PLP>
-36.3262

> <Gold.PLP.part.hbond>
-1.0000

> <Gold.PLP.part.metal>
0.0000

> <Gold.PLP.part.buried>
-0.2314

> <Gold.PLP.part.nonpolar>
-34.7933

> <Gold.PLP.part.repulsive>
0.7950

> <Gold.PLP.ligand.clash>
0.0000

> <Gold.PLP.ligand.torsion>
0.4661

> <Gold.PLP.Chemscore.Hbond>
1.0000

> <Gold.PLP.Chemscore.CHOScore>
1.0000

> <Gold.PLP.Chemscore.Metal>
0.0000

> <Gold.Chemscore.Hbonds>
donor molecule, donor type, donor heavy atom, donor atom, acceptor molecule, acceptor atom, score
      L1  H    15    35       P1  7948  0.90
      L1  C    10    29       P1  8028  1.00

> <Gold.PLP.Chemscore.Internal.Correction>
0.0331

> <Gold.Rescore>
     Score         DG    S(hbond)    S(metal)    S(lipo)     H(rot)  DE(clash)    DE(int)     intcor
     10.97     -13.37       0.99        0.00      90.57       2.34       0.15       2.25       ----

> <Gold.Chemscore.Fitness>
10.9736

> <Gold.Chemscore.DG>
-13.3706

> <Gold.Chemscore.ZeroCoef>
-5.4800

> <Gold.Chemscore.Hbond>
0.9869

> <Gold.Chemscore.Metal>
0.0000

> <Gold.Chemscore.Lipo>
90.5743

> <Gold.Chemscore.Internal_Hbond>
0.0000

> <Gold.Chemscore.DEClash>
0.1471

> <Gold.Chemscore.DEInternal>
2.2499

> <Gold.Chemscore.Rot>
2.3448

> <Gold.Chemscore.Internal.Correction>
   9.000000E+99

> <Gold.Chemscore.Hbonds>
donor molecule, donor type, donor heavy atom, donor atom, acceptor molecule, acceptor atom, score
      L1  H    15    35       P1  7948  0.88

> <Gold.Chemscore.Hbond.Weighted>
-3.2962

> <Gold.Chemscore.Metal.Weighted>
-0.0000

> <Gold.Chemscore.Lipo.Weighted>
-10.5972

> <Gold.Chemscore.Internal_Hbond.Weighted>
0.0000

> <Gold.Chemscore.DEClash.Weighted>
0.1471

> <Gold.Chemscore.DEInternal.Weighted>
2.2499

> <Gold.Chemscore.Rot.Weighted>
6.0027

> <Gold.Chemscore.Internal.Correction.Weighted>
   9.000000E+99

> <Gold.Protein.RotatedTorsions>
[ 6907 6896 6895 6894 ] final   28.39 input  -60.11 | X-H torsion
[ 7974 7965 7964 7962 ] final  -51.44 input  175.53 | X-H torsion
[ 8008 7997 7996 7995 ] final   33.99 input   59.86 | X-H torsion
[ 10167 10162 10161 10158 ] final -141.07 input  -65.29 | X-H torsion
[ 10718 10713 10712 10709 ] final   64.25 input   66.30 | X-H torsion
[ 10763 10752 10751 10750 ] final    6.55 input  -60.55 | X-H torsion
[ 11005 11000 10999 10996 ] final  -96.18 input  -57.11 | X-H torsion

> <Gold.Protein.ActiveResidues>
 VAL166  LYS551  ARG553  GLY616  TRP617  ASP618  TYR619  PRO620  LYS621  CYS622 
 ASP623  PHE694  ASN695  SER759  ASP760  ASP761  ALA762  ILE779  LEU786  VAL792 
 PHE793  MET794  SER795  GLU796  ALA797  LYS798  CYS799  TRP800  GLU811  SER814 

> <Gold.Protein.RotatedAtoms>
  152.0162  134.9848  160.0569 H   0  0  0  0  0  0  0  0  0  0  0  0  # atno 6907 bound_to 6896
  152.1381  133.4443  159.4762 H   0  0  0  0  0  0  0  0  0  0  0  0  # atno 6908 bound_to 6896
  150.6862  134.2257  159.4457 H   0  0  0  0  0  0  0  0  0  0  0  0  # atno 6909 bound_to 6896
  145.9190  140.7850  142.9657 H   0  0  0  0  0  0  0  0  0  0  0  0  # atno 7974 bound_to 7965
  155.1475  140.3272  155.4438 H   0  0  0  0  0  0  0  0  0  0  0  0  # atno 8008 bound_to 7997
  156.2585  140.1983  156.6538 H   0  0  0  0  0  0  0  0  0  0  0  0  # atno 8009 bound_to 7997
  154.6497  140.0560  156.9928 H   0  0  0  0  0  0  0  0  0  0  0  0  # atno 8010 bound_to 7997
  139.8220  143.7561  152.2666 H   0  0  0  0  0  0  0  0  0  0  0  0  # atno 10167 bound_to 10162
  157.6027  130.9149  149.9821 H   0  0  0  0  0  0  0  0  0  0  0  0  # atno 10718 bound_to 10713
  153.2464  135.6909  153.7726 H   0  0  0  0  0  0  0  0  0  0  0  0  # atno 10763 bound_to 10752
  153.6837  135.3324  155.3185 H   0  0  0  0  0  0  0  0  0  0  0  0  # atno 10764 bound_to 10752
  154.8377  135.4528  154.1405 H   0  0  0  0  0  0  0  0  0  0  0  0  # atno 10765 bound_to 10752
  141.1419  133.8079  157.0536 H   0  0  0  0  0  0  0  0  0  0  0  0  # atno 11005 bound_to 11000
  144.6751  140.1945  143.7393 LP  0  0  0  0  0  0  0  0  0  0  0  0  # atno 17320 bound_to 7965
  145.8575  139.2206  143.1736 LP  0  0  0  0  0  0  0  0  0  0  0  0  # atno 17321 bound_to 7965
  139.7742  144.7466  151.0180 LP  0  0  0  0  0  0  0  0  0  0  0  0  # atno 17342 bound_to 10162
  140.7812  143.4611  151.0276 LP  0  0  0  0  0  0  0  0  0  0  0  0  # atno 17343 bound_to 10162
  156.1104  130.3650  150.0059 LP  0  0  0  0  0  0  0  0  0  0  0  0  # atno 17370 bound_to 10713
  156.8159  130.9341  151.3643 LP  0  0  0  0  0  0  0  0  0  0  0  0  # atno 17371 bound_to 10713
  140.0616  134.9751  157.1314 LP  0  0  0  0  0  0  0  0  0  0  0  0  # atno 17394 bound_to 11000
  140.3840  134.2256  155.7169 LP  0  0  0  0  0  0  0  0  0  0  0  0  # atno 17395 bound_to 11000

$$$$
