AV-unprocessed.smi:1997|AV-procd|sdf|8088|dock5
  -GOLD-   2272010303D 1   1.00000     0.00000
 Structure written by MMmdl.
 36 38  0  0  0  0  0  0  0  0  2 V2000
  151.2424  137.5773  159.7857 O   0  0  0  0  0  0  0  0  0  0  0  0
  150.4537  137.8995  158.8939 C   0  0  0  0  0  0  0  0  0  0  0  0
  149.5624  137.0877  158.2806 N   0  5  0  0  0  0  0  0  0  0  0  0
  148.9269  136.1352  158.9828 C   0  0  0  0  0  0  0  0  0  0  0  0
  148.9354  134.8457  158.6168 N   0  0  0  0  0  0  0  0  0  0  0  0
  148.2244  134.0289  159.4843 N   0  0  0  0  0  0  0  0  0  0  0  0
  147.6931  134.7142  160.4996 C   0  0  0  0  0  0  0  0  0  0  0  0
  146.8806  134.0615  161.5674 C   0  0  0  0  0  0  0  0  0  0  0  0
  145.4340  134.4443  161.7808 C   0  0  0  0  0  0  0  0  0  0  0  0
  146.4671  134.8105  162.8157 C   0  0  0  0  0  0  0  0  0  0  0  0
  148.0348  136.4369  160.4734 S   0  0  0  0  0  0  0  0  0  0  0  0
  150.4308  139.1635  158.4442 N   0  0  0  0  0  0  0  0  0  0  0  0
  151.2872  140.2622  158.8970 C   0  0  2  0  0  0  0  0  0  0  0  0
  150.8145  141.5593  158.1931 C   0  0  0  0  0  0  0  0  0  0  0  0
  151.8020  142.7479  158.2040 C   0  0  0  0  0  0  0  0  0  0  0  0
  152.4917  143.0172  159.5572 C   0  0  0  0  0  0  0  0  0  0  0  0
  153.3671  141.8735  160.1326 C   0  0  0  0  0  0  0  0  0  0  0  0
  153.6803  140.8036  159.1853 N   0  0  0  0  0  0  0  0  0  0  0  0
  152.7795  140.0070  158.5852 C   0  0  0  0  0  0  0  0  0  0  0  0
  153.1272  139.1298  157.7954 O   0  0  0  0  0  0  0  0  0  0  0  0
  147.1512  133.0126  161.6692 H   0  0  0  0  0  0  0  0  0  0  0  0
  145.0292  135.2482  161.1691 H   0  0  0  0  0  0  0  0  0  0  0  0
  144.7357  133.6470  162.0257 H   0  0  0  0  0  0  0  0  0  0  0  0
  146.4585  134.2577  163.7526 H   0  0  0  0  0  0  0  0  0  0  0  0
  146.7363  135.8617  162.8984 H   0  0  0  0  0  0  0  0  0  0  0  0
  149.7717  139.3774  157.7104 H   0  0  0  0  0  0  0  0  0  0  0  0
  151.1560  140.3699  159.9744 H   0  0  0  0  0  0  0  0  0  0  0  0
  150.5626  141.3457  157.1529 H   0  0  0  0  0  0  0  0  0  0  0  0
  149.8808  141.8756  158.6597 H   0  0  0  0  0  0  0  0  0  0  0  0
  152.5640  142.5967  157.4379 H   0  0  0  0  0  0  0  0  0  0  0  0
  151.2673  143.6459  157.8931 H   0  0  0  0  0  0  0  0  0  0  0  0
  153.1213  143.8993  159.4369 H   0  0  0  0  0  0  0  0  0  0  0  0
  151.7410  143.2977  160.2966 H   0  0  0  0  0  0  0  0  0  0  0  0
  154.3071  142.2851  160.5009 H   0  0  0  0  0  0  0  0  0  0  0  0
  152.8825  141.4361  161.0065 H   0  0  0  0  0  0  0  0  0  0  0  0
  154.6558  140.6493  158.9758 H   0  0  0  0  0  0  0  0  0  0  0  0
  1  2  2  0  0  0  0
  2  3  1  0  0  0  0
  2 12  1  0  0  0  0
  3  4  1  0  0  0  0
  4 11  1  0  0  0  0
  4  5  2  0  0  0  0
  5  6  1  0  0  0  0
  6  7  2  0  0  0  0
  7  8  1  0  0  0  0
  7 11  1  0  0  0  0
  8 10  1  0  0  0  0
  8  9  1  0  0  0  0
  8 21  1  0  0  0  0
  9 10  1  0  0  0  0
  9 22  1  0  0  0  0
  9 23  1  0  0  0  0
 10 24  1  0  0  0  0
 10 25  1  0  0  0  0
 12 13  1  0  0  0  0
 12 26  1  0  0  0  0
 13 19  1  0  0  0  0
 13 14  1  0  0  0  0
 13 27  1  0  0  0  0
 14 15  1  0  0  0  0
 14 28  1  0  0  0  0
 14 29  1  0  0  0  0
 15 16  1  0  0  0  0
 15 30  1  0  0  0  0
 15 31  1  0  0  0  0
 16 17  1  0  0  0  0
 16 32  1  0  0  0  0
 16 33  1  0  0  0  0
 17 18  1  0  0  0  0
 17 34  1  0  0  0  0
 17 35  1  0  0  0  0
 18 19  1  0  0  0  0
 18 36  1  0  0  0  0
 19 20  2  0  0  0  0
M  CHG  1   3  -1
M  END
> <s_m_source_file>
AV-unprocessed.smi

> <i_m_source_file_index>
1997

> <i_lp_mmshare_version>
43012

> <i_f3d_flags>
0

> <s_epik_input>
W0NIMl0xW0NIMl1bQ0hdMWMoczIpbm5jMltOSF1DKD1PKVtOSF1bQ0BASF0zW0NIMl1bQ0gyXVtDSDJdW0NIMl1bTkhdQzM9Tw==

> <s_epik_cmdline>
J2VwaWtfcHl0aG9uJywgJy1waCcsICc3LjAnLCAnLXRuJywgJzgnLCAnLW1hJywgJzIwMCcsICctbWV0YWxfYmluZGluZycsICctaW1hZScsICc8aW5maWxlLm1hZT4nLCAnLW9tYWUnLCAnPG91dGZpbGUubWFlPic=

> <r_lp_tautomer_probability>
1

> <r_epik_Ionization_Penalty>
4.47229

> <r_epik_Ionization_Penalty_Charging>
4.32584

> <r_epik_Ionization_Penalty_Neutral>
0.146443

> <r_epik_State_Penalty>
4.32544

> <r_epik_Charging_Adjusted_Penalty>
8.65129

> <i_epik_Tot_Q>
-1

> <i_epik_Tot_abs_Q>
1

> <r_epik_Metal_State_Penalty>
0.738743

> <b_epik_Metal_Only>
1

> <s_lp_Force_Field>
OPLS_2005

> <r_lp_Energy>
12.6103

> <b_lp_Chiralities_Consistent>
1

> <s_lp_Variant>
AV-unprocessed.smi:1997-3

> <Gold.Version>
5.8.1

> <Gold.Id.Protein>
6NUR|6NUR_protein|mol2

> <Gold.PLP.Fitness>
36.1333

> <Gold.PLP.PLP>
-32.9010

> <Gold.PLP.part.hbond>
-2.5421

> <Gold.PLP.part.metal>
0.0000

> <Gold.PLP.part.buried>
-3.7101

> <Gold.PLP.part.nonpolar>
-26.6223

> <Gold.PLP.part.repulsive>
0.2591

> <Gold.PLP.ligand.clash>
0.0000

> <Gold.PLP.ligand.torsion>
0.8632

> <Gold.PLP.Chemscore.Hbond>
1.6000

> <Gold.PLP.Chemscore.CHOScore>
0.0000

> <Gold.PLP.Chemscore.Metal>
0.0000

> <Gold.Chemscore.Hbonds>
donor molecule, donor type, donor heavy atom, donor atom, acceptor molecule, acceptor atom, score
      P1  H  6896  6909       L1     5  0.52
      P1  H  7997  8009       L1    20  0.95

> <Gold.PLP.Chemscore.Internal.Correction>
0.1587

> <Gold.Rescore>
     Score         DG    S(hbond)    S(metal)    S(lipo)     H(rot)  DE(clash)    DE(int)     intcor
     14.15     -15.01       0.98        0.00      81.45       1.27       0.05       0.81       ----

> <Gold.Chemscore.Fitness>
14.1503

> <Gold.Chemscore.DG>
-15.0087

> <Gold.Chemscore.ZeroCoef>
-5.4800

> <Gold.Chemscore.Hbond>
0.9760

> <Gold.Chemscore.Metal>
0.0000

> <Gold.Chemscore.Lipo>
81.4507

> <Gold.Chemscore.Internal_Hbond>
0.0000

> <Gold.Chemscore.DEClash>
0.0467

> <Gold.Chemscore.DEInternal>
0.8118

> <Gold.Chemscore.Rot>
1.2738

> <Gold.Chemscore.Internal.Correction>
   9.000000E+99

> <Gold.Chemscore.Hbonds>
donor molecule, donor type, donor heavy atom, donor atom, acceptor molecule, acceptor atom, score
      P1  H  6896  6909       L1     5  0.01
      P1  H  7997  8009       L1    20  0.22

> <Gold.Chemscore.Hbond.Weighted>
-3.2599

> <Gold.Chemscore.Metal.Weighted>
-0.0000

> <Gold.Chemscore.Lipo.Weighted>
-9.5297

> <Gold.Chemscore.Internal_Hbond.Weighted>
0.0000

> <Gold.Chemscore.DEClash.Weighted>
0.0467

> <Gold.Chemscore.DEInternal.Weighted>
0.8118

> <Gold.Chemscore.Rot.Weighted>
3.2610

> <Gold.Chemscore.Internal.Correction.Weighted>
   9.000000E+99

> <Gold.Protein.RotatedTorsions>
[ 6907 6896 6895 6894 ] final   31.37 input  -60.11 | X-H torsion
[ 7974 7965 7964 7962 ] final -179.46 input  175.53 | X-H torsion
[ 8008 7997 7996 7995 ] final  162.72 input   59.86 | X-H torsion
[ 10167 10162 10161 10158 ] final   38.22 input  -65.29 | X-H torsion
[ 10718 10713 10712 10709 ] final -114.59 input   66.30 | X-H torsion
[ 10763 10752 10751 10750 ] final -122.69 input  -60.55 | X-H torsion
[ 11005 11000 10999 10996 ] final  -72.67 input  -57.11 | X-H torsion

> <Gold.Protein.ActiveResidues>
 VAL166  LYS551  ARG553  GLY616  TRP617  ASP618  TYR619  PRO620  LYS621  CYS622 
 ASP623  PHE694  ASN695  SER759  ASP760  ASP761  ALA762  ILE779  LEU786  VAL792 
 PHE793  MET794  SER795  GLU796  ALA797  LYS798  CYS799  TRP800  GLU811  SER814 

> <Gold.Protein.RotatedAtoms>
  152.0593  134.9604  160.0574 H   0  0  0  0  0  0  0  0  0  0  0  0  # atno 6907 bound_to 6896
  152.0974  133.4227  159.4580 H   0  0  0  0  0  0  0  0  0  0  0  0  # atno 6908 bound_to 6896
  150.6838  134.2719  159.4635 H   0  0  0  0  0  0  0  0  0  0  0  0  # atno 6909 bound_to 6896
  144.7137  140.0714  143.6429 H   0  0  0  0  0  0  0  0  0  0  0  0  # atno 7974 bound_to 7965
  156.2010  140.1743  156.7899 H   0  0  0  0  0  0  0  0  0  0  0  0  # atno 8008 bound_to 7997
  154.5592  140.0703  156.8823 H   0  0  0  0  0  0  0  0  0  0  0  0  # atno 8009 bound_to 7997
  155.2880  140.3353  155.4256 H   0  0  0  0  0  0  0  0  0  0  0  0  # atno 8010 bound_to 7997
  140.3958  144.1791  150.6132 H   0  0  0  0  0  0  0  0  0  0  0  0  # atno 10167 bound_to 10162
  156.0840  130.6035  150.8795 H   0  0  0  0  0  0  0  0  0  0  0  0  # atno 10718 bound_to 10713
  154.8694  135.4124  154.2822 H   0  0  0  0  0  0  0  0  0  0  0  0  # atno 10763 bound_to 10752
  153.3712  135.7007  153.6641 H   0  0  0  0  0  0  0  0  0  0  0  0  # atno 10764 bound_to 10752
  153.5502  135.3630  155.2728 H   0  0  0  0  0  0  0  0  0  0  0  0  # atno 10765 bound_to 10752
  141.1612  133.6854  156.7094 H   0  0  0  0  0  0  0  0  0  0  0  0  # atno 11005 bound_to 11000
  145.9780  139.2919  143.1059 LP  0  0  0  0  0  0  0  0  0  0  0  0  # atno 17320 bound_to 7965
  145.9043  140.9222  143.0487 LP  0  0  0  0  0  0  0  0  0  0  0  0  # atno 17321 bound_to 7965
  140.4792  143.2385  151.8979 LP  0  0  0  0  0  0  0  0  0  0  0  0  # atno 17342 bound_to 10162
  139.4787  144.5287  151.8697 LP  0  0  0  0  0  0  0  0  0  0  0  0  # atno 17343 bound_to 10162
  157.5967  131.0943  150.9028 LP  0  0  0  0  0  0  0  0  0  0  0  0  # atno 17370 bound_to 10713
  156.9194  130.5309  149.5279 LP  0  0  0  0  0  0  0  0  0  0  0  0  # atno 17371 bound_to 10713
  140.2899  134.8249  157.4007 LP  0  0  0  0  0  0  0  0  0  0  0  0  # atno 17394 bound_to 11000
  140.1356  134.5038  155.8071 LP  0  0  0  0  0  0  0  0  0  0  0  0  # atno 17395 bound_to 11000

$$$$
