AV-unprocessed.smi:287|AV-procd|sdf|2200|dock9
  -GOLD-   2262022 13D 1   1.00000     0.00000
 Structure written by MMmdl.
 55 58  0  0  0  0  0  0  0  0  1 V2000
  142.3984  135.4373  162.9254 C   0  0  0  0  0  0  0  0  0  0  0  0
  143.7983  135.3908  162.4166 C   0  0  0  0  0  0  0  0  0  0  0  0
  144.5796  136.2665  161.7205 C   0  0  0  0  0  0  0  0  0  0  0  0
  145.8536  135.6491  161.5389 C   0  0  0  0  0  0  0  0  0  0  0  0
  147.0536  136.2456  160.8154 C   0  0  2  0  0  0  0  0  0  0  0  0
  148.1545  136.5851  161.8331 C   0  0  0  0  0  0  0  0  0  0  0  0
  146.7461  137.4662  160.1696 O   0  0  0  0  0  0  0  0  0  0  0  0
  147.6151  135.3182  159.7124 C   0  0  0  0  0  0  0  0  0  0  0  0
  146.7274  135.2032  158.5599 N   0  0  0  0  0  0  0  0  0  0  0  0
  147.2363  135.1609  157.3113 C   0  0  0  0  0  0  0  0  0  0  0  0
  148.5379  135.4696  157.0739 N   0  0  0  0  0  0  0  0  0  0  0  0
  149.0157  135.4271  155.8266 C   0  0  0  0  0  0  0  0  0  0  0  0
  148.3770  135.1075  154.6993 N   0  0  0  0  0  0  0  0  0  0  0  0
  147.0701  134.7917  154.9335 C   0  0  0  0  0  0  0  0  0  0  0  0
  146.4292  134.7954  156.2036 C   0  0  0  0  0  0  0  0  0  0  0  0
  145.0988  134.4238  156.0621 N   0  0  0  0  0  0  0  0  0  0  0  0
  144.9648  134.2155  154.7798 C   0  0  0  0  0  0  0  0  0  0  0  0
  146.1008  134.4128  154.0266 N   0  0  0  0  0  0  0  0  0  0  0  0
  146.2501  134.2554  152.5490 C   0  0  1  0  0  0  0  0  0  0  0  0
  145.8419  132.9704  152.2051 O   0  0  0  0  0  0  0  0  0  0  0  0
  145.2327  133.0085  150.9232 C   0  0  1  0  0  0  0  0  0  0  0  0
  144.3730  131.7549  150.6840 C   0  0  0  0  0  0  0  0  0  0  0  0
  143.5123  131.9610  149.5844 O   0  0  0  0  0  0  0  0  0  0  0  0
  144.4755  134.3461  150.9331 C   0  0  1  0  0  0  0  0  0  0  0  0
  143.1905  134.2167  151.5121 O   0  0  0  0  0  0  0  0  0  0  0  0
  145.3594  135.2533  151.7876 C   0  0  2  0  0  0  0  0  0  0  0  0
  146.1348  136.0821  150.9444 O   0  0  0  0  0  0  0  0  0  0  0  0
  145.7318  134.4151  162.1306 C   0  0  0  0  0  0  0  0  0  0  0  0
  146.6510  133.2493  162.2913 C   0  0  0  0  0  0  0  0  0  0  0  0
  144.4920  134.2534  162.6714 O   0  0  0  0  0  0  0  0  0  0  0  0
  147.3167  134.3816  152.3566 H   0  0  0  0  0  0  0  0  0  0  0  0
  146.0216  133.0720  150.1708 H   0  0  0  0  0  0  0  0  0  0  0  0
  144.3371  134.7283  149.9206 H   0  0  0  0  0  0  0  0  0  0  0  0
  144.7815  135.8765  152.4728 H   0  0  0  0  0  0  0  0  0  0  0  0
  141.9244  136.3864  162.6748 H   0  0  0  0  0  0  0  0  0  0  0  0
  142.3776  135.3252  164.0095 H   0  0  0  0  0  0  0  0  0  0  0  0
  141.8017  134.6357  162.4898 H   0  0  0  0  0  0  0  0  0  0  0  0
  144.2749  137.2470  161.3856 H   0  0  0  0  0  0  0  0  0  0  0  0
  148.4857  135.6937  162.3672 H   0  0  0  0  0  0  0  0  0  0  0  0
  147.8001  137.3002  162.5770 H   0  0  0  0  0  0  0  0  0  0  0  0
  149.0293  137.0195  161.3474 H   0  0  0  0  0  0  0  0  0  0  0  0
  147.1213  137.4491  159.3026 H   0  0  0  0  0  0  0  0  0  0  0  0
  148.6076  135.6473  159.4005 H   0  0  0  0  0  0  0  0  0  0  0  0
  147.7351  134.3142  160.1228 H   0  0  0  0  0  0  0  0  0  0  0  0
  145.7427  135.1093  158.7655 H   0  0  0  0  0  0  0  0  0  0  0  0
  150.0579  135.6866  155.7152 H   0  0  0  0  0  0  0  0  0  0  0  0
  144.0249  133.9082  154.3449 H   0  0  0  0  0  0  0  0  0  0  0  0
  144.9934  130.8733  150.5189 H   0  0  0  0  0  0  0  0  0  0  0  0
  143.7459  131.5563  151.5534 H   0  0  0  0  0  0  0  0  0  0  0  0
  143.2370  132.8651  149.5834 H   0  0  0  0  0  0  0  0  0  0  0  0
  142.5475  134.1986  150.8201 H   0  0  0  0  0  0  0  0  0  0  0  0
  147.0461  135.9692  151.1679 H   0  0  0  0  0  0  0  0  0  0  0  0
  147.0744  132.9561  161.3305 H   0  0  0  0  0  0  0  0  0  0  0  0
  146.1273  132.3865  162.7033 H   0  0  0  0  0  0  0  0  0  0  0  0
  147.4732  133.4957  162.9629 H   0  0  0  0  0  0  0  0  0  0  0  0
  1  2  1  0  0  0  0
  1 35  1  0  0  0  0
  1 36  1  0  0  0  0
  1 37  1  0  0  0  0
  2 30  1  0  0  0  0
  2  3  2  0  0  0  0
  3  4  1  0  0  0  0
  3 38  1  0  0  0  0
  4  5  1  0  0  0  0
  4 28  2  0  0  0  0
  5  6  1  0  0  0  0
  5  7  1  0  0  0  0
  5  8  1  0  0  0  0
  6 39  1  0  0  0  0
  6 40  1  0  0  0  0
  6 41  1  0  0  0  0
  7 42  1  0  0  0  0
  8  9  1  0  0  0  0
  8 43  1  0  0  0  0
  8 44  1  0  0  0  0
  9 10  1  0  0  0  0
  9 45  1  0  0  0  0
 10 15  1  0  0  0  0
 10 11  2  0  0  0  0
 11 12  1  0  0  0  0
 12 13  2  0  0  0  0
 12 46  1  0  0  0  0
 13 14  1  0  0  0  0
 14 18  1  0  0  0  0
 14 15  2  0  0  0  0
 15 16  1  0  0  0  0
 16 17  2  0  0  0  0
 17 18  1  0  0  0  0
 17 47  1  0  0  0  0
 18 19  1  0  0  0  0
 19 31  1  0  0  0  0
 19 26  1  0  0  0  0
 19 20  1  0  0  0  0
 20 21  1  0  0  0  0
 21 32  1  0  0  0  0
 21 22  1  0  0  0  0
 21 24  1  0  0  0  0
 22 23  1  0  0  0  0
 22 48  1  0  0  0  0
 22 49  1  0  0  0  0
 23 50  1  0  0  0  0
 24 33  1  0  0  0  0
 24 25  1  0  0  0  0
 24 26  1  0  0  0  0
 25 51  1  0  0  0  0
 26 34  1  0  0  0  0
 26 27  1  0  0  0  0
 27 52  1  0  0  0  0
 28 29  1  0  0  0  0
 28 30  1  0  0  0  0
 29 53  1  0  0  0  0
 29 54  1  0  0  0  0
 29 55  1  0  0  0  0
M  END
> <s_m_source_file>
AV-unprocessed.smi

> <i_m_source_file_index>
287

> <i_lp_mmshare_version>
43012

> <i_f3d_flags>
0

> <s_epik_input>
W0NIM11jMVtjSF1jKGMobzEpW0NIM10pW0NAQF0oW0NIM10pKFtPSF0pW0NIMl1bTkhdYyhuW2NIXW4yKWMoYzIzKW5bY0hdbjNbQ0BASF00T1tDQEhdKFtDSDJdW09IXSlbQ0BASF0oW09IXSlbQ0BIXTRbT0hd

> <s_epik_cmdline>
J2VwaWtfcHl0aG9uJywgJy1waCcsICc3LjAnLCAnLXRuJywgJzgnLCAnLW1hJywgJzIwMCcsICctbWV0YWxfYmluZGluZycsICctaW1hZScsICc8aW5maWxlLm1hZT4nLCAnLW9tYWUnLCAnPG91dGZpbGUubWFlPic=

> <r_lp_tautomer_probability>
1

> <r_epik_Ionization_Penalty>
0.000992612

> <r_epik_Ionization_Penalty_Charging>
0

> <r_epik_Ionization_Penalty_Neutral>
0.000992612

> <r_epik_State_Penalty>
-0

> <r_epik_Charging_Adjusted_Penalty>
0

> <i_epik_Tot_Q>
0

> <i_epik_Tot_abs_Q>
0

> <r_epik_Metal_State_Penalty>
-0

> <b_epik_Metal_Only>
0

> <s_epik_Chemistry_Notes>
This compound contains an acetal/aminal-like group ( X-CH(R)-Y where X, Y are N, S, or O) that may be acid/base labile, releasing an aldehyde.

> <s_lp_Force_Field>
OPLS_2005

> <r_lp_Energy>
38.4634

> <b_lp_Chiralities_Consistent>
1

> <s_lp_Variant>
AV-unprocessed.smi:287-24

> <Gold.Version>
5.8.1

> <Gold.Id.Protein>
6NUR|6NUR_protein|mol2

> <Gold.PLP.Fitness>
49.5135

> <Gold.PLP.PLP>
-35.7343

> <Gold.PLP.part.hbond>
-4.4741

> <Gold.PLP.part.metal>
0.0000

> <Gold.PLP.part.buried>
-6.9496

> <Gold.PLP.part.nonpolar>
-25.2937

> <Gold.PLP.part.repulsive>
0.3774

> <Gold.PLP.ligand.clash>
0.0000

> <Gold.PLP.ligand.torsion>
0.6127

> <Gold.PLP.Chemscore.Hbond>
3.9833

> <Gold.PLP.Chemscore.CHOScore>
0.9668

> <Gold.PLP.Chemscore.Metal>
0.0000

> <Gold.Chemscore.Hbonds>
donor molecule, donor type, donor heavy atom, donor atom, acceptor molecule, acceptor atom, score
      L1  H    25    51       P1 10186  1.00
      L1  H    27    52       P1  7948  1.00
      P1  H  6934  6947       L1     7  1.00
      P1  H 10785 10796       L1    23  1.00
      L1  C    17    47       P1 10957  0.86

> <Gold.PLP.Chemscore.Internal.Correction>
0.1544

> <Gold.Rescore>
     Score         DG    S(hbond)    S(metal)    S(lipo)     H(rot)  DE(clash)    DE(int)     intcor
     11.53     -12.44       3.31        0.00      80.18       5.27       0.19       0.71       ----

> <Gold.Chemscore.Fitness>
11.5326

> <Gold.Chemscore.DG>
-12.4360

> <Gold.Chemscore.ZeroCoef>
-5.4800

> <Gold.Chemscore.Hbond>
3.3110

> <Gold.Chemscore.Metal>
0.0000

> <Gold.Chemscore.Lipo>
80.1798

> <Gold.Chemscore.Internal_Hbond>
0.0000

> <Gold.Chemscore.DEClash>
0.1924

> <Gold.Chemscore.DEInternal>
0.7109

> <Gold.Chemscore.Rot>
5.2672

> <Gold.Chemscore.Internal.Correction>
   9.000000E+99

> <Gold.Chemscore.Hbonds>
donor molecule, donor type, donor heavy atom, donor atom, acceptor molecule, acceptor atom, score
      L1  H    25    51       P1 10186  0.38
      L1  H    27    52       P1  7948  0.95
      P1  H  6934  6947       L1     7  0.64
      P1  H 10785 10796       L1    23  0.49

> <Gold.Chemscore.Hbond.Weighted>
-11.0589

> <Gold.Chemscore.Metal.Weighted>
-0.0000

> <Gold.Chemscore.Lipo.Weighted>
-9.3810

> <Gold.Chemscore.Internal_Hbond.Weighted>
0.0000

> <Gold.Chemscore.DEClash.Weighted>
0.1924

> <Gold.Chemscore.DEInternal.Weighted>
0.7109

> <Gold.Chemscore.Rot.Weighted>
13.4839

> <Gold.Chemscore.Internal.Correction.Weighted>
   9.000000E+99

> <Gold.Protein.RotatedTorsions>
[ 6907 6896 6895 6894 ] final  -26.75 input  -60.11 | X-H torsion
[ 7974 7965 7964 7962 ] final   26.84 input  175.53 | X-H torsion
[ 8008 7997 7996 7995 ] final  -88.46 input   59.86 | X-H torsion
[ 10167 10162 10161 10158 ] final  -44.00 input  -65.29 | X-H torsion
[ 10718 10713 10712 10709 ] final  132.08 input   66.30 | X-H torsion
[ 10763 10752 10751 10750 ] final   85.87 input  -60.55 | X-H torsion
[ 11005 11000 10999 10996 ] final   11.36 input  -57.11 | X-H torsion

> <Gold.Protein.ActiveResidues>
 VAL166  LYS551  ARG553  GLY616  TRP617  ASP618  TYR619  PRO620  LYS621  CYS622 
 ASP623  PHE694  ASN695  SER759  ASP760  ASP761  ALA762  ILE779  LEU786  VAL792 
 PHE793  MET794  SER795  GLU796  ALA797  LYS798  CYS799  TRP800  GLU811  SER814 

> <Gold.Protein.RotatedAtoms>
  151.1566  135.0253  159.8691 H   0  0  0  0  0  0  0  0  0  0  0  0  # atno 6907 bound_to 6896
  152.5452  134.1328  159.8456 H   0  0  0  0  0  0  0  0  0  0  0  0  # atno 6908 bound_to 6896
  151.1418  133.4920  159.2629 H   0  0  0  0  0  0  0  0  0  0  0  0  # atno 6909 bound_to 6896
  146.1816  139.7273  142.8896 H   0  0  0  0  0  0  0  0  0  0  0  0  # atno 7974 bound_to 7965
  154.6751  140.0553  157.0207 H   0  0  0  0  0  0  0  0  0  0  0  0  # atno 8008 bound_to 7997
  155.1032  140.3231  155.4523 H   0  0  0  0  0  0  0  0  0  0  0  0  # atno 8009 bound_to 7997
  156.2673  140.2027  156.6157 H   0  0  0  0  0  0  0  0  0  0  0  0  # atno 8010 bound_to 7997
  140.6913  143.2953  151.3433 H   0  0  0  0  0  0  0  0  0  0  0  0  # atno 10167 bound_to 10162
  157.4905  131.1090  150.9562 H   0  0  0  0  0  0  0  0  0  0  0  0  # atno 10718 bound_to 10713
  153.1515  135.4601  154.9644 H   0  0  0  0  0  0  0  0  0  0  0  0  # atno 10763 bound_to 10752
  154.7829  135.3194  154.7953 H   0  0  0  0  0  0  0  0  0  0  0  0  # atno 10764 bound_to 10752
  153.8458  135.6926  153.4852 H   0  0  0  0  0  0  0  0  0  0  0  0  # atno 10765 bound_to 10752
  140.5041  134.0716  155.7801 H   0  0  0  0  0  0  0  0  0  0  0  0  # atno 11005 bound_to 11000
  145.4059  141.0391  143.3044 LP  0  0  0  0  0  0  0  0  0  0  0  0  # atno 17320 bound_to 7965
  144.8325  139.5604  143.6937 LP  0  0  0  0  0  0  0  0  0  0  0  0  # atno 17321 bound_to 7965
  139.6319  144.0705  152.2483 LP  0  0  0  0  0  0  0  0  0  0  0  0  # atno 17342 bound_to 10162
  140.0182  144.6173  150.7589 LP  0  0  0  0  0  0  0  0  0  0  0  0  # atno 17343 bound_to 10162
  157.0266  130.5694  149.5338 LP  0  0  0  0  0  0  0  0  0  0  0  0  # atno 17370 bound_to 10713
  156.0171  130.5265  150.8166 LP  0  0  0  0  0  0  0  0  0  0  0  0  # atno 17371 bound_to 10713
  141.1420  133.9122  157.2304 LP  0  0  0  0  0  0  0  0  0  0  0  0  # atno 17394 bound_to 11000
  139.9696  135.0132  156.9477 LP  0  0  0  0  0  0  0  0  0  0  0  0  # atno 17395 bound_to 11000

$$$$
