AV-unprocessed.smi:2459|AV-procd|sdf|9713|dock9
  -GOLD-   2272013353D 1   1.00000     0.00000
 Structure written by MMmdl.
 46 47  0  0  0  0  0  0  0  0  1 V2000
  158.3976  136.5119  164.5555 C   0  0  0  0  0  0  0  0  0  0  0  0
  157.5879  137.6007  164.1149 O   0  0  0  0  0  0  0  0  0  0  0  0
  156.2995  137.7752  164.7233 C   0  0  0  0  0  0  0  0  0  0  0  0
  155.4391  136.5011  164.5516 C   0  0  0  0  0  0  0  0  0  0  0  0
  156.5766  138.0021  166.2199 C   0  0  0  0  0  0  0  0  0  0  0  0
  155.5900  139.0256  164.1527 C   0  0  0  0  0  0  0  0  0  0  0  0
  155.4335  140.0165  164.8662 O   0  0  0  0  0  0  0  0  0  0  0  0
  155.1748  138.9419  162.8737 N   0  0  0  0  0  0  0  0  0  0  0  0
  154.4815  139.9038  162.0905 C   0  0  0  0  0  0  0  0  0  0  0  0
  154.1285  141.1202  162.7078 C   0  0  0  0  0  0  0  0  0  0  0  0
  153.4636  142.1118  162.0804 N   0  0  0  0  0  0  0  0  0  0  0  0
  153.1046  141.9314  160.7875 C   0  0  0  0  0  0  0  0  0  0  0  0
  152.4206  142.9797  160.1527 N   0  0  0  0  0  0  0  0  0  0  0  0
  153.1434  143.5330  159.0104 C   0  0  0  0  0  0  0  0  0  0  0  0
  152.2533  144.5104  158.2240 C   0  0  0  0  0  0  0  0  0  0  0  0
  151.6879  145.6019  159.1474 C   0  0  0  0  0  0  0  0  0  0  0  0
  150.9661  144.9643  160.3459 C   0  0  0  0  0  0  0  0  0  0  0  0
  151.8879  143.9752  161.0795 C   0  0  0  0  0  0  0  0  0  0  0  0
  153.3943  140.7415  160.0775 C   0  0  0  0  0  0  0  0  0  0  0  0
  152.9710  140.5597  158.6302 C   0  0  0  0  0  0  0  0  0  0  0  0
  154.0898  139.7113  160.7446 C   0  0  0  0  0  0  0  0  0  0  0  0
  159.2801  136.4463  163.9195 H   0  0  0  0  0  0  0  0  0  0  0  0
  157.8833  135.5525  164.5006 H   0  0  0  0  0  0  0  0  0  0  0  0
  158.7476  136.6609  165.5769 H   0  0  0  0  0  0  0  0  0  0  0  0
  154.5364  136.5449  165.1625 H   0  0  0  0  0  0  0  0  0  0  0  0
  155.9919  135.6115  164.8553 H   0  0  0  0  0  0  0  0  0  0  0  0
  155.1195  136.3561  163.5190 H   0  0  0  0  0  0  0  0  0  0  0  0
  155.6523  138.1389  166.7831 H   0  0  0  0  0  0  0  0  0  0  0  0
  157.1972  138.8841  166.3834 H   0  0  0  0  0  0  0  0  0  0  0  0
  157.1021  137.1506  166.6535 H   0  0  0  0  0  0  0  0  0  0  0  0
  155.3137  138.0443  162.4318 H   0  0  0  0  0  0  0  0  0  0  0  0
  154.3927  141.3092  163.7381 H   0  0  0  0  0  0  0  0  0  0  0  0
  154.0390  144.0479  159.3610 H   0  0  0  0  0  0  0  0  0  0  0  0
  153.4740  142.7240  158.3574 H   0  0  0  0  0  0  0  0  0  0  0  0
  152.8222  144.9631  157.4115 H   0  0  0  0  0  0  0  0  0  0  0  0
  151.4320  143.9623  157.7603 H   0  0  0  0  0  0  0  0  0  0  0  0
  152.5003  146.2361  159.5043 H   0  0  0  0  0  0  0  0  0  0  0  0
  151.0053  146.2482  158.5950 H   0  0  0  0  0  0  0  0  0  0  0  0
  150.6250  145.7380  161.0340 H   0  0  0  0  0  0  0  0  0  0  0  0
  150.0739  144.4413  159.9991 H   0  0  0  0  0  0  0  0  0  0  0  0
  151.3370  143.4762  161.8779 H   0  0  0  0  0  0  0  0  0  0  0  0
  152.7120  144.5154  161.5481 H   0  0  0  0  0  0  0  0  0  0  0  0
  153.2744  139.5858  158.2457 H   0  0  0  0  0  0  0  0  0  0  0  0
  153.4257  141.3271  158.0030 H   0  0  0  0  0  0  0  0  0  0  0  0
  151.8873  140.6375  158.5386 H   0  0  0  0  0  0  0  0  0  0  0  0
  154.2977  138.7931  160.2180 H   0  0  0  0  0  0  0  0  0  0  0  0
  1  2  1  0  0  0  0
  1 22  1  0  0  0  0
  1 23  1  0  0  0  0
  1 24  1  0  0  0  0
  2  3  1  0  0  0  0
  3  4  1  0  0  0  0
  3  5  1  0  0  0  0
  3  6  1  0  0  0  0
  4 25  1  0  0  0  0
  4 26  1  0  0  0  0
  4 27  1  0  0  0  0
  5 28  1  0  0  0  0
  5 29  1  0  0  0  0
  5 30  1  0  0  0  0
  6  7  2  0  0  0  0
  6  8  1  0  0  0  0
  8  9  1  0  0  0  0
  8 31  1  0  0  0  0
  9 21  1  0  0  0  0
  9 10  2  0  0  0  0
 10 11  1  0  0  0  0
 10 32  1  0  0  0  0
 11 12  2  0  0  0  0
 12 13  1  0  0  0  0
 12 19  1  0  0  0  0
 13 18  1  0  0  0  0
 13 14  1  0  0  0  0
 14 15  1  0  0  0  0
 14 33  1  0  0  0  0
 14 34  1  0  0  0  0
 15 16  1  0  0  0  0
 15 35  1  0  0  0  0
 15 36  1  0  0  0  0
 16 17  1  0  0  0  0
 16 37  1  0  0  0  0
 16 38  1  0  0  0  0
 17 18  1  0  0  0  0
 17 39  1  0  0  0  0
 17 40  1  0  0  0  0
 18 41  1  0  0  0  0
 18 42  1  0  0  0  0
 19 20  1  0  0  0  0
 19 21  2  0  0  0  0
 20 43  1  0  0  0  0
 20 44  1  0  0  0  0
 20 45  1  0  0  0  0
 21 46  1  0  0  0  0
M  END
> <s_m_source_file>
AV-unprocessed.smi

> <i_m_source_file_index>
2459

> <i_lp_mmshare_version>
43012

> <i_f3d_flags>
0

> <s_epik_input>
W0NIM11PQyhbQ0gzXSkoW0NIM10pQyg9TylbTkhdYzFbY0hdbmMoYyhbQ0gzXSlbY0hdMSlOMltDSDJdW0NIMl1bQ0gyXVtDSDJdW0NIMl0y

> <s_epik_cmdline>
J2VwaWtfcHl0aG9uJywgJy1waCcsICc3LjAnLCAnLXRuJywgJzgnLCAnLW1hJywgJzIwMCcsICctbWV0YWxfYmluZGluZycsICctaW1hZScsICc8aW5maWxlLm1hZT4nLCAnLW9tYWUnLCAnPG91dGZpbGUubWFlPic=

> <r_lp_tautomer_probability>
1

> <r_epik_Ionization_Penalty>
0.0966188

> <r_epik_Ionization_Penalty_Charging>
0

> <r_epik_Ionization_Penalty_Neutral>
0.0966188

> <r_epik_State_Penalty>
1.07001

> <r_epik_Charging_Adjusted_Penalty>
1.07001

> <i_epik_Tot_Q>
0

> <i_epik_Tot_abs_Q>
0

> <r_epik_Metal_State_Penalty>
1.00145

> <b_epik_Metal_Only>
0

> <s_lp_Force_Field>
OPLS_2005

> <r_lp_Energy>
29.1962

> <b_lp_Chiralities_Consistent>
1

> <s_lp_Variant>
AV-unprocessed.smi:2459-2

> <Gold.Version>
5.8.1

> <Gold.Id.Protein>
6NUR|6NUR_protein|mol2

> <Gold.PLP.Fitness>
39.1182

> <Gold.PLP.PLP>
-39.6220

> <Gold.PLP.part.hbond>
-0.2518

> <Gold.PLP.part.metal>
0.0000

> <Gold.PLP.part.buried>
-3.6440

> <Gold.PLP.part.nonpolar>
-35.8843

> <Gold.PLP.part.repulsive>
0.0302

> <Gold.PLP.ligand.clash>
0.0000

> <Gold.PLP.ligand.torsion>
0.3544

> <Gold.PLP.Chemscore.Hbond>
0.0000

> <Gold.PLP.Chemscore.CHOScore>
0.0000

> <Gold.PLP.Chemscore.Metal>
0.0000

> <Gold.PLP.Chemscore.Internal.Correction>
0.2050

> <Gold.Rescore>
     Score         DG    S(hbond)    S(metal)    S(lipo)     H(rot)  DE(clash)    DE(int)     intcor
     13.40     -15.40       0.00        0.00     113.65       1.32       0.17       1.83       ----

> <Gold.Chemscore.Fitness>
13.4024

> <Gold.Chemscore.DG>
-15.4007

> <Gold.Chemscore.ZeroCoef>
-5.4800

> <Gold.Chemscore.Hbond>
0.0000

> <Gold.Chemscore.Metal>
0.0000

> <Gold.Chemscore.Lipo>
113.6505

> <Gold.Chemscore.Internal_Hbond>
0.0000

> <Gold.Chemscore.DEClash>
0.1720

> <Gold.Chemscore.DEInternal>
1.8263

> <Gold.Chemscore.Rot>
1.3189

> <Gold.Chemscore.Internal.Correction>
   9.000000E+99

> <Gold.Chemscore.Hbond.Weighted>
-0.0000

> <Gold.Chemscore.Metal.Weighted>
-0.0000

> <Gold.Chemscore.Lipo.Weighted>
-13.2971

> <Gold.Chemscore.Internal_Hbond.Weighted>
0.0000

> <Gold.Chemscore.DEClash.Weighted>
0.1720

> <Gold.Chemscore.DEInternal.Weighted>
1.8263

> <Gold.Chemscore.Rot.Weighted>
3.3764

> <Gold.Chemscore.Internal.Correction.Weighted>
   9.000000E+99

> <Gold.Protein.RotatedTorsions>
[ 6907 6896 6895 6894 ] final   83.17 input  -60.11 | X-H torsion
[ 7974 7965 7964 7962 ] final  -46.93 input  175.53 | X-H torsion
[ 8008 7997 7996 7995 ] final  119.18 input   59.86 | X-H torsion
[ 10167 10162 10161 10158 ] final  -54.15 input  -65.29 | X-H torsion
[ 10718 10713 10712 10709 ] final -121.65 input   66.30 | X-H torsion
[ 10763 10752 10751 10750 ] final  144.61 input  -60.55 | X-H torsion
[ 11005 11000 10999 10996 ] final   -3.51 input  -57.11 | X-H torsion

> <Gold.Protein.ActiveResidues>
 VAL166  LYS551  ARG553  GLY616  TRP617  ASP618  TYR619  PRO620  LYS621  CYS622 
 ASP623  PHE694  ASN695  SER759  ASP760  ASP761  ALA762  ILE779  LEU786  VAL792 
 PHE793  MET794  SER795  GLU796  ALA797  LYS798  CYS799  TRP800  GLU811  SER814 

> <Gold.Protein.RotatedAtoms>
  152.5320  134.2936  159.9052 H   0  0  0  0  0  0  0  0  0  0  0  0  # atno 6907 bound_to 6896
  151.2888  133.4168  159.2639 H   0  0  0  0  0  0  0  0  0  0  0  0  # atno 6908 bound_to 6896
  151.0219  134.9491  159.8121 H   0  0  0  0  0  0  0  0  0  0  0  0  # atno 6909 bound_to 6896
  145.9669  140.7423  142.9430 H   0  0  0  0  0  0  0  0  0  0  0  0  # atno 7974 bound_to 7965
  156.2583  140.2858  156.0951 H   0  0  0  0  0  0  0  0  0  0  0  0  # atno 8008 bound_to 7997
  155.1421  140.0396  157.2818 H   0  0  0  0  0  0  0  0  0  0  0  0  # atno 8009 bound_to 7997
  154.6522  140.2547  155.7207 H   0  0  0  0  0  0  0  0  0  0  0  0  # atno 8010 bound_to 7997
  140.6446  143.2528  151.4894 H   0  0  0  0  0  0  0  0  0  0  0  0  # atno 10167 bound_to 10162
  156.1354  130.6427  150.9688 H   0  0  0  0  0  0  0  0  0  0  0  0  # atno 10718 bound_to 10713
  153.9917  135.2931  155.3411 H   0  0  0  0  0  0  0  0  0  0  0  0  # atno 10763 bound_to 10752
  154.7211  135.5109  153.8816 H   0  0  0  0  0  0  0  0  0  0  0  0  # atno 10764 bound_to 10752
  153.0807  135.6678  154.0168 H   0  0  0  0  0  0  0  0  0  0  0  0  # atno 10765 bound_to 10752
  140.6701  133.9244  155.8489 H   0  0  0  0  0  0  0  0  0  0  0  0  # atno 11005 bound_to 11000
  144.6827  140.2683  143.7309 LP  0  0  0  0  0  0  0  0  0  0  0  0  # atno 17320 bound_to 7965
  145.7961  139.1946  143.2075 LP  0  0  0  0  0  0  0  0  0  0  0  0  # atno 17321 bound_to 7965
  139.5656  144.2049  152.1760 LP  0  0  0  0  0  0  0  0  0  0  0  0  # atno 17342 bound_to 10162
  140.1330  144.5271  150.6790 LP  0  0  0  0  0  0  0  0  0  0  0  0  # atno 17343 bound_to 10162
  157.6527  131.0894  150.8014 LP  0  0  0  0  0  0  0  0  0  0  0  0  # atno 17370 bound_to 10713
  156.8095  130.4947  149.5358 LP  0  0  0  0  0  0  0  0  0  0  0  0  # atno 17371 bound_to 10713
  141.0398  134.0637  157.3915 LP  0  0  0  0  0  0  0  0  0  0  0  0  # atno 17394 bound_to 11000
  139.8984  135.0154  156.7148 LP  0  0  0  0  0  0  0  0  0  0  0  0  # atno 17395 bound_to 11000

$$$$
