AV-unprocessed.smi:1626|AV-procd|sdf|6514|dock7
  -GOLD-   22720 7183D 1   1.00000     0.00000
 Structure written by MMmdl.
 47 49  0  0  0  0  0  0  0  0  1 V2000
  153.8407  142.6338  163.6046 C   0  0  0  0  0  0  0  0  0  0  0  0
  153.2586  142.8161  162.2138 C   0  0  0  0  0  0  0  0  0  0  0  0
  152.4007  143.9120  161.9662 C   0  0  0  0  0  0  0  0  0  0  0  0
  151.8430  144.1205  160.6857 C   0  0  0  0  0  0  0  0  0  0  0  0
  150.9941  145.1121  160.2233 N   0  0  0  0  0  0  0  0  0  0  0  0
  150.8418  144.7620  158.9489 C   0  0  0  0  0  0  0  0  0  0  0  0
  151.4923  143.6589  158.5317 N   0  0  0  0  0  0  0  0  0  0  0  0
  151.4940  143.0838  157.1997 C   0  0  0  0  0  0  0  0  0  0  0  0
  150.3723  142.0418  157.0191 C   0  0  2  0  0  0  0  0  0  0  0  0
  150.7560  140.8359  157.6485 O   0  0  0  0  0  0  0  0  0  0  0  0
  150.0745  141.7319  155.5385 C   0  0  0  0  0  0  0  0  0  0  0  0
  148.7297  141.2256  155.2557 N   0  0  0  0  0  0  0  0  0  0  0  0
  148.5302  139.8572  155.7462 C   0  0  0  0  0  0  0  0  0  0  0  0
  147.1043  139.3385  155.4922 C   0  0  0  0  0  0  0  0  0  0  0  0
  146.7654  139.4139  153.9954 C   0  0  0  0  0  0  0  0  0  0  0  0
  145.4156  139.0557  153.7856 O   0  0  0  0  0  0  0  0  0  0  0  0
  147.0196  140.8371  153.4744 C   0  0  0  0  0  0  0  0  0  0  0  0
  148.4510  141.2822  153.8194 C   0  0  0  0  0  0  0  0  0  0  0  0
  152.1696  143.1947  159.6527 C   0  0  0  0  0  0  0  0  0  0  0  0
  153.0175  142.0983  159.8867 C   0  0  0  0  0  0  0  0  0  0  0  0
  153.5653  141.9041  161.1719 C   0  0  0  0  0  0  0  0  0  0  0  0
  154.4796  140.7162  161.4139 C   0  0  0  0  0  0  0  0  0  0  0  0
  153.5821  143.4686  164.2567 H   0  0  0  0  0  0  0  0  0  0  0  0
  154.9283  142.5709  163.5612 H   0  0  0  0  0  0  0  0  0  0  0  0
  153.4580  141.7201  164.0600 H   0  0  0  0  0  0  0  0  0  0  0  0
  152.1646  144.6050  162.7602 H   0  0  0  0  0  0  0  0  0  0  0  0
  150.2266  145.3437  158.2780 H   0  0  0  0  0  0  0  0  0  0  0  0
  151.3737  143.8995  156.4857 H   0  0  0  0  0  0  0  0  0  0  0  0
  152.4718  142.6411  157.0041 H   0  0  0  0  0  0  0  0  0  0  0  0
  149.4683  142.3813  157.5235 H   0  0  0  0  0  0  0  0  0  0  0  0
  150.3367  140.7922  158.4941 H   0  0  0  0  0  0  0  0  0  0  0  0
  150.2361  142.6477  154.9679 H   0  0  0  0  0  0  0  0  0  0  0  0
  150.8102  141.0172  155.1659 H   0  0  0  0  0  0  0  0  0  0  0  0
  149.2514  139.1864  155.2768 H   0  0  0  0  0  0  0  0  0  0  0  0
  148.7147  139.8083  156.8181 H   0  0  0  0  0  0  0  0  0  0  0  0
  147.0108  138.3126  155.8500 H   0  0  0  0  0  0  0  0  0  0  0  0
  146.3956  139.9359  156.0679 H   0  0  0  0  0  0  0  0  0  0  0  0
  147.3927  138.7103  153.4464 H   0  0  0  0  0  0  0  0  0  0  0  0
  144.9441  139.8208  153.4932 H   0  0  0  0  0  0  0  0  0  0  0  0
  146.8649  140.8787  152.3955 H   0  0  0  0  0  0  0  0  0  0  0  0
  146.3072  141.5329  153.9207 H   0  0  0  0  0  0  0  0  0  0  0  0
  148.5957  142.3011  153.4580 H   0  0  0  0  0  0  0  0  0  0  0  0
  149.1657  140.6593  153.2789 H   0  0  0  0  0  0  0  0  0  0  0  0
  153.2444  141.4140  159.0823 H   0  0  0  0  0  0  0  0  0  0  0  0
  154.5329  140.0707  160.5367 H   0  0  0  0  0  0  0  0  0  0  0  0
  154.1159  140.1151  162.2477 H   0  0  0  0  0  0  0  0  0  0  0  0
  155.4900  141.0547  161.6442 H   0  0  0  0  0  0  0  0  0  0  0  0
  1  2  1  0  0  0  0
  1 23  1  0  0  0  0
  1 24  1  0  0  0  0
  1 25  1  0  0  0  0
  2 21  1  0  0  0  0
  2  3  2  0  0  0  0
  3  4  1  0  0  0  0
  3 26  1  0  0  0  0
  4 19  2  0  0  0  0
  4  5  1  0  0  0  0
  5  6  2  0  0  0  0
  6  7  1  0  0  0  0
  6 27  1  0  0  0  0
  7  8  1  0  0  0  0
  7 19  1  0  0  0  0
  8  9  1  0  0  0  0
  8 28  1  0  0  0  0
  8 29  1  0  0  0  0
  9 10  1  0  0  0  0
  9 11  1  0  0  0  0
  9 30  1  0  0  0  0
 10 31  1  0  0  0  0
 11 12  1  0  0  0  0
 11 32  1  0  0  0  0
 11 33  1  0  0  0  0
 12 18  1  0  0  0  0
 12 13  1  0  0  0  0
 13 14  1  0  0  0  0
 13 34  1  0  0  0  0
 13 35  1  0  0  0  0
 14 15  1  0  0  0  0
 14 36  1  0  0  0  0
 14 37  1  0  0  0  0
 15 16  1  0  0  0  0
 15 17  1  0  0  0  0
 15 38  1  0  0  0  0
 16 39  1  0  0  0  0
 17 18  1  0  0  0  0
 17 40  1  0  0  0  0
 17 41  1  0  0  0  0
 18 42  1  0  0  0  0
 18 43  1  0  0  0  0
 19 20  1  0  0  0  0
 20 21  2  0  0  0  0
 20 44  1  0  0  0  0
 21 22  1  0  0  0  0
 22 45  1  0  0  0  0
 22 46  1  0  0  0  0
 22 47  1  0  0  0  0
M  END
> <s_m_source_file>
AV-unprocessed.smi

> <i_m_source_file_index>
1626

> <i_lp_mmshare_version>
43012

> <i_f3d_flags>
0

> <s_epik_input>
W0NIM11jKFtjSF0xKWMoW0NIM10pW2NIXWMoYzEyKW4oW2NIXW4yKVtDSDJdW0NASF0oW09IXSlbQ0gyXU4zW0NIMl1bQ0gyXVtDSF0oW09IXSlbQ0gyXVtDSDJdMw==

> <s_epik_cmdline>
J2VwaWtfcHl0aG9uJywgJy1waCcsICc3LjAnLCAnLXRuJywgJzgnLCAnLW1hJywgJzIwMCcsICctbWV0YWxfYmluZGluZycsICctaW1hZScsICc8aW5maWxlLm1hZT4nLCAnLW9tYWUnLCAnPG91dGZpbGUubWFlPic=

> <r_epik_Ionization_Penalty>
2.14395

> <r_epik_Ionization_Penalty_Charging>
0

> <r_epik_Ionization_Penalty_Neutral>
2.14395

> <r_epik_State_Penalty>
2.24477

> <r_epik_Charging_Adjusted_Penalty>
2.24477

> <i_epik_Tot_Q>
0

> <i_epik_Tot_abs_Q>
0

> <r_epik_Metal_State_Penalty>
2.17429

> <b_epik_Metal_Only>
0

> <s_lp_Force_Field>
OPLS_2005

> <r_lp_Energy>
28.7152

> <b_lp_Chiralities_Consistent>
1

> <s_lp_Variant>
AV-unprocessed.smi:1626-9

> <Gold.Version>
5.8.1

> <Gold.Id.Protein>
6NUR|6NUR_protein|mol2

> <Gold.PLP.Fitness>
53.9361

> <Gold.PLP.PLP>
-49.6800

> <Gold.PLP.part.hbond>
-1.0000

> <Gold.PLP.part.metal>
0.0000

> <Gold.PLP.part.buried>
-4.5033

> <Gold.PLP.part.nonpolar>
-44.6225

> <Gold.PLP.part.repulsive>
0.2997

> <Gold.PLP.ligand.clash>
0.0000

> <Gold.PLP.ligand.torsion>
0.8558

> <Gold.PLP.Chemscore.Hbond>
1.0000

> <Gold.PLP.Chemscore.CHOScore>
0.9863

> <Gold.PLP.Chemscore.Metal>
0.0000

> <Gold.Chemscore.Hbonds>
donor molecule, donor type, donor heavy atom, donor atom, acceptor molecule, acceptor atom, score
      L1  H    16    39       P1 10175  0.94
      L1  C     6    27       P1  8029  0.86

> <Gold.PLP.Chemscore.Internal.Correction>
0.0089

> <Gold.Rescore>
     Score         DG    S(hbond)    S(metal)    S(lipo)     H(rot)  DE(clash)    DE(int)     intcor
     17.08     -18.16       0.99        0.00     136.82       2.59       0.12       0.97       ----

> <Gold.Chemscore.Fitness>
17.0821

> <Gold.Chemscore.DG>
-18.1643

> <Gold.Chemscore.ZeroCoef>
-5.4800

> <Gold.Chemscore.Hbond>
0.9936

> <Gold.Chemscore.Metal>
0.0000

> <Gold.Chemscore.Lipo>
136.8218

> <Gold.Chemscore.Internal_Hbond>
0.0000

> <Gold.Chemscore.DEClash>
0.1167

> <Gold.Chemscore.DEInternal>
0.9655

> <Gold.Chemscore.Rot>
2.5947

> <Gold.Chemscore.Internal.Correction>
   9.000000E+99

> <Gold.Chemscore.Hbonds>
donor molecule, donor type, donor heavy atom, donor atom, acceptor molecule, acceptor atom, score
      L1  H    16    39       P1 10175  0.92

> <Gold.Chemscore.Hbond.Weighted>
-3.3185

> <Gold.Chemscore.Metal.Weighted>
-0.0000

> <Gold.Chemscore.Lipo.Weighted>
-16.0082

> <Gold.Chemscore.Internal_Hbond.Weighted>
0.0000

> <Gold.Chemscore.DEClash.Weighted>
0.1167

> <Gold.Chemscore.DEInternal.Weighted>
0.9655

> <Gold.Chemscore.Rot.Weighted>
6.6424

> <Gold.Chemscore.Internal.Correction.Weighted>
   9.000000E+99

> <Gold.Protein.RotatedTorsions>
[ 6907 6896 6895 6894 ] final  -90.41 input  -60.11 | X-H torsion
[ 7974 7965 7964 7962 ] final  -83.91 input  175.53 | X-H torsion
[ 8008 7997 7996 7995 ] final   69.81 input   59.86 | X-H torsion
[ 10167 10162 10161 10158 ] final   57.18 input  -65.29 | X-H torsion
[ 10718 10713 10712 10709 ] final -116.66 input   66.30 | X-H torsion
[ 10763 10752 10751 10750 ] final   65.56 input  -60.55 | X-H torsion
[ 11005 11000 10999 10996 ] final  -34.62 input  -57.11 | X-H torsion

> <Gold.Protein.ActiveResidues>
 VAL166  LYS551  ARG553  GLY616  TRP617  ASP618  TYR619  PRO620  LYS621  CYS622 
 ASP623  PHE694  ASN695  SER759  ASP760  ASP761  ALA762  ILE779  LEU786  VAL792 
 PHE793  MET794  SER795  GLU796  ALA797  LYS798  CYS799  TRP800  GLU811  SER814 

> <Gold.Protein.RotatedAtoms>
  150.6881  134.2437  159.4482 H   0  0  0  0  0  0  0  0  0  0  0  0  # atno 6907 bound_to 6896
  152.0379  134.9726  160.0583 H   0  0  0  0  0  0  0  0  0  0  0  0  # atno 6908 bound_to 6896
  152.1240  133.4334  159.4726 H   0  0  0  0  0  0  0  0  0  0  0  0  # atno 6909 bound_to 6896
  145.5137  140.9538  143.1693 H   0  0  0  0  0  0  0  0  0  0  0  0  # atno 7974 bound_to 7965
  155.7293  140.3492  155.5052 H   0  0  0  0  0  0  0  0  0  0  0  0  # atno 8008 bound_to 7997
  155.9197  140.1065  157.1238 H   0  0  0  0  0  0  0  0  0  0  0  0  # atno 8009 bound_to 7997
  154.4068  140.1252  156.4650 H   0  0  0  0  0  0  0  0  0  0  0  0  # atno 8010 bound_to 7997
  140.2008  144.3990  150.6530 H   0  0  0  0  0  0  0  0  0  0  0  0  # atno 10167 bound_to 10162
  156.0979  130.6147  150.9064 H   0  0  0  0  0  0  0  0  0  0  0  0  # atno 10718 bound_to 10713
  153.0101  135.5352  154.6686 H   0  0  0  0  0  0  0  0  0  0  0  0  # atno 10763 bound_to 10752
  154.5876  135.2856  155.0671 H   0  0  0  0  0  0  0  0  0  0  0  0  # atno 10764 bound_to 10752
  154.1776  135.6521  153.5078 H   0  0  0  0  0  0  0  0  0  0  0  0  # atno 10765 bound_to 10752
  140.9731  133.7098  156.1556 H   0  0  0  0  0  0  0  0  0  0  0  0  # atno 11005 bound_to 11000
  144.7714  139.6727  143.7193 LP  0  0  0  0  0  0  0  0  0  0  0  0  # atno 17320 bound_to 7965
  146.2150  139.5534  142.9656 LP  0  0  0  0  0  0  0  0  0  0  0  0  # atno 17321 bound_to 7965
  140.6392  143.2200  151.6328 LP  0  0  0  0  0  0  0  0  0  0  0  0  # atno 17342 bound_to 10162
  139.5218  144.3182  152.0934 LP  0  0  0  0  0  0  0  0  0  0  0  0  # atno 17343 bound_to 10162
  157.6143  131.0934  150.8738 LP  0  0  0  0  0  0  0  0  0  0  0  0  # atno 17370 bound_to 10713
  156.8872  130.5200  149.5288 LP  0  0  0  0  0  0  0  0  0  0  0  0  # atno 17371 bound_to 10713
  140.7300  134.4265  157.5567 LP  0  0  0  0  0  0  0  0  0  0  0  0  # atno 17394 bound_to 11000
  139.8920  134.8766  156.2294 LP  0  0  0  0  0  0  0  0  0  0  0  0  # atno 17395 bound_to 11000

$$$$
