AV-unprocessed.smi:1319|AV-procd|sdf|5458|dock3
  -GOLD-   22720 5 23D 1   1.00000     0.00000
 Structure written by MMmdl.
 28 29  0  0  0  0  0  0  0  0  1 V2000
  150.7622  138.1786  153.1962 N   0  0  0  0  0  0  0  0  0  0  0  0
  151.3502  138.6409  154.3485 C   0  0  0  0  0  0  0  0  0  0  0  0
  152.2225  137.8152  154.9406 N   0  0  0  0  0  0  0  0  0  0  0  0
  152.7517  138.3381  156.0540 C   0  0  0  0  0  0  0  0  0  0  0  0
  153.6586  137.5522  156.7229 N   0  0  0  0  0  0  0  0  0  0  0  0
  152.5007  139.5377  156.5901 N   0  0  0  0  0  0  0  0  0  0  0  0
  151.6084  140.2309  155.8739 C   0  0  0  0  0  0  0  0  0  0  0  0
  151.2033  141.8436  156.4913 S   0  0  0  0  0  0  0  0  0  0  0  0
  151.9097  141.7045  158.1551 C   0  0  0  0  0  0  0  0  0  0  0  0
  151.5379  142.9073  159.0314 C   0  0  2  0  0  0  0  0  0  0  0  0
  151.8110  144.2606  158.3789 C   0  0  0  0  0  0  0  0  0  0  0  0
  151.9773  145.1972  159.5657 C   0  0  0  0  0  0  0  0  0  0  0  0
  152.1981  144.2588  160.7566 C   0  0  0  0  0  0  0  0  0  0  0  0
  152.3515  142.9640  160.1920 O   0  0  0  0  0  0  0  0  0  0  0  0
  150.9859  139.8644  154.7480 N   0  0  0  0  0  0  0  0  0  0  0  0
  150.0957  138.7499  152.6978 H   0  0  0  0  0  0  0  0  0  0  0  0
  151.0067  137.2714  152.8265 H   0  0  0  0  0  0  0  0  0  0  0  0
  153.8955  136.6351  156.3734 H   0  0  0  0  0  0  0  0  0  0  0  0
  154.1209  137.8975  157.5514 H   0  0  0  0  0  0  0  0  0  0  0  0
  151.5632  140.7770  158.6123 H   0  0  0  0  0  0  0  0  0  0  0  0
  152.9938  141.6319  158.0631 H   0  0  0  0  0  0  0  0  0  0  0  0
  150.4905  142.8477  159.3333 H   0  0  0  0  0  0  0  0  0  0  0  0
  152.7413  144.2243  157.8105 H   0  0  0  0  0  0  0  0  0  0  0  0
  151.0144  144.5695  157.7013 H   0  0  0  0  0  0  0  0  0  0  0  0
  152.8223  145.8704  159.4172 H   0  0  0  0  0  0  0  0  0  0  0  0
  151.0859  145.8065  159.7197 H   0  0  0  0  0  0  0  0  0  0  0  0
  153.0716  144.5322  161.3491 H   0  0  0  0  0  0  0  0  0  0  0  0
  151.3270  144.2627  161.4135 H   0  0  0  0  0  0  0  0  0  0  0  0
  1  2  1  0  0  0  0
  1 16  1  0  0  0  0
  1 17  1  0  0  0  0
  2 15  1  0  0  0  0
  2  3  2  0  0  0  0
  3  4  1  0  0  0  0
  4  5  1  0  0  0  0
  4  6  2  0  0  0  0
  5 18  1  0  0  0  0
  5 19  1  0  0  0  0
  6  7  1  0  0  0  0
  7  8  1  0  0  0  0
  7 15  2  0  0  0  0
  8  9  1  0  0  0  0
  9 10  1  0  0  0  0
  9 20  1  0  0  0  0
  9 21  1  0  0  0  0
 10 14  1  0  0  0  0
 10 11  1  0  0  0  0
 10 22  1  0  0  0  0
 11 12  1  0  0  0  0
 11 23  1  0  0  0  0
 11 24  1  0  0  0  0
 12 13  1  0  0  0  0
 12 25  1  0  0  0  0
 12 26  1  0  0  0  0
 13 14  1  0  0  0  0
 13 27  1  0  0  0  0
 13 28  1  0  0  0  0
M  END
> <s_m_source_file>
AV-unprocessed.smi

> <i_m_source_file_index>
1319

> <i_lp_mmshare_version>
43012

> <i_f3d_flags>
0

> <s_epik_input>
W05IMl1jMW5jKFtOSDJdKW5jKG4xKVNbQ0gyXVtDQEBIXTJbQ0gyXVtDSDJdW0NIMl1PMg==

> <s_epik_cmdline>
J2VwaWtfcHl0aG9uJywgJy1waCcsICc3LjAnLCAnLXRuJywgJzgnLCAnLW1hJywgJzIwMCcsICctbWV0YWxfYmluZGluZycsICctaW1hZScsICc8aW5maWxlLm1hZT4nLCAnLW9tYWUnLCAnPG91dGZpbGUubWFlPic=

> <r_lp_tautomer_probability>
1

> <r_epik_Ionization_Penalty>
0.000877611

> <r_epik_Ionization_Penalty_Charging>
0

> <r_epik_Ionization_Penalty_Neutral>
0.000877611

> <r_epik_State_Penalty>
-0

> <r_epik_Charging_Adjusted_Penalty>
0

> <i_epik_Tot_Q>
0

> <i_epik_Tot_abs_Q>
0

> <r_epik_Metal_State_Penalty>
-0

> <b_epik_Metal_Only>
0

> <s_lp_Force_Field>
OPLS_2005

> <r_lp_Energy>
8.74089

> <b_lp_Chiralities_Consistent>
1

> <s_lp_Variant>
AV-unprocessed.smi:1319-1

> <Gold.Version>
5.8.1

> <Gold.Id.Protein>
6NUR|6NUR_protein|mol2

> <Gold.PLP.Fitness>
42.3585

> <Gold.PLP.PLP>
-31.0263

> <Gold.PLP.part.hbond>
-5.6701

> <Gold.PLP.part.metal>
0.0000

> <Gold.PLP.part.buried>
-2.1496

> <Gold.PLP.part.nonpolar>
-22.5056

> <Gold.PLP.part.repulsive>
0.4374

> <Gold.PLP.ligand.clash>
0.0000

> <Gold.PLP.ligand.torsion>
0.2579

> <Gold.PLP.Chemscore.Hbond>
3.9466

> <Gold.PLP.Chemscore.CHOScore>
0.0000

> <Gold.PLP.Chemscore.Metal>
0.0000

> <Gold.Chemscore.Hbonds>
donor molecule, donor type, donor heavy atom, donor atom, acceptor molecule, acceptor atom, score
      L1  H     1    16       P1  7957  0.96
      L1  H     1    17       P1  7949  1.00
      P1  H  7989  7998       L1    15  1.00
      P1  H  7997  8008       L1     6  0.75
      P1  H 10752 10765       L1     3  0.16

> <Gold.PLP.Chemscore.Internal.Correction>
0.0082

> <Gold.Rescore>
     Score         DG    S(hbond)    S(metal)    S(lipo)     H(rot)  DE(clash)    DE(int)     intcor
     12.27     -13.97       1.82        0.00      63.46       1.96       1.53       0.17       ----

> <Gold.Chemscore.Fitness>
12.2725

> <Gold.Chemscore.DG>
-13.9746

> <Gold.Chemscore.ZeroCoef>
-5.4800

> <Gold.Chemscore.Hbond>
1.8240

> <Gold.Chemscore.Metal>
0.0000

> <Gold.Chemscore.Lipo>
63.4606

> <Gold.Chemscore.Internal_Hbond>
0.0000

> <Gold.Chemscore.DEClash>
1.5342

> <Gold.Chemscore.DEInternal>
0.1679

> <Gold.Chemscore.Rot>
1.9619

> <Gold.Chemscore.Internal.Correction>
   9.000000E+99

> <Gold.Chemscore.Hbonds>
donor molecule, donor type, donor heavy atom, donor atom, acceptor molecule, acceptor atom, score
      L1  H     1    16       P1  7957  0.39
      L1  H     1    17       P1  7949  0.25
      P1  H  7989  7998       L1    15  0.19
      P1  H  7997  8008       L1     6  0.09
      P1  H 10752 10765       L1     3  0.14

> <Gold.Chemscore.Hbond.Weighted>
-6.0920

> <Gold.Chemscore.Metal.Weighted>
-0.0000

> <Gold.Chemscore.Lipo.Weighted>
-7.4249

> <Gold.Chemscore.Internal_Hbond.Weighted>
0.0000

> <Gold.Chemscore.DEClash.Weighted>
1.5342

> <Gold.Chemscore.DEInternal.Weighted>
0.1679

> <Gold.Chemscore.Rot.Weighted>
5.0224

> <Gold.Chemscore.Internal.Correction.Weighted>
   9.000000E+99

> <Gold.Protein.RotatedTorsions>
[ 6907 6896 6895 6894 ] final  -33.44 input  -60.11 | X-H torsion
[ 7974 7965 7964 7962 ] final  -28.57 input  175.53 | X-H torsion
[ 8008 7997 7996 7995 ] final  -67.98 input   59.86 | X-H torsion
[ 10167 10162 10161 10158 ] final   32.62 input  -65.29 | X-H torsion
[ 10718 10713 10712 10709 ] final   98.12 input   66.30 | X-H torsion
[ 10763 10752 10751 10750 ] final  178.33 input  -60.55 | X-H torsion
[ 11005 11000 10999 10996 ] final -159.05 input  -57.11 | X-H torsion

> <Gold.Protein.ActiveResidues>
 VAL166  LYS551  ARG553  GLY616  TRP617  ASP618  TYR619  PRO620  LYS621  CYS622 
 ASP623  PHE694  ASN695  SER759  ASP760  ASP761  ALA762  ILE779  LEU786  VAL792 
 PHE793  MET794  SER795  GLU796  ALA797  LYS798  CYS799  TRP800  GLU811  SER814 

> <Gold.Protein.RotatedAtoms>
  151.0656  134.9765  159.8282 H   0  0  0  0  0  0  0  0  0  0  0  0  # atno 6907 bound_to 6896
  152.5401  134.2363  159.8854 H   0  0  0  0  0  0  0  0  0  0  0  0  # atno 6908 bound_to 6896
  151.2385  133.4369  159.2640 H   0  0  0  0  0  0  0  0  0  0  0  0  # atno 6909 bound_to 6896
  146.1279  140.5299  142.8706 H   0  0  0  0  0  0  0  0  0  0  0  0  # atno 7974 bound_to 7965
  154.4836  140.0882  156.7436 H   0  0  0  0  0  0  0  0  0  0  0  0  # atno 8008 bound_to 7997
  155.4406  140.3453  155.4271 H   0  0  0  0  0  0  0  0  0  0  0  0  # atno 8009 bound_to 7997
  156.1229  140.1479  156.9167 H   0  0  0  0  0  0  0  0  0  0  0  0  # atno 8010 bound_to 7997
  140.4482  144.1087  150.6186 H   0  0  0  0  0  0  0  0  0  0  0  0  # atno 10167 bound_to 10162
  157.6901  131.0630  150.4748 H   0  0  0  0  0  0  0  0  0  0  0  0  # atno 10718 bound_to 10713
  154.5062  135.2786  155.1380 H   0  0  0  0  0  0  0  0  0  0  0  0  # atno 10763 bound_to 10752
  154.2994  135.6251  153.5422 H   0  0  0  0  0  0  0  0  0  0  0  0  # atno 10764 bound_to 10752
  152.9911  135.5693  154.5517 H   0  0  0  0  0  0  0  0  0  0  0  0  # atno 10765 bound_to 10752
  140.6469  134.4492  157.5234 H   0  0  0  0  0  0  0  0  0  0  0  0  # atno 11005 bound_to 11000
  144.7660  140.5532  143.6702 LP  0  0  0  0  0  0  0  0  0  0  0  0  # atno 17320 bound_to 7965
  145.5326  139.1475  143.3491 LP  0  0  0  0  0  0  0  0  0  0  0  0  # atno 17321 bound_to 7965
  140.4238  143.2599  151.9681 LP  0  0  0  0  0  0  0  0  0  0  0  0  # atno 17342 bound_to 10162
  139.4794  144.5806  151.7938 LP  0  0  0  0  0  0  0  0  0  0  0  0  # atno 17343 bound_to 10162
  156.5084  130.4133  149.6315 LP  0  0  0  0  0  0  0  0  0  0  0  0  # atno 17370 bound_to 10713
  156.3264  130.7308  151.2229 LP  0  0  0  0  0  0  0  0  0  0  0  0  # atno 17371 bound_to 10713
  139.9060  134.8449  156.1706 LP  0  0  0  0  0  0  0  0  0  0  0  0  # atno 17394 bound_to 11000
  141.0566  133.6862  156.1872 LP  0  0  0  0  0  0  0  0  0  0  0  0  # atno 17395 bound_to 11000

$$$$
