AV-unprocessed.smi:3236|AV-procd|sdf|12361|dock1
  -GOLD-   2272018223D 1   1.00000     0.00000
 Structure written by MMmdl.
 41 42  0  0  0  0  0  0  0  0  2 V2000
  153.2755  142.5984  162.7811 C   0  0  0  0  0  0  0  0  0  0  0  0
  153.0892  143.3579  161.4606 C   0  0  0  0  0  0  0  0  0  0  0  0
  151.6989  144.0254  161.3784 C   0  0  0  0  0  0  0  0  0  0  0  0
  151.4767  144.6899  160.0072 C   0  0  0  0  0  0  0  0  0  0  0  0
  151.6619  143.6797  158.9582 N   0  0  0  0  0  0  0  0  0  0  0  0
  150.6357  143.1971  158.2160 C   0  0  0  0  0  0  0  0  0  0  0  0
  149.4842  143.6215  158.3304 O   0  0  0  0  0  0  0  0  0  0  0  0
  150.9137  142.0806  157.1978 C   0  0  0  0  0  0  0  0  0  0  0  0
  150.2543  142.3246  155.8987 N   0  3  0  0  0  0  0  0  0  0  0  0
  149.0823  141.4634  155.6439 C   0  0  0  0  0  0  0  0  0  0  0  0
  149.3015  140.5611  154.4169 C   0  0  0  0  0  0  0  0  0  0  0  0
  150.3692  139.5935  154.6072 N   0  0  0  0  0  0  0  0  0  0  0  0
  150.6943  138.5116  153.8156 C   0  0  0  0  0  0  0  0  0  0  0  0
  151.7824  137.9080  154.3779 C   0  0  0  0  0  0  0  0  0  0  0  0
  152.0639  138.7114  155.5179 C   0  0  0  0  0  0  0  0  0  0  0  0
  151.2193  139.7216  155.6495 N   0  0  0  0  0  0  0  0  0  0  0  0
  153.0460  143.1892  158.9234 C   0  0  0  0  0  0  0  0  0  0  0  0
  153.3391  142.4466  160.2393 C   0  0  0  0  0  0  0  0  0  0  0  0
  152.5591  141.7815  162.8726 H   0  0  0  0  0  0  0  0  0  0  0  0
  153.1374  143.2598  163.6369 H   0  0  0  0  0  0  0  0  0  0  0  0
  154.2769  142.1730  162.8515 H   0  0  0  0  0  0  0  0  0  0  0  0
  153.8354  144.1535  161.4322 H   0  0  0  0  0  0  0  0  0  0  0  0
  150.9201  143.2803  161.5478 H   0  0  0  0  0  0  0  0  0  0  0  0
  151.5934  144.7675  162.1705 H   0  0  0  0  0  0  0  0  0  0  0  0
  150.4917  145.1578  159.9776 H   0  0  0  0  0  0  0  0  0  0  0  0
  152.1930  145.4996  159.8614 H   0  0  0  0  0  0  0  0  0  0  0  0
  151.9898  141.9984  157.0392 H   0  0  0  0  0  0  0  0  0  0  0  0
  150.5556  141.1301  157.5960 H   0  0  0  0  0  0  0  0  0  0  0  0
  149.9541  143.2890  155.8740 H   0  0  0  0  0  0  0  0  0  0  0  0
  148.9003  140.8449  156.5235 H   0  0  0  0  0  0  0  0  0  0  0  0
  148.1956  142.0840  155.5065 H   0  0  0  0  0  0  0  0  0  0  0  0
  148.3826  140.0252  154.1751 H   0  0  0  0  0  0  0  0  0  0  0  0
  149.5475  141.1696  153.5458 H   0  0  0  0  0  0  0  0  0  0  0  0
  150.1308  138.2618  152.9286 H   0  0  0  0  0  0  0  0  0  0  0  0
  152.3025  137.0296  154.0251 H   0  0  0  0  0  0  0  0  0  0  0  0
  152.8521  138.5925  156.2469 H   0  0  0  0  0  0  0  0  0  0  0  0
  153.2631  142.5419  158.0755 H   0  0  0  0  0  0  0  0  0  0  0  0
  153.7238  144.0378  158.8177 H   0  0  0  0  0  0  0  0  0  0  0  0
  154.3705  142.0926  160.2432 H   0  0  0  0  0  0  0  0  0  0  0  0
  152.7071  141.5593  160.3032 H   0  0  0  0  0  0  0  0  0  0  0  0
  150.9317  142.1814  155.1633 H   0  0  0  0  0  0  0  0  0  0  0  0
  1  2  1  0  0  0  0
  1 19  1  0  0  0  0
  1 20  1  0  0  0  0
  1 21  1  0  0  0  0
  2 18  1  0  0  0  0
  2  3  1  0  0  0  0
  2 22  1  0  0  0  0
  3  4  1  0  0  0  0
  3 23  1  0  0  0  0
  3 24  1  0  0  0  0
  4  5  1  0  0  0  0
  4 25  1  0  0  0  0
  4 26  1  0  0  0  0
  5  6  1  0  0  0  0
  5 17  1  0  0  0  0
  6  7  2  0  0  0  0
  6  8  1  0  0  0  0
  8  9  1  0  0  0  0
  8 27  1  0  0  0  0
  8 28  1  0  0  0  0
  9 10  1  0  0  0  0
  9 29  1  0  0  0  0
  9 41  1  0  0  0  0
 10 11  1  0  0  0  0
 10 30  1  0  0  0  0
 10 31  1  0  0  0  0
 11 12  1  0  0  0  0
 11 32  1  0  0  0  0
 11 33  1  0  0  0  0
 12 16  1  0  0  0  0
 12 13  1  0  0  0  0
 13 14  2  0  0  0  0
 13 34  1  0  0  0  0
 14 15  1  0  0  0  0
 14 35  1  0  0  0  0
 15 16  2  0  0  0  0
 15 36  1  0  0  0  0
 17 18  1  0  0  0  0
 17 37  1  0  0  0  0
 17 38  1  0  0  0  0
 18 39  1  0  0  0  0
 18 40  1  0  0  0  0
M  CHG  1   9   1
M  END
> <s_m_source_file>
AV-unprocessed.smi

> <i_m_source_file_index>
3236

> <i_lp_mmshare_version>
43012

> <i_f3d_flags>
0

> <s_epik_input>
W0NIM11bQ0hdMVtDSDJdW0NIMl1OKFtDSDJdW0NIMl0xKUMoPU8pW0NIMl1bTkhdW0NIMl1bQ0gyXW4yW2NIXVtjSF1bY0hdbjI=

> <s_epik_cmdline>
J2VwaWtfcHl0aG9uJywgJy1waCcsICc3LjAnLCAnLXRuJywgJzgnLCAnLW1hJywgJzIwMCcsICctbWV0YWxfYmluZGluZycsICctaW1hZScsICc8aW5maWxlLm1hZT4nLCAnLW9tYWUnLCAnPG91dGZpbGUubWFlPic=

> <r_lp_tautomer_probability>
1

> <r_epik_Ionization_Penalty>
0.186057

> <r_epik_Ionization_Penalty_Charging>
0.186055

> <r_epik_Ionization_Penalty_Neutral>
2.36809e-06

> <r_epik_State_Penalty>
0.175633

> <r_epik_Charging_Adjusted_Penalty>
0.361687

> <i_epik_Tot_Q>
1

> <i_epik_Tot_abs_Q>
1

> <r_epik_Metal_State_Penalty>
0.176075

> <b_epik_Metal_Only>
0

> <s_lp_Force_Field>
OPLS_2005

> <r_lp_Energy>
21.8815

> <b_lp_Chiralities_Consistent>
1

> <s_lp_Variant>
AV-unprocessed.smi:3236-1

> <Gold.Version>
5.8.1

> <Gold.Id.Protein>
6NUR|6NUR_protein|mol2

> <Gold.PLP.Fitness>
53.0932

> <Gold.PLP.PLP>
-43.5708

> <Gold.PLP.part.hbond>
-1.0000

> <Gold.PLP.part.metal>
0.0000

> <Gold.PLP.part.buried>
-3.8855

> <Gold.PLP.part.nonpolar>
-38.9563

> <Gold.PLP.part.repulsive>
2.4552

> <Gold.PLP.ligand.clash>
0.0000

> <Gold.PLP.ligand.torsion>
1.0404

> <Gold.PLP.Chemscore.Hbond>
2.0000

> <Gold.PLP.Chemscore.CHOScore>
1.8308

> <Gold.PLP.Chemscore.Metal>
0.0000

> <Gold.Chemscore.Hbonds>
donor molecule, donor type, donor heavy atom, donor atom, acceptor molecule, acceptor atom, score
      L1  H     9    29       P1  8028  2.00
      L1  C    13    34       P1  7948  1.00
      L1  C    13    34       P1  7949  0.02
      L1  C    13    34       P1  7957  0.82

> <Gold.PLP.Chemscore.Internal.Correction>
0.1107

> <Gold.Rescore>
     Score         DG    S(hbond)    S(metal)    S(lipo)     H(rot)  DE(clash)    DE(int)     intcor
     15.31     -17.33       0.99        0.00     112.37       1.80       0.67       1.35       ----

> <Gold.Chemscore.Fitness>
15.3084

> <Gold.Chemscore.DG>
-17.3310

> <Gold.Chemscore.ZeroCoef>
-5.4800

> <Gold.Chemscore.Hbond>
0.9886

> <Gold.Chemscore.Metal>
0.0000

> <Gold.Chemscore.Lipo>
112.3726

> <Gold.Chemscore.Internal_Hbond>
0.0000

> <Gold.Chemscore.DEClash>
0.6749

> <Gold.Chemscore.DEInternal>
1.3476

> <Gold.Chemscore.Rot>
1.7963

> <Gold.Chemscore.Internal.Correction>
   9.000000E+99

> <Gold.Chemscore.Hbonds>
donor molecule, donor type, donor heavy atom, donor atom, acceptor molecule, acceptor atom, score
      L1  H     9    29       P1  8028  1.00

> <Gold.Chemscore.Hbond.Weighted>
-3.3019

> <Gold.Chemscore.Metal.Weighted>
-0.0000

> <Gold.Chemscore.Lipo.Weighted>
-13.1476

> <Gold.Chemscore.Internal_Hbond.Weighted>
0.0000

> <Gold.Chemscore.DEClash.Weighted>
0.6749

> <Gold.Chemscore.DEInternal.Weighted>
1.3476

> <Gold.Chemscore.Rot.Weighted>
4.5985

> <Gold.Chemscore.Internal.Correction.Weighted>
   9.000000E+99

> <Gold.Protein.RotatedTorsions>
[ 6907 6896 6895 6894 ] final   71.24 input  -60.11 | X-H torsion
[ 7974 7965 7964 7962 ] final  140.32 input  175.53 | X-H torsion
[ 8008 7997 7996 7995 ] final  -10.17 input   59.86 | X-H torsion
[ 10167 10162 10161 10158 ] final   68.67 input  -65.29 | X-H torsion
[ 10718 10713 10712 10709 ] final -146.99 input   66.30 | X-H torsion
[ 10763 10752 10751 10750 ] final -168.92 input  -60.55 | X-H torsion
[ 11005 11000 10999 10996 ] final  -81.91 input  -57.11 | X-H torsion

> <Gold.Protein.ActiveResidues>
 VAL166  LYS551  ARG553  GLY616  TRP617  ASP618  TYR619  PRO620  LYS621  CYS622 
 ASP623  PHE694  ASN695  SER759  ASP760  ASP761  ALA762  ILE779  LEU786  VAL792 
 PHE793  MET794  SER795  GLU796  ALA797  LYS798  CYS799  TRP800  GLU811  SER814 

> <Gold.Protein.RotatedAtoms>
  152.4798  134.4750  159.9647 H   0  0  0  0  0  0  0  0  0  0  0  0  # atno 6907 bound_to 6896
  151.4758  133.3552  159.2838 H   0  0  0  0  0  0  0  0  0  0  0  0  # atno 6908 bound_to 6896
  150.8862  134.8286  159.7321 H   0  0  0  0  0  0  0  0  0  0  0  0  # atno 6909 bound_to 6896
  144.9198  139.5183  143.5669 H   0  0  0  0  0  0  0  0  0  0  0  0  # atno 7974 bound_to 7965
  154.5579  140.2336  155.8381 H   0  0  0  0  0  0  0  0  0  0  0  0  # atno 8008 bound_to 7997
  156.2004  140.3054  155.9475 H   0  0  0  0  0  0  0  0  0  0  0  0  # atno 8009 bound_to 7997
  155.2944  140.0428  157.3016 H   0  0  0  0  0  0  0  0  0  0  0  0  # atno 8010 bound_to 7997
  140.0761  144.5111  150.7194 H   0  0  0  0  0  0  0  0  0  0  0  0  # atno 10167 bound_to 10162
  156.4019  130.7938  151.2149 H   0  0  0  0  0  0  0  0  0  0  0  0  # atno 10718 bound_to 10713
  154.6577  135.2920  154.9906 H   0  0  0  0  0  0  0  0  0  0  0  0  # atno 10763 bound_to 10752
  154.0977  135.6581  153.4867 H   0  0  0  0  0  0  0  0  0  0  0  0  # atno 10764 bound_to 10752
  153.0412  135.5235  154.7514 H   0  0  0  0  0  0  0  0  0  0  0  0  # atno 10765 bound_to 10752
  141.1665  133.7219  156.8493 H   0  0  0  0  0  0  0  0  0  0  0  0  # atno 11005 bound_to 11000
  146.3199  139.8068  142.8954 LP  0  0  0  0  0  0  0  0  0  0  0  0  # atno 17320 bound_to 7965
  145.3315  141.0267  143.3443 LP  0  0  0  0  0  0  0  0  0  0  0  0  # atno 17321 bound_to 7965
  140.7101  143.2498  151.4607 LP  0  0  0  0  0  0  0  0  0  0  0  0  # atno 17342 bound_to 10162
  139.5807  144.1716  152.1964 LP  0  0  0  0  0  0  0  0  0  0  0  0  # atno 17343 bound_to 10162
  157.7504  131.0284  150.4048 LP  0  0  0  0  0  0  0  0  0  0  0  0  # atno 17370 bound_to 10713
  156.4329  130.3976  149.6748 LP  0  0  0  0  0  0  0  0  0  0  0  0  # atno 17371 bound_to 10713
  140.1927  134.8954  157.3079 LP  0  0  0  0  0  0  0  0  0  0  0  0  # atno 17394 bound_to 11000
  140.2272  134.3952  155.7538 LP  0  0  0  0  0  0  0  0  0  0  0  0  # atno 17395 bound_to 11000

$$$$
