AV-unprocessed.smi:315|AV-procd|sdf|2318|dock3
  -GOLD-   2262022223D 1   1.00000     0.00000
 Structure written by MMmdl.
 47 49  0  0  0  0  0  0  0  0  2 V2000
  152.5158  138.8998  154.6427 C   0  0  0  0  0  0  0  0  0  0  0  0
  151.3568  138.0081  155.0946 C   0  0  0  0  0  0  0  0  0  0  0  0
  150.2618  138.2087  154.2075 O   0  0  0  0  0  0  0  0  0  0  0  0
  149.5834  139.4121  154.2469 C   0  0  0  0  0  0  0  0  0  0  0  0
  150.2037  140.4890  154.7901 N   0  0  0  0  0  0  0  0  0  0  0  0
  149.5371  141.6612  154.8280 C   0  0  0  0  0  0  0  0  0  0  0  0
  148.2271  141.8190  154.3385 C   0  0  0  0  0  0  0  0  0  0  0  0
  147.5814  140.7027  153.7751 C   0  0  0  0  0  0  0  0  0  0  0  0
  148.2748  139.4700  153.7153 C   0  0  0  0  0  0  0  0  0  0  0  0
  147.7232  138.2728  153.1860 N   0  0  0  0  0  0  0  0  0  0  0  0
  146.4482  137.9986  152.8507 C   0  0  0  0  0  0  0  0  0  0  0  0
  145.4962  138.7560  153.0222 O   0  0  0  0  0  0  0  0  0  0  0  0
  146.2845  136.7921  152.2793 N   0  0  0  0  0  0  0  0  0  0  0  0
  145.0400  136.1881  151.8002 C   0  0  2  0  0  0  0  0  0  0  0  0
  143.8155  136.4609  152.6981 C   0  0  0  0  0  0  0  0  0  0  0  0
  143.0078  135.1484  152.7019 C   0  0  0  0  0  0  0  0  0  0  0  0
  143.7124  134.2547  151.7634 N   0  3  2  0  0  0  0  0  0  0  0  0
  143.5310  132.7988  151.9517 C   0  0  0  0  0  0  0  0  0  0  0  0
  144.2775  132.0449  150.8325 C   0  0  0  0  0  0  0  0  0  0  0  0
  145.7559  132.4755  150.7387 C   0  0  0  0  0  0  0  0  0  0  0  0
  145.8835  134.0076  150.6368 C   0  0  0  0  0  0  0  0  0  0  0  0
  145.1248  134.6626  151.8023 C   0  0  1  0  0  0  0  0  0  0  0  0
  153.3793  138.7778  155.2966 H   0  0  0  0  0  0  0  0  0  0  0  0
  152.2288  139.9514  154.6600 H   0  0  0  0  0  0  0  0  0  0  0  0
  152.8270  138.6528  153.6275 H   0  0  0  0  0  0  0  0  0  0  0  0
  151.6701  136.9629  155.0822 H   0  0  0  0  0  0  0  0  0  0  0  0
  151.0739  138.2660  156.1165 H   0  0  0  0  0  0  0  0  0  0  0  0
  150.0612  142.4971  155.2671 H   0  0  0  0  0  0  0  0  0  0  0  0
  147.7269  142.7743  154.3976 H   0  0  0  0  0  0  0  0  0  0  0  0
  146.5703  140.8118  153.4157 H   0  0  0  0  0  0  0  0  0  0  0  0
  148.4017  137.5693  152.9338 H   0  0  0  0  0  0  0  0  0  0  0  0
  147.1188  136.2342  152.1657 H   0  0  0  0  0  0  0  0  0  0  0  0
  144.8277  136.5267  150.7838 H   0  0  0  0  0  0  0  0  0  0  0  0
  144.1165  136.7106  153.7165 H   0  0  0  0  0  0  0  0  0  0  0  0
  143.2266  137.2963  152.3171 H   0  0  0  0  0  0  0  0  0  0  0  0
  143.0050  134.7148  153.7033 H   0  0  0  0  0  0  0  0  0  0  0  0
  141.9727  135.2959  152.3931 H   0  0  0  0  0  0  0  0  0  0  0  0
  143.9087  132.5006  152.9310 H   0  0  0  0  0  0  0  0  0  0  0  0
  142.4683  132.5555  151.9271 H   0  0  0  0  0  0  0  0  0  0  0  0
  144.2112  130.9691  150.9975 H   0  0  0  0  0  0  0  0  0  0  0  0
  143.7867  132.2398  149.8780 H   0  0  0  0  0  0  0  0  0  0  0  0
  146.2912  132.1254  151.6224 H   0  0  0  0  0  0  0  0  0  0  0  0
  146.2322  132.0008  149.8803 H   0  0  0  0  0  0  0  0  0  0  0  0
  146.9341  134.2990  150.6562 H   0  0  0  0  0  0  0  0  0  0  0  0
  145.4797  134.3508  149.6833 H   0  0  0  0  0  0  0  0  0  0  0  0
  145.5557  134.3289  152.7496 H   0  0  0  0  0  0  0  0  0  0  0  0
  143.3742  134.4839  150.8396 H   0  0  0  0  0  0  0  0  0  0  0  0
  1  2  1  0  0  0  0
  1 23  1  0  0  0  0
  1 24  1  0  0  0  0
  1 25  1  0  0  0  0
  2  3  1  0  0  0  0
  2 26  1  0  0  0  0
  2 27  1  0  0  0  0
  3  4  1  0  0  0  0
  4  9  1  0  0  0  0
  4  5  2  0  0  0  0
  5  6  1  0  0  0  0
  6  7  2  0  0  0  0
  6 28  1  0  0  0  0
  7  8  1  0  0  0  0
  7 29  1  0  0  0  0
  8  9  2  0  0  0  0
  8 30  1  0  0  0  0
  9 10  1  0  0  0  0
 10 11  1  0  0  0  0
 10 31  1  0  0  0  0
 11 12  2  0  0  0  0
 11 13  1  0  0  0  0
 13 14  1  0  0  0  0
 13 32  1  0  0  0  0
 14 22  1  0  0  0  0
 14 15  1  0  0  0  0
 14 33  1  0  0  0  0
 15 16  1  0  0  0  0
 15 34  1  0  0  0  0
 15 35  1  0  0  0  0
 16 17  1  0  0  0  0
 16 36  1  0  0  0  0
 16 37  1  0  0  0  0
 17 22  1  0  0  0  0
 17 18  1  0  0  0  0
 17 47  1  0  0  0  0
 18 19  1  0  0  0  0
 18 38  1  0  0  0  0
 18 39  1  0  0  0  0
 19 20  1  0  0  0  0
 19 40  1  0  0  0  0
 19 41  1  0  0  0  0
 20 21  1  0  0  0  0
 20 42  1  0  0  0  0
 20 43  1  0  0  0  0
 21 22  1  0  0  0  0
 21 44  1  0  0  0  0
 21 45  1  0  0  0  0
 22 46  1  0  0  0  0
M  CHG  1  17   1
M  END
> <s_m_source_file>
AV-unprocessed.smi

> <i_m_source_file_index>
315

> <i_lp_mmshare_version>
43012

> <i_f3d_flags>
0

> <s_epik_input>
W0NIM11bQ0gyXU9jMW5bY0hdW2NIXVtjSF1jMVtOSF1DKD1PKVtOSF1bQ0BIXShbQ0gyXVtDSDJdMilbQ0BASF0oTjIzKVtDSDJdW0NIMl1bQ0gyXVtDSDJdMw==

> <s_epik_cmdline>
J2VwaWtfcHl0aG9uJywgJy1waCcsICc3LjAnLCAnLXRuJywgJzgnLCAnLW1hJywgJzIwMCcsICctbWV0YWxfYmluZGluZycsICctaW1hZScsICc8aW5maWxlLm1hZT4nLCAnLW9tYWUnLCAnPG91dGZpbGUubWFlPic=

> <r_lp_tautomer_probability>
1

> <r_epik_Ionization_Penalty>
0.00106455

> <r_epik_Ionization_Penalty_Charging>
0.000974069

> <r_epik_Ionization_Penalty_Neutral>
9.04821e-05

> <r_epik_State_Penalty>
0.000633842

> <r_epik_Charging_Adjusted_Penalty>
0.00160791

> <i_epik_Tot_Q>
1

> <i_epik_Tot_abs_Q>
1

> <r_epik_Metal_State_Penalty>
-0

> <b_epik_Metal_Only>
0

> <s_lp_Force_Field>
OPLS_2005

> <r_lp_Energy>
47.5763

> <b_lp_Chiralities_Consistent>
1

> <s_lp_Variant>
AV-unprocessed.smi:315-3

> <Gold.Version>
5.8.1

> <Gold.Id.Protein>
6NUR|6NUR_protein|mol2

> <Gold.PLP.Fitness>
45.8678

> <Gold.PLP.PLP>
-35.9553

> <Gold.PLP.part.hbond>
-3.3307

> <Gold.PLP.part.metal>
0.0000

> <Gold.PLP.part.buried>
-1.1977

> <Gold.PLP.part.nonpolar>
-36.2622

> <Gold.PLP.part.repulsive>
4.3926

> <Gold.PLP.ligand.clash>
0.0000

> <Gold.PLP.ligand.torsion>
0.6759

> <Gold.PLP.Chemscore.Hbond>
2.9435

> <Gold.PLP.Chemscore.CHOScore>
0.8068

> <Gold.PLP.Chemscore.Metal>
0.0000

> <Gold.Chemscore.Hbonds>
donor molecule, donor type, donor heavy atom, donor atom, acceptor molecule, acceptor atom, score
      L1  H    10    31       P1  7948  1.00
      L1  H    13    32       P1  7948  0.94
      P1  H  7989  7998       L1     5  0.96
      L1  C     6    28       P1  8028  0.80

> <Gold.PLP.Chemscore.Internal.Correction>
0.0135

> <Gold.Rescore>
     Score         DG    S(hbond)    S(metal)    S(lipo)     H(rot)  DE(clash)    DE(int)     intcor
     12.92     -18.88       1.91        0.00      90.21       1.38       1.56       4.40       ----

> <Gold.Chemscore.Fitness>
12.9167

> <Gold.Chemscore.DG>
-18.8843

> <Gold.Chemscore.ZeroCoef>
-5.4800

> <Gold.Chemscore.Hbond>
1.9088

> <Gold.Chemscore.Metal>
0.0000

> <Gold.Chemscore.Lipo>
90.2062

> <Gold.Chemscore.Internal_Hbond>
0.0000

> <Gold.Chemscore.DEClash>
1.5647

> <Gold.Chemscore.DEInternal>
4.4029

> <Gold.Chemscore.Rot>
1.3770

> <Gold.Chemscore.Internal.Correction>
   9.000000E+99

> <Gold.Chemscore.Hbonds>
donor molecule, donor type, donor heavy atom, donor atom, acceptor molecule, acceptor atom, score
      L1  H    10    31       P1  7948  0.95
      L1  H    13    32       P1  7948  0.91
      P1  H  7989  7998       L1     5  0.11

> <Gold.Chemscore.Hbond.Weighted>
-6.3753

> <Gold.Chemscore.Metal.Weighted>
-0.0000

> <Gold.Chemscore.Lipo.Weighted>
-10.5541

> <Gold.Chemscore.Internal_Hbond.Weighted>
0.0000

> <Gold.Chemscore.DEClash.Weighted>
1.5647

> <Gold.Chemscore.DEInternal.Weighted>
4.4029

> <Gold.Chemscore.Rot.Weighted>
3.5252

> <Gold.Chemscore.Internal.Correction.Weighted>
   9.000000E+99

> <Gold.Protein.RotatedTorsions>
[ 6907 6896 6895 6894 ] final  -12.10 input  -60.11 | X-H torsion
[ 7974 7965 7964 7962 ] final -124.23 input  175.53 | X-H torsion
[ 8008 7997 7996 7995 ] final   22.14 input   59.86 | X-H torsion
[ 10167 10162 10161 10158 ] final -146.36 input  -65.29 | X-H torsion
[ 10718 10713 10712 10709 ] final -129.79 input   66.30 | X-H torsion
[ 10763 10752 10751 10750 ] final   64.66 input  -60.55 | X-H torsion
[ 11005 11000 10999 10996 ] final  -71.92 input  -57.11 | X-H torsion

> <Gold.Protein.ActiveResidues>
 VAL166  LYS551  ARG553  GLY616  TRP617  ASP618  TYR619  PRO620  LYS621  CYS622 
 ASP623  PHE694  ASN695  SER759  ASP760  ASP761  ALA762  ILE779  LEU786  VAL792 
 PHE793  MET794  SER795  GLU796  ALA797  LYS798  CYS799  TRP800  GLU811  SER814 

> <Gold.Protein.RotatedAtoms>
  151.3758  135.0931  159.9480 H   0  0  0  0  0  0  0  0  0  0  0  0  # atno 6907 bound_to 6896
  152.5122  133.9120  159.7503 H   0  0  0  0  0  0  0  0  0  0  0  0  # atno 6908 bound_to 6896
  150.9543  133.6460  159.2795 H   0  0  0  0  0  0  0  0  0  0  0  0  # atno 6909 bound_to 6896
  145.0102  140.7899  143.4443 H   0  0  0  0  0  0  0  0  0  0  0  0  # atno 7974 bound_to 7965
  154.9612  140.3078  155.5030 H   0  0  0  0  0  0  0  0  0  0  0  0  # atno 8008 bound_to 7997
  156.2977  140.2301  156.4636 H   0  0  0  0  0  0  0  0  0  0  0  0  # atno 8009 bound_to 7997
  154.7963  140.0436  157.1228 H   0  0  0  0  0  0  0  0  0  0  0  0  # atno 8010 bound_to 7997
  139.7721  143.8223  152.2626 H   0  0  0  0  0  0  0  0  0  0  0  0  # atno 10167 bound_to 10162
  156.2081  130.6901  151.0618 H   0  0  0  0  0  0  0  0  0  0  0  0  # atno 10718 bound_to 10713
  153.0065  135.5385  154.6545 H   0  0  0  0  0  0  0  0  0  0  0  0  # atno 10763 bound_to 10752
  154.5769  135.2846  155.0774 H   0  0  0  0  0  0  0  0  0  0  0  0  # atno 10764 bound_to 10752
  154.1918  135.6499  153.5114 H   0  0  0  0  0  0  0  0  0  0  0  0  # atno 10765 bound_to 10752
  141.1600  133.6831  156.6979 H   0  0  0  0  0  0  0  0  0  0  0  0  # atno 11005 bound_to 11000
  145.2033  139.2241  143.5181 LP  0  0  0  0  0  0  0  0  0  0  0  0  # atno 17320 bound_to 7965
  146.3468  140.1855  142.8589 LP  0  0  0  0  0  0  0  0  0  0  0  0  # atno 17321 bound_to 7965
  139.8261  144.7274  150.9511 LP  0  0  0  0  0  0  0  0  0  0  0  0  # atno 17342 bound_to 10162
  140.7814  143.4114  151.0987 LP  0  0  0  0  0  0  0  0  0  0  0  0  # atno 17343 bound_to 10162
  157.7023  131.0771  150.6779 LP  0  0  0  0  0  0  0  0  0  0  0  0  # atno 17370 bound_to 10713
  156.6838  130.4575  149.5620 LP  0  0  0  0  0  0  0  0  0  0  0  0  # atno 17371 bound_to 10713
  140.2981  134.8186  157.4074 LP  0  0  0  0  0  0  0  0  0  0  0  0  # atno 17394 bound_to 11000
  140.1287  134.5124  155.8124 LP  0  0  0  0  0  0  0  0  0  0  0  0  # atno 17395 bound_to 11000

$$$$
