AV-unprocessed.smi:1841|AV-procd|sdf|7496|dock7
  -GOLD-   22720 9193D 1   1.00000     0.00000
 Structure written by MMmdl.
 40 41  0  0  0  0  0  0  0  0  1 V2000
  153.2534  137.8182  156.8597 C   0  0  0  0  0  0  0  0  0  0  0  0
  153.2295  139.2176  157.0800 O   0  0  0  0  0  0  0  0  0  0  0  0
  151.9826  139.8003  156.7391 C   0  0  0  0  0  0  0  0  0  0  0  0
  151.6872  139.5257  155.2617 C   0  0  0  0  0  0  0  0  0  0  0  0
  150.7478  140.4898  154.7961 O   0  0  0  0  0  0  0  0  0  0  0  0
  149.5035  140.0552  154.3886 C   0  0  0  0  0  0  0  0  0  0  0  0
  148.4474  140.9860  154.3420 C   0  0  0  0  0  0  0  0  0  0  0  0
  147.1745  140.5544  153.9223 C   0  0  0  0  0  0  0  0  0  0  0  0
  146.9950  139.1959  153.5643 C   0  0  0  0  0  0  0  0  0  0  0  0
  145.7732  138.6219  153.1136 N   0  0  0  0  0  0  0  0  0  0  0  0
  145.2934  137.3749  153.2797 C   0  0  0  0  0  0  0  0  0  0  0  0
  145.8804  136.4657  153.8653 O   0  0  0  0  0  0  0  0  0  0  0  0
  143.9091  137.1086  152.6657 C   0  0  2  0  0  0  0  0  0  0  0  0
  142.8736  136.7437  153.7492 C   0  0  0  0  0  0  0  0  0  0  0  0
  142.5401  135.2886  153.4659 C   0  0  0  0  0  0  0  0  0  0  0  0
  141.8061  134.6182  154.1904 O   0  0  0  0  0  0  0  0  0  0  0  0
  143.1508  134.8655  152.3560 N   0  0  0  0  0  0  0  0  0  0  0  0
  143.0659  133.5232  151.7974 C   0  0  0  0  0  0  0  0  0  0  0  0
  143.9144  135.9084  151.6926 C   0  0  0  0  0  0  0  0  0  0  0  0
  148.1183  138.3463  153.6464 C   0  0  0  0  0  0  0  0  0  0  0  0
  149.3410  138.7538  154.0463 N   0  0  0  0  0  0  0  0  0  0  0  0
  154.2282  137.4196  157.1406 H   0  0  0  0  0  0  0  0  0  0  0  0
  153.0829  137.5817  155.8087 H   0  0  0  0  0  0  0  0  0  0  0  0
  152.4972  137.3112  157.4603 H   0  0  0  0  0  0  0  0  0  0  0  0
  151.1992  139.3566  157.3556 H   0  0  0  0  0  0  0  0  0  0  0  0
  151.9853  140.8739  156.9340 H   0  0  0  0  0  0  0  0  0  0  0  0
  152.6107  139.5570  154.6809 H   0  0  0  0  0  0  0  0  0  0  0  0
  151.2608  138.5262  155.1617 H   0  0  0  0  0  0  0  0  0  0  0  0
  148.6120  142.0170  154.6192 H   0  0  0  0  0  0  0  0  0  0  0  0
  146.3780  141.2794  153.8820 H   0  0  0  0  0  0  0  0  0  0  0  0
  145.1811  139.2462  152.5849 H   0  0  0  0  0  0  0  0  0  0  0  0
  143.5782  138.0016  152.1323 H   0  0  0  0  0  0  0  0  0  0  0  0
  143.2460  136.8573  154.7688 H   0  0  0  0  0  0  0  0  0  0  0  0
  141.9716  137.3485  153.6514 H   0  0  0  0  0  0  0  0  0  0  0  0
  142.0267  133.2498  151.6111 H   0  0  0  0  0  0  0  0  0  0  0  0
  143.4950  132.7954  152.4869 H   0  0  0  0  0  0  0  0  0  0  0  0
  143.6074  133.4558  150.8536 H   0  0  0  0  0  0  0  0  0  0  0  0
  143.4260  136.1698  150.7529 H   0  0  0  0  0  0  0  0  0  0  0  0
  144.9187  135.5541  151.4530 H   0  0  0  0  0  0  0  0  0  0  0  0
  148.0356  137.3023  153.3814 H   0  0  0  0  0  0  0  0  0  0  0  0
  1  2  1  0  0  0  0
  1 22  1  0  0  0  0
  1 23  1  0  0  0  0
  1 24  1  0  0  0  0
  2  3  1  0  0  0  0
  3  4  1  0  0  0  0
  3 25  1  0  0  0  0
  3 26  1  0  0  0  0
  4  5  1  0  0  0  0
  4 27  1  0  0  0  0
  4 28  1  0  0  0  0
  5  6  1  0  0  0  0
  6 21  1  0  0  0  0
  6  7  2  0  0  0  0
  7  8  1  0  0  0  0
  7 29  1  0  0  0  0
  8  9  2  0  0  0  0
  8 30  1  0  0  0  0
  9 10  1  0  0  0  0
  9 20  1  0  0  0  0
 10 11  1  0  0  0  0
 10 31  1  0  0  0  0
 11 12  2  0  0  0  0
 11 13  1  0  0  0  0
 13 19  1  0  0  0  0
 13 14  1  0  0  0  0
 13 32  1  0  0  0  0
 14 15  1  0  0  0  0
 14 33  1  0  0  0  0
 14 34  1  0  0  0  0
 15 16  2  0  0  0  0
 15 17  1  0  0  0  0
 17 18  1  0  0  0  0
 17 19  1  0  0  0  0
 18 35  1  0  0  0  0
 18 36  1  0  0  0  0
 18 37  1  0  0  0  0
 19 38  1  0  0  0  0
 19 39  1  0  0  0  0
 20 21  2  0  0  0  0
 20 40  1  0  0  0  0
M  END
> <s_m_source_file>
AV-unprocessed.smi

> <i_m_source_file_index>
1841

> <i_lp_mmshare_version>
43012

> <i_f3d_flags>
0

> <s_epik_input>
W0NIM11PW0NIMl1bQ0gyXU9jMVtjSF1bY0hdYyhbY0hdbjEpW05IXUMoPU8pW0NAQEhdMltDSDJdQyg9TylOKFtDSDNdKVtDSDJdMg==

> <s_epik_cmdline>
J2VwaWtfcHl0aG9uJywgJy1waCcsICc3LjAnLCAnLXRuJywgJzgnLCAnLW1hJywgJzIwMCcsICctbWV0YWxfYmluZGluZycsICctaW1hZScsICc8aW5maWxlLm1hZT4nLCAnLW9tYWUnLCAnPG91dGZpbGUubWFlPic=

> <r_lp_tautomer_probability>
1

> <r_epik_Ionization_Penalty>
1.70347e-05

> <r_epik_Ionization_Penalty_Charging>
0

> <r_epik_Ionization_Penalty_Neutral>
1.70347e-05

> <r_epik_State_Penalty>
-0

> <r_epik_Charging_Adjusted_Penalty>
0

> <i_epik_Tot_Q>
0

> <i_epik_Tot_abs_Q>
0

> <r_epik_Metal_State_Penalty>
-0

> <b_epik_Metal_Only>
0

> <s_lp_Force_Field>
OPLS_2005

> <r_lp_Energy>
17.4372

> <b_lp_Chiralities_Consistent>
1

> <s_lp_Variant>
AV-unprocessed.smi:1841-1

> <Gold.Version>
5.8.1

> <Gold.Id.Protein>
6NUR|6NUR_protein|mol2

> <Gold.PLP.Fitness>
43.3798

> <Gold.PLP.PLP>
-31.2809

> <Gold.PLP.part.hbond>
-4.0000

> <Gold.PLP.part.metal>
0.0000

> <Gold.PLP.part.buried>
-1.1163

> <Gold.PLP.part.nonpolar>
-26.4948

> <Gold.PLP.part.repulsive>
0.5182

> <Gold.PLP.ligand.clash>
0.0000

> <Gold.PLP.ligand.torsion>
1.0091

> <Gold.PLP.Chemscore.Hbond>
3.8060

> <Gold.PLP.Chemscore.CHOScore>
0.8915

> <Gold.PLP.Chemscore.Metal>
0.0000

> <Gold.Chemscore.Hbonds>
donor molecule, donor type, donor heavy atom, donor atom, acceptor molecule, acceptor atom, score
      L1  H    10    31       P1 10175  1.00
      P1  H  7989  7998       L1     5  0.70
      P1  H  7997  8009       L1     2  0.96
      P1  H 11000 11005       L1    16  0.79
      L1  C    20    40       P1  7948  0.99

> <Gold.PLP.Chemscore.Internal.Correction>
0.0245

> <Gold.Rescore>
     Score         DG    S(hbond)    S(metal)    S(lipo)     H(rot)  DE(clash)    DE(int)     intcor
     14.88     -18.43       3.28        0.00      59.77       1.95       1.20       2.35       ----

> <Gold.Chemscore.Fitness>
14.8817

> <Gold.Chemscore.DG>
-18.4334

> <Gold.Chemscore.ZeroCoef>
-5.4800

> <Gold.Chemscore.Hbond>
3.2767

> <Gold.Chemscore.Metal>
0.0000

> <Gold.Chemscore.Lipo>
59.7683

> <Gold.Chemscore.Internal_Hbond>
0.0000

> <Gold.Chemscore.DEClash>
1.1971

> <Gold.Chemscore.DEInternal>
2.3545

> <Gold.Chemscore.Rot>
1.9468

> <Gold.Chemscore.Internal.Correction>
   9.000000E+99

> <Gold.Chemscore.Hbonds>
donor molecule, donor type, donor heavy atom, donor atom, acceptor molecule, acceptor atom, score
      L1  H    10    31       P1 10175  0.96
      P1  H  7989  7998       L1     5  0.05
      P1  H  7997  8009       L1     2  0.66
      P1  H 11000 11005       L1    16  0.75

> <Gold.Chemscore.Hbond.Weighted>
-10.9443

> <Gold.Chemscore.Metal.Weighted>
-0.0000

> <Gold.Chemscore.Lipo.Weighted>
-6.9929

> <Gold.Chemscore.Internal_Hbond.Weighted>
0.0000

> <Gold.Chemscore.DEClash.Weighted>
1.1971

> <Gold.Chemscore.DEInternal.Weighted>
2.3545

> <Gold.Chemscore.Rot.Weighted>
4.9839

> <Gold.Chemscore.Internal.Correction.Weighted>
   9.000000E+99

> <Gold.Protein.RotatedTorsions>
[ 6907 6896 6895 6894 ] final  -98.72 input  -60.11 | X-H torsion
[ 7974 7965 7964 7962 ] final   31.79 input  175.53 | X-H torsion
[ 8008 7997 7996 7995 ] final -174.82 input   59.86 | X-H torsion
[ 10167 10162 10161 10158 ] final   25.38 input  -65.29 | X-H torsion
[ 10718 10713 10712 10709 ] final  162.35 input   66.30 | X-H torsion
[ 10763 10752 10751 10750 ] final  -33.22 input  -60.55 | X-H torsion
[ 11005 11000 10999 10996 ] final   17.98 input  -57.11 | X-H torsion

> <Gold.Protein.ActiveResidues>
 VAL166  LYS551  ARG553  GLY616  TRP617  ASP618  TYR619  PRO620  LYS621  CYS622 
 ASP623  PHE694  ASN695  SER759  ASP760  ASP761  ALA762  ILE779  LEU786  VAL792 
 PHE793  MET794  SER795  GLU796  ALA797  LYS798  CYS799  TRP800  GLU811  SER814 

> <Gold.Protein.RotatedAtoms>
  150.7056  134.1151  159.4013 H   0  0  0  0  0  0  0  0  0  0  0  0  # atno 6907 bound_to 6896
  151.9137  135.0325  160.0526 H   0  0  0  0  0  0  0  0  0  0  0  0  # atno 6908 bound_to 6896
  152.2314  133.5026  159.5255 H   0  0  0  0  0  0  0  0  0  0  0  0  # atno 6909 bound_to 6896
  146.1528  139.6611  142.9087 H   0  0  0  0  0  0  0  0  0  0  0  0  # atno 7974 bound_to 7965
  155.9749  140.1170  157.0779 H   0  0  0  0  0  0  0  0  0  0  0  0  # atno 8008 bound_to 7997
  154.4166  140.1156  156.5424 H   0  0  0  0  0  0  0  0  0  0  0  0  # atno 8009 bound_to 7997
  155.6548  140.3473  155.4763 H   0  0  0  0  0  0  0  0  0  0  0  0  # atno 8010 bound_to 7997
  140.5110  144.0160  150.6373 H   0  0  0  0  0  0  0  0  0  0  0  0  # atno 10167 bound_to 10162
  157.1238  131.0499  151.2403 H   0  0  0  0  0  0  0  0  0  0  0  0  # atno 10718 bound_to 10713
  153.8266  135.6869  153.4820 H   0  0  0  0  0  0  0  0  0  0  0  0  # atno 10763 bound_to 10752
  153.1536  135.4608  154.9671 H   0  0  0  0  0  0  0  0  0  0  0  0  # atno 10764 bound_to 10752
  154.7905  135.3300  154.7733 H   0  0  0  0  0  0  0  0  0  0  0  0  # atno 10765 bound_to 10752
  140.4299  134.1431  155.7679 H   0  0  0  0  0  0  0  0  0  0  0  0  # atno 11005 bound_to 11000
  145.4782  141.0437  143.2661 LP  0  0  0  0  0  0  0  0  0  0  0  0  # atno 17320 bound_to 7965
  144.7925  139.6299  143.7107 LP  0  0  0  0  0  0  0  0  0  0  0  0  # atno 17321 bound_to 7965
  140.3482  143.2979  152.0515 LP  0  0  0  0  0  0  0  0  0  0  0  0  # atno 17342 bound_to 10162
  139.4896  144.6393  151.6910 LP  0  0  0  0  0  0  0  0  0  0  0  0  # atno 17343 bound_to 10162
  157.4453  130.7567  149.7104 LP  0  0  0  0  0  0  0  0  0  0  0  0  # atno 17370 bound_to 10713
  155.9822  130.4011  150.3426 LP  0  0  0  0  0  0  0  0  0  0  0  0  # atno 17371 bound_to 10713
  141.1750  133.8533  157.1451 LP  0  0  0  0  0  0  0  0  0  0  0  0  # atno 17394 bound_to 11000
  140.0141  134.9975  157.0457 LP  0  0  0  0  0  0  0  0  0  0  0  0  # atno 17395 bound_to 11000

$$$$
