AV-unprocessed.smi:2060|AV-procd|sdf|8357|dock4
  -GOLD-   2272011 23D 1   1.00000     0.00000
 Structure written by MMmdl.
 46 47  0  0  0  0  0  0  0  0  2 V2000
  144.6336  134.4364  151.3587 C   0  0  0  0  0  0  0  0  0  0  0  0
  145.3987  135.7555  151.5699 C   0  0  0  0  0  0  0  0  0  0  0  0
  145.6081  136.1841  153.0551 C   0  0  2  0  0  0  0  0  0  0  0  0
  144.3123  135.8198  153.8267 C   0  0  0  0  0  0  0  0  0  0  0  0
  145.8372  137.7272  153.1135 C   0  0  0  0  0  0  0  0  0  0  0  0
  147.2415  138.1109  153.2567 N   0  0  0  0  0  0  0  0  0  0  0  0
  147.7369  138.9212  154.2038 C   0  0  0  0  0  0  0  0  0  0  0  0
  147.0450  139.4582  155.0692 O   0  0  0  0  0  0  0  0  0  0  0  0
  149.0668  139.0648  154.0759 N   0  0  0  0  0  0  0  0  0  0  0  0
  149.9322  139.8505  154.8789 C   0  0  0  0  0  0  0  0  0  0  0  0
  149.4491  140.5097  156.0403 C   0  0  0  0  0  0  0  0  0  0  0  0
  150.5615  141.1418  156.5203 C   0  0  0  0  0  0  0  0  0  0  0  0
  150.7993  142.0145  157.7050 C   0  0  0  0  0  0  0  0  0  0  0  0
  151.6332  140.8868  155.7216 O   0  0  0  0  0  0  0  0  0  0  0  0
  151.2234  140.0581  154.6704 N   0  0  0  0  0  0  0  0  0  0  0  0
  146.7838  135.4493  153.6511 N   0  3  0  0  0  0  0  0  0  0  0  0
  147.0683  135.7302  155.0873 C   0  0  0  0  0  0  0  0  0  0  0  0
  148.3997  135.0874  155.5086 C   0  0  0  0  0  0  0  0  0  0  0  0
  148.3460  133.6869  155.2769 O   0  0  0  0  0  0  0  0  0  0  0  0
  148.1593  133.3891  153.9005 C   0  0  0  0  0  0  0  0  0  0  0  0
  146.8232  133.9774  153.4163 C   0  0  0  0  0  0  0  0  0  0  0  0
  144.5359  134.2212  150.2945 H   0  0  0  0  0  0  0  0  0  0  0  0
  143.6261  134.4809  151.7715 H   0  0  0  0  0  0  0  0  0  0  0  0
  145.1475  133.5896  151.8132 H   0  0  0  0  0  0  0  0  0  0  0  0
  146.3550  135.6965  151.0508 H   0  0  0  0  0  0  0  0  0  0  0  0
  144.8533  136.5367  151.0391 H   0  0  0  0  0  0  0  0  0  0  0  0
  143.4181  136.1367  153.2890 H   0  0  0  0  0  0  0  0  0  0  0  0
  144.2675  136.3026  154.8031 H   0  0  0  0  0  0  0  0  0  0  0  0
  144.2245  134.7453  153.9879 H   0  0  0  0  0  0  0  0  0  0  0  0
  145.4104  138.2200  152.2396 H   0  0  0  0  0  0  0  0  0  0  0  0
  145.3240  138.1559  153.9734 H   0  0  0  0  0  0  0  0  0  0  0  0
  147.8873  137.7181  152.5875 H   0  0  0  0  0  0  0  0  0  0  0  0
  149.5097  138.5579  153.3239 H   0  0  0  0  0  0  0  0  0  0  0  0
  148.4521  140.5201  156.4551 H   0  0  0  0  0  0  0  0  0  0  0  0
  149.8735  142.4901  158.0293 H   0  0  0  0  0  0  0  0  0  0  0  0
  151.5181  142.8004  157.4722 H   0  0  0  0  0  0  0  0  0  0  0  0
  151.1913  141.4329  158.5395 H   0  0  0  0  0  0  0  0  0  0  0  0
  147.1363  136.7984  155.2820 H   0  0  0  0  0  0  0  0  0  0  0  0
  146.2687  135.3385  155.7164 H   0  0  0  0  0  0  0  0  0  0  0  0
  149.2366  135.5301  154.9658 H   0  0  0  0  0  0  0  0  0  0  0  0
  148.5806  135.2613  156.5695 H   0  0  0  0  0  0  0  0  0  0  0  0
  148.9922  133.7803  153.3140 H   0  0  0  0  0  0  0  0  0  0  0  0
  148.1608  132.3066  153.7714 H   0  0  0  0  0  0  0  0  0  0  0  0
  146.0013  133.4885  153.9397 H   0  0  0  0  0  0  0  0  0  0  0  0
  146.7224  133.7338  152.3606 H   0  0  0  0  0  0  0  0  0  0  0  0
  147.5823  135.8116  153.1497 H   0  0  0  0  0  0  0  0  0  0  0  0
  1  2  1  0  0  0  0
  1 22  1  0  0  0  0
  1 23  1  0  0  0  0
  1 24  1  0  0  0  0
  2  3  1  0  0  0  0
  2 25  1  0  0  0  0
  2 26  1  0  0  0  0
  3  4  1  0  0  0  0
  3  5  1  0  0  0  0
  3 16  1  0  0  0  0
  4 27  1  0  0  0  0
  4 28  1  0  0  0  0
  4 29  1  0  0  0  0
  5  6  1  0  0  0  0
  5 30  1  0  0  0  0
  5 31  1  0  0  0  0
  6  7  1  0  0  0  0
  6 32  1  0  0  0  0
  7  8  2  0  0  0  0
  7  9  1  0  0  0  0
  9 10  1  0  0  0  0
  9 33  1  0  0  0  0
 10 15  2  0  0  0  0
 10 11  1  0  0  0  0
 11 12  2  0  0  0  0
 11 34  1  0  0  0  0
 12 13  1  0  0  0  0
 12 14  1  0  0  0  0
 13 35  1  0  0  0  0
 13 36  1  0  0  0  0
 13 37  1  0  0  0  0
 14 15  1  0  0  0  0
 16 21  1  0  0  0  0
 16 17  1  0  0  0  0
 16 46  1  0  0  0  0
 17 18  1  0  0  0  0
 17 38  1  0  0  0  0
 17 39  1  0  0  0  0
 18 19  1  0  0  0  0
 18 40  1  0  0  0  0
 18 41  1  0  0  0  0
 19 20  1  0  0  0  0
 20 21  1  0  0  0  0
 20 42  1  0  0  0  0
 20 43  1  0  0  0  0
 21 44  1  0  0  0  0
 21 45  1  0  0  0  0
M  CHG  1  16   1
M  END
> <s_m_source_file>
AV-unprocessed.smi

> <i_m_source_file_index>
2060

> <i_lp_mmshare_version>
43012

> <i_f3d_flags>
0

> <s_epik_input>
W0NIMl0xW0NIMl1PW0NIMl1bQ0gyXU4xW0NAQF0oW0NIM10pKFtDSDJdW0NIM10pW0NIMl1bTkhdQyg9TylbTkhdYzJbY0hdYyhbQ0gzXSlvbjI=

> <s_epik_cmdline>
J2VwaWtfcHl0aG9uJywgJy1waCcsICc3LjAnLCAnLXRuJywgJzgnLCAnLW1hJywgJzIwMCcsICctbWV0YWxfYmluZGluZycsICctaW1hZScsICc8aW5maWxlLm1hZT4nLCAnLW9tYWUnLCAnPG91dGZpbGUubWFlPic=

> <r_epik_Ionization_Penalty>
0.563843

> <r_epik_Ionization_Penalty_Charging>
0.563819

> <r_epik_Ionization_Penalty_Neutral>
2.4442e-05

> <r_epik_State_Penalty>
0.575199

> <r_epik_Charging_Adjusted_Penalty>
1.13902

> <i_epik_Tot_Q>
1

> <i_epik_Tot_abs_Q>
1

> <r_epik_Metal_State_Penalty>
0.577669

> <b_epik_Metal_Only>
0

> <s_lp_Force_Field>
OPLS_2005

> <r_lp_Energy>
25.7644

> <b_lp_Chiralities_Consistent>
1

> <s_lp_Variant>
AV-unprocessed.smi:2060-4

> <Gold.Version>
5.8.1

> <Gold.Id.Protein>
6NUR|6NUR_protein|mol2

> <Gold.PLP.Fitness>
40.5091

> <Gold.PLP.PLP>
-31.9097

> <Gold.PLP.part.hbond>
-5.7838

> <Gold.PLP.part.metal>
0.0000

> <Gold.PLP.part.buried>
-1.0288

> <Gold.PLP.part.nonpolar>
-25.0955

> <Gold.PLP.part.repulsive>
0.4158

> <Gold.PLP.ligand.clash>
0.0000

> <Gold.PLP.ligand.torsion>
1.2978

> <Gold.PLP.Chemscore.Hbond>
3.6500

> <Gold.PLP.Chemscore.CHOScore>
0.0000

> <Gold.PLP.Chemscore.Metal>
0.0000

> <Gold.Chemscore.Hbonds>
donor molecule, donor type, donor heavy atom, donor atom, acceptor molecule, acceptor atom, score
      L1  H     6    32       P1  7948  1.00
      L1  H    16    46       P1  7948  2.00
      P1  H  7989  7998       L1    15  0.88

> <Gold.PLP.Chemscore.Internal.Correction>
0.2450

> <Gold.Rescore>
     Score         DG    S(hbond)    S(metal)    S(lipo)     H(rot)  DE(clash)    DE(int)     intcor
     13.53     -16.98       2.90        0.00      54.28       1.77       0.06       3.39       ----

> <Gold.Chemscore.Fitness>
13.5273

> <Gold.Chemscore.DG>
-16.9798

> <Gold.Chemscore.ZeroCoef>
-5.4800

> <Gold.Chemscore.Hbond>
2.8961

> <Gold.Chemscore.Metal>
0.0000

> <Gold.Chemscore.Lipo>
54.2767

> <Gold.Chemscore.Internal_Hbond>
0.0000

> <Gold.Chemscore.DEClash>
0.0623

> <Gold.Chemscore.DEInternal>
3.3901

> <Gold.Chemscore.Rot>
1.7670

> <Gold.Chemscore.Internal.Correction>
   9.000000E+99

> <Gold.Chemscore.Hbonds>
donor molecule, donor type, donor heavy atom, donor atom, acceptor molecule, acceptor atom, score
      L1  H     6    32       P1  7948  0.96
      L1  H    16    46       P1  7948  1.00
      P1  H  7989  7998       L1    15  0.25

> <Gold.Chemscore.Hbond.Weighted>
-9.6729

> <Gold.Chemscore.Metal.Weighted>
-0.0000

> <Gold.Chemscore.Lipo.Weighted>
-6.3504

> <Gold.Chemscore.Internal_Hbond.Weighted>
0.0000

> <Gold.Chemscore.DEClash.Weighted>
0.0623

> <Gold.Chemscore.DEInternal.Weighted>
3.3901

> <Gold.Chemscore.Rot.Weighted>
4.5235

> <Gold.Chemscore.Internal.Correction.Weighted>
   9.000000E+99

> <Gold.Protein.RotatedTorsions>
[ 6907 6896 6895 6894 ] final  -37.82 input  -60.11 | X-H torsion
[ 7974 7965 7964 7962 ] final   95.79 input  175.53 | X-H torsion
[ 8008 7997 7996 7995 ] final   24.60 input   59.86 | X-H torsion
[ 10167 10162 10161 10158 ] final -139.20 input  -65.29 | X-H torsion
[ 10718 10713 10712 10709 ] final  -32.57 input   66.30 | X-H torsion
[ 10763 10752 10751 10750 ] final   55.55 input  -60.55 | X-H torsion
[ 11005 11000 10999 10996 ] final -109.33 input  -57.11 | X-H torsion

> <Gold.Protein.ActiveResidues>
 VAL166  LYS551  ARG553  GLY616  TRP617  ASP618  TYR619  PRO620  LYS621  CYS622 
 ASP623  PHE694  ASN695  SER759  ASP760  ASP761  ALA762  ILE779  LEU786  VAL792 
 PHE793  MET794  SER795  GLU796  ALA797  LYS798  CYS799  TRP800  GLU811  SER814 

> <Gold.Protein.RotatedAtoms>
  151.0100  134.9389  159.8001 H   0  0  0  0  0  0  0  0  0  0  0  0  # atno 6907 bound_to 6896
  152.5300  134.3040  159.9099 H   0  0  0  0  0  0  0  0  0  0  0  0  # atno 6908 bound_to 6896
  151.3046  133.4065  159.2676 H   0  0  0  0  0  0  0  0  0  0  0  0  # atno 6909 bound_to 6896
  145.4474  139.2296  143.3058 H   0  0  0  0  0  0  0  0  0  0  0  0  # atno 7974 bound_to 7965
  154.9987  140.3122  155.4876 H   0  0  0  0  0  0  0  0  0  0  0  0  # atno 8008 bound_to 7997
  156.2928  140.2236  156.5036 H   0  0  0  0  0  0  0  0  0  0  0  0  # atno 8009 bound_to 7997
  154.7638  140.0457  157.0983 H   0  0  0  0  0  0  0  0  0  0  0  0  # atno 8010 bound_to 7997
  139.8402  143.7331  152.2663 H   0  0  0  0  0  0  0  0  0  0  0  0  # atno 10167 bound_to 10162
  156.3733  130.4343  149.7527 H   0  0  0  0  0  0  0  0  0  0  0  0  # atno 10718 bound_to 10713
  152.9818  135.5707  154.5085 H   0  0  0  0  0  0  0  0  0  0  0  0  # atno 10763 bound_to 10752
  154.4593  135.2781  155.1727 H   0  0  0  0  0  0  0  0  0  0  0  0  # atno 10764 bound_to 10752
  154.3321  135.6247  153.5610 H   0  0  0  0  0  0  0  0  0  0  0  0  # atno 10765 bound_to 10752
  141.0853  133.9149  157.2198 H   0  0  0  0  0  0  0  0  0  0  0  0  # atno 11005 bound_to 11000
  146.2523  140.5230  142.8888 LP  0  0  0  0  0  0  0  0  0  0  0  0  # atno 17320 bound_to 7965
  144.8083  140.6339  143.6432 LP  0  0  0  0  0  0  0  0  0  0  0  0  # atno 17321 bound_to 7965
  139.7566  144.7519  151.0426 LP  0  0  0  0  0  0  0  0  0  0  0  0  # atno 17342 bound_to 10162
  140.7799  143.4798  151.0033 LP  0  0  0  0  0  0  0  0  0  0  0  0  # atno 17343 bound_to 10162
  156.4646  130.7968  151.2987 LP  0  0  0  0  0  0  0  0  0  0  0  0  # atno 17370 bound_to 10713
  157.7486  131.0055  150.3116 LP  0  0  0  0  0  0  0  0  0  0  0  0  # atno 17371 bound_to 10713
  139.9671  135.0139  156.9416 LP  0  0  0  0  0  0  0  0  0  0  0  0  # atno 17394 bound_to 11000
  140.5376  134.0752  155.7332 LP  0  0  0  0  0  0  0  0  0  0  0  0  # atno 17395 bound_to 11000

$$$$
