AV-unprocessed.smi:2747|AV-procd|sdf|10579|dock6
  -GOLD-   2272015 33D 1   1.00000     0.00000
 Structure written by MMmdl.
 23 24  0  0  0  0  0  0  0  0  2 V2000
  154.1629  136.8230  161.5759 O   0  5  0  0  0  0  0  0  0  0  0  0
  154.1913  137.6733  162.5751 C   0  0  2  0  0  0  0  0  0  0  0  0
  155.0622  138.8838  162.1376 C   0  0  0  0  0  0  0  0  0  0  0  0
  154.4919  139.6863  161.0577 N   0  0  0  0  0  0  0  0  0  0  0  0
  154.4391  139.1785  159.7901 N   0  0  0  0  0  0  0  0  0  0  0  0
  153.8703  140.0513  159.0126 N   0  0  0  0  0  0  0  0  0  0  0  0
  153.5326  141.1530  159.7806 C   0  0  0  0  0  0  0  0  0  0  0  0
  152.8959  142.3707  159.4521 C   0  0  0  0  0  0  0  0  0  0  0  0
  152.6619  143.3455  160.4471 C   0  0  0  0  0  0  0  0  0  0  0  0
  151.8787  144.8213  160.0060 Cl  0  0  0  0  0  0  0  0  0  0  0  0
  153.0638  143.1124  161.7846 C   0  0  0  0  0  0  0  0  0  0  0  0
  152.7856  144.2942  163.0140 Cl  0  0  0  0  0  0  0  0  0  0  0  0
  153.6983  141.9019  162.1263 C   0  0  0  0  0  0  0  0  0  0  0  0
  153.9220  140.9454  161.1213 C   0  0  0  0  0  0  0  0  0  0  0  0
  154.8112  136.9472  163.7938 C   0  0  0  0  0  0  0  0  0  0  0  0
  155.9679  136.3749  163.4549 F   0  0  0  0  0  0  0  0  0  0  0  0
  155.0199  137.7851  164.8124 F   0  0  0  0  0  0  0  0  0  0  0  0
  153.9868  135.9839  164.2079 F   0  0  0  0  0  0  0  0  0  0  0  0
  153.2605  138.1070  162.9443 H   0  0  0  0  0  0  0  0  0  0  0  0
  155.2331  139.5432  162.9897 H   0  0  0  0  0  0  0  0  0  0  0  0
  156.0512  138.5482  161.8214 H   0  0  0  0  0  0  0  0  0  0  0  0
  152.5852  142.5539  158.4341 H   0  0  0  0  0  0  0  0  0  0  0  0
  154.0145  141.7104  163.1414 H   0  0  0  0  0  0  0  0  0  0  0  0
  1  2  1  0  0  0  0
  2  3  1  0  0  0  0
  2 15  1  0  0  0  0
  2 19  1  0  0  0  0
  3  4  1  0  0  0  0
  3 20  1  0  0  0  0
  3 21  1  0  0  0  0
  4 14  1  0  0  0  0
  4  5  1  0  0  0  0
  5  6  2  0  0  0  0
  6  7  1  0  0  0  0
  7 14  2  0  0  0  0
  7  8  1  0  0  0  0
  8  9  2  0  0  0  0
  8 22  1  0  0  0  0
  9 10  1  0  0  0  0
  9 11  1  0  0  0  0
 11 12  1  0  0  0  0
 11 13  2  0  0  0  0
 13 14  1  0  0  0  0
 13 23  1  0  0  0  0
 15 16  1  0  0  0  0
 15 17  1  0  0  0  0
 15 18  1  0  0  0  0
M  CHG  1   1  -1
M  END
> <s_m_source_file>
AV-unprocessed.smi

> <i_m_source_file_index>
2747

> <i_lp_mmshare_version>
43012

> <i_f3d_flags>
0

> <s_epik_input>
RkMoRikoRilbQ0BIXShbT0hdKVtDSDJdbihubjEpYyhjMTIpW2NIXWMoQ2wpYyhDbClbY0hdMg==

> <s_epik_cmdline>
J2VwaWtfcHl0aG9uJywgJy1waCcsICc3LjAnLCAnLXRuJywgJzgnLCAnLW1hJywgJzIwMCcsICctbWV0YWxfYmluZGluZycsICctaW1hZScsICc8aW5maWxlLm1hZT4nLCAnLW9tYWUnLCAnPG91dGZpbGUubWFlPic=

> <r_lp_tautomer_probability>
1

> <r_epik_Ionization_Penalty>
1.2724

> <r_epik_Ionization_Penalty_Charging>
1.2724

> <r_epik_Ionization_Penalty_Neutral>
1.57383e-10

> <r_epik_State_Penalty>
1.34397

> <r_epik_Charging_Adjusted_Penalty>
2.61637

> <i_epik_Tot_Q>
-1

> <i_epik_Tot_abs_Q>
1

> <r_epik_Metal_State_Penalty>
1.34397

> <b_epik_Metal_Only>
0

> <s_lp_Force_Field>
OPLS_2005

> <r_lp_Energy>
12.5023

> <b_lp_Chiralities_Consistent>
1

> <s_lp_Variant>
AV-unprocessed.smi:2747-3

> <Gold.Version>
5.8.1

> <Gold.Id.Protein>
6NUR|6NUR_protein|mol2

> <Gold.PLP.Fitness>
45.6797

> <Gold.PLP.PLP>
-43.1051

> <Gold.PLP.part.hbond>
-1.0000

> <Gold.PLP.part.metal>
0.0000

> <Gold.PLP.part.buried>
-2.4959

> <Gold.PLP.part.nonpolar>
-38.4563

> <Gold.PLP.part.repulsive>
0.0000

> <Gold.PLP.ligand.clash>
0.0000

> <Gold.PLP.ligand.torsion>
0.2181

> <Gold.PLP.Chemscore.Hbond>
1.0000

> <Gold.PLP.Chemscore.CHOScore>
0.0000

> <Gold.PLP.Chemscore.Metal>
0.0000

> <Gold.Chemscore.Hbonds>
donor molecule, donor type, donor heavy atom, donor atom, acceptor molecule, acceptor atom, score
      P1  H  7997  8010       L1     6  1.00

> <Gold.PLP.Chemscore.Internal.Correction>
0.0107

> <Gold.Rescore>
     Score         DG    S(hbond)    S(metal)    S(lipo)     H(rot)  DE(clash)    DE(int)     intcor
     16.45     -18.19       0.94        0.00     111.35       1.35       1.34       0.40       ----

> <Gold.Chemscore.Fitness>
16.4528

> <Gold.Chemscore.DG>
-18.1922

> <Gold.Chemscore.ZeroCoef>
-5.4800

> <Gold.Chemscore.Hbond>
0.9383

> <Gold.Chemscore.Metal>
0.0000

> <Gold.Chemscore.Lipo>
111.3485

> <Gold.Chemscore.Internal_Hbond>
0.0000

> <Gold.Chemscore.DEClash>
1.3412

> <Gold.Chemscore.DEInternal>
0.3982

> <Gold.Chemscore.Rot>
1.3474

> <Gold.Chemscore.Internal.Correction>
   9.000000E+99

> <Gold.Chemscore.Hbonds>
donor molecule, donor type, donor heavy atom, donor atom, acceptor molecule, acceptor atom, score
      P1  H  7997  8010       L1     6  0.58

> <Gold.Chemscore.Hbond.Weighted>
-3.1339

> <Gold.Chemscore.Metal.Weighted>
-0.0000

> <Gold.Chemscore.Lipo.Weighted>
-13.0278

> <Gold.Chemscore.Internal_Hbond.Weighted>
0.0000

> <Gold.Chemscore.DEClash.Weighted>
1.3412

> <Gold.Chemscore.DEInternal.Weighted>
0.3982

> <Gold.Chemscore.Rot.Weighted>
3.4494

> <Gold.Chemscore.Internal.Correction.Weighted>
   9.000000E+99

> <Gold.Protein.RotatedTorsions>
[ 6907 6896 6895 6894 ] final  -31.02 input  -60.11 | X-H torsion
[ 7974 7965 7964 7962 ] final   26.52 input  175.53 | X-H torsion
[ 8008 7997 7996 7995 ] final   15.49 input   59.86 | X-H torsion
[ 10167 10162 10161 10158 ] final  176.67 input  -65.29 | X-H torsion
[ 10718 10713 10712 10709 ] final   38.44 input   66.30 | X-H torsion
[ 10763 10752 10751 10750 ] final  -78.05 input  -60.55 | X-H torsion
[ 11005 11000 10999 10996 ] final -122.41 input  -57.11 | X-H torsion

> <Gold.Protein.ActiveResidues>
 VAL166  LYS551  ARG553  GLY616  TRP617  ASP618  TYR619  PRO620  LYS621  CYS622 
 ASP623  PHE694  ASN695  SER759  ASP760  ASP761  ALA762  ILE779  LEU786  VAL792 
 PHE793  MET794  SER795  GLU796  ALA797  LYS798  CYS799  TRP800  GLU811  SER814 

> <Gold.Protein.RotatedAtoms>
  151.0977  134.9954  159.8433 H   0  0  0  0  0  0  0  0  0  0  0  0  # atno 6907 bound_to 6896
  152.5434  134.1988  159.8714 H   0  0  0  0  0  0  0  0  0  0  0  0  # atno 6908 bound_to 6896
  151.2029  133.4556  159.2630 H   0  0  0  0  0  0  0  0  0  0  0  0  # atno 6909 bound_to 6896
  146.1833  139.7316  142.8885 H   0  0  0  0  0  0  0  0  0  0  0  0  # atno 7974 bound_to 7965
  154.8634  140.2948  155.5525 H   0  0  0  0  0  0  0  0  0  0  0  0  # atno 8008 bound_to 7997
  156.3020  140.2474  156.3544 H   0  0  0  0  0  0  0  0  0  0  0  0  # atno 8009 bound_to 7997
  154.8894  140.0395  157.1819 H   0  0  0  0  0  0  0  0  0  0  0  0  # atno 8010 bound_to 7997
  139.5223  144.2888  152.0482 H   0  0  0  0  0  0  0  0  0  0  0  0  # atno 10167 bound_to 10162
  157.3588  130.7638  149.7032 H   0  0  0  0  0  0  0  0  0  0  0  0  # atno 10718 bound_to 10713
  154.5209  135.5743  153.6680 H   0  0  0  0  0  0  0  0  0  0  0  0  # atno 10763 bound_to 10752
  152.9917  135.6181  154.2755 H   0  0  0  0  0  0  0  0  0  0  0  0  # atno 10764 bound_to 10752
  154.2676  135.2854  155.2731 H   0  0  0  0  0  0  0  0  0  0  0  0  # atno 10765 bound_to 10752
  140.9997  134.0420  157.3552 H   0  0  0  0  0  0  0  0  0  0  0  0  # atno 11005 bound_to 11000
  145.4013  141.0385  143.3069 LP  0  0  0  0  0  0  0  0  0  0  0  0  # atno 17320 bound_to 7965
  144.8352  139.5561  143.6925 LP  0  0  0  0  0  0  0  0  0  0  0  0  # atno 17321 bound_to 7965
  140.2340  144.4338  150.6288 LP  0  0  0  0  0  0  0  0  0  0  0  0  # atno 17342 bound_to 10162
  140.6336  143.2191  151.6444 LP  0  0  0  0  0  0  0  0  0  0  0  0  # atno 17343 bound_to 10162
  155.9734  130.4119  150.4007 LP  0  0  0  0  0  0  0  0  0  0  0  0  # atno 17370 bound_to 10713
  157.2081  131.0454  151.2614 LP  0  0  0  0  0  0  0  0  0  0  0  0  # atno 17371 bound_to 10713
  139.9033  135.0172  156.7369 LP  0  0  0  0  0  0  0  0  0  0  0  0  # atno 17394 bound_to 11000
  140.6908  133.9392  155.7965 LP  0  0  0  0  0  0  0  0  0  0  0  0  # atno 17395 bound_to 11000

$$$$
