AV-unprocessed.smi:2485|AV-procd|sdf|9788|dock3
  -GOLD-   2272013423D 1   1.00000     0.00000
 Structure written by MMmdl.
 39 40  0  0  0  0  0  0  0  0  1 V2000
  149.1732  140.8641  154.3961 C   0  0  0  0  0  0  0  0  0  0  0  0
  147.7480  140.5274  153.9322 C   0  0  0  0  0  0  0  0  0  0  0  0
  146.9550  141.8073  153.6169 C   0  0  0  0  0  0  0  0  0  0  0  0
  147.7378  139.5399  152.7591 C   0  0  0  0  0  0  0  0  0  0  0  0
  146.5084  138.6957  153.0294 C   0  0  1  0  0  0  0  0  0  0  0  0
  146.6034  137.3880  152.3838 N   0  0  0  0  0  0  0  0  0  0  0  0
  145.5779  136.5484  152.1852 C   0  0  0  0  0  0  0  0  0  0  0  0
  144.4175  136.8032  152.5075 O   0  0  0  0  0  0  0  0  0  0  0  0
  145.9904  135.4115  151.5993 N   0  0  0  0  0  0  0  0  0  0  0  0
  145.2144  134.2751  151.2511 C   0  0  0  0  0  0  0  0  0  0  0  0
  145.8862  133.2964  150.4885 C   0  0  0  0  0  0  0  0  0  0  0  0
  145.1774  132.1434  150.1103 C   0  0  0  0  0  0  0  0  0  0  0  0
  143.8379  132.0470  150.5241 C   0  0  0  0  0  0  0  0  0  0  0  0
  143.2343  133.0090  151.2549 N   0  0  0  0  0  0  0  0  0  0  0  0
  143.9150  134.1043  151.6104 N   0  0  0  0  0  0  0  0  0  0  0  0
  146.4814  138.6316  154.5725 C   0  0  0  0  0  0  0  0  0  0  0  0
  145.0500  138.5792  155.1296 C   0  0  0  0  0  0  0  0  0  0  0  0
  147.3435  137.5035  155.1774 C   0  0  0  0  0  0  0  0  0  0  0  0
  147.0706  139.8603  154.9962 O   0  0  0  0  0  0  0  0  0  0  0  0
  149.7369  141.3623  153.6068 H   0  0  0  0  0  0  0  0  0  0  0  0
  149.7201  139.9643  154.6795 H   0  0  0  0  0  0  0  0  0  0  0  0
  149.1589  141.5247  155.2635 H   0  0  0  0  0  0  0  0  0  0  0  0
  147.4096  142.3611  152.7951 H   0  0  0  0  0  0  0  0  0  0  0  0
  146.9196  142.4697  154.4823 H   0  0  0  0  0  0  0  0  0  0  0  0
  145.9259  141.5826  153.3360 H   0  0  0  0  0  0  0  0  0  0  0  0
  147.7103  140.0297  151.7850 H   0  0  0  0  0  0  0  0  0  0  0  0
  148.6315  138.9142  152.7837 H   0  0  0  0  0  0  0  0  0  0  0  0
  145.6373  139.2400  152.6597 H   0  0  0  0  0  0  0  0  0  0  0  0
  147.5226  137.0957  152.0864 H   0  0  0  0  0  0  0  0  0  0  0  0
  146.9747  135.3478  151.3859 H   0  0  0  0  0  0  0  0  0  0  0  0
  146.9188  133.4237  150.1983 H   0  0  0  0  0  0  0  0  0  0  0  0
  145.6425  131.3636  149.5256 H   0  0  0  0  0  0  0  0  0  0  0  0
  143.2403  131.1856  150.2655 H   0  0  0  0  0  0  0  0  0  0  0  0
  144.5450  137.6578  154.8397 H   0  0  0  0  0  0  0  0  0  0  0  0
  144.4526  139.4152  154.7647 H   0  0  0  0  0  0  0  0  0  0  0  0
  145.0496  138.6273  156.2188 H   0  0  0  0  0  0  0  0  0  0  0  0
  146.9386  136.5184  154.9440 H   0  0  0  0  0  0  0  0  0  0  0  0
  147.3856  137.5867  156.2638 H   0  0  0  0  0  0  0  0  0  0  0  0
  148.3688  137.5389  154.8090 H   0  0  0  0  0  0  0  0  0  0  0  0
  1  2  1  0  0  0  0
  1 20  1  0  0  0  0
  1 21  1  0  0  0  0
  1 22  1  0  0  0  0
  2 19  1  0  0  0  0
  2  3  1  0  0  0  0
  2  4  1  0  0  0  0
  3 23  1  0  0  0  0
  3 24  1  0  0  0  0
  3 25  1  0  0  0  0
  4  5  1  0  0  0  0
  4 26  1  0  0  0  0
  4 27  1  0  0  0  0
  5  6  1  0  0  0  0
  5 16  1  0  0  0  0
  5 28  1  0  0  0  0
  6  7  1  0  0  0  0
  6 29  1  0  0  0  0
  7  8  2  0  0  0  0
  7  9  1  0  0  0  0
  9 10  1  0  0  0  0
  9 30  1  0  0  0  0
 10 15  1  0  0  0  0
 10 11  2  0  0  0  0
 11 12  1  0  0  0  0
 11 31  1  0  0  0  0
 12 13  2  0  0  0  0
 12 32  1  0  0  0  0
 13 14  1  0  0  0  0
 13 33  1  0  0  0  0
 14 15  2  0  0  0  0
 16 17  1  0  0  0  0
 16 18  1  0  0  0  0
 16 19  1  0  0  0  0
 17 34  1  0  0  0  0
 17 35  1  0  0  0  0
 17 36  1  0  0  0  0
 18 37  1  0  0  0  0
 18 38  1  0  0  0  0
 18 39  1  0  0  0  0
M  END
> <s_m_source_file>
AV-unprocessed.smi

> <i_m_source_file_index>
2485

> <i_lp_mmshare_version>
43012

> <i_f3d_flags>
0

> <s_epik_input>
W0NIM11DMShbQ0gzXSlbQ0gyXVtDQEhdKEMoTzEpKFtDSDNdKVtDSDNdKVtOSF1DKD1PKVtOSF1jMltjSF1bY0hdW2NIXW5uMg==

> <s_epik_cmdline>
J2VwaWtfcHl0aG9uJywgJy1waCcsICc3LjAnLCAnLXRuJywgJzgnLCAnLW1hJywgJzIwMCcsICctbWV0YWxfYmluZGluZycsICctaW1hZScsICc8aW5maWxlLm1hZT4nLCAnLW9tYWUnLCAnPG91dGZpbGUubWFlPic=

> <r_lp_tautomer_probability>
1

> <r_epik_Ionization_Penalty>
0.00480341

> <r_epik_Ionization_Penalty_Charging>
0

> <r_epik_Ionization_Penalty_Neutral>
0.00480341

> <r_epik_State_Penalty>
-0

> <r_epik_Charging_Adjusted_Penalty>
0

> <i_epik_Tot_Q>
0

> <i_epik_Tot_abs_Q>
0

> <r_epik_Metal_State_Penalty>
-0

> <b_epik_Metal_Only>
0

> <s_lp_Force_Field>
OPLS_2005

> <r_lp_Energy>
24.1228

> <b_lp_Chiralities_Consistent>
1

> <s_lp_Variant>
AV-unprocessed.smi:2485-1

> <Gold.Version>
5.8.1

> <Gold.Id.Protein>
6NUR|6NUR_protein|mol2

> <Gold.PLP.Fitness>
32.8767

> <Gold.PLP.PLP>
-26.4548

> <Gold.PLP.part.hbond>
-1.9417

> <Gold.PLP.part.metal>
0.0000

> <Gold.PLP.part.buried>
-2.6206

> <Gold.PLP.part.nonpolar>
-23.5502

> <Gold.PLP.part.repulsive>
0.9686

> <Gold.PLP.ligand.clash>
0.0000

> <Gold.PLP.ligand.torsion>
0.2580

> <Gold.PLP.Chemscore.Hbond>
1.5970

> <Gold.PLP.Chemscore.CHOScore>
0.7120

> <Gold.PLP.Chemscore.Metal>
0.0000

> <Gold.Chemscore.Hbonds>
donor molecule, donor type, donor heavy atom, donor atom, acceptor molecule, acceptor atom, score
      L1  H     6    29       P1  7948  1.00
      L1  H     9    30       P1  7948  0.58
      L1  C    13    33       P1 10952  0.69

> <Gold.PLP.Chemscore.Internal.Correction>
0.0111

> <Gold.Rescore>
     Score         DG    S(hbond)    S(metal)    S(lipo)     H(rot)  DE(clash)    DE(int)     intcor
     14.78     -16.80       1.93        0.00      63.47       1.00       0.53       1.49       ----

> <Gold.Chemscore.Fitness>
14.7844

> <Gold.Chemscore.DG>
-16.8037

> <Gold.Chemscore.ZeroCoef>
-5.4800

> <Gold.Chemscore.Hbond>
1.9335

> <Gold.Chemscore.Metal>
0.0000

> <Gold.Chemscore.Lipo>
63.4683

> <Gold.Chemscore.Internal_Hbond>
0.0000

> <Gold.Chemscore.DEClash>
0.5265

> <Gold.Chemscore.DEInternal>
1.4928

> <Gold.Chemscore.Rot>
1.0000

> <Gold.Chemscore.Internal.Correction>
   9.000000E+99

> <Gold.Chemscore.Hbonds>
donor molecule, donor type, donor heavy atom, donor atom, acceptor molecule, acceptor atom, score
      L1  H     6    29       P1  7948  1.00
      L1  H     9    30       P1  7948  0.54

> <Gold.Chemscore.Hbond.Weighted>
-6.4579

> <Gold.Chemscore.Metal.Weighted>
-0.0000

> <Gold.Chemscore.Lipo.Weighted>
-7.4258

> <Gold.Chemscore.Internal_Hbond.Weighted>
0.0000

> <Gold.Chemscore.DEClash.Weighted>
0.5265

> <Gold.Chemscore.DEInternal.Weighted>
1.4928

> <Gold.Chemscore.Rot.Weighted>
2.5600

> <Gold.Chemscore.Internal.Correction.Weighted>
   9.000000E+99

> <Gold.Protein.RotatedTorsions>
[ 6907 6896 6895 6894 ] final   87.02 input  -60.11 | X-H torsion
[ 7974 7965 7964 7962 ] final    6.47 input  175.53 | X-H torsion
[ 8008 7997 7996 7995 ] final  -77.76 input   59.86 | X-H torsion
[ 10167 10162 10161 10158 ] final   60.48 input  -65.29 | X-H torsion
[ 10718 10713 10712 10709 ] final   86.40 input   66.30 | X-H torsion
[ 10763 10752 10751 10750 ] final  -50.91 input  -60.55 | X-H torsion
[ 11005 11000 10999 10996 ] final -130.35 input  -57.11 | X-H torsion

> <Gold.Protein.ActiveResidues>
 VAL166  LYS551  ARG553  GLY616  TRP617  ASP618  TYR619  PRO620  LYS621  CYS622 
 ASP623  PHE694  ASN695  SER759  ASP760  ASP761  ALA762  ILE779  LEU786  VAL792 
 PHE793  MET794  SER795  GLU796  ALA797  LYS798  CYS799  TRP800  GLU811  SER814 

> <Gold.Protein.RotatedAtoms>
  152.5404  134.2342  159.8836 H   0  0  0  0  0  0  0  0  0  0  0  0  # atno 6907 bound_to 6896
  151.2312  133.4442  159.2611 H   0  0  0  0  0  0  0  0  0  0  0  0  # atno 6908 bound_to 6896
  151.0714  134.9814  159.8366 H   0  0  0  0  0  0  0  0  0  0  0  0  # atno 6909 bound_to 6896
  146.2434  140.0228  142.8396 H   0  0  0  0  0  0  0  0  0  0  0  0  # atno 7974 bound_to 7965
  154.5626  140.0705  156.8842 H   0  0  0  0  0  0  0  0  0  0  0  0  # atno 8008 bound_to 7997
  155.2783  140.3370  155.4242 H   0  0  0  0  0  0  0  0  0  0  0  0  # atno 8009 bound_to 7997
  156.2054  140.1738  156.7796 H   0  0  0  0  0  0  0  0  0  0  0  0  # atno 8010 bound_to 7997
  140.1651  144.4332  150.6689 H   0  0  0  0  0  0  0  0  0  0  0  0  # atno 10167 bound_to 10162
  157.6928  131.0214  150.2966 H   0  0  0  0  0  0  0  0  0  0  0  0  # atno 10718 bound_to 10713
  154.1181  135.6539  153.4897 H   0  0  0  0  0  0  0  0  0  0  0  0  # atno 10763 bound_to 10752
  153.0234  135.5263  154.7125 H   0  0  0  0  0  0  0  0  0  0  0  0  # atno 10764 bound_to 10752
  154.6324  135.2978  155.0170 H   0  0  0  0  0  0  0  0  0  0  0  0  # atno 10765 bound_to 10752
  140.9353  134.1265  157.4199 H   0  0  0  0  0  0  0  0  0  0  0  0  # atno 11005 bound_to 11000
  145.1225  140.9471  143.4592 LP  0  0  0  0  0  0  0  0  0  0  0  0  # atno 17320 bound_to 7965
  145.0467  139.3215  143.5949 LP  0  0  0  0  0  0  0  0  0  0  0  0  # atno 17321 bound_to 7965
  140.6618  143.2254  151.5838 LP  0  0  0  0  0  0  0  0  0  0  0  0  # atno 17342 bound_to 10162
  139.5363  144.2772  152.1258 LP  0  0  0  0  0  0  0  0  0  0  0  0  # atno 17343 bound_to 10162
  156.3489  130.3827  149.7346 LP  0  0  0  0  0  0  0  0  0  0  0  0  # atno 17370 bound_to 10713
  156.4830  130.8050  151.3063 LP  0  0  0  0  0  0  0  0  0  0  0  0  # atno 17371 bound_to 10713
  139.8806  135.0019  156.6093 LP  0  0  0  0  0  0  0  0  0  0  0  0  # atno 17394 bound_to 11000
  140.7808  133.8662  155.8566 LP  0  0  0  0  0  0  0  0  0  0  0  0  # atno 17395 bound_to 11000

$$$$
