AV-unprocessed.smi:1947|AV-procd|sdf|7871|dock8
  -GOLD-   2272010 23D 1   1.00000     0.00000
 Structure written by MMmdl.
 38 39  0  0  0  0  0  0  0  0  2 V2000
  150.5728  142.7791  157.6605 C   0  0  0  0  0  0  0  0  0  0  0  0
  151.5410  143.2957  158.7360 C   0  0  2  0  0  0  0  0  0  0  0  0
  152.0393  142.1603  159.6532 C   0  0  0  0  0  0  0  0  0  0  0  0
  153.0345  142.6779  160.7041 C   0  0  0  0  0  0  0  0  0  0  0  0
  152.4332  143.8294  161.5239 C   0  0  0  0  0  0  0  0  0  0  0  0
  151.9389  144.9634  160.6102 C   0  0  0  0  0  0  0  0  0  0  0  0
  150.9288  144.4499  159.5612 C   0  0  2  0  0  0  0  0  0  0  0  0
  149.7583  143.9682  160.2100 O   0  0  0  0  0  0  0  0  0  0  0  0
  148.8986  144.9791  160.7146 C   0  0  0  0  0  0  0  0  0  0  0  0
  147.4585  144.4605  160.6687 C   0  0  0  0  0  0  0  0  0  0  0  0
  146.9894  144.4083  159.2902 N   0  0  0  0  0  0  0  0  0  0  0  0
  146.4543  143.3371  158.6919 C   0  0  0  0  0  0  0  0  0  0  0  0
  146.3336  142.2809  159.3166 O   0  0  0  0  0  0  0  0  0  0  0  0
  146.0902  143.5578  157.4080 N   0  5  0  0  0  0  0  0  0  0  0  0
  146.3835  142.6534  156.4594 C   0  0  0  0  0  0  0  0  0  0  0  0
  146.7606  141.3992  156.7555 N   0  0  0  0  0  0  0  0  0  0  0  0
  147.0277  140.6295  155.6313 N   0  0  0  0  0  0  0  0  0  0  0  0
  146.8507  141.3288  154.5107 C   0  0  0  0  0  0  0  0  0  0  0  0
  146.3439  142.9907  154.7267 S   0  0  0  0  0  0  0  0  0  0  0  0
  149.6779  142.3422  158.1048 H   0  0  0  0  0  0  0  0  0  0  0  0
  151.0444  142.0127  157.0449 H   0  0  0  0  0  0  0  0  0  0  0  0
  150.2559  143.5850  156.9981 H   0  0  0  0  0  0  0  0  0  0  0  0
  152.4102  143.6959  158.2120 H   0  0  0  0  0  0  0  0  0  0  0  0
  151.1925  141.6898  160.1552 H   0  0  0  0  0  0  0  0  0  0  0  0
  152.5138  141.3802  159.0571 H   0  0  0  0  0  0  0  0  0  0  0  0
  153.3312  141.8647  161.3673 H   0  0  0  0  0  0  0  0  0  0  0  0
  153.9438  143.0192  160.2077 H   0  0  0  0  0  0  0  0  0  0  0  0
  151.6045  143.4560  162.1273 H   0  0  0  0  0  0  0  0  0  0  0  0
  153.1748  144.2134  162.2247 H   0  0  0  0  0  0  0  0  0  0  0  0
  151.5055  145.7602  161.2137 H   0  0  0  0  0  0  0  0  0  0  0  0
  152.7927  145.4080  160.0978 H   0  0  0  0  0  0  0  0  0  0  0  0
  150.6641  145.2607  158.8796 H   0  0  0  0  0  0  0  0  0  0  0  0
  149.1574  145.2572  161.7365 H   0  0  0  0  0  0  0  0  0  0  0  0
  148.9971  145.8748  160.1002 H   0  0  0  0  0  0  0  0  0  0  0  0
  147.4119  143.4600  161.1007 H   0  0  0  0  0  0  0  0  0  0  0  0
  146.8055  145.1022  161.2623 H   0  0  0  0  0  0  0  0  0  0  0  0
  147.0674  145.2563  158.7481 H   0  0  0  0  0  0  0  0  0  0  0  0
  147.0225  140.8643  153.5514 H   0  0  0  0  0  0  0  0  0  0  0  0
  1  2  1  0  0  0  0
  1 20  1  0  0  0  0
  1 21  1  0  0  0  0
  1 22  1  0  0  0  0
  2  7  1  0  0  0  0
  2  3  1  0  0  0  0
  2 23  1  0  0  0  0
  3  4  1  0  0  0  0
  3 24  1  0  0  0  0
  3 25  1  0  0  0  0
  4  5  1  0  0  0  0
  4 26  1  0  0  0  0
  4 27  1  0  0  0  0
  5  6  1  0  0  0  0
  5 28  1  0  0  0  0
  5 29  1  0  0  0  0
  6  7  1  0  0  0  0
  6 30  1  0  0  0  0
  6 31  1  0  0  0  0
  7  8  1  0  0  0  0
  7 32  1  0  0  0  0
  8  9  1  0  0  0  0
  9 10  1  0  0  0  0
  9 33  1  0  0  0  0
  9 34  1  0  0  0  0
 10 11  1  0  0  0  0
 10 35  1  0  0  0  0
 10 36  1  0  0  0  0
 11 12  1  0  0  0  0
 11 37  1  0  0  0  0
 12 13  2  0  0  0  0
 12 14  1  0  0  0  0
 14 15  1  0  0  0  0
 15 19  1  0  0  0  0
 15 16  2  0  0  0  0
 16 17  1  0  0  0  0
 17 18  2  0  0  0  0
 18 19  1  0  0  0  0
 18 38  1  0  0  0  0
M  CHG  1  14  -1
M  END
> <s_m_source_file>
AV-unprocessed.smi

> <i_m_source_file_index>
1947

> <i_lp_mmshare_version>
43012

> <i_f3d_flags>
0

> <s_epik_input>
W0NIM11bQ0BASF0xW0NIMl1bQ0gyXVtDSDJdW0NIMl1bQ0BIXTFPW0NIMl1bQ0gyXVtOSF1DKD1PKVtOSF1jMm5uW2NIXXMy

> <s_epik_cmdline>
J2VwaWtfcHl0aG9uJywgJy1waCcsICc3LjAnLCAnLXRuJywgJzgnLCAnLW1hJywgJzIwMCcsICctbWV0YWxfYmluZGluZycsICctaW1hZScsICc8aW5maWxlLm1hZT4nLCAnLW9tYWUnLCAnPG91dGZpbGUubWFlPic=

> <r_lp_tautomer_probability>
1

> <r_epik_Ionization_Penalty>
3.35961

> <r_epik_Ionization_Penalty_Charging>
3.31977

> <r_epik_Ionization_Penalty_Neutral>
0.0398394

> <r_epik_State_Penalty>
3.31759

> <r_epik_Charging_Adjusted_Penalty>
6.63736

> <i_epik_Tot_Q>
-1

> <i_epik_Tot_abs_Q>
1

> <r_epik_Metal_State_Penalty>
0.484557

> <b_epik_Metal_Only>
1

> <s_lp_Force_Field>
OPLS_2005

> <r_lp_Energy>
9.4778

> <b_lp_Chiralities_Consistent>
1

> <s_lp_Variant>
AV-unprocessed.smi:1947-7

> <Gold.Version>
5.8.1

> <Gold.Id.Protein>
6NUR|6NUR_protein|mol2

> <Gold.PLP.Fitness>
41.3341

> <Gold.PLP.PLP>
-36.8227

> <Gold.PLP.part.hbond>
-3.0000

> <Gold.PLP.part.metal>
0.0000

> <Gold.PLP.part.buried>
-6.3421

> <Gold.PLP.part.nonpolar>
-28.3934

> <Gold.PLP.part.repulsive>
0.5727

> <Gold.PLP.ligand.clash>
0.0000

> <Gold.PLP.ligand.torsion>
0.7909

> <Gold.PLP.Chemscore.Hbond>
2.0236

> <Gold.PLP.Chemscore.CHOScore>
0.0000

> <Gold.PLP.Chemscore.Metal>
0.0000

> <Gold.Chemscore.Hbonds>
donor molecule, donor type, donor heavy atom, donor atom, acceptor molecule, acceptor atom, score
      L1  H    11    37       P1  8029  0.86
      P1  H  6933  6944       L1     8  0.03
      P1  H  6934  6946       L1    13  0.89

> <Gold.PLP.Chemscore.Internal.Correction>
0.0223

> <Gold.Rescore>
     Score         DG    S(hbond)    S(metal)    S(lipo)     H(rot)  DE(clash)    DE(int)     intcor
     16.05     -18.47       1.98        0.00      95.98       1.90       0.05       2.37       ----

> <Gold.Chemscore.Fitness>
16.0512

> <Gold.Chemscore.DG>
-18.4696

> <Gold.Chemscore.ZeroCoef>
-5.4800

> <Gold.Chemscore.Hbond>
1.9821

> <Gold.Chemscore.Metal>
0.0000

> <Gold.Chemscore.Lipo>
95.9752

> <Gold.Chemscore.Internal_Hbond>
0.0000

> <Gold.Chemscore.DEClash>
0.0519

> <Gold.Chemscore.DEInternal>
2.3665

> <Gold.Chemscore.Rot>
1.8984

> <Gold.Chemscore.Internal.Correction>
   9.000000E+99

> <Gold.Chemscore.Hbonds>
donor molecule, donor type, donor heavy atom, donor atom, acceptor molecule, acceptor atom, score
      L1  H    11    37       P1  8029  0.85
      P1  H  6934  6946       L1    13  0.85

> <Gold.Chemscore.Hbond.Weighted>
-6.6203

> <Gold.Chemscore.Metal.Weighted>
-0.0000

> <Gold.Chemscore.Lipo.Weighted>
-11.2291

> <Gold.Chemscore.Internal_Hbond.Weighted>
0.0000

> <Gold.Chemscore.DEClash.Weighted>
0.0519

> <Gold.Chemscore.DEInternal.Weighted>
2.3665

> <Gold.Chemscore.Rot.Weighted>
4.8598

> <Gold.Chemscore.Internal.Correction.Weighted>
   9.000000E+99

> <Gold.Protein.RotatedTorsions>
[ 6907 6896 6895 6894 ] final  -53.46 input  -60.11 | X-H torsion
[ 7974 7965 7964 7962 ] final -149.82 input  175.53 | X-H torsion
[ 8008 7997 7996 7995 ] final   37.02 input   59.86 | X-H torsion
[ 10167 10162 10161 10158 ] final  116.23 input  -65.29 | X-H torsion
[ 10718 10713 10712 10709 ] final  104.37 input   66.30 | X-H torsion
[ 10763 10752 10751 10750 ] final  177.83 input  -60.55 | X-H torsion
[ 11005 11000 10999 10996 ] final   88.15 input  -57.11 | X-H torsion

> <Gold.Protein.ActiveResidues>
 VAL166  LYS551  ARG553  GLY616  TRP617  ASP618  TYR619  PRO620  LYS621  CYS622 
 ASP623  PHE694  ASN695  SER759  ASP760  ASP761  ALA762  ILE779  LEU786  VAL792 
 PHE793  MET794  SER795  GLU796  ALA797  LYS798  CYS799  TRP800  GLU811  SER814 

> <Gold.Protein.RotatedAtoms>
  150.8425  134.7722  159.6943 H   0  0  0  0  0  0  0  0  0  0  0  0  # atno 6907 bound_to 6896
  152.4509  134.5392  159.9844 H   0  0  0  0  0  0  0  0  0  0  0  0  # atno 6908 bound_to 6896
  151.5529  133.3377  159.2992 H   0  0  0  0  0  0  0  0  0  0  0  0  # atno 6909 bound_to 6896
  144.7944  140.5014  143.5750 H   0  0  0  0  0  0  0  0  0  0  0  0  # atno 7974 bound_to 7965
  155.1969  140.3312  155.4349 H   0  0  0  0  0  0  0  0  0  0  0  0  # atno 8008 bound_to 7997
  156.2421  140.1900  156.7008 H   0  0  0  0  0  0  0  0  0  0  0  0  # atno 8009 bound_to 7997
  154.6168  140.0601  156.9550 H   0  0  0  0  0  0  0  0  0  0  0  0  # atno 8010 bound_to 7997
  139.6261  144.7108  151.2530 H   0  0  0  0  0  0  0  0  0  0  0  0  # atno 10167 bound_to 10162
  157.6742  131.0802  150.5696 H   0  0  0  0  0  0  0  0  0  0  0  0  # atno 10718 bound_to 10713
  154.4997  135.2783  155.1431 H   0  0  0  0  0  0  0  0  0  0  0  0  # atno 10763 bound_to 10752
  154.3069  135.6237  153.5452 H   0  0  0  0  0  0  0  0  0  0  0  0  # atno 10764 bound_to 10752
  152.9900  135.5710  154.5437 H   0  0  0  0  0  0  0  0  0  0  0  0  # atno 10765 bound_to 10752
  139.8903  134.8469  156.2960 H   0  0  0  0  0  0  0  0  0  0  0  0  # atno 11005 bound_to 11000
  145.5710  139.1483  143.3288 LP  0  0  0  0  0  0  0  0  0  0  0  0  # atno 17320 bound_to 7965
  146.2208  140.5843  142.9018 LP  0  0  0  0  0  0  0  0  0  0  0  0  # atno 17321 bound_to 7965
  140.7412  143.6565  150.8202 LP  0  0  0  0  0  0  0  0  0  0  0  0  # atno 17342 bound_to 10162
  140.0183  143.5569  152.2811 LP  0  0  0  0  0  0  0  0  0  0  0  0  # atno 17343 bound_to 10162
  156.5997  130.4351  149.5902 LP  0  0  0  0  0  0  0  0  0  0  0  0  # atno 17370 bound_to 10713
  156.2516  130.6910  151.1650 LP  0  0  0  0  0  0  0  0  0  0  0  0  # atno 17371 bound_to 10713
  140.9944  133.7189  156.0864 LP  0  0  0  0  0  0  0  0  0  0  0  0  # atno 17394 bound_to 11000
  140.7581  134.3969  157.5530 LP  0  0  0  0  0  0  0  0  0  0  0  0  # atno 17395 bound_to 11000

$$$$
