AV-unprocessed.smi:1997|AV-procd|sdf|8087|dock6
  -GOLD-   2272010303D 1   1.00000     0.00000
 Structure written by MMmdl.
 37 39  0  0  0  0  0  0  0  0  1 V2000
  146.5330  136.4617  152.6446 O   0  0  0  0  0  0  0  0  0  0  0  0
  145.7550  137.2776  152.1497 C   0  0  0  0  0  0  0  0  0  0  0  0
  145.9044  138.6135  152.1798 N   0  0  0  0  0  0  0  0  0  0  0  0
  146.9408  139.3701  152.7874 C   0  0  0  0  0  0  0  0  0  0  0  0
  146.9466  140.7086  152.8530 N   0  0  0  0  0  0  0  0  0  0  0  0
  148.0807  141.1908  153.4916 N   0  0  0  0  0  0  0  0  0  0  0  0
  148.8977  140.2074  153.8877 C   0  0  0  0  0  0  0  0  0  0  0  0
  150.1866  140.4770  154.5900 C   0  0  0  0  0  0  0  0  0  0  0  0
  150.4614  139.8853  155.9535 C   0  0  0  0  0  0  0  0  0  0  0  0
  150.2529  141.3710  155.8092 C   0  0  0  0  0  0  0  0  0  0  0  0
  148.3312  138.5830  153.5131 S   0  0  0  0  0  0  0  0  0  0  0  0
  144.6320  136.9305  151.5021 N   0  0  0  0  0  0  0  0  0  0  0  0
  144.1687  135.5586  151.2801 C   0  0  1  0  0  0  0  0  0  0  0  0
  145.3413  134.7655  150.6583 C   0  0  0  0  0  0  0  0  0  0  0  0
  144.9012  133.5129  149.8807 C   0  0  0  0  0  0  0  0  0  0  0  0
  144.2488  132.4148  150.7344 C   0  0  0  0  0  0  0  0  0  0  0  0
  142.9412  132.8551  151.4143 C   0  0  0  0  0  0  0  0  0  0  0  0
  143.1853  133.6820  152.5888 N   0  0  0  0  0  0  0  0  0  0  0  0
  143.7584  134.8948  152.6157 C   0  0  0  0  0  0  0  0  0  0  0  0
  143.9585  135.4643  153.6884 O   0  0  0  0  0  0  0  0  0  0  0  0
  145.1845  139.1546  151.7242 H   0  0  0  0  0  0  0  0  0  0  0  0
  151.0094  140.5242  153.8792 H   0  0  0  0  0  0  0  0  0  0  0  0
  149.6665  139.3110  156.4255 H   0  0  0  0  0  0  0  0  0  0  0  0
  151.4719  139.5358  156.1542 H   0  0  0  0  0  0  0  0  0  0  0  0
  151.1250  142.0130  155.9137 H   0  0  0  0  0  0  0  0  0  0  0  0
  149.3238  141.7814  156.1995 H   0  0  0  0  0  0  0  0  0  0  0  0
  144.0582  137.6673  151.1196 H   0  0  0  0  0  0  0  0  0  0  0  0
  143.3202  135.5767  150.5938 H   0  0  0  0  0  0  0  0  0  0  0  0
  145.8694  135.4080  149.9516 H   0  0  0  0  0  0  0  0  0  0  0  0
  146.0799  134.4993  151.4167 H   0  0  0  0  0  0  0  0  0  0  0  0
  144.2181  133.8049  149.0820 H   0  0  0  0  0  0  0  0  0  0  0  0
  145.7743  133.0896  149.3829 H   0  0  0  0  0  0  0  0  0  0  0  0
  144.0309  131.5666  150.0847 H   0  0  0  0  0  0  0  0  0  0  0  0
  144.9552  132.0459  151.4794 H   0  0  0  0  0  0  0  0  0  0  0  0
  142.2836  133.3700  150.7123 H   0  0  0  0  0  0  0  0  0  0  0  0
  142.3980  131.9720  151.7515 H   0  0  0  0  0  0  0  0  0  0  0  0
  142.9189  133.2823  153.4771 H   0  0  0  0  0  0  0  0  0  0  0  0
  1  2  2  0  0  0  0
  2  3  1  0  0  0  0
  2 12  1  0  0  0  0
  3  4  1  0  0  0  0
  3 21  1  0  0  0  0
  4 11  1  0  0  0  0
  4  5  2  0  0  0  0
  5  6  1  0  0  0  0
  6  7  2  0  0  0  0
  7  8  1  0  0  0  0
  7 11  1  0  0  0  0
  8 10  1  0  0  0  0
  8  9  1  0  0  0  0
  8 22  1  0  0  0  0
  9 10  1  0  0  0  0
  9 23  1  0  0  0  0
  9 24  1  0  0  0  0
 10 25  1  0  0  0  0
 10 26  1  0  0  0  0
 12 13  1  0  0  0  0
 12 27  1  0  0  0  0
 13 19  1  0  0  0  0
 13 14  1  0  0  0  0
 13 28  1  0  0  0  0
 14 15  1  0  0  0  0
 14 29  1  0  0  0  0
 14 30  1  0  0  0  0
 15 16  1  0  0  0  0
 15 31  1  0  0  0  0
 15 32  1  0  0  0  0
 16 17  1  0  0  0  0
 16 33  1  0  0  0  0
 16 34  1  0  0  0  0
 17 18  1  0  0  0  0
 17 35  1  0  0  0  0
 17 36  1  0  0  0  0
 18 19  1  0  0  0  0
 18 37  1  0  0  0  0
 19 20  2  0  0  0  0
M  END
> <s_m_source_file>
AV-unprocessed.smi

> <i_m_source_file_index>
1997

> <i_lp_mmshare_version>
43012

> <i_f3d_flags>
0

> <s_epik_input>
W0NIMl0xW0NIMl1bQ0hdMWMoczIpbm5jMltOSF1DKD1PKVtOSF1bQ0BASF0zW0NIMl1bQ0gyXVtDSDJdW0NIMl1bTkhdQzM9Tw==

> <s_epik_cmdline>
J2VwaWtfcHl0aG9uJywgJy1waCcsICc3LjAnLCAnLXRuJywgJzgnLCAnLW1hJywgJzIwMCcsICctbWV0YWxfYmluZGluZycsICctaW1hZScsICc8aW5maWxlLm1hZT4nLCAnLW9tYWUnLCAnPG91dGZpbGUubWFlPic=

> <r_lp_tautomer_probability>
1

> <r_epik_Ionization_Penalty>
0.000421558

> <r_epik_Ionization_Penalty_Charging>
0

> <r_epik_Ionization_Penalty_Neutral>
0.000421558

> <r_epik_State_Penalty>
-0

> <r_epik_Charging_Adjusted_Penalty>
0

> <i_epik_Tot_Q>
0

> <i_epik_Tot_abs_Q>
0

> <r_epik_Metal_State_Penalty>
0.200761

> <b_epik_Metal_Only>
0

> <s_lp_Force_Field>
OPLS_2005

> <r_lp_Energy>
8.5849

> <b_lp_Chiralities_Consistent>
1

> <s_lp_Variant>
AV-unprocessed.smi:1997-2

> <Gold.Version>
5.8.1

> <Gold.Id.Protein>
6NUR|6NUR_protein|mol2

> <Gold.PLP.Fitness>
35.6062

> <Gold.PLP.PLP>
-28.1569

> <Gold.PLP.part.hbond>
-3.5213

> <Gold.PLP.part.metal>
0.0000

> <Gold.PLP.part.buried>
-2.2111

> <Gold.PLP.part.nonpolar>
-25.9369

> <Gold.PLP.part.repulsive>
2.9697

> <Gold.PLP.ligand.clash>
0.0000

> <Gold.PLP.ligand.torsion>
0.1459

> <Gold.PLP.Chemscore.Hbond>
2.5384

> <Gold.PLP.Chemscore.CHOScore>
0.0000

> <Gold.PLP.Chemscore.Metal>
0.0000

> <Gold.Chemscore.Hbonds>
donor molecule, donor type, donor heavy atom, donor atom, acceptor molecule, acceptor atom, score
      L1  H     3    21       P1 10175  0.54
      L1  H    12    27       P1 10171  0.86
      L1  H    18    37       P1 10957  1.00
      P1  H  8011  8017       L1     6  0.05

> <Gold.PLP.Chemscore.Internal.Correction>
0.1258

> <Gold.Rescore>
     Score         DG    S(hbond)    S(metal)    S(lipo)     H(rot)  DE(clash)    DE(int)     intcor
     11.68     -16.77       2.48        0.00      53.92       1.29       0.43       4.65       ----

> <Gold.Chemscore.Fitness>
11.6836

> <Gold.Chemscore.DG>
-16.7708

> <Gold.Chemscore.ZeroCoef>
-5.4800

> <Gold.Chemscore.Hbond>
2.4774

> <Gold.Chemscore.Metal>
0.0000

> <Gold.Chemscore.Lipo>
53.9180

> <Gold.Chemscore.Internal_Hbond>
0.0000

> <Gold.Chemscore.DEClash>
0.4345

> <Gold.Chemscore.DEInternal>
4.6526

> <Gold.Chemscore.Rot>
1.2860

> <Gold.Chemscore.Internal.Correction>
   9.000000E+99

> <Gold.Chemscore.Hbonds>
donor molecule, donor type, donor heavy atom, donor atom, acceptor molecule, acceptor atom, score
      L1  H     3    21       P1 10175  0.51
      L1  H    12    27       P1 10171  0.84
      L1  H    18    37       P1 10957  0.91
      P1  H  8011  8017       L1     6  0.01

> <Gold.Chemscore.Hbond.Weighted>
-8.2746

> <Gold.Chemscore.Metal.Weighted>
-0.0000

> <Gold.Chemscore.Lipo.Weighted>
-6.3084

> <Gold.Chemscore.Internal_Hbond.Weighted>
0.0000

> <Gold.Chemscore.DEClash.Weighted>
0.4345

> <Gold.Chemscore.DEInternal.Weighted>
4.6526

> <Gold.Chemscore.Rot.Weighted>
3.2923

> <Gold.Chemscore.Internal.Correction.Weighted>
   9.000000E+99

> <Gold.Protein.RotatedTorsions>
[ 6907 6896 6895 6894 ] final  106.81 input  -60.11 | X-H torsion
[ 7974 7965 7964 7962 ] final -147.18 input  175.53 | X-H torsion
[ 8008 7997 7996 7995 ] final -117.95 input   59.86 | X-H torsion
[ 10167 10162 10161 10158 ] final  -84.41 input  -65.29 | X-H torsion
[ 10718 10713 10712 10709 ] final -123.41 input   66.30 | X-H torsion
[ 10763 10752 10751 10750 ] final  101.53 input  -60.55 | X-H torsion
[ 11005 11000 10999 10996 ] final  -64.37 input  -57.11 | X-H torsion

> <Gold.Protein.ActiveResidues>
 VAL166  LYS551  ARG553  GLY616  TRP617  ASP618  TYR619  PRO620  LYS621  CYS622 
 ASP623  PHE694  ASN695  SER759  ASP760  ASP761  ALA762  ILE779  LEU786  VAL792 
 PHE793  MET794  SER795  GLU796  ALA797  LYS798  CYS799  TRP800  GLU811  SER814 

> <Gold.Protein.RotatedAtoms>
  152.5179  133.9326  159.7587 H   0  0  0  0  0  0  0  0  0  0  0  0  # atno 6907 bound_to 6896
  150.9673  133.6372  159.2751 H   0  0  0  0  0  0  0  0  0  0  0  0  # atno 6908 bound_to 6896
  151.3596  135.0907  159.9483 H   0  0  0  0  0  0  0  0  0  0  0  0  # atno 6909 bound_to 6896
  144.8110  140.5360  143.5642 H   0  0  0  0  0  0  0  0  0  0  0  0  # atno 7974 bound_to 7965
  155.0918  140.0395  157.2671 H   0  0  0  0  0  0  0  0  0  0  0  0  # atno 8008 bound_to 7997
  154.6826  140.2636  155.6868 H   0  0  0  0  0  0  0  0  0  0  0  0  # atno 8009 bound_to 7997
  156.2700  140.2775  156.1375 H   0  0  0  0  0  0  0  0  0  0  0  0  # atno 8010 bound_to 7997
  140.4135  143.2613  151.8986 H   0  0  0  0  0  0  0  0  0  0  0  0  # atno 10167 bound_to 10162
  156.1499  130.6527  150.9898 H   0  0  0  0  0  0  0  0  0  0  0  0  # atno 10718 bound_to 10713
  153.3279  135.4041  155.1471 H   0  0  0  0  0  0  0  0  0  0  0  0  # atno 10763 bound_to 10752
  154.8616  135.3603  154.5509 H   0  0  0  0  0  0  0  0  0  0  0  0  # atno 10764 bound_to 10752
  153.5946  135.7073  153.5468 H   0  0  0  0  0  0  0  0  0  0  0  0  # atno 10765 bound_to 10752
  141.1422  133.6665  156.5823 H   0  0  0  0  0  0  0  0  0  0  0  0  # atno 11005 bound_to 11000
  145.5323  139.1475  143.3492 LP  0  0  0  0  0  0  0  0  0  0  0  0  # atno 17320 bound_to 7965
  146.2409  140.5464  142.8934 LP  0  0  0  0  0  0  0  0  0  0  0  0  # atno 17321 bound_to 7965
  139.4782  144.5512  151.8383 LP  0  0  0  0  0  0  0  0  0  0  0  0  # atno 17342 bound_to 10162
  140.4612  144.1719  150.5906 LP  0  0  0  0  0  0  0  0  0  0  0  0  # atno 17343 bound_to 10162
  157.6648  131.0874  150.7753 LP  0  0  0  0  0  0  0  0  0  0  0  0  # atno 17370 bound_to 10713
  156.7822  130.4863  149.5399 LP  0  0  0  0  0  0  0  0  0  0  0  0  # atno 17371 bound_to 10713
  140.3828  134.7508  157.4672 LP  0  0  0  0  0  0  0  0  0  0  0  0  # atno 17394 bound_to 11000
  140.0625  134.5976  155.8733 LP  0  0  0  0  0  0  0  0  0  0  0  0  # atno 17395 bound_to 11000

$$$$
