AV-unprocessed.smi:298|AV-procd|sdf|2263|dock3
  -GOLD-   2262022153D 1   1.00000     0.00000
 Structure written by MMmdl.
 39 41  0  0  0  0  0  0  0  0  2 V2000
  152.2454  144.2587  160.8790 C   0  0  0  0  0  0  0  0  0  0  0  0
  152.0708  143.2883  159.7232 C   0  0  0  0  0  0  0  0  0  0  0  0
  151.1186  143.5938  158.7245 C   0  0  0  0  0  0  0  0  0  0  0  0
  150.9804  142.6861  157.6813 C   0  0  0  0  0  0  0  0  0  0  0  0
  150.1444  142.6970  156.5627 N   0  3  0  0  0  0  0  0  0  0  0  0
  150.3705  141.5809  155.8156 C   0  0  0  0  0  0  0  0  0  0  0  0
  151.3399  140.8590  156.4406 N   0  0  0  0  0  0  0  0  0  0  0  0
  151.9609  139.5829  156.0630 C   0  0  0  0  0  0  0  0  0  0  0  0
  150.9823  138.3957  156.1454 C   0  0  2  0  0  0  0  0  0  0  0  0
  151.2359  137.6519  157.3232 O   0  0  0  0  0  0  0  0  0  0  0  0
  151.0869  137.4774  154.9134 C   0  0  0  0  0  0  0  0  0  0  0  0
  150.8104  136.0885  155.2303 N   0  0  0  0  0  0  0  0  0  0  0  0
  149.8632  135.2631  154.7728 C   0  0  0  0  0  0  0  0  0  0  0  0
  149.9158  134.0423  155.2910 N   0  0  0  0  0  0  0  0  0  0  0  0
  150.9928  134.2079  156.1130 C   0  0  0  0  0  0  0  0  0  0  0  0
  151.4875  133.1229  156.9433 C   0  0  0  0  0  0  0  0  0  0  0  0
  151.8818  132.2587  157.6044 N   0  0  0  0  0  0  0  0  0  0  0  0
  151.5699  135.4078  156.1223 N   0  0  0  0  0  0  0  0  0  0  0  0
  151.7501  141.5092  157.6088 C   0  0  0  0  0  0  0  0  0  0  0  0
  152.6942  141.1935  158.5824 C   0  0  0  0  0  0  0  0  0  0  0  0
  152.8494  142.1038  159.6523 C   0  0  0  0  0  0  0  0  0  0  0  0
  153.8707  141.7858  160.7310 C   0  0  0  0  0  0  0  0  0  0  0  0
  151.5475  145.0936  160.8085 H   0  0  0  0  0  0  0  0  0  0  0  0
  153.2558  144.6684  160.8841 H   0  0  0  0  0  0  0  0  0  0  0  0
  152.0685  143.7579  161.8311 H   0  0  0  0  0  0  0  0  0  0  0  0
  150.5239  144.4942  158.7709 H   0  0  0  0  0  0  0  0  0  0  0  0
  149.8747  141.3188  154.8920 H   0  0  0  0  0  0  0  0  0  0  0  0
  152.3697  139.6835  155.0565 H   0  0  0  0  0  0  0  0  0  0  0  0
  152.8109  139.4226  156.7278 H   0  0  0  0  0  0  0  0  0  0  0  0
  149.9634  138.7791  156.2135 H   0  0  0  0  0  0  0  0  0  0  0  0
  151.1986  138.2376  158.0638 H   0  0  0  0  0  0  0  0  0  0  0  0
  150.3843  137.7983  154.1431 H   0  0  0  0  0  0  0  0  0  0  0  0
  152.0829  137.5405  154.4730 H   0  0  0  0  0  0  0  0  0  0  0  0
  149.1226  135.5601  154.0447 H   0  0  0  0  0  0  0  0  0  0  0  0
  153.2868  140.2922  158.5269 H   0  0  0  0  0  0  0  0  0  0  0  0
  154.4136  140.8668  160.5082 H   0  0  0  0  0  0  0  0  0  0  0  0
  153.3795  141.6579  161.6959 H   0  0  0  0  0  0  0  0  0  0  0  0
  154.6016  142.5903  160.8176 H   0  0  0  0  0  0  0  0  0  0  0  0
  149.4700  143.4127  156.3233 H   0  0  0  0  0  0  0  0  0  0  0  0
  1  2  1  0  0  0  0
  1 23  1  0  0  0  0
  1 24  1  0  0  0  0
  1 25  1  0  0  0  0
  2 21  1  0  0  0  0
  2  3  2  0  0  0  0
  3  4  1  0  0  0  0
  3 26  1  0  0  0  0
  4 19  2  0  0  0  0
  4  5  1  0  0  0  0
  5  6  2  0  0  0  0
  5 39  1  0  0  0  0
  6  7  1  0  0  0  0
  6 27  1  0  0  0  0
  7  8  1  0  0  0  0
  7 19  1  0  0  0  0
  8  9  1  0  0  0  0
  8 28  1  0  0  0  0
  8 29  1  0  0  0  0
  9 10  1  0  0  0  0
  9 11  1  0  0  0  0
  9 30  1  0  0  0  0
 10 31  1  0  0  0  0
 11 12  1  0  0  0  0
 11 32  1  0  0  0  0
 11 33  1  0  0  0  0
 12 18  1  0  0  0  0
 12 13  1  0  0  0  0
 13 14  2  0  0  0  0
 13 34  1  0  0  0  0
 14 15  1  0  0  0  0
 15 16  1  0  0  0  0
 15 18  2  0  0  0  0
 16 17  3  0  0  0  0
 19 20  1  0  0  0  0
 20 21  2  0  0  0  0
 20 35  1  0  0  0  0
 21 22  1  0  0  0  0
 22 36  1  0  0  0  0
 22 37  1  0  0  0  0
 22 38  1  0  0  0  0
M  CHG  1   5   1
M  END
> <s_m_source_file>
AV-unprocessed.smi

> <i_m_source_file_index>
298

> <i_lp_mmshare_version>
43012

> <i_f3d_flags>
0

> <s_epik_input>
W0NIM11jKFtjSF0xKWMoW0NIM10pW2NIXWMoYzEyKW4oW2NIXW4yKVtDSDJdW0NASF0oW09IXSlbQ0gyXW4zW2NIXW5jKG4zKUMjTg==

> <s_epik_cmdline>
J2VwaWtfcHl0aG9uJywgJy1waCcsICc3LjAnLCAnLXRuJywgJzgnLCAnLW1hJywgJzIwMCcsICctbWV0YWxfYmluZGluZycsICctaW1hZScsICc8aW5maWxlLm1hZT4nLCAnLW9tYWUnLCAnPG91dGZpbGUubWFlPic=

> <r_epik_Ionization_Penalty>
1.12076

> <r_epik_Ionization_Penalty_Charging>
1.12075

> <r_epik_Ionization_Penalty_Neutral>
1.54565e-06

> <r_epik_State_Penalty>
1.17957

> <r_epik_Charging_Adjusted_Penalty>
2.30033

> <i_epik_Tot_Q>
1

> <i_epik_Tot_abs_Q>
1

> <r_epik_Metal_State_Penalty>
1.26402

> <b_epik_Metal_Only>
0

> <s_lp_Force_Field>
OPLS_2005

> <r_lp_Energy>
16.3626

> <b_lp_Chiralities_Consistent>
1

> <s_lp_Variant>
AV-unprocessed.smi:298-3

> <Gold.Version>
5.8.1

> <Gold.Id.Protein>
6NUR|6NUR_protein|mol2

> <Gold.PLP.Fitness>
53.6896

> <Gold.PLP.PLP>
-41.5058

> <Gold.PLP.part.hbond>
-3.0000

> <Gold.PLP.part.metal>
0.0000

> <Gold.PLP.part.buried>
-3.8040

> <Gold.PLP.part.nonpolar>
-35.0760

> <Gold.PLP.part.repulsive>
0.1565

> <Gold.PLP.ligand.clash>
0.0000

> <Gold.PLP.ligand.torsion>
1.1080

> <Gold.PLP.Chemscore.Hbond>
3.7920

> <Gold.PLP.Chemscore.CHOScore>
1.0000

> <Gold.PLP.Chemscore.Metal>
0.0000

> <Gold.Chemscore.Hbonds>
donor molecule, donor type, donor heavy atom, donor atom, acceptor molecule, acceptor atom, score
      L1  H     5    39       P1  8028  2.00
      P1  H  6896  6907       L1    17  0.75
      P1  H 10752 10764       L1    18  1.00
      L1  C    13    34       P1  7948  1.00

> <Gold.PLP.Chemscore.Internal.Correction>
0.0238

> <Gold.Rescore>
     Score         DG    S(hbond)    S(metal)    S(lipo)     H(rot)  DE(clash)    DE(int)     intcor
     12.83     -15.31       1.81        0.00      99.92       3.09       0.12       2.36       ----

> <Gold.Chemscore.Fitness>
12.8307

> <Gold.Chemscore.DG>
-15.3107

> <Gold.Chemscore.ZeroCoef>
-5.4800

> <Gold.Chemscore.Hbond>
1.8108

> <Gold.Chemscore.Metal>
0.0000

> <Gold.Chemscore.Lipo>
99.9238

> <Gold.Chemscore.Internal_Hbond>
0.0000

> <Gold.Chemscore.DEClash>
0.1217

> <Gold.Chemscore.DEInternal>
2.3583

> <Gold.Chemscore.Rot>
3.0892

> <Gold.Chemscore.Internal.Correction>
   9.000000E+99

> <Gold.Chemscore.Hbonds>
donor molecule, donor type, donor heavy atom, donor atom, acceptor molecule, acceptor atom, score
      L1  H     5    39       P1  8028  0.97
      P1  H  6896  6907       L1    17  0.09
      P1  H 10752 10764       L1    18  0.20

> <Gold.Chemscore.Hbond.Weighted>
-6.0480

> <Gold.Chemscore.Metal.Weighted>
-0.0000

> <Gold.Chemscore.Lipo.Weighted>
-11.6911

> <Gold.Chemscore.Internal_Hbond.Weighted>
0.0000

> <Gold.Chemscore.DEClash.Weighted>
0.1217

> <Gold.Chemscore.DEInternal.Weighted>
2.3583

> <Gold.Chemscore.Rot.Weighted>
7.9084

> <Gold.Chemscore.Internal.Correction.Weighted>
   9.000000E+99

> <Gold.Protein.RotatedTorsions>
[ 6907 6896 6895 6894 ] final  168.68 input  -60.11 | X-H torsion
[ 7974 7965 7964 7962 ] final  -21.48 input  175.53 | X-H torsion
[ 8008 7997 7996 7995 ] final  172.09 input   59.86 | X-H torsion
[ 10167 10162 10161 10158 ] final  -95.89 input  -65.29 | X-H torsion
[ 10718 10713 10712 10709 ] final -130.15 input   66.30 | X-H torsion
[ 10763 10752 10751 10750 ] final  -17.19 input  -60.55 | X-H torsion
[ 11005 11000 10999 10996 ] final  121.16 input  -57.11 | X-H torsion

> <Gold.Protein.ActiveResidues>
 VAL166  LYS551  ARG553  GLY616  TRP617  ASP618  TYR619  PRO620  LYS621  CYS622 
 ASP623  PHE694  ASN695  SER759  ASP760  ASP761  ALA762  ILE779  LEU786  VAL792 
 PHE793  MET794  SER795  GLU796  ALA797  LYS798  CYS799  TRP800  GLU811  SER814 

> <Gold.Protein.RotatedAtoms>
  151.8438  133.3428  159.3651 H   0  0  0  0  0  0  0  0  0  0  0  0  # atno 6907 bound_to 6896
  150.7227  134.5365  159.5735 H   0  0  0  0  0  0  0  0  0  0  0  0  # atno 6908 bound_to 6896
  152.2845  134.7792  160.0441 H   0  0  0  0  0  0  0  0  0  0  0  0  # atno 6909 bound_to 6896
  146.1730  140.4347  142.8525 H   0  0  0  0  0  0  0  0  0  0  0  0  # atno 7974 bound_to 7965
  156.1208  140.1495  156.9207 H   0  0  0  0  0  0  0  0  0  0  0  0  # atno 8008 bound_to 7997
  154.4834  140.0872  156.7473 H   0  0  0  0  0  0  0  0  0  0  0  0  # atno 8009 bound_to 7997
  155.4431  140.3432  155.4294 H   0  0  0  0  0  0  0  0  0  0  0  0  # atno 8010 bound_to 7997
  140.2995  143.3171  152.0263 H   0  0  0  0  0  0  0  0  0  0  0  0  # atno 10167 bound_to 10162
  156.2116  130.6922  151.0656 H   0  0  0  0  0  0  0  0  0  0  0  0  # atno 10718 bound_to 10713
  153.5700  135.7008  153.5509 H   0  0  0  0  0  0  0  0  0  0  0  0  # atno 10763 bound_to 10752
  153.3353  135.4036  155.1528 H   0  0  0  0  0  0  0  0  0  0  0  0  # atno 10764 bound_to 10752
  154.8634  135.3729  154.5222 H   0  0  0  0  0  0  0  0  0  0  0  0  # atno 10765 bound_to 10752
  139.9214  134.9638  156.7917 H   0  0  0  0  0  0  0  0  0  0  0  0  # atno 11005 bound_to 11000
  144.8192  140.6521  143.6364 LP  0  0  0  0  0  0  0  0  0  0  0  0  # atno 17320 bound_to 7965
  145.4288  139.1552  143.4034 LP  0  0  0  0  0  0  0  0  0  0  0  0  # atno 17321 bound_to 7965
  139.4918  144.6466  151.6765 LP  0  0  0  0  0  0  0  0  0  0  0  0  # atno 17342 bound_to 10162
  140.5663  144.0184  150.6194 LP  0  0  0  0  0  0  0  0  0  0  0  0  # atno 17343 bound_to 10162
  157.7041  131.0764  150.6724 LP  0  0  0  0  0  0  0  0  0  0  0  0  # atno 17370 bound_to 10713
  156.6784  130.4560  149.5635 LP  0  0  0  0  0  0  0  0  0  0  0  0  # atno 17371 bound_to 10713
  140.6462  133.9773  155.7732 LP  0  0  0  0  0  0  0  0  0  0  0  0  # atno 17394 bound_to 11000
  141.0738  134.0165  157.3487 LP  0  0  0  0  0  0  0  0  0  0  0  0  # atno 17395 bound_to 11000

$$$$
