AV-unprocessed.smi:3048|AV-procd|sdf|11627|dock10
  -GOLD-   2272017 13D 1   1.00000     0.00000
 Structure written by MMmdl.
 37 38  0  0  0  0  0  0  0  0  1 V2000
  145.8760  143.3234  153.8094 C   0  0  0  0  0  0  0  0  0  0  0  0
  146.7923  142.1664  154.0849 C   0  0  0  0  0  0  0  0  0  0  0  0
  146.8315  140.9060  153.4238 C   0  0  0  0  0  0  0  0  0  0  0  0
  147.7632  140.1007  153.9060 N   0  0  0  0  0  0  0  0  0  0  0  0
  148.3483  140.8138  154.8916 N   0  0  0  0  0  0  0  0  0  0  0  0
  149.4387  140.2331  155.6548 C   0  0  0  0  0  0  0  0  0  0  0  0
  150.7123  141.0920  155.6042 C   0  0  0  0  0  0  0  0  0  0  0  0
  150.5104  142.3964  156.2285 N   0  0  0  0  0  0  0  0  0  0  0  0
  150.2381  142.3203  157.6596 C   0  0  0  0  0  0  0  0  0  0  0  0
  151.2081  143.2075  158.4530 C   0  0  2  0  0  0  0  0  0  0  0  0
  152.1730  142.3681  159.3130 C   0  0  0  0  0  0  0  0  0  0  0  0
  153.0650  143.2763  160.1674 C   0  0  0  0  0  0  0  0  0  0  0  0
  152.1955  144.2502  160.9695 C   0  0  0  0  0  0  0  0  0  0  0  0
  151.2208  144.9876  160.0379 C   0  0  0  0  0  0  0  0  0  0  0  0
  150.4371  144.0440  159.3140 O   0  0  0  0  0  0  0  0  0  0  0  0
  147.7838  142.0651  155.0195 C   0  0  0  0  0  0  0  0  0  0  0  0
  145.0479  143.0380  153.1604 H   0  0  0  0  0  0  0  0  0  0  0  0
  146.4008  144.1432  153.3187 H   0  0  0  0  0  0  0  0  0  0  0  0
  145.4414  143.7210  154.7268 H   0  0  0  0  0  0  0  0  0  0  0  0
  146.2141  140.5552  152.6101 H   0  0  0  0  0  0  0  0  0  0  0  0
  149.1200  140.0801  156.6874 H   0  0  0  0  0  0  0  0  0  0  0  0
  149.6455  139.2444  155.2440 H   0  0  0  0  0  0  0  0  0  0  0  0
  151.5136  140.5607  156.1188 H   0  0  0  0  0  0  0  0  0  0  0  0
  151.0367  141.2148  154.5702 H   0  0  0  0  0  0  0  0  0  0  0  0
  149.7540  142.8883  155.7629 H   0  0  0  0  0  0  0  0  0  0  0  0
  149.2100  142.6170  157.8705 H   0  0  0  0  0  0  0  0  0  0  0  0
  150.3392  141.2857  157.9897 H   0  0  0  0  0  0  0  0  0  0  0  0
  151.7857  143.8225  157.7601 H   0  0  0  0  0  0  0  0  0  0  0  0
  151.6029  141.7023  159.9623 H   0  0  0  0  0  0  0  0  0  0  0  0
  152.7909  141.7321  158.6785 H   0  0  0  0  0  0  0  0  0  0  0  0
  153.6859  142.6803  160.8367 H   0  0  0  0  0  0  0  0  0  0  0  0
  153.7443  143.8356  159.5228 H   0  0  0  0  0  0  0  0  0  0  0  0
  151.6315  143.7017  161.7247 H   0  0  0  0  0  0  0  0  0  0  0  0
  152.8223  144.9646  161.5038 H   0  0  0  0  0  0  0  0  0  0  0  0
  150.5550  145.6243  160.6204 H   0  0  0  0  0  0  0  0  0  0  0  0
  151.7584  145.6377  159.3462 H   0  0  0  0  0  0  0  0  0  0  0  0
  148.1300  142.7720  155.7591 H   0  0  0  0  0  0  0  0  0  0  0  0
  1  2  1  0  0  0  0
  1 17  1  0  0  0  0
  1 18  1  0  0  0  0
  1 19  1  0  0  0  0
  2 16  2  0  0  0  0
  2  3  1  0  0  0  0
  3  4  2  0  0  0  0
  3 20  1  0  0  0  0
  4  5  1  0  0  0  0
  5  6  1  0  0  0  0
  5 16  1  0  0  0  0
  6  7  1  0  0  0  0
  6 21  1  0  0  0  0
  6 22  1  0  0  0  0
  7  8  1  0  0  0  0
  7 23  1  0  0  0  0
  7 24  1  0  0  0  0
  8  9  1  0  0  0  0
  8 25  1  0  0  0  0
  9 10  1  0  0  0  0
  9 26  1  0  0  0  0
  9 27  1  0  0  0  0
 10 15  1  0  0  0  0
 10 11  1  0  0  0  0
 10 28  1  0  0  0  0
 11 12  1  0  0  0  0
 11 29  1  0  0  0  0
 11 30  1  0  0  0  0
 12 13  1  0  0  0  0
 12 31  1  0  0  0  0
 12 32  1  0  0  0  0
 13 14  1  0  0  0  0
 13 33  1  0  0  0  0
 13 34  1  0  0  0  0
 14 15  1  0  0  0  0
 14 35  1  0  0  0  0
 14 36  1  0  0  0  0
 16 37  1  0  0  0  0
M  END
> <s_m_source_file>
AV-unprocessed.smi

> <i_m_source_file_index>
3048

> <i_lp_mmshare_version>
43012

> <i_f3d_flags>
0

> <s_epik_input>
W0NIM11jMVtjSF1ubihbY0hdMSlbQ0gyXVtDSDJdW05IXVtDSDJdW0NAQEhdMltDSDJdW0NIMl1bQ0gyXVtDSDJdTzI=

> <s_epik_cmdline>
J2VwaWtfcHl0aG9uJywgJy1waCcsICc3LjAnLCAnLXRuJywgJzgnLCAnLW1hJywgJzIwMCcsICctbWV0YWxfYmluZGluZycsICctaW1hZScsICc8aW5maWxlLm1hZT4nLCAnLW9tYWUnLCAnPG91dGZpbGUubWFlPic=

> <r_lp_tautomer_probability>
1

> <r_epik_Ionization_Penalty>
2.52229

> <r_epik_Ionization_Penalty_Charging>
0

> <r_epik_Ionization_Penalty_Neutral>
2.52229

> <r_epik_State_Penalty>
2.68614

> <r_epik_Charging_Adjusted_Penalty>
2.68614

> <i_epik_Tot_Q>
0

> <i_epik_Tot_abs_Q>
0

> <r_epik_Metal_State_Penalty>
2.68365

> <b_epik_Metal_Only>
0

> <s_lp_Force_Field>
OPLS_2005

> <r_lp_Energy>
12.7025

> <b_lp_Chiralities_Consistent>
1

> <s_lp_Variant>
AV-unprocessed.smi:3048-3

> <Gold.Version>
5.8.1

> <Gold.Id.Protein>
6NUR|6NUR_protein|mol2

> <Gold.PLP.Fitness>
41.6435

> <Gold.PLP.PLP>
-35.4014

> <Gold.PLP.part.hbond>
-1.0000

> <Gold.PLP.part.metal>
0.0000

> <Gold.PLP.part.buried>
-3.2110

> <Gold.PLP.part.nonpolar>
-31.3871

> <Gold.PLP.part.repulsive>
0.2758

> <Gold.PLP.ligand.clash>
0.0000

> <Gold.PLP.ligand.torsion>
1.1049

> <Gold.PLP.Chemscore.Hbond>
0.8320

> <Gold.PLP.Chemscore.CHOScore>
1.9774

> <Gold.PLP.Chemscore.Metal>
0.0000

> <Gold.Chemscore.Hbonds>
donor molecule, donor type, donor heavy atom, donor atom, acceptor molecule, acceptor atom, score
      L1  H     8    25       P1  8028  0.83
      L1  C     3    20       P1 10175  0.98
      L1  C    16    37       P1  8028  1.00

> <Gold.PLP.Chemscore.Internal.Correction>
0.0237

> <Gold.Rescore>
     Score         DG    S(hbond)    S(metal)    S(lipo)     H(rot)  DE(clash)    DE(int)     intcor
     14.96     -16.30       0.79        0.00     103.53       1.54       0.31       1.03       ----

> <Gold.Chemscore.Fitness>
14.9581

> <Gold.Chemscore.DG>
-16.2986

> <Gold.Chemscore.ZeroCoef>
-5.4800

> <Gold.Chemscore.Hbond>
0.7935

> <Gold.Chemscore.Metal>
0.0000

> <Gold.Chemscore.Lipo>
103.5337

> <Gold.Chemscore.Internal_Hbond>
0.0000

> <Gold.Chemscore.DEClash>
0.3147

> <Gold.Chemscore.DEInternal>
1.0258

> <Gold.Chemscore.Rot>
1.5411

> <Gold.Chemscore.Internal.Correction>
   9.000000E+99

> <Gold.Chemscore.Hbonds>
donor molecule, donor type, donor heavy atom, donor atom, acceptor molecule, acceptor atom, score
      L1  H     8    25       P1  8028  0.76

> <Gold.Chemscore.Hbond.Weighted>
-2.6504

> <Gold.Chemscore.Metal.Weighted>
-0.0000

> <Gold.Chemscore.Lipo.Weighted>
-12.1134

> <Gold.Chemscore.Internal_Hbond.Weighted>
0.0000

> <Gold.Chemscore.DEClash.Weighted>
0.3147

> <Gold.Chemscore.DEInternal.Weighted>
1.0258

> <Gold.Chemscore.Rot.Weighted>
3.9452

> <Gold.Chemscore.Internal.Correction.Weighted>
   9.000000E+99

> <Gold.Protein.RotatedTorsions>
[ 6907 6896 6895 6894 ] final  -16.35 input  -60.11 | X-H torsion
[ 7974 7965 7964 7962 ] final -156.71 input  175.53 | X-H torsion
[ 8008 7997 7996 7995 ] final   21.84 input   59.86 | X-H torsion
[ 10167 10162 10161 10158 ] final  128.22 input  -65.29 | X-H torsion
[ 10718 10713 10712 10709 ] final   -0.22 input   66.30 | X-H torsion
[ 10763 10752 10751 10750 ] final   66.95 input  -60.55 | X-H torsion
[ 11005 11000 10999 10996 ] final  164.67 input  -57.11 | X-H torsion

> <Gold.Protein.ActiveResidues>
 VAL166  LYS551  ARG553  GLY616  TRP617  ASP618  TYR619  PRO620  LYS621  CYS622 
 ASP623  PHE694  ASN695  SER759  ASP760  ASP761  ALA762  ILE779  LEU786  VAL792 
 PHE793  MET794  SER795  GLU796  ALA797  LYS798  CYS799  TRP800  GLU811  SER814 

> <Gold.Protein.RotatedAtoms>
  151.3099  135.0791  159.9268 H   0  0  0  0  0  0  0  0  0  0  0  0  # atno 6907 bound_to 6896
  152.5280  133.9746  159.7788 H   0  0  0  0  0  0  0  0  0  0  0  0  # atno 6908 bound_to 6896
  151.0048  133.5970  159.2720 H   0  0  0  0  0  0  0  0  0  0  0  0  # atno 6909 bound_to 6896
  144.7581  140.4071  143.5997 H   0  0  0  0  0  0  0  0  0  0  0  0  # atno 7974 bound_to 7965
  154.9566  140.3072  155.5050 H   0  0  0  0  0  0  0  0  0  0  0  0  # atno 8008 bound_to 7997
  156.2981  140.2309  156.4587 H   0  0  0  0  0  0  0  0  0  0  0  0  # atno 8009 bound_to 7997
  154.8004  140.0434  157.1257 H   0  0  0  0  0  0  0  0  0  0  0  0  # atno 8010 bound_to 7997
  139.5538  144.6833  151.4243 H   0  0  0  0  0  0  0  0  0  0  0  0  # atno 10167 bound_to 10162
  156.8236  130.5464  149.5694 H   0  0  0  0  0  0  0  0  0  0  0  0  # atno 10718 bound_to 10713
  153.0163  135.5302  154.6904 H   0  0  0  0  0  0  0  0  0  0  0  0  # atno 10763 bound_to 10752
  154.6040  135.2871  155.0507 H   0  0  0  0  0  0  0  0  0  0  0  0  # atno 10764 bound_to 10752
  154.1553  135.6556  153.5025 H   0  0  0  0  0  0  0  0  0  0  0  0  # atno 10765 bound_to 10752
  140.2483  134.7997  157.3477 H   0  0  0  0  0  0  0  0  0  0  0  0  # atno 11005 bound_to 11000
  145.6712  139.1599  143.2753 LP  0  0  0  0  0  0  0  0  0  0  0  0  # atno 17320 bound_to 7965
  146.1613  140.6783  142.9276 LP  0  0  0  0  0  0  0  0  0  0  0  0  # atno 17321 bound_to 7965
  140.6807  143.8088  150.7117 LP  0  0  0  0  0  0  0  0  0  0  0  0  # atno 17342 bound_to 10162
  140.1541  143.4332  152.2111 LP  0  0  0  0  0  0  0  0  0  0  0  0  # atno 17343 bound_to 10162
  156.0974  130.5943  150.9837 LP  0  0  0  0  0  0  0  0  0  0  0  0  # atno 17370 bound_to 10713
  157.6444  131.0906  150.8184 LP  0  0  0  0  0  0  0  0  0  0  0  0  # atno 17371 bound_to 10713
  140.1584  134.4760  155.7912 LP  0  0  0  0  0  0  0  0  0  0  0  0  # atno 17394 bound_to 11000
  141.2204  133.6891  156.7501 LP  0  0  0  0  0  0  0  0  0  0  0  0  # atno 17395 bound_to 11000

$$$$
