AV-unprocessed.smi:3271|AV-procd|sdf|12517|dock5
  -GOLD-   2272018433D 1   1.00000     0.00000
 Structure written by MMmdl.
 41 41  0  0  0  0  0  0  0  0  1 V2000
  143.5988  134.4122  151.5098 C   0  0  0  0  0  0  0  0  0  0  0  0
  145.0402  134.7491  151.0956 C   0  0  0  0  0  0  0  0  0  0  0  0
  145.8914  135.4039  152.2082 C   0  0  0  0  0  0  0  0  0  0  0  0
  145.5752  134.7678  153.5812 C   0  0  0  0  0  0  0  0  0  0  0  0
  145.8690  133.2614  153.6661 C   0  0  0  0  0  0  0  0  0  0  0  0
  145.6947  136.9292  152.2408 C   0  0  0  0  0  0  0  0  0  0  0  0
  144.5784  137.4086  152.4411 O   0  0  0  0  0  0  0  0  0  0  0  0
  146.7898  137.6749  152.0328 N   0  0  0  0  0  0  0  0  0  0  0  0
  146.8144  139.1333  151.9595 C   0  0  0  0  0  0  0  0  0  0  0  0
  146.9668  139.8164  153.3438 C   0  0  2  0  0  0  0  0  0  0  0  0
  146.0153  139.1663  154.3631 C   0  0  0  0  0  0  0  0  0  0  0  0
  146.4973  141.1441  153.2039 O   0  0  0  0  0  0  0  0  0  0  0  0
  148.3898  139.7742  153.8635 C   0  0  0  0  0  0  0  0  0  0  0  0
  149.2244  140.8632  154.2526 C   0  0  0  0  0  0  0  0  0  0  0  0
  150.4276  140.4802  154.6470 N   0  0  0  0  0  0  0  0  0  0  0  0
  150.4039  139.1372  154.5353 N   0  0  0  0  0  0  0  0  0  0  0  0
  151.5798  138.3708  154.8875 C   0  0  0  0  0  0  0  0  0  0  0  0
  149.1889  138.6835  154.0708 C   0  0  0  0  0  0  0  0  0  0  0  0
  143.0265  134.0502  150.6557 H   0  0  0  0  0  0  0  0  0  0  0  0
  143.0854  135.2888  151.9061 H   0  0  0  0  0  0  0  0  0  0  0  0
  143.5726  133.6331  152.2714 H   0  0  0  0  0  0  0  0  0  0  0  0
  145.5307  133.8451  150.7314 H   0  0  0  0  0  0  0  0  0  0  0  0
  144.9960  135.4264  150.2420 H   0  0  0  0  0  0  0  0  0  0  0  0
  146.9389  135.1969  151.9813 H   0  0  0  0  0  0  0  0  0  0  0  0
  146.1224  135.2873  154.3691 H   0  0  0  0  0  0  0  0  0  0  0  0
  144.5189  134.9185  153.8063 H   0  0  0  0  0  0  0  0  0  0  0  0
  145.5675  132.8652  154.6359 H   0  0  0  0  0  0  0  0  0  0  0  0
  146.9309  133.0475  153.5428 H   0  0  0  0  0  0  0  0  0  0  0  0
  145.3237  132.7105  152.8994 H   0  0  0  0  0  0  0  0  0  0  0  0
  147.6644  137.1962  151.8749 H   0  0  0  0  0  0  0  0  0  0  0  0
  147.5586  139.4925  151.2459 H   0  0  0  0  0  0  0  0  0  0  0  0
  145.8478  139.4097  151.5370 H   0  0  0  0  0  0  0  0  0  0  0  0
  146.2737  138.1210  154.5361 H   0  0  0  0  0  0  0  0  0  0  0  0
  144.9805  139.1939  154.0188 H   0  0  0  0  0  0  0  0  0  0  0  0
  146.0565  139.6763  155.3266 H   0  0  0  0  0  0  0  0  0  0  0  0
  145.5685  141.1191  153.0316 H   0  0  0  0  0  0  0  0  0  0  0  0
  148.9949  141.9187  154.2505 H   0  0  0  0  0  0  0  0  0  0  0  0
  151.3423  137.3066  154.9011 H   0  0  0  0  0  0  0  0  0  0  0  0
  151.9341  138.6666  155.8758 H   0  0  0  0  0  0  0  0  0  0  0  0
  152.3677  138.5501  154.1554 H   0  0  0  0  0  0  0  0  0  0  0  0
  148.9947  137.6321  153.9186 H   0  0  0  0  0  0  0  0  0  0  0  0
  1  2  1  0  0  0  0
  1 19  1  0  0  0  0
  1 20  1  0  0  0  0
  1 21  1  0  0  0  0
  2  3  1  0  0  0  0
  2 22  1  0  0  0  0
  2 23  1  0  0  0  0
  3  4  1  0  0  0  0
  3  6  1  0  0  0  0
  3 24  1  0  0  0  0
  4  5  1  0  0  0  0
  4 25  1  0  0  0  0
  4 26  1  0  0  0  0
  5 27  1  0  0  0  0
  5 28  1  0  0  0  0
  5 29  1  0  0  0  0
  6  7  2  0  0  0  0
  6  8  1  0  0  0  0
  8  9  1  0  0  0  0
  8 30  1  0  0  0  0
  9 10  1  0  0  0  0
  9 31  1  0  0  0  0
  9 32  1  0  0  0  0
 10 11  1  0  0  0  0
 10 12  1  0  0  0  0
 10 13  1  0  0  0  0
 11 33  1  0  0  0  0
 11 34  1  0  0  0  0
 11 35  1  0  0  0  0
 12 36  1  0  0  0  0
 13 18  2  0  0  0  0
 13 14  1  0  0  0  0
 14 15  2  0  0  0  0
 14 37  1  0  0  0  0
 15 16  1  0  0  0  0
 16 17  1  0  0  0  0
 16 18  1  0  0  0  0
 17 38  1  0  0  0  0
 17 39  1  0  0  0  0
 17 40  1  0  0  0  0
 18 41  1  0  0  0  0
M  END
> <s_m_source_file>
AV-unprocessed.smi

> <i_m_source_file_index>
3271

> <i_lp_mmshare_version>
43012

> <i_f3d_flags>
0

> <s_epik_input>
W0NIM11bQ0gyXVtDSF0oW0NIMl1bQ0gzXSlDKD1PKVtOSF1bQ0gyXVtDQEBdKFtDSDNdKShbT0hdKWMxW2NIXW5uKFtDSDNdKVtjSF0x

> <s_epik_cmdline>
J2VwaWtfcHl0aG9uJywgJy1waCcsICc3LjAnLCAnLXRuJywgJzgnLCAnLW1hJywgJzIwMCcsICctbWV0YWxfYmluZGluZycsICctaW1hZScsICc8aW5maWxlLm1hZT4nLCAnLW9tYWUnLCAnPG91dGZpbGUubWFlPic=

> <r_lp_tautomer_probability>
1

> <r_epik_Ionization_Penalty>
6.03488e-05

> <r_epik_Ionization_Penalty_Charging>
0

> <r_epik_Ionization_Penalty_Neutral>
6.03488e-05

> <r_epik_State_Penalty>
-0

> <r_epik_Charging_Adjusted_Penalty>
0

> <i_epik_Tot_Q>
0

> <i_epik_Tot_abs_Q>
0

> <r_epik_Metal_State_Penalty>
-0

> <b_epik_Metal_Only>
0

> <s_lp_Force_Field>
OPLS_2005

> <r_lp_Energy>
0.383254

> <b_lp_Chiralities_Consistent>
1

> <s_lp_Variant>
AV-unprocessed.smi:3271-2

> <Gold.Version>
5.8.1

> <Gold.Id.Protein>
6NUR|6NUR_protein|mol2

> <Gold.PLP.Fitness>
41.5359

> <Gold.PLP.PLP>
-30.8766

> <Gold.PLP.part.hbond>
-3.0000

> <Gold.PLP.part.metal>
0.0000

> <Gold.PLP.part.buried>
-2.2095

> <Gold.PLP.part.nonpolar>
-26.4998

> <Gold.PLP.part.repulsive>
0.3731

> <Gold.PLP.ligand.clash>
0.0000

> <Gold.PLP.ligand.torsion>
0.7481

> <Gold.PLP.Chemscore.Hbond>
3.0000

> <Gold.PLP.Chemscore.CHOScore>
1.0000

> <Gold.PLP.Chemscore.Metal>
0.0000

> <Gold.Chemscore.Hbonds>
donor molecule, donor type, donor heavy atom, donor atom, acceptor molecule, acceptor atom, score
      L1  H     8    30       P1  7948  1.00
      L1  H    12    36       P1 10175  0.90
      P1  H  7989  7998       L1    15  1.00
      L1  C    18    41       P1  7948  1.00

> <Gold.PLP.Chemscore.Internal.Correction>
0.1554

> <Gold.Rescore>
     Score         DG    S(hbond)    S(metal)    S(lipo)     H(rot)  DE(clash)    DE(int)     intcor
     15.52     -16.18       2.82        0.00      62.12       2.33       0.13       0.54       ----

> <Gold.Chemscore.Fitness>
15.5160

> <Gold.Chemscore.DG>
-16.1842

> <Gold.Chemscore.ZeroCoef>
-5.4800

> <Gold.Chemscore.Hbond>
2.8177

> <Gold.Chemscore.Metal>
0.0000

> <Gold.Chemscore.Lipo>
62.1215

> <Gold.Chemscore.Internal_Hbond>
0.0000

> <Gold.Chemscore.DEClash>
0.1283

> <Gold.Chemscore.DEInternal>
0.5399

> <Gold.Chemscore.Rot>
2.3341

> <Gold.Chemscore.Internal.Correction>
   9.000000E+99

> <Gold.Chemscore.Hbonds>
donor molecule, donor type, donor heavy atom, donor atom, acceptor molecule, acceptor atom, score
      L1  H     8    30       P1  7948  0.98
      L1  H    12    36       P1 10175  0.19
      P1  H  7989  7998       L1    15  0.22

> <Gold.Chemscore.Hbond.Weighted>
-9.4113

> <Gold.Chemscore.Metal.Weighted>
-0.0000

> <Gold.Chemscore.Lipo.Weighted>
-7.2682

> <Gold.Chemscore.Internal_Hbond.Weighted>
0.0000

> <Gold.Chemscore.DEClash.Weighted>
0.1283

> <Gold.Chemscore.DEInternal.Weighted>
0.5399

> <Gold.Chemscore.Rot.Weighted>
5.9753

> <Gold.Chemscore.Internal.Correction.Weighted>
   9.000000E+99

> <Gold.Protein.RotatedTorsions>
[ 6907 6896 6895 6894 ] final   -0.34 input  -60.11 | X-H torsion
[ 7974 7965 7964 7962 ] final   87.35 input  175.53 | X-H torsion
[ 8008 7997 7996 7995 ] final -156.06 input   59.86 | X-H torsion
[ 10167 10162 10161 10158 ] final   27.18 input  -65.29 | X-H torsion
[ 10718 10713 10712 10709 ] final   23.88 input   66.30 | X-H torsion
[ 10763 10752 10751 10750 ] final  165.98 input  -60.55 | X-H torsion
[ 11005 11000 10999 10996 ] final   26.92 input  -57.11 | X-H torsion

> <Gold.Protein.ActiveResidues>
 VAL166  LYS551  ARG553  GLY616  TRP617  ASP618  TYR619  PRO620  LYS621  CYS622 
 ASP623  PHE694  ASN695  SER759  ASP760  ASP761  ALA762  ILE779  LEU786  VAL792 
 PHE793  MET794  SER795  GLU796  ALA797  LYS798  CYS799  TRP800  GLU811  SER814 

> <Gold.Protein.RotatedAtoms>
  151.5639  135.1064  159.9978 H   0  0  0  0  0  0  0  0  0  0  0  0  # atno 6907 bound_to 6896
  152.4433  133.7485  159.6691 H   0  0  0  0  0  0  0  0  0  0  0  0  # atno 6908 bound_to 6896
  150.8343  133.7970  159.3109 H   0  0  0  0  0  0  0  0  0  0  0  0  # atno 6909 bound_to 6896
  145.5602  139.2303  143.2464 H   0  0  0  0  0  0  0  0  0  0  0  0  # atno 7974 bound_to 7965
  155.7114  140.0779  157.2369 H   0  0  0  0  0  0  0  0  0  0  0  0  # atno 8008 bound_to 7997
  154.4058  140.1629  156.2354 H   0  0  0  0  0  0  0  0  0  0  0  0  # atno 8009 bound_to 7997
  155.9279  140.3393  155.6228 H   0  0  0  0  0  0  0  0  0  0  0  0  # atno 8010 bound_to 7997
  140.4960  144.0392  150.6314 H   0  0  0  0  0  0  0  0  0  0  0  0  # atno 10167 bound_to 10162
  157.1722  130.6764  149.6082 H   0  0  0  0  0  0  0  0  0  0  0  0  # atno 10718 bound_to 10713
  154.3322  135.2754  155.2466 H   0  0  0  0  0  0  0  0  0  0  0  0  # atno 10763 bound_to 10752
  154.4773  135.5867  153.6367 H   0  0  0  0  0  0  0  0  0  0  0  0  # atno 10764 bound_to 10752
  152.9865  135.6103  154.3515 H   0  0  0  0  0  0  0  0  0  0  0  0  # atno 10765 bound_to 10752
  140.3318  134.2429  155.7701 H   0  0  0  0  0  0  0  0  0  0  0  0  # atno 11005 bound_to 11000
  146.1856  140.6427  142.9169 LP  0  0  0  0  0  0  0  0  0  0  0  0  # atno 17320 bound_to 7965
  144.7486  140.5134  143.6817 LP  0  0  0  0  0  0  0  0  0  0  0  0  # atno 17321 bound_to 7965
  140.3674  143.2873  152.0316 LP  0  0  0  0  0  0  0  0  0  0  0  0  # atno 17342 bound_to 10162
  139.4861  144.6256  151.7170 LP  0  0  0  0  0  0  0  0  0  0  0  0  # atno 17343 bound_to 10162
  155.9737  130.4675  150.6327 LP  0  0  0  0  0  0  0  0  0  0  0  0  # atno 17370 bound_to 10713
  157.4032  131.0813  151.1289 LP  0  0  0  0  0  0  0  0  0  0  0  0  # atno 17371 bound_to 10713
  141.2061  133.7841  157.0194 LP  0  0  0  0  0  0  0  0  0  0  0  0  # atno 17394 bound_to 11000
  140.0854  134.9623  157.1692 LP  0  0  0  0  0  0  0  0  0  0  0  0  # atno 17395 bound_to 11000

$$$$
