AV-unprocessed.smi:1047|AV-procd|sdf|4564|dock7
  -GOLD-   22720 3 13D 1   1.00000     0.00000
 Structure written by MMmdl.
 57 59  0  0  0  0  0  0  0  0  3 V2000
  152.4996  129.9789  156.2987 C   0  0  0  0  0  0  0  0  0  0  0  0
  151.9377  131.3633  156.6528 C   0  0  0  0  0  0  0  0  0  0  0  0
  151.0504  131.9112  155.5959 N   0  3  1  0  0  0  0  0  0  0  0  0
  149.9200  131.0027  155.2878 C   0  0  0  0  0  0  0  0  0  0  0  0
  149.0583  131.5758  154.1503 C   0  0  0  0  0  0  0  0  0  0  0  0
  148.5920  132.8719  154.5067 O   0  0  0  0  0  0  0  0  0  0  0  0
  149.6606  133.7854  154.7310 C   0  0  1  0  0  0  0  0  0  0  0  0
  149.0771  135.1877  154.9754 C   0  0  0  0  0  0  0  0  0  0  0  0
  149.9061  136.2507  154.3697 N   0  3  0  0  0  0  0  0  0  0  0  0
  149.9939  137.4794  155.1828 C   0  0  0  0  0  0  0  0  0  0  0  0
  150.2977  138.7118  154.3094 C   0  0  1  0  0  0  0  0  0  0  0  0
  149.3238  138.7896  153.2862 O   0  0  0  0  0  0  0  0  0  0  0  0
  150.3097  140.0386  155.1003 C   0  0  0  0  0  0  0  0  0  0  0  0
  151.2384  140.0390  156.2194 N   0  0  0  0  0  0  0  0  0  0  0  0
  152.1876  139.1214  156.4882 C   0  0  0  0  0  0  0  0  0  0  0  0
  152.9406  139.3209  157.5655 N   0  0  0  0  0  0  0  0  0  0  0  0
  152.4135  140.5012  158.0596 C   0  0  0  0  0  0  0  0  0  0  0  0
  152.7706  141.2593  159.1959 C   0  0  0  0  0  0  0  0  0  0  0  0
  152.0847  142.4525  159.5160 C   0  0  0  0  0  0  0  0  0  0  0  0
  152.5001  143.2339  160.7499 C   0  0  0  0  0  0  0  0  0  0  0  0
  151.0216  142.9037  158.6933 C   0  0  0  0  0  0  0  0  0  0  0  0
  150.2674  144.1802  159.0207 C   0  0  0  0  0  0  0  0  0  0  0  0
  150.6532  142.1594  157.5533 C   0  0  0  0  0  0  0  0  0  0  0  0
  151.3441  140.9741  157.2442 C   0  0  0  0  0  0  0  0  0  0  0  0
  150.5494  133.2780  155.8863 C   0  0  0  0  0  0  0  0  0  0  0  0
  153.0557  129.5668  157.1411 H   0  0  0  0  0  0  0  0  0  0  0  0
  153.1847  130.0187  155.4521 H   0  0  0  0  0  0  0  0  0  0  0  0
  151.7014  129.2769  156.0562 H   0  0  0  0  0  0  0  0  0  0  0  0
  151.3661  131.2651  157.5767 H   0  0  0  0  0  0  0  0  0  0  0  0
  152.7476  132.0634  156.8631 H   0  0  0  0  0  0  0  0  0  0  0  0
  150.3002  130.0222  154.9985 H   0  0  0  0  0  0  0  0  0  0  0  0
  149.3111  130.8587  156.1819 H   0  0  0  0  0  0  0  0  0  0  0  0
  149.6233  131.6218  153.2178 H   0  0  0  0  0  0  0  0  0  0  0  0
  148.1991  130.9295  153.9693 H   0  0  0  0  0  0  0  0  0  0  0  0
  150.2648  133.8372  153.8231 H   0  0  0  0  0  0  0  0  0  0  0  0
  148.0672  135.2410  154.5665 H   0  0  0  0  0  0  0  0  0  0  0  0
  148.9954  135.3710  156.0474 H   0  0  0  0  0  0  0  0  0  0  0  0
  150.8391  135.8924  154.2234 H   0  0  0  0  0  0  0  0  0  0  0  0
  149.0601  137.6147  155.7306 H   0  0  0  0  0  0  0  0  0  0  0  0
  150.7847  137.3496  155.9228 H   0  0  0  0  0  0  0  0  0  0  0  0
  151.2716  138.5880  153.8341 H   0  0  0  0  0  0  0  0  0  0  0  0
  149.7353  139.1254  152.5036 H   0  0  0  0  0  0  0  0  0  0  0  0
  150.5759  140.8615  154.4359 H   0  0  0  0  0  0  0  0  0  0  0  0
  149.3118  140.2652  155.4785 H   0  0  0  0  0  0  0  0  0  0  0  0
  152.3393  138.2614  155.8522 H   0  0  0  0  0  0  0  0  0  0  0  0
  153.5787  140.9141  159.8241 H   0  0  0  0  0  0  0  0  0  0  0  0
  151.6860  143.2600  161.4745 H   0  0  0  0  0  0  0  0  0  0  0  0
  152.7635  144.2585  160.4865 H   0  0  0  0  0  0  0  0  0  0  0  0
  153.3656  142.7814  161.2346 H   0  0  0  0  0  0  0  0  0  0  0  0
  149.4566  144.3564  158.3134 H   0  0  0  0  0  0  0  0  0  0  0  0
  150.9377  145.0390  158.9836 H   0  0  0  0  0  0  0  0  0  0  0  0
  149.8327  144.1229  160.0186 H   0  0  0  0  0  0  0  0  0  0  0  0
  149.8443  142.4926  156.9202 H   0  0  0  0  0  0  0  0  0  0  0  0
  149.9901  133.2624  156.8231 H   0  0  0  0  0  0  0  0  0  0  0  0
  151.3837  133.9655  156.0231 H   0  0  0  0  0  0  0  0  0  0  0  0
  149.5115  136.5011  153.4740 H   0  0  0  0  0  0  0  0  0  0  0  0
  151.6064  131.9692  154.7542 H   0  0  0  0  0  0  0  0  0  0  0  0
  1  2  1  0  0  0  0
  1 26  1  0  0  0  0
  1 27  1  0  0  0  0
  1 28  1  0  0  0  0
  2  3  1  0  0  0  0
  2 29  1  0  0  0  0
  2 30  1  0  0  0  0
  3 25  1  0  0  0  0
  3  4  1  0  0  0  0
  3 57  1  0  0  0  0
  4  5  1  0  0  0  0
  4 31  1  0  0  0  0
  4 32  1  0  0  0  0
  5  6  1  0  0  0  0
  5 33  1  0  0  0  0
  5 34  1  0  0  0  0
  6  7  1  0  0  0  0
  7  8  1  0  0  0  0
  7 25  1  0  0  0  0
  7 35  1  0  0  0  0
  8  9  1  0  0  0  0
  8 36  1  0  0  0  0
  8 37  1  0  0  0  0
  9 10  1  0  0  0  0
  9 38  1  0  0  0  0
  9 56  1  0  0  0  0
 10 11  1  0  0  0  0
 10 39  1  0  0  0  0
 10 40  1  0  0  0  0
 11 12  1  0  0  0  0
 11 13  1  0  0  0  0
 11 41  1  0  0  0  0
 12 42  1  0  0  0  0
 13 14  1  0  0  0  0
 13 43  1  0  0  0  0
 13 44  1  0  0  0  0
 14 24  1  0  0  0  0
 14 15  1  0  0  0  0
 15 16  2  0  0  0  0
 15 45  1  0  0  0  0
 16 17  1  0  0  0  0
 17 24  2  0  0  0  0
 17 18  1  0  0  0  0
 18 19  2  0  0  0  0
 18 46  1  0  0  0  0
 19 20  1  0  0  0  0
 19 21  1  0  0  0  0
 20 47  1  0  0  0  0
 20 48  1  0  0  0  0
 20 49  1  0  0  0  0
 21 22  1  0  0  0  0
 21 23  2  0  0  0  0
 22 50  1  0  0  0  0
 22 51  1  0  0  0  0
 22 52  1  0  0  0  0
 23 24  1  0  0  0  0
 23 53  1  0  0  0  0
 25 54  1  0  0  0  0
 25 55  1  0  0  0  0
M  CHG  1   3   1
M  CHG  1   9   1
M  END
> <s_m_source_file>
AV-unprocessed.smi

> <i_m_source_file_index>
1047

> <i_lp_mmshare_version>
43012

> <i_f3d_flags>
0

> <s_epik_input>
W0NIM11bQ0gyXU4xW0NIMl1bQ0gyXU9bQ0BIXShbQ0gyXTEpW0NIMl1bTkhdW0NIMl1bQ0BIXShbT0hdKVtDSDJdbihbY0hdbjIpYyhjMjMpW2NIXWMoW0NIM10pYyhbY0hdMylbQ0gzXQ==

> <s_epik_cmdline>
J2VwaWtfcHl0aG9uJywgJy1waCcsICc3LjAnLCAnLXRuJywgJzgnLCAnLW1hJywgJzIwMCcsICctbWV0YWxfYmluZGluZycsICctaW1hZScsICc8aW5maWxlLm1hZT4nLCAnLW9tYWUnLCAnPG91dGZpbGUubWFlPic=

> <r_epik_Ionization_Penalty>
0.528991

> <r_epik_Ionization_Penalty_Charging>
0.438567

> <r_epik_Ionization_Penalty_Neutral>
0.0904237

> <r_epik_State_Penalty>
0.533036

> <r_epik_Charging_Adjusted_Penalty>
0.971603

> <i_epik_Tot_Q>
2

> <i_epik_Tot_abs_Q>
2

> <r_epik_Metal_State_Penalty>
0.448985

> <b_epik_Metal_Only>
0

> <s_lp_Force_Field>
OPLS_2005

> <r_lp_Energy>
29.0334

> <b_lp_Chiralities_Consistent>
1

> <s_lp_Variant>
AV-unprocessed.smi:1047-5

> <Gold.Version>
5.8.1

> <Gold.Id.Protein>
6NUR|6NUR_protein|mol2

> <Gold.PLP.Fitness>
56.5609

> <Gold.PLP.PLP>
-46.5218

> <Gold.PLP.part.hbond>
-4.6156

> <Gold.PLP.part.metal>
0.0000

> <Gold.PLP.part.buried>
-4.3852

> <Gold.PLP.part.nonpolar>
-37.6766

> <Gold.PLP.part.repulsive>
0.1433

> <Gold.PLP.ligand.clash>
0.0000

> <Gold.PLP.ligand.torsion>
1.0242

> <Gold.PLP.Chemscore.Hbond>
4.0000

> <Gold.PLP.Chemscore.CHOScore>
0.0000

> <Gold.PLP.Chemscore.Metal>
0.0000

> <Gold.Chemscore.Hbonds>
donor molecule, donor type, donor heavy atom, donor atom, acceptor molecule, acceptor atom, score
      L1  H     9    56       P1  7948  2.00
      L1  H    12    42       P1  7957  0.98
      P1  H  7997  8009       L1    16  0.72

> <Gold.PLP.Chemscore.Internal.Correction>
0.0874

> <Gold.Rescore>
     Score         DG    S(hbond)    S(metal)    S(lipo)     H(rot)  DE(clash)    DE(int)     intcor
     18.98     -21.19       2.63        0.00     118.36       2.70       0.06       2.15       ----

> <Gold.Chemscore.Fitness>
18.9787

> <Gold.Chemscore.DG>
-21.1940

> <Gold.Chemscore.ZeroCoef>
-5.4800

> <Gold.Chemscore.Hbond>
2.6270

> <Gold.Chemscore.Metal>
0.0000

> <Gold.Chemscore.Lipo>
118.3583

> <Gold.Chemscore.Internal_Hbond>
0.0000

> <Gold.Chemscore.DEClash>
0.0632

> <Gold.Chemscore.DEInternal>
2.1521

> <Gold.Chemscore.Rot>
2.6985

> <Gold.Chemscore.Internal.Correction>
   9.000000E+99

> <Gold.Chemscore.Hbonds>
donor molecule, donor type, donor heavy atom, donor atom, acceptor molecule, acceptor atom, score
      L1  H     9    56       P1  7948  0.69
      L1  H    12    42       P1  7957  0.82
      P1  H  7997  8009       L1    16  0.02

> <Gold.Chemscore.Hbond.Weighted>
-8.7742

> <Gold.Chemscore.Metal.Weighted>
-0.0000

> <Gold.Chemscore.Lipo.Weighted>
-13.8479

> <Gold.Chemscore.Internal_Hbond.Weighted>
0.0000

> <Gold.Chemscore.DEClash.Weighted>
0.0632

> <Gold.Chemscore.DEInternal.Weighted>
2.1521

> <Gold.Chemscore.Rot.Weighted>
6.9081

> <Gold.Chemscore.Internal.Correction.Weighted>
   9.000000E+99

> <Gold.Protein.RotatedTorsions>
[ 6907 6896 6895 6894 ] final  -53.15 input  -60.11 | X-H torsion
[ 7974 7965 7964 7962 ] final  110.25 input  175.53 | X-H torsion
[ 8008 7997 7996 7995 ] final  178.62 input   59.86 | X-H torsion
[ 10167 10162 10161 10158 ] final -144.68 input  -65.29 | X-H torsion
[ 10718 10713 10712 10709 ] final   67.99 input   66.30 | X-H torsion
[ 10763 10752 10751 10750 ] final  121.14 input  -60.55 | X-H torsion
[ 11005 11000 10999 10996 ] final   86.30 input  -57.11 | X-H torsion

> <Gold.Protein.ActiveResidues>
 VAL166  LYS551  ARG553  GLY616  TRP617  ASP618  TYR619  PRO620  LYS621  CYS622 
 ASP623  PHE694  ASN695  SER759  ASP760  ASP761  ALA762  ILE779  LEU786  VAL792 
 PHE793  MET794  SER795  GLU796  ALA797  LYS798  CYS799  TRP800  GLU811  SER814 

> <Gold.Protein.RotatedAtoms>
  150.8453  134.7759  159.6964 H   0  0  0  0  0  0  0  0  0  0  0  0  # atno 6907 bound_to 6896
  152.4531  134.5348  159.9831 H   0  0  0  0  0  0  0  0  0  0  0  0  # atno 6908 bound_to 6896
  151.5479  133.3384  159.2983 H   0  0  0  0  0  0  0  0  0  0  0  0  # atno 6909 bound_to 6896
  145.2574  139.2715  143.4035 H   0  0  0  0  0  0  0  0  0  0  0  0  # atno 7974 bound_to 7965
  156.0526  140.1329  157.0032 H   0  0  0  0  0  0  0  0  0  0  0  0  # atno 8008 bound_to 7997
  154.4442  140.1007  156.6470 H   0  0  0  0  0  0  0  0  0  0  0  0  # atno 8009 bound_to 7997
  155.5499  140.3462  155.4468 H   0  0  0  0  0  0  0  0  0  0  0  0  # atno 8010 bound_to 7997
  139.7877  143.8011  152.2646 H   0  0  0  0  0  0  0  0  0  0  0  0  # atno 10167 bound_to 10162
  157.6263  130.9350  150.0317 H   0  0  0  0  0  0  0  0  0  0  0  0  # atno 10718 bound_to 10713
  153.6094  135.3433  155.2973 H   0  0  0  0  0  0  0  0  0  0  0  0  # atno 10763 bound_to 10752
  154.8621  135.4246  154.2326 H   0  0  0  0  0  0  0  0  0  0  0  0  # atno 10764 bound_to 10752
  153.3173  135.7036  153.7134 H   0  0  0  0  0  0  0  0  0  0  0  0  # atno 10765 bound_to 10752
  139.8948  134.8346  156.2702 H   0  0  0  0  0  0  0  0  0  0  0  0  # atno 11005 bound_to 11000
  146.3285  140.2982  142.8619 LP  0  0  0  0  0  0  0  0  0  0  0  0  # atno 17320 bound_to 7965
  144.9448  140.8117  143.5608 LP  0  0  0  0  0  0  0  0  0  0  0  0  # atno 17321 bound_to 7965
  139.8093  144.7342  150.9719 LP  0  0  0  0  0  0  0  0  0  0  0  0  # atno 17342 bound_to 10162
  140.7820  143.4267  151.0757 LP  0  0  0  0  0  0  0  0  0  0  0  0  # atno 17343 bound_to 10162
  156.1438  130.3642  149.9542 LP  0  0  0  0  0  0  0  0  0  0  0  0  # atno 17370 bound_to 10713
  156.7577  130.9139  151.3640 LP  0  0  0  0  0  0  0  0  0  0  0  0  # atno 17371 bound_to 10713
  141.0106  133.7098  156.1105 LP  0  0  0  0  0  0  0  0  0  0  0  0  # atno 17394 bound_to 11000
  140.7373  134.4189  157.5559 LP  0  0  0  0  0  0  0  0  0  0  0  0  # atno 17395 bound_to 11000

$$$$
