AV-unprocessed.smi:938|AV-procd|sdf|4217|dock2
  -GOLD-   22720 2123D 1   1.00000     0.00000
 Structure written by MMmdl.
 42 43  0  0  0  0  0  0  0  0  1 V2000
  155.4519  134.6229  158.0233 C   0  0  0  0  0  0  0  0  0  0  0  0
  155.9304  135.8198  157.1914 C   0  0  0  0  0  0  0  0  0  0  0  0
  157.4614  135.8783  157.0992 C   0  0  0  0  0  0  0  0  0  0  0  0
  155.4262  137.0561  157.7826 N   0  0  0  0  0  0  0  0  0  0  0  0
  155.7425  137.5439  158.9952 C   0  0  0  0  0  0  0  0  0  0  0  0
  156.5108  136.9789  159.7748 O   0  0  0  0  0  0  0  0  0  0  0  0
  155.0655  138.8332  159.3793 C   0  0  0  0  0  0  0  0  0  0  0  0
  155.4675  139.5252  160.5430 C   0  0  0  0  0  0  0  0  0  0  0  0
  154.8099  140.7277  160.8527 C   0  0  0  0  0  0  0  0  0  0  0  0
  153.7948  141.1604  159.9788 C   0  0  0  0  0  0  0  0  0  0  0  0
  153.1127  142.3528  160.2568 N   0  0  0  0  0  0  0  0  0  0  0  0
  152.7426  142.4959  161.6573 C   0  0  0  0  0  0  0  0  0  0  0  0
  152.1557  143.8940  161.9007 C   0  0  0  0  0  0  0  0  0  0  0  0
  151.0650  144.1283  161.0101 O   0  0  0  0  0  0  0  0  0  0  0  0
  151.3716  143.9961  159.6166 C   0  0  0  0  0  0  0  0  0  0  0  0
  150.0246  144.1087  158.8859 C   0  0  0  0  0  0  0  0  0  0  0  0
  152.3012  145.1350  159.1451 C   0  0  0  0  0  0  0  0  0  0  0  0
  151.9888  142.6005  159.3620 C   0  0  0  0  0  0  0  0  0  0  0  0
  153.4528  140.4565  158.8715 N   0  0  0  0  0  0  0  0  0  0  0  0
  154.0807  139.3134  158.5770 N   0  0  0  0  0  0  0  0  0  0  0  0
  155.7956  133.6827  157.5912 H   0  0  0  0  0  0  0  0  0  0  0  0
  154.3628  134.5861  158.0661 H   0  0  0  0  0  0  0  0  0  0  0  0
  155.8245  134.6754  159.0469 H   0  0  0  0  0  0  0  0  0  0  0  0
  155.5388  135.6972  156.1803 H   0  0  0  0  0  0  0  0  0  0  0  0
  157.8614  134.9724  156.6429 H   0  0  0  0  0  0  0  0  0  0  0  0
  157.9157  135.9829  158.0852 H   0  0  0  0  0  0  0  0  0  0  0  0
  157.7862  136.7236  156.4913 H   0  0  0  0  0  0  0  0  0  0  0  0
  154.7785  137.5933  157.2238 H   0  0  0  0  0  0  0  0  0  0  0  0
  156.2527  139.1523  161.1843 H   0  0  0  0  0  0  0  0  0  0  0  0
  155.0756  141.2967  161.7316 H   0  0  0  0  0  0  0  0  0  0  0  0
  152.0080  141.7348  161.9247 H   0  0  0  0  0  0  0  0  0  0  0  0
  153.6161  142.3394  162.2914 H   0  0  0  0  0  0  0  0  0  0  0  0
  151.7920  143.9706  162.9253 H   0  0  0  0  0  0  0  0  0  0  0  0
  152.9193  144.6635  161.7867 H   0  0  0  0  0  0  0  0  0  0  0  0
  150.1485  144.0071  157.8072 H   0  0  0  0  0  0  0  0  0  0  0  0
  149.5514  145.0726  159.0761 H   0  0  0  0  0  0  0  0  0  0  0  0
  149.3306  143.3336  159.2132 H   0  0  0  0  0  0  0  0  0  0  0  0
  152.4412  145.1014  158.0643 H   0  0  0  0  0  0  0  0  0  0  0  0
  153.2923  145.0767  159.5940 H   0  0  0  0  0  0  0  0  0  0  0  0
  151.8838  146.1114  159.3929 H   0  0  0  0  0  0  0  0  0  0  0  0
  152.3130  142.5134  158.3238 H   0  0  0  0  0  0  0  0  0  0  0  0
  151.2340  141.8286  159.5229 H   0  0  0  0  0  0  0  0  0  0  0  0
  1  2  1  0  0  0  0
  1 21  1  0  0  0  0
  1 22  1  0  0  0  0
  1 23  1  0  0  0  0
  2  3  1  0  0  0  0
  2  4  1  0  0  0  0
  2 24  1  0  0  0  0
  3 25  1  0  0  0  0
  3 26  1  0  0  0  0
  3 27  1  0  0  0  0
  4  5  1  0  0  0  0
  4 28  1  0  0  0  0
  5  6  2  0  0  0  0
  5  7  1  0  0  0  0
  7 20  1  0  0  0  0
  7  8  2  0  0  0  0
  8  9  1  0  0  0  0
  8 29  1  0  0  0  0
  9 10  2  0  0  0  0
  9 30  1  0  0  0  0
 10 11  1  0  0  0  0
 10 19  1  0  0  0  0
 11 18  1  0  0  0  0
 11 12  1  0  0  0  0
 12 13  1  0  0  0  0
 12 31  1  0  0  0  0
 12 32  1  0  0  0  0
 13 14  1  0  0  0  0
 13 33  1  0  0  0  0
 13 34  1  0  0  0  0
 14 15  1  0  0  0  0
 15 16  1  0  0  0  0
 15 17  1  0  0  0  0
 15 18  1  0  0  0  0
 16 35  1  0  0  0  0
 16 36  1  0  0  0  0
 16 37  1  0  0  0  0
 17 38  1  0  0  0  0
 17 39  1  0  0  0  0
 17 40  1  0  0  0  0
 18 41  1  0  0  0  0
 18 42  1  0  0  0  0
 19 20  2  0  0  0  0
M  END
> <s_m_source_file>
AV-unprocessed.smi

> <i_m_source_file_index>
938

> <i_lp_mmshare_version>
43012

> <i_f3d_flags>
0

> <s_epik_input>
W0NIM11bQ0hdKFtDSDNdKVtOSF1DKD1PKWMxW2NIXVtjSF1jKG5uMSlOKFtDSDJdMilbQ0gyXVtDSDJdT0MyKFtDSDNdKVtDSDNd

> <s_epik_cmdline>
J2VwaWtfcHl0aG9uJywgJy1waCcsICc3LjAnLCAnLXRuJywgJzgnLCAnLW1hJywgJzIwMCcsICctbWV0YWxfYmluZGluZycsICctaW1hZScsICc8aW5maWxlLm1hZT4nLCAnLW9tYWUnLCAnPG91dGZpbGUubWFlPic=

> <r_lp_tautomer_probability>
1

> <r_epik_Ionization_Penalty>
1.44833e-06

> <r_epik_Ionization_Penalty_Charging>
0

> <r_epik_Ionization_Penalty_Neutral>
1.44833e-06

> <r_epik_State_Penalty>
-0

> <r_epik_Charging_Adjusted_Penalty>
0

> <i_epik_Tot_Q>
0

> <i_epik_Tot_abs_Q>
0

> <r_epik_Metal_State_Penalty>
-0

> <b_epik_Metal_Only>
0

> <s_lp_Force_Field>
OPLS_2005

> <r_lp_Energy>
32.4644

> <b_lp_Chiralities_Consistent>
1

> <s_lp_Variant>
AV-unprocessed.smi:938-1

> <Gold.Version>
5.8.1

> <Gold.Id.Protein>
6NUR|6NUR_protein|mol2

> <Gold.PLP.Fitness>
35.1577

> <Gold.PLP.PLP>
-33.5690

> <Gold.PLP.part.hbond>
-2.2225

> <Gold.PLP.part.metal>
0.0000

> <Gold.PLP.part.buried>
-4.1335

> <Gold.PLP.part.nonpolar>
-27.9510

> <Gold.PLP.part.repulsive>
0.3076

> <Gold.PLP.ligand.clash>
0.0000

> <Gold.PLP.ligand.torsion>
0.3057

> <Gold.PLP.Chemscore.Hbond>
0.7000

> <Gold.PLP.Chemscore.CHOScore>
0.0000

> <Gold.PLP.Chemscore.Metal>
0.0000

> <Gold.Chemscore.Hbonds>
donor molecule, donor type, donor heavy atom, donor atom, acceptor molecule, acceptor atom, score
      P1  H  7997  8008       L1    20  0.65

> <Gold.PLP.Chemscore.Internal.Correction>
0.1002

> <Gold.Rescore>
     Score         DG    S(hbond)    S(metal)    S(lipo)     H(rot)  DE(clash)    DE(int)     intcor
     12.41     -13.75       0.01        0.00      96.21       1.17       0.38       0.96       ----

> <Gold.Chemscore.Fitness>
12.4081

> <Gold.Chemscore.DG>
-13.7464

> <Gold.Chemscore.ZeroCoef>
-5.4800

> <Gold.Chemscore.Hbond>
0.0052

> <Gold.Chemscore.Metal>
0.0000

> <Gold.Chemscore.Lipo>
96.2119

> <Gold.Chemscore.Internal_Hbond>
0.0000

> <Gold.Chemscore.DEClash>
0.3775

> <Gold.Chemscore.DEInternal>
0.9608

> <Gold.Chemscore.Rot>
1.1749

> <Gold.Chemscore.Internal.Correction>
   9.000000E+99

> <Gold.Chemscore.Hbonds>
donor molecule, donor type, donor heavy atom, donor atom, acceptor molecule, acceptor atom, score
      P1  H  7997  8008       L1    20  0.02

> <Gold.Chemscore.Hbond.Weighted>
-0.0173

> <Gold.Chemscore.Metal.Weighted>
-0.0000

> <Gold.Chemscore.Lipo.Weighted>
-11.2568

> <Gold.Chemscore.Internal_Hbond.Weighted>
0.0000

> <Gold.Chemscore.DEClash.Weighted>
0.3775

> <Gold.Chemscore.DEInternal.Weighted>
0.9608

> <Gold.Chemscore.Rot.Weighted>
3.0076

> <Gold.Chemscore.Internal.Correction.Weighted>
   9.000000E+99

> <Gold.Protein.RotatedTorsions>
[ 6907 6896 6895 6894 ] final    1.35 input  -60.11 | X-H torsion
[ 7974 7965 7964 7962 ] final   57.21 input  175.53 | X-H torsion
[ 8008 7997 7996 7995 ] final -110.18 input   59.86 | X-H torsion
[ 10167 10162 10161 10158 ] final  -88.77 input  -65.29 | X-H torsion
[ 10718 10713 10712 10709 ] final  170.32 input   66.30 | X-H torsion
[ 10763 10752 10751 10750 ] final  179.78 input  -60.55 | X-H torsion
[ 11005 11000 10999 10996 ] final -164.72 input  -57.11 | X-H torsion

> <Gold.Protein.ActiveResidues>
 VAL166  LYS551  ARG553  GLY616  TRP617  ASP618  TYR619  PRO620  LYS621  CYS622 
 ASP623  PHE694  ASN695  SER759  ASP760  ASP761  ALA762  ILE779  LEU786  VAL792 
 PHE793  MET794  SER795  GLU796  ALA797  LYS798  CYS799  TRP800  GLU811  SER814 

> <Gold.Protein.RotatedAtoms>
  151.5911  135.1053  160.0038 H   0  0  0  0  0  0  0  0  0  0  0  0  # atno 6907 bound_to 6896
  152.4306  133.7266  159.6574 H   0  0  0  0  0  0  0  0  0  0  0  0  # atno 6908 bound_to 6896
  150.8198  133.8202  159.3167 H   0  0  0  0  0  0  0  0  0  0  0  0  # atno 6909 bound_to 6896
  145.9315  139.3812  143.0418 H   0  0  0  0  0  0  0  0  0  0  0  0  # atno 7974 bound_to 7965
  154.9707  140.0397  157.2233 H   0  0  0  0  0  0  0  0  0  0  0  0  # atno 8008 bound_to 7997
  154.7804  140.2818  155.6046 H   0  0  0  0  0  0  0  0  0  0  0  0  # atno 8009 bound_to 7997
  156.2935  140.2593  156.2628 H   0  0  0  0  0  0  0  0  0  0  0  0  # atno 8010 bound_to 7997
  140.3715  143.2792  151.9495 H   0  0  0  0  0  0  0  0  0  0  0  0  # atno 10167 bound_to 10162
  157.0098  131.0201  151.2806 H   0  0  0  0  0  0  0  0  0  0  0  0  # atno 10718 bound_to 10713
  154.5251  135.2796  155.1229 H   0  0  0  0  0  0  0  0  0  0  0  0  # atno 10763 bound_to 10752
  154.2771  135.6292  153.5336 H   0  0  0  0  0  0  0  0  0  0  0  0  # atno 10764 bound_to 10752
  152.9945  135.5642  154.5750 H   0  0  0  0  0  0  0  0  0  0  0  0  # atno 10765 bound_to 10752
  140.5837  134.5115  157.5182 H   0  0  0  0  0  0  0  0  0  0  0  0  # atno 11005 bound_to 11000
  145.8419  140.9576  143.0795 LP  0  0  0  0  0  0  0  0  0  0  0  0  # atno 17320 bound_to 7965
  144.6765  140.0295  143.7483 LP  0  0  0  0  0  0  0  0  0  0  0  0  # atno 17321 bound_to 7965
  139.4803  144.5903  151.7783 LP  0  0  0  0  0  0  0  0  0  0  0  0  # atno 17342 bound_to 10162
  140.5029  144.1142  150.5975 LP  0  0  0  0  0  0  0  0  0  0  0  0  # atno 17343 bound_to 10162
  157.5329  130.8070  149.7938 LP  0  0  0  0  0  0  0  0  0  0  0  0  # atno 17370 bound_to 10713
  156.0140  130.3821  150.2170 LP  0  0  0  0  0  0  0  0  0  0  0  0  # atno 17371 bound_to 10713
  139.9305  134.7972  156.0944 LP  0  0  0  0  0  0  0  0  0  0  0  0  # atno 17394 bound_to 11000
  141.0980  133.6688  156.2688 LP  0  0  0  0  0  0  0  0  0  0  0  0  # atno 17395 bound_to 11000

$$$$
