AV-unprocessed.smi:1047|AV-procd|sdf|4598|dock6
  -GOLD-   22720 3 83D 1   1.00000     0.00000
 Structure written by MMmdl.
 57 59  0  0  0  0  0  0  0  0  3 V2000
  143.9766  133.3848  150.7842 C   0  0  0  0  0  0  0  0  0  0  0  0
  144.4463  134.4095  151.8266 C   0  0  0  0  0  0  0  0  0  0  0  0
  144.9261  133.7694  153.0803 N   0  3  1  0  0  0  0  0  0  0  0  0
  145.7931  132.5889  152.8463 C   0  0  0  0  0  0  0  0  0  0  0  0
  147.2193  133.0152  152.4545 C   0  0  0  0  0  0  0  0  0  0  0  0
  147.7542  133.8618  153.4648 O   0  0  0  0  0  0  0  0  0  0  0  0
  147.0070  135.0631  153.6250 C   0  0  2  0  0  0  0  0  0  0  0  0
  147.7301  135.9225  154.6741 C   0  0  0  0  0  0  0  0  0  0  0  0
  148.9677  136.4862  154.1419 N   0  0  0  0  0  0  0  0  0  0  0  0
  149.3479  137.7478  154.7717 C   0  0  0  0  0  0  0  0  0  0  0  0
  150.7874  138.1448  154.4030 C   0  0  2  0  0  0  0  0  0  0  0  0
  151.4741  136.9795  153.9908 O   0  0  0  0  0  0  0  0  0  0  0  0
  151.5275  138.7779  155.5986 C   0  0  0  0  0  0  0  0  0  0  0  0
  151.0593  140.1365  155.9113 N   0  0  0  0  0  0  0  0  0  0  0  0
  150.2333  140.9541  155.2037 C   0  0  0  0  0  0  0  0  0  0  0  0
  150.0969  142.1109  155.9086 N   0  3  0  0  0  0  0  0  0  0  0  0
  150.8476  142.0323  157.0835 C   0  0  0  0  0  0  0  0  0  0  0  0
  151.0264  142.9501  158.1119 C   0  0  0  0  0  0  0  0  0  0  0  0
  151.8668  142.5657  159.1809 C   0  0  0  0  0  0  0  0  0  0  0  0
  152.0857  143.5465  160.3203 C   0  0  0  0  0  0  0  0  0  0  0  0
  152.4962  141.2940  159.1934 C   0  0  0  0  0  0  0  0  0  0  0  0
  153.4023  140.8929  160.3449 C   0  0  0  0  0  0  0  0  0  0  0  0
  152.2997  140.3740  158.1388 C   0  0  0  0  0  0  0  0  0  0  0  0
  151.4683  140.7679  157.0925 C   0  0  0  0  0  0  0  0  0  0  0  0
  145.5662  134.6955  154.0500 C   0  0  0  0  0  0  0  0  0  0  0  0
  143.7302  133.8817  149.8454 H   0  0  0  0  0  0  0  0  0  0  0  0
  143.0842  132.8496  151.1072 H   0  0  0  0  0  0  0  0  0  0  0  0
  144.7546  132.6505  150.5729 H   0  0  0  0  0  0  0  0  0  0  0  0
  145.2667  134.9759  151.3839 H   0  0  0  0  0  0  0  0  0  0  0  0
  143.6555  135.1305  152.0321 H   0  0  0  0  0  0  0  0  0  0  0  0
  145.8329  132.0047  153.7667 H   0  0  0  0  0  0  0  0  0  0  0  0
  145.3604  131.9350  152.0884 H   0  0  0  0  0  0  0  0  0  0  0  0
  147.8584  132.1374  152.3580 H   0  0  0  0  0  0  0  0  0  0  0  0
  147.2322  133.5223  151.4888 H   0  0  0  0  0  0  0  0  0  0  0  0
  147.0059  135.6014  152.6759 H   0  0  0  0  0  0  0  0  0  0  0  0
  147.0691  136.7146  155.0280 H   0  0  0  0  0  0  0  0  0  0  0  0
  147.9626  135.3032  155.5413 H   0  0  0  0  0  0  0  0  0  0  0  0
  148.8814  136.6193  153.1394 H   0  0  0  0  0  0  0  0  0  0  0  0
  148.6668  138.5288  154.4311 H   0  0  0  0  0  0  0  0  0  0  0  0
  149.2335  137.6915  155.8554 H   0  0  0  0  0  0  0  0  0  0  0  0
  150.7783  138.8576  153.5769 H   0  0  0  0  0  0  0  0  0  0  0  0
  151.2367  136.7948  153.0947 H   0  0  0  0  0  0  0  0  0  0  0  0
  151.3674  138.1742  156.4928 H   0  0  0  0  0  0  0  0  0  0  0  0
  152.6051  138.7970  155.4344 H   0  0  0  0  0  0  0  0  0  0  0  0
  149.7687  140.7258  154.2553 H   0  0  0  0  0  0  0  0  0  0  0  0
  150.5453  143.9172  158.0943 H   0  0  0  0  0  0  0  0  0  0  0  0
  153.1414  143.8053  160.4044 H   0  0  0  0  0  0  0  0  0  0  0  0
  151.7578  143.1152  161.2664 H   0  0  0  0  0  0  0  0  0  0  0  0
  151.5275  144.4704  160.1650 H   0  0  0  0  0  0  0  0  0  0  0  0
  153.8070  139.8901  160.2037 H   0  0  0  0  0  0  0  0  0  0  0  0
  152.8523  140.9002  161.2864 H   0  0  0  0  0  0  0  0  0  0  0  0
  154.2428  141.5821  160.4285 H   0  0  0  0  0  0  0  0  0  0  0  0
  152.7848  139.4091  158.1458 H   0  0  0  0  0  0  0  0  0  0  0  0
  144.9612  135.5901  154.1910 H   0  0  0  0  0  0  0  0  0  0  0  0
  145.5937  134.1975  155.0202 H   0  0  0  0  0  0  0  0  0  0  0  0
  144.0932  133.4138  153.5279 H   0  0  0  0  0  0  0  0  0  0  0  0
  149.5323  142.8949  155.6075 H   0  0  0  0  0  0  0  0  0  0  0  0
  1  2  1  0  0  0  0
  1 26  1  0  0  0  0
  1 27  1  0  0  0  0
  1 28  1  0  0  0  0
  2  3  1  0  0  0  0
  2 29  1  0  0  0  0
  2 30  1  0  0  0  0
  3 25  1  0  0  0  0
  3  4  1  0  0  0  0
  3 56  1  0  0  0  0
  4  5  1  0  0  0  0
  4 31  1  0  0  0  0
  4 32  1  0  0  0  0
  5  6  1  0  0  0  0
  5 33  1  0  0  0  0
  5 34  1  0  0  0  0
  6  7  1  0  0  0  0
  7  8  1  0  0  0  0
  7 25  1  0  0  0  0
  7 35  1  0  0  0  0
  8  9  1  0  0  0  0
  8 36  1  0  0  0  0
  8 37  1  0  0  0  0
  9 10  1  0  0  0  0
  9 38  1  0  0  0  0
 10 11  1  0  0  0  0
 10 39  1  0  0  0  0
 10 40  1  0  0  0  0
 11 12  1  0  0  0  0
 11 13  1  0  0  0  0
 11 41  1  0  0  0  0
 12 42  1  0  0  0  0
 13 14  1  0  0  0  0
 13 43  1  0  0  0  0
 13 44  1  0  0  0  0
 14 24  1  0  0  0  0
 14 15  1  0  0  0  0
 15 16  2  0  0  0  0
 15 45  1  0  0  0  0
 16 17  1  0  0  0  0
 16 57  1  0  0  0  0
 17 24  2  0  0  0  0
 17 18  1  0  0  0  0
 18 19  2  0  0  0  0
 18 46  1  0  0  0  0
 19 20  1  0  0  0  0
 19 21  1  0  0  0  0
 20 47  1  0  0  0  0
 20 48  1  0  0  0  0
 20 49  1  0  0  0  0
 21 22  1  0  0  0  0
 21 23  2  0  0  0  0
 22 50  1  0  0  0  0
 22 51  1  0  0  0  0
 22 52  1  0  0  0  0
 23 24  1  0  0  0  0
 23 53  1  0  0  0  0
 25 54  1  0  0  0  0
 25 55  1  0  0  0  0
M  CHG  1   3   1
M  CHG  1  16   1
M  END
> <s_m_source_file>
AV-unprocessed.smi

> <i_m_source_file_index>
1047

> <i_lp_mmshare_version>
43012

> <i_f3d_flags>
0

> <s_epik_input>
W0NIM11bQ0gyXU4xW0NIMl1bQ0gyXU9bQ0BIXShbQ0gyXTEpW0NIMl1bTkhdW0NIMl1bQ0BIXShbT0hdKVtDSDJdbihbY0hdbjIpYyhjMjMpW2NIXWMoW0NIM10pYyhbY0hdMylbQ0gzXQ==

> <s_epik_cmdline>
J2VwaWtfcHl0aG9uJywgJy1waCcsICc3LjAnLCAnLXRuJywgJzgnLCAnLW1hJywgJzIwMCcsICctbWV0YWxfYmluZGluZycsICctaW1hZScsICc8aW5maWxlLm1hZT4nLCAnLW9tYWUnLCAnPG91dGZpbGUubWFlPic=

> <r_epik_Ionization_Penalty>
2.03028

> <r_epik_Ionization_Penalty_Charging>
1.21256

> <r_epik_Ionization_Penalty_Neutral>
0.817715

> <r_epik_State_Penalty>
2.54959

> <r_epik_Charging_Adjusted_Penalty>
3.76215

> <i_epik_Tot_Q>
2

> <i_epik_Tot_abs_Q>
2

> <r_epik_Metal_State_Penalty>
6.52811

> <b_epik_Metal_Only>
0

> <s_lp_Force_Field>
OPLS_2005

> <r_lp_Energy>
38.5552

> <b_lp_Chiralities_Consistent>
1

> <s_lp_Variant>
AV-unprocessed.smi:1047-39

> <Gold.Version>
5.8.1

> <Gold.Id.Protein>
6NUR|6NUR_protein|mol2

> <Gold.PLP.Fitness>
63.6019

> <Gold.PLP.PLP>
-45.1626

> <Gold.PLP.part.hbond>
-5.0826

> <Gold.PLP.part.metal>
0.0000

> <Gold.PLP.part.buried>
-6.3582

> <Gold.PLP.part.nonpolar>
-35.3672

> <Gold.PLP.part.repulsive>
0.2217

> <Gold.PLP.ligand.clash>
0.0000

> <Gold.PLP.ligand.torsion>
1.0703

> <Gold.PLP.Chemscore.Hbond>
6.8365

> <Gold.PLP.Chemscore.CHOScore>
0.0000

> <Gold.PLP.Chemscore.Metal>
0.0000

> <Gold.Chemscore.Hbonds>
donor molecule, donor type, donor heavy atom, donor atom, acceptor molecule, acceptor atom, score
      L1  H     9    38       P1  7948  0.49
      L1  H    12    42       P1  7949  1.00
      L1  H    16    57       P1  8028  2.00
      P1  H 10752 10765       L1    12  1.00

> <Gold.PLP.Chemscore.Internal.Correction>
0.0704

> <Gold.Rescore>
     Score         DG    S(hbond)    S(metal)    S(lipo)     H(rot)  DE(clash)    DE(int)     intcor
     23.23     -24.62       3.76        0.00     115.45       2.71       0.21       1.17       ----

> <Gold.Chemscore.Fitness>
23.2301

> <Gold.Chemscore.DG>
-24.6157

> <Gold.Chemscore.ZeroCoef>
-5.4800

> <Gold.Chemscore.Hbond>
3.7612

> <Gold.Chemscore.Metal>
0.0000

> <Gold.Chemscore.Lipo>
115.4523

> <Gold.Chemscore.Internal_Hbond>
0.0000

> <Gold.Chemscore.DEClash>
0.2119

> <Gold.Chemscore.DEInternal>
1.1736

> <Gold.Chemscore.Rot>
2.7088

> <Gold.Chemscore.Internal.Correction>
   9.000000E+99

> <Gold.Chemscore.Hbonds>
donor molecule, donor type, donor heavy atom, donor atom, acceptor molecule, acceptor atom, score
      L1  H     3    56       P1 10957  0.01
      L1  H     9    38       P1  7948  0.47
      L1  H    12    42       P1  7949  0.60
      L1  H    16    57       P1  8028  0.98
      P1  H 10752 10765       L1    12  0.29

> <Gold.Chemscore.Hbond.Weighted>
-12.5624

> <Gold.Chemscore.Metal.Weighted>
-0.0000

> <Gold.Chemscore.Lipo.Weighted>
-13.5079

> <Gold.Chemscore.Internal_Hbond.Weighted>
0.0000

> <Gold.Chemscore.DEClash.Weighted>
0.2119

> <Gold.Chemscore.DEInternal.Weighted>
1.1736

> <Gold.Chemscore.Rot.Weighted>
6.9346

> <Gold.Chemscore.Internal.Correction.Weighted>
   9.000000E+99

> <Gold.Protein.RotatedTorsions>
[ 6907 6896 6895 6894 ] final -117.06 input  -60.11 | X-H torsion
[ 7974 7965 7964 7962 ] final  117.11 input  175.53 | X-H torsion
[ 8008 7997 7996 7995 ] final  115.46 input   59.86 | X-H torsion
[ 10167 10162 10161 10158 ] final -155.84 input  -65.29 | X-H torsion
[ 10718 10713 10712 10709 ] final   97.00 input   66.30 | X-H torsion
[ 10763 10752 10751 10750 ] final  161.31 input  -60.55 | X-H torsion
[ 11005 11000 10999 10996 ] final   80.08 input  -57.11 | X-H torsion

> <Gold.Protein.ActiveResidues>
 VAL166  LYS551  ARG553  GLY616  TRP617  ASP618  TYR619  PRO620  LYS621  CYS622 
 ASP623  PHE694  ASN695  SER759  ASP760  ASP761  ALA762  ILE779  LEU786  VAL792 
 PHE793  MET794  SER795  GLU796  ALA797  LYS798  CYS799  TRP800  GLU811  SER814 

> <Gold.Protein.RotatedAtoms>
  150.8106  133.8429  159.3183 H   0  0  0  0  0  0  0  0  0  0  0  0  # atno 6907 bound_to 6896
  151.6215  135.1030  160.0112 H   0  0  0  0  0  0  0  0  0  0  0  0  # atno 6908 bound_to 6896
  152.4198  133.7057  159.6506 H   0  0  0  0  0  0  0  0  0  0  0  0  # atno 6909 bound_to 6896
  145.1714  139.3099  143.4465 H   0  0  0  0  0  0  0  0  0  0  0  0  # atno 7974 bound_to 7965
  156.2382  140.2938  156.0372 H   0  0  0  0  0  0  0  0  0  0  0  0  # atno 8008 bound_to 7997
  155.2028  140.0410  157.2937 H   0  0  0  0  0  0  0  0  0  0  0  0  # atno 8009 bound_to 7997
  154.6119  140.2454  155.7666 H   0  0  0  0  0  0  0  0  0  0  0  0  # atno 8010 bound_to 7997
  139.6898  143.9439  152.2379 H   0  0  0  0  0  0  0  0  0  0  0  0  # atno 10167 bound_to 10162
  157.6919  131.0596  150.4577 H   0  0  0  0  0  0  0  0  0  0  0  0  # atno 10718 bound_to 10713
  154.2610  135.2768  155.2778 H   0  0  0  0  0  0  0  0  0  0  0  0  # atno 10763 bound_to 10752
  154.5384  135.5710  153.6821 H   0  0  0  0  0  0  0  0  0  0  0  0  # atno 10764 bound_to 10752
  152.9962  135.6245  154.2760 H   0  0  0  0  0  0  0  0  0  0  0  0  # atno 10765 bound_to 10752
  139.9148  134.7892  156.1862 H   0  0  0  0  0  0  0  0  0  0  0  0  # atno 11005 bound_to 11000
  146.3468  140.1861  142.8589 LP  0  0  0  0  0  0  0  0  0  0  0  0  # atno 17320 bound_to 7965
  145.0229  140.8808  143.5156 LP  0  0  0  0  0  0  0  0  0  0  0  0  # atno 17321 bound_to 7965
  139.9252  144.6775  150.8420 LP  0  0  0  0  0  0  0  0  0  0  0  0  # atno 17342 bound_to 10162
  140.7679  143.3347  151.2335 LP  0  0  0  0  0  0  0  0  0  0  0  0  # atno 17343 bound_to 10162
  156.4924  130.4098  149.6399 LP  0  0  0  0  0  0  0  0  0  0  0  0  # atno 17370 bound_to 10713
  156.3405  130.7379  151.2324 LP  0  0  0  0  0  0  0  0  0  0  0  0  # atno 17371 bound_to 10713
  141.0612  133.6841  156.1956 LP  0  0  0  0  0  0  0  0  0  0  0  0  # atno 17394 bound_to 11000
  140.6658  134.4920  157.5585 LP  0  0  0  0  0  0  0  0  0  0  0  0  # atno 17395 bound_to 11000

$$$$
