AV-unprocessed.smi:675|AV-procd|sdf|3306|dock1
  -GOLD-   22720 0263D 1   1.00000     0.00000
 Structure written by MMmdl.
 28 29  0  0  0  0  0  0  0  0  2 V2000
  150.5936  135.5859  154.5106 O   0  0  0  0  0  0  0  0  0  0  0  0
  150.9345  136.6642  154.9948 C   0  0  0  0  0  0  0  0  0  0  0  0
  152.0953  137.2936  154.6480 N   0  5  0  0  0  0  0  0  0  0  0  0
  152.4919  138.4931  155.1755 C   0  0  0  0  0  0  0  0  0  0  0  0
  153.5451  139.0387  154.8464 O   0  0  0  0  0  0  0  0  0  0  0  0
  151.6895  139.1030  156.0974 N   0  0  0  0  0  0  0  0  0  0  0  0
  152.0368  140.3857  156.7261 C   0  0  0  0  0  0  0  0  0  0  0  0
  152.4360  140.2138  158.2076 C   0  0  1  0  0  0  0  0  0  0  0  0
  153.7132  139.6082  158.2679 O   0  0  0  0  0  0  0  0  0  0  0  0
  152.4088  141.5574  158.9354 C   0  0  0  0  0  0  0  0  0  0  0  0
  151.8247  142.6856  158.3128 C   0  0  0  0  0  0  0  0  0  0  0  0
  151.7836  143.9290  158.9709 C   0  0  0  0  0  0  0  0  0  0  0  0
  152.3206  144.0579  160.2641 C   0  0  0  0  0  0  0  0  0  0  0  0
  152.8919  142.9401  160.8991 C   0  0  0  0  0  0  0  0  0  0  0  0
  152.9357  141.6920  160.2455 C   0  0  0  0  0  0  0  0  0  0  0  0
  153.6290  140.3494  161.0870 Cl  0  0  0  0  0  0  0  0  0  0  0  0
  150.4840  138.4963  156.4902 C   0  0  0  0  0  0  0  0  0  0  0  0
  150.0782  137.3162  155.9835 C   0  0  0  0  0  0  0  0  0  0  0  0
  148.5925  136.5937  156.4891 Cl  0  0  0  0  0  0  0  0  0  0  0  0
  152.8009  140.9355  156.1733 H   0  0  0  0  0  0  0  0  0  0  0  0
  151.1503  141.0195  156.6672 H   0  0  0  0  0  0  0  0  0  0  0  0
  151.7518  139.5262  158.7037 H   0  0  0  0  0  0  0  0  0  0  0  0
  153.5995  138.6792  158.3951 H   0  0  0  0  0  0  0  0  0  0  0  0
  151.3982  142.6046  157.3237 H   0  0  0  0  0  0  0  0  0  0  0  0
  151.3371  144.7833  158.4835 H   0  0  0  0  0  0  0  0  0  0  0  0
  152.2891  145.0109  160.7708 H   0  0  0  0  0  0  0  0  0  0  0  0
  153.2953  143.0406  161.8960 H   0  0  0  0  0  0  0  0  0  0  0  0
  149.9167  139.0450  157.2276 H   0  0  0  0  0  0  0  0  0  0  0  0
  1  2  2  0  0  0  0
  2 18  1  0  0  0  0
  2  3  1  0  0  0  0
  3  4  1  0  0  0  0
  4  5  2  0  0  0  0
  4  6  1  0  0  0  0
  6  7  1  0  0  0  0
  6 17  1  0  0  0  0
  7  8  1  0  0  0  0
  7 20  1  0  0  0  0
  7 21  1  0  0  0  0
  8  9  1  0  0  0  0
  8 10  1  0  0  0  0
  8 22  1  0  0  0  0
  9 23  1  0  0  0  0
 10 15  1  0  0  0  0
 10 11  2  0  0  0  0
 11 12  1  0  0  0  0
 11 24  1  0  0  0  0
 12 13  2  0  0  0  0
 12 25  1  0  0  0  0
 13 14  1  0  0  0  0
 13 26  1  0  0  0  0
 14 15  2  0  0  0  0
 14 27  1  0  0  0  0
 15 16  1  0  0  0  0
 17 18  2  0  0  0  0
 17 28  1  0  0  0  0
 18 19  1  0  0  0  0
M  CHG  1   3  -1
M  END
> <s_m_source_file>
AV-unprocessed.smi

> <i_m_source_file_index>
675

> <i_lp_mmshare_version>
43012

> <i_f3d_flags>
0

> <s_epik_input>
Tz1jMVtuSF1jKD1PKW4oW2NIXWMxQ2wpW0NIMl1bQ0BIXShbT0hdKWMyW2NIXVtjSF1bY0hdW2NIXWMyQ2w=

> <s_epik_cmdline>
J2VwaWtfcHl0aG9uJywgJy1waCcsICc3LjAnLCAnLXRuJywgJzgnLCAnLW1hJywgJzIwMCcsICctbWV0YWxfYmluZGluZycsICctaW1hZScsICc8aW5maWxlLm1hZT4nLCAnLW9tYWUnLCAnPG91dGZpbGUubWFlPic=

> <r_epik_Ionization_Penalty>
1.79791

> <r_epik_Ionization_Penalty_Charging>
3.23819e-08

> <r_epik_Ionization_Penalty_Neutral>
1.79791

> <r_epik_State_Penalty>
1.91135

> <r_epik_Charging_Adjusted_Penalty>
1.91135

> <i_epik_Tot_Q>
-1

> <i_epik_Tot_abs_Q>
1

> <r_epik_Metal_State_Penalty>
0.014155

> <b_epik_Metal_Only>
0

> <s_lp_Force_Field>
OPLS_2005

> <r_lp_Energy>
23.2972

> <b_lp_Chiralities_Consistent>
1

> <s_lp_Variant>
AV-unprocessed.smi:675-4

> <Gold.Version>
5.8.1

> <Gold.Id.Protein>
6NUR|6NUR_protein|mol2

> <Gold.PLP.Fitness>
45.7962

> <Gold.PLP.PLP>
-35.0995

> <Gold.PLP.part.hbond>
-2.9148

> <Gold.PLP.part.metal>
0.0000

> <Gold.PLP.part.buried>
-5.1158

> <Gold.PLP.part.nonpolar>
-27.3633

> <Gold.PLP.part.repulsive>
0.3112

> <Gold.PLP.ligand.clash>
0.0000

> <Gold.PLP.ligand.torsion>
0.4555

> <Gold.PLP.Chemscore.Hbond>
3.8640

> <Gold.PLP.Chemscore.CHOScore>
0.0000

> <Gold.PLP.Chemscore.Metal>
0.0000

> <Gold.Chemscore.Hbonds>
donor molecule, donor type, donor heavy atom, donor atom, acceptor molecule, acceptor atom, score
      P1  H  7997  8008       L1     9  0.94
      P1  H  7997  8009       L1     5  0.99
      P1  H 10752 10764       L1     3  1.02

> <Gold.PLP.Chemscore.Internal.Correction>
0.0158

> <Gold.Rescore>
     Score         DG    S(hbond)    S(metal)    S(lipo)     H(rot)  DE(clash)    DE(int)     intcor
     17.13     -18.60       2.34        0.00      91.84       2.13       0.01       1.46       ----

> <Gold.Chemscore.Fitness>
17.1272

> <Gold.Chemscore.DG>
-18.6001

> <Gold.Chemscore.ZeroCoef>
-5.4800

> <Gold.Chemscore.Hbond>
2.3420

> <Gold.Chemscore.Metal>
0.0000

> <Gold.Chemscore.Lipo>
91.8378

> <Gold.Chemscore.Internal_Hbond>
0.0000

> <Gold.Chemscore.DEClash>
0.0106

> <Gold.Chemscore.DEInternal>
1.4623

> <Gold.Chemscore.Rot>
2.1278

> <Gold.Chemscore.Internal.Correction>
   9.000000E+99

> <Gold.Chemscore.Hbonds>
donor molecule, donor type, donor heavy atom, donor atom, acceptor molecule, acceptor atom, score
      P1  H  7997  8008       L1     9  0.82
      P1  H  7997  8009       L1     5  0.93
      P1  H 10752 10764       L1     3  0.04

> <Gold.Chemscore.Hbond.Weighted>
-7.8221

> <Gold.Chemscore.Metal.Weighted>
-0.0000

> <Gold.Chemscore.Lipo.Weighted>
-10.7450

> <Gold.Chemscore.Internal_Hbond.Weighted>
0.0000

> <Gold.Chemscore.DEClash.Weighted>
0.0106

> <Gold.Chemscore.DEInternal.Weighted>
1.4623

> <Gold.Chemscore.Rot.Weighted>
5.4470

> <Gold.Chemscore.Internal.Correction.Weighted>
   9.000000E+99

> <Gold.Protein.RotatedTorsions>
[ 6907 6896 6895 6894 ] final -112.96 input  -60.11 | X-H torsion
[ 7974 7965 7964 7962 ] final  179.94 input  175.53 | X-H torsion
[ 8008 7997 7996 7995 ] final -114.09 input   59.86 | X-H torsion
[ 10167 10162 10161 10158 ] final -159.10 input  -65.29 | X-H torsion
[ 10718 10713 10712 10709 ] final -176.17 input   66.30 | X-H torsion
[ 10763 10752 10751 10750 ] final  -75.24 input  -60.55 | X-H torsion
[ 11005 11000 10999 10996 ] final  -26.42 input  -57.11 | X-H torsion

> <Gold.Protein.ActiveResidues>
 VAL166  LYS551  ARG553  GLY616  TRP617  ASP618  TYR619  PRO620  LYS621  CYS622 
 ASP623  PHE694  ASN695  SER759  ASP760  ASP761  ALA762  ILE779  LEU786  VAL792 
 PHE793  MET794  SER795  GLU796  ALA797  LYS798  CYS799  TRP800  GLU811  SER814 

> <Gold.Protein.RotatedAtoms>
  150.7795  133.9014  159.3342 H   0  0  0  0  0  0  0  0  0  0  0  0  # atno 6907 bound_to 6896
  151.6881  135.0949  160.0238 H   0  0  0  0  0  0  0  0  0  0  0  0  # atno 6908 bound_to 6896
  152.3841  133.6549  159.6220 H   0  0  0  0  0  0  0  0  0  0  0  0  # atno 6909 bound_to 6896
  144.7141  140.0624  143.6432 H   0  0  0  0  0  0  0  0  0  0  0  0  # atno 7974 bound_to 7965
  155.0310  140.0393  157.2474 H   0  0  0  0  0  0  0  0  0  0  0  0  # atno 8008 bound_to 7997
  154.7297  140.2728  155.6443 H   0  0  0  0  0  0  0  0  0  0  0  0  # atno 8009 bound_to 7997
  156.2838  140.2686  156.1993 H   0  0  0  0  0  0  0  0  0  0  0  0  # atno 8010 bound_to 7997
  139.6641  143.9860  152.2244 H   0  0  0  0  0  0  0  0  0  0  0  0  # atno 10167 bound_to 10162
  156.8107  130.9585  151.3116 H   0  0  0  0  0  0  0  0  0  0  0  0  # atno 10718 bound_to 10713
  154.4839  135.5837  153.6410 H   0  0  0  0  0  0  0  0  0  0  0  0  # atno 10763 bound_to 10752
  152.9852  135.6096  154.3211 H   0  0  0  0  0  0  0  0  0  0  0  0  # atno 10764 bound_to 10752
  154.3104  135.2845  155.2548 H   0  0  0  0  0  0  0  0  0  0  0  0  # atno 10765 bound_to 10752
  140.9028  133.7513  156.0566 H   0  0  0  0  0  0  0  0  0  0  0  0  # atno 11005 bound_to 11000
  145.9853  139.2972  143.1017 LP  0  0  0  0  0  0  0  0  0  0  0  0  # atno 17320 bound_to 7965
  145.8964  140.9271  143.0525 LP  0  0  0  0  0  0  0  0  0  0  0  0  # atno 17321 bound_to 7965
  139.9607  144.6560  150.8082 LP  0  0  0  0  0  0  0  0  0  0  0  0  # atno 17342 bound_to 10162
  140.7592  143.3124  151.2813 LP  0  0  0  0  0  0  0  0  0  0  0  0  # atno 17343 bound_to 10162
  157.6507  130.8882  149.9627 LP  0  0  0  0  0  0  0  0  0  0  0  0  # atno 17370 bound_to 10713
  156.1046  130.3653  150.0157 LP  0  0  0  0  0  0  0  0  0  0  0  0  # atno 17371 bound_to 10713
  140.8209  134.3290  157.5382 LP  0  0  0  0  0  0  0  0  0  0  0  0  # atno 17394 bound_to 11000
  139.8745  134.9308  156.3513 LP  0  0  0  0  0  0  0  0  0  0  0  0  # atno 17395 bound_to 11000

$$$$
