AV-unprocessed.smi:794|AV-procd|sdf|3758|dock10
  -GOLD-   22720 1193D 1   1.00000     0.00000
 Structure written by MMmdl.
 41 43  0  0  0  0  0  0  0  0  1 V2000
  147.3415  136.8195  163.3750 C   0  0  0  0  0  0  0  0  0  0  0  0
  147.5277  136.2501  162.0020 C   0  0  0  0  0  0  0  0  0  0  0  0
  147.9558  137.0809  160.9622 N   0  0  0  0  0  0  0  0  0  0  0  0
  148.0756  136.4230  159.8047 C   0  0  0  0  0  0  0  0  0  0  0  0
  148.4953  137.0159  158.5850 N   0  0  0  0  0  0  0  0  0  0  0  0
  148.1420  138.2098  158.0773 C   0  0  0  0  0  0  0  0  0  0  0  0
  147.3702  139.0095  158.6076 O   0  0  0  0  0  0  0  0  0  0  0  0
  148.7378  138.4310  156.8974 N   0  0  0  0  0  0  0  0  0  0  0  0
  148.5511  139.6298  156.0825 C   0  0  2  0  0  0  0  0  0  0  0  0
  149.3517  139.6039  154.7559 C   0  0  2  0  0  0  0  0  0  0  0  0
  150.8408  139.2760  154.9997 C   0  0  0  0  0  0  0  0  0  0  0  0
  151.3547  140.5471  155.7007 C   0  0  0  0  0  0  0  0  0  0  0  0
  150.1022  141.4441  155.7414 C   0  0  1  0  0  0  0  0  0  0  0  0
  149.4307  141.0875  154.4198 C   0  0  0  0  0  0  0  0  0  0  0  0
  149.1093  140.8926  156.7911 C   0  0  1  0  0  0  0  0  0  0  0  0
  148.0199  141.9122  157.1754 C   0  0  0  0  0  0  0  0  0  0  0  0
  148.5980  143.0127  157.8450 O   0  0  0  0  0  0  0  0  0  0  0  0
  147.6626  134.7207  159.9167 S   0  0  0  0  0  0  0  0  0  0  0  0
  147.3246  134.9453  161.6154 C   0  0  0  0  0  0  0  0  0  0  0  0
  146.8761  133.8029  162.4649 C   0  0  0  0  0  0  0  0  0  0  0  0
  146.3615  136.5632  163.7778 H   0  0  0  0  0  0  0  0  0  0  0  0
  147.4219  137.9070  163.3757 H   0  0  0  0  0  0  0  0  0  0  0  0
  148.0926  136.4331  164.0639 H   0  0  0  0  0  0  0  0  0  0  0  0
  149.1397  136.4672  158.0354 H   0  0  0  0  0  0  0  0  0  0  0  0
  149.3605  137.7247  156.5336 H   0  0  0  0  0  0  0  0  0  0  0  0
  147.4889  139.7582  155.8634 H   0  0  0  0  0  0  0  0  0  0  0  0
  148.8927  138.9865  153.9831 H   0  0  0  0  0  0  0  0  0  0  0  0
  150.9983  138.3752  155.5931 H   0  0  0  0  0  0  0  0  0  0  0  0
  151.3591  139.1322  154.0507 H   0  0  0  0  0  0  0  0  0  0  0  0
  151.7534  140.3428  156.6950 H   0  0  0  0  0  0  0  0  0  0  0  0
  152.1476  141.0125  155.1136 H   0  0  0  0  0  0  0  0  0  0  0  0
  150.3362  142.5018  155.8670 H   0  0  0  0  0  0  0  0  0  0  0  0
  150.0502  141.3021  153.5471 H   0  0  0  0  0  0  0  0  0  0  0  0
  148.4537  141.5530  154.2827 H   0  0  0  0  0  0  0  0  0  0  0  0
  149.6596  140.6306  157.6970 H   0  0  0  0  0  0  0  0  0  0  0  0
  147.5160  142.2820  156.2819 H   0  0  0  0  0  0  0  0  0  0  0  0
  147.2573  141.4636  157.8121 H   0  0  0  0  0  0  0  0  0  0  0  0
  148.8466  143.6593  157.2021 H   0  0  0  0  0  0  0  0  0  0  0  0
  147.5373  133.6760  163.3222 H   0  0  0  0  0  0  0  0  0  0  0  0
  146.8731  132.8690  161.9028 H   0  0  0  0  0  0  0  0  0  0  0  0
  145.8664  133.9732  162.8391 H   0  0  0  0  0  0  0  0  0  0  0  0
  1  2  1  0  0  0  0
  1 21  1  0  0  0  0
  1 22  1  0  0  0  0
  1 23  1  0  0  0  0
  2 19  2  0  0  0  0
  2  3  1  0  0  0  0
  3  4  2  0  0  0  0
  4  5  1  0  0  0  0
  4 18  1  0  0  0  0
  5  6  1  0  0  0  0
  5 24  1  0  0  0  0
  6  7  2  0  0  0  0
  6  8  1  0  0  0  0
  8  9  1  0  0  0  0
  8 25  1  0  0  0  0
  9 15  1  0  0  0  0
  9 10  1  0  0  0  0
  9 26  1  0  0  0  0
 10 14  1  0  0  0  0
 10 11  1  0  0  0  0
 10 27  1  0  0  0  0
 11 12  1  0  0  0  0
 11 28  1  0  0  0  0
 11 29  1  0  0  0  0
 12 13  1  0  0  0  0
 12 30  1  0  0  0  0
 12 31  1  0  0  0  0
 13 14  1  0  0  0  0
 13 15  1  0  0  0  0
 13 32  1  0  0  0  0
 14 33  1  0  0  0  0
 14 34  1  0  0  0  0
 15 16  1  0  0  0  0
 15 35  1  0  0  0  0
 16 17  1  0  0  0  0
 16 36  1  0  0  0  0
 16 37  1  0  0  0  0
 17 38  1  0  0  0  0
 18 19  1  0  0  0  0
 19 20  1  0  0  0  0
 20 39  1  0  0  0  0
 20 40  1  0  0  0  0
 20 41  1  0  0  0  0
M  END
> <s_m_source_file>
AV-unprocessed.smi

> <i_m_source_file_index>
794

> <i_lp_mmshare_version>
43012

> <i_f3d_flags>
0

> <s_epik_input>
W0NIM11jMW5jKHNjMVtDSDNdKVtOSF1DKD1PKVtOSF1bQ0BIXShbQ0BASF0yMylbQ0BIXShbQ0gyXVtPSF0pW0NAQEhdKFtDSDJdMylbQ0gyXVtDSDJdMg==

> <s_epik_cmdline>
J2VwaWtfcHl0aG9uJywgJy1waCcsICc3LjAnLCAnLXRuJywgJzgnLCAnLW1hJywgJzIwMCcsICctbWV0YWxfYmluZGluZycsICctaW1hZScsICc8aW5maWxlLm1hZT4nLCAnLW9tYWUnLCAnPG91dGZpbGUubWFlPic=

> <r_lp_tautomer_probability>
0.999

> <r_epik_Ionization_Penalty>
0.000713029

> <r_epik_Ionization_Penalty_Charging>
0

> <r_epik_Ionization_Penalty_Neutral>
0.000713029

> <r_epik_State_Penalty>
0.000177984

> <r_epik_Charging_Adjusted_Penalty>
0.000177984

> <i_epik_Tot_Q>
0

> <i_epik_Tot_abs_Q>
0

> <r_epik_Metal_State_Penalty>
-0

> <b_epik_Metal_Only>
0

> <s_lp_Force_Field>
OPLS_2005

> <r_lp_Energy>
47.0696

> <b_lp_Chiralities_Consistent>
1

> <s_lp_Variant>
AV-unprocessed.smi:794-3

> <Gold.Version>
5.8.1

> <Gold.Id.Protein>
6NUR|6NUR_protein|mol2

> <Gold.PLP.Fitness>
43.2899

> <Gold.PLP.PLP>
-36.0462

> <Gold.PLP.part.hbond>
-4.9187

> <Gold.PLP.part.metal>
0.0000

> <Gold.PLP.part.buried>
-0.6186

> <Gold.PLP.part.nonpolar>
-30.4731

> <Gold.PLP.part.repulsive>
0.1502

> <Gold.PLP.ligand.clash>
0.0000

> <Gold.PLP.ligand.torsion>
0.3613

> <Gold.PLP.Chemscore.Hbond>
2.6499

> <Gold.PLP.Chemscore.CHOScore>
0.0000

> <Gold.PLP.Chemscore.Metal>
0.0000

> <Gold.Chemscore.Hbonds>
donor molecule, donor type, donor heavy atom, donor atom, acceptor molecule, acceptor atom, score
      L1  H    17    38       P1  8028  0.95
      P1  H  6931  6943       L1     3  0.98
      P1  H  6934  6947       L1     3  0.68

> <Gold.PLP.Chemscore.Internal.Correction>
0.0165

> <Gold.Rescore>
     Score         DG    S(hbond)    S(metal)    S(lipo)     H(rot)  DE(clash)    DE(int)     intcor
     15.87     -17.12       1.89        0.00      84.33       1.78       0.83       0.42       ----

> <Gold.Chemscore.Fitness>
15.8682

> <Gold.Chemscore.DG>
-17.1165

> <Gold.Chemscore.ZeroCoef>
-5.4800

> <Gold.Chemscore.Hbond>
1.8940

> <Gold.Chemscore.Metal>
0.0000

> <Gold.Chemscore.Lipo>
84.3315

> <Gold.Chemscore.Internal_Hbond>
0.0000

> <Gold.Chemscore.DEClash>
0.8297

> <Gold.Chemscore.DEInternal>
0.4186

> <Gold.Chemscore.Rot>
1.7798

> <Gold.Chemscore.Internal.Correction>
   9.000000E+99

> <Gold.Chemscore.Hbonds>
donor molecule, donor type, donor heavy atom, donor atom, acceptor molecule, acceptor atom, score
      L1  H    17    38       P1  8028  0.22
      P1  H  6931  6943       L1     3  0.24
      P1  H  6934  6947       L1     3  0.60

> <Gold.Chemscore.Hbond.Weighted>
-6.3259

> <Gold.Chemscore.Metal.Weighted>
-0.0000

> <Gold.Chemscore.Lipo.Weighted>
-9.8668

> <Gold.Chemscore.Internal_Hbond.Weighted>
0.0000

> <Gold.Chemscore.DEClash.Weighted>
0.8297

> <Gold.Chemscore.DEInternal.Weighted>
0.4186

> <Gold.Chemscore.Rot.Weighted>
4.5562

> <Gold.Chemscore.Internal.Correction.Weighted>
   9.000000E+99

> <Gold.Protein.RotatedTorsions>
[ 6907 6896 6895 6894 ] final  -28.60 input  -60.11 | X-H torsion
[ 7974 7965 7964 7962 ] final  -35.87 input  175.53 | X-H torsion
[ 8008 7997 7996 7995 ] final  -16.58 input   59.86 | X-H torsion
[ 10167 10162 10161 10158 ] final -141.60 input  -65.29 | X-H torsion
[ 10718 10713 10712 10709 ] final  147.37 input   66.30 | X-H torsion
[ 10763 10752 10751 10750 ] final  -66.82 input  -60.55 | X-H torsion
[ 11005 11000 10999 10996 ] final  143.10 input  -57.11 | X-H torsion

> <Gold.Protein.ActiveResidues>
 VAL166  LYS551  ARG553  GLY616  TRP617  ASP618  TYR619  PRO620  LYS621  CYS622 
 ASP623  PHE694  ASN695  SER759  ASP760  ASP761  ALA762  ILE779  LEU786  VAL792 
 PHE793  MET794  SER795  GLU796  ALA797  LYS798  CYS799  TRP800  GLU811  SER814 

> <Gold.Protein.RotatedAtoms>
  151.1308  135.0129  159.8581 H   0  0  0  0  0  0  0  0  0  0  0  0  # atno 6907 bound_to 6896
  152.5451  134.1613  159.8569 H   0  0  0  0  0  0  0  0  0  0  0  0  # atno 6908 bound_to 6896
  151.1679  133.4758  159.2627 H   0  0  0  0  0  0  0  0  0  0  0  0  # atno 6909 bound_to 6896
  146.0709  140.6211  142.8953 H   0  0  0  0  0  0  0  0  0  0  0  0  # atno 7974 bound_to 7965
  154.5042  140.2165  155.9285 H   0  0  0  0  0  0  0  0  0  0  0  0  # atno 8008 bound_to 7997
  156.1473  140.3168  155.8557 H   0  0  0  0  0  0  0  0  0  0  0  0  # atno 8009 bound_to 7997
  155.4007  140.0484  157.3027 H   0  0  0  0  0  0  0  0  0  0  0  0  # atno 8010 bound_to 7997
  139.8168  143.7627  152.2665 H   0  0  0  0  0  0  0  0  0  0  0  0  # atno 10167 bound_to 10162
  157.3218  131.0905  151.1234 H   0  0  0  0  0  0  0  0  0  0  0  0  # atno 10718 bound_to 10713
  154.3655  135.6107  153.5712 H   0  0  0  0  0  0  0  0  0  0  0  0  # atno 10763 bound_to 10752
  152.9792  135.5825  154.4584 H   0  0  0  0  0  0  0  0  0  0  0  0  # atno 10764 bound_to 10752
  154.4328  135.2848  155.1878 H   0  0  0  0  0  0  0  0  0  0  0  0  # atno 10765 bound_to 10752
  140.0528  134.9247  157.1046 H   0  0  0  0  0  0  0  0  0  0  0  0  # atno 11005 bound_to 11000
  144.7231  140.4439  143.6993 LP  0  0  0  0  0  0  0  0  0  0  0  0  # atno 17320 bound_to 7965
  145.6392  139.1547  143.2925 LP  0  0  0  0  0  0  0  0  0  0  0  0  # atno 17321 bound_to 7965
  139.7793  144.7450  151.0111 LP  0  0  0  0  0  0  0  0  0  0  0  0  # atno 17342 bound_to 10162
  140.7815  143.4559  151.0346 LP  0  0  0  0  0  0  0  0  0  0  0  0  # atno 17343 bound_to 10162
  157.2516  130.6616  149.5934 LP  0  0  0  0  0  0  0  0  0  0  0  0  # atno 17370 bound_to 10713
  155.9686  130.4536  150.5820 LP  0  0  0  0  0  0  0  0  0  0  0  0  # atno 17371 bound_to 10713
  140.3891  134.2204  155.7167 LP  0  0  0  0  0  0  0  0  0  0  0  0  # atno 17394 bound_to 11000
  141.1938  133.8143  157.0784 LP  0  0  0  0  0  0  0  0  0  0  0  0  # atno 17395 bound_to 11000

$$$$
