AV-unprocessed.smi:2061|AV-procd|sdf|8395|dock10
  -GOLD-   2272011 83D 1   1.00000     0.00000
 Structure written by MMmdl.
 45 46  0  0  0  0  0  0  0  0  3 V2000
  147.4633  135.9394  162.8441 C   0  0  0  0  0  0  0  0  0  0  0  0
  147.5252  135.9565  161.3553 C   0  0  0  0  0  0  0  0  0  0  0  0
  147.4298  134.9757  160.4090 C   0  0  0  0  0  0  0  0  0  0  0  0
  147.5783  135.6893  159.1898 C   0  0  0  0  0  0  0  0  0  0  0  0
  147.5418  135.0084  157.9443 N   0  0  0  0  0  0  0  0  0  0  0  0
  148.5622  134.4946  157.2337 C   0  0  0  0  0  0  0  0  0  0  0  0
  149.7252  134.6064  157.6395 O   0  0  0  0  0  0  0  0  0  0  0  0
  148.1375  133.8845  156.0935 N   0  5  0  0  0  0  0  0  0  0  0  0
  148.0377  134.5382  154.7890 C   0  0  0  0  0  0  0  0  0  0  0  0
  147.5891  133.5168  153.7023 C   0  0  1  0  0  0  0  0  0  0  0  0
  146.5547  132.5122  154.2886 C   0  0  0  0  0  0  0  0  0  0  0  0
  147.1136  134.2493  152.4742 N   0  3  1  0  0  0  0  0  0  0  0  0
  147.1064  133.4344  151.2229 C   0  0  0  0  0  0  0  0  0  0  0  0
  145.8537  132.5372  151.1328 C   0  0  2  0  0  0  0  0  0  0  0  0
  145.7946  131.7647  149.8106 C   0  0  0  0  0  0  0  0  0  0  0  0
  144.6909  133.3521  151.2200 O   0  0  0  0  0  0  0  0  0  0  0  0
  144.6120  134.0619  152.4504 C   0  0  2  0  0  0  0  0  0  0  0  0
  143.2880  134.8330  152.4687 C   0  0  0  0  0  0  0  0  0  0  0  0
  145.8314  135.0021  152.5627 C   0  0  0  0  0  0  0  0  0  0  0  0
  147.7480  136.9899  159.3768 N   0  0  0  0  0  0  0  0  0  0  0  0
  147.7142  137.1677  160.7650 O   0  0  0  0  0  0  0  0  0  0  0  0
  147.3668  134.9201  163.2184 H   0  0  0  0  0  0  0  0  0  0  0  0
  146.6082  136.5135  163.2013 H   0  0  0  0  0  0  0  0  0  0  0  0
  148.3668  136.3728  163.2733 H   0  0  0  0  0  0  0  0  0  0  0  0
  147.2794  133.9179  160.5651 H   0  0  0  0  0  0  0  0  0  0  0  0
  146.6244  134.8845  157.5429 H   0  0  0  0  0  0  0  0  0  0  0  0
  147.3398  135.3761  154.8025 H   0  0  0  0  0  0  0  0  0  0  0  0
  148.9963  134.9681  154.4968 H   0  0  0  0  0  0  0  0  0  0  0  0
  148.4574  132.9261  153.4088 H   0  0  0  0  0  0  0  0  0  0  0  0
  146.9384  131.9842  155.1641 H   0  0  0  0  0  0  0  0  0  0  0  0
  146.2993  131.7278  153.5786 H   0  0  0  0  0  0  0  0  0  0  0  0
  145.6247  132.9990  154.5893 H   0  0  0  0  0  0  0  0  0  0  0  0
  147.1204  134.1205  150.3749 H   0  0  0  0  0  0  0  0  0  0  0  0
  148.0080  132.8292  151.1290 H   0  0  0  0  0  0  0  0  0  0  0  0
  145.8461  131.8133  151.9488 H   0  0  0  0  0  0  0  0  0  0  0  0
  146.6618  131.1132  149.6988 H   0  0  0  0  0  0  0  0  0  0  0  0
  145.7716  132.4421  148.9565 H   0  0  0  0  0  0  0  0  0  0  0  0
  144.9027  131.1394  149.7641 H   0  0  0  0  0  0  0  0  0  0  0  0
  144.6022  133.3440  153.2710 H   0  0  0  0  0  0  0  0  0  0  0  0
  143.1720  135.3903  153.3985 H   0  0  0  0  0  0  0  0  0  0  0  0
  142.4400  134.1535  152.3806 H   0  0  0  0  0  0  0  0  0  0  0  0
  143.2325  135.5431  151.6430 H   0  0  0  0  0  0  0  0  0  0  0  0
  145.7789  135.6298  153.4510 H   0  0  0  0  0  0  0  0  0  0  0  0
  145.8079  135.7037  151.7275 H   0  0  0  0  0  0  0  0  0  0  0  0
  147.8201  134.9589  152.3396 H   0  0  0  0  0  0  0  0  0  0  0  0
  1  2  1  0  0  0  0
  1 22  1  0  0  0  0
  1 23  1  0  0  0  0
  1 24  1  0  0  0  0
  2 21  1  0  0  0  0
  2  3  2  0  0  0  0
  3  4  1  0  0  0  0
  3 25  1  0  0  0  0
  4  5  1  0  0  0  0
  4 20  2  0  0  0  0
  5  6  1  0  0  0  0
  5 26  1  0  0  0  0
  6  7  2  0  0  0  0
  6  8  1  0  0  0  0
  8  9  1  0  0  0  0
  9 10  1  0  0  0  0
  9 27  1  0  0  0  0
  9 28  1  0  0  0  0
 10 11  1  0  0  0  0
 10 12  1  0  0  0  0
 10 29  1  0  0  0  0
 11 30  1  0  0  0  0
 11 31  1  0  0  0  0
 11 32  1  0  0  0  0
 12 19  1  0  0  0  0
 12 13  1  0  0  0  0
 12 45  1  0  0  0  0
 13 14  1  0  0  0  0
 13 33  1  0  0  0  0
 13 34  1  0  0  0  0
 14 15  1  0  0  0  0
 14 16  1  0  0  0  0
 14 35  1  0  0  0  0
 15 36  1  0  0  0  0
 15 37  1  0  0  0  0
 15 38  1  0  0  0  0
 16 17  1  0  0  0  0
 17 18  1  0  0  0  0
 17 19  1  0  0  0  0
 17 39  1  0  0  0  0
 18 40  1  0  0  0  0
 18 41  1  0  0  0  0
 18 42  1  0  0  0  0
 19 43  1  0  0  0  0
 19 44  1  0  0  0  0
 20 21  1  0  0  0  0
M  CHG  1   8  -1
M  CHG  1  12   1
M  END
> <s_m_source_file>
AV-unprocessed.smi

> <i_m_source_file_index>
2061

> <i_lp_mmshare_version>
43012

> <i_f3d_flags>
0

> <s_epik_input>
W0NIM11jMVtjSF1jKG5vMSlbTkhdQyg9TylbTkhdW0NIMl1bQ0BIXShbQ0gzXSlOMltDSDJdW0NAQEhdKFtDSDNdKU9bQ0BASF0oW0NIM10pW0NIMl0y

> <s_epik_cmdline>
J2VwaWtfcHl0aG9uJywgJy1waCcsICc3LjAnLCAnLXRuJywgJzgnLCAnLW1hJywgJzIwMCcsICctbWV0YWxfYmluZGluZycsICctaW1hZScsICc8aW5maWxlLm1hZT4nLCAnLW9tYWUnLCAnPG91dGZpbGUubWFlPic=

> <r_epik_Ionization_Penalty>
6.8073

> <r_epik_Ionization_Penalty_Charging>
6.80729

> <r_epik_Ionization_Penalty_Neutral>
5.65391e-06

> <r_epik_State_Penalty>
7.47323

> <r_epik_Charging_Adjusted_Penalty>
14.2805

> <i_epik_Tot_Q>
0

> <i_epik_Tot_abs_Q>
2

> <r_epik_Metal_State_Penalty>
3.40035

> <b_epik_Metal_Only>
1

> <s_lp_Force_Field>
OPLS_2005

> <r_lp_Energy>
21.1883

> <b_lp_Chiralities_Consistent>
1

> <s_lp_Variant>
AV-unprocessed.smi:2061-36

> <Gold.Version>
5.8.1

> <Gold.Id.Protein>
6NUR|6NUR_protein|mol2

> <Gold.PLP.Fitness>
41.3770

> <Gold.PLP.PLP>
-31.0627

> <Gold.PLP.part.hbond>
-4.0000

> <Gold.PLP.part.metal>
0.0000

> <Gold.PLP.part.buried>
-5.4650

> <Gold.PLP.part.nonpolar>
-21.5822

> <Gold.PLP.part.repulsive>
0.1613

> <Gold.PLP.ligand.clash>
0.0000

> <Gold.PLP.ligand.torsion>
1.8686

> <Gold.PLP.Chemscore.Hbond>
4.6400

> <Gold.PLP.Chemscore.CHOScore>
0.0000

> <Gold.PLP.Chemscore.Metal>
0.0000

> <Gold.Chemscore.Hbonds>
donor molecule, donor type, donor heavy atom, donor atom, acceptor molecule, acceptor atom, score
      L1  H    12    45       P1  7948  2.00
      P1  H  6896  6908       L1     7  0.99
      P1  H  6931  6943       L1    21  0.80
      P1  H  6934  6947       L1    21  0.91

> <Gold.PLP.Chemscore.Internal.Correction>
0.1314

> <Gold.Rescore>
     Score         DG    S(hbond)    S(metal)    S(lipo)     H(rot)  DE(clash)    DE(int)     intcor
     18.45     -20.22       3.23        0.00      67.92       1.56       0.00       1.77       ----

> <Gold.Chemscore.Fitness>
18.4519

> <Gold.Chemscore.DG>
-20.2239

> <Gold.Chemscore.ZeroCoef>
-5.4800

> <Gold.Chemscore.Hbond>
3.2271

> <Gold.Chemscore.Metal>
0.0000

> <Gold.Chemscore.Lipo>
67.9161

> <Gold.Chemscore.Internal_Hbond>
0.0000

> <Gold.Chemscore.DEClash>
0.0009

> <Gold.Chemscore.DEInternal>
1.7712

> <Gold.Chemscore.Rot>
1.5550

> <Gold.Chemscore.Internal.Correction>
   9.000000E+99

> <Gold.Chemscore.Hbonds>
donor molecule, donor type, donor heavy atom, donor atom, acceptor molecule, acceptor atom, score
      L1  H    12    45       P1  7948  0.88
      P1  H  6896  6908       L1     7  0.89
      P1  H  6931  6943       L1    21  0.52
      P1  H  6934  6947       L1    21  0.31

> <Gold.Chemscore.Hbond.Weighted>
-10.7786

> <Gold.Chemscore.Metal.Weighted>
-0.0000

> <Gold.Chemscore.Lipo.Weighted>
-7.9462

> <Gold.Chemscore.Internal_Hbond.Weighted>
0.0000

> <Gold.Chemscore.DEClash.Weighted>
0.0009

> <Gold.Chemscore.DEInternal.Weighted>
1.7712

> <Gold.Chemscore.Rot.Weighted>
3.9809

> <Gold.Chemscore.Internal.Correction.Weighted>
   9.000000E+99

> <Gold.Protein.RotatedTorsions>
[ 6907 6896 6895 6894 ] final  136.24 input  -60.11 | X-H torsion
[ 7974 7965 7964 7962 ] final  -87.15 input  175.53 | X-H torsion
[ 8008 7997 7996 7995 ] final  -58.57 input   59.86 | X-H torsion
[ 10167 10162 10161 10158 ] final   43.58 input  -65.29 | X-H torsion
[ 10718 10713 10712 10709 ] final  160.16 input   66.30 | X-H torsion
[ 10763 10752 10751 10750 ] final  129.52 input  -60.55 | X-H torsion
[ 11005 11000 10999 10996 ] final   42.86 input  -57.11 | X-H torsion

> <Gold.Protein.ActiveResidues>
 VAL166  LYS551  ARG553  GLY616  TRP617  ASP618  TYR619  PRO620  LYS621  CYS622 
 ASP623  PHE694  ASN695  SER759  ASP760  ASP761  ALA762  ILE779  LEU786  VAL792 
 PHE793  MET794  SER795  GLU796  ALA797  LYS798  CYS799  TRP800  GLU811  SER814 

> <Gold.Protein.RotatedAtoms>
  152.2916  133.5566  159.5560 H   0  0  0  0  0  0  0  0  0  0  0  0  # atno 6907 bound_to 6896
  150.7237  134.0421  159.3778 H   0  0  0  0  0  0  0  0  0  0  0  0  # atno 6908 bound_to 6896
  151.8326  135.0616  160.0489 H   0  0  0  0  0  0  0  0  0  0  0  0  # atno 6909 bound_to 6896
  145.4704  140.9560  143.1920 H   0  0  0  0  0  0  0  0  0  0  0  0  # atno 7974 bound_to 7965
  154.4314  140.1081  156.5977 H   0  0  0  0  0  0  0  0  0  0  0  0  # atno 8008 bound_to 7997
  155.5944  140.3492  155.4557 H   0  0  0  0  0  0  0  0  0  0  0  0  # atno 8009 bound_to 7997
  156.0222  140.1242  157.0335 H   0  0  0  0  0  0  0  0  0  0  0  0  # atno 8010 bound_to 7997
  140.3429  144.2447  150.6153 H   0  0  0  0  0  0  0  0  0  0  0  0  # atno 10167 bound_to 10162
  157.1543  131.0571  151.2264 H   0  0  0  0  0  0  0  0  0  0  0  0  # atno 10718 bound_to 10713
  153.7431  135.3221  155.3307 H   0  0  0  0  0  0  0  0  0  0  0  0  # atno 10763 bound_to 10752
  154.8288  135.4549  154.1007 H   0  0  0  0  0  0  0  0  0  0  0  0  # atno 10764 bound_to 10752
  153.2187  135.6945  153.8108 H   0  0  0  0  0  0  0  0  0  0  0  0  # atno 10765 bound_to 10752
  140.1699  134.4235  155.8263 H   0  0  0  0  0  0  0  0  0  0  0  0  # atno 11005 bound_to 11000
  144.7949  139.6255  143.7097 LP  0  0  0  0  0  0  0  0  0  0  0  0  # atno 17320 bound_to 7965
  146.2400  139.5982  142.9498 LP  0  0  0  0  0  0  0  0  0  0  0  0  # atno 17321 bound_to 7965
  140.5292  143.2247  151.8266 LP  0  0  0  0  0  0  0  0  0  0  0  0  # atno 17342 bound_to 10162
  139.4838  144.4741  151.9388 LP  0  0  0  0  0  0  0  0  0  0  0  0  # atno 17343 bound_to 10162
  157.4192  130.7428  149.6899 LP  0  0  0  0  0  0  0  0  0  0  0  0  # atno 17370 bound_to 10713
  155.9765  130.4075  150.3776 LP  0  0  0  0  0  0  0  0  0  0  0  0  # atno 17371 bound_to 10713
  141.2216  133.6951  156.7745 LP  0  0  0  0  0  0  0  0  0  0  0  0  # atno 17394 bound_to 11000
  140.2389  134.8629  157.3553 LP  0  0  0  0  0  0  0  0  0  0  0  0  # atno 17395 bound_to 11000

$$$$
