AV-unprocessed.smi:1843|AV-procd|sdf|7500|dock6
  -GOLD-   22720 9203D 1   1.00000     0.00000
 Structure written by MMmdl.
 37 39  0  0  0  0  0  0  0  0  1 V2000
  146.4456  138.8900  154.1518 O   0  0  0  0  0  0  0  0  0  0  0  0
  147.1886  138.2033  153.4499 C   0  0  0  0  0  0  0  0  0  0  0  0
  148.5295  138.2946  153.4152 N   0  0  0  0  0  0  0  0  0  0  0  0
  149.3723  139.1586  154.1632 C   0  0  0  0  0  0  0  0  0  0  0  0
  150.7059  139.0376  154.2143 N   0  0  0  0  0  0  0  0  0  0  0  0
  151.2843  140.0143  155.0129 N   0  0  0  0  0  0  0  0  0  0  0  0
  150.3755  140.8422  155.5420 C   0  0  0  0  0  0  0  0  0  0  0  0
  150.7567  141.9776  156.4325 C   0  0  0  0  0  0  0  0  0  0  0  0
  151.5229  141.7331  157.7119 C   0  0  0  0  0  0  0  0  0  0  0  0
  150.0892  142.1950  157.7729 C   0  0  0  0  0  0  0  0  0  0  0  0
  148.7086  140.4856  155.1008 S   0  0  0  0  0  0  0  0  0  0  0  0
  146.7459  137.2522  152.6151 N   0  0  0  0  0  0  0  0  0  0  0  0
  145.3437  136.8935  152.4130 C   0  0  2  0  0  0  0  0  0  0  0  0
  144.7655  136.3610  153.7432 C   0  0  0  0  0  0  0  0  0  0  0  0
  143.3386  135.8171  153.5812 C   0  0  0  0  0  0  0  0  0  0  0  0
  143.2839  134.7311  152.4989 C   0  0  0  0  0  0  0  0  0  0  0  0
  143.8095  135.2719  151.1626 C   0  0  0  0  0  0  0  0  0  0  0  0
  145.2400  135.8286  151.2961 C   0  0  1  0  0  0  0  0  0  0  0  0
  145.5898  136.4069  150.0545 O   0  0  0  0  0  0  0  0  0  0  0  0
  149.0049  137.6612  152.7897 H   0  0  0  0  0  0  0  0  0  0  0  0
  151.0147  142.8563  155.8445 H   0  0  0  0  0  0  0  0  0  0  0  0
  151.7297  140.7012  157.9884 H   0  0  0  0  0  0  0  0  0  0  0  0
  152.2959  142.4512  157.9778 H   0  0  0  0  0  0  0  0  0  0  0  0
  149.9051  143.2224  158.0799 H   0  0  0  0  0  0  0  0  0  0  0  0
  149.3483  141.4703  158.1047 H   0  0  0  0  0  0  0  0  0  0  0  0
  147.4255  136.7409  152.0713 H   0  0  0  0  0  0  0  0  0  0  0  0
  144.7730  137.7745  152.1110 H   0  0  0  0  0  0  0  0  0  0  0  0
  145.4054  135.5658  154.1290 H   0  0  0  0  0  0  0  0  0  0  0  0
  144.7703  137.1496  154.4965 H   0  0  0  0  0  0  0  0  0  0  0  0
  142.9852  135.4139  154.5306 H   0  0  0  0  0  0  0  0  0  0  0  0
  142.6626  136.6322  153.3195 H   0  0  0  0  0  0  0  0  0  0  0  0
  143.8780  133.8702  152.8081 H   0  0  0  0  0  0  0  0  0  0  0  0
  142.2600  134.3761  152.3797 H   0  0  0  0  0  0  0  0  0  0  0  0
  143.7839  134.4818  150.4110 H   0  0  0  0  0  0  0  0  0  0  0  0
  143.1385  136.0562  150.8086 H   0  0  0  0  0  0  0  0  0  0  0  0
  145.9254  135.0051  151.5023 H   0  0  0  0  0  0  0  0  0  0  0  0
  144.8843  136.9713  149.7772 H   0  0  0  0  0  0  0  0  0  0  0  0
  1  2  2  0  0  0  0
  2  3  1  0  0  0  0
  2 12  1  0  0  0  0
  3  4  1  0  0  0  0
  3 20  1  0  0  0  0
  4 11  1  0  0  0  0
  4  5  2  0  0  0  0
  5  6  1  0  0  0  0
  6  7  2  0  0  0  0
  7  8  1  0  0  0  0
  7 11  1  0  0  0  0
  8 10  1  0  0  0  0
  8  9  1  0  0  0  0
  8 21  1  0  0  0  0
  9 10  1  0  0  0  0
  9 22  1  0  0  0  0
  9 23  1  0  0  0  0
 10 24  1  0  0  0  0
 10 25  1  0  0  0  0
 12 13  1  0  0  0  0
 12 26  1  0  0  0  0
 13 18  1  0  0  0  0
 13 14  1  0  0  0  0
 13 27  1  0  0  0  0
 14 15  1  0  0  0  0
 14 28  1  0  0  0  0
 14 29  1  0  0  0  0
 15 16  1  0  0  0  0
 15 30  1  0  0  0  0
 15 31  1  0  0  0  0
 16 17  1  0  0  0  0
 16 32  1  0  0  0  0
 16 33  1  0  0  0  0
 17 18  1  0  0  0  0
 17 34  1  0  0  0  0
 17 35  1  0  0  0  0
 18 19  1  0  0  0  0
 18 36  1  0  0  0  0
 19 37  1  0  0  0  0
M  END
> <s_m_source_file>
AV-unprocessed.smi

> <i_m_source_file_index>
1843

> <i_lp_mmshare_version>
43012

> <i_f3d_flags>
0

> <s_epik_input>
W09IXVtDQEBIXTFbQ0gyXVtDSDJdW0NIMl1bQ0gyXVtDQEhdMVtOSF1DKD1PKVtOSF1jMm5uYyhzMilbQ0hdM1tDSDJdW0NIMl0z

> <s_epik_cmdline>
J2VwaWtfcHl0aG9uJywgJy1waCcsICc3LjAnLCAnLXRuJywgJzgnLCAnLW1hJywgJzIwMCcsICctbWV0YWxfYmluZGluZycsICctaW1hZScsICc8aW5maWxlLm1hZT4nLCAnLW9tYWUnLCAnPG91dGZpbGUubWFlPic=

> <r_lp_tautomer_probability>
1

> <r_epik_Ionization_Penalty>
0.000257313

> <r_epik_Ionization_Penalty_Charging>
0

> <r_epik_Ionization_Penalty_Neutral>
0.000257313

> <r_epik_State_Penalty>
-0

> <r_epik_Charging_Adjusted_Penalty>
0

> <i_epik_Tot_Q>
0

> <i_epik_Tot_abs_Q>
0

> <r_epik_Metal_State_Penalty>
0.147479

> <b_epik_Metal_Only>
0

> <s_lp_Force_Field>
OPLS_2005

> <r_lp_Energy>
7.85459

> <b_lp_Chiralities_Consistent>
1

> <s_lp_Variant>
AV-unprocessed.smi:1843-1

> <Gold.Version>
5.8.1

> <Gold.Id.Protein>
6NUR|6NUR_protein|mol2

> <Gold.PLP.Fitness>
40.2827

> <Gold.PLP.PLP>
-30.3587

> <Gold.PLP.part.hbond>
-6.6550

> <Gold.PLP.part.metal>
0.0000

> <Gold.PLP.part.buried>
-4.3516

> <Gold.PLP.part.nonpolar>
-21.3782

> <Gold.PLP.part.repulsive>
0.4481

> <Gold.PLP.ligand.clash>
0.0000

> <Gold.PLP.ligand.torsion>
0.1285

> <Gold.PLP.Chemscore.Hbond>
3.3500

> <Gold.PLP.Chemscore.CHOScore>
0.0000

> <Gold.PLP.Chemscore.Metal>
0.0000

> <Gold.Chemscore.Hbonds>
donor molecule, donor type, donor heavy atom, donor atom, acceptor molecule, acceptor atom, score
      L1  H     3    20       P1  7948  0.99
      L1  H    12    26       P1  7948  1.00
      L1  H    19    37       P1 10171  1.00
      P1  H  7989  7998       L1     6  0.30

> <Gold.PLP.Chemscore.Internal.Correction>
0.1310

> <Gold.Rescore>
     Score         DG    S(hbond)    S(metal)    S(lipo)     H(rot)  DE(clash)    DE(int)     intcor
     16.52     -17.92       2.95        0.00      60.15       1.74       0.05       1.35       ----

> <Gold.Chemscore.Fitness>
16.5182

> <Gold.Chemscore.DG>
-17.9172

> <Gold.Chemscore.ZeroCoef>
-5.4800

> <Gold.Chemscore.Hbond>
2.9506

> <Gold.Chemscore.Metal>
0.0000

> <Gold.Chemscore.Lipo>
60.1512

> <Gold.Chemscore.Internal_Hbond>
0.0000

> <Gold.Chemscore.DEClash>
0.0515

> <Gold.Chemscore.DEInternal>
1.3475

> <Gold.Chemscore.Rot>
1.7404

> <Gold.Chemscore.Internal.Correction>
   9.000000E+99

> <Gold.Chemscore.Hbonds>
donor molecule, donor type, donor heavy atom, donor atom, acceptor molecule, acceptor atom, score
      L1  H     3    20       P1  7948  0.94
      L1  H    12    26       P1  7948  0.94
      L1  H    19    37       P1 10171  0.98

> <Gold.Chemscore.Hbond.Weighted>
-9.8550

> <Gold.Chemscore.Metal.Weighted>
-0.0000

> <Gold.Chemscore.Lipo.Weighted>
-7.0377

> <Gold.Chemscore.Internal_Hbond.Weighted>
0.0000

> <Gold.Chemscore.DEClash.Weighted>
0.0515

> <Gold.Chemscore.DEInternal.Weighted>
1.3475

> <Gold.Chemscore.Rot.Weighted>
4.4555

> <Gold.Chemscore.Internal.Correction.Weighted>
   9.000000E+99

> <Gold.Protein.RotatedTorsions>
[ 6907 6896 6895 6894 ] final -139.28 input  -60.11 | X-H torsion
[ 7974 7965 7964 7962 ] final  147.43 input  175.53 | X-H torsion
[ 8008 7997 7996 7995 ] final -138.74 input   59.86 | X-H torsion
[ 10167 10162 10161 10158 ] final   33.39 input  -65.29 | X-H torsion
[ 10718 10713 10712 10709 ] final  -43.62 input   66.30 | X-H torsion
[ 10763 10752 10751 10750 ] final -104.70 input  -60.55 | X-H torsion
[ 11005 11000 10999 10996 ] final -135.40 input  -57.11 | X-H torsion

> <Gold.Protein.ActiveResidues>
 VAL166  LYS551  ARG553  GLY616  TRP617  ASP618  TYR619  PRO620  LYS621  CYS622 
 ASP623  PHE694  ASN695  SER759  ASP760  ASP761  ALA762  ILE779  LEU786  VAL792 
 PHE793  MET794  SER795  GLU796  ALA797  LYS798  CYS799  TRP800  GLU811  SER814 

> <Gold.Protein.RotatedAtoms>
  151.0458  133.5667  159.2646 H   0  0  0  0  0  0  0  0  0  0  0  0  # atno 6907 bound_to 6896
  151.2696  135.0679  159.9139 H   0  0  0  0  0  0  0  0  0  0  0  0  # atno 6908 bound_to 6896
  152.5373  134.0190  159.8027 H   0  0  0  0  0  0  0  0  0  0  0  0  # atno 6909 bound_to 6896
  144.8592  139.6028  143.5938 H   0  0  0  0  0  0  0  0  0  0  0  0  # atno 7974 bound_to 7965
  155.4334  140.0526  157.3016 H   0  0  0  0  0  0  0  0  0  0  0  0  # atno 8008 bound_to 7997
  154.4850  140.2097  155.9634 H   0  0  0  0  0  0  0  0  0  0  0  0  # atno 8009 bound_to 7997
  156.1261  140.3180  155.8285 H   0  0  0  0  0  0  0  0  0  0  0  0  # atno 8010 bound_to 7997
  140.4412  144.1185  150.6174 H   0  0  0  0  0  0  0  0  0  0  0  0  # atno 10167 bound_to 10162
  156.2471  130.4185  149.8692 H   0  0  0  0  0  0  0  0  0  0  0  0  # atno 10718 bound_to 10713
  154.7896  135.4776  154.0023 H   0  0  0  0  0  0  0  0  0  0  0  0  # atno 10763 bound_to 10752
  153.1611  135.6809  153.8748 H   0  0  0  0  0  0  0  0  0  0  0  0  # atno 10764 bound_to 10752
  153.8361  135.3185  155.3400 H   0  0  0  0  0  0  0  0  0  0  0  0  # atno 10765 bound_to 10752
  140.8902  134.1822  157.4533 H   0  0  0  0  0  0  0  0  0  0  0  0  # atno 11005 bound_to 11000
  146.2847  139.6972  142.9204 LP  0  0  0  0  0  0  0  0  0  0  0  0  # atno 17320 bound_to 7965
  145.4346  141.0418  143.2891 LP  0  0  0  0  0  0  0  0  0  0  0  0  # atno 17321 bound_to 7965
  140.4316  143.2565  151.9588 LP  0  0  0  0  0  0  0  0  0  0  0  0  # atno 17342 bound_to 10162
  139.4790  144.5738  151.8044 LP  0  0  0  0  0  0  0  0  0  0  0  0  # atno 17343 bound_to 10162
  156.6254  130.8643  151.3484 LP  0  0  0  0  0  0  0  0  0  0  0  0  # atno 17370 bound_to 10713
  157.7199  130.9545  150.1399 LP  0  0  0  0  0  0  0  0  0  0  0  0  # atno 17371 bound_to 10713
  139.8729  134.9855  156.5284 LP  0  0  0  0  0  0  0  0  0  0  0  0  # atno 17394 bound_to 11000
  140.8356  133.8244  155.9026 LP  0  0  0  0  0  0  0  0  0  0  0  0  # atno 17395 bound_to 11000

$$$$
