AV-unprocessed.smi:836|AV-procd|sdf|3891|dock9
  -GOLD-   22720 1343D 1   1.00000     0.00000
 Structure written by MMmdl.
 38 39  0  0  0  0  0  0  0  0  1 V2000
  150.9089  144.5446  159.2827 C   0  0  0  0  0  0  0  0  0  0  0  0
  152.2496  143.9523  159.7396 C   0  0  2  0  0  0  0  0  0  0  0  0
  152.8419  143.0103  158.6740 C   0  0  0  0  0  0  0  0  0  0  0  0
  154.1854  142.4122  159.1284 C   0  0  0  0  0  0  0  0  0  0  0  0
  154.0738  141.6945  160.4893 C   0  0  2  0  0  0  0  0  0  0  0  0
  153.2889  140.4679  160.3769 N   0  0  0  0  0  0  0  0  0  0  0  0
  153.7440  139.2774  159.9555 C   0  0  0  0  0  0  0  0  0  0  0  0
  154.9025  139.0848  159.5872 O   0  0  0  0  0  0  0  0  0  0  0  0
  152.7343  138.1270  159.9364 C   0  0  0  0  0  0  0  0  0  0  0  0
  152.0845  138.0075  158.6418 N   0  0  0  0  0  0  0  0  0  0  0  0
  150.7385  137.9009  158.3648 C   0  0  0  0  0  0  0  0  0  0  0  0
  150.6083  137.8315  157.0076 C   0  0  0  0  0  0  0  0  0  0  0  0
  151.9478  137.9043  156.5260 C   0  0  0  0  0  0  0  0  0  0  0  0
  152.4319  137.8778  155.1000 C   0  0  0  0  0  0  0  0  0  0  0  0
  152.1183  136.7163  154.5263 F   0  0  0  0  0  0  0  0  0  0  0  0
  151.8634  138.8654  154.4084 F   0  0  0  0  0  0  0  0  0  0  0  0
  153.7557  138.0294  155.0671 F   0  0  0  0  0  0  0  0  0  0  0  0
  152.8270  138.0065  157.5136 N   0  0  0  0  0  0  0  0  0  0  0  0
  153.4532  142.6233  161.5502 C   0  0  0  0  0  0  0  0  0  0  0  0
  152.1118  143.2209  161.0886 C   0  0  0  0  0  0  0  0  0  0  0  0
  150.1636  143.7642  159.1260 H   0  0  0  0  0  0  0  0  0  0  0  0
  151.0201  145.0924  158.3466 H   0  0  0  0  0  0  0  0  0  0  0  0
  150.5133  145.2390  160.0246 H   0  0  0  0  0  0  0  0  0  0  0  0
  152.9445  144.7821  159.8774 H   0  0  0  0  0  0  0  0  0  0  0  0
  152.1367  142.2063  158.4577 H   0  0  0  0  0  0  0  0  0  0  0  0
  152.9845  143.5509  157.7378 H   0  0  0  0  0  0  0  0  0  0  0  0
  154.5669  141.7300  158.3678 H   0  0  0  0  0  0  0  0  0  0  0  0
  154.9205  143.2140  159.2091 H   0  0  0  0  0  0  0  0  0  0  0  0
  155.0775  141.4289  160.8262 H   0  0  0  0  0  0  0  0  0  0  0  0
  152.3191  140.5255  160.6536 H   0  0  0  0  0  0  0  0  0  0  0  0
  153.2399  137.1917  160.1815 H   0  0  0  0  0  0  0  0  0  0  0  0
  151.9685  138.2879  160.6963 H   0  0  0  0  0  0  0  0  0  0  0  0
  149.9946  137.8883  159.1480 H   0  0  0  0  0  0  0  0  0  0  0  0
  149.6925  137.7445  156.4421 H   0  0  0  0  0  0  0  0  0  0  0  0
  153.3187  142.0859  162.4898 H   0  0  0  0  0  0  0  0  0  0  0  0
  154.1491  143.4355  161.7641 H   0  0  0  0  0  0  0  0  0  0  0  0
  151.7408  143.9093  161.8487 H   0  0  0  0  0  0  0  0  0  0  0  0
  151.3665  142.4288  161.0051 H   0  0  0  0  0  0  0  0  0  0  0  0
  1  2  1  0  0  0  0
  1 21  1  0  0  0  0
  1 22  1  0  0  0  0
  1 23  1  0  0  0  0
  2 20  1  0  0  0  0
  2  3  1  0  0  0  0
  2 24  1  0  0  0  0
  3  4  1  0  0  0  0
  3 25  1  0  0  0  0
  3 26  1  0  0  0  0
  4  5  1  0  0  0  0
  4 27  1  0  0  0  0
  4 28  1  0  0  0  0
  5  6  1  0  0  0  0
  5 19  1  0  0  0  0
  5 29  1  0  0  0  0
  6  7  1  0  0  0  0
  6 30  1  0  0  0  0
  7  8  2  0  0  0  0
  7  9  1  0  0  0  0
  9 10  1  0  0  0  0
  9 31  1  0  0  0  0
  9 32  1  0  0  0  0
 10 18  1  0  0  0  0
 10 11  1  0  0  0  0
 11 12  2  0  0  0  0
 11 33  1  0  0  0  0
 12 13  1  0  0  0  0
 12 34  1  0  0  0  0
 13 14  1  0  0  0  0
 13 18  2  0  0  0  0
 14 15  1  0  0  0  0
 14 16  1  0  0  0  0
 14 17  1  0  0  0  0
 19 20  1  0  0  0  0
 19 35  1  0  0  0  0
 19 36  1  0  0  0  0
 20 37  1  0  0  0  0
 20 38  1  0  0  0  0
M  END
> <s_m_source_file>
AV-unprocessed.smi

> <i_m_source_file_index>
836

> <i_lp_mmshare_version>
43012

> <i_f3d_flags>
0

> <s_epik_input>
W0NIM11bQ0BASF0xW0NIMl1bQ0gyXVtDQEhdKFtDSDJdW0NIMl0xKVtOSF1DKD1PKVtDSDJdbjJbY0hdW2NIXWMobjIpQyhGKShGKUY=

> <s_epik_cmdline>
J2VwaWtfcHl0aG9uJywgJy1waCcsICc3LjAnLCAnLXRuJywgJzgnLCAnLW1hJywgJzIwMCcsICctbWV0YWxfYmluZGluZycsICctaW1hZScsICc8aW5maWxlLm1hZT4nLCAnLW9tYWUnLCAnPG91dGZpbGUubWFlPic=

> <r_lp_tautomer_probability>
1

> <r_epik_Ionization_Penalty>
8.28749e-08

> <r_epik_Ionization_Penalty_Charging>
0

> <r_epik_Ionization_Penalty_Neutral>
8.28749e-08

> <r_epik_State_Penalty>
-0

> <r_epik_Charging_Adjusted_Penalty>
0

> <i_epik_Tot_Q>
0

> <i_epik_Tot_abs_Q>
0

> <r_epik_Metal_State_Penalty>
-0

> <b_epik_Metal_Only>
0

> <s_lp_Force_Field>
OPLS_2005

> <r_lp_Energy>
10.0253

> <b_lp_Chiralities_Consistent>
1

> <s_lp_Variant>
AV-unprocessed.smi:836-2

> <Gold.Version>
5.8.1

> <Gold.Id.Protein>
6NUR|6NUR_protein|mol2

> <Gold.PLP.Fitness>
40.7730

> <Gold.PLP.PLP>
-39.4467

> <Gold.PLP.part.hbond>
-1.0000

> <Gold.PLP.part.metal>
0.0000

> <Gold.PLP.part.buried>
-3.9814

> <Gold.PLP.part.nonpolar>
-33.7638

> <Gold.PLP.part.repulsive>
0.0948

> <Gold.PLP.ligand.clash>
0.0000

> <Gold.PLP.ligand.torsion>
0.8451

> <Gold.PLP.Chemscore.Hbond>
1.0000

> <Gold.PLP.Chemscore.CHOScore>
0.0000

> <Gold.PLP.Chemscore.Metal>
0.0000

> <Gold.PLP.Chemscore.Internal.Correction>
0.0165

> <Gold.Rescore>
     Score         DG    S(hbond)    S(metal)    S(lipo)     H(rot)  DE(clash)    DE(int)     intcor
     15.45     -16.69       1.00        0.00     101.08       1.54       0.82       0.41       ----

> <Gold.Chemscore.Fitness>
15.4540

> <Gold.Chemscore.DG>
-16.6869

> <Gold.Chemscore.ZeroCoef>
-5.4800

> <Gold.Chemscore.Hbond>
0.9966

> <Gold.Chemscore.Metal>
0.0000

> <Gold.Chemscore.Lipo>
101.0794

> <Gold.Chemscore.Internal_Hbond>
0.0000

> <Gold.Chemscore.DEClash>
0.8208

> <Gold.Chemscore.DEInternal>
0.4121

> <Gold.Chemscore.Rot>
1.5422

> <Gold.Chemscore.Internal.Correction>
   9.000000E+99

> <Gold.Chemscore.Hbonds>
donor molecule, donor type, donor heavy atom, donor atom, acceptor molecule, acceptor atom, score
      P1  H  7997  8010       L1     8  0.02

> <Gold.Chemscore.Hbond.Weighted>
-3.3286

> <Gold.Chemscore.Metal.Weighted>
-0.0000

> <Gold.Chemscore.Lipo.Weighted>
-11.8263

> <Gold.Chemscore.Internal_Hbond.Weighted>
0.0000

> <Gold.Chemscore.DEClash.Weighted>
0.8208

> <Gold.Chemscore.DEInternal.Weighted>
0.4121

> <Gold.Chemscore.Rot.Weighted>
3.9479

> <Gold.Chemscore.Internal.Correction.Weighted>
   9.000000E+99

> <Gold.Protein.RotatedTorsions>
[ 6907 6896 6895 6894 ] final  -14.89 input  -60.11 | X-H torsion
[ 7974 7965 7964 7962 ] final  -15.03 input  175.53 | X-H torsion
[ 8008 7997 7996 7995 ] final  -19.81 input   59.86 | X-H torsion
[ 10167 10162 10161 10158 ] final   41.06 input  -65.29 | X-H torsion
[ 10718 10713 10712 10709 ] final   43.97 input   66.30 | X-H torsion
[ 10763 10752 10751 10750 ] final -141.61 input  -60.55 | X-H torsion
[ 11005 11000 10999 10996 ] final  162.90 input  -57.11 | X-H torsion

> <Gold.Protein.ActiveResidues>
 VAL166  LYS551  ARG553  GLY616  TRP617  ASP618  TYR619  PRO620  LYS621  CYS622 
 ASP623  PHE694  ASN695  SER759  ASP760  ASP761  ALA762  ILE779  LEU786  VAL792 
 PHE793  MET794  SER795  GLU796  ALA797  LYS798  CYS799  TRP800  GLU811  SER814 

> <Gold.Protein.RotatedAtoms>
  151.3324  135.0845  159.9342 H   0  0  0  0  0  0  0  0  0  0  0  0  # atno 6907 bound_to 6896
  152.5231  133.9529  159.7691 H   0  0  0  0  0  0  0  0  0  0  0  0  # atno 6908 bound_to 6896
  150.9870  133.6134  159.2744 H   0  0  0  0  0  0  0  0  0  0  0  0  # atno 6909 bound_to 6896
  146.2049  140.3434  142.8410 H   0  0  0  0  0  0  0  0  0  0  0  0  # atno 7974 bound_to 7965
  154.4811  140.2078  155.9761 H   0  0  0  0  0  0  0  0  0  0  0  0  # atno 8008 bound_to 7997
  156.1166  140.3220  155.8118 H   0  0  0  0  0  0  0  0  0  0  0  0  # atno 8009 bound_to 7997
  155.4541  140.0519  157.2989 H   0  0  0  0  0  0  0  0  0  0  0  0  # atno 8010 bound_to 7997
  140.3680  144.2142  150.6134 H   0  0  0  0  0  0  0  0  0  0  0  0  # atno 10167 bound_to 10162
  157.4217  130.7973  149.7521 H   0  0  0  0  0  0  0  0  0  0  0  0  # atno 10718 bound_to 10713
  154.8539  135.3519  154.5896 H   0  0  0  0  0  0  0  0  0  0  0  0  # atno 10763 bound_to 10752
  153.6505  135.6994  153.5215 H   0  0  0  0  0  0  0  0  0  0  0  0  # atno 10764 bound_to 10752
  153.2897  135.4238  155.1114 H   0  0  0  0  0  0  0  0  0  0  0  0  # atno 10765 bound_to 10752
  140.2304  134.8128  157.3311 H   0  0  0  0  0  0  0  0  0  0  0  0  # atno 11005 bound_to 11000
  144.8769  140.7349  143.6011 LP  0  0  0  0  0  0  0  0  0  0  0  0  # atno 17320 bound_to 7965
  145.3354  139.1747  143.4514 LP  0  0  0  0  0  0  0  0  0  0  0  0  # atno 17321 bound_to 7965
  140.5061  143.2304  151.8605 LP  0  0  0  0  0  0  0  0  0  0  0  0  # atno 17342 bound_to 10162
  139.4806  144.5003  151.9069 LP  0  0  0  0  0  0  0  0  0  0  0  0  # atno 17343 bound_to 10162
  155.9883  130.3960  150.3126 LP  0  0  0  0  0  0  0  0  0  0  0  0  # atno 17370 bound_to 10713
  157.1274  131.0263  151.2983 LP  0  0  0  0  0  0  0  0  0  0  0  0  # atno 17371 bound_to 10713
  140.1757  134.4553  155.7803 LP  0  0  0  0  0  0  0  0  0  0  0  0  # atno 17394 bound_to 11000
  141.2218  133.6961  156.7782 LP  0  0  0  0  0  0  0  0  0  0  0  0  # atno 17395 bound_to 11000

$$$$
