AV-unprocessed.smi:40|AV-procd|sdf|380|dock1
  -GOLD-   2262016233D 1   1.00000     0.00000
 Structure written by MMmdl.
 47 48  0  0  0  0  0  0  0  0  1 V2000
  151.6661  144.2790  159.1028 C   0  0  0  0  0  0  0  0  0  0  0  0
  152.8523  143.3151  158.9901 C   0  0  0  0  0  0  0  0  0  0  0  0
  152.4679  141.8693  159.3329 C   0  0  0  0  0  0  0  0  0  0  0  0
  153.6878  140.9950  159.6659 C   0  0  0  0  0  0  0  0  0  0  0  0
  153.3478  139.5021  159.7708 C   0  0  0  0  0  0  0  0  0  0  0  0
  152.7186  139.0825  158.5717 O   0  0  0  0  0  0  0  0  0  0  0  0
  152.1684  137.8592  158.4767 C   0  0  0  0  0  0  0  0  0  0  0  0
  152.1390  137.0443  159.3986 O   0  0  0  0  0  0  0  0  0  0  0  0
  151.5848  137.6362  157.1634 N   0  0  0  0  0  0  0  0  0  0  0  0
  150.9447  136.5405  156.6835 C   0  0  0  0  0  0  0  0  0  0  0  0
  150.6072  135.5155  157.4481 N   0  0  0  0  0  0  0  0  0  0  0  0
  149.9493  134.4010  157.0024 C   0  0  0  0  0  0  0  0  0  0  0  0
  149.7603  133.4625  157.7740 O   0  0  0  0  0  0  0  0  0  0  0  0
  149.5256  134.3865  155.6446 N   0  0  0  0  0  0  0  0  0  0  0  0
  148.8417  133.1588  155.0415 C   0  0  1  0  0  0  0  0  0  0  0  0
  147.7211  133.5498  154.2972 O   0  0  0  0  0  0  0  0  0  0  0  0
  148.0610  133.6846  152.9272 C   0  0  2  0  0  0  0  0  0  0  0  0
  146.8140  133.7993  152.0380 C   0  0  0  0  0  0  0  0  0  0  0  0
  148.9462  132.4590  152.7138 C   0  0  2  0  0  0  0  0  0  0  0  0
  148.1575  131.2931  152.5379 O   0  0  0  0  0  0  0  0  0  0  0  0
  149.7568  132.4391  154.0096 C   0  0  2  0  0  0  0  0  0  0  0  0
  150.1273  131.1302  154.4017 O   0  0  0  0  0  0  0  0  0  0  0  0
  149.9270  135.4309  154.8185 C   0  0  0  0  0  0  0  0  0  0  0  0
  150.5950  136.5091  155.2822 C   0  0  0  0  0  0  0  0  0  0  0  0
  150.9353  137.5136  154.4561 F   0  0  0  0  0  0  0  0  0  0  0  0
  148.5523  132.5514  155.9000 H   0  0  0  0  0  0  0  0  0  0  0  0
  148.6631  134.5882  152.8129 H   0  0  0  0  0  0  0  0  0  0  0  0
  149.5876  132.5710  151.8390 H   0  0  0  0  0  0  0  0  0  0  0  0
  150.6574  133.0226  153.8218 H   0  0  0  0  0  0  0  0  0  0  0  0
  151.9680  145.2972  158.8567 H   0  0  0  0  0  0  0  0  0  0  0  0
  151.2615  144.2876  160.1156 H   0  0  0  0  0  0  0  0  0  0  0  0
  150.8627  143.9960  158.4223 H   0  0  0  0  0  0  0  0  0  0  0  0
  153.2574  143.3576  157.9785 H   0  0  0  0  0  0  0  0  0  0  0  0
  153.6484  143.6495  159.6566 H   0  0  0  0  0  0  0  0  0  0  0  0
  151.7817  141.8786  160.1801 H   0  0  0  0  0  0  0  0  0  0  0  0
  151.9203  141.4289  158.4992 H   0  0  0  0  0  0  0  0  0  0  0  0
  154.4471  141.1304  158.8953 H   0  0  0  0  0  0  0  0  0  0  0  0
  154.1378  141.3289  160.6016 H   0  0  0  0  0  0  0  0  0  0  0  0
  154.2509  138.9150  159.9430 H   0  0  0  0  0  0  0  0  0  0  0  0
  152.6794  139.3342  160.6166 H   0  0  0  0  0  0  0  0  0  0  0  0
  151.6907  138.4147  156.5295 H   0  0  0  0  0  0  0  0  0  0  0  0
  147.0876  133.8315  150.9832 H   0  0  0  0  0  0  0  0  0  0  0  0
  146.2627  134.7114  152.2667 H   0  0  0  0  0  0  0  0  0  0  0  0
  146.1329  132.9609  152.1848 H   0  0  0  0  0  0  0  0  0  0  0  0
  148.1541  131.0727  151.6188 H   0  0  0  0  0  0  0  0  0  0  0  0
  150.6903  131.1901  155.1582 H   0  0  0  0  0  0  0  0  0  0  0  0
  149.7164  135.4014  153.7599 H   0  0  0  0  0  0  0  0  0  0  0  0
  1  2  1  0  0  0  0
  1 30  1  0  0  0  0
  1 31  1  0  0  0  0
  1 32  1  0  0  0  0
  2  3  1  0  0  0  0
  2 33  1  0  0  0  0
  2 34  1  0  0  0  0
  3  4  1  0  0  0  0
  3 35  1  0  0  0  0
  3 36  1  0  0  0  0
  4  5  1  0  0  0  0
  4 37  1  0  0  0  0
  4 38  1  0  0  0  0
  5  6  1  0  0  0  0
  5 39  1  0  0  0  0
  5 40  1  0  0  0  0
  6  7  1  0  0  0  0
  7  8  2  0  0  0  0
  7  9  1  0  0  0  0
  9 10  1  0  0  0  0
  9 41  1  0  0  0  0
 10 24  1  0  0  0  0
 10 11  2  0  0  0  0
 11 12  1  0  0  0  0
 12 13  2  0  0  0  0
 12 14  1  0  0  0  0
 14 15  1  0  0  0  0
 14 23  1  0  0  0  0
 15 26  1  0  0  0  0
 15 21  1  0  0  0  0
 15 16  1  0  0  0  0
 16 17  1  0  0  0  0
 17 27  1  0  0  0  0
 17 18  1  0  0  0  0
 17 19  1  0  0  0  0
 18 42  1  0  0  0  0
 18 43  1  0  0  0  0
 18 44  1  0  0  0  0
 19 28  1  0  0  0  0
 19 20  1  0  0  0  0
 19 21  1  0  0  0  0
 20 45  1  0  0  0  0
 21 29  1  0  0  0  0
 21 22  1  0  0  0  0
 22 46  1  0  0  0  0
 23 24  2  0  0  0  0
 23 47  1  0  0  0  0
 24 25  1  0  0  0  0
M  END
> <s_m_source_file>
AV-unprocessed.smi

> <i_m_source_file_index>
40

> <i_lp_mmshare_version>
43012

> <i_f3d_flags>
0

> <s_epik_input>
W0NIM11bQ0gyXVtDSDJdW0NIMl1bQ0gyXU9DKD1PKVtOSF1jMW5jKD1PKW4oW2NIXWMxRilbQ0BASF0yT1tDQEhdKFtDSDNdKVtDQEBIXShbT0hdKVtDQEhdMltPSF0=

> <s_epik_cmdline>
J2VwaWtfcHl0aG9uJywgJy1waCcsICc3LjAnLCAnLXRuJywgJzgnLCAnLW1hJywgJzIwMCcsICctbWV0YWxfYmluZGluZycsICctaW1hZScsICc8aW5maWxlLm1hZT4nLCAnLW9tYWUnLCAnPG91dGZpbGUubWFlPic=

> <r_lp_tautomer_probability>
1

> <r_epik_Ionization_Penalty>
2.29506e-06

> <r_epik_Ionization_Penalty_Charging>
8.26867e-09

> <r_epik_Ionization_Penalty_Neutral>
2.2868e-06

> <r_epik_State_Penalty>
-0

> <r_epik_Charging_Adjusted_Penalty>
8.26867e-09

> <i_epik_Tot_Q>
0

> <i_epik_Tot_abs_Q>
0

> <r_epik_Metal_State_Penalty>
-0

> <b_epik_Metal_Only>
0

> <s_epik_Chemistry_Notes>
This compound has an ester and may undergo hydrolysis at high or low pH. This compound contains an acetal/aminal-like group ( X-CH(R)-Y where X, Y are N, S, or O) that may be acid/base labile, releasing an aldehyde.

> <s_lp_Force_Field>
OPLS_2005

> <r_lp_Energy>
41.2702

> <b_lp_Chiralities_Consistent>
1

> <s_lp_Variant>
AV-unprocessed.smi:40-14

> <Gold.Version>
5.8.1

> <Gold.Id.Protein>
6NUR|6NUR_protein|mol2

> <Gold.PLP.Fitness>
49.5070

> <Gold.PLP.PLP>
-38.1769

> <Gold.PLP.part.hbond>
-4.0000

> <Gold.PLP.part.metal>
0.0000

> <Gold.PLP.part.buried>
-2.4125

> <Gold.PLP.part.nonpolar>
-32.4033

> <Gold.PLP.part.repulsive>
0.1174

> <Gold.PLP.ligand.clash>
0.0000

> <Gold.PLP.ligand.torsion>
0.2971

> <Gold.PLP.Chemscore.Hbond>
2.8390

> <Gold.PLP.Chemscore.CHOScore>
0.9979

> <Gold.PLP.Chemscore.Metal>
0.0000

> <Gold.Chemscore.Hbonds>
donor molecule, donor type, donor heavy atom, donor atom, acceptor molecule, acceptor atom, score
      L1  H    20    45       P1 10747  0.94
      P1  H  6896  6907       L1     8  0.99
      P1  H  6896  6909       L1    13  1.00
      L1  C    23    47       P1  7948  0.70

> <Gold.PLP.Chemscore.Internal.Correction>
0.4135

> <Gold.Rescore>
     Score         DG    S(hbond)    S(metal)    S(lipo)     H(rot)  DE(clash)    DE(int)     intcor
     10.69     -12.74       2.07        0.00      83.94       3.70       0.25       1.81       ----

> <Gold.Chemscore.Fitness>
10.6863

> <Gold.Chemscore.DG>
-12.7395

> <Gold.Chemscore.ZeroCoef>
-5.4800

> <Gold.Chemscore.Hbond>
2.0658

> <Gold.Chemscore.Metal>
0.0000

> <Gold.Chemscore.Lipo>
83.9372

> <Gold.Chemscore.Internal_Hbond>
0.0000

> <Gold.Chemscore.DEClash>
0.2456

> <Gold.Chemscore.DEInternal>
1.8077

> <Gold.Chemscore.Rot>
3.6957

> <Gold.Chemscore.Internal.Correction>
   9.000000E+99

> <Gold.Chemscore.Hbonds>
donor molecule, donor type, donor heavy atom, donor atom, acceptor molecule, acceptor atom, score
      L1  H    20    45       P1 10747  0.90
      P1  H  6896  6907       L1     8  0.91
      P1  H  6896  6909       L1    13  0.55

> <Gold.Chemscore.Hbond.Weighted>
-6.8998

> <Gold.Chemscore.Metal.Weighted>
-0.0000

> <Gold.Chemscore.Lipo.Weighted>
-9.8206

> <Gold.Chemscore.Internal_Hbond.Weighted>
0.0000

> <Gold.Chemscore.DEClash.Weighted>
0.2456

> <Gold.Chemscore.DEInternal.Weighted>
1.8077

> <Gold.Chemscore.Rot.Weighted>
9.4610

> <Gold.Chemscore.Internal.Correction.Weighted>
   9.000000E+99

> <Gold.Protein.RotatedTorsions>
[ 6907 6896 6895 6894 ] final    1.51 input  -60.11 | X-H torsion
[ 7974 7965 7964 7962 ] final  -46.64 input  175.53 | X-H torsion
[ 8008 7997 7996 7995 ] final  -23.69 input   59.86 | X-H torsion
[ 10167 10162 10161 10158 ] final -178.54 input  -65.29 | X-H torsion
[ 10718 10713 10712 10709 ] final  159.79 input   66.30 | X-H torsion
[ 10763 10752 10751 10750 ] final  -59.73 input  -60.55 | X-H torsion
[ 11005 11000 10999 10996 ] final  -14.67 input  -57.11 | X-H torsion

> <Gold.Protein.ActiveResidues>
 VAL166  LYS551  ARG553  GLY616  TRP617  ASP618  TYR619  PRO620  LYS621  CYS622 
 ASP623  PHE694  ASN695  SER759  ASP760  ASP761  ALA762  ILE779  LEU786  VAL792 
 PHE793  MET794  SER795  GLU796  ALA797  LYS798  CYS799  TRP800  GLU811  SER814 

> <Gold.Protein.RotatedAtoms>
  151.5939  135.1051  160.0044 H   0  0  0  0  0  0  0  0  0  0  0  0  # atno 6907 bound_to 6896
  152.4292  133.7244  159.6562 H   0  0  0  0  0  0  0  0  0  0  0  0  # atno 6908 bound_to 6896
  150.8183  133.8226  159.3173 H   0  0  0  0  0  0  0  0  0  0  0  0  # atno 6909 bound_to 6896
  145.9698  140.7394  142.9416 H   0  0  0  0  0  0  0  0  0  0  0  0  # atno 7974 bound_to 7965
  154.4571  140.1974  156.0350 H   0  0  0  0  0  0  0  0  0  0  0  0  # atno 8008 bound_to 7997
  156.0767  140.3277  155.7614 H   0  0  0  0  0  0  0  0  0  0  0  0  # atno 8009 bound_to 7997
  155.5177  140.0567  157.2903 H   0  0  0  0  0  0  0  0  0  0  0  0  # atno 8010 bound_to 7997
  139.5427  144.2318  152.0928 H   0  0  0  0  0  0  0  0  0  0  0  0  # atno 10167 bound_to 10162
  157.1593  131.0583  151.2240 H   0  0  0  0  0  0  0  0  0  0  0  0  # atno 10718 bound_to 10713
  154.2582  135.6313  153.5265 H   0  0  0  0  0  0  0  0  0  0  0  0  # atno 10763 bound_to 10752
  152.9900  135.5581  154.5733 H   0  0  0  0  0  0  0  0  0  0  0  0  # atno 10764 bound_to 10752
  154.5276  135.2886  155.1183 H   0  0  0  0  0  0  0  0  0  0  0  0  # atno 10765 bound_to 10752
  140.7888  133.8304  155.9360 H   0  0  0  0  0  0  0  0  0  0  0  0  # atno 11005 bound_to 11000
  144.6834  140.2730  143.7303 LP  0  0  0  0  0  0  0  0  0  0  0  0  # atno 17320 bound_to 7965
  145.7921  139.1931  143.2096 LP  0  0  0  0  0  0  0  0  0  0  0  0  # atno 17321 bound_to 7965
  140.1800  144.4854  150.6533 LP  0  0  0  0  0  0  0  0  0  0  0  0  # atno 17342 bound_to 10162
  140.6664  143.2269  151.5733 LP  0  0  0  0  0  0  0  0  0  0  0  0  # atno 17343 bound_to 10162
  157.4147  130.7405  149.6866 LP  0  0  0  0  0  0  0  0  0  0  0  0  # atno 17370 bound_to 10713
  155.9756  130.4086  150.3834 LP  0  0  0  0  0  0  0  0  0  0  0  0  # atno 17371 bound_to 10713
  140.9410  134.1900  157.4797 LP  0  0  0  0  0  0  0  0  0  0  0  0  # atno 17394 bound_to 11000
  139.8733  134.9872  156.5357 LP  0  0  0  0  0  0  0  0  0  0  0  0  # atno 17395 bound_to 11000

$$$$
