AV-unprocessed.smi:3303|AV-procd|sdf|12686|dock3
  -GOLD-   2272019 23D 1   1.00000     0.00000
 Structure written by MMmdl.
 44 45  0  0  0  0  0  0  0  0  2 V2000
  148.1571  139.0052  153.7137 C   0  0  0  0  0  0  0  0  0  0  0  0
  148.7464  138.6584  155.0970 C   0  0  1  0  0  0  0  0  0  0  0  0
  148.4373  137.1969  155.4819 C   0  0  0  0  0  0  0  0  0  0  0  0
  149.2422  136.2374  154.6818 N   0  3  2  0  0  0  0  0  0  0  0  0
  148.8128  134.8330  154.8678 C   0  0  0  0  0  0  0  0  0  0  0  0
  150.7140  136.4477  154.8009 C   0  0  2  0  0  0  0  0  0  0  0  0
  151.2878  136.0449  156.1768 C   0  0  0  0  0  0  0  0  0  0  0  0
  151.0756  137.8969  154.4175 C   0  0  0  0  0  0  0  0  0  0  0  0
  150.2689  138.9284  155.2285 C   0  0  1  0  0  0  0  0  0  0  0  0
  150.6533  140.2676  154.7946 N   0  0  0  0  0  0  0  0  0  0  0  0
  150.7084  141.2103  155.9027 C   0  0  0  0  0  0  0  0  0  0  0  0
  151.5327  140.6092  157.0489 C   0  0  0  0  0  0  0  0  0  0  0  0
  151.9270  141.6549  158.0743 C   0  0  0  0  0  0  0  0  0  0  0  0
  152.6245  141.2881  159.2451 C   0  0  0  0  0  0  0  0  0  0  0  0
  152.9763  142.2985  160.1608 C   0  0  0  0  0  0  0  0  0  0  0  0
  152.6200  143.6297  159.8719 C   0  0  0  0  0  0  0  0  0  0  0  0
  151.9251  143.8925  158.6743 C   0  0  0  0  0  0  0  0  0  0  0  0
  151.5835  142.9314  157.7891 N   0  0  0  0  0  0  0  0  0  0  0  0
  148.6105  138.4175  152.9159 H   0  0  0  0  0  0  0  0  0  0  0  0
  148.2978  140.0585  153.4701 H   0  0  0  0  0  0  0  0  0  0  0  0
  147.0841  138.8147  153.6898 H   0  0  0  0  0  0  0  0  0  0  0  0
  148.2254  139.2833  155.8228 H   0  0  0  0  0  0  0  0  0  0  0  0
  148.6263  137.0400  156.5442 H   0  0  0  0  0  0  0  0  0  0  0  0
  147.3756  136.9959  155.3315 H   0  0  0  0  0  0  0  0  0  0  0  0
  148.8974  134.5233  155.9097 H   0  0  0  0  0  0  0  0  0  0  0  0
  149.4133  134.1590  154.2561 H   0  0  0  0  0  0  0  0  0  0  0  0
  147.7716  134.7135  154.5668 H   0  0  0  0  0  0  0  0  0  0  0  0
  151.1859  135.7995  154.0612 H   0  0  0  0  0  0  0  0  0  0  0  0
  152.3627  136.2237  156.2110 H   0  0  0  0  0  0  0  0  0  0  0  0
  151.1399  134.9849  156.3825 H   0  0  0  0  0  0  0  0  0  0  0  0
  150.8420  136.6082  156.9958 H   0  0  0  0  0  0  0  0  0  0  0  0
  152.1449  138.0601  154.5597 H   0  0  0  0  0  0  0  0  0  0  0  0
  150.8939  138.0408  153.3514 H   0  0  0  0  0  0  0  0  0  0  0  0
  150.5551  138.8237  156.2759 H   0  0  0  0  0  0  0  0  0  0  0  0
  151.5639  140.2281  154.3584 H   0  0  0  0  0  0  0  0  0  0  0  0
  151.1622  142.1476  155.5818 H   0  0  0  0  0  0  0  0  0  0  0  0
  149.6978  141.4335  156.2474 H   0  0  0  0  0  0  0  0  0  0  0  0
  150.9671  139.8206  157.5478 H   0  0  0  0  0  0  0  0  0  0  0  0
  152.4345  140.1383  156.6547 H   0  0  0  0  0  0  0  0  0  0  0  0
  152.8865  140.2581  159.4379 H   0  0  0  0  0  0  0  0  0  0  0  0
  153.5104  142.0562  161.0677 H   0  0  0  0  0  0  0  0  0  0  0  0
  152.8738  144.4301  160.5508 H   0  0  0  0  0  0  0  0  0  0  0  0
  151.6365  144.9016  158.4203 H   0  0  0  0  0  0  0  0  0  0  0  0
  149.0266  136.4529  153.7187 H   0  0  0  0  0  0  0  0  0  0  0  0
  1  2  1  0  0  0  0
  1 19  1  0  0  0  0
  1 20  1  0  0  0  0
  1 21  1  0  0  0  0
  2  9  1  0  0  0  0
  2  3  1  0  0  0  0
  2 22  1  0  0  0  0
  3  4  1  0  0  0  0
  3 23  1  0  0  0  0
  3 24  1  0  0  0  0
  4  5  1  0  0  0  0
  4  6  1  0  0  0  0
  4 44  1  0  0  0  0
  5 25  1  0  0  0  0
  5 26  1  0  0  0  0
  5 27  1  0  0  0  0
  6  7  1  0  0  0  0
  6  8  1  0  0  0  0
  6 28  1  0  0  0  0
  7 29  1  0  0  0  0
  7 30  1  0  0  0  0
  7 31  1  0  0  0  0
  8  9  1  0  0  0  0
  8 32  1  0  0  0  0
  8 33  1  0  0  0  0
  9 10  1  0  0  0  0
  9 34  1  0  0  0  0
 10 11  1  0  0  0  0
 10 35  1  0  0  0  0
 11 12  1  0  0  0  0
 11 36  1  0  0  0  0
 11 37  1  0  0  0  0
 12 13  1  0  0  0  0
 12 38  1  0  0  0  0
 12 39  1  0  0  0  0
 13 18  1  0  0  0  0
 13 14  2  0  0  0  0
 14 15  1  0  0  0  0
 14 40  1  0  0  0  0
 15 16  2  0  0  0  0
 15 41  1  0  0  0  0
 16 17  1  0  0  0  0
 16 42  1  0  0  0  0
 17 18  2  0  0  0  0
 17 43  1  0  0  0  0
M  CHG  1   4   1
M  END
> <s_m_source_file>
AV-unprocessed.smi

> <i_m_source_file_index>
3303

> <i_lp_mmshare_version>
43012

> <i_f3d_flags>
0

> <s_epik_input>
W0NIM11bQ0BASF0xW0NIMl1OKFtDSDNdKVtDQEBIXShbQ0gzXSlbQ0gyXVtDQEhdMVtOSF1bQ0gyXVtDSDJdYzJbY0hdW2NIXVtjSF1bY0hdbjI=

> <s_epik_cmdline>
J2VwaWtfcHl0aG9uJywgJy1waCcsICc3LjAnLCAnLXRuJywgJzgnLCAnLW1hJywgJzIwMCcsICctbWV0YWxfYmluZGluZycsICctaW1hZScsICc8aW5maWxlLm1hZT4nLCAnLW9tYWUnLCAnPG91dGZpbGUubWFlPic=

> <r_epik_Ionization_Penalty>
2.31085

> <r_epik_Ionization_Penalty_Charging>
0.000313057

> <r_epik_Ionization_Penalty_Neutral>
2.31054

> <r_epik_State_Penalty>
2.4087

> <r_epik_Charging_Adjusted_Penalty>
2.40902

> <i_epik_Tot_Q>
1

> <i_epik_Tot_abs_Q>
1

> <r_epik_Metal_State_Penalty>
2.30979

> <b_epik_Metal_Only>
0

> <s_lp_Force_Field>
OPLS_2005

> <r_lp_Energy>
26.3275

> <b_lp_Chiralities_Consistent>
1

> <s_lp_Variant>
AV-unprocessed.smi:3303-30

> <Gold.Version>
5.8.1

> <Gold.Id.Protein>
6NUR|6NUR_protein|mol2

> <Gold.PLP.Fitness>
39.8651

> <Gold.PLP.PLP>
-35.0352

> <Gold.PLP.part.hbond>
-2.0000

> <Gold.PLP.part.metal>
0.0000

> <Gold.PLP.part.buried>
-3.5840

> <Gold.PLP.part.nonpolar>
-29.8011

> <Gold.PLP.part.repulsive>
0.0911

> <Gold.PLP.ligand.clash>
0.0000

> <Gold.PLP.ligand.torsion>
0.5882

> <Gold.PLP.Chemscore.Hbond>
2.0000

> <Gold.PLP.Chemscore.CHOScore>
0.0000

> <Gold.PLP.Chemscore.Metal>
0.0000

> <Gold.Chemscore.Hbonds>
donor molecule, donor type, donor heavy atom, donor atom, acceptor molecule, acceptor atom, score
      L1  H     4    44       P1  7948  2.00

> <Gold.PLP.Chemscore.Internal.Correction>
0.0062

> <Gold.Rescore>
     Score         DG    S(hbond)    S(metal)    S(lipo)     H(rot)  DE(clash)    DE(int)     intcor
     17.23     -17.87       0.98        0.00     107.03       1.33       0.05       0.59       ----

> <Gold.Chemscore.Fitness>
17.2327

> <Gold.Chemscore.DG>
-17.8706

> <Gold.Chemscore.ZeroCoef>
-5.4800

> <Gold.Chemscore.Hbond>
0.9778

> <Gold.Chemscore.Metal>
0.0000

> <Gold.Chemscore.Lipo>
107.0302

> <Gold.Chemscore.Internal_Hbond>
0.0000

> <Gold.Chemscore.DEClash>
0.0482

> <Gold.Chemscore.DEInternal>
0.5898

> <Gold.Chemscore.Rot>
1.3272

> <Gold.Chemscore.Internal.Correction>
   9.000000E+99

> <Gold.Chemscore.Hbonds>
donor molecule, donor type, donor heavy atom, donor atom, acceptor molecule, acceptor atom, score
      L1  H     4    44       P1  7948  0.98

> <Gold.Chemscore.Hbond.Weighted>
-3.2658

> <Gold.Chemscore.Metal.Weighted>
-0.0000

> <Gold.Chemscore.Lipo.Weighted>
-12.5225

> <Gold.Chemscore.Internal_Hbond.Weighted>
0.0000

> <Gold.Chemscore.DEClash.Weighted>
0.0482

> <Gold.Chemscore.DEInternal.Weighted>
0.5898

> <Gold.Chemscore.Rot.Weighted>
3.3976

> <Gold.Chemscore.Internal.Correction.Weighted>
   9.000000E+99

> <Gold.Protein.RotatedTorsions>
[ 6907 6896 6895 6894 ] final  163.87 input  -60.11 | X-H torsion
[ 7974 7965 7964 7962 ] final  -21.73 input  175.53 | X-H torsion
[ 8008 7997 7996 7995 ] final  -20.98 input   59.86 | X-H torsion
[ 10167 10162 10161 10158 ] final  -53.79 input  -65.29 | X-H torsion
[ 10718 10713 10712 10709 ] final  136.52 input   66.30 | X-H torsion
[ 10763 10752 10751 10750 ] final  -79.84 input  -60.55 | X-H torsion
[ 11005 11000 10999 10996 ] final   50.89 input  -57.11 | X-H torsion

> <Gold.Protein.ActiveResidues>
 VAL166  LYS551  ARG553  GLY616  TRP617  ASP618  TYR619  PRO620  LYS621  CYS622 
 ASP623  PHE694  ASN695  SER759  ASP760  ASP761  ALA762  ILE779  LEU786  VAL792 
 PHE793  MET794  SER795  GLU796  ALA797  LYS798  CYS799  TRP800  GLU811  SER814 

> <Gold.Protein.RotatedAtoms>
  151.9186  133.3579  159.3888 H   0  0  0  0  0  0  0  0  0  0  0  0  # atno 6907 bound_to 6896
  150.7042  134.4658  159.5411 H   0  0  0  0  0  0  0  0  0  0  0  0  # atno 6908 bound_to 6896
  152.2278  134.8351  160.0528 H   0  0  0  0  0  0  0  0  0  0  0  0  # atno 6909 bound_to 6896
  146.1716  140.4381  142.8530 H   0  0  0  0  0  0  0  0  0  0  0  0  # atno 7974 bound_to 7965
  154.4734  140.2047  155.9937 H   0  0  0  0  0  0  0  0  0  0  0  0  # atno 8008 bound_to 7997
  156.1050  140.3238  155.7963 H   0  0  0  0  0  0  0  0  0  0  0  0  # atno 8009 bound_to 7997
  155.4733  140.0533  157.2967 H   0  0  0  0  0  0  0  0  0  0  0  0  # atno 8010 bound_to 7997
  140.6466  143.2539  151.4843 H   0  0  0  0  0  0  0  0  0  0  0  0  # atno 10167 bound_to 10162
  157.4457  131.1061  151.0092 H   0  0  0  0  0  0  0  0  0  0  0  0  # atno 10718 bound_to 10713
  154.5437  135.5681  153.6862 H   0  0  0  0  0  0  0  0  0  0  0  0  # atno 10763 bound_to 10752
  152.9970  135.6234  154.2467 H   0  0  0  0  0  0  0  0  0  0  0  0  # atno 10764 bound_to 10752
  154.2399  135.2863  155.2837 H   0  0  0  0  0  0  0  0  0  0  0  0  # atno 10765 bound_to 10752
  140.0979  134.5121  155.8790 H   0  0  0  0  0  0  0  0  0  0  0  0  # atno 11005 bound_to 11000
  144.8172  140.6489  143.6376 LP  0  0  0  0  0  0  0  0  0  0  0  0  # atno 17320 bound_to 7965
  145.4324  139.1547  143.4015 LP  0  0  0  0  0  0  0  0  0  0  0  0  # atno 17321 bound_to 7965
  139.5677  144.2003  152.1789 LP  0  0  0  0  0  0  0  0  0  0  0  0  # atno 17342 bound_to 10162
  140.1290  144.5305  150.6814 LP  0  0  0  0  0  0  0  0  0  0  0  0  # atno 17343 bound_to 10162
  157.0939  130.5953  149.5445 LP  0  0  0  0  0  0  0  0  0  0  0  0  # atno 17370 bound_to 10713
  155.9966  130.5036  150.7504 LP  0  0  0  0  0  0  0  0  0  0  0  0  # atno 17371 bound_to 10713
  141.2097  133.6687  156.6458 LP  0  0  0  0  0  0  0  0  0  0  0  0  # atno 17394 bound_to 11000
  140.3261  134.7967  157.4290 LP  0  0  0  0  0  0  0  0  0  0  0  0  # atno 17395 bound_to 11000

$$$$
