AV-unprocessed.smi:1762|AV-procd|sdf|7112|dock2
  -GOLD-   22720 8333D 1   1.00000     0.00000
 Structure written by MMmdl.
 53 54  0  0  0  0  0  0  0  0  2 V2000
  149.2434  141.6522  154.7082 C   0  0  0  0  0  0  0  0  0  0  0  0
  149.6569  140.1974  154.9561 C   0  0  1  0  0  0  0  0  0  0  0  0
  148.9882  139.2274  153.9609 C   0  0  0  0  0  0  0  0  0  0  0  0
  149.4395  137.8265  154.1859 N   0  3  2  0  0  0  0  0  0  0  0  0
  148.8767  137.1241  155.3938 C   0  0  2  0  0  0  0  0  0  0  0  0
  149.4007  135.6754  155.4891 C   0  0  0  0  0  0  0  0  0  0  0  0
  149.9639  135.2860  156.5126 O   0  0  0  0  0  0  0  0  0  0  0  0
  149.2087  134.8935  154.4149 N   0  0  0  0  0  0  0  0  0  0  0  0
  149.6314  133.5026  154.3062 C   0  0  0  0  0  0  0  0  0  0  0  0
  148.5288  132.6205  153.6980 C   0  0  0  0  0  0  0  0  0  0  0  0
  148.8825  131.1466  153.7567 C   0  0  0  0  0  0  0  0  0  0  0  0
  150.0750  130.7161  154.3763 C   0  0  0  0  0  0  0  0  0  0  0  0
  150.3632  129.3375  154.3914 C   0  0  0  0  0  0  0  0  0  0  0  0
  149.4534  128.4478  153.7881 C   0  0  0  0  0  0  0  0  0  0  0  0
  148.2914  128.9786  153.1932 C   0  0  0  0  0  0  0  0  0  0  0  0
  148.0064  130.2988  153.1723 N   0  0  0  0  0  0  0  0  0  0  0  0
  147.3132  137.1513  155.4776 C   0  0  0  0  0  0  0  0  0  0  0  0
  146.7648  136.6286  156.8206 C   0  0  0  0  0  0  0  0  0  0  0  0
  146.6075  136.4379  154.3057 C   0  0  0  0  0  0  0  0  0  0  0  0
  150.9274  137.7995  154.0835 C   0  0  0  0  0  0  0  0  0  0  0  0
  151.5827  138.8063  155.0545 C   0  0  1  0  0  0  0  0  0  0  0  0
  153.1053  138.8550  154.8877 C   0  0  0  0  0  0  0  0  0  0  0  0
  151.0694  140.1095  154.7981 O   0  0  0  0  0  0  0  0  0  0  0  0
  148.1671  141.7798  154.8262 H   0  0  0  0  0  0  0  0  0  0  0  0
  149.5105  141.9733  153.7010 H   0  0  0  0  0  0  0  0  0  0  0  0
  149.7359  142.3229  155.4125 H   0  0  0  0  0  0  0  0  0  0  0  0
  149.3882  139.9345  155.9802 H   0  0  0  0  0  0  0  0  0  0  0  0
  147.9054  139.3284  153.9743 H   0  0  0  0  0  0  0  0  0  0  0  0
  149.2758  139.5095  152.9469 H   0  0  0  0  0  0  0  0  0  0  0  0
  149.2406  137.6547  156.2738 H   0  0  0  0  0  0  0  0  0  0  0  0
  148.7419  135.2910  153.6124 H   0  0  0  0  0  0  0  0  0  0  0  0
  150.5477  133.4346  153.7171 H   0  0  0  0  0  0  0  0  0  0  0  0
  149.8789  133.1466  155.3068 H   0  0  0  0  0  0  0  0  0  0  0  0
  147.5863  132.7846  154.2223 H   0  0  0  0  0  0  0  0  0  0  0  0
  148.3514  132.8988  152.6579 H   0  0  0  0  0  0  0  0  0  0  0  0
  150.7556  131.4236  154.8270 H   0  0  0  0  0  0  0  0  0  0  0  0
  151.2662  128.9695  154.8556 H   0  0  0  0  0  0  0  0  0  0  0  0
  149.6416  127.3843  153.7803 H   0  0  0  0  0  0  0  0  0  0  0  0
  147.5725  128.3257  152.7208 H   0  0  0  0  0  0  0  0  0  0  0  0
  146.9999  138.1941  155.4599 H   0  0  0  0  0  0  0  0  0  0  0  0
  146.9052  135.5528  156.9308 H   0  0  0  0  0  0  0  0  0  0  0  0
  145.6951  136.8229  156.9046 H   0  0  0  0  0  0  0  0  0  0  0  0
  147.2513  137.1191  157.6640 H   0  0  0  0  0  0  0  0  0  0  0  0
  146.7809  135.3618  154.3246 H   0  0  0  0  0  0  0  0  0  0  0  0
  146.9430  136.8087  153.3378 H   0  0  0  0  0  0  0  0  0  0  0  0
  145.5292  136.5918  154.3531 H   0  0  0  0  0  0  0  0  0  0  0  0
  151.3353  136.8013  154.2383 H   0  0  0  0  0  0  0  0  0  0  0  0
  151.1970  138.0629  153.0596 H   0  0  0  0  0  0  0  0  0  0  0  0
  151.3657  138.5340  156.0879 H   0  0  0  0  0  0  0  0  0  0  0  0
  153.5526  137.8816  155.0907 H   0  0  0  0  0  0  0  0  0  0  0  0
  153.5508  139.5744  155.5752 H   0  0  0  0  0  0  0  0  0  0  0  0
  153.3839  139.1467  153.8746 H   0  0  0  0  0  0  0  0  0  0  0  0
  149.0943  137.2942  153.3995 H   0  0  0  0  0  0  0  0  0  0  0  0
  1  2  1  0  0  0  0
  1 24  1  0  0  0  0
  1 25  1  0  0  0  0
  1 26  1  0  0  0  0
  2 23  1  0  0  0  0
  2  3  1  0  0  0  0
  2 27  1  0  0  0  0
  3  4  1  0  0  0  0
  3 28  1  0  0  0  0
  3 29  1  0  0  0  0
  4  5  1  0  0  0  0
  4 20  1  0  0  0  0
  4 53  1  0  0  0  0
  5  6  1  0  0  0  0
  5 17  1  0  0  0  0
  5 30  1  0  0  0  0
  6  7  2  0  0  0  0
  6  8  1  0  0  0  0
  8  9  1  0  0  0  0
  8 31  1  0  0  0  0
  9 10  1  0  0  0  0
  9 32  1  0  0  0  0
  9 33  1  0  0  0  0
 10 11  1  0  0  0  0
 10 34  1  0  0  0  0
 10 35  1  0  0  0  0
 11 16  1  0  0  0  0
 11 12  2  0  0  0  0
 12 13  1  0  0  0  0
 12 36  1  0  0  0  0
 13 14  2  0  0  0  0
 13 37  1  0  0  0  0
 14 15  1  0  0  0  0
 14 38  1  0  0  0  0
 15 16  2  0  0  0  0
 15 39  1  0  0  0  0
 17 18  1  0  0  0  0
 17 19  1  0  0  0  0
 17 40  1  0  0  0  0
 18 41  1  0  0  0  0
 18 42  1  0  0  0  0
 18 43  1  0  0  0  0
 19 44  1  0  0  0  0
 19 45  1  0  0  0  0
 19 46  1  0  0  0  0
 20 21  1  0  0  0  0
 20 47  1  0  0  0  0
 20 48  1  0  0  0  0
 21 22  1  0  0  0  0
 21 23  1  0  0  0  0
 21 49  1  0  0  0  0
 22 50  1  0  0  0  0
 22 51  1  0  0  0  0
 22 52  1  0  0  0  0
M  CHG  1   4   1
M  END
> <s_m_source_file>
AV-unprocessed.smi

> <i_m_source_file_index>
1762

> <i_lp_mmshare_version>
43012

> <i_f3d_flags>
0

> <s_epik_input>
W0NIM11bQ0BASF0xW0NIMl1OKFtDSDJdW0NASF0oTzEpW0NIM10pW0NAQEhdKFtDSF0oW0NIM10pW0NIM10pQyg9TylbTkhdW0NIMl1bQ0gyXWMyW2NIXVtjSF1bY0hdW2NIXW4y

> <s_epik_cmdline>
J2VwaWtfcHl0aG9uJywgJy1waCcsICc3LjAnLCAnLXRuJywgJzgnLCAnLW1hJywgJzIwMCcsICctbWV0YWxfYmluZGluZycsICctaW1hZScsICc8aW5maWxlLm1hZT4nLCAnLW9tYWUnLCAnPG91dGZpbGUubWFlPic=

> <r_epik_Ionization_Penalty>
2.27005

> <r_epik_Ionization_Penalty_Charging>
2.24983

> <r_epik_Ionization_Penalty_Neutral>
0.0202209

> <r_epik_State_Penalty>
2.40228

> <r_epik_Charging_Adjusted_Penalty>
4.65211

> <i_epik_Tot_Q>
1

> <i_epik_Tot_abs_Q>
1

> <r_epik_Metal_State_Penalty>
2.40762

> <b_epik_Metal_Only>
0

> <s_lp_Force_Field>
OPLS_2005

> <r_lp_Energy>
22.1735

> <b_lp_Chiralities_Consistent>
1

> <s_lp_Variant>
AV-unprocessed.smi:1762-14

> <Gold.Version>
5.8.1

> <Gold.Id.Protein>
6NUR|6NUR_protein|mol2

> <Gold.PLP.Fitness>
48.9584

> <Gold.PLP.PLP>
-37.6168

> <Gold.PLP.part.hbond>
-3.0000

> <Gold.PLP.part.metal>
0.0000

> <Gold.PLP.part.buried>
-1.4281

> <Gold.PLP.part.nonpolar>
-33.2437

> <Gold.PLP.part.repulsive>
0.4730

> <Gold.PLP.ligand.clash>
0.0000

> <Gold.PLP.ligand.torsion>
0.3413

> <Gold.PLP.Chemscore.Hbond>
3.9280

> <Gold.PLP.Chemscore.CHOScore>
0.0000

> <Gold.PLP.Chemscore.Metal>
0.0000

> <Gold.Chemscore.Hbonds>
donor molecule, donor type, donor heavy atom, donor atom, acceptor molecule, acceptor atom, score
      L1  H     4    53       P1  7948  2.00
      L1  H     8    31       P1  7948  0.91
      P1  H  7989  7998       L1    23  1.00

> <Gold.PLP.Chemscore.Internal.Correction>
0.2400

> <Gold.Rescore>
     Score         DG    S(hbond)    S(metal)    S(lipo)     H(rot)  DE(clash)    DE(int)     intcor
     19.29     -19.65       2.48        0.00      86.73       1.66       0.05       0.32       ----

> <Gold.Chemscore.Fitness>
19.2859

> <Gold.Chemscore.DG>
-19.6501

> <Gold.Chemscore.ZeroCoef>
-5.4800

> <Gold.Chemscore.Hbond>
2.4796

> <Gold.Chemscore.Metal>
0.0000

> <Gold.Chemscore.Lipo>
86.7259

> <Gold.Chemscore.Internal_Hbond>
0.0000

> <Gold.Chemscore.DEClash>
0.0472

> <Gold.Chemscore.DEInternal>
0.3170

> <Gold.Chemscore.Rot>
1.6635

> <Gold.Chemscore.Internal.Correction>
   9.000000E+99

> <Gold.Chemscore.Hbonds>
donor molecule, donor type, donor heavy atom, donor atom, acceptor molecule, acceptor atom, score
      L1  H     4    53       P1  7948  1.00
      L1  H     8    31       P1  7948  0.74
      P1  H  7989  7998       L1    23  0.82

> <Gold.Chemscore.Hbond.Weighted>
-8.2818

> <Gold.Chemscore.Metal.Weighted>
-0.0000

> <Gold.Chemscore.Lipo.Weighted>
-10.1469

> <Gold.Chemscore.Internal_Hbond.Weighted>
0.0000

> <Gold.Chemscore.DEClash.Weighted>
0.0472

> <Gold.Chemscore.DEInternal.Weighted>
0.3170

> <Gold.Chemscore.Rot.Weighted>
4.2586

> <Gold.Chemscore.Internal.Correction.Weighted>
   9.000000E+99

> <Gold.Protein.RotatedTorsions>
[ 6907 6896 6895 6894 ] final -172.41 input  -60.11 | X-H torsion
[ 7974 7965 7964 7962 ] final -147.55 input  175.53 | X-H torsion
[ 8008 7997 7996 7995 ] final  -88.30 input   59.86 | X-H torsion
[ 10167 10162 10161 10158 ] final  170.09 input  -65.29 | X-H torsion
[ 10718 10713 10712 10709 ] final -174.15 input   66.30 | X-H torsion
[ 10763 10752 10751 10750 ] final -170.63 input  -60.55 | X-H torsion
[ 11005 11000 10999 10996 ] final  132.05 input  -57.11 | X-H torsion

> <Gold.Protein.ActiveResidues>
 VAL166  LYS551  ARG553  GLY616  TRP617  ASP618  TYR619  PRO620  LYS621  CYS622 
 ASP623  PHE694  ASN695  SER759  ASP760  ASP761  ALA762  ILE779  LEU786  VAL792 
 PHE793  MET794  SER795  GLU796  ALA797  LYS798  CYS799  TRP800  GLU811  SER814 

> <Gold.Protein.RotatedAtoms>
  151.5396  133.3435  159.2932 H   0  0  0  0  0  0  0  0  0  0  0  0  # atno 6907 bound_to 6896
  150.8544  134.7880  159.7045 H   0  0  0  0  0  0  0  0  0  0  0  0  # atno 6908 bound_to 6896
  152.4581  134.5254  159.9847 H   0  0  0  0  0  0  0  0  0  0  0  0  # atno 6909 bound_to 6896
  144.8086  140.5312  143.5658 H   0  0  0  0  0  0  0  0  0  0  0  0  # atno 7974 bound_to 7965
  154.6732  140.0555  157.0188 H   0  0  0  0  0  0  0  0  0  0  0  0  # atno 8008 bound_to 7997
  155.1058  140.3233  155.4516 H   0  0  0  0  0  0  0  0  0  0  0  0  # atno 8009 bound_to 7997
  156.2666  140.2023  156.6183 H   0  0  0  0  0  0  0  0  0  0  0  0  # atno 8010 bound_to 7997
  139.5009  144.3635  151.9800 H   0  0  0  0  0  0  0  0  0  0  0  0  # atno 10167 bound_to 10162
  156.7809  130.9483  151.3120 H   0  0  0  0  0  0  0  0  0  0  0  0  # atno 10718 bound_to 10713
  154.6394  135.2896  155.0122 H   0  0  0  0  0  0  0  0  0  0  0  0  # atno 10763 bound_to 10752
  154.1254  135.6541  153.4915 H   0  0  0  0  0  0  0  0  0  0  0  0  # atno 10764 bound_to 10752
  153.0319  135.5297  154.7254 H   0  0  0  0  0  0  0  0  0  0  0  0  # atno 10765 bound_to 10752
  139.9766  134.9561  156.9526 H   0  0  0  0  0  0  0  0  0  0  0  0  # atno 11005 bound_to 11000
  145.5378  139.1475  143.3464 LP  0  0  0  0  0  0  0  0  0  0  0  0  # atno 17320 bound_to 7965
  146.2381  140.5518  142.8946 LP  0  0  0  0  0  0  0  0  0  0  0  0  # atno 17321 bound_to 7965
  140.3071  144.3580  150.6044 LP  0  0  0  0  0  0  0  0  0  0  0  0  # atno 17342 bound_to 10162
  140.5828  143.2171  151.7397 LP  0  0  0  0  0  0  0  0  0  0  0  0  # atno 17343 bound_to 10162
  157.6647  130.8997  149.9905 LP  0  0  0  0  0  0  0  0  0  0  0  0  # atno 17370 bound_to 10713
  156.1219  130.3645  149.9874 LP  0  0  0  0  0  0  0  0  0  0  0  0  # atno 17371 bound_to 10713
  140.5181  134.0935  155.7285 LP  0  0  0  0  0  0  0  0  0  0  0  0  # atno 17394 bound_to 11000
  141.1443  133.9083  157.2253 LP  0  0  0  0  0  0  0  0  0  0  0  0  # atno 17395 bound_to 11000

$$$$
