AV-unprocessed.smi:260|AV-procd|sdf|1980|dock6
  -GOLD-   2262021153D 1   1.00000     0.00000
 Structure written by MMmdl.
 53 56  0  0  0  0  0  0  0  0  1 V2000
  147.5158  132.5389  158.7023 C   0  0  0  0  0  0  0  0  0  0  0  0
  147.4302  133.4228  157.5502 N   0  0  0  0  0  0  0  0  0  0  0  0
  148.4892  133.8844  156.8657 C   0  0  0  0  0  0  0  0  0  0  0  0
  149.6452  133.5974  157.1805 O   0  0  0  0  0  0  0  0  0  0  0  0
  148.2368  134.8122  155.6479 C   0  0  2  0  0  0  0  0  0  0  0  0
  146.7215  134.8783  155.3753 C   0  0  0  0  0  0  0  0  0  0  0  0
  149.0393  134.4299  154.3831 C   0  0  0  0  0  0  0  0  0  0  0  0
  150.4282  135.0461  154.5974 C   0  0  0  0  0  0  0  0  0  0  0  0
  150.2293  136.1233  155.5564 N   0  0  0  0  0  0  0  0  0  0  0  0
  151.0413  137.2115  155.5694 C   0  0  0  0  0  0  0  0  0  0  0  0
  151.9703  137.3479  154.5861 N   0  0  0  0  0  0  0  0  0  0  0  0
  152.7886  138.4039  154.5665 C   0  0  0  0  0  0  0  0  0  0  0  0
  152.8457  139.4305  155.4163 N   0  0  0  0  0  0  0  0  0  0  0  0
  151.9075  139.3096  156.3980 C   0  0  0  0  0  0  0  0  0  0  0  0
  150.9729  138.2452  156.5495 C   0  0  0  0  0  0  0  0  0  0  0  0
  150.1722  138.4827  157.6624 N   0  0  0  0  0  0  0  0  0  0  0  0
  150.6144  139.6118  158.1443 C   0  0  0  0  0  0  0  0  0  0  0  0
  151.6573  140.1759  157.4468 N   0  0  0  0  0  0  0  0  0  0  0  0
  152.3439  141.4180  157.7549 C   0  0  0  0  0  0  0  0  0  0  0  0
  151.3767  142.6151  157.8422 C   0  0  2  0  0  0  0  0  0  0  0  0
  151.1400  143.1153  156.5395 O   0  0  0  0  0  0  0  0  0  0  0  0
  151.9290  143.7529  158.7211 C   0  0  1  0  0  0  0  0  0  0  0  0
  151.0203  144.9818  158.8066 C   0  0  0  0  0  0  0  0  0  0  0  0
  151.4414  145.5862  160.1256 C   0  0  0  0  0  0  0  0  0  0  0  0
  151.6587  144.3398  160.9764 C   0  0  0  0  0  0  0  0  0  0  0  0
  152.0704  143.3174  160.0727 O   0  0  0  0  0  0  0  0  0  0  0  0
  148.8214  136.2111  155.9241 C   0  0  0  0  0  0  0  0  0  0  0  0
  146.5204  132.3616  159.1087 H   0  0  0  0  0  0  0  0  0  0  0  0
  148.1313  132.9791  159.4880 H   0  0  0  0  0  0  0  0  0  0  0  0
  147.9459  131.5775  158.4194 H   0  0  0  0  0  0  0  0  0  0  0  0
  146.5074  133.6961  157.2451 H   0  0  0  0  0  0  0  0  0  0  0  0
  146.4942  135.5644  154.5590 H   0  0  0  0  0  0  0  0  0  0  0  0
  146.1684  135.2244  156.2498 H   0  0  0  0  0  0  0  0  0  0  0  0
  146.3270  133.8999  155.0984 H   0  0  0  0  0  0  0  0  0  0  0  0
  149.0791  133.3615  154.1694 H   0  0  0  0  0  0  0  0  0  0  0  0
  148.5822  134.8982  153.5102 H   0  0  0  0  0  0  0  0  0  0  0  0
  151.1142  134.3146  155.0252 H   0  0  0  0  0  0  0  0  0  0  0  0
  150.8478  135.4030  153.6561 H   0  0  0  0  0  0  0  0  0  0  0  0
  153.4992  138.4292  153.7535 H   0  0  0  0  0  0  0  0  0  0  0  0
  150.1914  140.0647  159.0290 H   0  0  0  0  0  0  0  0  0  0  0  0
  152.8713  141.2857  158.7002 H   0  0  0  0  0  0  0  0  0  0  0  0
  153.1068  141.5948  156.9954 H   0  0  0  0  0  0  0  0  0  0  0  0
  150.4232  142.2774  158.2509 H   0  0  0  0  0  0  0  0  0  0  0  0
  150.3415  143.6202  156.5525 H   0  0  0  0  0  0  0  0  0  0  0  0
  152.9152  144.0606  158.3692 H   0  0  0  0  0  0  0  0  0  0  0  0
  151.1455  145.6635  157.9650 H   0  0  0  0  0  0  0  0  0  0  0  0
  149.9715  144.6844  158.8520 H   0  0  0  0  0  0  0  0  0  0  0  0
  152.3792  146.1304  160.0064 H   0  0  0  0  0  0  0  0  0  0  0  0
  150.6995  146.2667  160.5446 H   0  0  0  0  0  0  0  0  0  0  0  0
  152.3954  144.4975  161.7645 H   0  0  0  0  0  0  0  0  0  0  0  0
  150.7234  144.0300  161.4440 H   0  0  0  0  0  0  0  0  0  0  0  0
  148.3312  136.9638  155.3047 H   0  0  0  0  0  0  0  0  0  0  0  0
  148.7091  136.5159  156.9657 H   0  0  0  0  0  0  0  0  0  0  0  0
  1  2  1  0  0  0  0
  1 28  1  0  0  0  0
  1 29  1  0  0  0  0
  1 30  1  0  0  0  0
  2  3  1  0  0  0  0
  2 31  1  0  0  0  0
  3  4  2  0  0  0  0
  3  5  1  0  0  0  0
  5 27  1  0  0  0  0
  5  6  1  0  0  0  0
  5  7  1  0  0  0  0
  6 32  1  0  0  0  0
  6 33  1  0  0  0  0
  6 34  1  0  0  0  0
  7  8  1  0  0  0  0
  7 35  1  0  0  0  0
  7 36  1  0  0  0  0
  8  9  1  0  0  0  0
  8 37  1  0  0  0  0
  8 38  1  0  0  0  0
  9 10  1  0  0  0  0
  9 27  1  0  0  0  0
 10 15  1  0  0  0  0
 10 11  2  0  0  0  0
 11 12  1  0  0  0  0
 12 13  2  0  0  0  0
 12 39  1  0  0  0  0
 13 14  1  0  0  0  0
 14 18  1  0  0  0  0
 14 15  2  0  0  0  0
 15 16  1  0  0  0  0
 16 17  2  0  0  0  0
 17 18  1  0  0  0  0
 17 40  1  0  0  0  0
 18 19  1  0  0  0  0
 19 20  1  0  0  0  0
 19 41  1  0  0  0  0
 19 42  1  0  0  0  0
 20 21  1  0  0  0  0
 20 22  1  0  0  0  0
 20 43  1  0  0  0  0
 21 44  1  0  0  0  0
 22 26  1  0  0  0  0
 22 23  1  0  0  0  0
 22 45  1  0  0  0  0
 23 24  1  0  0  0  0
 23 46  1  0  0  0  0
 23 47  1  0  0  0  0
 24 25  1  0  0  0  0
 24 48  1  0  0  0  0
 24 49  1  0  0  0  0
 25 26  1  0  0  0  0
 25 50  1  0  0  0  0
 25 51  1  0  0  0  0
 27 52  1  0  0  0  0
 27 53  1  0  0  0  0
M  END
> <s_m_source_file>
AV-unprocessed.smi

> <i_m_source_file_index>
260

> <i_lp_mmshare_version>
43012

> <i_f3d_flags>
0

> <s_epik_input>
W0NIM11bTkhdQyg9TylbQ0BAXTEoW0NIM10pW0NIMl1bQ0gyXU4oW0NIMl0xKWMobltjSF1uMiljKGMyMyluW2NIXW4zW0NIMl1bQ0BIXShbT0hdKVtDQEBIXTRbQ0gyXVtDSDJdW0NIMl1PNA==

> <s_epik_cmdline>
J2VwaWtfcHl0aG9uJywgJy1waCcsICc3LjAnLCAnLXRuJywgJzgnLCAnLW1hJywgJzIwMCcsICctbWV0YWxfYmluZGluZycsICctaW1hZScsICc8aW5maWxlLm1hZT4nLCAnLW9tYWUnLCAnPG91dGZpbGUubWFlPic=

> <r_lp_tautomer_probability>
1

> <r_epik_Ionization_Penalty>
0.00115068

> <r_epik_Ionization_Penalty_Charging>
0

> <r_epik_Ionization_Penalty_Neutral>
0.00115068

> <r_epik_State_Penalty>
0.000668876

> <r_epik_Charging_Adjusted_Penalty>
0.000668876

> <i_epik_Tot_Q>
0

> <i_epik_Tot_abs_Q>
0

> <r_epik_Metal_State_Penalty>
-0

> <b_epik_Metal_Only>
0

> <s_lp_Force_Field>
OPLS_2005

> <r_lp_Energy>
49.109

> <b_lp_Chiralities_Consistent>
1

> <s_lp_Variant>
AV-unprocessed.smi:260-6

> <Gold.Version>
5.8.1

> <Gold.Id.Protein>
6NUR|6NUR_protein|mol2

> <Gold.PLP.Fitness>
48.5815

> <Gold.PLP.PLP>
-39.6673

> <Gold.PLP.part.hbond>
-4.0870

> <Gold.PLP.part.metal>
0.0000

> <Gold.PLP.part.buried>
-8.6564

> <Gold.PLP.part.nonpolar>
-27.0555

> <Gold.PLP.part.repulsive>
0.1756

> <Gold.PLP.ligand.clash>
1.3988

> <Gold.PLP.ligand.torsion>
0.7920

> <Gold.PLP.Chemscore.Hbond>
3.8560

> <Gold.PLP.Chemscore.CHOScore>
0.0000

> <Gold.PLP.Chemscore.Metal>
0.0000

> <Gold.Chemscore.Hbonds>
donor molecule, donor type, donor heavy atom, donor atom, acceptor molecule, acceptor atom, score
      L1  H    21    44       P1  8028  1.00
      P1  H  6896  6909       L1     4  0.13
      P1  H  7997  8008       L1    13  1.00
      P1  H 10752 10765       L1    11  0.91

> <Gold.PLP.Chemscore.Internal.Correction>
0.3290

> <Gold.Rescore>
     Score         DG    S(hbond)    S(metal)    S(lipo)     H(rot)  DE(clash)    DE(int)     intcor
     17.93     -20.47       3.46        0.00      84.48       2.53       0.53       2.00       ----

> <Gold.Chemscore.Fitness>
17.9278

> <Gold.Chemscore.DG>
-20.4658

> <Gold.Chemscore.ZeroCoef>
-5.4800

> <Gold.Chemscore.Hbond>
3.4635

> <Gold.Chemscore.Metal>
0.0000

> <Gold.Chemscore.Lipo>
84.4774

> <Gold.Chemscore.Internal_Hbond>
0.0000

> <Gold.Chemscore.DEClash>
0.5339

> <Gold.Chemscore.DEInternal>
2.0040

> <Gold.Chemscore.Rot>
2.5259

> <Gold.Chemscore.Internal.Correction>
   9.000000E+99

> <Gold.Chemscore.Hbonds>
donor molecule, donor type, donor heavy atom, donor atom, acceptor molecule, acceptor atom, score
      L1  H    21    44       P1  8028  0.92
      P1  H  6896  6909       L1     4  0.14
      P1  H  7997  8008       L1    13  0.50
      P1  H 10752 10765       L1    11  0.51

> <Gold.Chemscore.Hbond.Weighted>
-11.5682

> <Gold.Chemscore.Metal.Weighted>
-0.0000

> <Gold.Chemscore.Lipo.Weighted>
-9.8839

> <Gold.Chemscore.Internal_Hbond.Weighted>
0.0000

> <Gold.Chemscore.DEClash.Weighted>
0.5339

> <Gold.Chemscore.DEInternal.Weighted>
2.0040

> <Gold.Chemscore.Rot.Weighted>
6.4663

> <Gold.Chemscore.Internal.Correction.Weighted>
   9.000000E+99

> <Gold.Protein.RotatedTorsions>
[ 6907 6896 6895 6894 ] final   -3.83 input  -60.11 | X-H torsion
[ 7974 7965 7964 7962 ] final   11.67 input  175.53 | X-H torsion
[ 8008 7997 7996 7995 ] final  -40.07 input   59.86 | X-H torsion
[ 10167 10162 10161 10158 ] final   67.91 input  -65.29 | X-H torsion
[ 10718 10713 10712 10709 ] final  151.15 input   66.30 | X-H torsion
[ 10763 10752 10751 10750 ] final  169.34 input  -60.55 | X-H torsion
[ 11005 11000 10999 10996 ] final  141.65 input  -57.11 | X-H torsion

> <Gold.Protein.ActiveResidues>
 VAL166  LYS551  ARG553  GLY616  TRP617  ASP618  TYR619  PRO620  LYS621  CYS622 
 ASP623  PHE694  ASN695  SER759  ASP760  ASP761  ALA762  ILE779  LEU786  VAL792 
 PHE793  MET794  SER795  GLU796  ALA797  LYS798  CYS799  TRP800  GLU811  SER814 

> <Gold.Protein.RotatedAtoms>
  151.5075  135.1064  159.9844 H   0  0  0  0  0  0  0  0  0  0  0  0  # atno 6907 bound_to 6896
  152.4676  133.7953  159.6934 H   0  0  0  0  0  0  0  0  0  0  0  0  # atno 6908 bound_to 6896
  150.8667  133.7500  159.3000 H   0  0  0  0  0  0  0  0  0  0  0  0  # atno 6909 bound_to 6896
  146.2366  139.9450  142.8478 H   0  0  0  0  0  0  0  0  0  0  0  0  # atno 7974 bound_to 7965
  154.4016  140.1535  156.2966 H   0  0  0  0  0  0  0  0  0  0  0  0  # atno 8008 bound_to 7997
  155.8738  140.3447  155.5817 H   0  0  0  0  0  0  0  0  0  0  0  0  # atno 8009 bound_to 7997
  155.7745  140.0835  157.2081 H   0  0  0  0  0  0  0  0  0  0  0  0  # atno 8010 bound_to 7997
  140.0844  144.5042  150.7140 H   0  0  0  0  0  0  0  0  0  0  0  0  # atno 10167 bound_to 10162
  157.2744  131.0823  151.1576 H   0  0  0  0  0  0  0  0  0  0  0  0  # atno 10718 bound_to 10713
  154.3817  135.2753  155.2207 H   0  0  0  0  0  0  0  0  0  0  0  0  # atno 10763 bound_to 10752
  154.4311  135.5977  153.6073 H   0  0  0  0  0  0  0  0  0  0  0  0  # atno 10764 bound_to 10752
  152.9834  135.5996  154.4060 H   0  0  0  0  0  0  0  0  0  0  0  0  # atno 10765 bound_to 10752
  140.0417  134.9301  157.0856 H   0  0  0  0  0  0  0  0  0  0  0  0  # atno 11005 bound_to 11000
  145.1916  140.9814  143.4208 LP  0  0  0  0  0  0  0  0  0  0  0  0  # atno 17320 bound_to 7965
  144.9852  139.3743  143.6242 LP  0  0  0  0  0  0  0  0  0  0  0  0  # atno 17321 bound_to 7965
  140.7061  143.2469  151.4722 LP  0  0  0  0  0  0  0  0  0  0  0  0  # atno 17342 bound_to 10162
  139.5760  144.1817  152.1904 LP  0  0  0  0  0  0  0  0  0  0  0  0  # atno 17343 bound_to 10162
  157.3035  130.6854  149.6177 LP  0  0  0  0  0  0  0  0  0  0  0  0  # atno 17370 bound_to 10713
  155.9663  130.4385  150.5218 LP  0  0  0  0  0  0  0  0  0  0  0  0  # atno 17371 bound_to 10713
  140.4058  134.2034  155.7163 LP  0  0  0  0  0  0  0  0  0  0  0  0  # atno 17394 bound_to 11000
  141.1886  133.8255  157.0987 LP  0  0  0  0  0  0  0  0  0  0  0  0  # atno 17395 bound_to 11000

$$$$
