AV-unprocessed.smi:1679|AV-procd|sdf|6729|dock1
  -GOLD-   22720 7473D 1   1.00000     0.00000
 Structure written by MMmdl.
 45 46  0  0  0  0  0  0  0  0  1 V2000
  152.0519  144.9205  158.2847 C   0  0  0  0  0  0  0  0  0  0  0  0
  151.7936  143.8309  159.3383 C   0  0  2  0  0  0  0  0  0  0  0  0
  152.2497  144.3059  160.7327 C   0  0  0  0  0  0  0  0  0  0  0  0
  152.0124  143.2338  161.8066 C   0  0  0  0  0  0  0  0  0  0  0  0
  152.7092  141.9185  161.4336 C   0  0  0  0  0  0  0  0  0  0  0  0
  152.2519  141.4272  160.0523 C   0  0  0  0  0  0  0  0  0  0  0  0
  152.4790  142.4972  158.9627 C   0  0  1  0  0  0  0  0  0  0  0  0
  151.9133  142.0429  157.7396 O   0  0  0  0  0  0  0  0  0  0  0  0
  150.4932  142.0297  157.7189 C   0  0  0  0  0  0  0  0  0  0  0  0
  150.0211  141.6753  156.3051 C   0  0  0  0  0  0  0  0  0  0  0  0
  148.5677  141.7207  156.2260 N   0  0  0  0  0  0  0  0  0  0  0  0
  147.8764  142.1341  155.1550 C   0  0  0  0  0  0  0  0  0  0  0  0
  148.4148  142.5214  154.1168 O   0  0  0  0  0  0  0  0  0  0  0  0
  146.3474  142.1154  155.2985 C   0  0  0  0  0  0  0  0  0  0  0  0
  145.7086  143.3848  154.9210 N   0  0  0  0  0  0  0  0  0  0  0  0
  145.9621  143.9507  153.6795 C   0  0  0  0  0  0  0  0  0  0  0  0
  145.4047  145.1115  153.2612 C   0  0  0  0  0  0  0  0  0  0  0  0
  144.4826  145.8413  154.1245 C   0  0  0  0  0  0  0  0  0  0  0  0
  143.9291  146.9001  153.8367 O   0  0  0  0  0  0  0  0  0  0  0  0
  144.2497  145.2382  155.3634 N   0  0  0  0  0  0  0  0  0  0  0  0
  144.8197  144.0411  155.8002 C   0  0  0  0  0  0  0  0  0  0  0  0
  144.5421  143.5939  156.9124 O   0  0  0  0  0  0  0  0  0  0  0  0
  143.6148  145.7058  155.9941 H   0  0  0  0  0  0  0  0  0  0  0  0
  153.1174  145.1273  158.1807 H   0  0  0  0  0  0  0  0  0  0  0  0
  151.5576  145.8535  158.5563 H   0  0  0  0  0  0  0  0  0  0  0  0
  151.6737  144.6250  157.3058 H   0  0  0  0  0  0  0  0  0  0  0  0
  150.7170  143.6589  159.3801 H   0  0  0  0  0  0  0  0  0  0  0  0
  153.3095  144.5634  160.7068 H   0  0  0  0  0  0  0  0  0  0  0  0
  151.7187  145.2179  161.0075 H   0  0  0  0  0  0  0  0  0  0  0  0
  152.3758  143.5869  162.7721 H   0  0  0  0  0  0  0  0  0  0  0  0
  150.9414  143.0615  161.9224 H   0  0  0  0  0  0  0  0  0  0  0  0
  153.7904  142.0622  161.4332 H   0  0  0  0  0  0  0  0  0  0  0  0
  152.4976  141.1593  162.1870 H   0  0  0  0  0  0  0  0  0  0  0  0
  152.7829  140.5083  159.8050 H   0  0  0  0  0  0  0  0  0  0  0  0
  151.1930  141.1679  160.0937 H   0  0  0  0  0  0  0  0  0  0  0  0
  153.5488  142.6795  158.8423 H   0  0  0  0  0  0  0  0  0  0  0  0
  150.1284  141.2837  158.4261 H   0  0  0  0  0  0  0  0  0  0  0  0
  150.0807  142.9931  158.0200 H   0  0  0  0  0  0  0  0  0  0  0  0
  150.4551  142.3638  155.5785 H   0  0  0  0  0  0  0  0  0  0  0  0
  150.3626  140.6722  156.0446 H   0  0  0  0  0  0  0  0  0  0  0  0
  148.0544  141.4282  157.0448 H   0  0  0  0  0  0  0  0  0  0  0  0
  145.9402  141.2930  154.7067 H   0  0  0  0  0  0  0  0  0  0  0  0
  146.1050  141.8698  156.3336 H   0  0  0  0  0  0  0  0  0  0  0  0
  146.6364  143.4422  153.0051 H   0  0  0  0  0  0  0  0  0  0  0  0
  145.6423  145.5016  152.2821 H   0  0  0  0  0  0  0  0  0  0  0  0
  1  2  1  0  0  0  0
  1 24  1  0  0  0  0
  1 25  1  0  0  0  0
  1 26  1  0  0  0  0
  2  7  1  0  0  0  0
  2  3  1  0  0  0  0
  2 27  1  0  0  0  0
  3  4  1  0  0  0  0
  3 28  1  0  0  0  0
  3 29  1  0  0  0  0
  4  5  1  0  0  0  0
  4 30  1  0  0  0  0
  4 31  1  0  0  0  0
  5  6  1  0  0  0  0
  5 32  1  0  0  0  0
  5 33  1  0  0  0  0
  6  7  1  0  0  0  0
  6 34  1  0  0  0  0
  6 35  1  0  0  0  0
  7  8  1  0  0  0  0
  7 36  1  0  0  0  0
  8  9  1  0  0  0  0
  9 10  1  0  0  0  0
  9 37  1  0  0  0  0
  9 38  1  0  0  0  0
 10 11  1  0  0  0  0
 10 39  1  0  0  0  0
 10 40  1  0  0  0  0
 11 12  1  0  0  0  0
 11 41  1  0  0  0  0
 12 13  2  0  0  0  0
 12 14  1  0  0  0  0
 14 15  1  0  0  0  0
 14 42  1  0  0  0  0
 14 43  1  0  0  0  0
 15 21  1  0  0  0  0
 15 16  1  0  0  0  0
 16 17  2  0  0  0  0
 16 44  1  0  0  0  0
 17 18  1  0  0  0  0
 17 45  1  0  0  0  0
 18 19  2  0  0  0  0
 18 20  1  0  0  0  0
 20 23  1  0  0  0  0
 20 21  1  0  0  0  0
 21 22  2  0  0  0  0
M  END
> <s_m_source_file>
AV-unprocessed.smi

> <i_m_source_file_index>
1679

> <i_lp_mmshare_version>
43012

> <i_f3d_flags>
0

> <s_epik_input>
W0NIM11bQ0BASF0xW0NIMl1bQ0gyXVtDSDJdW0NIMl1bQ0BIXTFPW0NIMl1bQ0gyXVtOSF1DKD1PKVtDSDJdbjJbY0hdW2NIXWMoPU8pW25IXWMyPU8=

> <s_epik_cmdline>
J2VwaWtfcHl0aG9uJywgJy1waCcsICc3LjAnLCAnLXRuJywgJzgnLCAnLW1hJywgJzIwMCcsICctbWV0YWxfYmluZGluZycsICctaW1hZScsICc8aW5maWxlLm1hZT4nLCAnLW9tYWUnLCAnPG91dGZpbGUubWFlPic=

> <r_lp_tautomer_probability>
0.999537

> <r_epik_Ionization_Penalty>
0.0033132

> <r_epik_Ionization_Penalty_Charging>
0.00331317

> <r_epik_Ionization_Penalty_Neutral>
2.78599e-08

> <r_epik_State_Penalty>
0.002342

> <r_epik_Charging_Adjusted_Penalty>
0.00565517

> <i_epik_Tot_Q>
0

> <i_epik_Tot_abs_Q>
0

> <r_epik_Metal_State_Penalty>
0.365595

> <b_epik_Metal_Only>
0

> <s_lp_Force_Field>
OPLS_2005

> <r_lp_Energy>
12.8009

> <b_lp_Chiralities_Consistent>
1

> <s_lp_Variant>
AV-unprocessed.smi:1679-1

> <Gold.Version>
5.8.1

> <Gold.Id.Protein>
6NUR|6NUR_protein|mol2

> <Gold.PLP.Fitness>
49.7207

> <Gold.PLP.PLP>
-49.9795

> <Gold.PLP.part.hbond>
-3.0946

> <Gold.PLP.part.metal>
0.0000

> <Gold.PLP.part.buried>
-6.5972

> <Gold.PLP.part.nonpolar>
-41.2383

> <Gold.PLP.part.repulsive>
0.3872

> <Gold.PLP.ligand.clash>
0.0299

> <Gold.PLP.ligand.torsion>
0.3713

> <Gold.PLP.Chemscore.Hbond>
0.1430

> <Gold.PLP.Chemscore.CHOScore>
0.0000

> <Gold.PLP.Chemscore.Metal>
0.0000

> <Gold.Chemscore.Hbonds>
donor molecule, donor type, donor heavy atom, donor atom, acceptor molecule, acceptor atom, score
      P1  H  8011  8017       L1    13  0.07
      P1  H  8022  8030       L1    13  0.32

> <Gold.PLP.Chemscore.Internal.Correction>
0.0848

> <Gold.Rescore>
     Score         DG    S(hbond)    S(metal)    S(lipo)     H(rot)  DE(clash)    DE(int)     intcor
      9.97     -12.29       0.06        0.00     111.68       2.52       0.92       1.41       ----

> <Gold.Chemscore.Fitness>
9.9664

> <Gold.Chemscore.DG>
-12.2906

> <Gold.Chemscore.ZeroCoef>
-5.4800

> <Gold.Chemscore.Hbond>
0.0572

> <Gold.Chemscore.Metal>
0.0000

> <Gold.Chemscore.Lipo>
111.6830

> <Gold.Chemscore.Internal_Hbond>
0.0000

> <Gold.Chemscore.DEClash>
0.9167

> <Gold.Chemscore.DEInternal>
1.4075

> <Gold.Chemscore.Rot>
2.5185

> <Gold.Chemscore.Internal.Correction>
   9.000000E+99

> <Gold.Chemscore.Hbonds>
donor molecule, donor type, donor heavy atom, donor atom, acceptor molecule, acceptor atom, score
      P1  H  8011  8017       L1    13  0.07
      P1  H  8022  8030       L1    13  0.31

> <Gold.Chemscore.Hbond.Weighted>
-0.1910

> <Gold.Chemscore.Metal.Weighted>
-0.0000

> <Gold.Chemscore.Lipo.Weighted>
-13.0669

> <Gold.Chemscore.Internal_Hbond.Weighted>
0.0000

> <Gold.Chemscore.DEClash.Weighted>
0.9167

> <Gold.Chemscore.DEInternal.Weighted>
1.4075

> <Gold.Chemscore.Rot.Weighted>
6.4472

> <Gold.Chemscore.Internal.Correction.Weighted>
   9.000000E+99

> <Gold.Protein.RotatedTorsions>
[ 6907 6896 6895 6894 ] final -153.46 input  -60.11 | X-H torsion
[ 7974 7965 7964 7962 ] final    8.34 input  175.53 | X-H torsion
[ 8008 7997 7996 7995 ] final -103.52 input   59.86 | X-H torsion
[ 10167 10162 10161 10158 ] final  148.97 input  -65.29 | X-H torsion
[ 10718 10713 10712 10709 ] final  -27.96 input   66.30 | X-H torsion
[ 10763 10752 10751 10750 ] final   -1.46 input  -60.55 | X-H torsion
[ 11005 11000 10999 10996 ] final  169.97 input  -57.11 | X-H torsion

> <Gold.Protein.ActiveResidues>
 VAL166  LYS551  ARG553  GLY616  TRP617  ASP618  TYR619  PRO620  LYS621  CYS622 
 ASP623  PHE694  ASN695  SER759  ASP760  ASP761  ALA762  ILE779  LEU786  VAL792 
 PHE793  MET794  SER795  GLU796  ALA797  LYS798  CYS799  TRP800  GLU811  SER814 

> <Gold.Protein.RotatedAtoms>
  151.2429  133.4390  159.2607 H   0  0  0  0  0  0  0  0  0  0  0  0  # atno 6907 bound_to 6896
  151.0689  134.9785  159.8308 H   0  0  0  0  0  0  0  0  0  0  0  0  # atno 6908 bound_to 6896
  152.5409  134.2375  159.8902 H   0  0  0  0  0  0  0  0  0  0  0  0  # atno 6909 bound_to 6896
  146.2417  139.9948  142.8422 H   0  0  0  0  0  0  0  0  0  0  0  0  # atno 7974 bound_to 7965
  154.8721  140.0422  157.1731 H   0  0  0  0  0  0  0  0  0  0  0  0  # atno 8008 bound_to 7997
  154.8728  140.2961  155.5450 H   0  0  0  0  0  0  0  0  0  0  0  0  # atno 8009 bound_to 7997
  156.2999  140.2426  156.3720 H   0  0  0  0  0  0  0  0  0  0  0  0  # atno 8010 bound_to 7997
  139.4867  144.5638  151.7182 H   0  0  0  0  0  0  0  0  0  0  0  0  # atno 10167 bound_to 10162
  156.4314  130.4446  149.7115 H   0  0  0  0  0  0  0  0  0  0  0  0  # atno 10718 bound_to 10713
  153.3452  135.6983  153.6834 H   0  0  0  0  0  0  0  0  0  0  0  0  # atno 10763 bound_to 10752
  153.5583  135.3540  155.2789 H   0  0  0  0  0  0  0  0  0  0  0  0  # atno 10764 bound_to 10752
  154.8644  135.4243  154.2674 H   0  0  0  0  0  0  0  0  0  0  0  0  # atno 10765 bound_to 10752
  140.3034  134.7576  157.3934 H   0  0  0  0  0  0  0  0  0  0  0  0  # atno 11005 bound_to 11000
  145.1470  140.9602  143.4455 LP  0  0  0  0  0  0  0  0  0  0  0  0  # atno 17320 bound_to 7965
  145.0241  139.3398  143.6057 LP  0  0  0  0  0  0  0  0  0  0  0  0  # atno 17321 bound_to 7965
  140.5213  144.0875  150.6023 LP  0  0  0  0  0  0  0  0  0  0  0  0  # atno 17342 bound_to 10162
  140.3834  143.2791  152.0144 LP  0  0  0  0  0  0  0  0  0  0  0  0  # atno 17343 bound_to 10162
  156.4016  130.7677  151.2685 LP  0  0  0  0  0  0  0  0  0  0  0  0  # atno 17370 bound_to 10713
  157.7508  131.0238  150.3850 LP  0  0  0  0  0  0  0  0  0  0  0  0  # atno 17371 bound_to 10713
  140.1089  134.5373  155.8284 LP  0  0  0  0  0  0  0  0  0  0  0  0  # atno 17394 bound_to 11000
  141.2123  133.6718  156.6651 LP  0  0  0  0  0  0  0  0  0  0  0  0  # atno 17395 bound_to 11000

$$$$
