AV-unprocessed.smi:2822|AV-procd|sdf|10880|dock9
  -GOLD-   2272015323D 1   1.00000     0.00000
 Structure written by MMmdl.
 39 41  0  0  0  0  0  0  0  0  1 V2000
  147.5117  137.5796  154.4576 Cl  0  0  0  0  0  0  0  0  0  0  0  0
  147.7885  139.2837  154.3575 C   0  0  0  0  0  0  0  0  0  0  0  0
  146.7047  140.1546  154.1237 C   0  0  0  0  0  0  0  0  0  0  0  0
  146.8330  141.4950  154.0316 N   0  0  0  0  0  0  0  0  0  0  0  0
  148.0688  142.0178  154.1720 C   0  0  0  0  0  0  0  0  0  0  0  0
  149.2193  141.2388  154.4073 C   0  0  0  0  0  0  0  0  0  0  0  0
  149.0831  139.8336  154.5039 C   0  0  0  0  0  0  0  0  0  0  0  0
  150.1748  138.9838  154.7397 N   0  0  0  0  0  0  0  0  0  0  0  0
  151.4557  139.5154  155.1794 C   0  0  0  0  0  0  0  0  0  0  0  0
  151.3531  140.1623  156.5672 C   0  0  2  0  0  0  0  0  0  0  0  0
  151.3433  141.6997  156.4760 C   0  0  0  0  0  0  0  0  0  0  0  0
  151.3304  142.3252  157.7925 N   0  0  0  0  0  0  0  0  0  0  0  0
  151.3333  143.7835  157.6879 C   0  0  0  0  0  0  0  0  0  0  0  0
  151.2849  144.4699  159.0623 C   0  0  0  0  0  0  0  0  0  0  0  0
  152.4557  143.9972  159.9356 C   0  0  0  0  0  0  0  0  0  0  0  0
  152.4812  142.4621  159.9979 C   0  0  0  0  0  0  0  0  0  0  0  0
  152.4718  141.8516  158.5811 C   0  0  1  0  0  0  0  0  0  0  0  0
  152.4893  140.3111  158.6507 C   0  0  0  0  0  0  0  0  0  0  0  0
  152.4873  139.7667  157.3349 O   0  0  0  0  0  0  0  0  0  0  0  0
  145.7045  139.7641  154.0068 H   0  0  0  0  0  0  0  0  0  0  0  0
  148.1443  143.0924  154.0955 H   0  0  0  0  0  0  0  0  0  0  0  0
  150.1757  141.7289  154.5103 H   0  0  0  0  0  0  0  0  0  0  0  0
  150.1393  138.0313  154.4050 H   0  0  0  0  0  0  0  0  0  0  0  0
  152.2038  138.7217  155.1892 H   0  0  0  0  0  0  0  0  0  0  0  0
  151.7836  140.2635  154.4568 H   0  0  0  0  0  0  0  0  0  0  0  0
  150.4401  139.8238  157.0614 H   0  0  0  0  0  0  0  0  0  0  0  0
  152.2189  142.0345  155.9173 H   0  0  0  0  0  0  0  0  0  0  0  0
  150.4699  142.0236  155.9086 H   0  0  0  0  0  0  0  0  0  0  0  0
  152.2230  144.1143  157.1496 H   0  0  0  0  0  0  0  0  0  0  0  0
  150.4767  144.1099  157.0970 H   0  0  0  0  0  0  0  0  0  0  0  0
  151.3172  145.5532  158.9438 H   0  0  0  0  0  0  0  0  0  0  0  0
  150.3400  144.2370  159.5551 H   0  0  0  0  0  0  0  0  0  0  0  0
  153.3946  144.3622  159.5173 H   0  0  0  0  0  0  0  0  0  0  0  0
  152.3754  144.4169  160.9386 H   0  0  0  0  0  0  0  0  0  0  0  0
  153.3635  142.1308  160.5467 H   0  0  0  0  0  0  0  0  0  0  0  0
  151.6152  142.1068  160.5583 H   0  0  0  0  0  0  0  0  0  0  0  0
  153.3897  142.1646  158.0807 H   0  0  0  0  0  0  0  0  0  0  0  0
  153.3816  139.9634  159.1716 H   0  0  0  0  0  0  0  0  0  0  0  0
  151.6283  139.9347  159.2058 H   0  0  0  0  0  0  0  0  0  0  0  0
  1  2  1  0  0  0  0
  2  7  1  0  0  0  0
  2  3  2  0  0  0  0
  3  4  1  0  0  0  0
  3 20  1  0  0  0  0
  4  5  2  0  0  0  0
  5  6  1  0  0  0  0
  5 21  1  0  0  0  0
  6  7  2  0  0  0  0
  6 22  1  0  0  0  0
  7  8  1  0  0  0  0
  8  9  1  0  0  0  0
  8 23  1  0  0  0  0
  9 10  1  0  0  0  0
  9 24  1  0  0  0  0
  9 25  1  0  0  0  0
 10 19  1  0  0  0  0
 10 11  1  0  0  0  0
 10 26  1  0  0  0  0
 11 12  1  0  0  0  0
 11 27  1  0  0  0  0
 11 28  1  0  0  0  0
 12 17  1  0  0  0  0
 12 13  1  0  0  0  0
 13 14  1  0  0  0  0
 13 29  1  0  0  0  0
 13 30  1  0  0  0  0
 14 15  1  0  0  0  0
 14 31  1  0  0  0  0
 14 32  1  0  0  0  0
 15 16  1  0  0  0  0
 15 33  1  0  0  0  0
 15 34  1  0  0  0  0
 16 17  1  0  0  0  0
 16 35  1  0  0  0  0
 16 36  1  0  0  0  0
 17 18  1  0  0  0  0
 17 37  1  0  0  0  0
 18 19  1  0  0  0  0
 18 38  1  0  0  0  0
 18 39  1  0  0  0  0
M  END
> <s_m_source_file>
AV-unprocessed.smi

> <i_m_source_file_index>
2822

> <i_lp_mmshare_version>
43012

> <i_f3d_flags>
0

> <s_epik_input>
Q2xjMVtjSF1uW2NIXVtjSF1jMVtOSF1bQ0gyXVtDQEhdKFtDSDJdMilPW0NIMl1bQ0BASF0oTjIzKVtDSDJdW0NIMl1bQ0gyXVtDSDJdMw==

> <s_epik_cmdline>
J2VwaWtfcHl0aG9uJywgJy1waCcsICc3LjAnLCAnLXRuJywgJzgnLCAnLW1hJywgJzIwMCcsICctbWV0YWxfYmluZGluZycsICctaW1hZScsICc8aW5maWxlLm1hZT4nLCAnLW9tYWUnLCAnPG91dGZpbGUubWFlPic=

> <r_lp_tautomer_probability>
0.999999

> <r_epik_Ionization_Penalty>
2.10064

> <r_epik_Ionization_Penalty_Charging>
0

> <r_epik_Ionization_Penalty_Neutral>
2.10064

> <r_epik_State_Penalty>
2.1757

> <r_epik_Charging_Adjusted_Penalty>
2.1757

> <i_epik_Tot_Q>
0

> <i_epik_Tot_abs_Q>
0

> <r_epik_Metal_State_Penalty>
1.25425

> <b_epik_Metal_Only>
0

> <s_lp_Force_Field>
OPLS_2005

> <r_lp_Energy>
37.6936

> <b_lp_Chiralities_Consistent>
1

> <s_lp_Variant>
AV-unprocessed.smi:2822-21

> <Gold.Version>
5.8.1

> <Gold.Id.Protein>
6NUR|6NUR_protein|mol2

> <Gold.PLP.Fitness>
43.5381

> <Gold.PLP.PLP>
-36.4399

> <Gold.PLP.part.hbond>
-1.0000

> <Gold.PLP.part.metal>
0.0000

> <Gold.PLP.part.buried>
-1.2434

> <Gold.PLP.part.nonpolar>
-33.0056

> <Gold.PLP.part.repulsive>
0.2944

> <Gold.PLP.ligand.clash>
0.0000

> <Gold.PLP.ligand.torsion>
0.6655

> <Gold.PLP.Chemscore.Hbond>
0.9750

> <Gold.PLP.Chemscore.CHOScore>
1.8346

> <Gold.PLP.Chemscore.Metal>
0.0000

> <Gold.Chemscore.Hbonds>
donor molecule, donor type, donor heavy atom, donor atom, acceptor molecule, acceptor atom, score
      P1  H  7997  8010       L1    19  0.98
      L1  C     3    20       P1 10175  0.74
      L1  C     5    21       P1  8028  1.00

> <Gold.PLP.Chemscore.Internal.Correction>
0.0004

> <Gold.Rescore>
     Score         DG    S(hbond)    S(metal)    S(lipo)     H(rot)  DE(clash)    DE(int)     intcor
     17.42     -18.73       0.88        0.00     113.34       1.15       0.56       0.74       ----

> <Gold.Chemscore.Fitness>
17.4232

> <Gold.Chemscore.DG>
-18.7308

> <Gold.Chemscore.ZeroCoef>
-5.4800

> <Gold.Chemscore.Hbond>
0.8800

> <Gold.Chemscore.Metal>
0.0000

> <Gold.Chemscore.Lipo>
113.3375

> <Gold.Chemscore.Internal_Hbond>
0.0000

> <Gold.Chemscore.DEClash>
0.5634

> <Gold.Chemscore.DEInternal>
0.7441

> <Gold.Chemscore.Rot>
1.1519

> <Gold.Chemscore.Internal.Correction>
   9.000000E+99

> <Gold.Chemscore.Hbonds>
donor molecule, donor type, donor heavy atom, donor atom, acceptor molecule, acceptor atom, score
      P1  H  7997  8010       L1    19  0.28

> <Gold.Chemscore.Hbond.Weighted>
-2.9390

> <Gold.Chemscore.Metal.Weighted>
-0.0000

> <Gold.Chemscore.Lipo.Weighted>
-13.2605

> <Gold.Chemscore.Internal_Hbond.Weighted>
0.0000

> <Gold.Chemscore.DEClash.Weighted>
0.5634

> <Gold.Chemscore.DEInternal.Weighted>
0.7441

> <Gold.Chemscore.Rot.Weighted>
2.9487

> <Gold.Chemscore.Internal.Correction.Weighted>
   9.000000E+99

> <Gold.Protein.RotatedTorsions>
[ 6907 6896 6895 6894 ] final  127.21 input  -60.11 | X-H torsion
[ 7974 7965 7964 7962 ] final  -39.94 input  175.53 | X-H torsion
[ 8008 7997 7996 7995 ] final   51.94 input   59.86 | X-H torsion
[ 10167 10162 10161 10158 ] final    5.86 input  -65.29 | X-H torsion
[ 10718 10713 10712 10709 ] final -158.60 input   66.30 | X-H torsion
[ 10763 10752 10751 10750 ] final  -11.10 input  -60.55 | X-H torsion
[ 11005 11000 10999 10996 ] final -169.50 input  -57.11 | X-H torsion

> <Gold.Protein.ActiveResidues>
 VAL166  LYS551  ARG553  GLY616  TRP617  ASP618  TYR619  PRO620  LYS621  CYS622 
 ASP623  PHE694  ASN695  SER759  ASP760  ASP761  ALA762  ILE779  LEU786  VAL792 
 PHE793  MET794  SER795  GLU796  ALA797  LYS798  CYS799  TRP800  GLU811  SER814 

> <Gold.Protein.RotatedAtoms>
  152.3834  133.6577  159.6178 H   0  0  0  0  0  0  0  0  0  0  0  0  # atno 6907 bound_to 6896
  150.7759  133.9076  159.3369 H   0  0  0  0  0  0  0  0  0  0  0  0  # atno 6908 bound_to 6896
  151.6877  135.0953  160.0279 H   0  0  0  0  0  0  0  0  0  0  0  0  # atno 6909 bound_to 6896
  146.0350  140.6683  142.9114 H   0  0  0  0  0  0  0  0  0  0  0  0  # atno 7974 bound_to 7965
  155.4436  140.3455  155.4292 H   0  0  0  0  0  0  0  0  0  0  0  0  # atno 8008 bound_to 7997
  156.1264  140.1501  156.9160 H   0  0  0  0  0  0  0  0  0  0  0  0  # atno 8009 bound_to 7997
  154.4861  140.0855  156.7469 H   0  0  0  0  0  0  0  0  0  0  0  0  # atno 8010 bound_to 7997
  140.6459  143.7663  150.7498 H   0  0  0  0  0  0  0  0  0  0  0  0  # atno 10167 bound_to 10162
  156.5565  130.8628  151.2796 H   0  0  0  0  0  0  0  0  0  0  0  0  # atno 10718 bound_to 10713
  153.4789  135.7017  153.5950 H   0  0  0  0  0  0  0  0  0  0  0  0  # atno 10763 bound_to 10752
  153.4172  135.3834  155.2088 H   0  0  0  0  0  0  0  0  0  0  0  0  # atno 10764 bound_to 10752
  154.8722  135.3919  154.4235 H   0  0  0  0  0  0  0  0  0  0  0  0  # atno 10765 bound_to 10752
  140.5301  134.5625  157.5072 H   0  0  0  0  0  0  0  0  0  0  0  0  # atno 11005 bound_to 11000
  144.7047  140.3804  143.7127 LP  0  0  0  0  0  0  0  0  0  0  0  0  # atno 17320 bound_to 7965
  145.6979  139.1654  143.2610 LP  0  0  0  0  0  0  0  0  0  0  0  0  # atno 17321 bound_to 7965
  140.1303  143.4531  152.2258 LP  0  0  0  0  0  0  0  0  0  0  0  0  # atno 17342 bound_to 10162
  139.5670  144.7441  151.3995 LP  0  0  0  0  0  0  0  0  0  0  0  0  # atno 17343 bound_to 10162
  157.7377  130.9801  150.2210 LP  0  0  0  0  0  0  0  0  0  0  0  0  # atno 17370 bound_to 10713
  156.2838  130.3737  149.7909 LP  0  0  0  0  0  0  0  0  0  0  0  0  # atno 17371 bound_to 10713
  139.9559  134.7536  156.0343 LP  0  0  0  0  0  0  0  0  0  0  0  0  # atno 17394 bound_to 11000
  141.1286  133.6592  156.3404 LP  0  0  0  0  0  0  0  0  0  0  0  0  # atno 17395 bound_to 11000

$$$$
