AV-unprocessed.smi:1867|AV-procd|sdf|7568|dock1
  -GOLD-   22720 9283D 1   1.00000     0.00000
 Structure written by MMmdl.
 53 56  0  0  0  0  0  0  0  0  3 V2000
  146.7643  139.8426  153.8562 O   0  0  0  0  0  0  0  0  0  0  0  0
  147.5216  138.9450  153.4948 C   0  0  0  0  0  0  0  0  0  0  0  0
  148.8213  138.8556  153.8397 N   0  0  0  0  0  0  0  0  0  0  0  0
  149.5767  139.7501  154.6437 C   0  0  0  0  0  0  0  0  0  0  0  0
  150.8668  139.4570  155.1497 C   0  0  0  0  0  0  0  0  0  0  0  0
  151.5409  140.4168  155.9325 C   0  0  0  0  0  0  0  0  0  0  0  0
  150.9263  141.6626  156.2018 C   0  0  0  0  0  0  0  0  0  0  0  0
  151.5394  142.6641  156.9786 N   0  0  0  0  0  0  0  0  0  0  0  0
  151.1671  144.0634  156.8410 C   0  0  0  0  0  0  0  0  0  0  0  0
  151.9054  144.7729  157.9751 C   0  0  0  0  0  0  0  0  0  0  0  0
  151.9400  143.7163  159.0795 C   0  0  0  0  0  0  0  0  0  0  0  0
  152.0271  142.3856  158.3226 C   0  0  0  0  0  0  0  0  0  0  0  0
  149.7018  141.9053  155.6757 N   0  3  0  0  0  0  0  0  0  0  0  0
  149.0225  141.0165  154.9193 C   0  0  0  0  0  0  0  0  0  0  0  0
  147.0981  137.9696  152.6717 N   0  0  0  0  0  0  0  0  0  0  0  0
  145.7601  137.7731  152.1124 C   0  0  2  0  0  0  0  0  0  0  0  0
  144.6147  138.2953  153.0037 C   0  0  0  0  0  0  0  0  0  0  0  0
  143.4852  137.2536  152.8754 C   0  0  0  0  0  0  0  0  0  0  0  0
  143.9642  136.2788  151.8773 N   0  3  2  0  0  0  0  0  0  0  0  0
  143.3917  134.9158  151.9364 C   0  0  0  0  0  0  0  0  0  0  0  0
  143.9594  134.0741  150.7754 C   0  0  0  0  0  0  0  0  0  0  0  0
  145.5016  134.0962  150.7507 C   0  0  0  0  0  0  0  0  0  0  0  0
  146.0381  135.5407  150.7823 C   0  0  0  0  0  0  0  0  0  0  0  0
  145.4309  136.2857  151.9822 C   0  0  1  0  0  0  0  0  0  0  0  0
  149.3471  138.1143  153.4007 H   0  0  0  0  0  0  0  0  0  0  0  0
  151.3586  138.5191  154.9413 H   0  0  0  0  0  0  0  0  0  0  0  0
  152.5262  140.1868  156.3102 H   0  0  0  0  0  0  0  0  0  0  0  0
  151.4477  144.4624  155.8655 H   0  0  0  0  0  0  0  0  0  0  0  0
  150.0877  144.1670  156.9613 H   0  0  0  0  0  0  0  0  0  0  0  0
  152.9226  145.0130  157.6619 H   0  0  0  0  0  0  0  0  0  0  0  0
  151.4200  145.6990  158.2845 H   0  0  0  0  0  0  0  0  0  0  0  0
  152.7630  143.8591  159.7804 H   0  0  0  0  0  0  0  0  0  0  0  0
  151.0086  143.7529  159.6463 H   0  0  0  0  0  0  0  0  0  0  0  0
  151.4419  141.6149  158.8254 H   0  0  0  0  0  0  0  0  0  0  0  0
  153.0610  142.0448  158.2583 H   0  0  0  0  0  0  0  0  0  0  0  0
  148.0540  141.3432  154.5688 H   0  0  0  0  0  0  0  0  0  0  0  0
  147.7997  137.3080  152.3703 H   0  0  0  0  0  0  0  0  0  0  0  0
  145.6955  138.2374  151.1262 H   0  0  0  0  0  0  0  0  0  0  0  0
  144.9259  138.3750  154.0464 H   0  0  0  0  0  0  0  0  0  0  0  0
  144.2887  139.2854  152.6831 H   0  0  0  0  0  0  0  0  0  0  0  0
  143.3225  136.7596  153.8347 H   0  0  0  0  0  0  0  0  0  0  0  0
  142.5412  137.6987  152.5596 H   0  0  0  0  0  0  0  0  0  0  0  0
  143.6299  134.4535  152.8956 H   0  0  0  0  0  0  0  0  0  0  0  0
  142.3050  134.9714  151.8657 H   0  0  0  0  0  0  0  0  0  0  0  0
  143.6019  133.0465  150.8489 H   0  0  0  0  0  0  0  0  0  0  0  0
  143.5810  134.4639  149.8295 H   0  0  0  0  0  0  0  0  0  0  0  0
  145.8849  133.5480  151.6124 H   0  0  0  0  0  0  0  0  0  0  0  0
  145.8708  133.5770  149.8657 H   0  0  0  0  0  0  0  0  0  0  0  0
  147.1264  135.5355  150.8500 H   0  0  0  0  0  0  0  0  0  0  0  0
  145.7830  136.0518  149.8530 H   0  0  0  0  0  0  0  0  0  0  0  0
  145.7133  135.7750  152.9063 H   0  0  0  0  0  0  0  0  0  0  0  0
  143.7401  136.6604  150.9693 H   0  0  0  0  0  0  0  0  0  0  0  0
  149.2669  142.8089  155.8637 H   0  0  0  0  0  0  0  0  0  0  0  0
  1  2  2  0  0  0  0
  2  3  1  0  0  0  0
  2 15  1  0  0  0  0
  3  4  1  0  0  0  0
  3 25  1  0  0  0  0
  4 14  1  0  0  0  0
  4  5  2  0  0  0  0
  5  6  1  0  0  0  0
  5 26  1  0  0  0  0
  6  7  2  0  0  0  0
  6 27  1  0  0  0  0
  7  8  1  0  0  0  0
  7 13  1  0  0  0  0
  8 12  1  0  0  0  0
  8  9  1  0  0  0  0
  9 10  1  0  0  0  0
  9 28  1  0  0  0  0
  9 29  1  0  0  0  0
 10 11  1  0  0  0  0
 10 30  1  0  0  0  0
 10 31  1  0  0  0  0
 11 12  1  0  0  0  0
 11 32  1  0  0  0  0
 11 33  1  0  0  0  0
 12 34  1  0  0  0  0
 12 35  1  0  0  0  0
 13 14  2  0  0  0  0
 13 53  1  0  0  0  0
 14 36  1  0  0  0  0
 15 16  1  0  0  0  0
 15 37  1  0  0  0  0
 16 24  1  0  0  0  0
 16 17  1  0  0  0  0
 16 38  1  0  0  0  0
 17 18  1  0  0  0  0
 17 39  1  0  0  0  0
 17 40  1  0  0  0  0
 18 19  1  0  0  0  0
 18 41  1  0  0  0  0
 18 42  1  0  0  0  0
 19 24  1  0  0  0  0
 19 20  1  0  0  0  0
 19 52  1  0  0  0  0
 20 21  1  0  0  0  0
 20 43  1  0  0  0  0
 20 44  1  0  0  0  0
 21 22  1  0  0  0  0
 21 45  1  0  0  0  0
 21 46  1  0  0  0  0
 22 23  1  0  0  0  0
 22 47  1  0  0  0  0
 22 48  1  0  0  0  0
 23 24  1  0  0  0  0
 23 49  1  0  0  0  0
 23 50  1  0  0  0  0
 24 51  1  0  0  0  0
M  CHG  1  13   1
M  CHG  1  19   1
M  END
> <s_m_source_file>
AV-unprocessed.smi

> <i_m_source_file_index>
1867

> <i_lp_mmshare_version>
43012

> <i_f3d_flags>
0

> <s_epik_input>
W0NIMl0xW0NIMl1bQ0gyXVtDSDJdW0NASF0oTjEyKVtDQEBIXShbQ0gyXVtDSDJdMilbTkhdQyg9TylbTkhdYzNbY0hdW2NIXWMobltjSF0zKU40W0NIMl1bQ0gyXVtDSDJdW0NIMl00

> <s_epik_cmdline>
J2VwaWtfcHl0aG9uJywgJy1waCcsICc3LjAnLCAnLXRuJywgJzgnLCAnLW1hJywgJzIwMCcsICctbWV0YWxfYmluZGluZycsICctaW1hZScsICc8aW5maWxlLm1hZT4nLCAnLW9tYWUnLCAnPG91dGZpbGUubWFlPic=

> <r_lp_tautomer_probability>
0.999994

> <r_epik_Ionization_Penalty>
1.27347

> <r_epik_Ionization_Penalty_Charging>
1.27345

> <r_epik_Ionization_Penalty_Neutral>
1.96458e-05

> <r_epik_State_Penalty>
1.34393

> <r_epik_Charging_Adjusted_Penalty>
2.61738

> <i_epik_Tot_Q>
2

> <i_epik_Tot_abs_Q>
2

> <r_epik_Metal_State_Penalty>
1.41094

> <b_epik_Metal_Only>
0

> <s_lp_Force_Field>
OPLS_2005

> <r_lp_Energy>
79.6518

> <b_lp_Chiralities_Consistent>
1

> <s_lp_Variant>
AV-unprocessed.smi:1867-9

> <Gold.Version>
5.8.1

> <Gold.Id.Protein>
6NUR|6NUR_protein|mol2

> <Gold.PLP.Fitness>
47.9023

> <Gold.PLP.PLP>
-39.4372

> <Gold.PLP.part.hbond>
-3.9637

> <Gold.PLP.part.metal>
0.0000

> <Gold.PLP.part.buried>
4.5883

> <Gold.PLP.part.nonpolar>
-39.2029

> <Gold.PLP.part.repulsive>
0.4139

> <Gold.PLP.ligand.clash>
0.0000

> <Gold.PLP.ligand.torsion>
1.0060

> <Gold.PLP.Chemscore.Hbond>
3.4173

> <Gold.PLP.Chemscore.CHOScore>
0.0000

> <Gold.PLP.Chemscore.Metal>
0.0000

> <Gold.Chemscore.Hbonds>
donor molecule, donor type, donor heavy atom, donor atom, acceptor molecule, acceptor atom, score
      L1  H    13    53       P1  8028  2.00
      L1  H    15    37       P1  7948  1.00
      L1  H    19    52       P1 10171  0.41

> <Gold.PLP.Chemscore.Internal.Correction>
0.2252

> <Gold.Rescore>
     Score         DG    S(hbond)    S(metal)    S(lipo)     H(rot)  DE(clash)    DE(int)     intcor
     18.01     -26.13       2.78        0.00     119.00       1.00       4.00       4.12       ----

> <Gold.Chemscore.Fitness>
18.0060

> <Gold.Chemscore.DG>
-26.1278

> <Gold.Chemscore.ZeroCoef>
-5.4800

> <Gold.Chemscore.Hbond>
2.7799

> <Gold.Chemscore.Metal>
0.0000

> <Gold.Chemscore.Lipo>
119.0001

> <Gold.Chemscore.Internal_Hbond>
0.0000

> <Gold.Chemscore.DEClash>
4.0035

> <Gold.Chemscore.DEInternal>
4.1182

> <Gold.Chemscore.Rot>
1.0000

> <Gold.Chemscore.Internal.Correction>
   9.000000E+99

> <Gold.Chemscore.Hbonds>
donor molecule, donor type, donor heavy atom, donor atom, acceptor molecule, acceptor atom, score
      L1  H     3    25       P1  7948  0.05
      L1  H    13    53       P1  8028  0.98
      L1  H    15    37       P1  7948  1.00
      L1  H    19    52       P1 10171  0.40

> <Gold.Chemscore.Hbond.Weighted>
-9.2848

> <Gold.Chemscore.Metal.Weighted>
-0.0000

> <Gold.Chemscore.Lipo.Weighted>
-13.9230

> <Gold.Chemscore.Internal_Hbond.Weighted>
0.0000

> <Gold.Chemscore.DEClash.Weighted>
4.0035

> <Gold.Chemscore.DEInternal.Weighted>
4.1182

> <Gold.Chemscore.Rot.Weighted>
2.5600

> <Gold.Chemscore.Internal.Correction.Weighted>
   9.000000E+99

> <Gold.Protein.RotatedTorsions>
[ 6907 6896 6895 6894 ] final    0.81 input  -60.11 | X-H torsion
[ 7974 7965 7964 7962 ] final -167.34 input  175.53 | X-H torsion
[ 8008 7997 7996 7995 ] final    5.19 input   59.86 | X-H torsion
[ 10167 10162 10161 10158 ] final  171.38 input  -65.29 | X-H torsion
[ 10718 10713 10712 10709 ] final  101.61 input   66.30 | X-H torsion
[ 10763 10752 10751 10750 ] final   55.89 input  -60.55 | X-H torsion
[ 11005 11000 10999 10996 ] final -175.92 input  -57.11 | X-H torsion

> <Gold.Protein.ActiveResidues>
 VAL166  LYS551  ARG553  GLY616  TRP617  ASP618  TYR619  PRO620  LYS621  CYS622 
 ASP623  PHE694  ASN695  SER759  ASP760  ASP761  ALA762  ILE779  LEU786  VAL792 
 PHE793  MET794  SER795  GLU796  ALA797  LYS798  CYS799  TRP800  GLU811  SER814 

> <Gold.Protein.RotatedAtoms>
  151.5825  135.1058  160.0020 H   0  0  0  0  0  0  0  0  0  0  0  0  # atno 6907 bound_to 6896
  152.4347  133.7335  159.6611 H   0  0  0  0  0  0  0  0  0  0  0  0  # atno 6908 bound_to 6896
  150.8243  133.8128  159.3148 H   0  0  0  0  0  0  0  0  0  0  0  0  # atno 6909 bound_to 6896
  144.7225  140.2532  143.6275 H   0  0  0  0  0  0  0  0  0  0  0  0  # atno 7974 bound_to 7965
  154.7253  140.2720  155.6505 H   0  0  0  0  0  0  0  0  0  0  0  0  # atno 8008 bound_to 7997
  156.2835  140.2726  156.1861 H   0  0  0  0  0  0  0  0  0  0  0  0  # atno 8009 bound_to 7997
  155.0454  140.0371  157.2514 H   0  0  0  0  0  0  0  0  0  0  0  0  # atno 8010 bound_to 7997
  139.5045  144.3492  151.9940 H   0  0  0  0  0  0  0  0  0  0  0  0  # atno 10167 bound_to 10162
  157.6825  131.0731  150.5279 H   0  0  0  0  0  0  0  0  0  0  0  0  # atno 10718 bound_to 10713
  152.9823  135.5695  154.5140 H   0  0  0  0  0  0  0  0  0  0  0  0  # atno 10763 bound_to 10752
  154.4639  135.2782  155.1694 H   0  0  0  0  0  0  0  0  0  0  0  0  # atno 10764 bound_to 10752
  154.3271  135.6257  153.5587 H   0  0  0  0  0  0  0  0  0  0  0  0  # atno 10765 bound_to 10752
  140.4579  134.6282  157.4830 H   0  0  0  0  0  0  0  0  0  0  0  0  # atno 11005 bound_to 11000
  145.8208  139.2043  143.1939 LP  0  0  0  0  0  0  0  0  0  0  0  0  # atno 17320 bound_to 7965
  146.0516  140.8063  142.9779 LP  0  0  0  0  0  0  0  0  0  0  0  0  # atno 17321 bound_to 7965
  140.2929  144.3734  150.6083 LP  0  0  0  0  0  0  0  0  0  0  0  0  # atno 17342 bound_to 10162
  140.5933  143.2167  151.7212 LP  0  0  0  0  0  0  0  0  0  0  0  0  # atno 17343 bound_to 10162
  156.5590  130.4250  149.6072 LP  0  0  0  0  0  0  0  0  0  0  0  0  # atno 17370 bound_to 10713
  156.2837  130.7085  151.1916 LP  0  0  0  0  0  0  0  0  0  0  0  0  # atno 17371 bound_to 10713
  139.9964  134.6904  155.9602 LP  0  0  0  0  0  0  0  0  0  0  0  0  # atno 17394 bound_to 11000
  141.1634  133.6538  156.4398 LP  0  0  0  0  0  0  0  0  0  0  0  0  # atno 17395 bound_to 11000

$$$$
