AV-unprocessed.smi:137|AV-procd|sdf|1177|dock1
  -GOLD-   2262018323D 1   1.00000     0.00000
 Structure written by MMmdl.
 51 54  0  0  0  0  0  0  0  0  1 V2000
  152.2068  144.2085  159.5691 C   0  0  0  0  0  0  0  0  0  0  0  0
  152.8616  142.8191  159.6460 C   0  0  2  0  0  0  0  0  0  0  0  0
  151.8583  141.7507  159.1587 C   0  0  0  0  0  0  0  0  0  0  0  0
  152.4654  140.6007  158.4833 N   0  0  0  0  0  0  0  0  0  0  0  0
  151.7179  139.9376  157.5621 C   0  0  0  0  0  0  0  0  0  0  0  0
  151.7400  138.5781  157.5455 N   0  0  0  0  0  0  0  0  0  0  0  0
  151.0187  137.9004  156.6480 C   0  0  0  0  0  0  0  0  0  0  0  0
  150.2193  138.3741  155.6910 N   0  0  0  0  0  0  0  0  0  0  0  0
  150.1878  139.7375  155.7020 C   0  0  0  0  0  0  0  0  0  0  0  0
  150.8949  140.5892  156.5981 C   0  0  0  0  0  0  0  0  0  0  0  0
  150.5889  141.9175  156.3242 N   0  0  0  0  0  0  0  0  0  0  0  0
  149.7538  141.8542  155.3234 C   0  0  0  0  0  0  0  0  0  0  0  0
  149.4810  140.5849  154.8657 N   0  0  0  0  0  0  0  0  0  0  0  0
  148.5721  140.2300  153.8145 C   0  0  0  0  0  0  0  0  0  0  0  0
  147.0688  140.4934  153.9450 C   0  0  0  0  0  0  0  0  0  0  0  0
  146.7589  139.1739  153.2029 C   0  0  0  0  0  0  0  0  0  0  0  0
  145.6676  138.3178  153.8641 C   0  0  0  0  0  0  0  0  0  0  0  0
  145.8128  138.2883  155.2697 O   0  0  0  0  0  0  0  0  0  0  0  0
  146.3949  139.2982  151.7067 C   0  0  0  0  0  0  0  0  0  0  0  0
  146.2296  138.0498  151.0650 O   0  0  0  0  0  0  0  0  0  0  0  0
  148.2094  138.7665  153.5434 C   0  0  0  0  0  0  0  0  0  0  0  0
  153.6634  139.9213  158.9783 C   0  0  0  0  0  0  0  0  0  0  0  0
  153.7404  139.8210  160.5074 C   0  0  0  0  0  0  0  0  0  0  0  0
  154.6799  141.2891  161.1394 S   0  0  2  0  0  0  0  0  0  0  0  0
  154.9865  141.0181  162.6133 O   0  0  0  0  0  0  0  0  0  0  0  0
  153.3307  142.5620  161.0936 C   0  0  0  0  0  0  0  0  0  0  0  0
  151.3274  144.2687  160.2115 H   0  0  0  0  0  0  0  0  0  0  0  0
  151.8928  144.4417  158.5512 H   0  0  0  0  0  0  0  0  0  0  0  0
  152.9001  144.9910  159.8793 H   0  0  0  0  0  0  0  0  0  0  0  0
  153.7243  142.8466  158.9786 H   0  0  0  0  0  0  0  0  0  0  0  0
  151.2278  141.4067  159.9795 H   0  0  0  0  0  0  0  0  0  0  0  0
  151.1832  142.2258  158.4452 H   0  0  0  0  0  0  0  0  0  0  0  0
  151.0947  136.8244  156.7038 H   0  0  0  0  0  0  0  0  0  0  0  0
  149.3146  142.7398  154.8873 H   0  0  0  0  0  0  0  0  0  0  0  0
  148.9665  140.7002  152.9129 H   0  0  0  0  0  0  0  0  0  0  0  0
  146.7387  140.4858  154.9851 H   0  0  0  0  0  0  0  0  0  0  0  0
  146.7272  141.3968  153.4387 H   0  0  0  0  0  0  0  0  0  0  0  0
  144.6757  138.7128  153.6424 H   0  0  0  0  0  0  0  0  0  0  0  0
  145.6833  137.2954  153.4847 H   0  0  0  0  0  0  0  0  0  0  0  0
  144.9705  138.4608  155.6623 H   0  0  0  0  0  0  0  0  0  0  0  0
  145.4665  139.8547  151.5757 H   0  0  0  0  0  0  0  0  0  0  0  0
  147.1664  139.8478  151.1666 H   0  0  0  0  0  0  0  0  0  0  0  0
  145.4441  138.0834  150.5405 H   0  0  0  0  0  0  0  0  0  0  0  0
  148.7615  138.3123  152.7201 H   0  0  0  0  0  0  0  0  0  0  0  0
  148.2715  138.1487  154.4408 H   0  0  0  0  0  0  0  0  0  0  0  0
  153.6807  138.8995  158.5980 H   0  0  0  0  0  0  0  0  0  0  0  0
  154.5520  140.4048  158.5714 H   0  0  0  0  0  0  0  0  0  0  0  0
  152.7663  139.7194  160.9868 H   0  0  0  0  0  0  0  0  0  0  0  0
  154.3219  138.9378  160.7721 H   0  0  0  0  0  0  0  0  0  0  0  0
  153.7509  143.4727  161.5213 H   0  0  0  0  0  0  0  0  0  0  0  0
  152.5055  142.2621  161.7401 H   0  0  0  0  0  0  0  0  0  0  0  0
  1  2  1  0  0  0  0
  1 27  1  0  0  0  0
  1 28  1  0  0  0  0
  1 29  1  0  0  0  0
  2 26  1  0  0  0  0
  2  3  1  0  0  0  0
  2 30  1  0  0  0  0
  3  4  1  0  0  0  0
  3 31  1  0  0  0  0
  3 32  1  0  0  0  0
  4  5  1  0  0  0  0
  4 22  1  0  0  0  0
  5 10  1  0  0  0  0
  5  6  2  0  0  0  0
  6  7  1  0  0  0  0
  7  8  2  0  0  0  0
  7 33  1  0  0  0  0
  8  9  1  0  0  0  0
  9 13  1  0  0  0  0
  9 10  2  0  0  0  0
 10 11  1  0  0  0  0
 11 12  2  0  0  0  0
 12 13  1  0  0  0  0
 12 34  1  0  0  0  0
 13 14  1  0  0  0  0
 14 21  1  0  0  0  0
 14 15  1  0  0  0  0
 14 35  1  0  0  0  0
 15 16  1  0  0  0  0
 15 36  1  0  0  0  0
 15 37  1  0  0  0  0
 16 17  1  0  0  0  0
 16 19  1  0  0  0  0
 16 21  1  0  0  0  0
 17 18  1  0  0  0  0
 17 38  1  0  0  0  0
 17 39  1  0  0  0  0
 18 40  1  0  0  0  0
 19 20  1  0  0  0  0
 19 41  1  0  0  0  0
 19 42  1  0  0  0  0
 20 43  1  0  0  0  0
 21 44  1  0  0  0  0
 21 45  1  0  0  0  0
 22 23  1  0  0  0  0
 22 46  1  0  0  0  0
 22 47  1  0  0  0  0
 23 24  1  0  0  0  0
 23 48  1  0  0  0  0
 23 49  1  0  0  0  0
 24 25  2  0  0  0  0
 24 26  1  0  0  0  0
 26 50  1  0  0  0  0
 26 51  1  0  0  0  0
M  END
> <s_m_source_file>
AV-unprocessed.smi

> <i_m_source_file_index>
137

> <i_lp_mmshare_version>
43012

> <i_f3d_flags>
0

> <s_epik_input>
Tz1bU0BAXShbQ0gyXTEpW0NIMl1bQ0gyXU4oW0NIMl1bQ0BIXTFbQ0gzXSljKG5bY0hdbjIpYyhjMjMpbltjSF1uM1tDSF0oW0NIMl00KVtDSDJdQzQoW0NIMl1bT0hdKVtDSDJdW09IXQ==

> <s_epik_cmdline>
J2VwaWtfcHl0aG9uJywgJy1waCcsICc3LjAnLCAnLXRuJywgJzgnLCAnLW1hJywgJzIwMCcsICctbWV0YWxfYmluZGluZycsICctaW1hZScsICc8aW5maWxlLm1hZT4nLCAnLW9tYWUnLCAnPG91dGZpbGUubWFlPic=

> <r_lp_tautomer_probability>
1

> <r_epik_Ionization_Penalty>
0.000811024

> <r_epik_Ionization_Penalty_Charging>
0

> <r_epik_Ionization_Penalty_Neutral>
0.000811024

> <r_epik_State_Penalty>
0.000429598

> <r_epik_Charging_Adjusted_Penalty>
0.000429598

> <i_epik_Tot_Q>
0

> <i_epik_Tot_abs_Q>
0

> <r_epik_Metal_State_Penalty>
-0

> <b_epik_Metal_Only>
0

> <s_lp_Force_Field>
OPLS_2005

> <r_lp_Energy>
45.689

> <b_lp_Chiralities_Consistent>
1

> <s_lp_Variant>
AV-unprocessed.smi:137-3

> <Gold.Version>
5.8.1

> <Gold.Id.Protein>
6NUR|6NUR_protein|mol2

> <Gold.PLP.Fitness>
49.4200

> <Gold.PLP.PLP>
-41.4374

> <Gold.PLP.part.hbond>
-3.8744

> <Gold.PLP.part.metal>
0.0000

> <Gold.PLP.part.buried>
4.9104

> <Gold.PLP.part.nonpolar>
-42.8113

> <Gold.PLP.part.repulsive>
0.1057

> <Gold.PLP.ligand.clash>
0.0000

> <Gold.PLP.ligand.torsion>
0.7589

> <Gold.PLP.Chemscore.Hbond>
1.9913

> <Gold.PLP.Chemscore.CHOScore>
1.0000

> <Gold.PLP.Chemscore.Metal>
0.0000

> <Gold.Chemscore.Hbonds>
donor molecule, donor type, donor heavy atom, donor atom, acceptor molecule, acceptor atom, score
      L1  H    20    43       P1 10171  1.00
      P1  H  7954  7966       L1    20  0.41
      L1  C    12    34       P1  8028  1.00

> <Gold.PLP.Chemscore.Internal.Correction>
0.5266

> <Gold.Rescore>
     Score         DG    S(hbond)    S(metal)    S(lipo)     H(rot)  DE(clash)    DE(int)     intcor
     10.05     -13.44       1.00        0.00     102.28       2.87       0.69       2.70       ----

> <Gold.Chemscore.Fitness>
10.0507

> <Gold.Chemscore.DG>
-13.4412

> <Gold.Chemscore.ZeroCoef>
-5.4800

> <Gold.Chemscore.Hbond>
1.0023

> <Gold.Chemscore.Metal>
0.0000

> <Gold.Chemscore.Lipo>
102.2816

> <Gold.Chemscore.Internal_Hbond>
0.0000

> <Gold.Chemscore.DEClash>
0.6934

> <Gold.Chemscore.DEInternal>
2.6971

> <Gold.Chemscore.Rot>
2.8725

> <Gold.Chemscore.Internal.Correction>
   9.000000E+99

> <Gold.Chemscore.Hbonds>
donor molecule, donor type, donor heavy atom, donor atom, acceptor molecule, acceptor atom, score
      L1  H    20    43       P1 10171  1.00
      P1  H  7954  7966       L1    20  0.13

> <Gold.Chemscore.Hbond.Weighted>
-3.3478

> <Gold.Chemscore.Metal.Weighted>
-0.0000

> <Gold.Chemscore.Lipo.Weighted>
-11.9669

> <Gold.Chemscore.Internal_Hbond.Weighted>
0.0000

> <Gold.Chemscore.DEClash.Weighted>
0.6934

> <Gold.Chemscore.DEInternal.Weighted>
2.6971

> <Gold.Chemscore.Rot.Weighted>
7.3535

> <Gold.Chemscore.Internal.Correction.Weighted>
   9.000000E+99

> <Gold.Protein.RotatedTorsions>
[ 6907 6896 6895 6894 ] final -108.10 input  -60.11 | X-H torsion
[ 7974 7965 7964 7962 ] final   76.82 input  175.53 | X-H torsion
[ 8008 7997 7996 7995 ] final   63.41 input   59.86 | X-H torsion
[ 10167 10162 10161 10158 ] final    0.32 input  -65.29 | X-H torsion
[ 10718 10713 10712 10709 ] final   99.23 input   66.30 | X-H torsion
[ 10763 10752 10751 10750 ] final -145.42 input  -60.55 | X-H torsion
[ 11005 11000 10999 10996 ] final  177.59 input  -57.11 | X-H torsion

> <Gold.Protein.ActiveResidues>
 VAL166  LYS551  ARG553  GLY616  TRP617  ASP618  TYR619  PRO620  LYS621  CYS622 
 ASP623  PHE694  ASN695  SER759  ASP760  ASP761  ALA762  ILE779  LEU786  VAL792 
 PHE793  MET794  SER795  GLU796  ALA797  LYS798  CYS799  TRP800  GLU811  SER814 

> <Gold.Protein.RotatedAtoms>
  150.7482  133.9727  159.3550 H   0  0  0  0  0  0  0  0  0  0  0  0  # atno 6907 bound_to 6896
  151.7662  135.0796  160.0362 H   0  0  0  0  0  0  0  0  0  0  0  0  # atno 6908 bound_to 6896
  152.3370  133.5986  159.5885 H   0  0  0  0  0  0  0  0  0  0  0  0  # atno 6909 bound_to 6896
  145.6980  139.2573  143.1722 H   0  0  0  0  0  0  0  0  0  0  0  0  # atno 7974 bound_to 7965
  155.6298  140.3496  155.4679 H   0  0  0  0  0  0  0  0  0  0  0  0  # atno 8008 bound_to 7997
  156.0012  140.1213  157.0569 H   0  0  0  0  0  0  0  0  0  0  0  0  # atno 8009 bound_to 7997
  154.4249  140.1100  156.5686 H   0  0  0  0  0  0  0  0  0  0  0  0  # atno 8010 bound_to 7997
  140.6734  143.6985  150.7971 H   0  0  0  0  0  0  0  0  0  0  0  0  # atno 10167 bound_to 10162
  157.6880  131.0663  150.4917 H   0  0  0  0  0  0  0  0  0  0  0  0  # atno 10718 bound_to 10713
  154.8384  135.3414  154.6501 H   0  0  0  0  0  0  0  0  0  0  0  0  # atno 10763 bound_to 10752
  153.7114  135.6964  153.5041 H   0  0  0  0  0  0  0  0  0  0  0  0  # atno 10764 bound_to 10752
  153.2449  135.4372  155.0690 H   0  0  0  0  0  0  0  0  0  0  0  0  # atno 10765 bound_to 10752
  140.3858  134.6906  157.4478 H   0  0  0  0  0  0  0  0  0  0  0  0  # atno 11005 bound_to 11000
  146.0823  140.7750  142.9635 LP  0  0  0  0  0  0  0  0  0  0  0  0  # atno 17320 bound_to 7965
  144.6977  140.3508  143.7182 LP  0  0  0  0  0  0  0  0  0  0  0  0  # atno 17321 bound_to 7965
  140.0674  143.5095  152.2597 LP  0  0  0  0  0  0  0  0  0  0  0  0  # atno 17342 bound_to 10162
  139.6013  144.7583  151.3164 LP  0  0  0  0  0  0  0  0  0  0  0  0  # atno 17343 bound_to 10162
  156.5244  130.4169  149.6234 LP  0  0  0  0  0  0  0  0  0  0  0  0  # atno 17370 bound_to 10713
  156.3126  130.7237  151.2133 LP  0  0  0  0  0  0  0  0  0  0  0  0  # atno 17371 bound_to 10713
  140.0444  134.6221  155.8940 LP  0  0  0  0  0  0  0  0  0  0  0  0  # atno 17394 bound_to 11000
  141.1908  133.6569  156.5427 LP  0  0  0  0  0  0  0  0  0  0  0  0  # atno 17395 bound_to 11000

$$$$
