AV-unprocessed.smi:2032|AV-procd|sdf|8244|dock10
  -GOLD-   2272010513D 1   1.00000     0.00000
 Structure written by MMmdl.
 43 44  0  0  0  0  0  0  0  0  2 V2000
  151.6313  137.7795  155.6906 C   0  0  0  0  0  0  0  0  0  0  0  0
  151.2424  138.7971  154.6023 C   0  0  1  0  0  0  0  0  0  0  0  0
  149.7992  138.6309  154.0884 C   0  0  0  0  0  0  0  0  0  0  0  0
  148.7877  139.1131  155.0715 N   0  3  2  0  0  0  0  0  0  0  0  0
  147.3679  138.9373  154.6095 C   0  0  1  0  0  0  0  0  0  0  0  0
  147.1940  139.3568  153.1283 C   0  0  0  0  0  0  0  0  0  0  0  0
  146.8552  137.4864  154.8335 C   0  0  0  0  0  0  0  0  0  0  0  0
  146.9037  136.6596  153.6292 N   0  0  0  0  0  0  0  0  0  0  0  0
  145.9650  135.7776  153.2538 C   0  0  0  0  0  0  0  0  0  0  0  0
  144.9505  135.5457  153.9120 O   0  0  0  0  0  0  0  0  0  0  0  0
  146.2867  135.1911  152.0876 N   0  0  0  0  0  0  0  0  0  0  0  0
  145.5608  134.2020  151.3733 C   0  0  0  0  0  0  0  0  0  0  0  0
  144.2255  134.1206  151.3422 N   0  0  0  0  0  0  0  0  0  0  0  0
  143.7838  133.0507  150.5596 C   0  0  0  0  0  0  0  0  0  0  0  0
  144.8037  132.3218  150.0003 C   0  0  0  0  0  0  0  0  0  0  0  0
  146.3688  132.9546  150.4352 S   0  0  0  0  0  0  0  0  0  0  0  0
  149.1241  140.5047  155.4824 C   0  0  0  0  0  0  0  0  0  0  0  0
  150.5698  140.6130  155.9999 C   0  0  2  0  0  0  0  0  0  0  0  0
  150.9518  142.0603  156.3310 C   0  0  0  0  0  0  0  0  0  0  0  0
  151.4708  140.1429  155.0065 O   0  0  0  0  0  0  0  0  0  0  0  0
  151.5899  136.7623  155.3005 H   0  0  0  0  0  0  0  0  0  0  0  0
  150.9680  137.8200  156.5540 H   0  0  0  0  0  0  0  0  0  0  0  0
  152.6488  137.9554  156.0408 H   0  0  0  0  0  0  0  0  0  0  0  0
  151.9127  138.6227  153.7601 H   0  0  0  0  0  0  0  0  0  0  0  0
  149.6772  139.1851  153.1566 H   0  0  0  0  0  0  0  0  0  0  0  0
  149.6605  137.5780  153.8523 H   0  0  0  0  0  0  0  0  0  0  0  0
  146.7452  139.6005  155.2125 H   0  0  0  0  0  0  0  0  0  0  0  0
  146.1805  139.1871  152.7682 H   0  0  0  0  0  0  0  0  0  0  0  0
  147.8701  138.8016  152.4773 H   0  0  0  0  0  0  0  0  0  0  0  0
  147.3646  140.4205  152.9717 H   0  0  0  0  0  0  0  0  0  0  0  0
  147.3966  137.0180  155.6572 H   0  0  0  0  0  0  0  0  0  0  0  0
  145.8038  137.4844  155.1148 H   0  0  0  0  0  0  0  0  0  0  0  0
  147.7058  136.7809  153.0278 H   0  0  0  0  0  0  0  0  0  0  0  0
  147.1528  135.4839  151.6601 H   0  0  0  0  0  0  0  0  0  0  0  0
  142.7225  132.8802  150.4545 H   0  0  0  0  0  0  0  0  0  0  0  0
  144.7292  131.4546  149.3612 H   0  0  0  0  0  0  0  0  0  0  0  0
  148.9694  141.1796  154.6388 H   0  0  0  0  0  0  0  0  0  0  0  0
  148.4793  140.8421  156.2912 H   0  0  0  0  0  0  0  0  0  0  0  0
  150.6792  140.0224  156.9096 H   0  0  0  0  0  0  0  0  0  0  0  0
  150.3012  142.4718  157.1030 H   0  0  0  0  0  0  0  0  0  0  0  0
  150.8745  142.7012  155.4520 H   0  0  0  0  0  0  0  0  0  0  0  0
  151.9773  142.1194  156.6962 H   0  0  0  0  0  0  0  0  0  0  0  0
  148.8929  138.5386  155.8959 H   0  0  0  0  0  0  0  0  0  0  0  0
  1  2  1  0  0  0  0
  1 21  1  0  0  0  0
  1 22  1  0  0  0  0
  1 23  1  0  0  0  0
  2 20  1  0  0  0  0
  2  3  1  0  0  0  0
  2 24  1  0  0  0  0
  3  4  1  0  0  0  0
  3 25  1  0  0  0  0
  3 26  1  0  0  0  0
  4  5  1  0  0  0  0
  4 17  1  0  0  0  0
  4 43  1  0  0  0  0
  5  6  1  0  0  0  0
  5  7  1  0  0  0  0
  5 27  1  0  0  0  0
  6 28  1  0  0  0  0
  6 29  1  0  0  0  0
  6 30  1  0  0  0  0
  7  8  1  0  0  0  0
  7 31  1  0  0  0  0
  7 32  1  0  0  0  0
  8  9  1  0  0  0  0
  8 33  1  0  0  0  0
  9 10  2  0  0  0  0
  9 11  1  0  0  0  0
 11 12  1  0  0  0  0
 11 34  1  0  0  0  0
 12 16  1  0  0  0  0
 12 13  2  0  0  0  0
 13 14  1  0  0  0  0
 14 15  2  0  0  0  0
 14 35  1  0  0  0  0
 15 16  1  0  0  0  0
 15 36  1  0  0  0  0
 17 18  1  0  0  0  0
 17 37  1  0  0  0  0
 17 38  1  0  0  0  0
 18 19  1  0  0  0  0
 18 20  1  0  0  0  0
 18 39  1  0  0  0  0
 19 40  1  0  0  0  0
 19 41  1  0  0  0  0
 19 42  1  0  0  0  0
M  CHG  1   4   1
M  END
> <s_m_source_file>
AV-unprocessed.smi

> <i_m_source_file_index>
2032

> <i_lp_mmshare_version>
43012

> <i_f3d_flags>
0

> <s_epik_input>
W0NIM11bQ0BASF0xW0NIMl1OKFtDSDJdW0NASF0oTzEpW0NIM10pW0NASF0oW0NIM10pW0NIMl1bTkhdQyg9TylbTkhdYzJuW2NIXVtjSF1zMg==

> <s_epik_cmdline>
J2VwaWtfcHl0aG9uJywgJy1waCcsICc3LjAnLCAnLXRuJywgJzgnLCAnLW1hJywgJzIwMCcsICctbWV0YWxfYmluZGluZycsICctaW1hZScsICc8aW5maWxlLm1hZT4nLCAnLW9tYWUnLCAnPG91dGZpbGUubWFlPic=

> <r_lp_tautomer_probability>
0.999

> <r_epik_Ionization_Penalty>
0.695838

> <r_epik_Ionization_Penalty_Charging>
0.695697

> <r_epik_Ionization_Penalty_Neutral>
0.000141198

> <r_epik_State_Penalty>
0.717972

> <r_epik_Charging_Adjusted_Penalty>
1.41367

> <i_epik_Tot_Q>
1

> <i_epik_Tot_abs_Q>
1

> <r_epik_Metal_State_Penalty>
0.756405

> <b_epik_Metal_Only>
0

> <s_lp_Force_Field>
OPLS_2005

> <r_lp_Energy>
22.0252

> <b_lp_Chiralities_Consistent>
1

> <s_lp_Variant>
AV-unprocessed.smi:2032-14

> <Gold.Version>
5.8.1

> <Gold.Id.Protein>
6NUR|6NUR_protein|mol2

> <Gold.PLP.Fitness>
40.8734

> <Gold.PLP.PLP>
-31.4712

> <Gold.PLP.part.hbond>
-3.0000

> <Gold.PLP.part.metal>
0.0000

> <Gold.PLP.part.buried>
-4.8678

> <Gold.PLP.part.nonpolar>
-24.5781

> <Gold.PLP.part.repulsive>
0.2827

> <Gold.PLP.ligand.clash>
0.0000

> <Gold.PLP.ligand.torsion>
1.3121

> <Gold.PLP.Chemscore.Hbond>
3.0000

> <Gold.PLP.Chemscore.CHOScore>
0.9937

> <Gold.PLP.Chemscore.Metal>
0.0000

> <Gold.Chemscore.Hbonds>
donor molecule, donor type, donor heavy atom, donor atom, acceptor molecule, acceptor atom, score
      L1  H     8    33       P1  7948  1.00
      L1  H    11    34       P1  7948  1.00
      P1  H  7989  7998       L1    20  1.00
      L1  C    14    35       P1 10186  0.97

> <Gold.PLP.Chemscore.Internal.Correction>
0.0452

> <Gold.Rescore>
     Score         DG    S(hbond)    S(metal)    S(lipo)     H(rot)  DE(clash)    DE(int)     intcor
     18.03     -19.32       2.66        0.00      77.71       1.61       0.04       1.25       ----

> <Gold.Chemscore.Fitness>
18.0285

> <Gold.Chemscore.DG>
-19.3227

> <Gold.Chemscore.ZeroCoef>
-5.4800

> <Gold.Chemscore.Hbond>
2.6571

> <Gold.Chemscore.Metal>
0.0000

> <Gold.Chemscore.Lipo>
77.7104

> <Gold.Chemscore.Internal_Hbond>
0.0000

> <Gold.Chemscore.DEClash>
0.0446

> <Gold.Chemscore.DEInternal>
1.2496

> <Gold.Chemscore.Rot>
1.6110

> <Gold.Chemscore.Internal.Correction>
   9.000000E+99

> <Gold.Chemscore.Hbonds>
donor molecule, donor type, donor heavy atom, donor atom, acceptor molecule, acceptor atom, score
      L1  H     8    33       P1  7948  0.98
      L1  H    11    34       P1  7948  0.94
      P1  H  7989  7998       L1    20  0.25

> <Gold.Chemscore.Hbond.Weighted>
-8.8748

> <Gold.Chemscore.Metal.Weighted>
-0.0000

> <Gold.Chemscore.Lipo.Weighted>
-9.0921

> <Gold.Chemscore.Internal_Hbond.Weighted>
0.0000

> <Gold.Chemscore.DEClash.Weighted>
0.0446

> <Gold.Chemscore.DEInternal.Weighted>
1.2496

> <Gold.Chemscore.Rot.Weighted>
4.1242

> <Gold.Chemscore.Internal.Correction.Weighted>
   9.000000E+99

> <Gold.Protein.RotatedTorsions>
[ 6907 6896 6895 6894 ] final  105.70 input  -60.11 | X-H torsion
[ 7974 7965 7964 7962 ] final -154.89 input  175.53 | X-H torsion
[ 8008 7997 7996 7995 ] final  118.19 input   59.86 | X-H torsion
[ 10167 10162 10161 10158 ] final   66.18 input  -65.29 | X-H torsion
[ 10718 10713 10712 10709 ] final   31.68 input   66.30 | X-H torsion
[ 10763 10752 10751 10750 ] final   50.47 input  -60.55 | X-H torsion
[ 11005 11000 10999 10996 ] final  -22.30 input  -57.11 | X-H torsion

> <Gold.Protein.ActiveResidues>
 VAL166  LYS551  ARG553  GLY616  TRP617  ASP618  TYR619  PRO620  LYS621  CYS622 
 ASP623  PHE694  ASN695  SER759  ASP760  ASP761  ALA762  ILE779  LEU786  VAL792 
 PHE793  MET794  SER795  GLU796  ALA797  LYS798  CYS799  TRP800  GLU811  SER814 

> <Gold.Protein.RotatedAtoms>
  152.5221  133.9490  159.7662 H   0  0  0  0  0  0  0  0  0  0  0  0  # atno 6907 bound_to 6896
  150.9804  133.6243  159.2730 H   0  0  0  0  0  0  0  0  0  0  0  0  # atno 6908 bound_to 6896
  151.3423  135.0872  159.9428 H   0  0  0  0  0  0  0  0  0  0  0  0  # atno 6909 bound_to 6896
  144.7667  140.4325  143.5937 H   0  0  0  0  0  0  0  0  0  0  0  0  # atno 7974 bound_to 7965
  156.2534  140.2880  156.0796 H   0  0  0  0  0  0  0  0  0  0  0  0  # atno 8008 bound_to 7997
  155.1581  140.0399  157.2853 H   0  0  0  0  0  0  0  0  0  0  0  0  # atno 8009 bound_to 7997
  154.6413  140.2523  155.7326 H   0  0  0  0  0  0  0  0  0  0  0  0  # atno 8010 bound_to 7997
  140.1032  144.4885  150.7024 H   0  0  0  0  0  0  0  0  0  0  0  0  # atno 10167 bound_to 10162
  157.2756  130.7229  149.6528 H   0  0  0  0  0  0  0  0  0  0  0  0  # atno 10718 bound_to 10713
  152.9784  135.5878  154.4257 H   0  0  0  0  0  0  0  0  0  0  0  0  # atno 10763 bound_to 10752
  154.3876  135.2767  155.2176 H   0  0  0  0  0  0  0  0  0  0  0  0  # atno 10764 bound_to 10752
  154.4062  135.6092  153.5980 H   0  0  0  0  0  0  0  0  0  0  0  0  # atno 10765 bound_to 10752
  140.8644  133.7765  156.0112 H   0  0  0  0  0  0  0  0  0  0  0  0  # atno 11005 bound_to 11000
  145.6449  139.1555  143.2895 LP  0  0  0  0  0  0  0  0  0  0  0  0  # atno 17320 bound_to 7965
  146.1780  140.6542  142.9202 LP  0  0  0  0  0  0  0  0  0  0  0  0  # atno 17321 bound_to 7965
  140.6966  143.2408  151.4982 LP  0  0  0  0  0  0  0  0  0  0  0  0  # atno 17342 bound_to 10162
  139.5660  144.2042  152.1765 LP  0  0  0  0  0  0  0  0  0  0  0  0  # atno 17343 bound_to 10162
  155.9663  130.4354  150.5090 LP  0  0  0  0  0  0  0  0  0  0  0  0  # atno 17370 bound_to 10713
  157.3023  131.0647  151.2059 LP  0  0  0  0  0  0  0  0  0  0  0  0  # atno 17371 bound_to 10713
  140.8646  134.2799  157.5219 LP  0  0  0  0  0  0  0  0  0  0  0  0  # atno 17394 bound_to 11000
  139.8708  134.9536  156.4150 LP  0  0  0  0  0  0  0  0  0  0  0  0  # atno 17395 bound_to 11000

$$$$
