AV-unprocessed.smi:2473|AV-procd|sdf|9750|dock4
  -GOLD-   2272013393D 1   1.00000     0.00000
 Structure written by MMmdl.
 47 48  0  0  0  0  0  0  0  0  1 V2000
  147.9238  139.9600  153.8165 C   0  0  0  0  0  0  0  0  0  0  0  0
  149.0791  139.3670  154.6356 C   0  0  1  0  0  0  0  0  0  0  0  0
  150.1374  138.7279  153.7146 C   0  0  0  0  0  0  0  0  0  0  0  0
  151.3514  138.1500  154.4757 C   0  0  2  0  0  0  0  0  0  0  0  0
  151.1048  136.7563  155.0821 C   0  0  0  0  0  0  0  0  0  0  0  0
  151.8002  136.3297  156.0039 O   0  0  0  0  0  0  0  0  0  0  0  0
  150.0561  136.0785  154.5881 N   0  0  0  0  0  0  0  0  0  0  0  0
  149.5774  134.7839  155.0662 C   0  0  0  0  0  0  0  0  0  0  0  0
  148.0386  134.6991  155.1030 C   0  0  0  0  0  0  0  0  0  0  0  0
  147.4231  134.2131  153.8236 C   0  0  0  0  0  0  0  0  0  0  0  0
  146.4357  134.8497  153.2010 N   0  0  0  0  0  0  0  0  0  0  0  0
  146.1902  134.0961  152.0588 C   0  0  0  0  0  0  0  0  0  0  0  0
  147.0413  133.0182  152.0326 C   0  0  0  0  0  0  0  0  0  0  0  0
  147.8281  133.1033  153.1736 N   0  0  0  0  0  0  0  0  0  0  0  0
  148.8688  132.1682  153.5560 C   0  0  0  0  0  0  0  0  0  0  0  0
  151.9295  139.1751  155.4831 C   0  0  0  0  0  0  0  0  0  0  0  0
  150.9038  139.9050  156.3934 C   0  0  0  0  0  0  0  0  0  0  0  0
  150.3951  139.0028  157.5392 C   0  0  0  0  0  0  0  0  0  0  0  0
  151.6124  141.1079  157.0492 C   0  0  0  0  0  0  0  0  0  0  0  0
  149.7271  140.4355  155.5383 C   0  0  0  0  0  0  0  0  0  0  0  0
  148.2716  140.7547  153.1556 H   0  0  0  0  0  0  0  0  0  0  0  0
  147.1560  140.3799  154.4666 H   0  0  0  0  0  0  0  0  0  0  0  0
  147.4500  139.1969  153.1985 H   0  0  0  0  0  0  0  0  0  0  0  0
  148.6459  138.5938  155.2687 H   0  0  0  0  0  0  0  0  0  0  0  0
  149.6758  137.9514  153.1022 H   0  0  0  0  0  0  0  0  0  0  0  0
  150.4961  139.4804  153.0111 H   0  0  0  0  0  0  0  0  0  0  0  0
  152.1236  137.9853  153.7221 H   0  0  0  0  0  0  0  0  0  0  0  0
  149.5321  136.5058  153.8383 H   0  0  0  0  0  0  0  0  0  0  0  0
  149.9640  134.0187  154.3933 H   0  0  0  0  0  0  0  0  0  0  0  0
  149.9913  134.5586  156.0504 H   0  0  0  0  0  0  0  0  0  0  0  0
  147.7203  134.0653  155.9306 H   0  0  0  0  0  0  0  0  0  0  0  0
  147.6325  135.6884  155.3162 H   0  0  0  0  0  0  0  0  0  0  0  0
  145.4275  134.3853  151.3512 H   0  0  0  0  0  0  0  0  0  0  0  0
  147.1497  132.2194  151.3139 H   0  0  0  0  0  0  0  0  0  0  0  0
  149.0143  131.4264  152.7702 H   0  0  0  0  0  0  0  0  0  0  0  0
  148.5841  131.6567  154.4755 H   0  0  0  0  0  0  0  0  0  0  0  0
  149.8081  132.6969  153.7141 H   0  0  0  0  0  0  0  0  0  0  0  0
  152.6998  138.7064  156.0974 H   0  0  0  0  0  0  0  0  0  0  0  0
  152.4597  139.9260  154.8954 H   0  0  0  0  0  0  0  0  0  0  0  0
  149.7625  139.5633  158.2283 H   0  0  0  0  0  0  0  0  0  0  0  0
  151.2235  138.5946  158.1189 H   0  0  0  0  0  0  0  0  0  0  0  0
  149.8004  138.1638  157.1883 H   0  0  0  0  0  0  0  0  0  0  0  0
  150.9342  141.6667  157.6952 H   0  0  0  0  0  0  0  0  0  0  0  0
  151.9960  141.8051  156.3034 H   0  0  0  0  0  0  0  0  0  0  0  0
  152.4567  140.7868  157.6600 H   0  0  0  0  0  0  0  0  0  0  0  0
  150.0832  141.2494  154.9047 H   0  0  0  0  0  0  0  0  0  0  0  0
  148.9696  140.8754  156.1883 H   0  0  0  0  0  0  0  0  0  0  0  0
  1  2  1  0  0  0  0
  1 21  1  0  0  0  0
  1 22  1  0  0  0  0
  1 23  1  0  0  0  0
  2 20  1  0  0  0  0
  2  3  1  0  0  0  0
  2 24  1  0  0  0  0
  3  4  1  0  0  0  0
  3 25  1  0  0  0  0
  3 26  1  0  0  0  0
  4  5  1  0  0  0  0
  4 16  1  0  0  0  0
  4 27  1  0  0  0  0
  5  6  2  0  0  0  0
  5  7  1  0  0  0  0
  7  8  1  0  0  0  0
  7 28  1  0  0  0  0
  8  9  1  0  0  0  0
  8 29  1  0  0  0  0
  8 30  1  0  0  0  0
  9 10  1  0  0  0  0
  9 31  1  0  0  0  0
  9 32  1  0  0  0  0
 10 14  1  0  0  0  0
 10 11  2  0  0  0  0
 11 12  1  0  0  0  0
 12 13  2  0  0  0  0
 12 33  1  0  0  0  0
 13 14  1  0  0  0  0
 13 34  1  0  0  0  0
 14 15  1  0  0  0  0
 15 35  1  0  0  0  0
 15 36  1  0  0  0  0
 15 37  1  0  0  0  0
 16 17  1  0  0  0  0
 16 38  1  0  0  0  0
 16 39  1  0  0  0  0
 17 18  1  0  0  0  0
 17 19  1  0  0  0  0
 17 20  1  0  0  0  0
 18 40  1  0  0  0  0
 18 41  1  0  0  0  0
 18 42  1  0  0  0  0
 19 43  1  0  0  0  0
 19 44  1  0  0  0  0
 19 45  1  0  0  0  0
 20 46  1  0  0  0  0
 20 47  1  0  0  0  0
M  END
> <s_m_source_file>
AV-unprocessed.smi

> <i_m_source_file_index>
2473

> <i_lp_mmshare_version>
43012

> <i_f3d_flags>
0

> <s_epik_input>
W0NIM11bQ0BASF0oW0NIMl0xKVtDSDJdW0NASF0oW0NIMl1DMShbQ0gzXSlbQ0gzXSlDKD1PKVtOSF1bQ0gyXVtDSDJdYzJuW2NIXVtjSF1uMltDSDNd

> <s_epik_cmdline>
J2VwaWtfcHl0aG9uJywgJy1waCcsICc3LjAnLCAnLXRuJywgJzgnLCAnLW1hJywgJzIwMCcsICctbWV0YWxfYmluZGluZycsICctaW1hZScsICc8aW5maWxlLm1hZT4nLCAnLW9tYWUnLCAnPG91dGZpbGUubWFlPic=

> <r_lp_tautomer_probability>
1

> <r_epik_Ionization_Penalty>
1.22858

> <r_epik_Ionization_Penalty_Charging>
1.22858

> <r_epik_Ionization_Penalty_Neutral>
2.12671e-08

> <r_epik_State_Penalty>
1.2965

> <r_epik_Charging_Adjusted_Penalty>
2.52508

> <i_epik_Tot_Q>
0

> <i_epik_Tot_abs_Q>
0

> <r_epik_Metal_State_Penalty>
0.411461

> <b_epik_Metal_Only>
0

> <s_lp_Force_Field>
OPLS_2005

> <r_lp_Energy>
14.2462

> <b_lp_Chiralities_Consistent>
1

> <s_lp_Variant>
AV-unprocessed.smi:2473-8

> <Gold.Version>
5.8.1

> <Gold.Id.Protein>
6NUR|6NUR_protein|mol2

> <Gold.PLP.Fitness>
38.9573

> <Gold.PLP.PLP>
-32.3969

> <Gold.PLP.part.hbond>
-2.2643

> <Gold.PLP.part.metal>
0.0000

> <Gold.PLP.part.buried>
-0.2398

> <Gold.PLP.part.nonpolar>
-29.9274

> <Gold.PLP.part.repulsive>
0.3225

> <Gold.PLP.ligand.clash>
0.0000

> <Gold.PLP.ligand.torsion>
1.0375

> <Gold.PLP.Chemscore.Hbond>
1.8406

> <Gold.PLP.Chemscore.CHOScore>
1.0000

> <Gold.PLP.Chemscore.Metal>
0.0000

> <Gold.Chemscore.Hbonds>
donor molecule, donor type, donor heavy atom, donor atom, acceptor molecule, acceptor atom, score
      L1  H     7    28       P1  7948  0.80
      P1  H 10752 10765       L1     6  1.00
      L1  C    13    34       P1 10747  1.00

> <Gold.PLP.Chemscore.Internal.Correction>
0.1138

> <Gold.Rescore>
     Score         DG    S(hbond)    S(metal)    S(lipo)     H(rot)  DE(clash)    DE(int)     intcor
     14.28     -15.91       1.53        0.00      78.56       1.51       0.68       0.95       ----

> <Gold.Chemscore.Fitness>
14.2800

> <Gold.Chemscore.DG>
-15.9141

> <Gold.Chemscore.ZeroCoef>
-5.4800

> <Gold.Chemscore.Hbond>
1.5301

> <Gold.Chemscore.Metal>
0.0000

> <Gold.Chemscore.Lipo>
78.5615

> <Gold.Chemscore.Internal_Hbond>
0.0000

> <Gold.Chemscore.DEClash>
0.6829

> <Gold.Chemscore.DEInternal>
0.9512

> <Gold.Chemscore.Rot>
1.5109

> <Gold.Chemscore.Internal.Correction>
   9.000000E+99

> <Gold.Chemscore.Hbonds>
donor molecule, donor type, donor heavy atom, donor atom, acceptor molecule, acceptor atom, score
      L1  H     7    28       P1  7948  0.59
      P1  H 10752 10765       L1     6  0.49

> <Gold.Chemscore.Hbond.Weighted>
-5.1104

> <Gold.Chemscore.Metal.Weighted>
-0.0000

> <Gold.Chemscore.Lipo.Weighted>
-9.1917

> <Gold.Chemscore.Internal_Hbond.Weighted>
0.0000

> <Gold.Chemscore.DEClash.Weighted>
0.6829

> <Gold.Chemscore.DEInternal.Weighted>
0.9512

> <Gold.Chemscore.Rot.Weighted>
3.8680

> <Gold.Chemscore.Internal.Correction.Weighted>
   9.000000E+99

> <Gold.Protein.RotatedTorsions>
[ 6907 6896 6895 6894 ] final -175.07 input  -60.11 | X-H torsion
[ 7974 7965 7964 7962 ] final  -43.00 input  175.53 | X-H torsion
[ 8008 7997 7996 7995 ] final    1.60 input   59.86 | X-H torsion
[ 10167 10162 10161 10158 ] final  -79.88 input  -65.29 | X-H torsion
[ 10718 10713 10712 10709 ] final  -10.37 input   66.30 | X-H torsion
[ 10763 10752 10751 10750 ] final -139.91 input  -60.55 | X-H torsion
[ 11005 11000 10999 10996 ] final  -32.09 input  -57.11 | X-H torsion

> <Gold.Protein.ActiveResidues>
 VAL166  LYS551  ARG553  GLY616  TRP617  ASP618  TYR619  PRO620  LYS621  CYS622 
 ASP623  PHE694  ASN695  SER759  ASP760  ASP761  ALA762  ILE779  LEU786  VAL792 
 PHE793  MET794  SER795  GLU796  ALA797  LYS798  CYS799  TRP800  GLU811  SER814 

> <Gold.Protein.RotatedAtoms>
  151.5827  133.3376  159.3011 H   0  0  0  0  0  0  0  0  0  0  0  0  # atno 6907 bound_to 6896
  150.8304  134.7558  159.6860 H   0  0  0  0  0  0  0  0  0  0  0  0  # atno 6908 bound_to 6896
  152.4388  134.5638  159.9953 H   0  0  0  0  0  0  0  0  0  0  0  0  # atno 6909 bound_to 6896
  146.0061  140.7018  142.9247 H   0  0  0  0  0  0  0  0  0  0  0  0  # atno 7974 bound_to 7965
  154.6816  140.2634  155.6902 H   0  0  0  0  0  0  0  0  0  0  0  0  # atno 8008 bound_to 7997
  156.2699  140.2809  156.1285 H   0  0  0  0  0  0  0  0  0  0  0  0  # atno 8009 bound_to 7997
  155.1023  140.0374  157.2690 H   0  0  0  0  0  0  0  0  0  0  0  0  # atno 8010 bound_to 7997
  140.4554  143.2470  151.8428 H   0  0  0  0  0  0  0  0  0  0  0  0  # atno 10167 bound_to 10162
  156.6745  130.5019  149.5990 H   0  0  0  0  0  0  0  0  0  0  0  0  # atno 10718 bound_to 10713
  154.8595  135.3568  154.5623 H   0  0  0  0  0  0  0  0  0  0  0  0  # atno 10763 bound_to 10752
  153.6238  135.7005  153.5305 H   0  0  0  0  0  0  0  0  0  0  0  0  # atno 10764 bound_to 10752
  153.3106  135.4179  155.1293 H   0  0  0  0  0  0  0  0  0  0  0  0  # atno 10765 bound_to 10752
  140.9523  133.7213  156.1240 H   0  0  0  0  0  0  0  0  0  0  0  0  # atno 11005 bound_to 11000
  144.6936  140.3317  143.7215 LP  0  0  0  0  0  0  0  0  0  0  0  0  # atno 17320 bound_to 7965
  145.7413  139.1765  143.2374 LP  0  0  0  0  0  0  0  0  0  0  0  0  # atno 17321 bound_to 7965
  139.4800  144.5071  151.8982 LP  0  0  0  0  0  0  0  0  0  0  0  0  # atno 17342 bound_to 10162
  140.4158  144.2309  150.5888 LP  0  0  0  0  0  0  0  0  0  0  0  0  # atno 17343 bound_to 10162
  156.1913  130.6562  151.1065 LP  0  0  0  0  0  0  0  0  0  0  0  0  # atno 17370 bound_to 10713
  157.7065  131.0754  150.6648 LP  0  0  0  0  0  0  0  0  0  0  0  0  # atno 17371 bound_to 10713
  140.7585  134.3966  157.5530 LP  0  0  0  0  0  0  0  0  0  0  0  0  # atno 17394 bound_to 11000
  139.8851  134.8946  156.2661 LP  0  0  0  0  0  0  0  0  0  0  0  0  # atno 17395 bound_to 11000

$$$$
