AV-unprocessed.smi:3255|AV-procd|sdf|12461|dock1
  -GOLD-   2272018353D 1   1.00000     0.00000
 Structure written by MMmdl.
 38 39  0  0  0  0  0  0  0  0  1 V2000
  148.2636  139.5232  155.4263 C   0  0  0  0  0  0  0  0  0  0  0  0
  148.8836  139.3154  154.0360 C   0  0  2  0  0  0  0  0  0  0  0  0
  148.1664  138.2351  153.3633 N   0  0  0  0  0  0  0  0  0  0  0  0
  146.8336  138.1360  153.2625 C   0  0  0  0  0  0  0  0  0  0  0  0
  146.0398  138.9216  153.7806 O   0  0  0  0  0  0  0  0  0  0  0  0
  146.4705  137.0949  152.5003 N   0  0  0  0  0  0  0  0  0  0  0  0
  145.0990  136.7762  152.1139 C   0  0  0  0  0  0  0  0  0  0  0  0
  145.0353  136.0731  150.7447 C   0  0  0  0  0  0  0  0  0  0  0  0
  145.2761  134.6447  150.8355 N   0  0  0  0  0  0  0  0  0  0  0  0
  146.4486  134.0146  151.2325 C   0  0  0  0  0  0  0  0  0  0  0  0
  146.2133  132.6608  151.1527 C   0  0  0  0  0  0  0  0  0  0  0  0
  144.9093  132.4359  150.7184 N   0  0  0  0  0  0  0  0  0  0  0  0
  144.4167  133.6566  150.5515 C   0  0  0  0  0  0  0  0  0  0  0  0
  150.3881  138.9774  154.1114 C   0  0  2  0  0  0  0  0  0  0  0  0
  150.7282  137.7588  154.9704 C   0  0  0  0  0  0  0  0  0  0  0  0
  152.1709  138.0028  155.3847 C   0  0  0  0  0  0  0  0  0  0  0  0
  152.3956  139.4898  155.0973 C   0  0  0  0  0  0  0  0  0  0  0  0
  151.1116  140.0034  154.7744 O   0  0  0  0  0  0  0  0  0  0  0  0
  148.7233  140.3650  155.9443 H   0  0  0  0  0  0  0  0  0  0  0  0
  148.3868  138.6391  156.0529 H   0  0  0  0  0  0  0  0  0  0  0  0
  147.1959  139.7328  155.3518 H   0  0  0  0  0  0  0  0  0  0  0  0
  148.7564  140.2430  153.4748 H   0  0  0  0  0  0  0  0  0  0  0  0
  148.7299  137.5373  152.9003 H   0  0  0  0  0  0  0  0  0  0  0  0
  147.1983  136.5067  152.1221 H   0  0  0  0  0  0  0  0  0  0  0  0
  144.6909  136.1122  152.8762 H   0  0  0  0  0  0  0  0  0  0  0  0
  144.4692  137.6674  152.1202 H   0  0  0  0  0  0  0  0  0  0  0  0
  144.0657  136.2391  150.2732 H   0  0  0  0  0  0  0  0  0  0  0  0
  145.7842  136.4990  150.0760 H   0  0  0  0  0  0  0  0  0  0  0  0
  147.3319  134.5651  151.5207 H   0  0  0  0  0  0  0  0  0  0  0  0
  146.8781  131.8384  151.3716 H   0  0  0  0  0  0  0  0  0  0  0  0
  143.4078  133.8366  150.2104 H   0  0  0  0  0  0  0  0  0  0  0  0
  150.8006  138.8502  153.1084 H   0  0  0  0  0  0  0  0  0  0  0  0
  150.0938  137.7354  155.8575 H   0  0  0  0  0  0  0  0  0  0  0  0
  150.5962  136.8169  154.4373 H   0  0  0  0  0  0  0  0  0  0  0  0
  152.3199  137.7661  156.4388 H   0  0  0  0  0  0  0  0  0  0  0  0
  152.8612  137.3919  154.8020 H   0  0  0  0  0  0  0  0  0  0  0  0
  152.8254  140.0213  155.9465 H   0  0  0  0  0  0  0  0  0  0  0  0
  153.0600  139.6208  154.2420 H   0  0  0  0  0  0  0  0  0  0  0  0
  1  2  1  0  0  0  0
  1 19  1  0  0  0  0
  1 20  1  0  0  0  0
  1 21  1  0  0  0  0
  2  3  1  0  0  0  0
  2 14  1  0  0  0  0
  2 22  1  0  0  0  0
  3  4  1  0  0  0  0
  3 23  1  0  0  0  0
  4  5  2  0  0  0  0
  4  6  1  0  0  0  0
  6  7  1  0  0  0  0
  6 24  1  0  0  0  0
  7  8  1  0  0  0  0
  7 25  1  0  0  0  0
  7 26  1  0  0  0  0
  8  9  1  0  0  0  0
  8 27  1  0  0  0  0
  8 28  1  0  0  0  0
  9 13  1  0  0  0  0
  9 10  1  0  0  0  0
 10 11  2  0  0  0  0
 10 29  1  0  0  0  0
 11 12  1  0  0  0  0
 11 30  1  0  0  0  0
 12 13  2  0  0  0  0
 13 31  1  0  0  0  0
 14 18  1  0  0  0  0
 14 15  1  0  0  0  0
 14 32  1  0  0  0  0
 15 16  1  0  0  0  0
 15 33  1  0  0  0  0
 15 34  1  0  0  0  0
 16 17  1  0  0  0  0
 16 35  1  0  0  0  0
 16 36  1  0  0  0  0
 17 18  1  0  0  0  0
 17 37  1  0  0  0  0
 17 38  1  0  0  0  0
M  END
> <s_m_source_file>
AV-unprocessed.smi

> <i_m_source_file_index>
3255

> <i_lp_mmshare_version>
43012

> <i_f3d_flags>
0

> <s_epik_input>
TzFbQ0gyXVtDSDJdW0NIMl1bQ0BIXTFbQ0BIXShbQ0gzXSlbTkhdQyg9TylbTkhdW0NIMl1bQ0gyXW4yW2NIXVtjSF1uW2NIXTI=

> <s_epik_cmdline>
J2VwaWtfcHl0aG9uJywgJy1waCcsICc3LjAnLCAnLXRuJywgJzgnLCAnLW1hJywgJzIwMCcsICctbWV0YWxfYmluZGluZycsICctaW1hZScsICc8aW5maWxlLm1hZT4nLCAnLW9tYWUnLCAnPG91dGZpbGUubWFlPic=

> <r_lp_tautomer_probability>
1

> <r_epik_Ionization_Penalty>
0.620274

> <r_epik_Ionization_Penalty_Charging>
0.620225

> <r_epik_Ionization_Penalty_Neutral>
4.91362e-05

> <r_epik_State_Penalty>
0.636186

> <r_epik_Charging_Adjusted_Penalty>
1.25641

> <i_epik_Tot_Q>
0

> <i_epik_Tot_abs_Q>
0

> <r_epik_Metal_State_Penalty>
0.306491

> <b_epik_Metal_Only>
0

> <s_lp_Force_Field>
OPLS_2005

> <r_lp_Energy>
16.7313

> <b_lp_Chiralities_Consistent>
1

> <s_lp_Variant>
AV-unprocessed.smi:3255-5

> <Gold.Version>
5.8.1

> <Gold.Id.Protein>
6NUR|6NUR_protein|mol2

> <Gold.PLP.Fitness>
46.0392

> <Gold.PLP.PLP>
-29.6407

> <Gold.PLP.part.hbond>
-3.0000

> <Gold.PLP.part.metal>
0.0000

> <Gold.PLP.part.buried>
-3.1216

> <Gold.PLP.part.nonpolar>
-24.6121

> <Gold.PLP.part.repulsive>
0.3750

> <Gold.PLP.ligand.clash>
0.0000

> <Gold.PLP.ligand.torsion>
0.4239

> <Gold.PLP.Chemscore.Hbond>
2.7120

> <Gold.PLP.Chemscore.CHOScore>
2.9963

> <Gold.PLP.Chemscore.Metal>
0.0000

> <Gold.Chemscore.Hbonds>
donor molecule, donor type, donor heavy atom, donor atom, acceptor molecule, acceptor atom, score
      L1  H     3    23       P1  7948  1.00
      L1  H     6    24       P1  7948  0.98
      P1  H  7989  7998       L1    18  0.70
      L1  C    10    29       P1  7948  1.00
      L1  C    11    30       P1 10747  0.92
      L1  C    13    31       P1 10186  0.94

> <Gold.PLP.Chemscore.Internal.Correction>
0.1212

> <Gold.Rescore>
     Score         DG    S(hbond)    S(metal)    S(lipo)     H(rot)  DE(clash)    DE(int)     intcor
     12.01     -13.62       1.94        0.00      61.89       2.18       0.09       1.51       ----

> <Gold.Chemscore.Fitness>
12.0107

> <Gold.Chemscore.DG>
-13.6154

> <Gold.Chemscore.ZeroCoef>
-5.4800

> <Gold.Chemscore.Hbond>
1.9407

> <Gold.Chemscore.Metal>
0.0000

> <Gold.Chemscore.Lipo>
61.8940

> <Gold.Chemscore.Internal_Hbond>
0.0000

> <Gold.Chemscore.DEClash>
0.0916

> <Gold.Chemscore.DEInternal>
1.5131

> <Gold.Chemscore.Rot>
2.1828

> <Gold.Chemscore.Internal.Correction>
   9.000000E+99

> <Gold.Chemscore.Hbonds>
donor molecule, donor type, donor heavy atom, donor atom, acceptor molecule, acceptor atom, score
      L1  H     3    23       P1  7948  0.97
      L1  H     6    24       P1  7948  0.93
      P1  H  7989  7998       L1    18  0.02

> <Gold.Chemscore.Hbond.Weighted>
-6.4819

> <Gold.Chemscore.Metal.Weighted>
-0.0000

> <Gold.Chemscore.Lipo.Weighted>
-7.2416

> <Gold.Chemscore.Internal_Hbond.Weighted>
0.0000

> <Gold.Chemscore.DEClash.Weighted>
0.0916

> <Gold.Chemscore.DEInternal.Weighted>
1.5131

> <Gold.Chemscore.Rot.Weighted>
5.5881

> <Gold.Chemscore.Internal.Correction.Weighted>
   9.000000E+99

> <Gold.Protein.RotatedTorsions>
[ 6907 6896 6895 6894 ] final   76.61 input  -60.11 | X-H torsion
[ 7974 7965 7964 7962 ] final   39.05 input  175.53 | X-H torsion
[ 8008 7997 7996 7995 ] final   97.34 input   59.86 | X-H torsion
[ 10167 10162 10161 10158 ] final  144.74 input  -65.29 | X-H torsion
[ 10718 10713 10712 10709 ] final  -97.68 input   66.30 | X-H torsion
[ 10763 10752 10751 10750 ] final   44.47 input  -60.55 | X-H torsion
[ 11005 11000 10999 10996 ] final   52.25 input  -57.11 | X-H torsion

> <Gold.Protein.ActiveResidues>
 VAL166  LYS551  ARG553  GLY616  TRP617  ASP618  TYR619  PRO620  LYS621  CYS622 
 ASP623  PHE694  ASN695  SER759  ASP760  ASP761  ALA762  ILE779  LEU786  VAL792 
 PHE793  MET794  SER795  GLU796  ALA797  LYS798  CYS799  TRP800  GLU811  SER814 

> <Gold.Protein.RotatedAtoms>
  152.5081  134.3942  159.9394 H   0  0  0  0  0  0  0  0  0  0  0  0  # atno 6907 bound_to 6896
  151.3903  133.3785  159.2728 H   0  0  0  0  0  0  0  0  0  0  0  0  # atno 6908 bound_to 6896
  150.9437  134.8865  159.7687 H   0  0  0  0  0  0  0  0  0  0  0  0  # atno 6909 bound_to 6896
  146.1015  139.5699  142.9411 H   0  0  0  0  0  0  0  0  0  0  0  0  # atno 7974 bound_to 7965
  156.0891  140.3260  155.7792 H   0  0  0  0  0  0  0  0  0  0  0  0  # atno 8008 bound_to 7997
  155.5026  140.0570  157.2954 H   0  0  0  0  0  0  0  0  0  0  0  0  # atno 8009 bound_to 7997
  154.4627  140.1974  156.0218 H   0  0  0  0  0  0  0  0  0  0  0  0  # atno 8010 bound_to 7997
  139.4940  144.5951  151.6600 H   0  0  0  0  0  0  0  0  0  0  0  0  # atno 10167 bound_to 10162
  156.0089  130.5205  150.6411 H   0  0  0  0  0  0  0  0  0  0  0  0  # atno 10718 bound_to 10713
  152.9840  135.6069  154.3280 H   0  0  0  0  0  0  0  0  0  0  0  0  # atno 10763 bound_to 10752
  154.2985  135.2773  155.2624 H   0  0  0  0  0  0  0  0  0  0  0  0  # atno 10764 bound_to 10752
  154.4887  135.5898  153.6499 H   0  0  0  0  0  0  0  0  0  0  0  0  # atno 10765 bound_to 10752
  140.0864  134.5268  155.8894 H   0  0  0  0  0  0  0  0  0  0  0  0  # atno 11005 bound_to 11000
  145.5845  141.0378  143.2104 LP  0  0  0  0  0  0  0  0  0  0  0  0  # atno 17320 bound_to 7965
  144.7436  139.7380  143.7301 LP  0  0  0  0  0  0  0  0  0  0  0  0  # atno 17321 bound_to 7965
  140.5587  144.0305  150.6159 LP  0  0  0  0  0  0  0  0  0  0  0  0  # atno 17342 bound_to 10162
  140.3383  143.3035  152.0615 LP  0  0  0  0  0  0  0  0  0  0  0  0  # atno 17343 bound_to 10162
  157.4191  131.0834  151.1148 LP  0  0  0  0  0  0  0  0  0  0  0  0  # atno 17370 bound_to 10713
  157.1756  130.6287  149.5655 LP  0  0  0  0  0  0  0  0  0  0  0  0  # atno 17371 bound_to 10713
  141.2064  133.6655  156.6240 LP  0  0  0  0  0  0  0  0  0  0  0  0  # atno 17394 bound_to 11000
  140.3414  134.7846  157.4400 LP  0  0  0  0  0  0  0  0  0  0  0  0  # atno 17395 bound_to 11000

$$$$
