AV-unprocessed.smi:1432|AV-procd|sdf|5833|dock5
  -GOLD-   22720 5493D 1   1.00000     0.00000
 Structure written by MMmdl.
 47 48  0  0  0  0  0  0  0  0  2 V2000
  144.7424  134.2930  150.9963 C   0  0  0  0  0  0  0  0  0  0  0  0
  146.2469  134.5983  151.1645 C   0  0  2  0  0  0  0  0  0  0  0  0
  147.0300  133.3955  151.7318 C   0  0  0  0  0  0  0  0  0  0  0  0
  146.7429  133.1711  153.2237 C   0  0  0  0  0  0  0  0  0  0  0  0
  147.0052  134.4615  154.0094 C   0  0  0  0  0  0  0  0  0  0  0  0
  146.2142  135.6420  153.4220 C   0  0  0  0  0  0  0  0  0  0  0  0
  146.5176  135.8234  151.9758 N   0  3  2  0  0  0  0  0  0  0  0  0
  145.9399  137.0631  151.3950 C   0  0  0  0  0  0  0  0  0  0  0  0
  146.2916  138.3138  152.2228 C   0  0  0  0  0  0  0  0  0  0  0  0
  147.6481  138.2434  152.7529 N   0  0  0  0  0  0  0  0  0  0  0  0
  148.1429  139.0498  153.7042 C   0  0  0  0  0  0  0  0  0  0  0  0
  147.4762  139.9289  154.2521 O   0  0  0  0  0  0  0  0  0  0  0  0
  149.6049  138.8050  154.1040 C   0  0  0  0  0  0  0  0  0  0  0  0
  150.1166  139.7934  155.0685 N   0  0  0  0  0  0  0  0  0  0  0  0
  150.7774  139.2961  156.2092 C   0  0  0  0  0  0  0  0  0  0  0  0
  151.2740  140.0935  157.1743 C   0  0  0  0  0  0  0  0  0  0  0  0
  152.0252  139.5293  158.3702 C   0  0  0  0  0  0  0  0  0  0  0  0
  151.2627  138.6796  159.0591 F   0  0  0  0  0  0  0  0  0  0  0  0
  153.1084  138.8733  157.9563 F   0  0  0  0  0  0  0  0  0  0  0  0
  152.4185  140.5017  159.1938 F   0  0  0  0  0  0  0  0  0  0  0  0
  151.1294  141.5214  156.9692 C   0  0  0  0  0  0  0  0  0  0  0  0
  150.5055  142.0137  155.8813 C   0  0  0  0  0  0  0  0  0  0  0  0
  149.9459  141.1324  154.8541 C   0  0  0  0  0  0  0  0  0  0  0  0
  149.3602  141.5693  153.8632 O   0  0  0  0  0  0  0  0  0  0  0  0
  144.5978  133.4045  150.3816 H   0  0  0  0  0  0  0  0  0  0  0  0
  144.2168  135.1088  150.4998 H   0  0  0  0  0  0  0  0  0  0  0  0
  144.2458  134.1101  151.9487 H   0  0  0  0  0  0  0  0  0  0  0  0
  146.6451  134.7837  150.1656 H   0  0  0  0  0  0  0  0  0  0  0  0
  146.8000  132.4917  151.1664 H   0  0  0  0  0  0  0  0  0  0  0  0
  148.0989  133.5698  151.5987 H   0  0  0  0  0  0  0  0  0  0  0  0
  145.7093  132.8536  153.3649 H   0  0  0  0  0  0  0  0  0  0  0  0
  147.3680  132.3646  153.6084 H   0  0  0  0  0  0  0  0  0  0  0  0
  146.7401  134.3199  155.0578 H   0  0  0  0  0  0  0  0  0  0  0  0
  148.0713  134.6911  153.9891 H   0  0  0  0  0  0  0  0  0  0  0  0
  145.1439  135.4918  153.5664 H   0  0  0  0  0  0  0  0  0  0  0  0
  146.4744  136.5420  153.9776 H   0  0  0  0  0  0  0  0  0  0  0  0
  146.3331  137.1966  150.3862 H   0  0  0  0  0  0  0  0  0  0  0  0
  144.8585  136.9592  151.2946 H   0  0  0  0  0  0  0  0  0  0  0  0
  146.2311  139.2136  151.6121 H   0  0  0  0  0  0  0  0  0  0  0  0
  145.5795  138.4451  153.0393 H   0  0  0  0  0  0  0  0  0  0  0  0
  148.2609  137.5452  152.3559 H   0  0  0  0  0  0  0  0  0  0  0  0
  149.6810  137.7961  154.5114 H   0  0  0  0  0  0  0  0  0  0  0  0
  150.2301  138.7978  153.2090 H   0  0  0  0  0  0  0  0  0  0  0  0
  150.8502  138.2190  156.2532 H   0  0  0  0  0  0  0  0  0  0  0  0
  151.5235  142.2091  157.7028 H   0  0  0  0  0  0  0  0  0  0  0  0
  150.4133  143.0835  155.7626 H   0  0  0  0  0  0  0  0  0  0  0  0
  147.5184  135.9491  151.9211 H   0  0  0  0  0  0  0  0  0  0  0  0
  1  2  1  0  0  0  0
  1 25  1  0  0  0  0
  1 26  1  0  0  0  0
  1 27  1  0  0  0  0
  2  7  1  0  0  0  0
  2  3  1  0  0  0  0
  2 28  1  0  0  0  0
  3  4  1  0  0  0  0
  3 29  1  0  0  0  0
  3 30  1  0  0  0  0
  4  5  1  0  0  0  0
  4 31  1  0  0  0  0
  4 32  1  0  0  0  0
  5  6  1  0  0  0  0
  5 33  1  0  0  0  0
  5 34  1  0  0  0  0
  6  7  1  0  0  0  0
  6 35  1  0  0  0  0
  6 36  1  0  0  0  0
  7  8  1  0  0  0  0
  7 47  1  0  0  0  0
  8  9  1  0  0  0  0
  8 37  1  0  0  0  0
  8 38  1  0  0  0  0
  9 10  1  0  0  0  0
  9 39  1  0  0  0  0
  9 40  1  0  0  0  0
 10 11  1  0  0  0  0
 10 41  1  0  0  0  0
 11 12  2  0  0  0  0
 11 13  1  0  0  0  0
 13 14  1  0  0  0  0
 13 42  1  0  0  0  0
 13 43  1  0  0  0  0
 14 23  1  0  0  0  0
 14 15  1  0  0  0  0
 15 16  2  0  0  0  0
 15 44  1  0  0  0  0
 16 17  1  0  0  0  0
 16 21  1  0  0  0  0
 17 18  1  0  0  0  0
 17 19  1  0  0  0  0
 17 20  1  0  0  0  0
 21 22  2  0  0  0  0
 21 45  1  0  0  0  0
 22 23  1  0  0  0  0
 22 46  1  0  0  0  0
 23 24  2  0  0  0  0
M  CHG  1   7   1
M  END
> <s_m_source_file>
AV-unprocessed.smi

> <i_m_source_file_index>
1432

> <i_lp_mmshare_version>
43012

> <i_f3d_flags>
0

> <s_epik_input>
W0NIM11bQ0BASF0xW0NIMl1bQ0gyXVtDSDJdW0NIMl1OMVtDSDJdW0NIMl1bTkhdQyg9TylbQ0gyXW4yW2NIXWMoQyhGKShGKUYpW2NIXVtjSF1jMj1P

> <s_epik_cmdline>
J2VwaWtfcHl0aG9uJywgJy1waCcsICc3LjAnLCAnLXRuJywgJzgnLCAnLW1hJywgJzIwMCcsICctbWV0YWxfYmluZGluZycsICctaW1hZScsICc8aW5maWxlLm1hZT4nLCAnLW9tYWUnLCAnPG91dGZpbGUubWFlPic=

> <r_lp_tautomer_probability>
1

> <r_epik_Ionization_Penalty>
0.00237222

> <r_epik_Ionization_Penalty_Charging>
0.00237213

> <r_epik_Ionization_Penalty_Neutral>
8.2065e-08

> <r_epik_State_Penalty>
0.00163922

> <r_epik_Charging_Adjusted_Penalty>
0.00401135

> <i_epik_Tot_Q>
1

> <i_epik_Tot_abs_Q>
1

> <r_epik_Metal_State_Penalty>
-0

> <b_epik_Metal_Only>
0

> <s_lp_Force_Field>
OPLS_2005

> <r_lp_Energy>
31.3892

> <b_lp_Chiralities_Consistent>
1

> <s_lp_Variant>
AV-unprocessed.smi:1432-3

> <Gold.Version>
5.8.1

> <Gold.Id.Protein>
6NUR|6NUR_protein|mol2

> <Gold.PLP.Fitness>
49.2915

> <Gold.PLP.PLP>
-38.7678

> <Gold.PLP.part.hbond>
-4.3430

> <Gold.PLP.part.metal>
0.0000

> <Gold.PLP.part.buried>
-1.4363

> <Gold.PLP.part.nonpolar>
-34.6542

> <Gold.PLP.part.repulsive>
0.4127

> <Gold.PLP.ligand.clash>
0.0000

> <Gold.PLP.ligand.torsion>
0.3801

> <Gold.PLP.Chemscore.Hbond>
3.7200

> <Gold.PLP.Chemscore.CHOScore>
0.0000

> <Gold.PLP.Chemscore.Metal>
0.0000

> <Gold.Chemscore.Hbonds>
donor molecule, donor type, donor heavy atom, donor atom, acceptor molecule, acceptor atom, score
      L1  H     7    47       P1  7948  1.53
      L1  H    10    41       P1  7948  1.00
      P1  H  8011  8017       L1    24  0.69

> <Gold.PLP.Chemscore.Internal.Correction>
0.1240

> <Gold.Rescore>
     Score         DG    S(hbond)    S(metal)    S(lipo)     H(rot)  DE(clash)    DE(int)     intcor
     11.88     -17.84       2.65        0.00      75.29       2.08       1.26       4.70       ----

> <Gold.Chemscore.Fitness>
11.8807

> <Gold.Chemscore.DG>
-17.8373

> <Gold.Chemscore.ZeroCoef>
-5.4800

> <Gold.Chemscore.Hbond>
2.6536

> <Gold.Chemscore.Metal>
0.0000

> <Gold.Chemscore.Lipo>
75.2939

> <Gold.Chemscore.Internal_Hbond>
0.0000

> <Gold.Chemscore.DEClash>
1.2555

> <Gold.Chemscore.DEInternal>
4.7010

> <Gold.Chemscore.Rot>
2.0762

> <Gold.Chemscore.Internal.Correction>
   9.000000E+99

> <Gold.Chemscore.Hbonds>
donor molecule, donor type, donor heavy atom, donor atom, acceptor molecule, acceptor atom, score
      L1  H     7    47       P1  7948  0.75
      L1  H    10    41       P1  7948  0.94
      P1  H  8011  8017       L1    24  0.68

> <Gold.Chemscore.Hbond.Weighted>
-8.8629

> <Gold.Chemscore.Metal.Weighted>
-0.0000

> <Gold.Chemscore.Lipo.Weighted>
-8.8094

> <Gold.Chemscore.Internal_Hbond.Weighted>
0.0000

> <Gold.Chemscore.DEClash.Weighted>
1.2555

> <Gold.Chemscore.DEInternal.Weighted>
4.7010

> <Gold.Chemscore.Rot.Weighted>
5.3150

> <Gold.Chemscore.Internal.Correction.Weighted>
   9.000000E+99

> <Gold.Protein.RotatedTorsions>
[ 6907 6896 6895 6894 ] final -153.68 input  -60.11 | X-H torsion
[ 7974 7965 7964 7962 ] final -131.53 input  175.53 | X-H torsion
[ 8008 7997 7996 7995 ] final    1.32 input   59.86 | X-H torsion
[ 10167 10162 10161 10158 ] final   13.15 input  -65.29 | X-H torsion
[ 10718 10713 10712 10709 ] final  -52.42 input   66.30 | X-H torsion
[ 10763 10752 10751 10750 ] final  119.08 input  -60.55 | X-H torsion
[ 11005 11000 10999 10996 ] final  -19.50 input  -57.11 | X-H torsion

> <Gold.Protein.ActiveResidues>
 VAL166  LYS551  ARG553  GLY616  TRP617  ASP618  TYR619  PRO620  LYS621  CYS622 
 ASP623  PHE694  ASN695  SER759  ASP760  ASP761  ALA762  ILE779  LEU786  VAL792 
 PHE793  MET794  SER795  GLU796  ALA797  LYS798  CYS799  TRP800  GLU811  SER814 

> <Gold.Protein.RotatedAtoms>
  151.2461  133.4374  159.2609 H   0  0  0  0  0  0  0  0  0  0  0  0  # atno 6907 bound_to 6896
  151.0660  134.9768  159.8295 H   0  0  0  0  0  0  0  0  0  0  0  0  # atno 6908 bound_to 6896
  152.5405  134.2409  159.8914 H   0  0  0  0  0  0  0  0  0  0  0  0  # atno 6909 bound_to 6896
  144.9370  140.7195  143.4870 H   0  0  0  0  0  0  0  0  0  0  0  0  # atno 7974 bound_to 7965
  154.6784  140.2627  155.6934 H   0  0  0  0  0  0  0  0  0  0  0  0  # atno 8008 bound_to 7997
  156.2687  140.2815  156.1241 H   0  0  0  0  0  0  0  0  0  0  0  0  # atno 8009 bound_to 7997
  155.1067  140.0375  157.2702 H   0  0  0  0  0  0  0  0  0  0  0  0  # atno 8010 bound_to 7997
  140.6021  143.8582  150.6976 H   0  0  0  0  0  0  0  0  0  0  0  0  # atno 10167 bound_to 10162
  156.1623  130.4149  149.9774 H   0  0  0  0  0  0  0  0  0  0  0  0  # atno 10718 bound_to 10713
  153.5776  135.3490  155.2862 H   0  0  0  0  0  0  0  0  0  0  0  0  # atno 10763 bound_to 10752
  154.8673  135.4174  154.2656 H   0  0  0  0  0  0  0  0  0  0  0  0  # atno 10764 bound_to 10752
  153.3435  135.7051  153.6917 H   0  0  0  0  0  0  0  0  0  0  0  0  # atno 10765 bound_to 10752
  140.8373  133.7952  155.9822 H   0  0  0  0  0  0  0  0  0  0  0  0  # atno 11005 bound_to 11000
  145.3051  139.1837  143.4669 LP  0  0  0  0  0  0  0  0  0  0  0  0  # atno 17320 bound_to 7965
  146.3271  140.3047  142.8623 LP  0  0  0  0  0  0  0  0  0  0  0  0  # atno 17321 bound_to 7965
  140.2131  143.3868  152.1703 LP  0  0  0  0  0  0  0  0  0  0  0  0  # atno 17342 bound_to 10162
  139.5299  144.7146  151.5094 LP  0  0  0  0  0  0  0  0  0  0  0  0  # atno 17343 bound_to 10162
  156.7599  130.9147  151.3641 LP  0  0  0  0  0  0  0  0  0  0  0  0  # atno 17370 bound_to 10713
  157.6742  130.9079  150.0110 LP  0  0  0  0  0  0  0  0  0  0  0  0  # atno 17371 bound_to 10713
  140.8933  134.2468  157.5082 LP  0  0  0  0  0  0  0  0  0  0  0  0  # atno 17394 bound_to 11000
  139.8704  134.9672  156.4589 LP  0  0  0  0  0  0  0  0  0  0  0  0  # atno 17395 bound_to 11000

$$$$
