AV-unprocessed.smi:1367|AV-procd|sdf|5572|dock3
  -GOLD-   22720 5163D 1   1.00000     0.00000
 Structure written by MMmdl.
 30 30  0  0  0  0  0  0  0  0  1 V2000
  146.3748  137.9627  152.3238 C   0  0  0  0  0  0  0  0  0  0  0  0
  147.1153  139.1171  152.9655 C   0  0  0  0  0  0  0  0  0  0  0  0
  146.5851  140.2721  153.2005 N   0  0  0  0  0  0  0  0  0  0  0  0
  147.3712  141.2645  153.8025 C   0  0  0  0  0  0  0  0  0  0  0  0
  146.6761  142.5926  154.0482 C   0  0  0  0  0  0  0  0  0  0  0  0
  148.6745  141.0385  154.1409 C   0  0  0  0  0  0  0  0  0  0  0  0
  149.5549  142.0995  154.7998 C   0  0  0  0  0  0  0  0  0  0  0  0
  150.1458  141.7172  156.1592 C   0  0  0  0  0  0  0  0  0  0  0  0
  150.5809  140.5814  156.3498 O   0  0  0  0  0  0  0  0  0  0  0  0
  150.1499  142.6724  157.0993 N   0  0  0  0  0  0  0  0  0  0  0  0
  150.6541  142.4908  158.4544 C   0  0  0  0  0  0  0  0  0  0  0  0
  151.4115  143.7366  158.9359 C   0  0  0  0  0  0  0  0  0  0  0  0
  152.0805  144.2694  157.9143 F   0  0  0  0  0  0  0  0  0  0  0  0
  150.5566  144.6438  159.4087 F   0  0  0  0  0  0  0  0  0  0  0  0
  152.2797  143.4094  159.8933 F   0  0  0  0  0  0  0  0  0  0  0  0
  149.2697  139.7158  153.8679 C   0  0  0  0  0  0  0  0  0  0  0  0
  150.4287  139.4033  154.1355 O   0  0  0  0  0  0  0  0  0  0  0  0
  148.4390  138.8214  153.2866 N   0  0  0  0  0  0  0  0  0  0  0  0
  148.7989  137.9008  153.0814 H   0  0  0  0  0  0  0  0  0  0  0  0
  145.5100  137.6891  152.9286 H   0  0  0  0  0  0  0  0  0  0  0  0
  147.0117  137.0830  152.2209 H   0  0  0  0  0  0  0  0  0  0  0  0
  146.0233  138.2474  151.3319 H   0  0  0  0  0  0  0  0  0  0  0  0
  147.1571  143.3875  153.4781 H   0  0  0  0  0  0  0  0  0  0  0  0
  146.7078  142.8544  155.1060 H   0  0  0  0  0  0  0  0  0  0  0  0
  145.6285  142.5533  153.7474 H   0  0  0  0  0  0  0  0  0  0  0  0
  150.3770  142.3795  154.1406 H   0  0  0  0  0  0  0  0  0  0  0  0
  148.9681  143.0122  154.9108 H   0  0  0  0  0  0  0  0  0  0  0  0
  149.7742  143.5807  156.8664 H   0  0  0  0  0  0  0  0  0  0  0  0
  149.8204  142.2816  159.1268 H   0  0  0  0  0  0  0  0  0  0  0  0
  151.3126  141.6213  158.4797 H   0  0  0  0  0  0  0  0  0  0  0  0
  1  2  1  0  0  0  0
  1 20  1  0  0  0  0
  1 21  1  0  0  0  0
  1 22  1  0  0  0  0
  2 18  1  0  0  0  0
  2  3  2  0  0  0  0
  3  4  1  0  0  0  0
  4  5  1  0  0  0  0
  4  6  2  0  0  0  0
  5 23  1  0  0  0  0
  5 24  1  0  0  0  0
  5 25  1  0  0  0  0
  6  7  1  0  0  0  0
  6 16  1  0  0  0  0
  7  8  1  0  0  0  0
  7 26  1  0  0  0  0
  7 27  1  0  0  0  0
  8  9  2  0  0  0  0
  8 10  1  0  0  0  0
 10 11  1  0  0  0  0
 10 28  1  0  0  0  0
 11 12  1  0  0  0  0
 11 29  1  0  0  0  0
 11 30  1  0  0  0  0
 12 13  1  0  0  0  0
 12 14  1  0  0  0  0
 12 15  1  0  0  0  0
 16 17  2  0  0  0  0
 16 18  1  0  0  0  0
 18 19  1  0  0  0  0
M  END
> <s_m_source_file>
AV-unprocessed.smi

> <i_m_source_file_index>
1367

> <i_lp_mmshare_version>
43012

> <i_f3d_flags>
0

> <s_epik_input>
W0NIM11jMW5jKFtDSDNdKWMoYyg9TylbbkhdMSlbQ0gyXUMoPU8pW05IXVtDSDJdQyhGKShGKUY=

> <s_epik_cmdline>
J2VwaWtfcHl0aG9uJywgJy1waCcsICc3LjAnLCAnLXRuJywgJzgnLCAnLW1hJywgJzIwMCcsICctbWV0YWxfYmluZGluZycsICctaW1hZScsICc8aW5maWxlLm1hZT4nLCAnLW9tYWUnLCAnPG91dGZpbGUubWFlPic=

> <r_lp_tautomer_probability>
0.839158

> <r_epik_Ionization_Penalty>
0.000480491

> <r_epik_Ionization_Penalty_Charging>
0.000456019

> <r_epik_Ionization_Penalty_Neutral>
2.44714e-05

> <r_epik_State_Penalty>
0.048705

> <r_epik_Charging_Adjusted_Penalty>
0.0491611

> <i_epik_Tot_Q>
0

> <i_epik_Tot_abs_Q>
0

> <r_epik_Metal_State_Penalty>
0.248113

> <b_epik_Metal_Only>
0

> <s_lp_Force_Field>
OPLS_2005

> <r_lp_Energy>
5.13431

> <b_lp_Chiralities_Consistent>
1

> <s_lp_Variant>
AV-unprocessed.smi:1367-1

> <Gold.Version>
5.8.1

> <Gold.Id.Protein>
6NUR|6NUR_protein|mol2

> <Gold.PLP.Fitness>
44.2557

> <Gold.PLP.PLP>
-36.8552

> <Gold.PLP.part.hbond>
-4.0000

> <Gold.PLP.part.metal>
0.0000

> <Gold.PLP.part.buried>
2.5197

> <Gold.PLP.part.nonpolar>
-36.1922

> <Gold.PLP.part.repulsive>
1.2230

> <Gold.PLP.ligand.clash>
0.0000

> <Gold.PLP.ligand.torsion>
0.7892

> <Gold.PLP.Chemscore.Hbond>
2.9913

> <Gold.PLP.Chemscore.CHOScore>
0.0000

> <Gold.PLP.Chemscore.Metal>
0.0000

> <Gold.Chemscore.Hbonds>
donor molecule, donor type, donor heavy atom, donor atom, acceptor molecule, acceptor atom, score
      L1  H    10    28       P1  8028  1.00
      L1  H    18    19       P1  7948  0.94
      P1  H  7989  7998       L1    17  1.00

> <Gold.PLP.Chemscore.Internal.Correction>
0.0052

> <Gold.Rescore>
     Score         DG    S(hbond)    S(metal)    S(lipo)     H(rot)  DE(clash)    DE(int)     intcor
      9.02     -15.11       2.44        0.00      54.17       1.90       2.68       3.41       ----

> <Gold.Chemscore.Fitness>
9.0180

> <Gold.Chemscore.DG>
-15.1075

> <Gold.Chemscore.ZeroCoef>
-5.4800

> <Gold.Chemscore.Hbond>
2.4388

> <Gold.Chemscore.Metal>
0.0000

> <Gold.Chemscore.Lipo>
54.1685

> <Gold.Chemscore.Internal_Hbond>
0.0000

> <Gold.Chemscore.DEClash>
2.6773

> <Gold.Chemscore.DEInternal>
3.4122

> <Gold.Chemscore.Rot>
1.8968

> <Gold.Chemscore.Internal.Correction>
   9.000000E+99

> <Gold.Chemscore.Hbonds>
donor molecule, donor type, donor heavy atom, donor atom, acceptor molecule, acceptor atom, score
      L1  H    10    28       P1  8028  0.95
      L1  H    18    19       P1  7948  0.87
      P1  H  7989  7998       L1    17  0.63

> <Gold.Chemscore.Hbond.Weighted>
-8.1457

> <Gold.Chemscore.Metal.Weighted>
-0.0000

> <Gold.Chemscore.Lipo.Weighted>
-6.3377

> <Gold.Chemscore.Internal_Hbond.Weighted>
0.0000

> <Gold.Chemscore.DEClash.Weighted>
2.6773

> <Gold.Chemscore.DEInternal.Weighted>
3.4122

> <Gold.Chemscore.Rot.Weighted>
4.8559

> <Gold.Chemscore.Internal.Correction.Weighted>
   9.000000E+99

> <Gold.Protein.RotatedTorsions>
[ 6907 6896 6895 6894 ] final  128.67 input  -60.11 | X-H torsion
[ 7974 7965 7964 7962 ] final -176.04 input  175.53 | X-H torsion
[ 8008 7997 7996 7995 ] final -143.48 input   59.86 | X-H torsion
[ 10167 10162 10161 10158 ] final  -18.68 input  -65.29 | X-H torsion
[ 10718 10713 10712 10709 ] final  -78.71 input   66.30 | X-H torsion
[ 10763 10752 10751 10750 ] final   31.92 input  -60.55 | X-H torsion
[ 11005 11000 10999 10996 ] final   69.54 input  -57.11 | X-H torsion

> <Gold.Protein.ActiveResidues>
 VAL166  LYS551  ARG553  GLY616  TRP617  ASP618  TYR619  PRO620  LYS621  CYS622 
 ASP623  PHE694  ASN695  SER759  ASP760  ASP761  ALA762  ILE779  LEU786  VAL792 
 PHE793  MET794  SER795  GLU796  ALA797  LYS798  CYS799  TRP800  GLU811  SER814 

> <Gold.Protein.RotatedAtoms>
  152.3698  133.6403  159.6077 H   0  0  0  0  0  0  0  0  0  0  0  0  # atno 6907 bound_to 6896
  150.7660  133.9289  159.3430 H   0  0  0  0  0  0  0  0  0  0  0  0  # atno 6908 bound_to 6896
  151.7114  135.0913  160.0319 H   0  0  0  0  0  0  0  0  0  0  0  0  # atno 6909 bound_to 6896
  144.7127  140.1229  143.6404 H   0  0  0  0  0  0  0  0  0  0  0  0  # atno 7974 bound_to 7965
  155.5112  140.0583  157.2923 H   0  0  0  0  0  0  0  0  0  0  0  0  # atno 8008 bound_to 7997
  154.4551  140.1969  156.0352 H   0  0  0  0  0  0  0  0  0  0  0  0  # atno 8009 bound_to 7997
  156.0783  140.3250  155.7665 H   0  0  0  0  0  0  0  0  0  0  0  0  # atno 8010 bound_to 7997
  140.7261  143.4892  151.0014 H   0  0  0  0  0  0  0  0  0  0  0  0  # atno 10167 bound_to 10162
  156.0110  130.4525  150.3537 H   0  0  0  0  0  0  0  0  0  0  0  0  # atno 10718 bound_to 10713
  153.0290  135.6426  154.1274 H   0  0  0  0  0  0  0  0  0  0  0  0  # atno 10763 bound_to 10752
  154.0999  135.2860  155.3255 H   0  0  0  0  0  0  0  0  0  0  0  0  # atno 10764 bound_to 10752
  154.6406  135.5461  153.7848 H   0  0  0  0  0  0  0  0  0  0  0  0  # atno 10765 bound_to 10752
  139.9648  134.6999  156.0569 H   0  0  0  0  0  0  0  0  0  0  0  0  # atno 11005 bound_to 11000
  145.9355  139.2634  143.1300 LP  0  0  0  0  0  0  0  0  0  0  0  0  # atno 17320 bound_to 7965
  145.9479  140.8931  143.0274 LP  0  0  0  0  0  0  0  0  0  0  0  0  # atno 17321 bound_to 7965
  139.8596  143.7332  152.3174 LP  0  0  0  0  0  0  0  0  0  0  0  0  # atno 17342 bound_to 10162
  139.7543  144.7525  151.0460 LP  0  0  0  0  0  0  0  0  0  0  0  0  # atno 17343 bound_to 10162
  157.1629  131.0349  151.2832 LP  0  0  0  0  0  0  0  0  0  0  0  0  # atno 17370 bound_to 10713
  157.4296  130.7483  149.6979 LP  0  0  0  0  0  0  0  0  0  0  0  0  # atno 17371 bound_to 10713
  141.1327  133.6582  156.3509 LP  0  0  0  0  0  0  0  0  0  0  0  0  # atno 17394 bound_to 11000
  140.5421  134.6110  157.5383 LP  0  0  0  0  0  0  0  0  0  0  0  0  # atno 17395 bound_to 11000

$$$$
