AV-unprocessed.smi:311|AV-procd|sdf|2301|dock1
  -GOLD-   2262022203D 1   1.00000     0.00000
 Structure written by MMmdl.
 44 46  0  0  0  0  0  0  0  0  2 V2000
  152.5488  129.9295  157.6366 C   0  0  0  0  0  0  0  0  0  0  0  0
  151.8389  131.0346  156.9083 C   0  0  0  0  0  0  0  0  0  0  0  0
  151.6111  132.1818  157.5252 N   0  0  0  0  0  0  0  0  0  0  0  0
  150.9355  132.9858  156.6020 O   0  0  0  0  0  0  0  0  0  0  0  0
  150.7794  132.2811  155.4523 C   0  0  0  0  0  0  0  0  0  0  0  0
  150.0678  132.9667  154.3354 C   0  0  0  0  0  0  0  0  0  0  0  0
  151.3312  131.0358  155.5771 C   0  0  0  0  0  0  0  0  0  0  0  0
  151.3859  129.9264  154.5586 C   0  0  0  0  0  0  0  0  0  0  0  0
  149.9843  129.3544  154.3399 C   0  0  0  0  0  0  0  0  0  0  0  0
  149.7380  128.1884  154.6480 O   0  0  0  0  0  0  0  0  0  0  0  0
  149.0740  130.1833  153.8046 N   0  0  0  0  0  0  0  0  0  0  0  0
  147.7014  129.8174  153.4603 C   0  0  2  0  0  0  0  0  0  0  0  0
  147.6213  128.6388  152.4719 C   0  0  0  0  0  0  0  0  0  0  0  0
  146.4633  129.0002  151.5358 C   0  0  0  0  0  0  0  0  0  0  0  0
  146.5564  130.4622  151.4517 N   0  3  1  0  0  0  0  0  0  0  0  0
  145.4487  131.2087  150.8220 C   0  0  0  0  0  0  0  0  0  0  0  0
  145.8769  132.6854  150.6817 C   0  0  0  0  0  0  0  0  0  0  0  0
  146.3742  133.2813  152.0187 C   0  0  0  0  0  0  0  0  0  0  0  0
  147.4359  132.3833  152.6908 C   0  0  0  0  0  0  0  0  0  0  0  0
  146.8791  130.9526  152.8030 C   0  0  2  0  0  0  0  0  0  0  0  0
  153.2510  129.4154  156.9804 H   0  0  0  0  0  0  0  0  0  0  0  0
  151.8385  129.1902  158.0071 H   0  0  0  0  0  0  0  0  0  0  0  0
  153.1123  130.3065  158.4906 H   0  0  0  0  0  0  0  0  0  0  0  0
  149.2692  132.3364  153.9440 H   0  0  0  0  0  0  0  0  0  0  0  0
  150.7553  133.1875  153.5190 H   0  0  0  0  0  0  0  0  0  0  0  0
  149.6238  133.9054  154.6675 H   0  0  0  0  0  0  0  0  0  0  0  0
  151.7630  130.2841  153.6001 H   0  0  0  0  0  0  0  0  0  0  0  0
  152.0679  129.1359  154.8748 H   0  0  0  0  0  0  0  0  0  0  0  0
  149.3647  131.1261  153.5887 H   0  0  0  0  0  0  0  0  0  0  0  0
  147.1869  129.5131  154.3743 H   0  0  0  0  0  0  0  0  0  0  0  0
  148.5431  128.5680  151.8918 H   0  0  0  0  0  0  0  0  0  0  0  0
  147.4715  127.6807  152.9706 H   0  0  0  0  0  0  0  0  0  0  0  0
  146.5485  128.5275  150.5568 H   0  0  0  0  0  0  0  0  0  0  0  0
  145.5073  128.7157  151.9782 H   0  0  0  0  0  0  0  0  0  0  0  0
  145.2284  130.7861  149.8409 H   0  0  0  0  0  0  0  0  0  0  0  0
  144.5435  131.1203  151.4247 H   0  0  0  0  0  0  0  0  0  0  0  0
  146.6772  132.7547  149.9437 H   0  0  0  0  0  0  0  0  0  0  0  0
  145.0501  133.2797  150.2916 H   0  0  0  0  0  0  0  0  0  0  0  0
  146.7775  134.2813  151.8561 H   0  0  0  0  0  0  0  0  0  0  0  0
  145.5257  133.3993  152.6939 H   0  0  0  0  0  0  0  0  0  0  0  0
  148.3574  132.3893  152.1068 H   0  0  0  0  0  0  0  0  0  0  0  0
  147.6794  132.7811  153.6761 H   0  0  0  0  0  0  0  0  0  0  0  0
  145.9425  131.0068  153.3625 H   0  0  0  0  0  0  0  0  0  0  0  0
  147.3758  130.6433  150.8895 H   0  0  0  0  0  0  0  0  0  0  0  0
  1  2  1  0  0  0  0
  1 21  1  0  0  0  0
  1 22  1  0  0  0  0
  1 23  1  0  0  0  0
  2  7  1  0  0  0  0
  2  3  2  0  0  0  0
  3  4  1  0  0  0  0
  4  5  1  0  0  0  0
  5  6  1  0  0  0  0
  5  7  2  0  0  0  0
  6 24  1  0  0  0  0
  6 25  1  0  0  0  0
  6 26  1  0  0  0  0
  7  8  1  0  0  0  0
  8  9  1  0  0  0  0
  8 27  1  0  0  0  0
  8 28  1  0  0  0  0
  9 10  2  0  0  0  0
  9 11  1  0  0  0  0
 11 12  1  0  0  0  0
 11 29  1  0  0  0  0
 12 20  1  0  0  0  0
 12 13  1  0  0  0  0
 12 30  1  0  0  0  0
 13 14  1  0  0  0  0
 13 31  1  0  0  0  0
 13 32  1  0  0  0  0
 14 15  1  0  0  0  0
 14 33  1  0  0  0  0
 14 34  1  0  0  0  0
 15 20  1  0  0  0  0
 15 16  1  0  0  0  0
 15 44  1  0  0  0  0
 16 17  1  0  0  0  0
 16 35  1  0  0  0  0
 16 36  1  0  0  0  0
 17 18  1  0  0  0  0
 17 37  1  0  0  0  0
 17 38  1  0  0  0  0
 18 19  1  0  0  0  0
 18 39  1  0  0  0  0
 18 40  1  0  0  0  0
 19 20  1  0  0  0  0
 19 41  1  0  0  0  0
 19 42  1  0  0  0  0
 20 43  1  0  0  0  0
M  CHG  1  15   1
M  END
> <s_m_source_file>
AV-unprocessed.smi

> <i_m_source_file_index>
311

> <i_lp_mmshare_version>
43012

> <i_f3d_flags>
0

> <s_epik_input>
W0NIM11jMW5vYyhbQ0gzXSljMVtDSDJdQyg9TylbTkhdW0NASF0oW0NIMl1bQ0gyXTIpW0NAQEhdKE4yMylbQ0gyXVtDSDJdW0NIMl1bQ0gyXTM=

> <s_epik_cmdline>
J2VwaWtfcHl0aG9uJywgJy1waCcsICc3LjAnLCAnLXRuJywgJzgnLCAnLW1hJywgJzIwMCcsICctbWV0YWxfYmluZGluZycsICctaW1hZScsICc8aW5maWxlLm1hZT4nLCAnLW9tYWUnLCAnPG91dGZpbGUubWFlPic=

> <r_epik_Ionization_Penalty>
0.00173669

> <r_epik_Ionization_Penalty_Charging>
0.0017366

> <r_epik_Ionization_Penalty_Neutral>
9.2145e-08

> <r_epik_State_Penalty>
0.00117499

> <r_epik_Charging_Adjusted_Penalty>
0.00291159

> <i_epik_Tot_Q>
1

> <i_epik_Tot_abs_Q>
1

> <r_epik_Metal_State_Penalty>
-0

> <b_epik_Metal_Only>
0

> <s_lp_Force_Field>
OPLS_2005

> <r_lp_Energy>
35.7975

> <b_lp_Chiralities_Consistent>
1

> <s_lp_Variant>
AV-unprocessed.smi:311-5

> <Gold.Version>
5.8.1

> <Gold.Id.Protein>
6NUR|6NUR_protein|mol2

> <Gold.PLP.Fitness>
39.2398

> <Gold.PLP.PLP>
-33.4674

> <Gold.PLP.part.hbond>
-2.0000

> <Gold.PLP.part.metal>
0.0000

> <Gold.PLP.part.buried>
-6.0053

> <Gold.PLP.part.nonpolar>
-25.7955

> <Gold.PLP.part.repulsive>
0.1104

> <Gold.PLP.ligand.clash>
0.0000

> <Gold.PLP.ligand.torsion>
0.1216

> <Gold.PLP.Chemscore.Hbond>
2.0000

> <Gold.PLP.Chemscore.CHOScore>
0.0000

> <Gold.PLP.Chemscore.Metal>
0.0000

> <Gold.Chemscore.Hbonds>
donor molecule, donor type, donor heavy atom, donor atom, acceptor molecule, acceptor atom, score
      L1  H    15    44       P1 10747  1.00
      P1  H  6896  6907       L1     3  0.89

> <Gold.PLP.Chemscore.Internal.Correction>
0.0156

> <Gold.Rescore>
     Score         DG    S(hbond)    S(metal)    S(lipo)     H(rot)  DE(clash)    DE(int)     intcor
     19.06     -19.39       1.98        0.00      92.15       1.36       0.14       0.19       ----

> <Gold.Chemscore.Fitness>
19.0553

> <Gold.Chemscore.DG>
-19.3871

> <Gold.Chemscore.ZeroCoef>
-5.4800

> <Gold.Chemscore.Hbond>
1.9757

> <Gold.Chemscore.Metal>
0.0000

> <Gold.Chemscore.Lipo>
92.1468

> <Gold.Chemscore.Internal_Hbond>
0.0000

> <Gold.Chemscore.DEClash>
0.1376

> <Gold.Chemscore.DEInternal>
0.1942

> <Gold.Chemscore.Rot>
1.3567

> <Gold.Chemscore.Internal.Correction>
   9.000000E+99

> <Gold.Chemscore.Hbonds>
donor molecule, donor type, donor heavy atom, donor atom, acceptor molecule, acceptor atom, score
      L1  H    15    44       P1 10747  1.00
      P1  H  6896  6907       L1     3  0.48

> <Gold.Chemscore.Hbond.Weighted>
-6.5990

> <Gold.Chemscore.Metal.Weighted>
-0.0000

> <Gold.Chemscore.Lipo.Weighted>
-10.7812

> <Gold.Chemscore.Internal_Hbond.Weighted>
0.0000

> <Gold.Chemscore.DEClash.Weighted>
0.1376

> <Gold.Chemscore.DEInternal.Weighted>
0.1942

> <Gold.Chemscore.Rot.Weighted>
3.4731

> <Gold.Chemscore.Internal.Correction.Weighted>
   9.000000E+99

> <Gold.Protein.RotatedTorsions>
[ 6907 6896 6895 6894 ] final  177.42 input  -60.11 | X-H torsion
[ 7974 7965 7964 7962 ] final  175.33 input  175.53 | X-H torsion
[ 8008 7997 7996 7995 ] final  160.11 input   59.86 | X-H torsion
[ 10167 10162 10161 10158 ] final  165.13 input  -65.29 | X-H torsion
[ 10718 10713 10712 10709 ] final   19.98 input   66.30 | X-H torsion
[ 10763 10752 10751 10750 ] final -117.33 input  -60.55 | X-H torsion
[ 11005 11000 10999 10996 ] final   42.92 input  -57.11 | X-H torsion

> <Gold.Protein.ActiveResidues>
 VAL166  LYS551  ARG553  GLY616  TRP617  ASP618  TYR619  PRO620  LYS621  CYS622 
 ASP623  PHE694  ASN695  SER759  ASP760  ASP761  ALA762  ILE779  LEU786  VAL792 
 PHE793  MET794  SER795  GLU796  ALA797  LYS798  CYS799  TRP800  GLU811  SER814 

> <Gold.Protein.RotatedAtoms>
  151.7043  133.3311  159.3274 H   0  0  0  0  0  0  0  0  0  0  0  0  # atno 6907 bound_to 6896
  150.7722  134.6588  159.6338 H   0  0  0  0  0  0  0  0  0  0  0  0  # atno 6908 bound_to 6896
  152.3751  134.6679  160.0214 H   0  0  0  0  0  0  0  0  0  0  0  0  # atno 6909 bound_to 6896
  144.7204  139.9930  143.6440 H   0  0  0  0  0  0  0  0  0  0  0  0  # atno 7974 bound_to 7965
  156.2194  140.1813  156.7513 H   0  0  0  0  0  0  0  0  0  0  0  0  # atno 8008 bound_to 7997
  154.5841  140.0661  156.9175 H   0  0  0  0  0  0  0  0  0  0  0  0  # atno 8009 bound_to 7997
  155.2450  140.3325  155.4290 H   0  0  0  0  0  0  0  0  0  0  0  0  # atno 8010 bound_to 7997
  139.4900  144.4164  151.9238 H   0  0  0  0  0  0  0  0  0  0  0  0  # atno 10167 bound_to 10162
  157.1181  130.6537  149.5916 H   0  0  0  0  0  0  0  0  0  0  0  0  # atno 10718 bound_to 10713
  154.8551  135.4313  154.1963 H   0  0  0  0  0  0  0  0  0  0  0  0  # atno 10763 bound_to 10752
  153.3020  135.6969  153.7200 H   0  0  0  0  0  0  0  0  0  0  0  0  # atno 10764 bound_to 10752
  153.6327  135.3482  155.3021 H   0  0  0  0  0  0  0  0  0  0  0  0  # atno 10765 bound_to 10752
  140.1693  134.4242  155.8267 H   0  0  0  0  0  0  0  0  0  0  0  0  # atno 11005 bound_to 11000
  146.0397  139.3410  143.0705 LP  0  0  0  0  0  0  0  0  0  0  0  0  # atno 17320 bound_to 7965
  145.8351  140.9610  143.0829 LP  0  0  0  0  0  0  0  0  0  0  0  0  # atno 17321 bound_to 7965
  140.3607  144.2976  150.5934 LP  0  0  0  0  0  0  0  0  0  0  0  0  # atno 17342 bound_to 10162
  140.5405  143.2224  151.8092 LP  0  0  0  0  0  0  0  0  0  0  0  0  # atno 17343 bound_to 10162
  155.9835  130.4854  150.6935 LP  0  0  0  0  0  0  0  0  0  0  0  0  # atno 17370 bound_to 10713
  157.4501  131.0871  151.0855 LP  0  0  0  0  0  0  0  0  0  0  0  0  # atno 17371 bound_to 10713
  141.2216  133.6949  156.7735 LP  0  0  0  0  0  0  0  0  0  0  0  0  # atno 17394 bound_to 11000
  140.2396  134.8623  157.3560 LP  0  0  0  0  0  0  0  0  0  0  0  0  # atno 17395 bound_to 11000

$$$$
