AV-unprocessed.smi:48|AV-procd|sdf|454|dock2
  -GOLD-   2262016323D 1   1.00000     0.00000
 Structure written by MMmdl.
 30 32  0  0  0  0  0  0  0  0  1 V2000
  147.3692  138.0886  151.7145 O   0  0  0  0  0  0  0  0  0  0  0  0
  146.6675  138.7074  152.7714 C   0  0  0  0  0  0  0  0  0  0  0  0
  147.2182  140.1236  153.0149 C   0  0  2  0  0  0  0  0  0  0  0  0
  148.4900  140.0745  153.6447 O   0  0  0  0  0  0  0  0  0  0  0  0
  148.7588  141.3141  154.2180 C   0  0  2  0  0  0  0  0  0  0  0  0
  149.5260  141.0877  155.4791 N   0  0  0  0  0  0  0  0  0  0  0  0
  149.2318  141.5588  156.7078 C   0  0  0  0  0  0  0  0  0  0  0  0
  150.0522  141.2296  157.7047 N   0  0  0  0  0  0  0  0  0  0  0  0
  150.9915  140.4548  157.0444 C   0  0  0  0  0  0  0  0  0  0  0  0
  152.1531  139.7744  157.4838 C   0  0  0  0  0  0  0  0  0  0  0  0
  152.6347  139.8176  159.1403 Cl  0  0  0  0  0  0  0  0  0  0  0  0
  152.8813  139.0856  156.5729 N   0  0  0  0  0  0  0  0  0  0  0  0
  152.4849  139.0693  155.2944 C   0  0  0  0  0  0  0  0  0  0  0  0
  151.4213  139.6587  154.7371 N   0  0  0  0  0  0  0  0  0  0  0  0
  150.6870  140.3519  155.6569 C   0  0  0  0  0  0  0  0  0  0  0  0
  147.4134  142.0024  154.5077 C   0  0  1  0  0  0  0  0  0  0  0  0
  147.3067  143.2212  153.8003 O   0  0  0  0  0  0  0  0  0  0  0  0
  146.3918  141.0066  153.9629 C   0  0  2  0  0  0  0  0  0  0  0  0
  145.8257  140.2538  155.0193 O   0  0  0  0  0  0  0  0  0  0  0  0
  147.3252  140.6542  152.0665 H   0  0  0  0  0  0  0  0  0  0  0  0
  149.4242  141.8969  153.5787 H   0  0  0  0  0  0  0  0  0  0  0  0
  147.2846  142.1951  155.5744 H   0  0  0  0  0  0  0  0  0  0  0  0
  145.5709  141.4935  153.4341 H   0  0  0  0  0  0  0  0  0  0  0  0
  147.8561  137.3579  152.0637 H   0  0  0  0  0  0  0  0  0  0  0  0
  145.6184  138.7567  152.4787 H   0  0  0  0  0  0  0  0  0  0  0  0
  146.7274  138.0975  153.6737 H   0  0  0  0  0  0  0  0  0  0  0  0
  148.3628  142.1765  156.8815 H   0  0  0  0  0  0  0  0  0  0  0  0
  153.1095  138.5027  154.6198 H   0  0  0  0  0  0  0  0  0  0  0  0
  147.8263  143.8723  154.2465 H   0  0  0  0  0  0  0  0  0  0  0  0
  145.5452  140.8494  155.6971 H   0  0  0  0  0  0  0  0  0  0  0  0
  1  2  1  0  0  0  0
  1 24  1  0  0  0  0
  2  3  1  0  0  0  0
  2 25  1  0  0  0  0
  2 26  1  0  0  0  0
  3 20  1  0  0  0  0
  3 18  1  0  0  0  0
  3  4  1  0  0  0  0
  4  5  1  0  0  0  0
  5 21  1  0  0  0  0
  5  6  1  0  0  0  0
  5 16  1  0  0  0  0
  6 15  1  0  0  0  0
  6  7  1  0  0  0  0
  7  8  2  0  0  0  0
  7 27  1  0  0  0  0
  8  9  1  0  0  0  0
  9 15  2  0  0  0  0
  9 10  1  0  0  0  0
 10 11  1  0  0  0  0
 10 12  2  0  0  0  0
 12 13  1  0  0  0  0
 13 14  2  0  0  0  0
 13 28  1  0  0  0  0
 14 15  1  0  0  0  0
 16 22  1  0  0  0  0
 16 17  1  0  0  0  0
 16 18  1  0  0  0  0
 17 29  1  0  0  0  0
 18 23  1  0  0  0  0
 18 19  1  0  0  0  0
 19 30  1  0  0  0  0
M  END
> <s_m_source_file>
AV-unprocessed.smi

> <i_m_source_file_index>
48

> <i_lp_mmshare_version>
43012

> <i_f3d_flags>
0

> <s_epik_input>
W09IXVtDSDJdW0NASF0xT1tDQEhdKFtDQEhdKFtPSF0pW0NAQEhdMVtPSF0pbihbY0hdbjIpYyhjMjMpbltjSF1uYzNDbA==

> <s_epik_cmdline>
J2VwaWtfcHl0aG9uJywgJy1waCcsICc3LjAnLCAnLXRuJywgJzgnLCAnLW1hJywgJzIwMCcsICctbWV0YWxfYmluZGluZycsICctaW1hZScsICc8aW5maWxlLm1hZT4nLCAnLW9tYWUnLCAnPG91dGZpbGUubWFlPic=

> <r_lp_tautomer_probability>
1

> <r_epik_Ionization_Penalty>
3.45505e-06

> <r_epik_Ionization_Penalty_Charging>
0

> <r_epik_Ionization_Penalty_Neutral>
3.45505e-06

> <r_epik_State_Penalty>
-0

> <r_epik_Charging_Adjusted_Penalty>
0

> <i_epik_Tot_Q>
0

> <i_epik_Tot_abs_Q>
0

> <r_epik_Metal_State_Penalty>
-0

> <b_epik_Metal_Only>
0

> <s_epik_Chemistry_Notes>
This compound contains an acetal/aminal-like group ( X-CH(R)-Y where X, Y are N, S, or O) that may be acid/base labile, releasing an aldehyde.

> <s_lp_Force_Field>
OPLS_2005

> <r_lp_Energy>
33.2989

> <b_lp_Chiralities_Consistent>
1

> <s_lp_Variant>
AV-unprocessed.smi:48-8

> <Gold.Version>
5.8.1

> <Gold.Id.Protein>
6NUR|6NUR_protein|mol2

> <Gold.PLP.Fitness>
44.8591

> <Gold.PLP.PLP>
-31.0609

> <Gold.PLP.part.hbond>
-6.9941

> <Gold.PLP.part.metal>
0.0000

> <Gold.PLP.part.buried>
0.2707

> <Gold.PLP.part.nonpolar>
-26.5003

> <Gold.PLP.part.repulsive>
2.8279

> <Gold.PLP.ligand.clash>
0.0000

> <Gold.PLP.ligand.torsion>
0.1977

> <Gold.PLP.Chemscore.Hbond>
4.6100

> <Gold.PLP.Chemscore.CHOScore>
0.1193

> <Gold.PLP.Chemscore.Metal>
0.0000

> <Gold.Chemscore.Hbonds>
donor molecule, donor type, donor heavy atom, donor atom, acceptor molecule, acceptor atom, score
      L1  H     1    24       P1  7948  0.94
      L1  H    17    29       P1  8028  1.00
      P1  H  7954  7966       L1     1  0.60
      P1  H  7989  7998       L1    14  1.00
      P1  H  7997  8010       L1    12  1.00
      L1  C     7    27       P1  8028  0.10

> <Gold.PLP.Chemscore.Internal.Correction>
0.0058

> <Gold.Rescore>
     Score         DG    S(hbond)    S(metal)    S(lipo)     H(rot)  DE(clash)    DE(int)     intcor
      8.49      -9.00       2.56        0.00      40.29       3.80       0.38       0.12       ----

> <Gold.Chemscore.Fitness>
8.4941

> <Gold.Chemscore.DG>
-8.9965

> <Gold.Chemscore.ZeroCoef>
-5.4800

> <Gold.Chemscore.Hbond>
2.5552

> <Gold.Chemscore.Metal>
0.0000

> <Gold.Chemscore.Lipo>
40.2944

> <Gold.Chemscore.Internal_Hbond>
0.0000

> <Gold.Chemscore.DEClash>
0.3822

> <Gold.Chemscore.DEInternal>
0.1202

> <Gold.Chemscore.Rot>
3.8017

> <Gold.Chemscore.Internal.Correction>
   9.000000E+99

> <Gold.Chemscore.Hbonds>
donor molecule, donor type, donor heavy atom, donor atom, acceptor molecule, acceptor atom, score
      L1  H     1    24       P1  7948  0.88
      L1  H    17    29       P1  8028  0.35
      P1  H  7954  7966       L1     1  0.04
      P1  H  7989  7998       L1    14  0.34
      P1  H  7997  8010       L1    12  0.10

> <Gold.Chemscore.Hbond.Weighted>
-8.5345

> <Gold.Chemscore.Metal.Weighted>
-0.0000

> <Gold.Chemscore.Lipo.Weighted>
-4.7144

> <Gold.Chemscore.Internal_Hbond.Weighted>
0.0000

> <Gold.Chemscore.DEClash.Weighted>
0.3822

> <Gold.Chemscore.DEInternal.Weighted>
0.1202

> <Gold.Chemscore.Rot.Weighted>
9.7324

> <Gold.Chemscore.Internal.Correction.Weighted>
   9.000000E+99

> <Gold.Protein.RotatedTorsions>
[ 6907 6896 6895 6894 ] final -136.61 input  -60.11 | X-H torsion
[ 7974 7965 7964 7962 ] final  174.31 input  175.53 | X-H torsion
[ 8008 7997 7996 7995 ] final   68.72 input   59.86 | X-H torsion
[ 10167 10162 10161 10158 ] final  -59.86 input  -65.29 | X-H torsion
[ 10718 10713 10712 10709 ] final -157.60 input   66.30 | X-H torsion
[ 10763 10752 10751 10750 ] final  -82.61 input  -60.55 | X-H torsion
[ 11005 11000 10999 10996 ] final -102.03 input  -57.11 | X-H torsion

> <Gold.Protein.ActiveResidues>
 VAL166  LYS551  ARG553  GLY616  TRP617  ASP618  TYR619  PRO620  LYS621  CYS622 
 ASP623  PHE694  ASN695  SER759  ASP760  ASP761  ALA762  ILE779  LEU786  VAL792 
 PHE793  MET794  SER795  GLU796  ALA797  LYS798  CYS799  TRP800  GLU811  SER814 

> <Gold.Protein.RotatedAtoms>
  151.0122  133.5954  159.2681 H   0  0  0  0  0  0  0  0  0  0  0  0  # atno 6907 bound_to 6896
  151.3102  135.0791  159.9279 H   0  0  0  0  0  0  0  0  0  0  0  0  # atno 6908 bound_to 6896
  152.5302  133.9788  159.7851 H   0  0  0  0  0  0  0  0  0  0  0  0  # atno 6909 bound_to 6896
  144.7224  139.9778  143.6438 H   0  0  0  0  0  0  0  0  0  0  0  0  # atno 7974 bound_to 7965
  155.7126  140.3494  155.4980 H   0  0  0  0  0  0  0  0  0  0  0  0  # atno 8008 bound_to 7997
  155.9342  140.1090  157.1130 H   0  0  0  0  0  0  0  0  0  0  0  0  # atno 8009 bound_to 7997
  154.4090  140.1225  156.4829 H   0  0  0  0  0  0  0  0  0  0  0  0  # atno 8010 bound_to 7997
  140.6108  143.2387  151.5714 H   0  0  0  0  0  0  0  0  0  0  0  0  # atno 10167 bound_to 10162
  156.5425  130.8569  151.2753 H   0  0  0  0  0  0  0  0  0  0  0  0  # atno 10718 bound_to 10713
  154.5778  135.5585  153.7156 H   0  0  0  0  0  0  0  0  0  0  0  0  # atno 10763 bound_to 10752
  153.0070  135.6312  154.2025 H   0  0  0  0  0  0  0  0  0  0  0  0  # atno 10764 bound_to 10752
  154.1965  135.2880  155.2985 H   0  0  0  0  0  0  0  0  0  0  0  0  # atno 10765 bound_to 10752
  141.1206  133.8526  157.1308 H   0  0  0  0  0  0  0  0  0  0  0  0  # atno 11005 bound_to 11000
  146.0512  139.3512  143.0638 LP  0  0  0  0  0  0  0  0  0  0  0  0  # atno 17320 bound_to 7965
  145.8213  140.9678  143.0897 LP  0  0  0  0  0  0  0  0  0  0  0  0  # atno 17321 bound_to 7965
  139.5360  144.2781  152.1251 LP  0  0  0  0  0  0  0  0  0  0  0  0  # atno 17342 bound_to 10162
  140.1980  144.4686  150.6446 LP  0  0  0  0  0  0  0  0  0  0  0  0  # atno 17343 bound_to 10162
  157.7403  130.9847  150.2367 LP  0  0  0  0  0  0  0  0  0  0  0  0  # atno 17370 bound_to 10713
  156.2959  130.3752  149.7797 LP  0  0  0  0  0  0  0  0  0  0  0  0  # atno 17371 bound_to 10713
  140.0161  134.9967  157.0495 LP  0  0  0  0  0  0  0  0  0  0  0  0  # atno 17394 bound_to 11000
  140.4518  134.1574  155.7182 LP  0  0  0  0  0  0  0  0  0  0  0  0  # atno 17395 bound_to 11000

$$$$
