AV-unprocessed.smi:2844|AV-procd|sdf|10940|dock7
  -GOLD-   2272015383D 1   1.00000     0.00000
 Structure written by MMmdl.
 38 40  0  0  0  0  0  0  0  0  1 V2000
  153.8753  141.7851  162.0920 C   0  0  0  0  0  0  0  0  0  0  0  0
  153.1694  141.7621  160.7478 C   0  0  0  0  0  0  0  0  0  0  0  0
  153.3452  140.6462  159.8989 C   0  0  0  0  0  0  0  0  0  0  0  0
  152.7051  140.5847  158.6417 C   0  0  0  0  0  0  0  0  0  0  0  0
  152.7330  139.6032  157.6658 N   0  0  0  0  0  0  0  0  0  0  0  0
  151.9383  140.1267  156.7369 C   0  0  0  0  0  0  0  0  0  0  0  0
  151.3989  141.3336  156.9955 N   0  0  0  0  0  0  0  0  0  0  0  0
  150.5086  142.0992  156.1416 C   0  0  0  0  0  0  0  0  0  0  0  0
  149.1622  141.3884  155.9070 C   0  0  1  0  0  0  0  0  0  0  0  0
  148.0974  142.2612  156.2388 O   0  0  0  0  0  0  0  0  0  0  0  0
  149.0112  140.9100  154.4500 C   0  0  0  0  0  0  0  0  0  0  0  0
  147.8712  140.0300  154.2625 N   0  0  0  0  0  0  0  0  0  0  0  0
  147.7568  138.9508  153.4074 C   0  0  0  0  0  0  0  0  0  0  0  0
  146.5024  138.4613  153.6077 C   0  0  0  0  0  0  0  0  0  0  0  0
  145.7834  137.1090  152.8145 Cl  0  0  0  0  0  0  0  0  0  0  0  0
  145.9050  139.2822  154.5976 C   0  0  0  0  0  0  0  0  0  0  0  0
  146.7437  140.2294  154.9924 N   0  0  0  0  0  0  0  0  0  0  0  0
  151.8793  141.6799  158.2533 C   0  0  0  0  0  0  0  0  0  0  0  0
  151.6980  142.7967  159.0882 C   0  0  0  0  0  0  0  0  0  0  0  0
  152.3432  142.8410  160.3419 C   0  0  0  0  0  0  0  0  0  0  0  0
  152.1392  144.0494  161.2384 C   0  0  0  0  0  0  0  0  0  0  0  0
  154.4417  140.8686  162.2601 H   0  0  0  0  0  0  0  0  0  0  0  0
  153.1528  141.8840  162.9023 H   0  0  0  0  0  0  0  0  0  0  0  0
  154.5713  142.6226  162.1430 H   0  0  0  0  0  0  0  0  0  0  0  0
  153.9749  139.8246  160.2073 H   0  0  0  0  0  0  0  0  0  0  0  0
  151.7379  139.6038  155.8130 H   0  0  0  0  0  0  0  0  0  0  0  0
  150.3517  143.0812  156.5902 H   0  0  0  0  0  0  0  0  0  0  0  0
  151.0149  142.2688  155.1907 H   0  0  0  0  0  0  0  0  0  0  0  0
  149.0995  140.5248  156.5706 H   0  0  0  0  0  0  0  0  0  0  0  0
  148.2018  143.0638  155.7515 H   0  0  0  0  0  0  0  0  0  0  0  0
  148.9039  141.7635  153.7791 H   0  0  0  0  0  0  0  0  0  0  0  0
  149.9090  140.3768  154.1339 H   0  0  0  0  0  0  0  0  0  0  0  0
  148.5540  138.6372  152.7500 H   0  0  0  0  0  0  0  0  0  0  0  0
  144.9183  139.2241  155.0330 H   0  0  0  0  0  0  0  0  0  0  0  0
  151.0670  143.6117  158.7653 H   0  0  0  0  0  0  0  0  0  0  0  0
  151.4882  144.7877  160.7694 H   0  0  0  0  0  0  0  0  0  0  0  0
  153.0926  144.5326  161.4528 H   0  0  0  0  0  0  0  0  0  0  0  0
  151.6814  143.7513  162.1819 H   0  0  0  0  0  0  0  0  0  0  0  0
  1  2  1  0  0  0  0
  1 22  1  0  0  0  0
  1 23  1  0  0  0  0
  1 24  1  0  0  0  0
  2 20  1  0  0  0  0
  2  3  2  0  0  0  0
  3  4  1  0  0  0  0
  3 25  1  0  0  0  0
  4 18  2  0  0  0  0
  4  5  1  0  0  0  0
  5  6  2  0  0  0  0
  6  7  1  0  0  0  0
  6 26  1  0  0  0  0
  7  8  1  0  0  0  0
  7 18  1  0  0  0  0
  8  9  1  0  0  0  0
  8 27  1  0  0  0  0
  8 28  1  0  0  0  0
  9 10  1  0  0  0  0
  9 11  1  0  0  0  0
  9 29  1  0  0  0  0
 10 30  1  0  0  0  0
 11 12  1  0  0  0  0
 11 31  1  0  0  0  0
 11 32  1  0  0  0  0
 12 17  1  0  0  0  0
 12 13  1  0  0  0  0
 13 14  2  0  0  0  0
 13 33  1  0  0  0  0
 14 15  1  0  0  0  0
 14 16  1  0  0  0  0
 16 17  2  0  0  0  0
 16 34  1  0  0  0  0
 18 19  1  0  0  0  0
 19 20  2  0  0  0  0
 19 35  1  0  0  0  0
 20 21  1  0  0  0  0
 21 36  1  0  0  0  0
 21 37  1  0  0  0  0
 21 38  1  0  0  0  0
M  END
> <s_m_source_file>
AV-unprocessed.smi

> <i_m_source_file_index>
2844

> <i_lp_mmshare_version>
43012

> <i_f3d_flags>
0

> <s_epik_input>
W0NIM11jKFtjSF0xKWMoW0NIM10pW2NIXWMoYzEyKW4oW2NIXW4yKVtDSDJdW0NASF0oW09IXSlbQ0gyXW4zW2NIXWMoQ2wpW2NIXW4z

> <s_epik_cmdline>
J2VwaWtfcHl0aG9uJywgJy1waCcsICc3LjAnLCAnLXRuJywgJzgnLCAnLW1hJywgJzIwMCcsICctbWV0YWxfYmluZGluZycsICctaW1hZScsICc8aW5maWxlLm1hZT4nLCAnLW9tYWUnLCAnPG91dGZpbGUubWFlPic=

> <r_lp_tautomer_probability>
1

> <r_epik_Ionization_Penalty>
0.1021

> <r_epik_Ionization_Penalty_Charging>
0

> <r_epik_Ionization_Penalty_Neutral>
0.1021

> <r_epik_State_Penalty>
0.0920694

> <r_epik_Charging_Adjusted_Penalty>
0.0920694

> <i_epik_Tot_Q>
0

> <i_epik_Tot_abs_Q>
0

> <r_epik_Metal_State_Penalty>
0.0784292

> <b_epik_Metal_Only>
0

> <s_lp_Force_Field>
OPLS_2005

> <r_lp_Energy>
10.226

> <b_lp_Chiralities_Consistent>
1

> <s_lp_Variant>
AV-unprocessed.smi:2844-2

> <Gold.Version>
5.8.1

> <Gold.Id.Protein>
6NUR|6NUR_protein|mol2

> <Gold.PLP.Fitness>
48.9167

> <Gold.PLP.PLP>
-40.1582

> <Gold.PLP.part.hbond>
-2.0000

> <Gold.PLP.part.metal>
0.0000

> <Gold.PLP.part.buried>
-2.7064

> <Gold.PLP.part.nonpolar>
-35.9641

> <Gold.PLP.part.repulsive>
0.0612

> <Gold.PLP.ligand.clash>
0.0000

> <Gold.PLP.ligand.torsion>
1.1378

> <Gold.PLP.Chemscore.Hbond>
1.8920

> <Gold.PLP.Chemscore.CHOScore>
1.7765

> <Gold.PLP.Chemscore.Metal>
0.0000

> <Gold.Chemscore.Hbonds>
donor molecule, donor type, donor heavy atom, donor atom, acceptor molecule, acceptor atom, score
      L1  H    10    30       P1  8028  0.99
      P1  H  7997  8009       L1     5  0.85
      L1  C    13    33       P1  7948  0.87
      L1  C    13    33       P1  7957  0.90

> <Gold.PLP.Chemscore.Internal.Correction>
0.0284

> <Gold.Rescore>
     Score         DG    S(hbond)    S(metal)    S(lipo)     H(rot)  DE(clash)    DE(int)     intcor
     14.31     -16.99       0.97        0.00     117.87       2.15       0.05       2.63       ----

> <Gold.Chemscore.Fitness>
14.3104

> <Gold.Chemscore.DG>
-16.9890

> <Gold.Chemscore.ZeroCoef>
-5.4800

> <Gold.Chemscore.Hbond>
0.9675

> <Gold.Chemscore.Metal>
0.0000

> <Gold.Chemscore.Lipo>
117.8653

> <Gold.Chemscore.Internal_Hbond>
0.0000

> <Gold.Chemscore.DEClash>
0.0505

> <Gold.Chemscore.DEInternal>
2.6280

> <Gold.Chemscore.Rot>
2.1534

> <Gold.Chemscore.Internal.Correction>
   9.000000E+99

> <Gold.Chemscore.Hbonds>
donor molecule, donor type, donor heavy atom, donor atom, acceptor molecule, acceptor atom, score
      L1  H    10    30       P1  8028  0.82
      P1  H  7997  8009       L1     5  0.04

> <Gold.Chemscore.Hbond.Weighted>
-3.2314

> <Gold.Chemscore.Metal.Weighted>
-0.0000

> <Gold.Chemscore.Lipo.Weighted>
-13.7902

> <Gold.Chemscore.Internal_Hbond.Weighted>
0.0000

> <Gold.Chemscore.DEClash.Weighted>
0.0505

> <Gold.Chemscore.DEInternal.Weighted>
2.6280

> <Gold.Chemscore.Rot.Weighted>
5.5127

> <Gold.Chemscore.Internal.Correction.Weighted>
   9.000000E+99

> <Gold.Protein.RotatedTorsions>
[ 6907 6896 6895 6894 ] final  -23.24 input  -60.11 | X-H torsion
[ 7974 7965 7964 7962 ] final    5.51 input  175.53 | X-H torsion
[ 8008 7997 7996 7995 ] final  163.19 input   59.86 | X-H torsion
[ 10167 10162 10161 10158 ] final   10.99 input  -65.29 | X-H torsion
[ 10718 10713 10712 10709 ] final   36.96 input   66.30 | X-H torsion
[ 10763 10752 10751 10750 ] final -144.19 input  -60.55 | X-H torsion
[ 11005 11000 10999 10996 ] final   85.28 input  -57.11 | X-H torsion

> <Gold.Protein.ActiveResidues>
 VAL166  LYS551  ARG553  GLY616  TRP617  ASP618  TYR619  PRO620  LYS621  CYS622 
 ASP623  PHE694  ASN695  SER759  ASP760  ASP761  ALA762  ILE779  LEU786  VAL792 
 PHE793  MET794  SER795  GLU796  ALA797  LYS798  CYS799  TRP800  GLU811  SER814 

> <Gold.Protein.RotatedAtoms>
  151.2068  135.0465  159.8894 H   0  0  0  0  0  0  0  0  0  0  0  0  # atno 6907 bound_to 6896
  152.5428  134.0789  159.8237 H   0  0  0  0  0  0  0  0  0  0  0  0  # atno 6908 bound_to 6896
  151.0937  133.5249  159.2645 H   0  0  0  0  0  0  0  0  0  0  0  0  # atno 6909 bound_to 6896
  146.2440  140.0374  142.8385 H   0  0  0  0  0  0  0  0  0  0  0  0  # atno 7974 bound_to 7965
  156.1976  140.1730  156.7966 H   0  0  0  0  0  0  0  0  0  0  0  0  # atno 8008 bound_to 7997
  154.5549  140.0710  156.8759 H   0  0  0  0  0  0  0  0  0  0  0  0  # atno 8009 bound_to 7997
  155.2957  140.3358  155.4252 H   0  0  0  0  0  0  0  0  0  0  0  0  # atno 8010 bound_to 7997
  140.6160  143.8307  150.7119 H   0  0  0  0  0  0  0  0  0  0  0  0  # atno 10167 bound_to 10162
  157.3412  130.7549  149.6913 H   0  0  0  0  0  0  0  0  0  0  0  0  # atno 10718 bound_to 10713
  154.8439  135.3447  154.6306 H   0  0  0  0  0  0  0  0  0  0  0  0  # atno 10763 bound_to 10752
  153.6916  135.6974  153.5093 H   0  0  0  0  0  0  0  0  0  0  0  0  # atno 10764 bound_to 10752
  153.2591  135.4329  155.0831 H   0  0  0  0  0  0  0  0  0  0  0  0  # atno 10765 bound_to 10752
  139.8976  134.8275  156.2560 H   0  0  0  0  0  0  0  0  0  0  0  0  # atno 11005 bound_to 11000
  145.1100  140.9399  143.4662 LP  0  0  0  0  0  0  0  0  0  0  0  0  # atno 17320 bound_to 7965
  145.0585  139.3124  143.5892 LP  0  0  0  0  0  0  0  0  0  0  0  0  # atno 17321 bound_to 7965
  140.1886  143.4055  152.1880 LP  0  0  0  0  0  0  0  0  0  0  0  0  # atno 17342 bound_to 10162
  139.5399  144.7246  151.4769 LP  0  0  0  0  0  0  0  0  0  0  0  0  # atno 17343 bound_to 10162
  155.9708  130.4167  150.4244 LP  0  0  0  0  0  0  0  0  0  0  0  0  # atno 17370 bound_to 10713
  157.2292  131.0500  151.2502 LP  0  0  0  0  0  0  0  0  0  0  0  0  # atno 17371 bound_to 10713
  141.0193  133.7050  156.1241 LP  0  0  0  0  0  0  0  0  0  0  0  0  # atno 17394 bound_to 11000
  140.7256  134.4310  157.5571 LP  0  0  0  0  0  0  0  0  0  0  0  0  # atno 17395 bound_to 11000

$$$$
