AV-unprocessed.smi:1816|AV-procd|sdf|7365|dock5
  -GOLD-   22720 9 33D 1   1.00000     0.00000
 Structure written by MMmdl.
 36 37  0  0  0  0  0  0  0  0  2 V2000
  146.4905  141.6933  155.4644 C   0  0  0  0  0  0  0  0  0  0  0  0
  147.1238  141.5316  154.0637 C   0  0  1  0  0  0  0  0  0  0  0  0
  148.6431  141.2585  154.1748 C   0  0  0  0  0  0  0  0  0  0  0  0
  149.2764  142.0939  155.1905 N   0  0  0  0  0  0  0  0  0  0  0  0
  150.1149  141.6461  156.1353 C   0  0  0  0  0  0  0  0  0  0  0  0
  150.4566  140.4674  156.2340 O   0  0  0  0  0  0  0  0  0  0  0  0
  150.5204  142.6438  156.9404 N   0  0  0  0  0  0  0  0  0  0  0  0
  151.3722  142.5652  158.0735 C   0  0  0  0  0  0  0  0  0  0  0  0
  151.6938  141.4264  158.6981 N   0  0  0  0  0  0  0  0  0  0  0  0
  152.5415  141.6469  159.7866 C   0  0  0  0  0  0  0  0  0  0  0  0
  152.8570  142.9691  159.9775 C   0  0  0  0  0  0  0  0  0  0  0  0
  152.0974  143.9961  158.7911 S   0  0  0  0  0  0  0  0  0  0  0  0
  146.4408  140.4522  153.2912 N   0  3  0  0  0  0  0  0  0  0  0  0
  147.0091  140.1754  151.9538 C   0  0  0  0  0  0  0  0  0  0  0  0
  146.5035  138.7872  151.5556 C   0  0  0  0  0  0  0  0  0  0  0  0
  146.1016  138.1063  152.8662 C   0  0  0  0  0  0  0  0  0  0  0  0
  146.3738  139.1368  153.9651 C   0  0  0  0  0  0  0  0  0  0  0  0
  146.9785  142.4781  156.0423 H   0  0  0  0  0  0  0  0  0  0  0  0
  146.5631  140.7691  156.0389 H   0  0  0  0  0  0  0  0  0  0  0  0
  145.4381  141.9706  155.4091 H   0  0  0  0  0  0  0  0  0  0  0  0
  146.9849  142.4687  153.5218 H   0  0  0  0  0  0  0  0  0  0  0  0
  148.8046  140.2013  154.3940 H   0  0  0  0  0  0  0  0  0  0  0  0
  149.1512  141.4672  153.2334 H   0  0  0  0  0  0  0  0  0  0  0  0
  149.0536  143.0786  155.1786 H   0  0  0  0  0  0  0  0  0  0  0  0
  150.1692  143.5658  156.7276 H   0  0  0  0  0  0  0  0  0  0  0  0
  152.8720  140.8031  160.3741 H   0  0  0  0  0  0  0  0  0  0  0  0
  153.4868  143.3995  160.7419 H   0  0  0  0  0  0  0  0  0  0  0  0
  146.7211  140.9321  151.2233 H   0  0  0  0  0  0  0  0  0  0  0  0
  148.0985  140.1622  152.0169 H   0  0  0  0  0  0  0  0  0  0  0  0
  145.6343  138.8742  150.9022 H   0  0  0  0  0  0  0  0  0  0  0  0
  147.2651  138.2238  151.0153 H   0  0  0  0  0  0  0  0  0  0  0  0
  145.0418  137.8491  152.8405 H   0  0  0  0  0  0  0  0  0  0  0  0
  146.6589  137.1846  153.0374 H   0  0  0  0  0  0  0  0  0  0  0  0
  147.3334  138.9201  154.4377 H   0  0  0  0  0  0  0  0  0  0  0  0
  145.6039  139.1125  154.7367 H   0  0  0  0  0  0  0  0  0  0  0  0
  145.4856  140.7447  153.1406 H   0  0  0  0  0  0  0  0  0  0  0  0
  1  2  1  0  0  0  0
  1 18  1  0  0  0  0
  1 19  1  0  0  0  0
  1 20  1  0  0  0  0
  2  3  1  0  0  0  0
  2 13  1  0  0  0  0
  2 21  1  0  0  0  0
  3  4  1  0  0  0  0
  3 22  1  0  0  0  0
  3 23  1  0  0  0  0
  4  5  1  0  0  0  0
  4 24  1  0  0  0  0
  5  6  2  0  0  0  0
  5  7  1  0  0  0  0
  7  8  1  0  0  0  0
  7 25  1  0  0  0  0
  8 12  1  0  0  0  0
  8  9  2  0  0  0  0
  9 10  1  0  0  0  0
 10 11  2  0  0  0  0
 10 26  1  0  0  0  0
 11 12  1  0  0  0  0
 11 27  1  0  0  0  0
 13 17  1  0  0  0  0
 13 14  1  0  0  0  0
 13 36  1  0  0  0  0
 14 15  1  0  0  0  0
 14 28  1  0  0  0  0
 14 29  1  0  0  0  0
 15 16  1  0  0  0  0
 15 30  1  0  0  0  0
 15 31  1  0  0  0  0
 16 17  1  0  0  0  0
 16 32  1  0  0  0  0
 16 33  1  0  0  0  0
 17 34  1  0  0  0  0
 17 35  1  0  0  0  0
M  CHG  1  13   1
M  END
> <s_m_source_file>
AV-unprocessed.smi

> <i_m_source_file_index>
1816

> <i_lp_mmshare_version>
43012

> <i_f3d_flags>
0

> <s_epik_input>
W0NIMl0xW0NIMl1bQ0gyXVtDSDJdTjFbQ0BIXShbQ0gzXSlbQ0gyXVtOSF1DKD1PKVtOSF1jMm5bY0hdW2NIXXMy

> <s_epik_cmdline>
J2VwaWtfcHl0aG9uJywgJy1waCcsICc3LjAnLCAnLXRuJywgJzgnLCAnLW1hJywgJzIwMCcsICctbWV0YWxfYmluZGluZycsICctaW1hZScsICc8aW5maWxlLm1hZT4nLCAnLW9tYWUnLCAnPG91dGZpbGUubWFlPic=

> <r_lp_tautomer_probability>
0.999

> <r_epik_Ionization_Penalty>
0.000988651

> <r_epik_Ionization_Penalty_Charging>
0.000848324

> <r_epik_Ionization_Penalty_Neutral>
0.000140327

> <r_epik_State_Penalty>
0.000546901

> <r_epik_Charging_Adjusted_Penalty>
0.00139523

> <i_epik_Tot_Q>
1

> <i_epik_Tot_abs_Q>
1

> <r_epik_Metal_State_Penalty>
0.0571994

> <b_epik_Metal_Only>
0

> <s_lp_Force_Field>
OPLS_2005

> <r_lp_Energy>
29.703

> <b_lp_Chiralities_Consistent>
1

> <s_lp_Variant>
AV-unprocessed.smi:1816-2

> <Gold.Version>
5.8.1

> <Gold.Id.Protein>
6NUR|6NUR_protein|mol2

> <Gold.PLP.Fitness>
48.3906

> <Gold.PLP.PLP>
-36.9808

> <Gold.PLP.part.hbond>
-3.0000

> <Gold.PLP.part.metal>
0.0000

> <Gold.PLP.part.buried>
-1.0723

> <Gold.PLP.part.nonpolar>
-33.9105

> <Gold.PLP.part.repulsive>
0.3140

> <Gold.PLP.ligand.clash>
0.0000

> <Gold.PLP.ligand.torsion>
0.2818

> <Gold.PLP.Chemscore.Hbond>
3.9760

> <Gold.PLP.Chemscore.CHOScore>
0.0000

> <Gold.PLP.Chemscore.Metal>
0.0000

> <Gold.Chemscore.Hbonds>
donor molecule, donor type, donor heavy atom, donor atom, acceptor molecule, acceptor atom, score
      L1  H     4    24       P1  8028  1.00
      L1  H     7    25       P1  8028  0.99
      L1  H    13    36       P1 10175  2.00

> <Gold.PLP.Chemscore.Internal.Correction>
0.0453

> <Gold.Rescore>
     Score         DG    S(hbond)    S(metal)    S(lipo)     H(rot)  DE(clash)    DE(int)     intcor
     18.25     -20.16       2.93        0.00      76.87       1.60       0.26       1.65       ----

> <Gold.Chemscore.Fitness>
18.2522

> <Gold.Chemscore.DG>
-20.1569

> <Gold.Chemscore.ZeroCoef>
-5.4800

> <Gold.Chemscore.Hbond>
2.9300

> <Gold.Chemscore.Metal>
0.0000

> <Gold.Chemscore.Lipo>
76.8748

> <Gold.Chemscore.Internal_Hbond>
0.0000

> <Gold.Chemscore.DEClash>
0.2575

> <Gold.Chemscore.DEInternal>
1.6472

> <Gold.Chemscore.Rot>
1.6029

> <Gold.Chemscore.Internal.Correction>
   9.000000E+99

> <Gold.Chemscore.Hbonds>
donor molecule, donor type, donor heavy atom, donor atom, acceptor molecule, acceptor atom, score
      L1  H     4    24       P1  8028  1.00
      L1  H     7    25       P1  8028  0.88
      L1  H    13    36       P1 10175  0.68

> <Gold.Chemscore.Hbond.Weighted>
-9.7861

> <Gold.Chemscore.Metal.Weighted>
-0.0000

> <Gold.Chemscore.Lipo.Weighted>
-8.9943

> <Gold.Chemscore.Internal_Hbond.Weighted>
0.0000

> <Gold.Chemscore.DEClash.Weighted>
0.2575

> <Gold.Chemscore.DEInternal.Weighted>
1.6472

> <Gold.Chemscore.Rot.Weighted>
4.1035

> <Gold.Chemscore.Internal.Correction.Weighted>
   9.000000E+99

> <Gold.Protein.RotatedTorsions>
[ 6907 6896 6895 6894 ] final  -72.17 input  -60.11 | X-H torsion
[ 7974 7965 7964 7962 ] final -120.20 input  175.53 | X-H torsion
[ 8008 7997 7996 7995 ] final    7.52 input   59.86 | X-H torsion
[ 10167 10162 10161 10158 ] final -147.41 input  -65.29 | X-H torsion
[ 10718 10713 10712 10709 ] final  151.25 input   66.30 | X-H torsion
[ 10763 10752 10751 10750 ] final   27.09 input  -60.55 | X-H torsion
[ 11005 11000 10999 10996 ] final   63.87 input  -57.11 | X-H torsion

> <Gold.Protein.ActiveResidues>
 VAL166  LYS551  ARG553  GLY616  TRP617  ASP618  TYR619  PRO620  LYS621  CYS622 
 ASP623  PHE694  ASN695  SER759  ASP760  ASP761  ALA762  ILE779  LEU786  VAL792 
 PHE793  MET794  SER795  GLU796  ALA797  LYS798  CYS799  TRP800  GLU811  SER814 

> <Gold.Protein.RotatedAtoms>
  150.7181  134.5202  159.5649 H   0  0  0  0  0  0  0  0  0  0  0  0  # atno 6907 bound_to 6896
  152.2758  134.7880  160.0415 H   0  0  0  0  0  0  0  0  0  0  0  0  # atno 6908 bound_to 6896
  151.8543  133.3410  159.3720 H   0  0  0  0  0  0  0  0  0  0  0  0  # atno 6909 bound_to 6896
  145.0540  140.8240  143.4192 H   0  0  0  0  0  0  0  0  0  0  0  0  # atno 7974 bound_to 7965
  154.7549  140.2774  155.6262 H   0  0  0  0  0  0  0  0  0  0  0  0  # atno 8008 bound_to 7997
  156.2903  140.2671  156.2239 H   0  0  0  0  0  0  0  0  0  0  0  0  # atno 8009 bound_to 7997
  155.0090  140.0372  157.2381 H   0  0  0  0  0  0  0  0  0  0  0  0  # atno 8010 bound_to 7997
  139.7624  143.8357  152.2609 H   0  0  0  0  0  0  0  0  0  0  0  0  # atno 10167 bound_to 10162
  157.2731  131.0821  151.1585 H   0  0  0  0  0  0  0  0  0  0  0  0  # atno 10718 bound_to 10713
  153.0579  135.6545  154.0533 H   0  0  0  0  0  0  0  0  0  0  0  0  # atno 10763 bound_to 10752
  154.0207  135.2920  155.3382 H   0  0  0  0  0  0  0  0  0  0  0  0  # atno 10764 bound_to 10752
  154.6903  135.5285  153.8451 H   0  0  0  0  0  0  0  0  0  0  0  0  # atno 10765 bound_to 10752
  139.9996  134.6463  155.9953 H   0  0  0  0  0  0  0  0  0  0  0  0  # atno 11005 bound_to 11000
  145.1492  139.2525  143.5450 LP  0  0  0  0  0  0  0  0  0  0  0  0  # atno 17320 bound_to 7965
  146.3520  140.1189  142.8601 LP  0  0  0  0  0  0  0  0  0  0  0  0  # atno 17321 bound_to 7965
  139.8367  144.7229  150.9382 LP  0  0  0  0  0  0  0  0  0  0  0  0  # atno 17342 bound_to 10162
  140.7808  143.4020  151.1133 LP  0  0  0  0  0  0  0  0  0  0  0  0  # atno 17343 bound_to 10162
  157.3049  130.6861  149.6184 LP  0  0  0  0  0  0  0  0  0  0  0  0  # atno 17370 bound_to 10713
  155.9663  130.4381  150.5203 LP  0  0  0  0  0  0  0  0  0  0  0  0  # atno 17371 bound_to 10713
  141.1631  133.6538  156.4388 LP  0  0  0  0  0  0  0  0  0  0  0  0  # atno 17394 bound_to 11000
  140.4753  134.6715  157.5147 LP  0  0  0  0  0  0  0  0  0  0  0  0  # atno 17395 bound_to 11000

$$$$
