AV-unprocessed.smi:2973|AV-procd|sdf|11344|dock8
  -GOLD-   2272016253D 1   1.00000     0.00000
 Structure written by MMmdl.
 50 52  0  0  0  0  0  0  0  0  2 V2000
  151.6277  138.2519  158.2446 C   0  0  0  0  0  0  0  0  0  0  0  0
  151.3488  139.7490  158.4943 C   0  0  1  0  0  0  0  0  0  0  0  0
  152.6591  140.5648  158.4475 C   0  0  0  0  0  0  0  0  0  0  0  0
  152.4197  142.0430  158.7922 C   0  0  0  0  0  0  0  0  0  0  0  0
  151.3670  142.6721  157.8689 C   0  0  0  0  0  0  0  0  0  0  0  0
  150.0514  141.8738  157.8997 C   0  0  0  0  0  0  0  0  0  0  0  0
  150.2448  140.3697  157.5805 C   0  0  2  0  0  0  0  0  0  0  0  0
  148.9796  139.6728  157.7370 N   0  0  0  0  0  0  0  0  0  0  0  0
  148.5212  139.1467  156.5949 C   0  0  0  0  0  0  0  0  0  0  0  0
  147.4649  138.5287  156.4720 O   0  0  0  0  0  0  0  0  0  0  0  0
  149.4092  139.4125  155.6211 N   0  0  0  0  0  0  0  0  0  0  0  0
  149.2352  139.0137  154.2186 C   0  0  0  0  0  0  0  0  0  0  0  0
  147.7678  139.0256  153.7682 C   0  0  0  0  0  0  0  0  0  0  0  0
  146.9464  139.7719  154.3031 O   0  0  0  0  0  0  0  0  0  0  0  0
  147.4552  138.1910  152.7658 N   0  0  0  0  0  0  0  0  0  0  0  0
  146.1261  138.0392  152.1863 C   0  0  0  0  0  0  0  0  0  0  0  0
  146.1620  137.2175  150.8864 C   0  0  0  0  0  0  0  0  0  0  0  0
  145.6722  135.7978  151.0915 C   0  0  0  0  0  0  0  0  0  0  0  0
  144.4300  135.3527  150.5893 C   0  0  0  0  0  0  0  0  0  0  0  0
  144.0372  134.0159  150.8093 C   0  0  0  0  0  0  0  0  0  0  0  0
  144.8939  133.1536  151.5249 C   0  0  0  0  0  0  0  0  0  0  0  0
  146.1243  133.6502  152.0016 C   0  0  0  0  0  0  0  0  0  0  0  0
  146.4654  134.9368  151.7695 N   0  3  0  0  0  0  0  0  0  0  0  0
  150.4470  140.1229  156.0835 C   0  0  0  0  0  0  0  0  0  0  0  0
  151.4111  140.5246  155.4318 O   0  0  0  0  0  0  0  0  0  0  0  0
  152.0511  138.0776  157.2552 H   0  0  0  0  0  0  0  0  0  0  0  0
  150.7213  137.6528  158.3310 H   0  0  0  0  0  0  0  0  0  0  0  0
  152.3387  137.8646  158.9747 H   0  0  0  0  0  0  0  0  0  0  0  0
  150.9777  139.8162  159.5183 H   0  0  0  0  0  0  0  0  0  0  0  0
  153.3796  140.1470  159.1513 H   0  0  0  0  0  0  0  0  0  0  0  0
  153.1211  140.4866  157.4632 H   0  0  0  0  0  0  0  0  0  0  0  0
  152.0914  142.1272  159.8290 H   0  0  0  0  0  0  0  0  0  0  0  0
  153.3555  142.5977  158.7195 H   0  0  0  0  0  0  0  0  0  0  0  0
  151.1792  143.7021  158.1729 H   0  0  0  0  0  0  0  0  0  0  0  0
  151.7545  142.7246  156.8516 H   0  0  0  0  0  0  0  0  0  0  0  0
  149.6020  141.9759  158.8885 H   0  0  0  0  0  0  0  0  0  0  0  0
  149.3415  142.3239  157.2033 H   0  0  0  0  0  0  0  0  0  0  0  0
  148.4965  139.6140  158.6216 H   0  0  0  0  0  0  0  0  0  0  0  0
  149.8036  139.6735  153.5611 H   0  0  0  0  0  0  0  0  0  0  0  0
  149.6526  138.0162  154.0692 H   0  0  0  0  0  0  0  0  0  0  0  0
  148.1925  137.6193  152.3785 H   0  0  0  0  0  0  0  0  0  0  0  0
  145.4555  137.5765  152.9125 H   0  0  0  0  0  0  0  0  0  0  0  0
  145.7303  139.0356  151.9884 H   0  0  0  0  0  0  0  0  0  0  0  0
  145.5475  137.6973  150.1231 H   0  0  0  0  0  0  0  0  0  0  0  0
  147.1762  137.1832  150.4861 H   0  0  0  0  0  0  0  0  0  0  0  0
  143.7861  136.0250  150.0405 H   0  0  0  0  0  0  0  0  0  0  0  0
  143.0906  133.6563  150.4333 H   0  0  0  0  0  0  0  0  0  0  0  0
  144.6115  132.1264  151.7041 H   0  0  0  0  0  0  0  0  0  0  0  0
  146.8404  133.0624  152.5572 H   0  0  0  0  0  0  0  0  0  0  0  0
  147.3605  135.2745  152.1240 H   0  0  0  0  0  0  0  0  0  0  0  0
  1  2  1  0  0  0  0
  1 26  1  0  0  0  0
  1 27  1  0  0  0  0
  1 28  1  0  0  0  0
  2  7  1  0  0  0  0
  2  3  1  0  0  0  0
  2 29  1  0  0  0  0
  3  4  1  0  0  0  0
  3 30  1  0  0  0  0
  3 31  1  0  0  0  0
  4  5  1  0  0  0  0
  4 32  1  0  0  0  0
  4 33  1  0  0  0  0
  5  6  1  0  0  0  0
  5 34  1  0  0  0  0
  5 35  1  0  0  0  0
  6  7  1  0  0  0  0
  6 36  1  0  0  0  0
  6 37  1  0  0  0  0
  7 24  1  0  0  0  0
  7  8  1  0  0  0  0
  8  9  1  0  0  0  0
  8 38  1  0  0  0  0
  9 10  2  0  0  0  0
  9 11  1  0  0  0  0
 11 12  1  0  0  0  0
 11 24  1  0  0  0  0
 12 13  1  0  0  0  0
 12 39  1  0  0  0  0
 12 40  1  0  0  0  0
 13 14  2  0  0  0  0
 13 15  1  0  0  0  0
 15 16  1  0  0  0  0
 15 41  1  0  0  0  0
 16 17  1  0  0  0  0
 16 42  1  0  0  0  0
 16 43  1  0  0  0  0
 17 18  1  0  0  0  0
 17 44  1  0  0  0  0
 17 45  1  0  0  0  0
 18 23  1  0  0  0  0
 18 19  2  0  0  0  0
 19 20  1  0  0  0  0
 19 46  1  0  0  0  0
 20 21  2  0  0  0  0
 20 47  1  0  0  0  0
 21 22  1  0  0  0  0
 21 48  1  0  0  0  0
 22 23  2  0  0  0  0
 22 49  1  0  0  0  0
 23 50  1  0  0  0  0
 24 25  2  0  0  0  0
M  CHG  1  23   1
M  END
> <s_m_source_file>
AV-unprocessed.smi

> <i_m_source_file_index>
2973

> <i_lp_mmshare_version>
43012

> <i_f3d_flags>
0

> <s_epik_input>
W0NIMl0xW0NIMl1bQ0gyXVtDSDJdW0NAQEhdKFtDSDNdKVtDQF0xMltOSF1DKD1PKU4oQzI9TylbQ0gyXUMoPU8pW05IXVtDSDJdW0NIMl1jM1tjSF1bY0hdW2NIXVtjSF1uMw==

> <s_epik_cmdline>
J2VwaWtfcHl0aG9uJywgJy1waCcsICc3LjAnLCAnLXRuJywgJzgnLCAnLW1hJywgJzIwMCcsICctbWV0YWxfYmluZGluZycsICctaW1hZScsICc8aW5maWxlLm1hZT4nLCAnLW9tYWUnLCAnPG91dGZpbGUubWFlPic=

> <r_lp_tautomer_probability>
1

> <r_epik_Ionization_Penalty>
1.90043

> <r_epik_Ionization_Penalty_Charging>
1.90039

> <r_epik_Ionization_Penalty_Neutral>
4.65525e-05

> <r_epik_State_Penalty>
2.02162

> <r_epik_Charging_Adjusted_Penalty>
3.922

> <i_epik_Tot_Q>
1

> <i_epik_Tot_abs_Q>
1

> <r_epik_Metal_State_Penalty>
2.06631

> <b_epik_Metal_Only>
0

> <s_lp_Force_Field>
OPLS_2005

> <r_lp_Energy>
22.9905

> <b_lp_Chiralities_Consistent>
1

> <s_lp_Variant>
AV-unprocessed.smi:2973-8

> <Gold.Version>
5.8.1

> <Gold.Id.Protein>
6NUR|6NUR_protein|mol2

> <Gold.PLP.Fitness>
45.6302

> <Gold.PLP.PLP>
-36.6205

> <Gold.PLP.part.hbond>
-3.5298

> <Gold.PLP.part.metal>
0.0000

> <Gold.PLP.part.buried>
-1.1179

> <Gold.PLP.part.nonpolar>
-33.3103

> <Gold.PLP.part.repulsive>
0.3986

> <Gold.PLP.ligand.clash>
0.0000

> <Gold.PLP.ligand.torsion>
1.2117

> <Gold.PLP.Chemscore.Hbond>
3.8000

> <Gold.PLP.Chemscore.CHOScore>
0.0000

> <Gold.PLP.Chemscore.Metal>
0.0000

> <Gold.Chemscore.Hbonds>
donor molecule, donor type, donor heavy atom, donor atom, acceptor molecule, acceptor atom, score
      L1  H    15    41       P1  7948  1.00
      L1  H    23    50       P1  7948  1.95
      P1  H  7989  7998       L1    25  0.85

> <Gold.PLP.Chemscore.Internal.Correction>
0.0331

> <Gold.Rescore>
     Score         DG    S(hbond)    S(metal)    S(lipo)     H(rot)  DE(clash)    DE(int)     intcor
     13.91     -21.00       2.78        0.00      96.30       1.96       1.41       5.68       ----

> <Gold.Chemscore.Fitness>
13.9086

> <Gold.Chemscore.DG>
-20.9955

> <Gold.Chemscore.ZeroCoef>
-5.4800

> <Gold.Chemscore.Hbond>
2.7772

> <Gold.Chemscore.Metal>
0.0000

> <Gold.Chemscore.Lipo>
96.2997

> <Gold.Chemscore.Internal_Hbond>
0.0000

> <Gold.Chemscore.DEClash>
1.4113

> <Gold.Chemscore.DEInternal>
5.6755

> <Gold.Chemscore.Rot>
1.9638

> <Gold.Chemscore.Internal.Correction>
   9.000000E+99

> <Gold.Chemscore.Hbonds>
donor molecule, donor type, donor heavy atom, donor atom, acceptor molecule, acceptor atom, score
      L1  H    15    41       P1  7948  0.99
      L1  H    23    50       P1  7948  0.93
      P1  H  7989  7998       L1    25  0.82

> <Gold.Chemscore.Hbond.Weighted>
-9.2758

> <Gold.Chemscore.Metal.Weighted>
-0.0000

> <Gold.Chemscore.Lipo.Weighted>
-11.2671

> <Gold.Chemscore.Internal_Hbond.Weighted>
0.0000

> <Gold.Chemscore.DEClash.Weighted>
1.4113

> <Gold.Chemscore.DEInternal.Weighted>
5.6755

> <Gold.Chemscore.Rot.Weighted>
5.0274

> <Gold.Chemscore.Internal.Correction.Weighted>
   9.000000E+99

> <Gold.Protein.RotatedTorsions>
[ 6907 6896 6895 6894 ] final -170.28 input  -60.11 | X-H torsion
[ 7974 7965 7964 7962 ] final -104.44 input  175.53 | X-H torsion
[ 8008 7997 7996 7995 ] final  -35.11 input   59.86 | X-H torsion
[ 10167 10162 10161 10158 ] final  123.31 input  -65.29 | X-H torsion
[ 10718 10713 10712 10709 ] final -151.30 input   66.30 | X-H torsion
[ 10763 10752 10751 10750 ] final  -98.31 input  -60.55 | X-H torsion
[ 11005 11000 10999 10996 ] final -125.31 input  -57.11 | X-H torsion

> <Gold.Protein.ActiveResidues>
 VAL166  LYS551  ARG553  GLY616  TRP617  ASP618  TYR619  PRO620  LYS621  CYS622 
 ASP623  PHE694  ASN695  SER759  ASP760  ASP761  ALA762  ILE779  LEU786  VAL792 
 PHE793  MET794  SER795  GLU796  ALA797  LYS798  CYS799  TRP800  GLU811  SER814 

> <Gold.Protein.RotatedAtoms>
  151.5051  133.3496  159.2875 H   0  0  0  0  0  0  0  0  0  0  0  0  # atno 6907 bound_to 6896
  150.8748  134.8131  159.7192 H   0  0  0  0  0  0  0  0  0  0  0  0  # atno 6908 bound_to 6896
  152.4723  134.4941  159.9756 H   0  0  0  0  0  0  0  0  0  0  0  0  # atno 6909 bound_to 6896
  145.2432  140.9212  143.3138 H   0  0  0  0  0  0  0  0  0  0  0  0  # atno 7974 bound_to 7965
  154.4103  140.1666  156.2158 H   0  0  0  0  0  0  0  0  0  0  0  0  # atno 8008 bound_to 7997
  155.9405  140.3408  155.6300 H   0  0  0  0  0  0  0  0  0  0  0  0  # atno 8009 bound_to 7997
  155.6994  140.0743  157.2407 H   0  0  0  0  0  0  0  0  0  0  0  0  # atno 8010 bound_to 7997
  139.5807  144.6984  151.3536 H   0  0  0  0  0  0  0  0  0  0  0  0  # atno 10167 bound_to 10162
  156.4575  130.8197  151.2428 H   0  0  0  0  0  0  0  0  0  0  0  0  # atno 10718 bound_to 10713
  154.7403  135.5014  153.9111 H   0  0  0  0  0  0  0  0  0  0  0  0  # atno 10763 bound_to 10752
  153.1036  135.6691  153.9635 H   0  0  0  0  0  0  0  0  0  0  0  0  # atno 10764 bound_to 10752
  153.9414  135.3067  155.3421 H   0  0  0  0  0  0  0  0  0  0  0  0  # atno 10765 bound_to 10752
  140.9772  134.0724  157.3805 H   0  0  0  0  0  0  0  0  0  0  0  0  # atno 11005 bound_to 11000
  144.9570  139.4020  143.6374 LP  0  0  0  0  0  0  0  0  0  0  0  0  # atno 17320 bound_to 7965
  146.3323  139.8605  142.8857 LP  0  0  0  0  0  0  0  0  0  0  0  0  # atno 17321 bound_to 7965
  140.7085  143.7451  150.7525 LP  0  0  0  0  0  0  0  0  0  0  0  0  # atno 17342 bound_to 10162
  140.0983  143.4812  152.2440 LP  0  0  0  0  0  0  0  0  0  0  0  0  # atno 17343 bound_to 10162
  157.7500  131.0118  150.3359 LP  0  0  0  0  0  0  0  0  0  0  0  0  # atno 17370 bound_to 10713
  156.3751  130.3870  149.7145 LP  0  0  0  0  0  0  0  0  0  0  0  0  # atno 17371 bound_to 10713
  139.8935  135.0131  156.6904 LP  0  0  0  0  0  0  0  0  0  0  0  0  # atno 17394 bound_to 11000
  140.7241  133.9115  155.8166 LP  0  0  0  0  0  0  0  0  0  0  0  0  # atno 17395 bound_to 11000

$$$$
