AV-unprocessed.smi:65|AV-procd|sdf|616|dock6
  -GOLD-   2262016513D 1   1.00000     0.00000
 Structure written by MMmdl.
 26 27  0  0  0  0  0  0  0  0  2 V2000
  146.3254  139.0829  151.9752 N   0  0  0  0  0  0  0  0  0  0  0  0
  147.2383  139.6561  152.8263 C   0  0  0  0  0  0  0  0  0  0  0  0
  146.9889  140.8831  153.2926 N   0  0  0  0  0  0  0  0  0  0  0  0
  147.8786  141.4506  154.1291 C   0  0  0  0  0  0  0  0  0  0  0  0
  149.0535  140.7843  154.5149 C   0  0  0  0  0  0  0  0  0  0  0  0
  149.2663  139.4910  153.9865 C   0  0  0  0  0  0  0  0  0  0  0  0
  150.4019  138.7221  154.3041 N   0  0  0  0  0  0  0  0  0  0  0  0
  150.2952  137.2986  154.5972 C   0  0  0  0  0  0  0  0  0  0  0  0
  151.4611  136.9829  155.5429 C   0  0  0  0  0  0  0  0  0  0  0  0
  152.4562  138.1148  155.2814 C   0  0  2  0  0  0  0  0  0  0  0  0
  153.3062  138.3563  156.3820 O   0  0  0  0  0  0  0  0  0  0  0  0
  151.5465  139.3060  154.9855 C   0  0  0  0  0  0  0  0  0  0  0  0
  148.3357  138.9578  153.1497 N   0  3  0  0  0  0  0  0  0  0  0  0
  146.4838  138.1564  151.6053 H   0  0  0  0  0  0  0  0  0  0  0  0
  145.4807  139.5730  151.7181 H   0  0  0  0  0  0  0  0  0  0  0  0
  147.6502  142.4411  154.4940 H   0  0  0  0  0  0  0  0  0  0  0  0
  149.7501  141.2543  155.1935 H   0  0  0  0  0  0  0  0  0  0  0  0
  149.3411  137.0394  155.0573 H   0  0  0  0  0  0  0  0  0  0  0  0
  150.3903  136.7397  153.6658 H   0  0  0  0  0  0  0  0  0  0  0  0
  151.1076  137.0275  156.5745 H   0  0  0  0  0  0  0  0  0  0  0  0
  151.8865  135.9926  155.3776 H   0  0  0  0  0  0  0  0  0  0  0  0
  153.0562  137.8808  154.4008 H   0  0  0  0  0  0  0  0  0  0  0  0
  153.0933  137.7434  157.0695 H   0  0  0  0  0  0  0  0  0  0  0  0
  152.0478  140.0553  154.3718 H   0  0  0  0  0  0  0  0  0  0  0  0
  151.2109  139.7811  155.9088 H   0  0  0  0  0  0  0  0  0  0  0  0
  148.4821  138.0233  152.7685 H   0  0  0  0  0  0  0  0  0  0  0  0
  1  2  1  0  0  0  0
  1 14  1  0  0  0  0
  1 15  1  0  0  0  0
  2 13  1  0  0  0  0
  2  3  2  0  0  0  0
  3  4  1  0  0  0  0
  4  5  2  0  0  0  0
  4 16  1  0  0  0  0
  5  6  1  0  0  0  0
  5 17  1  0  0  0  0
  6  7  1  0  0  0  0
  6 13  2  0  0  0  0
  7 12  1  0  0  0  0
  7  8  1  0  0  0  0
  8  9  1  0  0  0  0
  8 18  1  0  0  0  0
  8 19  1  0  0  0  0
  9 10  1  0  0  0  0
  9 20  1  0  0  0  0
  9 21  1  0  0  0  0
 10 11  1  0  0  0  0
 10 12  1  0  0  0  0
 10 22  1  0  0  0  0
 11 23  1  0  0  0  0
 12 24  1  0  0  0  0
 12 25  1  0  0  0  0
 13 26  1  0  0  0  0
M  CHG  1  13   1
M  END
> <s_m_source_file>
AV-unprocessed.smi

> <i_m_source_file_index>
65

> <i_lp_mmshare_version>
43012

> <i_f3d_flags>
0

> <s_epik_input>
W05IMl1jMW5bY0hdW2NIXWMobjEpTjJbQ0gyXVtDSDJdW0NAQEhdKFtPSF0pW0NIMl0y

> <s_epik_cmdline>
J2VwaWtfcHl0aG9uJywgJy1waCcsICc3LjAnLCAnLXRuJywgJzgnLCAnLW1hJywgJzIwMCcsICctbWV0YWxfYmluZGluZycsICctaW1hZScsICc8aW5maWxlLm1hZT4nLCAnLW9tYWUnLCAnPG91dGZpbGUubWFlPic=

> <r_lp_tautomer_probability>
0.424989

> <r_epik_Ionization_Penalty>
0.57487

> <r_epik_Ionization_Penalty_Charging>
0.574865

> <r_epik_Ionization_Penalty_Neutral>
4.40886e-06

> <r_epik_State_Penalty>
0.845539

> <r_epik_Charging_Adjusted_Penalty>
1.4204

> <i_epik_Tot_Q>
1

> <i_epik_Tot_abs_Q>
1

> <r_epik_Metal_State_Penalty>
1.14248

> <b_epik_Metal_Only>
0

> <s_lp_Force_Field>
OPLS_2005

> <r_lp_Energy>
20.8145

> <b_lp_Chiralities_Consistent>
1

> <s_lp_Variant>
AV-unprocessed.smi:65-6

> <Gold.Version>
5.8.1

> <Gold.Id.Protein>
6NUR|6NUR_protein|mol2

> <Gold.PLP.Fitness>
40.7246

> <Gold.PLP.PLP>
-26.1533

> <Gold.PLP.part.hbond>
-3.9323

> <Gold.PLP.part.metal>
0.0000

> <Gold.PLP.part.buried>
0.7382

> <Gold.PLP.part.nonpolar>
-23.5253

> <Gold.PLP.part.repulsive>
0.2848

> <Gold.PLP.ligand.clash>
0.0000

> <Gold.PLP.ligand.torsion>
0.3715

> <Gold.PLP.Chemscore.Hbond>
4.6840

> <Gold.PLP.Chemscore.CHOScore>
0.3504

> <Gold.PLP.Chemscore.Metal>
0.0000

> <Gold.Chemscore.Hbonds>
donor molecule, donor type, donor heavy atom, donor atom, acceptor molecule, acceptor atom, score
      L1  H     1    15       P1 10175  1.39
      L1  H    13    26       P1  7948  1.95
      P1  H  7997  8010       L1    11  0.86
      L1  C     4    16       P1  8028  0.31

> <Gold.PLP.Chemscore.Internal.Correction>
0.2110

> <Gold.Rescore>
     Score         DG    S(hbond)    S(metal)    S(lipo)     H(rot)  DE(clash)    DE(int)     intcor
     16.30     -16.88       2.79        0.00      39.80       1.00       0.18       0.41       ----

> <Gold.Chemscore.Fitness>
16.2975

> <Gold.Chemscore.DG>
-16.8836

> <Gold.Chemscore.ZeroCoef>
-5.4800

> <Gold.Chemscore.Hbond>
2.7865

> <Gold.Chemscore.Metal>
0.0000

> <Gold.Chemscore.Lipo>
39.7999

> <Gold.Chemscore.Internal_Hbond>
0.0000

> <Gold.Chemscore.DEClash>
0.1793

> <Gold.Chemscore.DEInternal>
0.4069

> <Gold.Chemscore.Rot>
1.0000

> <Gold.Chemscore.Internal.Correction>
   9.000000E+99

> <Gold.Chemscore.Hbonds>
donor molecule, donor type, donor heavy atom, donor atom, acceptor molecule, acceptor atom, score
      L1  H     1    15       P1 10175  0.50
      L1  H    13    26       P1  7948  0.91
      P1  H  7997  8010       L1    11  0.74

> <Gold.Chemscore.Hbond.Weighted>
-9.3071

> <Gold.Chemscore.Metal.Weighted>
-0.0000

> <Gold.Chemscore.Lipo.Weighted>
-4.6566

> <Gold.Chemscore.Internal_Hbond.Weighted>
0.0000

> <Gold.Chemscore.DEClash.Weighted>
0.1793

> <Gold.Chemscore.DEInternal.Weighted>
0.4069

> <Gold.Chemscore.Rot.Weighted>
2.5600

> <Gold.Chemscore.Internal.Correction.Weighted>
   9.000000E+99

> <Gold.Protein.RotatedTorsions>
[ 6907 6896 6895 6894 ] final  -20.43 input  -60.11 | X-H torsion
[ 7974 7965 7964 7962 ] final   86.40 input  175.53 | X-H torsion
[ 8008 7997 7996 7995 ] final   77.35 input   59.86 | X-H torsion
[ 10167 10162 10161 10158 ] final    8.89 input  -65.29 | X-H torsion
[ 10718 10713 10712 10709 ] final   16.76 input   66.30 | X-H torsion
[ 10763 10752 10751 10750 ] final    9.01 input  -60.55 | X-H torsion
[ 11005 11000 10999 10996 ] final  141.01 input  -57.11 | X-H torsion

> <Gold.Protein.ActiveResidues>
 VAL166  LYS551  ARG553  GLY616  TRP617  ASP618  TYR619  PRO620  LYS621  CYS622 
 ASP623  PHE694  ASN695  SER759  ASP760  ASP761  ALA762  ILE779  LEU786  VAL792 
 PHE793  MET794  SER795  GLU796  ALA797  LYS798  CYS799  TRP800  GLU811  SER814 

> <Gold.Protein.RotatedAtoms>
  151.2483  135.0613  159.9051 H   0  0  0  0  0  0  0  0  0  0  0  0  # atno 6907 bound_to 6896
  152.5383  134.0359  159.8056 H   0  0  0  0  0  0  0  0  0  0  0  0  # atno 6908 bound_to 6896
  151.0564  133.5532  159.2669 H   0  0  0  0  0  0  0  0  0  0  0  0  # atno 6909 bound_to 6896
  145.5728  139.2316  143.2396 H   0  0  0  0  0  0  0  0  0  0  0  0  # atno 7974 bound_to 7965
  155.8404  140.3462  155.5628 H   0  0  0  0  0  0  0  0  0  0  0  0  # atno 8008 bound_to 7997
  155.8147  140.0904  157.1903 H   0  0  0  0  0  0  0  0  0  0  0  0  # atno 8009 bound_to 7997
  154.4005  140.1441  156.3415 H   0  0  0  0  0  0  0  0  0  0  0  0  # atno 8010 bound_to 7997
  140.6288  143.8041  150.7267 H   0  0  0  0  0  0  0  0  0  0  0  0  # atno 10167 bound_to 10162
  157.0725  130.6354  149.5809 H   0  0  0  0  0  0  0  0  0  0  0  0  # atno 10718 bound_to 10713
  153.2187  135.6878  153.8026 H   0  0  0  0  0  0  0  0  0  0  0  0  # atno 10763 bound_to 10752
  153.7232  135.3264  155.3272 H   0  0  0  0  0  0  0  0  0  0  0  0  # atno 10764 bound_to 10752
  154.8259  135.4618  154.1026 H   0  0  0  0  0  0  0  0  0  0  0  0  # atno 10765 bound_to 10752
  140.0369  134.9324  157.0770 H   0  0  0  0  0  0  0  0  0  0  0  0  # atno 11005 bound_to 11000
  146.1772  140.6554  142.9206 LP  0  0  0  0  0  0  0  0  0  0  0  0  # atno 17320 bound_to 7965
  144.7430  140.4992  143.6856 LP  0  0  0  0  0  0  0  0  0  0  0  0  # atno 17321 bound_to 7965
  140.1648  143.4244  152.2042 LP  0  0  0  0  0  0  0  0  0  0  0  0  # atno 17342 bound_to 10162
  139.5504  144.7333  151.4452 LP  0  0  0  0  0  0  0  0  0  0  0  0  # atno 17343 bound_to 10162
  155.9946  130.5011  150.7427 LP  0  0  0  0  0  0  0  0  0  0  0  0  # atno 17370 bound_to 10713
  157.4866  131.0907  151.0475 LP  0  0  0  0  0  0  0  0  0  0  0  0  # atno 17371 bound_to 10713
  140.4132  134.1959  155.7163 LP  0  0  0  0  0  0  0  0  0  0  0  0  # atno 17394 bound_to 11000
  141.1862  133.8307  157.1076 LP  0  0  0  0  0  0  0  0  0  0  0  0  # atno 17395 bound_to 11000

$$$$
