AV-unprocessed.smi:764|AV-procd|sdf|3642|dock2
  -GOLD-   22720 1 43D 1   1.00000     0.00000
 Structure written by MMmdl.
 37 37  0  0  0  0  0  0  0  0  2 V2000
  151.4041  137.6518  154.6067 C   0  0  0  0  0  0  0  0  0  0  0  0
  150.6406  138.9619  154.3683 C   0  0  0  0  0  0  0  0  0  0  0  0
  150.6840  139.8808  155.5965 C   0  0  0  0  0  0  0  0  0  0  0  0
  149.2507  138.6660  154.0297 N   0  0  0  0  0  0  0  0  0  0  0  0
  148.2324  139.5409  154.0340 C   0  0  0  0  0  0  0  0  0  0  0  0
  148.3559  140.7288  154.3324 O   0  0  0  0  0  0  0  0  0  0  0  0
  146.8634  138.9849  153.6314 C   0  0  0  0  0  0  0  0  0  0  0  0
  146.7727  138.6495  152.1330 C   0  0  0  0  0  0  0  0  0  0  0  0
  145.3965  138.2653  151.7631 N   0  3  0  0  0  0  0  0  0  0  0  0
  145.0375  136.8811  152.1271 C   0  0  0  0  0  0  0  0  0  0  0  0
  145.5269  135.8904  151.0615 C   0  0  0  0  0  0  0  0  0  0  0  0
  144.7948  134.6404  151.1134 N   0  0  0  0  0  0  0  0  0  0  0  0
  144.9140  133.5400  150.2908 C   0  0  0  0  0  0  0  0  0  0  0  0
  144.0141  132.6096  150.7255 C   0  0  0  0  0  0  0  0  0  0  0  0
  143.3828  133.2411  151.8335 C   0  0  0  0  0  0  0  0  0  0  0  0
  143.8540  134.4562  152.0642 N   0  0  0  0  0  0  0  0  0  0  0  0
  152.4469  137.8464  154.8587 H   0  0  0  0  0  0  0  0  0  0  0  0
  151.3930  137.0226  153.7160 H   0  0  0  0  0  0  0  0  0  0  0  0
  150.9660  137.0792  155.4251 H   0  0  0  0  0  0  0  0  0  0  0  0
  151.1270  139.4887  153.5456 H   0  0  0  0  0  0  0  0  0  0  0  0
  151.7117  140.1270  155.8649 H   0  0  0  0  0  0  0  0  0  0  0  0
  150.2178  139.4107  156.4631 H   0  0  0  0  0  0  0  0  0  0  0  0
  150.1616  140.8184  155.4040 H   0  0  0  0  0  0  0  0  0  0  0  0
  149.0496  137.7128  153.7638 H   0  0  0  0  0  0  0  0  0  0  0  0
  146.6653  138.0930  154.2269 H   0  0  0  0  0  0  0  0  0  0  0  0
  146.0924  139.7128  153.8899 H   0  0  0  0  0  0  0  0  0  0  0  0
  147.0736  139.5112  151.5348 H   0  0  0  0  0  0  0  0  0  0  0  0
  147.4494  137.8303  151.8847 H   0  0  0  0  0  0  0  0  0  0  0  0
  144.7533  138.8939  152.2232 H   0  0  0  0  0  0  0  0  0  0  0  0
  145.4789  136.6369  153.0944 H   0  0  0  0  0  0  0  0  0  0  0  0
  143.9547  136.8109  152.2386 H   0  0  0  0  0  0  0  0  0  0  0  0
  145.4162  136.3160  150.0630 H   0  0  0  0  0  0  0  0  0  0  0  0
  146.5877  135.6762  151.1988 H   0  0  0  0  0  0  0  0  0  0  0  0
  145.6197  133.5103  149.4736 H   0  0  0  0  0  0  0  0  0  0  0  0
  143.8327  131.6277  150.3138 H   0  0  0  0  0  0  0  0  0  0  0  0
  142.6016  132.8559  152.4721 H   0  0  0  0  0  0  0  0  0  0  0  0
  145.2934  138.3702  150.7639 H   0  0  0  0  0  0  0  0  0  0  0  0
  1  2  1  0  0  0  0
  1 17  1  0  0  0  0
  1 18  1  0  0  0  0
  1 19  1  0  0  0  0
  2  3  1  0  0  0  0
  2  4  1  0  0  0  0
  2 20  1  0  0  0  0
  3 21  1  0  0  0  0
  3 22  1  0  0  0  0
  3 23  1  0  0  0  0
  4  5  1  0  0  0  0
  4 24  1  0  0  0  0
  5  6  2  0  0  0  0
  5  7  1  0  0  0  0
  7  8  1  0  0  0  0
  7 25  1  0  0  0  0
  7 26  1  0  0  0  0
  8  9  1  0  0  0  0
  8 27  1  0  0  0  0
  8 28  1  0  0  0  0
  9 10  1  0  0  0  0
  9 29  1  0  0  0  0
  9 37  1  0  0  0  0
 10 11  1  0  0  0  0
 10 30  1  0  0  0  0
 10 31  1  0  0  0  0
 11 12  1  0  0  0  0
 11 32  1  0  0  0  0
 11 33  1  0  0  0  0
 12 16  1  0  0  0  0
 12 13  1  0  0  0  0
 13 14  2  0  0  0  0
 13 34  1  0  0  0  0
 14 15  1  0  0  0  0
 14 35  1  0  0  0  0
 15 16  2  0  0  0  0
 15 36  1  0  0  0  0
M  CHG  1   9   1
M  END
> <s_m_source_file>
AV-unprocessed.smi

> <i_m_source_file_index>
764

> <i_lp_mmshare_version>
43012

> <i_f3d_flags>
0

> <s_epik_input>
W0NIM11bQ0hdKFtDSDNdKVtOSF1DKD1PKVtDSDJdW0NIMl1bTkhdW0NIMl1bQ0gyXW4xW2NIXVtjSF1bY0hdbjE=

> <s_epik_cmdline>
J2VwaWtfcHl0aG9uJywgJy1waCcsICc3LjAnLCAnLXRuJywgJzgnLCAnLW1hJywgJzIwMCcsICctbWV0YWxfYmluZGluZycsICctaW1hZScsICc8aW5maWxlLm1hZT4nLCAnLW9tYWUnLCAnPG91dGZpbGUubWFlPic=

> <r_lp_tautomer_probability>
1

> <r_epik_Ionization_Penalty>
0.00578048

> <r_epik_Ionization_Penalty_Charging>
0.00577767

> <r_epik_Ionization_Penalty_Neutral>
2.80872e-06

> <r_epik_State_Penalty>
-0

> <r_epik_Charging_Adjusted_Penalty>
0.00577767

> <i_epik_Tot_Q>
1

> <i_epik_Tot_abs_Q>
1

> <r_epik_Metal_State_Penalty>
-0

> <b_epik_Metal_Only>
0

> <s_lp_Force_Field>
OPLS_2005

> <r_lp_Energy>
3.7627

> <b_lp_Chiralities_Consistent>
1

> <s_lp_Variant>
AV-unprocessed.smi:764-1

> <Gold.Version>
5.8.1

> <Gold.Id.Protein>
6NUR|6NUR_protein|mol2

> <Gold.PLP.Fitness>
47.3015

> <Gold.PLP.PLP>
-33.2213

> <Gold.PLP.part.hbond>
-3.3874

> <Gold.PLP.part.metal>
0.0000

> <Gold.PLP.part.buried>
-0.3038

> <Gold.PLP.part.nonpolar>
-29.9833

> <Gold.PLP.part.repulsive>
0.3845

> <Gold.PLP.ligand.clash>
0.0000

> <Gold.PLP.ligand.torsion>
0.6567

> <Gold.PLP.Chemscore.Hbond>
3.1742

> <Gold.PLP.Chemscore.CHOScore>
1.8759

> <Gold.PLP.Chemscore.Metal>
0.0000

> <Gold.Chemscore.Hbonds>
donor molecule, donor type, donor heavy atom, donor atom, acceptor molecule, acceptor atom, score
      L1  H     4    24       P1  7948  0.08
      L1  H     9    29       P1 10175  2.00
      L1  H     9    37       P1 10171  0.62
      L1  C    13    34       P1  7921  1.00
      L1  C    15    36       P1 10957  0.79

> <Gold.PLP.Chemscore.Internal.Correction>
0.2432

> <Gold.Rescore>
     Score         DG    S(hbond)    S(metal)    S(lipo)     H(rot)  DE(clash)    DE(int)     intcor
     12.64     -14.57       2.00        0.00      72.59       2.37       0.33       1.59       ----

> <Gold.Chemscore.Fitness>
12.6449

> <Gold.Chemscore.DG>
-14.5708

> <Gold.Chemscore.ZeroCoef>
-5.4800

> <Gold.Chemscore.Hbond>
1.9985

> <Gold.Chemscore.Metal>
0.0000

> <Gold.Chemscore.Lipo>
72.5874

> <Gold.Chemscore.Internal_Hbond>
0.0000

> <Gold.Chemscore.DEClash>
0.3349

> <Gold.Chemscore.DEInternal>
1.5911

> <Gold.Chemscore.Rot>
2.3738

> <Gold.Chemscore.Internal.Correction>
   9.000000E+99

> <Gold.Chemscore.Hbonds>
donor molecule, donor type, donor heavy atom, donor atom, acceptor molecule, acceptor atom, score
      L1  H     4    24       P1  7948  0.11
      L1  H     9    29       P1 10175  0.99
      L1  H     9    37       P1 10171  0.62

> <Gold.Chemscore.Hbond.Weighted>
-6.6750

> <Gold.Chemscore.Metal.Weighted>
-0.0000

> <Gold.Chemscore.Lipo.Weighted>
-8.4927

> <Gold.Chemscore.Internal_Hbond.Weighted>
0.0000

> <Gold.Chemscore.DEClash.Weighted>
0.3349

> <Gold.Chemscore.DEInternal.Weighted>
1.5911

> <Gold.Chemscore.Rot.Weighted>
6.0769

> <Gold.Chemscore.Internal.Correction.Weighted>
   9.000000E+99

> <Gold.Protein.RotatedTorsions>
[ 6907 6896 6895 6894 ] final  -81.76 input  -60.11 | X-H torsion
[ 7974 7965 7964 7962 ] final -119.53 input  175.53 | X-H torsion
[ 8008 7997 7996 7995 ] final   29.19 input   59.86 | X-H torsion
[ 10167 10162 10161 10158 ] final  149.47 input  -65.29 | X-H torsion
[ 10718 10713 10712 10709 ] final   46.78 input   66.30 | X-H torsion
[ 10763 10752 10751 10750 ] final  -14.80 input  -60.55 | X-H torsion
[ 11005 11000 10999 10996 ] final -159.03 input  -57.11 | X-H torsion

> <Gold.Protein.ActiveResidues>
 VAL166  LYS551  ARG553  GLY616  TRP617  ASP618  TYR619  PRO620  LYS621  CYS622 
 ASP623  PHE694  ASN695  SER759  ASP760  ASP761  ALA762  ILE779  LEU786  VAL792 
 PHE793  MET794  SER795  GLU796  ALA797  LYS798  CYS799  TRP800  GLU811  SER814 

> <Gold.Protein.RotatedAtoms>
  150.6907  134.3769  159.5016 H   0  0  0  0  0  0  0  0  0  0  0  0  # atno 6907 bound_to 6896
  152.1577  134.8935  160.0553 H   0  0  0  0  0  0  0  0  0  0  0  0  # atno 6908 bound_to 6896
  152.0009  133.3790  159.4218 H   0  0  0  0  0  0  0  0  0  0  0  0  # atno 6909 bound_to 6896
  145.0615  140.8294  143.4149 H   0  0  0  0  0  0  0  0  0  0  0  0  # atno 7974 bound_to 7965
  155.0706  140.3200  155.4631 H   0  0  0  0  0  0  0  0  0  0  0  0  # atno 8008 bound_to 7997
  156.2791  140.2112  156.5779 H   0  0  0  0  0  0  0  0  0  0  0  0  # atno 8009 bound_to 7997
  154.7058  140.0503  157.0489 H   0  0  0  0  0  0  0  0  0  0  0  0  # atno 8010 bound_to 7997
  139.4861  144.5599  151.7250 H   0  0  0  0  0  0  0  0  0  0  0  0  # atno 10167 bound_to 10162
  157.4517  130.8142  149.7795 H   0  0  0  0  0  0  0  0  0  0  0  0  # atno 10718 bound_to 10713
  153.5338  135.7014  153.5670 H   0  0  0  0  0  0  0  0  0  0  0  0  # atno 10763 bound_to 10752
  153.3666  135.3956  155.1758 H   0  0  0  0  0  0  0  0  0  0  0  0  # atno 10764 bound_to 10752
  154.8681  135.3801  154.4837 H   0  0  0  0  0  0  0  0  0  0  0  0  # atno 10765 bound_to 10752
  140.6470  134.4490  157.5234 H   0  0  0  0  0  0  0  0  0  0  0  0  # atno 11005 bound_to 11000
  145.1402  139.2577  143.5494 LP  0  0  0  0  0  0  0  0  0  0  0  0  # atno 17320 bound_to 7965
  146.3524  140.1078  142.8605 LP  0  0  0  0  0  0  0  0  0  0  0  0  # atno 17321 bound_to 7965
  140.5167  144.0943  150.6010 LP  0  0  0  0  0  0  0  0  0  0  0  0  # atno 17342 bound_to 10162
  140.3886  143.2764  152.0086 LP  0  0  0  0  0  0  0  0  0  0  0  0  # atno 17343 bound_to 10162
  155.9990  130.3891  150.2682 LP  0  0  0  0  0  0  0  0  0  0  0  0  # atno 17370 bound_to 10713
  157.0854  131.0155  151.3141 LP  0  0  0  0  0  0  0  0  0  0  0  0  # atno 17371 bound_to 10713
  139.9059  134.8450  156.1708 LP  0  0  0  0  0  0  0  0  0  0  0  0  # atno 17394 bound_to 11000
  141.0564  133.6863  156.1869 LP  0  0  0  0  0  0  0  0  0  0  0  0  # atno 17395 bound_to 11000

$$$$
