AV-unprocessed.smi:224|AV-procd|sdf|1715|dock7
  -GOLD-   2262020183D 1   1.00000     0.00000
 Structure written by MMmdl.
 56 59  0  0  0  0  0  0  0  0  2 V2000
  151.9248  144.6214  159.5324 C   0  0  0  0  0  0  0  0  0  0  0  0
  150.8734  144.3854  158.4405 C   0  0  2  0  0  0  0  0  0  0  0  0
  149.6227  144.8098  158.9450 O   0  0  0  0  0  0  0  0  0  0  0  0
  150.7933  142.8970  158.0413 C   0  0  0  0  0  0  0  0  0  0  0  0
  149.7533  142.5957  157.0187 N   0  3  2  0  0  0  0  0  0  0  0  0
  148.4795  142.1458  157.6397 C   0  0  0  0  0  0  0  0  0  0  0  0
  147.3679  141.9852  156.5876 C   0  0  0  0  0  0  0  0  0  0  0  0
  147.8004  141.1239  155.4898 N   0  0  0  0  0  0  0  0  0  0  0  0
  147.5740  139.7840  155.5613 C   0  0  0  0  0  0  0  0  0  0  0  0
  147.9161  138.9878  154.5130 N   0  0  0  0  0  0  0  0  0  0  0  0
  147.6754  137.6745  154.5500 C   0  0  0  0  0  0  0  0  0  0  0  0
  147.1143  136.9582  155.5244 N   0  0  0  0  0  0  0  0  0  0  0  0
  146.7879  137.7430  156.5902 C   0  0  0  0  0  0  0  0  0  0  0  0
  146.9809  139.1505  156.6917 C   0  0  0  0  0  0  0  0  0  0  0  0
  146.5328  139.5966  157.9302 N   0  0  0  0  0  0  0  0  0  0  0  0
  146.0885  138.5203  158.5187 C   0  0  0  0  0  0  0  0  0  0  0  0
  146.2080  137.3607  157.7873 N   0  0  0  0  0  0  0  0  0  0  0  0
  145.7993  136.0262  158.1974 C   0  0  0  0  0  0  0  0  0  0  0  0
  146.0230  135.7483  159.7021 C   0  0  1  0  0  0  0  0  0  0  0  0
  145.7565  134.3815  159.9640 O   0  0  0  0  0  0  0  0  0  0  0  0
  147.4316  136.0686  160.1943 C   0  0  0  0  0  0  0  0  0  0  0  0
  147.1973  136.5057  161.6333 C   0  0  0  0  0  0  0  0  0  0  0  0
  146.0020  137.2605  161.5341 O   0  0  0  0  0  0  0  0  0  0  0  0
  145.1284  136.6055  160.6198 C   0  0  0  0  0  0  0  0  0  0  0  0
  149.0420  141.5572  154.8524 C   0  0  0  0  0  0  0  0  0  0  0  0
  150.1884  141.7328  155.8747 C   0  0  2  0  0  0  0  0  0  0  0  0
  150.7882  140.3799  156.3141 C   0  0  0  0  0  0  0  0  0  0  0  0
  152.9175  144.3268  159.1899 H   0  0  0  0  0  0  0  0  0  0  0  0
  151.7010  144.0490  160.4336 H   0  0  0  0  0  0  0  0  0  0  0  0
  151.9730  145.6748  159.8107 H   0  0  0  0  0  0  0  0  0  0  0  0
  151.1366  145.0072  157.5857 H   0  0  0  0  0  0  0  0  0  0  0  0
  149.1090  145.1653  158.2364 H   0  0  0  0  0  0  0  0  0  0  0  0
  151.7646  142.5465  157.6911 H   0  0  0  0  0  0  0  0  0  0  0  0
  150.5781  142.3139  158.9383 H   0  0  0  0  0  0  0  0  0  0  0  0
  148.6423  141.2079  158.1712 H   0  0  0  0  0  0  0  0  0  0  0  0
  148.1575  142.8723  158.3863 H   0  0  0  0  0  0  0  0  0  0  0  0
  146.4508  141.6129  157.0455 H   0  0  0  0  0  0  0  0  0  0  0  0
  147.1179  142.9613  156.1704 H   0  0  0  0  0  0  0  0  0  0  0  0
  147.9725  137.1187  153.6728 H   0  0  0  0  0  0  0  0  0  0  0  0
  145.6625  138.5428  159.5113 H   0  0  0  0  0  0  0  0  0  0  0  0
  144.7438  135.9072  157.9489 H   0  0  0  0  0  0  0  0  0  0  0  0
  146.3392  135.2967  157.5924 H   0  0  0  0  0  0  0  0  0  0  0  0
  145.3059  134.0151  159.2186 H   0  0  0  0  0  0  0  0  0  0  0  0
  148.1316  135.2367  160.1039 H   0  0  0  0  0  0  0  0  0  0  0  0
  147.8433  136.9112  159.6372 H   0  0  0  0  0  0  0  0  0  0  0  0
  147.0394  135.6458  162.2862 H   0  0  0  0  0  0  0  0  0  0  0  0
  148.0182  137.1007  162.0337 H   0  0  0  0  0  0  0  0  0  0  0  0
  144.5660  137.3581  160.0661 H   0  0  0  0  0  0  0  0  0  0  0  0
  144.4067  136.0014  161.1721 H   0  0  0  0  0  0  0  0  0  0  0  0
  149.3594  140.8850  154.0572 H   0  0  0  0  0  0  0  0  0  0  0  0
  148.8427  142.5136  154.3680 H   0  0  0  0  0  0  0  0  0  0  0  0
  150.9733  142.2640  155.3381 H   0  0  0  0  0  0  0  0  0  0  0  0
  151.0294  139.7650  155.4468 H   0  0  0  0  0  0  0  0  0  0  0  0
  150.1033  139.8068  156.9378 H   0  0  0  0  0  0  0  0  0  0  0  0
  151.7147  140.5107  156.8727 H   0  0  0  0  0  0  0  0  0  0  0  0
  149.5299  143.4880  156.6021 H   0  0  0  0  0  0  0  0  0  0  0  0
  1  2  1  0  0  0  0
  1 28  1  0  0  0  0
  1 29  1  0  0  0  0
  1 30  1  0  0  0  0
  2  3  1  0  0  0  0
  2  4  1  0  0  0  0
  2 31  1  0  0  0  0
  3 32  1  0  0  0  0
  4  5  1  0  0  0  0
  4 33  1  0  0  0  0
  4 34  1  0  0  0  0
  5 26  1  0  0  0  0
  5  6  1  0  0  0  0
  5 56  1  0  0  0  0
  6  7  1  0  0  0  0
  6 35  1  0  0  0  0
  6 36  1  0  0  0  0
  7  8  1  0  0  0  0
  7 37  1  0  0  0  0
  7 38  1  0  0  0  0
  8  9  1  0  0  0  0
  8 25  1  0  0  0  0
  9 14  1  0  0  0  0
  9 10  2  0  0  0  0
 10 11  1  0  0  0  0
 11 12  2  0  0  0  0
 11 39  1  0  0  0  0
 12 13  1  0  0  0  0
 13 17  1  0  0  0  0
 13 14  2  0  0  0  0
 14 15  1  0  0  0  0
 15 16  2  0  0  0  0
 16 17  1  0  0  0  0
 16 40  1  0  0  0  0
 17 18  1  0  0  0  0
 18 19  1  0  0  0  0
 18 41  1  0  0  0  0
 18 42  1  0  0  0  0
 19 24  1  0  0  0  0
 19 20  1  0  0  0  0
 19 21  1  0  0  0  0
 20 43  1  0  0  0  0
 21 22  1  0  0  0  0
 21 44  1  0  0  0  0
 21 45  1  0  0  0  0
 22 23  1  0  0  0  0
 22 46  1  0  0  0  0
 22 47  1  0  0  0  0
 23 24  1  0  0  0  0
 24 48  1  0  0  0  0
 24 49  1  0  0  0  0
 25 26  1  0  0  0  0
 25 50  1  0  0  0  0
 25 51  1  0  0  0  0
 26 27  1  0  0  0  0
 26 52  1  0  0  0  0
 27 53  1  0  0  0  0
 27 54  1  0  0  0  0
 27 55  1  0  0  0  0
M  CHG  1   5   1
M  END
> <s_m_source_file>
AV-unprocessed.smi

> <i_m_source_file_index>
224

> <i_lp_mmshare_version>
43012

> <i_f3d_flags>
0

> <s_epik_input>
W0NIM11bQ0BIXShbT0hdKVtDSDJdTjFbQ0gyXVtDSDJdTihbQ0gyXVtDQEhdMVtDSDNdKWMobltjSF1uMiljKGMyMyluW2NIXW4zW0NIMl1bQ0BAXTQoW09IXSlbQ0gyXVtDSDJdT1tDSDJdNA==

> <s_epik_cmdline>
J2VwaWtfcHl0aG9uJywgJy1waCcsICc3LjAnLCAnLXRuJywgJzgnLCAnLW1hJywgJzIwMCcsICctbWV0YWxfYmluZGluZycsICctaW1hZScsICc8aW5maWxlLm1hZT4nLCAnLW9tYWUnLCAnPG91dGZpbGUubWFlPic=

> <r_lp_tautomer_probability>
1

> <r_epik_Ionization_Penalty>
0.00516958

> <r_epik_Ionization_Penalty_Charging>
0.00509693

> <r_epik_Ionization_Penalty_Neutral>
7.26542e-05

> <r_epik_State_Penalty>
-0

> <r_epik_Charging_Adjusted_Penalty>
0.00509693

> <i_epik_Tot_Q>
1

> <i_epik_Tot_abs_Q>
1

> <r_epik_Metal_State_Penalty>
-0

> <b_epik_Metal_Only>
0

> <s_lp_Force_Field>
OPLS_2005

> <r_lp_Energy>
50.3788

> <b_lp_Chiralities_Consistent>
1

> <s_lp_Variant>
AV-unprocessed.smi:224-9

> <Gold.Version>
5.8.1

> <Gold.Id.Protein>
6NUR|6NUR_protein|mol2

> <Gold.PLP.Fitness>
44.9213

> <Gold.PLP.PLP>
-32.0476

> <Gold.PLP.part.hbond>
-4.3275

> <Gold.PLP.part.metal>
0.0000

> <Gold.PLP.part.buried>
-0.9352

> <Gold.PLP.part.nonpolar>
-26.8140

> <Gold.PLP.part.repulsive>
0.1923

> <Gold.PLP.ligand.clash>
0.0000

> <Gold.PLP.ligand.torsion>
1.2475

> <Gold.PLP.Chemscore.Hbond>
4.0000

> <Gold.PLP.Chemscore.CHOScore>
1.0000

> <Gold.PLP.Chemscore.Metal>
0.0000

> <Gold.Chemscore.Hbonds>
donor molecule, donor type, donor heavy atom, donor atom, acceptor molecule, acceptor atom, score
      L1  H     3    32       P1  8029  1.00
      L1  H     5    56       P1  8028  2.00
      P1  H  6934  6947       L1    23  0.33
      L1  C    11    39       P1  7948  1.00

> <Gold.PLP.Chemscore.Internal.Correction>
0.3686

> <Gold.Rescore>
     Score         DG    S(hbond)    S(metal)    S(lipo)     H(rot)  DE(clash)    DE(int)     intcor
     11.95     -15.60       2.62        0.00      77.87       3.02       0.06       3.59       ----

> <Gold.Chemscore.Fitness>
11.9499

> <Gold.Chemscore.DG>
-15.5990

> <Gold.Chemscore.ZeroCoef>
-5.4800

> <Gold.Chemscore.Hbond>
2.6190

> <Gold.Chemscore.Metal>
0.0000

> <Gold.Chemscore.Lipo>
77.8687

> <Gold.Chemscore.Internal_Hbond>
0.0000

> <Gold.Chemscore.DEClash>
0.0623

> <Gold.Chemscore.DEInternal>
3.5868

> <Gold.Chemscore.Rot>
3.0231

> <Gold.Chemscore.Internal.Correction>
   9.000000E+99

> <Gold.Chemscore.Hbonds>
donor molecule, donor type, donor heavy atom, donor atom, acceptor molecule, acceptor atom, score
      L1  H     3    32       P1  8029  0.65
      L1  H     5    56       P1  8028  1.00
      P1  H  6934  6947       L1    23  0.02

> <Gold.Chemscore.Hbond.Weighted>
-8.7474

> <Gold.Chemscore.Metal.Weighted>
-0.0000

> <Gold.Chemscore.Lipo.Weighted>
-9.1106

> <Gold.Chemscore.Internal_Hbond.Weighted>
0.0000

> <Gold.Chemscore.DEClash.Weighted>
0.0623

> <Gold.Chemscore.DEInternal.Weighted>
3.5868

> <Gold.Chemscore.Rot.Weighted>
7.7391

> <Gold.Chemscore.Internal.Correction.Weighted>
   9.000000E+99

> <Gold.Protein.RotatedTorsions>
[ 6907 6896 6895 6894 ] final  -32.97 input  -60.11 | X-H torsion
[ 7974 7965 7964 7962 ] final  -27.11 input  175.53 | X-H torsion
[ 8008 7997 7996 7995 ] final   98.69 input   59.86 | X-H torsion
[ 10167 10162 10161 10158 ] final  -89.93 input  -65.29 | X-H torsion
[ 10718 10713 10712 10709 ] final   83.43 input   66.30 | X-H torsion
[ 10763 10752 10751 10750 ] final  -31.20 input  -60.55 | X-H torsion
[ 11005 11000 10999 10996 ] final  144.08 input  -57.11 | X-H torsion

> <Gold.Protein.ActiveResidues>
 VAL166  LYS551  ARG553  GLY616  TRP617  ASP618  TYR619  PRO620  LYS621  CYS622 
 ASP623  PHE694  ASN695  SER759  ASP760  ASP761  ALA762  ILE779  LEU786  VAL792 
 PHE793  MET794  SER795  GLU796  ALA797  LYS798  CYS799  TRP800  GLU811  SER814 

> <Gold.Protein.RotatedAtoms>
  151.0717  134.9802  159.8311 H   0  0  0  0  0  0  0  0  0  0  0  0  # atno 6907 bound_to 6896
  152.5409  134.2291  159.8828 H   0  0  0  0  0  0  0  0  0  0  0  0  # atno 6908 bound_to 6896
  151.2316  133.4404  159.2637 H   0  0  0  0  0  0  0  0  0  0  0  0  # atno 6909 bound_to 6896
  146.1380  140.5108  142.8664 H   0  0  0  0  0  0  0  0  0  0  0  0  # atno 7974 bound_to 7965
  156.1030  140.3240  155.7967 H   0  0  0  0  0  0  0  0  0  0  0  0  # atno 8008 bound_to 7997
  155.4805  140.0553  157.2985 H   0  0  0  0  0  0  0  0  0  0  0  0  # atno 8009 bound_to 7997
  154.4709  140.2011  156.0013 H   0  0  0  0  0  0  0  0  0  0  0  0  # atno 8010 bound_to 7997
  140.3600  143.2847  151.9626 H   0  0  0  0  0  0  0  0  0  0  0  0  # atno 10167 bound_to 10162
  157.6879  131.0090  150.2523 H   0  0  0  0  0  0  0  0  0  0  0  0  # atno 10718 bound_to 10713
  153.7935  135.6896  153.4867 H   0  0  0  0  0  0  0  0  0  0  0  0  # atno 10763 bound_to 10752
  153.1734  135.4534  154.9932 H   0  0  0  0  0  0  0  0  0  0  0  0  # atno 10764 bound_to 10752
  154.8035  135.3347  154.7429 H   0  0  0  0  0  0  0  0  0  0  0  0  # atno 10765 bound_to 10752
  140.0604  134.9208  157.1173 H   0  0  0  0  0  0  0  0  0  0  0  0  # atno 11005 bound_to 11000
  144.7761  140.5742  143.6637 LP  0  0  0  0  0  0  0  0  0  0  0  0  # atno 17320 bound_to 7965
  145.5112  139.1479  143.3604 LP  0  0  0  0  0  0  0  0  0  0  0  0  # atno 17321 bound_to 7965
  139.4815  144.6001  151.7620 LP  0  0  0  0  0  0  0  0  0  0  0  0  # atno 17342 bound_to 10162
  140.5137  144.0986  150.6002 LP  0  0  0  0  0  0  0  0  0  0  0  0  # atno 17343 bound_to 10162
  156.3117  130.3773  149.7655 LP  0  0  0  0  0  0  0  0  0  0  0  0  # atno 17370 bound_to 10713
  156.5254  130.8233  151.3218 LP  0  0  0  0  0  0  0  0  0  0  0  0  # atno 17371 bound_to 10713
  140.3779  134.2319  155.7173 LP  0  0  0  0  0  0  0  0  0  0  0  0  # atno 17394 bound_to 11000
  141.1970  133.8068  157.0645 LP  0  0  0  0  0  0  0  0  0  0  0  0  # atno 17395 bound_to 11000

$$$$
