AV-unprocessed.smi:3148|AV-procd|sdf|11996|dock3
  -GOLD-   2272017403D 1   1.00000     0.00000
 Structure written by MMmdl.
 35 37  0  0  0  0  0  0  0  0  2 V2000
  152.7751  138.6434  155.8641 C   0  0  0  0  0  0  0  0  0  0  0  0
  151.4960  138.5530  155.2451 O   0  0  0  0  0  0  0  0  0  0  0  0
  150.7049  139.6826  155.2104 C   0  0  0  0  0  0  0  0  0  0  0  0
  149.5940  139.7255  154.3520 C   0  0  0  0  0  0  0  0  0  0  0  0
  148.8247  140.9050  154.3588 C   0  0  0  0  0  0  0  0  0  0  0  0
  147.6019  141.0731  153.4825 C   0  0  0  0  0  0  0  0  0  0  0  0
  149.1675  141.9359  155.1708 N   0  3  0  0  0  0  0  0  0  0  0  0
  150.2392  141.8308  155.9703 C   0  0  0  0  0  0  0  0  0  0  0  0
  150.5380  142.9083  156.7845 N   0  0  0  0  0  0  0  0  0  0  0  0
  151.6670  142.9474  157.7068 C   0  0  1  0  0  0  0  0  0  0  0  0
  152.5128  144.2159  157.5714 C   0  0  0  0  0  0  0  0  0  0  0  0
  152.5329  144.7356  159.0158 C   0  0  1  0  0  0  0  0  0  0  0  0
  151.1895  145.3650  159.4065 C   0  0  0  0  0  0  0  0  0  0  0  0
  150.2981  144.1326  159.5462 C   0  0  0  0  0  0  0  0  0  0  0  0
  151.2718  142.9940  159.1963 C   0  0  2  0  0  0  0  0  0  0  0  0
  152.4699  143.5191  159.7418 O   0  0  0  0  0  0  0  0  0  0  0  0
  151.0094  140.7346  156.0053 N   0  0  0  0  0  0  0  0  0  0  0  0
  153.2770  137.6781  155.7977 H   0  0  0  0  0  0  0  0  0  0  0  0
  152.6898  138.9006  156.9208 H   0  0  0  0  0  0  0  0  0  0  0  0
  153.4087  139.3791  155.3667 H   0  0  0  0  0  0  0  0  0  0  0  0
  149.3451  138.8879  153.7166 H   0  0  0  0  0  0  0  0  0  0  0  0
  147.5141  140.2538  152.7686 H   0  0  0  0  0  0  0  0  0  0  0  0
  147.6585  142.0068  152.9224 H   0  0  0  0  0  0  0  0  0  0  0  0
  146.6992  141.0921  154.0938 H   0  0  0  0  0  0  0  0  0  0  0  0
  149.8500  143.6440  156.8511 H   0  0  0  0  0  0  0  0  0  0  0  0
  152.3037  142.0797  157.5272 H   0  0  0  0  0  0  0  0  0  0  0  0
  153.5192  143.9642  157.2350 H   0  0  0  0  0  0  0  0  0  0  0  0
  152.0993  144.9512  156.8793 H   0  0  0  0  0  0  0  0  0  0  0  0
  153.3971  145.3572  159.2511 H   0  0  0  0  0  0  0  0  0  0  0  0
  151.2677  145.8906  160.3591 H   0  0  0  0  0  0  0  0  0  0  0  0
  150.8262  146.0690  158.6569 H   0  0  0  0  0  0  0  0  0  0  0  0
  149.9498  144.0337  160.5749 H   0  0  0  0  0  0  0  0  0  0  0  0
  149.4218  144.1642  158.8984 H   0  0  0  0  0  0  0  0  0  0  0  0
  150.9844  142.0267  159.6092 H   0  0  0  0  0  0  0  0  0  0  0  0
  148.6008  142.7843  155.1667 H   0  0  0  0  0  0  0  0  0  0  0  0
  1  2  1  0  0  0  0
  1 18  1  0  0  0  0
  1 19  1  0  0  0  0
  1 20  1  0  0  0  0
  2  3  1  0  0  0  0
  3 17  1  0  0  0  0
  3  4  2  0  0  0  0
  4  5  1  0  0  0  0
  4 21  1  0  0  0  0
  5  6  1  0  0  0  0
  5  7  2  0  0  0  0
  6 22  1  0  0  0  0
  6 23  1  0  0  0  0
  6 24  1  0  0  0  0
  7  8  1  0  0  0  0
  7 35  1  0  0  0  0
  8  9  1  0  0  0  0
  8 17  2  0  0  0  0
  9 10  1  0  0  0  0
  9 25  1  0  0  0  0
 10 15  1  0  0  0  0
 10 11  1  0  0  0  0
 10 26  1  0  0  0  0
 11 12  1  0  0  0  0
 11 27  1  0  0  0  0
 11 28  1  0  0  0  0
 12 16  1  0  0  0  0
 12 13  1  0  0  0  0
 12 29  1  0  0  0  0
 13 14  1  0  0  0  0
 13 30  1  0  0  0  0
 13 31  1  0  0  0  0
 14 15  1  0  0  0  0
 14 32  1  0  0  0  0
 14 33  1  0  0  0  0
 15 16  1  0  0  0  0
 15 34  1  0  0  0  0
M  CHG  1   7   1
M  END
> <s_m_source_file>
AV-unprocessed.smi

> <i_m_source_file_index>
3148

> <i_lp_mmshare_version>
43012

> <i_f3d_flags>
0

> <s_epik_input>
W0NIM11PYzFbY0hdYyhbQ0gzXSluYyhuMSlbTkhdW0NASF0oW0NIMl1bQ0BASF0yMylbQ0BASF0oTzMpW0NIMl1bQ0gyXTI=

> <s_epik_cmdline>
J2VwaWtfcHl0aG9uJywgJy1waCcsICc3LjAnLCAnLXRuJywgJzgnLCAnLW1hJywgJzIwMCcsICctbWV0YWxfYmluZGluZycsICctaW1hZScsICc8aW5maWxlLm1hZT4nLCAnLW9tYWUnLCAnPG91dGZpbGUubWFlPic=

> <r_lp_tautomer_probability>
0.999985

> <r_epik_Ionization_Penalty>
1.09461

> <r_epik_Ionization_Penalty_Charging>
1.0946

> <r_epik_Ionization_Penalty_Neutral>
6.69406e-06

> <r_epik_State_Penalty>
1.15119

> <r_epik_Charging_Adjusted_Penalty>
2.24579

> <i_epik_Tot_Q>
1

> <i_epik_Tot_abs_Q>
1

> <r_epik_Metal_State_Penalty>
1.2392

> <b_epik_Metal_Only>
0

> <s_lp_Force_Field>
OPLS_2005

> <r_lp_Energy>
36.3956

> <b_lp_Chiralities_Consistent>
1

> <s_lp_Variant>
AV-unprocessed.smi:3148-6

> <Gold.Version>
5.8.1

> <Gold.Id.Protein>
6NUR|6NUR_protein|mol2

> <Gold.PLP.Fitness>
45.2788

> <Gold.PLP.PLP>
-36.7468

> <Gold.PLP.part.hbond>
-2.0000

> <Gold.PLP.part.metal>
0.0000

> <Gold.PLP.part.buried>
-5.2915

> <Gold.PLP.part.nonpolar>
-29.5225

> <Gold.PLP.part.repulsive>
0.2850

> <Gold.PLP.ligand.clash>
0.0000

> <Gold.PLP.ligand.torsion>
0.2504

> <Gold.PLP.Chemscore.Hbond>
3.0080

> <Gold.PLP.Chemscore.CHOScore>
0.0000

> <Gold.PLP.Chemscore.Metal>
0.0000

> <Gold.Chemscore.Hbonds>
donor molecule, donor type, donor heavy atom, donor atom, acceptor molecule, acceptor atom, score
      L1  H     7    35       P1  8028  1.47
      L1  H     9    25       P1  8028  1.50

> <Gold.PLP.Chemscore.Internal.Correction>
0.0088

> <Gold.Rescore>
     Score         DG    S(hbond)    S(metal)    S(lipo)     H(rot)  DE(clash)    DE(int)     intcor
     17.63     -19.65       1.63        0.00     101.61       1.24       1.90       0.12       ----

> <Gold.Chemscore.Fitness>
17.6306

> <Gold.Chemscore.DG>
-19.6521

> <Gold.Chemscore.ZeroCoef>
-5.4800

> <Gold.Chemscore.Hbond>
1.6325

> <Gold.Chemscore.Metal>
0.0000

> <Gold.Chemscore.Lipo>
101.6050

> <Gold.Chemscore.Internal_Hbond>
0.0000

> <Gold.Chemscore.DEClash>
1.9008

> <Gold.Chemscore.DEInternal>
0.1207

> <Gold.Chemscore.Rot>
1.2376

> <Gold.Chemscore.Internal.Correction>
   9.000000E+99

> <Gold.Chemscore.Hbonds>
donor molecule, donor type, donor heavy atom, donor atom, acceptor molecule, acceptor atom, score
      L1  H     7    35       P1  8028  0.71
      L1  H     9    25       P1  8028  0.73

> <Gold.Chemscore.Hbond.Weighted>
-5.4525

> <Gold.Chemscore.Metal.Weighted>
-0.0000

> <Gold.Chemscore.Lipo.Weighted>
-11.8878

> <Gold.Chemscore.Internal_Hbond.Weighted>
0.0000

> <Gold.Chemscore.DEClash.Weighted>
1.9008

> <Gold.Chemscore.DEInternal.Weighted>
0.1207

> <Gold.Chemscore.Rot.Weighted>
3.1681

> <Gold.Chemscore.Internal.Correction.Weighted>
   9.000000E+99

> <Gold.Protein.RotatedTorsions>
[ 6907 6896 6895 6894 ] final   -8.42 input  -60.11 | X-H torsion
[ 7974 7965 7964 7962 ] final  147.11 input  175.53 | X-H torsion
[ 8008 7997 7996 7995 ] final  -44.14 input   59.86 | X-H torsion
[ 10167 10162 10161 10158 ] final   90.57 input  -65.29 | X-H torsion
[ 10718 10713 10712 10709 ] final   80.52 input   66.30 | X-H torsion
[ 10763 10752 10751 10750 ] final   10.86 input  -60.55 | X-H torsion
[ 11005 11000 10999 10996 ] final -154.69 input  -57.11 | X-H torsion

> <Gold.Protein.ActiveResidues>
 VAL166  LYS551  ARG553  GLY616  TRP617  ASP618  TYR619  PRO620  LYS621  CYS622 
 ASP623  PHE694  ASN695  SER759  ASP760  ASP761  ALA762  ILE779  LEU786  VAL792 
 PHE793  MET794  SER795  GLU796  ALA797  LYS798  CYS799  TRP800  GLU811  SER814 

> <Gold.Protein.RotatedAtoms>
  151.4339  135.1013  159.9650 H   0  0  0  0  0  0  0  0  0  0  0  0  # atno 6907 bound_to 6896
  152.4946  133.8592  159.7252 H   0  0  0  0  0  0  0  0  0  0  0  0  # atno 6908 bound_to 6896
  150.9136  133.6909  159.2876 H   0  0  0  0  0  0  0  0  0  0  0  0  # atno 6909 bound_to 6896
  144.8618  139.5988  143.5927 H   0  0  0  0  0  0  0  0  0  0  0  0  # atno 7974 bound_to 7965
  154.3997  140.1430  156.3634 H   0  0  0  0  0  0  0  0  0  0  0  0  # atno 8008 bound_to 7997
  155.8160  140.3471  155.5465 H   0  0  0  0  0  0  0  0  0  0  0  0  # atno 8009 bound_to 7997
  155.8337  140.0916  157.1767 H   0  0  0  0  0  0  0  0  0  0  0  0  # atno 8010 bound_to 7997
  139.8460  144.6617  150.9226 H   0  0  0  0  0  0  0  0  0  0  0  0  # atno 10167 bound_to 10162
  157.6808  130.9963  150.2091 H   0  0  0  0  0  0  0  0  0  0  0  0  # atno 10718 bound_to 10713
  153.1987  135.6853  153.8258 H   0  0  0  0  0  0  0  0  0  0  0  0  # atno 10763 bound_to 10752
  153.7532  135.3221  155.3326 H   0  0  0  0  0  0  0  0  0  0  0  0  # atno 10764 bound_to 10752
  154.8159  135.4686  154.0744 H   0  0  0  0  0  0  0  0  0  0  0  0  # atno 10765 bound_to 10752
  140.6946  134.4004  157.5216 H   0  0  0  0  0  0  0  0  0  0  0  0  # atno 11005 bound_to 11000
  146.2866  139.7021  142.9191 LP  0  0  0  0  0  0  0  0  0  0  0  0  # atno 17320 bound_to 7965
  145.4298  141.0414  143.2917 LP  0  0  0  0  0  0  0  0  0  0  0  0  # atno 17321 bound_to 7965
  140.7793  143.3869  151.1377 LP  0  0  0  0  0  0  0  0  0  0  0  0  # atno 17342 bound_to 10162
  139.7511  143.8777  152.3077 LP  0  0  0  0  0  0  0  0  0  0  0  0  # atno 17343 bound_to 10162
  156.2766  130.3728  149.7978 LP  0  0  0  0  0  0  0  0  0  0  0  0  # atno 17370 bound_to 10713
  156.5679  130.8412  151.3348 LP  0  0  0  0  0  0  0  0  0  0  0  0  # atno 17371 bound_to 10713
  139.8914  134.8781  156.2323 LP  0  0  0  0  0  0  0  0  0  0  0  0  # atno 17394 bound_to 11000
  141.0214  133.7039  156.1274 LP  0  0  0  0  0  0  0  0  0  0  0  0  # atno 17395 bound_to 11000

$$$$
