AV-unprocessed.smi:1152|AV-procd|sdf|4898|dock8
  -GOLD-   22720 3473D 1   1.00000     0.00000
 Structure written by MMmdl.
 31 32  0  0  0  0  0  0  0  0  2 V2000
  147.0523  140.6195  153.2904 C   0  0  0  0  0  0  0  0  0  0  0  0
  148.4590  140.4526  153.6257 N   0  0  0  0  0  0  0  0  0  0  0  0
  149.0062  140.7370  154.8151 C   0  0  0  0  0  0  0  0  0  0  0  0
  148.2913  141.1763  155.7181 O   0  0  0  0  0  0  0  0  0  0  0  0
  150.3404  140.4889  154.8620 N   0  5  0  0  0  0  0  0  0  0  0  0
  151.1281  140.6313  155.9518 C   0  0  0  0  0  0  0  0  0  0  0  0
  152.0975  139.7877  156.3519 N   0  0  0  0  0  0  0  0  0  0  0  0
  152.7430  140.1916  157.5096 N   0  0  0  0  0  0  0  0  0  0  0  0
  152.2576  141.3422  157.9810 C   0  0  0  0  0  0  0  0  0  0  0  0
  152.7753  142.0036  159.2200 C   0  0  0  0  0  0  0  0  0  0  0  0
  153.2074  140.9883  160.2958 C   0  0  0  0  0  0  0  0  0  0  0  0
  153.7737  141.6950  161.5384 C   0  0  0  0  0  0  0  0  0  0  0  0
  152.7790  142.7250  162.0981 C   0  0  0  0  0  0  0  0  0  0  0  0
  152.3767  143.7498  161.0252 C   0  0  0  0  0  0  0  0  0  0  0  0
  151.8003  143.0581  159.7789 C   0  0  0  0  0  0  0  0  0  0  0  0
  150.9537  142.0214  157.0228 S   0  0  0  0  0  0  0  0  0  0  0  0
  146.8780  140.3141  152.2588 H   0  0  0  0  0  0  0  0  0  0  0  0
  146.7502  141.6625  153.3936 H   0  0  0  0  0  0  0  0  0  0  0  0
  146.4239  140.0077  153.9387 H   0  0  0  0  0  0  0  0  0  0  0  0
  149.0667  140.0944  152.9036 H   0  0  0  0  0  0  0  0  0  0  0  0
  153.6762  142.5413  158.9205 H   0  0  0  0  0  0  0  0  0  0  0  0
  152.3549  140.3732  160.5870 H   0  0  0  0  0  0  0  0  0  0  0  0
  153.9556  140.3074  159.8883 H   0  0  0  0  0  0  0  0  0  0  0  0
  154.0176  140.9588  162.3046 H   0  0  0  0  0  0  0  0  0  0  0  0
  154.7089  142.1938  161.2807 H   0  0  0  0  0  0  0  0  0  0  0  0
  151.8895  142.2120  162.4657 H   0  0  0  0  0  0  0  0  0  0  0  0
  153.2176  143.2371  162.9549 H   0  0  0  0  0  0  0  0  0  0  0  0
  151.6455  144.4481  161.4332 H   0  0  0  0  0  0  0  0  0  0  0  0
  153.2471  144.3439  160.7436 H   0  0  0  0  0  0  0  0  0  0  0  0
  151.5783  143.8042  159.0150 H   0  0  0  0  0  0  0  0  0  0  0  0
  150.8512  142.5849  160.0346 H   0  0  0  0  0  0  0  0  0  0  0  0
  1  2  1  0  0  0  0
  1 17  1  0  0  0  0
  1 18  1  0  0  0  0
  1 19  1  0  0  0  0
  2  3  1  0  0  0  0
  2 20  1  0  0  0  0
  3  4  2  0  0  0  0
  3  5  1  0  0  0  0
  5  6  1  0  0  0  0
  6 16  1  0  0  0  0
  6  7  2  0  0  0  0
  7  8  1  0  0  0  0
  8  9  2  0  0  0  0
  9 10  1  0  0  0  0
  9 16  1  0  0  0  0
 10 15  1  0  0  0  0
 10 11  1  0  0  0  0
 10 21  1  0  0  0  0
 11 12  1  0  0  0  0
 11 22  1  0  0  0  0
 11 23  1  0  0  0  0
 12 13  1  0  0  0  0
 12 24  1  0  0  0  0
 12 25  1  0  0  0  0
 13 14  1  0  0  0  0
 13 26  1  0  0  0  0
 13 27  1  0  0  0  0
 14 15  1  0  0  0  0
 14 28  1  0  0  0  0
 14 29  1  0  0  0  0
 15 30  1  0  0  0  0
 15 31  1  0  0  0  0
M  CHG  1   5  -1
M  END
> <s_m_source_file>
AV-unprocessed.smi

> <i_m_source_file_index>
1152

> <i_lp_mmshare_version>
43012

> <i_f3d_flags>
0

> <s_epik_input>
W0NIM11bTkhdQyg9TylbTkhdYzFubmMoczEpW0NIXTJbQ0gyXVtDSDJdW0NIMl1bQ0gyXVtDSDJdMg==

> <s_epik_cmdline>
J2VwaWtfcHl0aG9uJywgJy1waCcsICc3LjAnLCAnLXRuJywgJzgnLCAnLW1hJywgJzIwMCcsICctbWV0YWxfYmluZGluZycsICctaW1hZScsICc8aW5maWxlLm1hZT4nLCAnLW9tYWUnLCAnPG91dGZpbGUubWFlPic=

> <r_lp_tautomer_probability>
1

> <r_epik_Ionization_Penalty>
4.62071

> <r_epik_Ionization_Penalty_Charging>
4.36597

> <r_epik_Ionization_Penalty_Neutral>
0.254736

> <r_epik_State_Penalty>
4.3656

> <r_epik_Charging_Adjusted_Penalty>
8.73157

> <i_epik_Tot_Q>
-1

> <i_epik_Tot_abs_Q>
1

> <r_epik_Metal_State_Penalty>
0.756176

> <b_epik_Metal_Only>
1

> <s_lp_Force_Field>
OPLS_2005

> <r_lp_Energy>
5.71757

> <b_lp_Chiralities_Consistent>
1

> <s_lp_Variant>
AV-unprocessed.smi:1152-2

> <Gold.Version>
5.8.1

> <Gold.Id.Protein>
6NUR|6NUR_protein|mol2

> <Gold.PLP.Fitness>
44.7588

> <Gold.PLP.PLP>
-37.8394

> <Gold.PLP.part.hbond>
-3.0753

> <Gold.PLP.part.metal>
0.0000

> <Gold.PLP.part.buried>
-5.6798

> <Gold.PLP.part.nonpolar>
-29.0284

> <Gold.PLP.part.repulsive>
0.3254

> <Gold.PLP.ligand.clash>
0.0000

> <Gold.PLP.ligand.torsion>
0.9152

> <Gold.PLP.Chemscore.Hbond>
2.8960

> <Gold.PLP.Chemscore.CHOScore>
0.0000

> <Gold.PLP.Chemscore.Metal>
0.0000

> <Gold.Chemscore.Hbonds>
donor molecule, donor type, donor heavy atom, donor atom, acceptor molecule, acceptor atom, score
      L1  H     2    20       P1  7957  1.00
      P1  H  7989  7998       L1     5  0.94
      P1  H  7997  8008       L1     8  0.90

> <Gold.PLP.Chemscore.Internal.Correction>
0.0617

> <Gold.Rescore>
     Score         DG    S(hbond)    S(metal)    S(lipo)     H(rot)  DE(clash)    DE(int)     intcor
     17.15     -18.27       1.60        0.00      85.53       1.00       0.07       1.04       ----

> <Gold.Chemscore.Fitness>
17.1481

> <Gold.Chemscore.DG>
-18.2659

> <Gold.Chemscore.ZeroCoef>
-5.4800

> <Gold.Chemscore.Hbond>
1.5985

> <Gold.Chemscore.Metal>
0.0000

> <Gold.Chemscore.Lipo>
85.5282

> <Gold.Chemscore.Internal_Hbond>
0.0000

> <Gold.Chemscore.DEClash>
0.0747

> <Gold.Chemscore.DEInternal>
1.0431

> <Gold.Chemscore.Rot>
1.0000

> <Gold.Chemscore.Internal.Correction>
   9.000000E+99

> <Gold.Chemscore.Hbonds>
donor molecule, donor type, donor heavy atom, donor atom, acceptor molecule, acceptor atom, score
      L1  H     2    20       P1  7957  0.94
      P1  H  7989  7998       L1     5  0.20
      P1  H  7997  8008       L1     8  0.22

> <Gold.Chemscore.Hbond.Weighted>
-5.3391

> <Gold.Chemscore.Metal.Weighted>
-0.0000

> <Gold.Chemscore.Lipo.Weighted>
-10.0068

> <Gold.Chemscore.Internal_Hbond.Weighted>
0.0000

> <Gold.Chemscore.DEClash.Weighted>
0.0747

> <Gold.Chemscore.DEInternal.Weighted>
1.0431

> <Gold.Chemscore.Rot.Weighted>
2.5600

> <Gold.Chemscore.Internal.Correction.Weighted>
   9.000000E+99

> <Gold.Protein.RotatedTorsions>
[ 6907 6896 6895 6894 ] final  165.12 input  -60.11 | X-H torsion
[ 7974 7965 7964 7962 ] final -128.61 input  175.53 | X-H torsion
[ 8008 7997 7996 7995 ] final  -80.81 input   59.86 | X-H torsion
[ 10167 10162 10161 10158 ] final  128.47 input  -65.29 | X-H torsion
[ 10718 10713 10712 10709 ] final   42.03 input   66.30 | X-H torsion
[ 10763 10752 10751 10750 ] final -155.50 input  -60.55 | X-H torsion
[ 11005 11000 10999 10996 ] final  -60.50 input  -57.11 | X-H torsion

> <Gold.Protein.ActiveResidues>
 VAL166  LYS551  ARG553  GLY616  TRP617  ASP618  TYR619  PRO620  LYS621  CYS622 
 ASP623  PHE694  ASN695  SER759  ASP760  ASP761  ALA762  ILE779  LEU786  VAL792 
 PHE793  MET794  SER795  GLU796  ALA797  LYS798  CYS799  TRP800  GLU811  SER814 

> <Gold.Protein.RotatedAtoms>
  151.8993  133.3534  159.3825 H   0  0  0  0  0  0  0  0  0  0  0  0  # atno 6907 bound_to 6896
  150.7084  134.4844  159.5495 H   0  0  0  0  0  0  0  0  0  0  0  0  # atno 6908 bound_to 6896
  152.2429  134.8210  160.0508 H   0  0  0  0  0  0  0  0  0  0  0  0  # atno 6909 bound_to 6896
  144.9654  140.7490  143.4703 H   0  0  0  0  0  0  0  0  0  0  0  0  # atno 7974 bound_to 7965
  154.5920  140.0657  156.9252 H   0  0  0  0  0  0  0  0  0  0  0  0  # atno 8008 bound_to 7997
  155.2279  140.3335  155.4289 H   0  0  0  0  0  0  0  0  0  0  0  0  # atno 8009 bound_to 7997
  156.2262  140.1820  156.7341 H   0  0  0  0  0  0  0  0  0  0  0  0  # atno 8010 bound_to 7997
  139.5525  144.6824  151.4280 H   0  0  0  0  0  0  0  0  0  0  0  0  # atno 10167 bound_to 10162
  157.4003  130.7856  149.7343 H   0  0  0  0  0  0  0  0  0  0  0  0  # atno 10718 bound_to 10713
  154.7782  135.3166  154.8046 H   0  0  0  0  0  0  0  0  0  0  0  0  # atno 10763 bound_to 10752
  153.8764  135.6839  153.4774 H   0  0  0  0  0  0  0  0  0  0  0  0  # atno 10764 bound_to 10752
  153.1411  135.4738  154.9434 H   0  0  0  0  0  0  0  0  0  0  0  0  # atno 10765 bound_to 10752
  141.1289  133.6623  156.5233 H   0  0  0  0  0  0  0  0  0  0  0  0  # atno 11005 bound_to 11000
  145.2638  139.1982  143.4878 LP  0  0  0  0  0  0  0  0  0  0  0  0  # atno 17320 bound_to 7965
  146.3366  140.2572  142.8600 LP  0  0  0  0  0  0  0  0  0  0  0  0  # atno 17321 bound_to 7965
  140.6791  143.8122  150.7098 LP  0  0  0  0  0  0  0  0  0  0  0  0  # atno 17342 bound_to 10162
  140.1570  143.4308  152.2093 LP  0  0  0  0  0  0  0  0  0  0  0  0  # atno 17343 bound_to 10162
  155.9821  130.4012  150.3433 LP  0  0  0  0  0  0  0  0  0  0  0  0  # atno 17370 bound_to 10713
  157.1560  131.0333  151.2863 LP  0  0  0  0  0  0  0  0  0  0  0  0  # atno 17371 bound_to 10713
  140.4275  134.7132  157.4924 LP  0  0  0  0  0  0  0  0  0  0  0  0  # atno 17394 bound_to 11000
  140.0317  134.6396  155.9098 LP  0  0  0  0  0  0  0  0  0  0  0  0  # atno 17395 bound_to 11000

$$$$
