AV-unprocessed.smi:2786|AV-procd|sdf|10751|dock3
  -GOLD-   2272015183D 1   1.00000     0.00000
 Structure written by MMmdl.
 28 29  0  0  0  0  0  0  0  0  3 V2000
  152.4808  141.0668  158.7796 C   0  0  0  0  0  0  0  0  0  0  0  0
  152.0944  142.4225  158.3831 N   0  0  0  0  0  0  0  0  0  0  0  0
  152.4833  143.5900  158.9886 C   0  0  0  0  0  0  0  0  0  0  0  0
  151.8828  144.6098  158.2984 C   0  0  0  0  0  0  0  0  0  0  0  0
  151.1541  144.0231  157.3000 N   0  3  0  0  0  0  0  0  0  0  0  0
  151.2868  142.6908  157.3427 C   0  0  0  0  0  0  0  0  0  0  0  0
  150.6274  141.7092  156.4163 C   0  0  1  0  0  0  0  0  0  0  0  0
  149.8482  140.6301  157.2028 C   0  0  0  0  0  0  0  0  0  0  0  0
  149.2414  139.6490  156.2793 N   0  3  0  0  0  0  0  0  0  0  0  0
  148.3894  140.3178  155.2764 C   0  0  0  0  0  0  0  0  0  0  0  0
  149.2032  141.3870  154.5259 C   0  0  0  0  0  0  0  0  0  0  0  0
  149.7251  142.3692  155.4719 N   0  0  0  0  0  0  0  0  0  0  0  0
  153.0532  141.1067  159.7072 H   0  0  0  0  0  0  0  0  0  0  0  0
  153.0954  140.6237  157.9954 H   0  0  0  0  0  0  0  0  0  0  0  0
  151.5860  140.4637  158.9365 H   0  0  0  0  0  0  0  0  0  0  0  0
  153.1409  143.6097  159.8463 H   0  0  0  0  0  0  0  0  0  0  0  0
  151.9178  145.6804  158.4399 H   0  0  0  0  0  0  0  0  0  0  0  0
  151.4324  141.2436  155.8464 H   0  0  0  0  0  0  0  0  0  0  0  0
  150.5125  140.0995  157.8853 H   0  0  0  0  0  0  0  0  0  0  0  0
  149.0650  141.0855  157.8109 H   0  0  0  0  0  0  0  0  0  0  0  0
  149.9782  139.1534  155.7979 H   0  0  0  0  0  0  0  0  0  0  0  0
  148.0076  139.5720  154.5789 H   0  0  0  0  0  0  0  0  0  0  0  0
  147.5260  140.7666  155.7701 H   0  0  0  0  0  0  0  0  0  0  0  0
  150.0239  140.9323  153.9691 H   0  0  0  0  0  0  0  0  0  0  0  0
  148.5694  141.8978  153.8005 H   0  0  0  0  0  0  0  0  0  0  0  0
  150.2260  143.0874  154.9667 H   0  0  0  0  0  0  0  0  0  0  0  0
  148.6869  138.9876  156.8043 H   0  0  0  0  0  0  0  0  0  0  0  0
  150.5966  144.5235  156.6186 H   0  0  0  0  0  0  0  0  0  0  0  0
  1  2  1  0  0  0  0
  1 13  1  0  0  0  0
  1 14  1  0  0  0  0
  1 15  1  0  0  0  0
  2  6  1  0  0  0  0
  2  3  1  0  0  0  0
  3  4  2  0  0  0  0
  3 16  1  0  0  0  0
  4  5  1  0  0  0  0
  4 17  1  0  0  0  0
  5  6  2  0  0  0  0
  5 28  1  0  0  0  0
  6  7  1  0  0  0  0
  7 12  1  0  0  0  0
  7  8  1  0  0  0  0
  7 18  1  0  0  0  0
  8  9  1  0  0  0  0
  8 19  1  0  0  0  0
  8 20  1  0  0  0  0
  9 10  1  0  0  0  0
  9 21  1  0  0  0  0
  9 27  1  0  0  0  0
 10 11  1  0  0  0  0
 10 22  1  0  0  0  0
 10 23  1  0  0  0  0
 11 12  1  0  0  0  0
 11 24  1  0  0  0  0
 11 25  1  0  0  0  0
 12 26  1  0  0  0  0
M  CHG  1   5   1
M  CHG  1   9   1
M  END
> <s_m_source_file>
AV-unprocessed.smi

> <i_m_source_file_index>
2786

> <i_lp_mmshare_version>
43012

> <i_f3d_flags>
0

> <s_epik_input>
W0NIM11uMVtjSF1bY0hdbmMxW0NAQEhdMltDSDJdW05IXVtDSDJdW0NIMl1bTkhdMg==

> <s_epik_cmdline>
J2VwaWtfcHl0aG9uJywgJy1waCcsICc3LjAnLCAnLXRuJywgJzgnLCAnLW1hJywgJzIwMCcsICctbWV0YWxfYmluZGluZycsICctaW1hZScsICc8aW5maWxlLm1hZT4nLCAnLW9tYWUnLCAnPG91dGZpbGUubWFlPic=

> <r_lp_tautomer_probability>
1

> <r_epik_Ionization_Penalty>
1.19986

> <r_epik_Ionization_Penalty_Charging>
0.069211

> <r_epik_Ionization_Penalty_Neutral>
1.13065

> <r_epik_State_Penalty>
0.776615

> <r_epik_Charging_Adjusted_Penalty>
0.845826

> <i_epik_Tot_Q>
2

> <i_epik_Tot_abs_Q>
2

> <r_epik_Metal_State_Penalty>
4.73559

> <b_epik_Metal_Only>
0

> <s_lp_Force_Field>
OPLS_2005

> <r_lp_Energy>
18.3539

> <b_lp_Chiralities_Consistent>
1

> <s_lp_Variant>
AV-unprocessed.smi:2786-4

> <Gold.Version>
5.8.1

> <Gold.Id.Protein>
6NUR|6NUR_protein|mol2

> <Gold.PLP.Fitness>
32.0266

> <Gold.PLP.PLP>
-26.1506

> <Gold.PLP.part.hbond>
-1.8989

> <Gold.PLP.part.metal>
0.0000

> <Gold.PLP.part.buried>
-3.5323

> <Gold.PLP.part.nonpolar>
-20.5590

> <Gold.PLP.part.repulsive>
0.0247

> <Gold.PLP.ligand.clash>
0.0000

> <Gold.PLP.ligand.torsion>
0.0672

> <Gold.PLP.Chemscore.Hbond>
2.0000

> <Gold.PLP.Chemscore.CHOScore>
0.0000

> <Gold.PLP.Chemscore.Metal>
0.0000

> <Gold.Chemscore.Hbonds>
donor molecule, donor type, donor heavy atom, donor atom, acceptor molecule, acceptor atom, score
      L1  H     5    28       P1  8028  2.00

> <Gold.PLP.Chemscore.Internal.Correction>
0.0104

> <Gold.Rescore>
     Score         DG    S(hbond)    S(metal)    S(lipo)     H(rot)  DE(clash)    DE(int)     intcor
     13.35     -13.38       1.15        0.00      56.65       1.00       0.00       0.02       ----

> <Gold.Chemscore.Fitness>
13.3526

> <Gold.Chemscore.DG>
-13.3814

> <Gold.Chemscore.ZeroCoef>
-5.4800

> <Gold.Chemscore.Hbond>
1.1476

> <Gold.Chemscore.Metal>
0.0000

> <Gold.Chemscore.Lipo>
56.6533

> <Gold.Chemscore.Internal_Hbond>
0.0000

> <Gold.Chemscore.DEClash>
0.0042

> <Gold.Chemscore.DEInternal>
0.0246

> <Gold.Chemscore.Rot>
1.0000

> <Gold.Chemscore.Internal.Correction>
   9.000000E+99

> <Gold.Chemscore.Hbonds>
donor molecule, donor type, donor heavy atom, donor atom, acceptor molecule, acceptor atom, score
      L1  H     5    28       P1  8028  0.92
      L1  H    12    26       P1  8028  0.01

> <Gold.Chemscore.Hbond.Weighted>
-3.8329

> <Gold.Chemscore.Metal.Weighted>
-0.0000

> <Gold.Chemscore.Lipo.Weighted>
-6.6284

> <Gold.Chemscore.Internal_Hbond.Weighted>
0.0000

> <Gold.Chemscore.DEClash.Weighted>
0.0042

> <Gold.Chemscore.DEInternal.Weighted>
0.0246

> <Gold.Chemscore.Rot.Weighted>
2.5600

> <Gold.Chemscore.Internal.Correction.Weighted>
   9.000000E+99

> <Gold.Protein.RotatedTorsions>
[ 6907 6896 6895 6894 ] final   91.83 input  -60.11 | X-H torsion
[ 7974 7965 7964 7962 ] final -178.66 input  175.53 | X-H torsion
[ 8008 7997 7996 7995 ] final -116.17 input   59.86 | X-H torsion
[ 10167 10162 10161 10158 ] final  -45.18 input  -65.29 | X-H torsion
[ 10718 10713 10712 10709 ] final   62.06 input   66.30 | X-H torsion
[ 10763 10752 10751 10750 ] final  -80.69 input  -60.55 | X-H torsion
[ 11005 11000 10999 10996 ] final   58.90 input  -57.11 | X-H torsion

> <Gold.Protein.ActiveResidues>
 VAL166  LYS551  ARG553  GLY616  TRP617  ASP618  TYR619  PRO620  LYS621  CYS622 
 ASP623  PHE694  ASN695  SER759  ASP760  ASP761  ALA762  ILE779  LEU786  VAL792 
 PHE793  MET794  SER795  GLU796  ALA797  LYS798  CYS799  TRP800  GLU811  SER814 

> <Gold.Protein.RotatedAtoms>
  152.5451  134.1596  159.8552 H   0  0  0  0  0  0  0  0  0  0  0  0  # atno 6907 bound_to 6896
  151.1616  133.4834  159.2601 H   0  0  0  0  0  0  0  0  0  0  0  0  # atno 6908 bound_to 6896
  151.1367  135.0169  159.8662 H   0  0  0  0  0  0  0  0  0  0  0  0  # atno 6909 bound_to 6896
  144.7132  140.0835  143.6424 H   0  0  0  0  0  0  0  0  0  0  0  0  # atno 7974 bound_to 7965
  155.0637  140.0393  157.2585 H   0  0  0  0  0  0  0  0  0  0  0  0  # atno 8008 bound_to 7997
  154.7039  140.2679  155.6669 H   0  0  0  0  0  0  0  0  0  0  0  0  # atno 8009 bound_to 7997
  156.2769  140.2735  156.1659 H   0  0  0  0  0  0  0  0  0  0  0  0  # atno 8010 bound_to 7997
  140.6868  143.2892  151.3602 H   0  0  0  0  0  0  0  0  0  0  0  0  # atno 10167 bound_to 10162
  157.5873  130.9029  149.9540 H   0  0  0  0  0  0  0  0  0  0  0  0  # atno 10718 bound_to 10713
  154.5544  135.5652  153.6950 H   0  0  0  0  0  0  0  0  0  0  0  0  # atno 10763 bound_to 10752
  152.9999  135.6258  154.2331 H   0  0  0  0  0  0  0  0  0  0  0  0  # atno 10764 bound_to 10752
  154.2266  135.2867  155.2885 H   0  0  0  0  0  0  0  0  0  0  0  0  # atno 10765 bound_to 10752
  140.0343  134.5965  155.9464 H   0  0  0  0  0  0  0  0  0  0  0  0  # atno 11005 bound_to 11000
  145.9681  139.2850  143.1115 LP  0  0  0  0  0  0  0  0  0  0  0  0  # atno 17320 bound_to 7965
  145.9146  140.9157  143.0436 LP  0  0  0  0  0  0  0  0  0  0  0  0  # atno 17321 bound_to 7965
  139.6234  144.0863  152.2412 LP  0  0  0  0  0  0  0  0  0  0  0  0  # atno 17342 bound_to 10162
  140.0314  144.6078  150.7485 LP  0  0  0  0  0  0  0  0  0  0  0  0  # atno 17343 bound_to 10162
  156.0924  130.3662  150.0370 LP  0  0  0  0  0  0  0  0  0  0  0  0  # atno 17370 bound_to 10713
  156.8499  130.9455  151.3626 LP  0  0  0  0  0  0  0  0  0  0  0  0  # atno 17371 bound_to 10713
  141.1849  133.6554  156.5175 LP  0  0  0  0  0  0  0  0  0  0  0  0  # atno 17394 bound_to 11000
  140.4173  134.7219  157.4870 LP  0  0  0  0  0  0  0  0  0  0  0  0  # atno 17395 bound_to 11000

$$$$
