AV-unprocessed.smi:670|AV-procd|sdf|3272|dock5
  -GOLD-   22720 0233D 1   1.00000     0.00000
 Structure written by MMmdl.
 45 46  0  0  0  0  0  0  0  0  1 V2000
  153.1677  142.5101  161.9999 C   0  0  0  0  0  0  0  0  0  0  0  0
  152.4269  143.1813  160.8314 C   0  0  1  0  0  0  0  0  0  0  0  0
  152.1169  144.6558  161.1589 C   0  0  0  0  0  0  0  0  0  0  0  0
  151.3872  145.3562  160.0026 C   0  0  0  0  0  0  0  0  0  0  0  0
  152.1914  145.2503  158.6994 C   0  0  0  0  0  0  0  0  0  0  0  0
  152.4930  143.7842  158.3560 C   0  0  0  0  0  0  0  0  0  0  0  0
  153.2245  143.0707  159.5123 C   0  0  2  0  0  0  0  0  0  0  0  0
  153.3661  141.6887  159.2089 O   0  0  0  0  0  0  0  0  0  0  0  0
  152.1416  140.9952  159.0177 C   0  0  0  0  0  0  0  0  0  0  0  0
  152.3826  139.4979  159.2578 C   0  0  0  0  0  0  0  0  0  0  0  0
  153.4322  139.2775  160.2466 N   0  0  0  0  0  0  0  0  0  0  0  0
  154.6836  138.8818  159.9705 C   0  0  0  0  0  0  0  0  0  0  0  0
  155.0708  138.6161  158.8315 O   0  0  0  0  0  0  0  0  0  0  0  0
  155.6304  138.7575  161.1732 C   0  0  0  0  0  0  0  0  0  0  0  0
  155.3013  137.6319  162.0595 N   0  0  0  0  0  0  0  0  0  0  0  0
  155.0525  137.9988  163.3735 N   0  0  0  0  0  0  0  0  0  0  0  0
  154.7381  137.1012  164.2453 C   0  0  0  0  0  0  0  0  0  0  0  0
  154.4974  137.5084  165.5348 O   0  0  0  0  0  0  0  0  0  0  0  0
  154.6419  135.7046  163.8805 C   0  0  0  0  0  0  0  0  0  0  0  0
  154.8921  135.3561  162.5994 C   0  0  0  0  0  0  0  0  0  0  0  0
  155.2523  136.3489  161.5854 C   0  0  0  0  0  0  0  0  0  0  0  0
  155.4892  136.0588  160.4132 O   0  0  0  0  0  0  0  0  0  0  0  0
  155.0076  138.2952  165.6501 H   0  0  0  0  0  0  0  0  0  0  0  0
  154.1352  142.9809  162.1774 H   0  0  0  0  0  0  0  0  0  0  0  0
  153.3455  141.4519  161.8053 H   0  0  0  0  0  0  0  0  0  0  0  0
  152.5905  142.5785  162.9220 H   0  0  0  0  0  0  0  0  0  0  0  0
  151.4768  142.6616  160.6982 H   0  0  0  0  0  0  0  0  0  0  0  0
  151.5088  144.7174  162.0620 H   0  0  0  0  0  0  0  0  0  0  0  0
  153.0444  145.1877  161.3761 H   0  0  0  0  0  0  0  0  0  0  0  0
  150.4030  144.9068  159.8644 H   0  0  0  0  0  0  0  0  0  0  0  0
  151.2170  146.4042  160.2506 H   0  0  0  0  0  0  0  0  0  0  0  0
  151.6411  145.7184  157.8827 H   0  0  0  0  0  0  0  0  0  0  0  0
  153.1265  145.8026  158.7999 H   0  0  0  0  0  0  0  0  0  0  0  0
  151.5596  143.2637  158.1375 H   0  0  0  0  0  0  0  0  0  0  0  0
  153.0883  143.7451  157.4439 H   0  0  0  0  0  0  0  0  0  0  0  0
  154.2041  143.5283  159.6647 H   0  0  0  0  0  0  0  0  0  0  0  0
  151.3863  141.3622  159.7126 H   0  0  0  0  0  0  0  0  0  0  0  0
  151.7609  141.1578  158.0083 H   0  0  0  0  0  0  0  0  0  0  0  0
  151.4667  139.0271  159.6153 H   0  0  0  0  0  0  0  0  0  0  0  0
  152.6427  139.0019  158.3213 H   0  0  0  0  0  0  0  0  0  0  0  0
  153.1973  139.4721  161.2092 H   0  0  0  0  0  0  0  0  0  0  0  0
  156.6591  138.6611  160.8201 H   0  0  0  0  0  0  0  0  0  0  0  0
  155.5977  139.6974  161.7273 H   0  0  0  0  0  0  0  0  0  0  0  0
  154.3766  134.9642  164.6209 H   0  0  0  0  0  0  0  0  0  0  0  0
  154.8246  134.3169  162.3130 H   0  0  0  0  0  0  0  0  0  0  0  0
  1  2  1  0  0  0  0
  1 24  1  0  0  0  0
  1 25  1  0  0  0  0
  1 26  1  0  0  0  0
  2  7  1  0  0  0  0
  2  3  1  0  0  0  0
  2 27  1  0  0  0  0
  3  4  1  0  0  0  0
  3 28  1  0  0  0  0
  3 29  1  0  0  0  0
  4  5  1  0  0  0  0
  4 30  1  0  0  0  0
  4 31  1  0  0  0  0
  5  6  1  0  0  0  0
  5 32  1  0  0  0  0
  5 33  1  0  0  0  0
  6  7  1  0  0  0  0
  6 34  1  0  0  0  0
  6 35  1  0  0  0  0
  7  8  1  0  0  0  0
  7 36  1  0  0  0  0
  8  9  1  0  0  0  0
  9 10  1  0  0  0  0
  9 37  1  0  0  0  0
  9 38  1  0  0  0  0
 10 11  1  0  0  0  0
 10 39  1  0  0  0  0
 10 40  1  0  0  0  0
 11 12  1  0  0  0  0
 11 41  1  0  0  0  0
 12 13  2  0  0  0  0
 12 14  1  0  0  0  0
 14 42  1  0  0  0  0
 14 43  1  0  0  0  0
 14 15  1  0  0  0  0
 15 16  1  0  0  0  0
 15 21  1  0  0  0  0
 16 17  2  0  0  0  0
 17 18  1  0  0  0  0
 17 19  1  0  0  0  0
 18 23  1  0  0  0  0
 19 44  1  0  0  0  0
 19 20  2  0  0  0  0
 20 45  1  0  0  0  0
 20 21  1  0  0  0  0
 21 22  2  0  0  0  0
M  END
> <s_m_source_file>
AV-unprocessed.smi

> <i_m_source_file_index>
670

> <i_lp_mmshare_version>
43012

> <i_f3d_flags>
0

> <s_epik_input>
W0NIM11bQ0BASF0xW0NIMl1bQ0gyXVtDSDJdW0NIMl1bQ0BIXTFPW0NIMl1bQ0gyXVtOSF1DKD1PKVtDSDJdbjJbbkhdYyg9TylbY0hdW2NIXWMyPU8=

> <s_epik_cmdline>
J2VwaWtfcHl0aG9uJywgJy1waCcsICc3LjAnLCAnLXRuJywgJzgnLCAnLW1hJywgJzIwMCcsICctbWV0YWxfYmluZGluZycsICctaW1hZScsICc8aW5maWxlLm1hZT4nLCAnLW9tYWUnLCAnPG91dGZpbGUubWFlPic=

> <r_lp_tautomer_probability>
0.9996

> <r_epik_Ionization_Penalty>
2.12726

> <r_epik_Ionization_Penalty_Charging>
3.83395e-08

> <r_epik_Ionization_Penalty_Neutral>
2.12726

> <r_epik_State_Penalty>
1.70432

> <r_epik_Charging_Adjusted_Penalty>
1.70432

> <i_epik_Tot_Q>
0

> <i_epik_Tot_abs_Q>
0

> <r_epik_Metal_State_Penalty>
1.70432

> <b_epik_Metal_Only>
0

> <s_lp_Force_Field>
OPLS_2005

> <r_lp_Energy>
20.1935

> <b_lp_Chiralities_Consistent>
1

> <s_lp_Variant>
AV-unprocessed.smi:670-8

> <Gold.Version>
5.8.1

> <Gold.Id.Protein>
6NUR|6NUR_protein|mol2

> <Gold.PLP.Fitness>
49.3368

> <Gold.PLP.PLP>
-47.3177

> <Gold.PLP.part.hbond>
-2.7882

> <Gold.PLP.part.metal>
0.0000

> <Gold.PLP.part.buried>
-5.3072

> <Gold.PLP.part.nonpolar>
-38.8567

> <Gold.PLP.part.repulsive>
0.0727

> <Gold.PLP.ligand.clash>
0.0000

> <Gold.PLP.ligand.torsion>
0.4955

> <Gold.PLP.Chemscore.Hbond>
0.9920

> <Gold.PLP.Chemscore.CHOScore>
0.0000

> <Gold.PLP.Chemscore.Metal>
0.0000

> <Gold.Chemscore.Hbonds>
donor molecule, donor type, donor heavy atom, donor atom, acceptor molecule, acceptor atom, score
      P1  H  7997  8009       L1    13  0.72

> <Gold.PLP.Chemscore.Internal.Correction>
0.0341

> <Gold.Rescore>
     Score         DG    S(hbond)    S(metal)    S(lipo)     H(rot)  DE(clash)    DE(int)     intcor
     13.52     -14.02       0.99        0.00     112.40       3.09       0.06       0.43       ----

> <Gold.Chemscore.Fitness>
13.5249

> <Gold.Chemscore.DG>
-14.0160

> <Gold.Chemscore.ZeroCoef>
-5.4800

> <Gold.Chemscore.Hbond>
0.9869

> <Gold.Chemscore.Metal>
0.0000

> <Gold.Chemscore.Lipo>
112.3950

> <Gold.Chemscore.Internal_Hbond>
0.0000

> <Gold.Chemscore.DEClash>
0.0581

> <Gold.Chemscore.DEInternal>
0.4329

> <Gold.Chemscore.Rot>
3.0901

> <Gold.Chemscore.Internal.Correction>
   9.000000E+99

> <Gold.Chemscore.Hbonds>
donor molecule, donor type, donor heavy atom, donor atom, acceptor molecule, acceptor atom, score
      P1  H  7997  8009       L1    13  0.69

> <Gold.Chemscore.Hbond.Weighted>
-3.2963

> <Gold.Chemscore.Metal.Weighted>
-0.0000

> <Gold.Chemscore.Lipo.Weighted>
-13.1502

> <Gold.Chemscore.Internal_Hbond.Weighted>
0.0000

> <Gold.Chemscore.DEClash.Weighted>
0.0581

> <Gold.Chemscore.DEInternal.Weighted>
0.4329

> <Gold.Chemscore.Rot.Weighted>
7.9106

> <Gold.Chemscore.Internal.Correction.Weighted>
   9.000000E+99

> <Gold.Protein.RotatedTorsions>
[ 6907 6896 6895 6894 ] final -150.61 input  -60.11 | X-H torsion
[ 7974 7965 7964 7962 ] final -172.09 input  175.53 | X-H torsion
[ 8008 7997 7996 7995 ] final  136.63 input   59.86 | X-H torsion
[ 10167 10162 10161 10158 ] final  -46.74 input  -65.29 | X-H torsion
[ 10718 10713 10712 10709 ] final  162.19 input   66.30 | X-H torsion
[ 10763 10752 10751 10750 ] final  102.74 input  -60.55 | X-H torsion
[ 11005 11000 10999 10996 ] final -151.86 input  -57.11 | X-H torsion

> <Gold.Protein.ActiveResidues>
 VAL166  LYS551  ARG553  GLY616  TRP617  ASP618  TYR619  PRO620  LYS621  CYS622 
 ASP623  PHE694  ASN695  SER759  ASP760  ASP761  ALA762  ILE779  LEU786  VAL792 
 PHE793  MET794  SER795  GLU796  ALA797  LYS798  CYS799  TRP800  GLU811  SER814 

> <Gold.Protein.RotatedAtoms>
  151.2011  133.4610  159.2596 H   0  0  0  0  0  0  0  0  0  0  0  0  # atno 6907 bound_to 6896
  151.1069  135.0004  159.8485 H   0  0  0  0  0  0  0  0  0  0  0  0  # atno 6908 bound_to 6896
  152.5447  134.1933  159.8735 H   0  0  0  0  0  0  0  0  0  0  0  0  # atno 6909 bound_to 6896
  144.7150  140.1824  143.6357 H   0  0  0  0  0  0  0  0  0  0  0  0  # atno 7974 bound_to 7965
  156.3004  140.2440  156.3777 H   0  0  0  0  0  0  0  0  0  0  0  0  # atno 8008 bound_to 7997
  154.8729  140.0415  157.1755 H   0  0  0  0  0  0  0  0  0  0  0  0  # atno 8009 bound_to 7997
  154.8776  140.2944  155.5448 H   0  0  0  0  0  0  0  0  0  0  0  0  # atno 8010 bound_to 7997
  140.6805  143.2817  151.3826 H   0  0  0  0  0  0  0  0  0  0  0  0  # atno 10167 bound_to 10162
  157.1260  131.0504  151.2393 H   0  0  0  0  0  0  0  0  0  0  0  0  # atno 10718 bound_to 10713
  153.3436  135.4000  155.1591 H   0  0  0  0  0  0  0  0  0  0  0  0  # atno 10763 bound_to 10752
  154.8648  135.3639  154.5314 H   0  0  0  0  0  0  0  0  0  0  0  0  # atno 10764 bound_to 10752
  153.5760  135.7078  153.5543 H   0  0  0  0  0  0  0  0  0  0  0  0  # atno 10765 bound_to 10752
  140.7251  134.3684  157.5177 H   0  0  0  0  0  0  0  0  0  0  0  0  # atno 11005 bound_to 11000
  145.8844  139.2340  143.1586 LP  0  0  0  0  0  0  0  0  0  0  0  0  # atno 17320 bound_to 7965
  145.9964  140.8558  143.0040 LP  0  0  0  0  0  0  0  0  0  0  0  0  # atno 17321 bound_to 7965
  139.6124  144.1071  152.2312 LP  0  0  0  0  0  0  0  0  0  0  0  0  # atno 17342 bound_to 10162
  140.0489  144.5948  150.7351 LP  0  0  0  0  0  0  0  0  0  0  0  0  # atno 17343 bound_to 10162
  157.4434  130.7557  149.7089 LP  0  0  0  0  0  0  0  0  0  0  0  0  # atno 17370 bound_to 10713
  155.9818  130.4016  150.3452 LP  0  0  0  0  0  0  0  0  0  0  0  0  # atno 17371 bound_to 10713
  139.8839  134.8981  156.2737 LP  0  0  0  0  0  0  0  0  0  0  0  0  # atno 17394 bound_to 11000
  140.9970  133.7174  156.0901 LP  0  0  0  0  0  0  0  0  0  0  0  0  # atno 17395 bound_to 11000

$$$$
