AV-unprocessed.smi:1990|AV-procd|sdf|8064|dock10
  -GOLD-   2272010273D 1   1.00000     0.00000
 Structure written by MMmdl.
 46 47  0  0  0  0  0  0  0  0  1 V2000
  150.4634  141.7395  155.7120 C   0  0  0  0  0  0  0  0  0  0  0  0
  150.8555  141.9277  157.1812 C   0  0  1  0  0  0  0  0  0  0  0  0
  151.9108  140.9014  157.6349 C   0  0  0  0  0  0  0  0  0  0  0  0
  152.3535  141.1847  158.9974 N   0  0  0  0  0  0  0  0  0  0  0  0
  153.0826  140.1955  159.6971 C   0  0  0  0  0  0  0  0  0  0  0  0
  154.3108  140.4780  160.3477 C   0  0  0  0  0  0  0  0  0  0  0  0
  154.9905  139.4447  161.0214 C   0  0  0  0  0  0  0  0  0  0  0  0
  154.4272  138.1479  161.0370 C   0  0  0  0  0  0  0  0  0  0  0  0
  155.0140  137.0154  161.6641 N   0  0  0  0  0  0  0  0  0  0  0  0
  154.9845  135.7236  161.2861 C   0  0  0  0  0  0  0  0  0  0  0  0
  154.4114  135.3018  160.2821 O   0  0  0  0  0  0  0  0  0  0  0  0
  155.7467  134.7503  162.1961 C   0  0  1  0  0  0  0  0  0  0  0  0
  157.2626  135.0035  162.1603 C   0  0  0  0  0  0  0  0  0  0  0  0
  155.1248  134.8865  163.9379 S   0  0  0  0  0  0  0  0  0  0  0  0
  154.4224  133.2146  164.2640 C   0  0  0  0  0  0  0  0  0  0  0  0
  156.2860  135.0763  164.8206 O   0  0  0  0  0  0  0  0  0  0  0  0
  154.0228  135.8600  163.9787 O   0  0  0  0  0  0  0  0  0  0  0  0
  153.2116  137.9601  160.3515 C   0  0  0  0  0  0  0  0  0  0  0  0
  152.5572  138.9468  159.7062 N   0  0  0  0  0  0  0  0  0  0  0  0
  152.7588  142.5741  159.2105 C   0  0  0  0  0  0  0  0  0  0  0  0
  151.6768  143.5436  158.6997 C   0  0  1  0  0  0  0  0  0  0  0  0
  152.1313  145.0046  158.7816 C   0  0  0  0  0  0  0  0  0  0  0  0
  151.3797  143.2423  157.3397 O   0  0  0  0  0  0  0  0  0  0  0  0
  150.0477  140.7463  155.5407 H   0  0  0  0  0  0  0  0  0  0  0  0
  151.3251  141.8603  155.0550 H   0  0  0  0  0  0  0  0  0  0  0  0
  149.7114  142.4704  155.4135 H   0  0  0  0  0  0  0  0  0  0  0  0
  149.9577  141.8242  157.7933 H   0  0  0  0  0  0  0  0  0  0  0  0
  151.4722  139.9048  157.5793 H   0  0  0  0  0  0  0  0  0  0  0  0
  152.7731  140.9219  156.9671 H   0  0  0  0  0  0  0  0  0  0  0  0
  154.7467  141.4653  160.3515 H   0  0  0  0  0  0  0  0  0  0  0  0
  155.9306  139.6710  161.4988 H   0  0  0  0  0  0  0  0  0  0  0  0
  155.5741  137.2212  162.4787 H   0  0  0  0  0  0  0  0  0  0  0  0
  155.5589  133.7270  161.8688 H   0  0  0  0  0  0  0  0  0  0  0  0
  157.6484  134.9565  161.1414 H   0  0  0  0  0  0  0  0  0  0  0  0
  157.7948  134.2544  162.7466 H   0  0  0  0  0  0  0  0  0  0  0  0
  157.5160  135.9819  162.5710 H   0  0  0  0  0  0  0  0  0  0  0  0
  154.1039  133.1565  165.3048 H   0  0  0  0  0  0  0  0  0  0  0  0
  155.1806  132.4547  164.0769 H   0  0  0  0  0  0  0  0  0  0  0  0
  153.5609  133.0404  163.6199 H   0  0  0  0  0  0  0  0  0  0  0  0
  152.7439  136.9868  160.3210 H   0  0  0  0  0  0  0  0  0  0  0  0
  152.9407  142.7832  160.2647 H   0  0  0  0  0  0  0  0  0  0  0  0
  153.6987  142.7463  158.6848 H   0  0  0  0  0  0  0  0  0  0  0  0
  150.7711  143.4301  159.2981 H   0  0  0  0  0  0  0  0  0  0  0  0
  152.3585  145.2872  159.8099 H   0  0  0  0  0  0  0  0  0  0  0  0
  151.3537  145.6761  158.4169 H   0  0  0  0  0  0  0  0  0  0  0  0
  153.0261  145.1741  158.1819 H   0  0  0  0  0  0  0  0  0  0  0  0
  1  2  1  0  0  0  0
  1 24  1  0  0  0  0
  1 25  1  0  0  0  0
  1 26  1  0  0  0  0
  2 23  1  0  0  0  0
  2  3  1  0  0  0  0
  2 27  1  0  0  0  0
  3  4  1  0  0  0  0
  3 28  1  0  0  0  0
  3 29  1  0  0  0  0
  4  5  1  0  0  0  0
  4 20  1  0  0  0  0
  5 19  1  0  0  0  0
  5  6  2  0  0  0  0
  6  7  1  0  0  0  0
  6 30  1  0  0  0  0
  7  8  2  0  0  0  0
  7 31  1  0  0  0  0
  8  9  1  0  0  0  0
  8 18  1  0  0  0  0
  9 10  1  0  0  0  0
  9 32  1  0  0  0  0
 10 11  2  0  0  0  0
 10 12  1  0  0  0  0
 12 13  1  0  0  0  0
 12 14  1  0  0  0  0
 12 33  1  0  0  0  0
 13 34  1  0  0  0  0
 13 35  1  0  0  0  0
 13 36  1  0  0  0  0
 14 15  1  0  0  0  0
 14 16  2  0  0  0  0
 14 17  2  0  0  0  0
 15 37  1  0  0  0  0
 15 38  1  0  0  0  0
 15 39  1  0  0  0  0
 18 19  2  0  0  0  0
 18 40  1  0  0  0  0
 20 21  1  0  0  0  0
 20 41  1  0  0  0  0
 20 42  1  0  0  0  0
 21 22  1  0  0  0  0
 21 23  1  0  0  0  0
 21 43  1  0  0  0  0
 22 44  1  0  0  0  0
 22 45  1  0  0  0  0
 22 46  1  0  0  0  0
M  END
> <s_m_source_file>
AV-unprocessed.smi

> <i_m_source_file_index>
1990

> <i_lp_mmshare_version>
43012

> <i_f3d_flags>
0

> <s_epik_input>
W0NIM11bQ0BASF0xW0NIMl1OKFtDSDJdW0NASF0oTzEpW0NIM10pYzJbY0hdW2NIXWMoW2NIXW4yKVtOSF1DKD1PKVtDQEhdKFtDSDNdKVMoPU8pKD1PKVtDSDNd

> <s_epik_cmdline>
J2VwaWtfcHl0aG9uJywgJy1waCcsICc3LjAnLCAnLXRuJywgJzgnLCAnLW1hJywgJzIwMCcsICctbWV0YWxfYmluZGluZycsICctaW1hZScsICc8aW5maWxlLm1hZT4nLCAnLW9tYWUnLCAnPG91dGZpbGUubWFlPic=

> <r_lp_tautomer_probability>
1

> <r_epik_Ionization_Penalty>
0.000334888

> <r_epik_Ionization_Penalty_Charging>
0

> <r_epik_Ionization_Penalty_Neutral>
0.000334888

> <r_epik_State_Penalty>
0.000200905

> <r_epik_Charging_Adjusted_Penalty>
0.000200905

> <i_epik_Tot_Q>
0

> <i_epik_Tot_abs_Q>
0

> <r_epik_Metal_State_Penalty>
-0

> <b_epik_Metal_Only>
0

> <s_lp_Force_Field>
OPLS_2005

> <r_lp_Energy>
18.0691

> <b_lp_Chiralities_Consistent>
1

> <s_lp_Variant>
AV-unprocessed.smi:1990-4

> <Gold.Version>
5.8.1

> <Gold.Id.Protein>
6NUR|6NUR_protein|mol2

> <Gold.PLP.Fitness>
39.0483

> <Gold.PLP.PLP>
-36.6436

> <Gold.PLP.part.hbond>
-1.0000

> <Gold.PLP.part.metal>
0.0000

> <Gold.PLP.part.buried>
-5.2194

> <Gold.PLP.part.nonpolar>
-30.8931

> <Gold.PLP.part.repulsive>
0.2836

> <Gold.PLP.ligand.clash>
0.0000

> <Gold.PLP.ligand.torsion>
0.6038

> <Gold.PLP.Chemscore.Hbond>
1.0000

> <Gold.PLP.Chemscore.CHOScore>
0.0000

> <Gold.PLP.Chemscore.Metal>
0.0000

> <Gold.Chemscore.Hbonds>
donor molecule, donor type, donor heavy atom, donor atom, acceptor molecule, acceptor atom, score
      P1  H  6896  6908       L1    11  0.94

> <Gold.PLP.Chemscore.Internal.Correction>
0.6123

> <Gold.Rescore>
     Score         DG    S(hbond)    S(metal)    S(lipo)     H(rot)  DE(clash)    DE(int)     intcor
     13.43     -16.57       1.00        0.00      99.50       1.52       0.06       3.08       ----

> <Gold.Chemscore.Fitness>
13.4293

> <Gold.Chemscore.DG>
-16.5727

> <Gold.Chemscore.ZeroCoef>
-5.4800

> <Gold.Chemscore.Hbond>
0.9991

> <Gold.Chemscore.Metal>
0.0000

> <Gold.Chemscore.Lipo>
99.4962

> <Gold.Chemscore.Internal_Hbond>
0.0000

> <Gold.Chemscore.DEClash>
0.0645

> <Gold.Chemscore.DEInternal>
3.0789

> <Gold.Chemscore.Rot>
1.5177

> <Gold.Chemscore.Internal.Correction>
   9.000000E+99

> <Gold.Chemscore.Hbonds>
donor molecule, donor type, donor heavy atom, donor atom, acceptor molecule, acceptor atom, score
      P1  H  6896  6908       L1    11  0.90

> <Gold.Chemscore.Hbond.Weighted>
-3.3369

> <Gold.Chemscore.Metal.Weighted>
-0.0000

> <Gold.Chemscore.Lipo.Weighted>
-11.6411

> <Gold.Chemscore.Internal_Hbond.Weighted>
0.0000

> <Gold.Chemscore.DEClash.Weighted>
0.0645

> <Gold.Chemscore.DEInternal.Weighted>
3.0789

> <Gold.Chemscore.Rot.Weighted>
3.8853

> <Gold.Chemscore.Internal.Correction.Weighted>
   9.000000E+99

> <Gold.Protein.RotatedTorsions>
[ 6907 6896 6895 6894 ] final  -49.64 input  -60.11 | X-H torsion
[ 7974 7965 7964 7962 ] final  -92.85 input  175.53 | X-H torsion
[ 8008 7997 7996 7995 ] final -178.87 input   59.86 | X-H torsion
[ 10167 10162 10161 10158 ] final   75.90 input  -65.29 | X-H torsion
[ 10718 10713 10712 10709 ] final   16.34 input   66.30 | X-H torsion
[ 10763 10752 10751 10750 ] final  -84.61 input  -60.55 | X-H torsion
[ 11005 11000 10999 10996 ] final   14.89 input  -57.11 | X-H torsion

> <Gold.Protein.ActiveResidues>
 VAL166  LYS551  ARG553  GLY616  TRP617  ASP618  TYR619  PRO620  LYS621  CYS622 
 ASP623  PHE694  ASN695  SER759  ASP760  ASP761  ALA762  ILE779  LEU786  VAL792 
 PHE793  MET794  SER795  GLU796  ALA797  LYS798  CYS799  TRP800  GLU811  SER814 

> <Gold.Protein.RotatedAtoms>
  150.8785  134.8173  159.7207 H   0  0  0  0  0  0  0  0  0  0  0  0  # atno 6907 bound_to 6896
  152.4762  134.4833  159.9682 H   0  0  0  0  0  0  0  0  0  0  0  0  # atno 6908 bound_to 6896
  151.4911  133.3486  159.2889 H   0  0  0  0  0  0  0  0  0  0  0  0  # atno 6909 bound_to 6896
  145.3944  140.9531  143.2322 H   0  0  0  0  0  0  0  0  0  0  0  0  # atno 7974 bound_to 7965
  156.0239  140.1267  157.0328 H   0  0  0  0  0  0  0  0  0  0  0  0  # atno 8008 bound_to 7997
  154.4322  140.1063  156.6073 H   0  0  0  0  0  0  0  0  0  0  0  0  # atno 8009 bound_to 7997
  155.5904  140.3469  155.4567 H   0  0  0  0  0  0  0  0  0  0  0  0  # atno 8010 bound_to 7997
  139.9981  144.5707  150.7761 H   0  0  0  0  0  0  0  0  0  0  0  0  # atno 10167 bound_to 10162
  157.0665  130.6330  149.5796 H   0  0  0  0  0  0  0  0  0  0  0  0  # atno 10718 bound_to 10713
  154.6015  135.5514  153.7379 H   0  0  0  0  0  0  0  0  0  0  0  0  # atno 10763 bound_to 10752
  153.0157  135.6367  154.1707 H   0  0  0  0  0  0  0  0  0  0  0  0  # atno 10764 bound_to 10752
  154.1647  135.2895  155.3078 H   0  0  0  0  0  0  0  0  0  0  0  0  # atno 10765 bound_to 10752
  140.4644  134.1094  155.7722 H   0  0  0  0  0  0  0  0  0  0  0  0  # atno 11005 bound_to 11000
  144.8418  139.5460  143.6897 LP  0  0  0  0  0  0  0  0  0  0  0  0  # atno 17320 bound_to 7965
  146.2782  139.6808  142.9248 LP  0  0  0  0  0  0  0  0  0  0  0  0  # atno 17321 bound_to 7965
  140.7429  143.2839  151.3519 LP  0  0  0  0  0  0  0  0  0  0  0  0  # atno 17342 bound_to 10162
  139.6292  144.0755  152.2461 LP  0  0  0  0  0  0  0  0  0  0  0  0  # atno 17343 bound_to 10162
  155.9963  130.5032  150.7491 LP  0  0  0  0  0  0  0  0  0  0  0  0  # atno 17370 bound_to 10713
  157.4913  131.0911  151.0424 LP  0  0  0  0  0  0  0  0  0  0  0  0  # atno 17371 bound_to 10713
  141.1606  133.8800  157.1858 LP  0  0  0  0  0  0  0  0  0  0  0  0  # atno 17394 bound_to 11000
  139.9925  135.0059  157.0007 LP  0  0  0  0  0  0  0  0  0  0  0  0  # atno 17395 bound_to 11000

$$$$
