AV-unprocessed.smi:1679|AV-procd|sdf|6732|dock9
  -GOLD-   22720 7483D 1   1.00000     0.00000
 Structure written by MMmdl.
 45 46  0  0  0  0  0  0  0  0  1 V2000
  153.1906  142.4042  162.2000 C   0  0  0  0  0  0  0  0  0  0  0  0
  152.3370  142.9165  161.0285 C   0  0  1  0  0  0  0  0  0  0  0  0
  151.8837  144.3681  161.2810 C   0  0  0  0  0  0  0  0  0  0  0  0
  151.0231  144.9037  160.1280 C   0  0  0  0  0  0  0  0  0  0  0  0
  151.7739  144.8056  158.7942 C   0  0  0  0  0  0  0  0  0  0  0  0
  152.2300  143.3655  158.5234 C   0  0  0  0  0  0  0  0  0  0  0  0
  153.0835  142.7965  159.6796 C   0  0  2  0  0  0  0  0  0  0  0  0
  153.3218  141.4133  159.4524 O   0  0  0  0  0  0  0  0  0  0  0  0
  152.1561  140.6029  159.3811 C   0  0  0  0  0  0  0  0  0  0  0  0
  151.8546  140.3060  157.9024 C   0  0  0  0  0  0  0  0  0  0  0  0
  150.4424  140.5047  157.5919 N   0  0  0  0  0  0  0  0  0  0  0  0
  149.5676  139.5371  157.2776 C   0  0  0  0  0  0  0  0  0  0  0  0
  149.8365  138.3369  157.3200 O   0  0  0  0  0  0  0  0  0  0  0  0
  148.1789  140.0004  156.8272 C   0  0  0  0  0  0  0  0  0  0  0  0
  147.8908  139.5287  155.4657 N   0  0  0  0  0  0  0  0  0  0  0  0
  146.6781  138.9118  155.1901 C   0  0  0  0  0  0  0  0  0  0  0  0
  146.3199  138.4853  153.9559 C   0  0  0  0  0  0  0  0  0  0  0  0
  147.2222  138.6620  152.8236 C   0  0  0  0  0  0  0  0  0  0  0  0
  146.9858  138.3173  151.6680 O   0  0  0  0  0  0  0  0  0  0  0  0
  148.4323  139.2850  153.1402 N   0  0  0  0  0  0  0  0  0  0  0  0
  148.8076  139.7275  154.4099 C   0  0  0  0  0  0  0  0  0  0  0  0
  149.8976  140.2732  154.5752 O   0  0  0  0  0  0  0  0  0  0  0  0
  149.0887  139.4319  152.3873 H   0  0  0  0  0  0  0  0  0  0  0  0
  154.1108  142.9800  162.3010 H   0  0  0  0  0  0  0  0  0  0  0  0
  153.4663  141.3581  162.0643 H   0  0  0  0  0  0  0  0  0  0  0  0
  152.6475  142.4776  163.1423 H   0  0  0  0  0  0  0  0  0  0  0  0
  151.4418  142.2946  160.9745 H   0  0  0  0  0  0  0  0  0  0  0  0
  151.3180  144.4256  162.2116 H   0  0  0  0  0  0  0  0  0  0  0  0
  152.7559  145.0102  161.4108 H   0  0  0  0  0  0  0  0  0  0  0  0
  150.0931  144.3371  160.0697 H   0  0  0  0  0  0  0  0  0  0  0  0
  150.7432  145.9394  160.3218 H   0  0  0  0  0  0  0  0  0  0  0  0
  151.1334  145.1496  157.9815 H   0  0  0  0  0  0  0  0  0  0  0  0
  152.6404  145.4678  158.8098 H   0  0  0  0  0  0  0  0  0  0  0  0
  151.3551  142.7337  158.3834 H   0  0  0  0  0  0  0  0  0  0  0  0
  152.7754  143.3398  157.5807 H   0  0  0  0  0  0  0  0  0  0  0  0
  154.0301  143.3361  159.7472 H   0  0  0  0  0  0  0  0  0  0  0  0
  152.2820  139.6662  159.9222 H   0  0  0  0  0  0  0  0  0  0  0  0
  151.3183  141.1241  159.8457 H   0  0  0  0  0  0  0  0  0  0  0  0
  152.4729  140.9267  157.2525 H   0  0  0  0  0  0  0  0  0  0  0  0
  152.1034  139.2686  157.6783 H   0  0  0  0  0  0  0  0  0  0  0  0
  150.1244  141.4613  157.5349 H   0  0  0  0  0  0  0  0  0  0  0  0
  147.4310  139.6411  157.5364 H   0  0  0  0  0  0  0  0  0  0  0  0
  148.1142  141.0891  156.8740 H   0  0  0  0  0  0  0  0  0  0  0  0
  145.9741  138.7687  155.9978 H   0  0  0  0  0  0  0  0  0  0  0  0
  145.3584  138.0160  153.8050 H   0  0  0  0  0  0  0  0  0  0  0  0
  1  2  1  0  0  0  0
  1 24  1  0  0  0  0
  1 25  1  0  0  0  0
  1 26  1  0  0  0  0
  2  7  1  0  0  0  0
  2  3  1  0  0  0  0
  2 27  1  0  0  0  0
  3  4  1  0  0  0  0
  3 28  1  0  0  0  0
  3 29  1  0  0  0  0
  4  5  1  0  0  0  0
  4 30  1  0  0  0  0
  4 31  1  0  0  0  0
  5  6  1  0  0  0  0
  5 32  1  0  0  0  0
  5 33  1  0  0  0  0
  6  7  1  0  0  0  0
  6 34  1  0  0  0  0
  6 35  1  0  0  0  0
  7  8  1  0  0  0  0
  7 36  1  0  0  0  0
  8  9  1  0  0  0  0
  9 10  1  0  0  0  0
  9 37  1  0  0  0  0
  9 38  1  0  0  0  0
 10 11  1  0  0  0  0
 10 39  1  0  0  0  0
 10 40  1  0  0  0  0
 11 12  1  0  0  0  0
 11 41  1  0  0  0  0
 12 13  2  0  0  0  0
 12 14  1  0  0  0  0
 14 15  1  0  0  0  0
 14 42  1  0  0  0  0
 14 43  1  0  0  0  0
 15 21  1  0  0  0  0
 15 16  1  0  0  0  0
 16 17  2  0  0  0  0
 16 44  1  0  0  0  0
 17 18  1  0  0  0  0
 17 45  1  0  0  0  0
 18 19  2  0  0  0  0
 18 20  1  0  0  0  0
 20 23  1  0  0  0  0
 20 21  1  0  0  0  0
 21 22  2  0  0  0  0
M  END
> <s_m_source_file>
AV-unprocessed.smi

> <i_m_source_file_index>
1679

> <i_lp_mmshare_version>
43012

> <i_f3d_flags>
0

> <s_epik_input>
W0NIM11bQ0BASF0xW0NIMl1bQ0gyXVtDSDJdW0NIMl1bQ0BIXTFPW0NIMl1bQ0gyXVtOSF1DKD1PKVtDSDJdbjJbY0hdW2NIXWMoPU8pW25IXWMyPU8=

> <s_epik_cmdline>
J2VwaWtfcHl0aG9uJywgJy1waCcsICc3LjAnLCAnLXRuJywgJzgnLCAnLW1hJywgJzIwMCcsICctbWV0YWxfYmluZGluZycsICctaW1hZScsICc8aW5maWxlLm1hZT4nLCAnLW9tYWUnLCAnPG91dGZpbGUubWFlPic=

> <r_lp_tautomer_probability>
0.999537

> <r_epik_Ionization_Penalty>
0.0033132

> <r_epik_Ionization_Penalty_Charging>
0.00331317

> <r_epik_Ionization_Penalty_Neutral>
2.78599e-08

> <r_epik_State_Penalty>
0.002342

> <r_epik_Charging_Adjusted_Penalty>
0.00565517

> <i_epik_Tot_Q>
0

> <i_epik_Tot_abs_Q>
0

> <r_epik_Metal_State_Penalty>
0.365595

> <b_epik_Metal_Only>
0

> <s_lp_Force_Field>
OPLS_2005

> <r_lp_Energy>
10.1003

> <b_lp_Chiralities_Consistent>
1

> <s_lp_Variant>
AV-unprocessed.smi:1679-4

> <Gold.Version>
5.8.1

> <Gold.Id.Protein>
6NUR|6NUR_protein|mol2

> <Gold.PLP.Fitness>
46.9068

> <Gold.PLP.PLP>
-43.2720

> <Gold.PLP.part.hbond>
-1.6131

> <Gold.PLP.part.metal>
0.0000

> <Gold.PLP.part.buried>
-8.1738

> <Gold.PLP.part.nonpolar>
-34.6012

> <Gold.PLP.part.repulsive>
1.1082

> <Gold.PLP.ligand.clash>
0.0000

> <Gold.PLP.ligand.torsion>
0.7641

> <Gold.PLP.Chemscore.Hbond>
1.7091

> <Gold.PLP.Chemscore.CHOScore>
0.0000

> <Gold.PLP.Chemscore.Metal>
0.0000

> <Gold.Chemscore.Hbonds>
donor molecule, donor type, donor heavy atom, donor atom, acceptor molecule, acceptor atom, score
      L1  H    20    23       P1  7957  0.81
      P1  H  7954  7966       L1    19  0.63
      P1  H  7989  7998       L1    22  0.75

> <Gold.PLP.Chemscore.Internal.Correction>
0.0358

> <Gold.Rescore>
     Score         DG    S(hbond)    S(metal)    S(lipo)     H(rot)  DE(clash)    DE(int)     intcor
     14.68     -16.53       1.58        0.00     104.47       2.52       0.33       1.52       ----

> <Gold.Chemscore.Fitness>
14.6781

> <Gold.Chemscore.DG>
-16.5317

> <Gold.Chemscore.ZeroCoef>
-5.4800

> <Gold.Chemscore.Hbond>
1.5797

> <Gold.Chemscore.Metal>
0.0000

> <Gold.Chemscore.Lipo>
104.4683

> <Gold.Chemscore.Internal_Hbond>
0.0000

> <Gold.Chemscore.DEClash>
0.3292

> <Gold.Chemscore.DEInternal>
1.5245

> <Gold.Chemscore.Rot>
2.5185

> <Gold.Chemscore.Internal.Correction>
   9.000000E+99

> <Gold.Chemscore.Hbonds>
donor molecule, donor type, donor heavy atom, donor atom, acceptor molecule, acceptor atom, score
      L1  H    20    23       P1  7957  0.80
      P1  H  7954  7966       L1    19  0.65
      P1  H  7989  7998       L1    22  0.71

> <Gold.Chemscore.Hbond.Weighted>
-5.2762

> <Gold.Chemscore.Metal.Weighted>
-0.0000

> <Gold.Chemscore.Lipo.Weighted>
-12.2228

> <Gold.Chemscore.Internal_Hbond.Weighted>
0.0000

> <Gold.Chemscore.DEClash.Weighted>
0.3292

> <Gold.Chemscore.DEInternal.Weighted>
1.5245

> <Gold.Chemscore.Rot.Weighted>
6.4472

> <Gold.Chemscore.Internal.Correction.Weighted>
   9.000000E+99

> <Gold.Protein.RotatedTorsions>
[ 6907 6896 6895 6894 ] final   98.87 input  -60.11 | X-H torsion
[ 7974 7965 7964 7962 ] final  -31.23 input  175.53 | X-H torsion
[ 8008 7997 7996 7995 ] final  107.09 input   59.86 | X-H torsion
[ 10167 10162 10161 10158 ] final   59.10 input  -65.29 | X-H torsion
[ 10718 10713 10712 10709 ] final  -12.45 input   66.30 | X-H torsion
[ 10763 10752 10751 10750 ] final  -75.49 input  -60.55 | X-H torsion
[ 11005 11000 10999 10996 ] final  153.90 input  -57.11 | X-H torsion

> <Gold.Protein.ActiveResidues>
 VAL166  LYS551  ARG553  GLY616  TRP617  ASP618  TYR619  PRO620  LYS621  CYS622 
 ASP623  PHE694  ASN695  SER759  ASP760  ASP761  ALA762  ILE779  LEU786  VAL792 
 PHE793  MET794  SER795  GLU796  ALA797  LYS798  CYS799  TRP800  GLU811  SER814 

> <Gold.Protein.RotatedAtoms>
  152.5402  134.0515  159.8111 H   0  0  0  0  0  0  0  0  0  0  0  0  # atno 6907 bound_to 6896
  151.0656  133.5501  159.2638 H   0  0  0  0  0  0  0  0  0  0  0  0  # atno 6908 bound_to 6896
  151.2383  135.0588  159.9069 H   0  0  0  0  0  0  0  0  0  0  0  0  # atno 6909 bound_to 6896
  146.1083  140.5641  142.8789 H   0  0  0  0  0  0  0  0  0  0  0  0  # atno 7974 bound_to 7965
  156.1796  140.3101  155.9123 H   0  0  0  0  0  0  0  0  0  0  0  0  # atno 8008 bound_to 7997
  155.3413  140.0466  157.3062 H   0  0  0  0  0  0  0  0  0  0  0  0  # atno 8009 bound_to 7997
  154.5328  140.2236  155.8785 H   0  0  0  0  0  0  0  0  0  0  0  0  # atno 8010 bound_to 7997
  140.1801  144.4190  150.6619 H   0  0  0  0  0  0  0  0  0  0  0  0  # atno 10167 bound_to 10162
  156.6445  130.4937  149.6083 H   0  0  0  0  0  0  0  0  0  0  0  0  # atno 10718 bound_to 10713
  154.4873  135.5829  153.6433 H   0  0  0  0  0  0  0  0  0  0  0  0  # atno 10763 bound_to 10752
  152.9856  135.6104  154.3170 H   0  0  0  0  0  0  0  0  0  0  0  0  # atno 10764 bound_to 10752
  154.3067  135.2846  155.2565 H   0  0  0  0  0  0  0  0  0  0  0  0  # atno 10765 bound_to 10752
  140.1440  134.8720  157.2368 H   0  0  0  0  0  0  0  0  0  0  0  0  # atno 11005 bound_to 11000
  144.7489  140.5141  143.6816 LP  0  0  0  0  0  0  0  0  0  0  0  0  # atno 17320 bound_to 7965
  145.5716  139.1484  143.3285 LP  0  0  0  0  0  0  0  0  0  0  0  0  # atno 17321 bound_to 7965
  140.6525  143.2229  151.6044 LP  0  0  0  0  0  0  0  0  0  0  0  0  # atno 17342 bound_to 10162
  139.5300  144.2945  152.1125 LP  0  0  0  0  0  0  0  0  0  0  0  0  # atno 17343 bound_to 10162
  156.2133  130.6692  151.1292 LP  0  0  0  0  0  0  0  0  0  0  0  0  # atno 17370 bound_to 10713
  157.7161  131.0709  150.6322 LP  0  0  0  0  0  0  0  0  0  0  0  0  # atno 17371 bound_to 10713
  140.2687  134.3485  155.7381 LP  0  0  0  0  0  0  0  0  0  0  0  0  # atno 17394 bound_to 11000
  141.2190  133.7411  156.9190 LP  0  0  0  0  0  0  0  0  0  0  0  0  # atno 17395 bound_to 11000

$$$$
