AV-unprocessed.smi:3042|AV-procd|sdf|11599|dock6
  -GOLD-   2272016573D 1   1.00000     0.00000
 Structure written by MMmdl.
 33 34  0  0  0  0  0  0  0  0  2 V2000
  148.3055  142.0906  155.7674 N   0  3  0  0  0  0  0  0  0  0  0  0
  149.5480  141.3688  155.4369 C   0  0  0  0  0  0  0  0  0  0  0  0
  150.1608  140.6635  156.6745 C   0  0  2  0  0  0  0  0  0  0  0  0
  150.9829  141.6824  157.4629 C   0  0  0  0  0  0  0  0  0  0  0  0
  151.7105  141.3079  158.6144 C   0  0  0  0  0  0  0  0  0  0  0  0
  152.4579  142.2871  159.2958 C   0  0  0  0  0  0  0  0  0  0  0  0
  152.4451  143.6058  158.8006 C   0  0  0  0  0  0  0  0  0  0  0  0
  151.7537  143.9773  157.7018 N   0  0  0  0  0  0  0  0  0  0  0  0
  151.0384  143.0331  157.0545 C   0  0  0  0  0  0  0  0  0  0  0  0
  150.9538  139.4567  156.3597 N   0  0  0  0  0  0  0  0  0  0  0  0
  150.1369  138.4131  155.7284 C   0  0  0  0  0  0  0  0  0  0  0  0
  150.9476  137.1492  155.3956 C   0  0  0  0  0  0  0  0  0  0  0  0
  152.0381  137.4939  154.5511 O   0  0  0  0  0  0  0  0  0  0  0  0
  152.8962  138.4594  155.1444 C   0  0  0  0  0  0  0  0  0  0  0  0
  152.0955  139.7296  155.4819 C   0  0  0  0  0  0  0  0  0  0  0  0
  147.5639  141.7857  155.1534 H   0  0  0  0  0  0  0  0  0  0  0  0
  148.4543  143.0828  155.6495 H   0  0  0  0  0  0  0  0  0  0  0  0
  149.2840  140.6547  154.6584 H   0  0  0  0  0  0  0  0  0  0  0  0
  150.2583  142.0718  155.0004 H   0  0  0  0  0  0  0  0  0  0  0  0
  149.3297  140.3583  157.3127 H   0  0  0  0  0  0  0  0  0  0  0  0
  151.6973  140.2878  158.9694 H   0  0  0  0  0  0  0  0  0  0  0  0
  153.0265  142.0344  160.1786 H   0  0  0  0  0  0  0  0  0  0  0  0
  153.0062  144.3821  159.2993 H   0  0  0  0  0  0  0  0  0  0  0  0
  150.4985  143.3658  156.1802 H   0  0  0  0  0  0  0  0  0  0  0  0
  149.3124  138.1221  156.3787 H   0  0  0  0  0  0  0  0  0  0  0  0
  149.6869  138.8007  154.8131 H   0  0  0  0  0  0  0  0  0  0  0  0
  151.3155  136.6733  156.3060 H   0  0  0  0  0  0  0  0  0  0  0  0
  150.3187  136.4205  154.8841 H   0  0  0  0  0  0  0  0  0  0  0  0
  153.3584  138.0442  156.0417 H   0  0  0  0  0  0  0  0  0  0  0  0
  153.7023  138.6936  154.4492 H   0  0  0  0  0  0  0  0  0  0  0  0
  151.7499  140.1963  154.5582 H   0  0  0  0  0  0  0  0  0  0  0  0
  152.7839  140.4286  155.9535 H   0  0  0  0  0  0  0  0  0  0  0  0
  148.0490  141.9010  156.7256 H   0  0  0  0  0  0  0  0  0  0  0  0
  1  2  1  0  0  0  0
  1 16  1  0  0  0  0
  1 17  1  0  0  0  0
  1 33  1  0  0  0  0
  2  3  1  0  0  0  0
  2 18  1  0  0  0  0
  2 19  1  0  0  0  0
  3  4  1  0  0  0  0
  3 10  1  0  0  0  0
  3 20  1  0  0  0  0
  4  9  1  0  0  0  0
  4  5  2  0  0  0  0
  5  6  1  0  0  0  0
  5 21  1  0  0  0  0
  6  7  2  0  0  0  0
  6 22  1  0  0  0  0
  7  8  1  0  0  0  0
  7 23  1  0  0  0  0
  8  9  2  0  0  0  0
  9 24  1  0  0  0  0
 10 15  1  0  0  0  0
 10 11  1  0  0  0  0
 11 12  1  0  0  0  0
 11 25  1  0  0  0  0
 11 26  1  0  0  0  0
 12 13  1  0  0  0  0
 12 27  1  0  0  0  0
 12 28  1  0  0  0  0
 13 14  1  0  0  0  0
 14 15  1  0  0  0  0
 14 29  1  0  0  0  0
 14 30  1  0  0  0  0
 15 31  1  0  0  0  0
 15 32  1  0  0  0  0
M  CHG  1   1   1
M  END
> <s_m_source_file>
AV-unprocessed.smi

> <i_m_source_file_index>
3042

> <i_lp_mmshare_version>
43012

> <i_f3d_flags>
0

> <s_epik_input>
W0NIMl0xW0NIMl1PW0NIMl1bQ0gyXU4xW0NASF0oW0NIMl1bTkgyXSljMltjSF1bY0hdW2NIXW5bY0hdMg==

> <s_epik_cmdline>
J2VwaWtfcHl0aG9uJywgJy1waCcsICc3LjAnLCAnLXRuJywgJzgnLCAnLW1hJywgJzIwMCcsICctbWV0YWxfYmluZGluZycsICctaW1hZScsICc8aW5maWxlLm1hZT4nLCAnLW9tYWUnLCAnPG91dGZpbGUubWFlPic=

> <r_epik_Ionization_Penalty>
0.0112597

> <r_epik_Ionization_Penalty_Charging>
0.00794922

> <r_epik_Ionization_Penalty_Neutral>
0.00331052

> <r_epik_State_Penalty>
0.00596555

> <r_epik_Charging_Adjusted_Penalty>
0.0139148

> <i_epik_Tot_Q>
1

> <i_epik_Tot_abs_Q>
1

> <r_epik_Metal_State_Penalty>
0.00603286

> <b_epik_Metal_Only>
0

> <s_lp_Force_Field>
OPLS_2005

> <r_lp_Energy>
28.2789

> <b_lp_Chiralities_Consistent>
1

> <s_lp_Variant>
AV-unprocessed.smi:3042-1

> <Gold.Version>
5.8.1

> <Gold.Id.Protein>
6NUR|6NUR_protein|mol2

> <Gold.PLP.Fitness>
39.7009

> <Gold.PLP.PLP>
-28.9782

> <Gold.PLP.part.hbond>
-2.0000

> <Gold.PLP.part.metal>
0.0000

> <Gold.PLP.part.buried>
-3.5394

> <Gold.PLP.part.nonpolar>
-24.5017

> <Gold.PLP.part.repulsive>
0.3013

> <Gold.PLP.ligand.clash>
0.0000

> <Gold.PLP.ligand.torsion>
0.3982

> <Gold.PLP.Chemscore.Hbond>
2.8160

> <Gold.PLP.Chemscore.CHOScore>
1.0000

> <Gold.PLP.Chemscore.Metal>
0.0000

> <Gold.Chemscore.Hbonds>
donor molecule, donor type, donor heavy atom, donor atom, acceptor molecule, acceptor atom, score
      L1  H     1    17       P1  8028  2.00
      P1  H 10752 10765       L1    13  0.74
      L1  C     9    24       P1  8028  1.00

> <Gold.PLP.Chemscore.Internal.Correction>
0.0712

> <Gold.Rescore>
     Score         DG    S(hbond)    S(metal)    S(lipo)     H(rot)  DE(clash)    DE(int)     intcor
     16.56     -17.09       1.71        0.00      82.90       1.48       0.03       0.50       ----

> <Gold.Chemscore.Fitness>
16.5647

> <Gold.Chemscore.DG>
-17.0911

> <Gold.Chemscore.ZeroCoef>
-5.4800

> <Gold.Chemscore.Hbond>
1.7103

> <Gold.Chemscore.Metal>
0.0000

> <Gold.Chemscore.Lipo>
82.9005

> <Gold.Chemscore.Internal_Hbond>
0.0000

> <Gold.Chemscore.DEClash>
0.0276

> <Gold.Chemscore.DEInternal>
0.4988

> <Gold.Chemscore.Rot>
1.4846

> <Gold.Chemscore.Internal.Correction>
   9.000000E+99

> <Gold.Chemscore.Hbonds>
donor molecule, donor type, donor heavy atom, donor atom, acceptor molecule, acceptor atom, score
      L1  H     1    17       P1  8028  0.99
      P1  H 10752 10765       L1    13  0.13

> <Gold.Chemscore.Hbond.Weighted>
-5.7122

> <Gold.Chemscore.Metal.Weighted>
-0.0000

> <Gold.Chemscore.Lipo.Weighted>
-9.6994

> <Gold.Chemscore.Internal_Hbond.Weighted>
0.0000

> <Gold.Chemscore.DEClash.Weighted>
0.0276

> <Gold.Chemscore.DEInternal.Weighted>
0.4988

> <Gold.Chemscore.Rot.Weighted>
3.8005

> <Gold.Chemscore.Internal.Correction.Weighted>
   9.000000E+99

> <Gold.Protein.RotatedTorsions>
[ 6907 6896 6895 6894 ] final   83.92 input  -60.11 | X-H torsion
[ 7974 7965 7964 7962 ] final    3.40 input  175.53 | X-H torsion
[ 8008 7997 7996 7995 ] final   50.19 input   59.86 | X-H torsion
[ 10167 10162 10161 10158 ] final   94.62 input  -65.29 | X-H torsion
[ 10718 10713 10712 10709 ] final  157.31 input   66.30 | X-H torsion
[ 10763 10752 10751 10750 ] final  170.42 input  -60.55 | X-H torsion
[ 11005 11000 10999 10996 ] final   19.98 input  -57.11 | X-H torsion

> <Gold.Protein.ActiveResidues>
 VAL166  LYS551  ARG553  GLY616  TRP617  ASP618  TYR619  PRO620  LYS621  CYS622 
 ASP623  PHE694  ASN695  SER759  ASP760  ASP761  ALA762  ILE779  LEU786  VAL792 
 PHE793  MET794  SER795  GLU796  ALA797  LYS798  CYS799  TRP800  GLU811  SER814 

> <Gold.Protein.RotatedAtoms>
  152.5339  134.2821  159.9010 H   0  0  0  0  0  0  0  0  0  0  0  0  # atno 6907 bound_to 6896
  151.2775  133.4219  159.2632 H   0  0  0  0  0  0  0  0  0  0  0  0  # atno 6908 bound_to 6896
  151.0313  134.9556  159.8169 H   0  0  0  0  0  0  0  0  0  0  0  0  # atno 6909 bound_to 6896
  146.2445  140.0691  142.8363 H   0  0  0  0  0  0  0  0  0  0  0  0  # atno 7974 bound_to 7965
  155.4147  140.3444  155.4266 H   0  0  0  0  0  0  0  0  0  0  0  0  # atno 8008 bound_to 7997
  156.1428  140.1547  156.8925 H   0  0  0  0  0  0  0  0  0  0  0  0  # atno 8009 bound_to 7997
  154.4985  140.0821  156.7729 H   0  0  0  0  0  0  0  0  0  0  0  0  # atno 8010 bound_to 7997
  139.8066  144.6791  150.9695 H   0  0  0  0  0  0  0  0  0  0  0  0  # atno 10167 bound_to 10162
  157.1933  131.0659  151.2067 H   0  0  0  0  0  0  0  0  0  0  0  0  # atno 10718 bound_to 10713
  154.3973  135.2754  155.2118 H   0  0  0  0  0  0  0  0  0  0  0  0  # atno 10763 bound_to 10752
  154.4158  135.6011  153.5984 H   0  0  0  0  0  0  0  0  0  0  0  0  # atno 10764 bound_to 10752
  152.9831  135.5960  154.4236 H   0  0  0  0  0  0  0  0  0  0  0  0  # atno 10765 bound_to 10752
  140.4076  134.1652  155.7666 H   0  0  0  0  0  0  0  0  0  0  0  0  # atno 11005 bound_to 11000
  145.0832  140.9235  143.4813 LP  0  0  0  0  0  0  0  0  0  0  0  0  # atno 17320 bound_to 7965
  145.0848  139.2933  143.5765 LP  0  0  0  0  0  0  0  0  0  0  0  0  # atno 17321 bound_to 7965
  140.7819  143.4227  151.0816 LP  0  0  0  0  0  0  0  0  0  0  0  0  # atno 17342 bound_to 10162
  139.7896  143.8237  152.3150 LP  0  0  0  0  0  0  0  0  0  0  0  0  # atno 17343 bound_to 10162
  157.3839  130.7246  149.6650 LP  0  0  0  0  0  0  0  0  0  0  0  0  # atno 17370 bound_to 10713
  155.9709  130.4165  150.4232 LP  0  0  0  0  0  0  0  0  0  0  0  0  # atno 17371 bound_to 10713
  141.1833  133.8367  157.1179 LP  0  0  0  0  0  0  0  0  0  0  0  0  # atno 17394 bound_to 11000
  140.0290  134.9910  157.0744 LP  0  0  0  0  0  0  0  0  0  0  0  0  # atno 17395 bound_to 11000

$$$$
