AV-unprocessed.smi:129|AV-procd|sdf|1157|dock1
  -GOLD-   2262018293D 1   1.00000     0.00000
 Structure written by MMmdl.
 58 61  0  0  0  0  0  0  0  0  1 V2000
  153.2584  143.5090  163.3649 C   0  0  0  0  0  0  0  0  0  0  0  0
  153.2308  142.6386  162.2431 O   0  0  0  0  0  0  0  0  0  0  0  0
  152.7588  143.1309  161.0422 C   0  0  0  0  0  0  0  0  0  0  0  0
  152.3239  144.4694  160.8636 C   0  0  0  0  0  0  0  0  0  0  0  0
  151.8581  144.9107  159.6115 C   0  0  0  0  0  0  0  0  0  0  0  0
  151.8274  144.0260  158.5205 C   0  0  0  0  0  0  0  0  0  0  0  0
  152.2555  142.6964  158.6828 C   0  0  0  0  0  0  0  0  0  0  0  0
  152.7075  142.2381  159.9443 C   0  0  0  0  0  0  0  0  0  0  0  0
  153.1668  140.9080  160.1561 N   0  0  0  0  0  0  0  0  0  0  0  0
  153.2761  139.9037  159.2653 C   0  0  0  0  0  0  0  0  0  0  0  0
  153.0390  140.0019  158.0612 O   0  0  0  0  0  0  0  0  0  0  0  0
  153.7745  138.6041  159.8321 C   0  0  0  0  0  0  0  0  0  0  0  0
  154.0972  137.5369  158.9658 C   0  0  0  0  0  0  0  0  0  0  0  0
  154.5354  136.3033  159.4835 C   0  0  0  0  0  0  0  0  0  0  0  0
  154.6600  136.1127  160.8743 C   0  0  0  0  0  0  0  0  0  0  0  0
  155.0811  134.8293  161.3170 N   0  0  0  0  0  0  0  0  0  0  0  0
  154.9208  133.6335  160.7216 C   0  0  0  0  0  0  0  0  0  0  0  0
  154.3140  133.4548  159.6647 O   0  0  0  0  0  0  0  0  0  0  0  0
  155.5377  132.4466  161.4794 C   0  0  0  0  0  0  0  0  0  0  0  0
  154.5456  131.6242  162.2060 N   0  0  0  0  0  0  0  0  0  0  0  0
  153.5011  131.0108  161.4705 C   0  0  0  0  0  0  0  0  0  0  0  0
  153.4076  131.1567  160.2509 O   0  0  0  0  0  0  0  0  0  0  0  0
  152.5687  130.2070  162.2523 C   0  0  0  0  0  0  0  0  0  0  0  0
  151.5368  129.6020  161.6399 F   0  0  0  0  0  0  0  0  0  0  0  0
  152.7232  130.0611  163.5843 C   0  0  0  0  0  0  0  0  0  0  0  0
  153.7599  130.6493  164.2870 N   0  0  0  0  0  0  0  0  0  0  0  0
  153.9251  130.4687  165.7816 C   0  0  2  0  0  0  0  0  0  0  0  0
  155.3569  130.0088  166.1176 C   0  0  0  0  0  0  0  0  0  0  0  0
  155.1234  128.7813  166.9761 C   0  0  0  0  0  0  0  0  0  0  0  0
  153.7933  128.2710  166.4432 C   0  0  0  0  0  0  0  0  0  0  0  0
  153.0579  129.4703  166.2394 O   0  0  0  0  0  0  0  0  0  0  0  0
  154.6957  131.4554  163.6031 C   0  0  0  0  0  0  0  0  0  0  0  0
  155.6246  131.9918  164.2114 O   0  0  0  0  0  0  0  0  0  0  0  0
  154.3165  137.1728  161.7472 C   0  0  0  0  0  0  0  0  0  0  0  0
  153.8789  138.4071  161.2285 C   0  0  0  0  0  0  0  0  0  0  0  0
  153.6565  142.9722  164.2258 H   0  0  0  0  0  0  0  0  0  0  0  0
  152.2575  143.8546  163.6263 H   0  0  0  0  0  0  0  0  0  0  0  0
  153.9043  144.3698  163.1868 H   0  0  0  0  0  0  0  0  0  0  0  0
  152.3387  145.1823  161.6738 H   0  0  0  0  0  0  0  0  0  0  0  0
  151.5308  145.9324  159.4866 H   0  0  0  0  0  0  0  0  0  0  0  0
  151.4810  144.3679  157.5563 H   0  0  0  0  0  0  0  0  0  0  0  0
  152.2420  142.0483  157.8202 H   0  0  0  0  0  0  0  0  0  0  0  0
  153.3384  140.6604  161.1199 H   0  0  0  0  0  0  0  0  0  0  0  0
  154.0106  137.6561  157.8953 H   0  0  0  0  0  0  0  0  0  0  0  0
  154.7763  135.4999  158.8025 H   0  0  0  0  0  0  0  0  0  0  0  0
  155.5161  134.8102  162.2279 H   0  0  0  0  0  0  0  0  0  0  0  0
  156.0991  131.8375  160.7691 H   0  0  0  0  0  0  0  0  0  0  0  0
  156.3015  132.8294  162.1580 H   0  0  0  0  0  0  0  0  0  0  0  0
  151.9956  129.4559  164.1028 H   0  0  0  0  0  0  0  0  0  0  0  0
  153.6460  131.4251  166.2271 H   0  0  0  0  0  0  0  0  0  0  0  0
  155.8924  129.7397  165.2055 H   0  0  0  0  0  0  0  0  0  0  0  0
  155.9087  130.7948  166.6338 H   0  0  0  0  0  0  0  0  0  0  0  0
  155.9250  128.0466  166.8981 H   0  0  0  0  0  0  0  0  0  0  0  0
  155.0204  129.0684  168.0232 H   0  0  0  0  0  0  0  0  0  0  0  0
  153.9300  127.7454  165.4972 H   0  0  0  0  0  0  0  0  0  0  0  0
  153.2870  127.6021  167.1393 H   0  0  0  0  0  0  0  0  0  0  0  0
  154.3602  137.0580  162.8191 H   0  0  0  0  0  0  0  0  0  0  0  0
  153.6116  139.1947  161.9183 H   0  0  0  0  0  0  0  0  0  0  0  0
  1  2  1  0  0  0  0
  1 36  1  0  0  0  0
  1 37  1  0  0  0  0
  1 38  1  0  0  0  0
  2  3  1  0  0  0  0
  3  8  1  0  0  0  0
  3  4  2  0  0  0  0
  4  5  1  0  0  0  0
  4 39  1  0  0  0  0
  5  6  2  0  0  0  0
  5 40  1  0  0  0  0
  6  7  1  0  0  0  0
  6 41  1  0  0  0  0
  7  8  2  0  0  0  0
  7 42  1  0  0  0  0
  8  9  1  0  0  0  0
  9 10  1  0  0  0  0
  9 43  1  0  0  0  0
 10 11  2  0  0  0  0
 10 12  1  0  0  0  0
 12 35  1  0  0  0  0
 12 13  2  0  0  0  0
 13 14  1  0  0  0  0
 13 44  1  0  0  0  0
 14 15  2  0  0  0  0
 14 45  1  0  0  0  0
 15 16  1  0  0  0  0
 15 34  1  0  0  0  0
 16 17  1  0  0  0  0
 16 46  1  0  0  0  0
 17 18  2  0  0  0  0
 17 19  1  0  0  0  0
 19 20  1  0  0  0  0
 19 47  1  0  0  0  0
 19 48  1  0  0  0  0
 20 32  1  0  0  0  0
 20 21  1  0  0  0  0
 21 22  2  0  0  0  0
 21 23  1  0  0  0  0
 23 24  1  0  0  0  0
 23 25  2  0  0  0  0
 25 26  1  0  0  0  0
 25 49  1  0  0  0  0
 26 27  1  0  0  0  0
 26 32  1  0  0  0  0
 27 31  1  0  0  0  0
 27 28  1  0  0  0  0
 27 50  1  0  0  0  0
 28 29  1  0  0  0  0
 28 51  1  0  0  0  0
 28 52  1  0  0  0  0
 29 30  1  0  0  0  0
 29 53  1  0  0  0  0
 29 54  1  0  0  0  0
 30 31  1  0  0  0  0
 30 55  1  0  0  0  0
 30 56  1  0  0  0  0
 32 33  2  0  0  0  0
 34 35  2  0  0  0  0
 34 57  1  0  0  0  0
 35 58  1  0  0  0  0
M  END
> <s_m_source_file>
AV-unprocessed.smi

> <i_m_source_file_index>
129

> <i_lp_mmshare_version>
43012

> <i_f3d_flags>
0

> <s_epik_input>
W0NIM11PYzFbY0hdW2NIXVtjSF1bY0hdYzFbTkhdQyg9TyljMltjSF1bY0hdYyhbY0hdW2NIXTIpW05IXUMoPU8pW0NIMl1uM2MoPU8pYyhGKVtjSF1uKGMzPU8pW0NAQEhdNFtDSDJdW0NIMl1bQ0gyXU80

> <s_epik_cmdline>
J2VwaWtfcHl0aG9uJywgJy1waCcsICc3LjAnLCAnLXRuJywgJzgnLCAnLW1hJywgJzIwMCcsICctbWV0YWxfYmluZGluZycsICctaW1hZScsICc8aW5maWxlLm1hZT4nLCAnLW9tYWUnLCAnPG91dGZpbGUubWFlPic=

> <r_lp_tautomer_probability>
1

> <r_epik_Ionization_Penalty>
2.57954e-06

> <r_epik_Ionization_Penalty_Charging>
3.88729e-08

> <r_epik_Ionization_Penalty_Neutral>
2.54066e-06

> <r_epik_State_Penalty>
-0

> <r_epik_Charging_Adjusted_Penalty>
3.88729e-08

> <i_epik_Tot_Q>
0

> <i_epik_Tot_abs_Q>
0

> <r_epik_Metal_State_Penalty>
-0

> <b_epik_Metal_Only>
0

> <s_epik_Chemistry_Notes>
This compound contains an acetal/aminal-like group ( X-CH(R)-Y where X, Y are N, S, or O) that may be acid/base labile, releasing an aldehyde.

> <s_lp_Force_Field>
OPLS_2005

> <r_lp_Energy>
50.6218

> <b_lp_Chiralities_Consistent>
1

> <s_lp_Variant>
AV-unprocessed.smi:129-1

> <Gold.Version>
5.8.1

> <Gold.Id.Protein>
6NUR|6NUR_protein|mol2

> <Gold.PLP.Fitness>
58.4980

> <Gold.PLP.PLP>
-53.5232

> <Gold.PLP.part.hbond>
-2.0000

> <Gold.PLP.part.metal>
0.0000

> <Gold.PLP.part.buried>
-6.0870

> <Gold.PLP.part.nonpolar>
-45.7512

> <Gold.PLP.part.repulsive>
0.2929

> <Gold.PLP.ligand.clash>
0.0000

> <Gold.PLP.ligand.torsion>
0.5904

> <Gold.PLP.Chemscore.Hbond>
2.0000

> <Gold.PLP.Chemscore.CHOScore>
0.0000

> <Gold.PLP.Chemscore.Metal>
0.0000

> <Gold.Chemscore.Hbonds>
donor molecule, donor type, donor heavy atom, donor atom, acceptor molecule, acceptor atom, score
      P1  H  6896  6908       L1    18  1.00
      P1  H  7997  8009       L1    11  1.00

> <Gold.PLP.Chemscore.Internal.Correction>
0.1555

> <Gold.Rescore>
     Score         DG    S(hbond)    S(metal)    S(lipo)     H(rot)  DE(clash)    DE(int)     intcor
     16.69     -23.09       1.81        0.00     141.35       1.94       0.31       6.09       ----

> <Gold.Chemscore.Fitness>
16.6897

> <Gold.Chemscore.DG>
-23.0861

> <Gold.Chemscore.ZeroCoef>
-5.4800

> <Gold.Chemscore.Hbond>
1.8092

> <Gold.Chemscore.Metal>
0.0000

> <Gold.Chemscore.Lipo>
141.3465

> <Gold.Chemscore.Internal_Hbond>
0.0000

> <Gold.Chemscore.DEClash>
0.3096

> <Gold.Chemscore.DEInternal>
6.0868

> <Gold.Chemscore.Rot>
1.9430

> <Gold.Chemscore.Internal.Correction>
   9.000000E+99

> <Gold.Chemscore.Hbonds>
donor molecule, donor type, donor heavy atom, donor atom, acceptor molecule, acceptor atom, score
      P1  H  6896  6908       L1    18  0.57
      P1  H  7997  8009       L1    11  0.89

> <Gold.Chemscore.Hbond.Weighted>
-6.0427

> <Gold.Chemscore.Metal.Weighted>
-0.0000

> <Gold.Chemscore.Lipo.Weighted>
-16.5375

> <Gold.Chemscore.Internal_Hbond.Weighted>
0.0000

> <Gold.Chemscore.DEClash.Weighted>
0.3096

> <Gold.Chemscore.DEInternal.Weighted>
6.0868

> <Gold.Chemscore.Rot.Weighted>
4.9741

> <Gold.Chemscore.Internal.Correction.Weighted>
   9.000000E+99

> <Gold.Protein.RotatedTorsions>
[ 6907 6896 6895 6894 ] final  -31.95 input  -60.11 | X-H torsion
[ 7974 7965 7964 7962 ] final -138.06 input  175.53 | X-H torsion
[ 8008 7997 7996 7995 ] final  159.46 input   59.86 | X-H torsion
[ 10167 10162 10161 10158 ] final  -18.50 input  -65.29 | X-H torsion
[ 10718 10713 10712 10709 ] final -143.63 input   66.30 | X-H torsion
[ 10763 10752 10751 10750 ] final  167.26 input  -60.55 | X-H torsion
[ 11005 11000 10999 10996 ] final  -44.79 input  -57.11 | X-H torsion

> <Gold.Protein.ActiveResidues>
 VAL166  LYS551  ARG553  GLY616  TRP617  ASP618  TYR619  PRO620  LYS621  CYS622 
 ASP623  PHE694  ASN695  SER759  ASP760  ASP761  ALA762  ILE779  LEU786  VAL792 
 PHE793  MET794  SER795  GLU796  ALA797  LYS798  CYS799  TRP800  GLU811  SER814 

> <Gold.Protein.RotatedAtoms>
  151.0853  134.9883  159.8375 H   0  0  0  0  0  0  0  0  0  0  0  0  # atno 6907 bound_to 6896
  152.5424  134.2132  159.8768 H   0  0  0  0  0  0  0  0  0  0  0  0  # atno 6908 bound_to 6896
  151.2164  133.4483  159.2633 H   0  0  0  0  0  0  0  0  0  0  0  0  # atno 6909 bound_to 6896
  144.8790  140.6480  143.5218 H   0  0  0  0  0  0  0  0  0  0  0  0  # atno 7974 bound_to 7965
  156.2237  140.1830  156.7415 H   0  0  0  0  0  0  0  0  0  0  0  0  # atno 8008 bound_to 7997
  154.5906  140.0651  156.9262 H   0  0  0  0  0  0  0  0  0  0  0  0  # atno 8009 bound_to 7997
  155.2343  140.3317  155.4302 H   0  0  0  0  0  0  0  0  0  0  0  0  # atno 8010 bound_to 7997
  140.7259  143.4910  150.9992 H   0  0  0  0  0  0  0  0  0  0  0  0  # atno 10167 bound_to 10162
  156.3603  130.7734  151.1901 H   0  0  0  0  0  0  0  0  0  0  0  0  # atno 10718 bound_to 10713
  154.3513  135.2753  155.2370 H   0  0  0  0  0  0  0  0  0  0  0  0  # atno 10763 bound_to 10752
  154.4599  135.5910  153.6252 H   0  0  0  0  0  0  0  0  0  0  0  0  # atno 10764 bound_to 10752
  152.9850  135.6062  154.3723 H   0  0  0  0  0  0  0  0  0  0  0  0  # atno 10765 bound_to 10752
  141.0473  133.6756  156.2921 H   0  0  0  0  0  0  0  0  0  0  0  0  # atno 11005 bound_to 11000
  145.3989  139.1601  143.4188 LP  0  0  0  0  0  0  0  0  0  0  0  0  # atno 17320 bound_to 7965
  146.2982  140.4084  142.8714 LP  0  0  0  0  0  0  0  0  0  0  0  0  # atno 17321 bound_to 7965
  139.8614  143.7309  152.3173 LP  0  0  0  0  0  0  0  0  0  0  0  0  # atno 17342 bound_to 10162
  139.7526  144.7530  151.0483 LP  0  0  0  0  0  0  0  0  0  0  0  0  # atno 17343 bound_to 10162
  157.7472  131.0402  150.4586 LP  0  0  0  0  0  0  0  0  0  0  0  0  # atno 17370 bound_to 10713
  156.4796  130.4071  149.6469 LP  0  0  0  0  0  0  0  0  0  0  0  0  # atno 17371 bound_to 10713
  140.6122  134.5447  157.5535 LP  0  0  0  0  0  0  0  0  0  0  0  0  # atno 17394 bound_to 11000
  139.9322  134.7942  156.0900 LP  0  0  0  0  0  0  0  0  0  0  0  0  # atno 17395 bound_to 11000

$$$$
