AV-unprocessed.smi:1487|AV-procd|sdf|6009|dock1
  -GOLD-   22720 6103D 1   1.00000     0.00000
 Structure written by MMmdl.
 48 50  0  0  0  0  0  0  0  0  2 V2000
  152.7066  143.1679  160.6435 C   0  0  0  0  0  0  0  0  0  0  0  0
  152.1060  142.5425  159.3969 C   0  0  0  0  0  0  0  0  0  0  0  0
  152.6214  141.3128  158.9290 C   0  0  0  0  0  0  0  0  0  0  0  0
  152.0905  140.6975  157.7745 C   0  0  0  0  0  0  0  0  0  0  0  0
  152.4367  139.5128  157.1481 N   0  0  0  0  0  0  0  0  0  0  0  0
  151.5818  139.4872  156.1303 C   0  0  0  0  0  0  0  0  0  0  0  0
  150.7307  140.5250  156.0136 N   0  0  0  0  0  0  0  0  0  0  0  0
  149.7235  140.7183  154.9854 C   0  0  0  0  0  0  0  0  0  0  0  0
  149.1196  139.3908  154.4841 C   0  0  2  0  0  0  0  0  0  0  0  0
  150.0706  138.7873  153.6299 O   0  0  0  0  0  0  0  0  0  0  0  0
  147.7894  139.5674  153.7168 C   0  0  0  0  0  0  0  0  0  0  0  0
  147.2124  138.2723  153.2753 N   0  3  2  0  0  0  0  0  0  0  0  0
  146.2767  138.4283  152.1326 C   0  0  0  0  0  0  0  0  0  0  0  0
  145.8430  137.0590  151.5868 C   0  0  0  0  0  0  0  0  0  0  0  0
  145.2071  136.2019  152.6901 C   0  0  0  0  0  0  0  0  0  0  0  0
  146.1301  136.1032  153.9164 C   0  0  1  0  0  0  0  0  0  0  0  0
  147.2519  135.2914  153.6282 O   0  0  0  0  0  0  0  0  0  0  0  0
  146.6003  137.4933  154.3874 C   0  0  0  0  0  0  0  0  0  0  0  0
  151.0221  141.3517  157.0940 C   0  0  0  0  0  0  0  0  0  0  0  0
  150.4984  142.5736  157.5522 C   0  0  0  0  0  0  0  0  0  0  0  0
  151.0419  143.1760  158.7062 C   0  0  0  0  0  0  0  0  0  0  0  0
  150.4710  144.4970  159.1909 C   0  0  0  0  0  0  0  0  0  0  0  0
  153.4621  142.5202  161.0895 H   0  0  0  0  0  0  0  0  0  0  0  0
  151.9357  143.3454  161.3937 H   0  0  0  0  0  0  0  0  0  0  0  0
  153.1809  144.1190  160.4009 H   0  0  0  0  0  0  0  0  0  0  0  0
  153.4311  140.8292  159.4560 H   0  0  0  0  0  0  0  0  0  0  0  0
  151.5807  138.6705  155.4230 H   0  0  0  0  0  0  0  0  0  0  0  0
  148.9389  141.3623  155.3866 H   0  0  0  0  0  0  0  0  0  0  0  0
  150.1825  141.2626  154.1591 H   0  0  0  0  0  0  0  0  0  0  0  0
  148.9815  138.7322  155.3401 H   0  0  0  0  0  0  0  0  0  0  0  0
  149.9189  139.0782  152.7438 H   0  0  0  0  0  0  0  0  0  0  0  0
  147.0443  140.0827  154.3241 H   0  0  0  0  0  0  0  0  0  0  0  0
  147.9718  140.2140  152.8569 H   0  0  0  0  0  0  0  0  0  0  0  0
  145.4062  139.0073  152.4462 H   0  0  0  0  0  0  0  0  0  0  0  0
  146.7609  138.9898  151.3326 H   0  0  0  0  0  0  0  0  0  0  0  0
  145.1365  137.1914  150.7666 H   0  0  0  0  0  0  0  0  0  0  0  0
  146.7068  136.5408  151.1678 H   0  0  0  0  0  0  0  0  0  0  0  0
  144.2612  136.6544  152.9908 H   0  0  0  0  0  0  0  0  0  0  0  0
  144.9648  135.2086  152.3097 H   0  0  0  0  0  0  0  0  0  0  0  0
  145.5882  135.6147  154.7270 H   0  0  0  0  0  0  0  0  0  0  0  0
  147.9029  135.8183  153.1896 H   0  0  0  0  0  0  0  0  0  0  0  0
  147.3007  137.3788  155.2145 H   0  0  0  0  0  0  0  0  0  0  0  0
  145.7486  138.0501  154.7821 H   0  0  0  0  0  0  0  0  0  0  0  0
  149.6833  143.0437  157.0227 H   0  0  0  0  0  0  0  0  0  0  0  0
  149.7142  144.8792  158.5052 H   0  0  0  0  0  0  0  0  0  0  0  0
  151.2564  145.2485  159.2727 H   0  0  0  0  0  0  0  0  0  0  0  0
  150.0058  144.3735  160.1692 H   0  0  0  0  0  0  0  0  0  0  0  0
  147.9836  137.7226  152.9244 H   0  0  0  0  0  0  0  0  0  0  0  0
  1  2  1  0  0  0  0
  1 23  1  0  0  0  0
  1 24  1  0  0  0  0
  1 25  1  0  0  0  0
  2 21  1  0  0  0  0
  2  3  2  0  0  0  0
  3  4  1  0  0  0  0
  3 26  1  0  0  0  0
  4 19  2  0  0  0  0
  4  5  1  0  0  0  0
  5  6  2  0  0  0  0
  6  7  1  0  0  0  0
  6 27  1  0  0  0  0
  7  8  1  0  0  0  0
  7 19  1  0  0  0  0
  8  9  1  0  0  0  0
  8 28  1  0  0  0  0
  8 29  1  0  0  0  0
  9 10  1  0  0  0  0
  9 11  1  0  0  0  0
  9 30  1  0  0  0  0
 10 31  1  0  0  0  0
 11 12  1  0  0  0  0
 11 32  1  0  0  0  0
 11 33  1  0  0  0  0
 12 18  1  0  0  0  0
 12 13  1  0  0  0  0
 12 48  1  0  0  0  0
 13 14  1  0  0  0  0
 13 34  1  0  0  0  0
 13 35  1  0  0  0  0
 14 15  1  0  0  0  0
 14 36  1  0  0  0  0
 14 37  1  0  0  0  0
 15 16  1  0  0  0  0
 15 38  1  0  0  0  0
 15 39  1  0  0  0  0
 16 17  1  0  0  0  0
 16 18  1  0  0  0  0
 16 40  1  0  0  0  0
 17 41  1  0  0  0  0
 18 42  1  0  0  0  0
 18 43  1  0  0  0  0
 19 20  1  0  0  0  0
 20 21  2  0  0  0  0
 20 44  1  0  0  0  0
 21 22  1  0  0  0  0
 22 45  1  0  0  0  0
 22 46  1  0  0  0  0
 22 47  1  0  0  0  0
M  CHG  1  12   1
M  END
> <s_m_source_file>
AV-unprocessed.smi

> <i_m_source_file_index>
1487

> <i_lp_mmshare_version>
43012

> <i_f3d_flags>
0

> <s_epik_input>
W0NIM11jKFtjSF0xKWMoW0NIM10pW2NIXWMoYzEyKW4oW2NIXW4yKVtDSDJdW0NASF0oW09IXSlbQ0gyXU4zW0NIMl1bQ0gyXVtDSDJdW0NAQEhdKFtPSF0pW0NIMl0z

> <s_epik_cmdline>
J2VwaWtfcHl0aG9uJywgJy1waCcsICc3LjAnLCAnLXRuJywgJzgnLCAnLW1hJywgJzIwMCcsICctbWV0YWxfYmluZGluZycsICctaW1hZScsICc8aW5maWxlLm1hZT4nLCAnLW9tYWUnLCAnPG91dGZpbGUubWFlPic=

> <r_epik_Ionization_Penalty>
0.0940186

> <r_epik_Ionization_Penalty_Charging>
0.00679686

> <r_epik_Ionization_Penalty_Neutral>
0.0872218

> <r_epik_State_Penalty>
0.0799311

> <r_epik_Charging_Adjusted_Penalty>
0.086728

> <i_epik_Tot_Q>
1

> <i_epik_Tot_abs_Q>
1

> <r_epik_Metal_State_Penalty>
7.95545e-05

> <b_epik_Metal_Only>
0

> <s_lp_Force_Field>
OPLS_2005

> <r_lp_Energy>
25.8202

> <b_lp_Chiralities_Consistent>
1

> <s_lp_Variant>
AV-unprocessed.smi:1487-3

> <Gold.Version>
5.8.1

> <Gold.Id.Protein>
6NUR|6NUR_protein|mol2

> <Gold.PLP.Fitness>
54.6928

> <Gold.PLP.PLP>
-40.8674

> <Gold.PLP.part.hbond>
-3.7397

> <Gold.PLP.part.metal>
0.0000

> <Gold.PLP.part.buried>
0.2064

> <Gold.PLP.part.nonpolar>
-36.9653

> <Gold.PLP.part.repulsive>
0.0306

> <Gold.PLP.ligand.clash>
0.0000

> <Gold.PLP.ligand.torsion>
0.6614

> <Gold.PLP.Chemscore.Hbond>
5.0000

> <Gold.PLP.Chemscore.CHOScore>
0.0000

> <Gold.PLP.Chemscore.Metal>
0.0000

> <Gold.Chemscore.Hbonds>
donor molecule, donor type, donor heavy atom, donor atom, acceptor molecule, acceptor atom, score
      L1  H    10    31       P1  7957  1.00
      L1  H    12    48       P1  7948  1.85
      L1  H    17    41       P1  7948  1.00
      P1  H  7997  8008       L1     5  0.64

> <Gold.PLP.Chemscore.Internal.Correction>
0.1482

> <Gold.Rescore>
     Score         DG    S(hbond)    S(metal)    S(lipo)     H(rot)  DE(clash)    DE(int)     intcor
     20.95     -22.83       3.58        0.00     104.48       2.67       0.31       1.57       ----

> <Gold.Chemscore.Fitness>
20.9450

> <Gold.Chemscore.DG>
-22.8259

> <Gold.Chemscore.ZeroCoef>
-5.4800

> <Gold.Chemscore.Hbond>
3.5808

> <Gold.Chemscore.Metal>
0.0000

> <Gold.Chemscore.Lipo>
104.4812

> <Gold.Chemscore.Internal_Hbond>
0.0000

> <Gold.Chemscore.DEClash>
0.3149

> <Gold.Chemscore.DEInternal>
1.5660

> <Gold.Chemscore.Rot>
2.6712

> <Gold.Chemscore.Internal.Correction>
   9.000000E+99

> <Gold.Chemscore.Hbonds>
donor molecule, donor type, donor heavy atom, donor atom, acceptor molecule, acceptor atom, score
      L1  H    10    31       P1  7957  0.85
      L1  H    12    48       P1  7948  0.88
      L1  H    17    41       P1  7948  0.97
      P1  H  7997  8008       L1     5  0.07

> <Gold.Chemscore.Hbond.Weighted>
-11.9600

> <Gold.Chemscore.Metal.Weighted>
-0.0000

> <Gold.Chemscore.Lipo.Weighted>
-12.2243

> <Gold.Chemscore.Internal_Hbond.Weighted>
0.0000

> <Gold.Chemscore.DEClash.Weighted>
0.3149

> <Gold.Chemscore.DEInternal.Weighted>
1.5660

> <Gold.Chemscore.Rot.Weighted>
6.8383

> <Gold.Chemscore.Internal.Correction.Weighted>
   9.000000E+99

> <Gold.Protein.RotatedTorsions>
[ 6907 6896 6895 6894 ] final  -53.85 input  -60.11 | X-H torsion
[ 7974 7965 7964 7962 ] final -138.73 input  175.53 | X-H torsion
[ 8008 7997 7996 7995 ] final  -42.64 input   59.86 | X-H torsion
[ 10167 10162 10161 10158 ] final  103.54 input  -65.29 | X-H torsion
[ 10718 10713 10712 10709 ] final  -88.81 input   66.30 | X-H torsion
[ 10763 10752 10751 10750 ] final -134.99 input  -60.55 | X-H torsion
[ 11005 11000 10999 10996 ] final  -33.71 input  -57.11 | X-H torsion

> <Gold.Protein.ActiveResidues>
 VAL166  LYS551  ARG553  GLY616  TRP617  ASP618  TYR619  PRO620  LYS621  CYS622 
 ASP623  PHE694  ASN695  SER759  ASP760  ASP761  ALA762  ILE779  LEU786  VAL792 
 PHE793  MET794  SER795  GLU796  ALA797  LYS798  CYS799  TRP800  GLU811  SER814 

> <Gold.Protein.RotatedAtoms>
  150.8390  134.7675  159.6916 H   0  0  0  0  0  0  0  0  0  0  0  0  # atno 6907 bound_to 6896
  152.4481  134.5448  159.9859 H   0  0  0  0  0  0  0  0  0  0  0  0  # atno 6908 bound_to 6896
  151.5592  133.3368  159.3003 H   0  0  0  0  0  0  0  0  0  0  0  0  # atno 6909 bound_to 6896
  144.8735  140.6402  143.5252 H   0  0  0  0  0  0  0  0  0  0  0  0  # atno 7974 bound_to 7965
  154.3998  140.1468  156.3388 H   0  0  0  0  0  0  0  0  0  0  0  0  # atno 8008 bound_to 7997
  155.8375  140.3463  155.5590 H   0  0  0  0  0  0  0  0  0  0  0  0  # atno 8009 bound_to 7997
  155.8122  140.0885  157.1888 H   0  0  0  0  0  0  0  0  0  0  0  0  # atno 8010 bound_to 7997
  139.7254  144.7048  151.0806 H   0  0  0  0  0  0  0  0  0  0  0  0  # atno 10167 bound_to 10162
  155.9983  130.4849  150.5076 H   0  0  0  0  0  0  0  0  0  0  0  0  # atno 10718 bound_to 10713
  154.8710  135.3717  154.4826 H   0  0  0  0  0  0  0  0  0  0  0  0  # atno 10763 bound_to 10752
  153.5478  135.7025  153.5610 H   0  0  0  0  0  0  0  0  0  0  0  0  # atno 10764 bound_to 10752
  153.3743  135.4013  155.1775 H   0  0  0  0  0  0  0  0  0  0  0  0  # atno 10765 bound_to 10752
  140.9657  133.7138  156.1441 H   0  0  0  0  0  0  0  0  0  0  0  0  # atno 11005 bound_to 11000
  145.4087  139.1584  143.4138 LP  0  0  0  0  0  0  0  0  0  0  0  0  # atno 17320 bound_to 7965
  146.2946  140.4189  142.8726 LP  0  0  0  0  0  0  0  0  0  0  0  0  # atno 17321 bound_to 7965
  140.7762  143.5112  150.9651 LP  0  0  0  0  0  0  0  0  0  0  0  0  # atno 17342 bound_to 10162
  139.8799  143.7085  152.3158 LP  0  0  0  0  0  0  0  0  0  0  0  0  # atno 17343 bound_to 10162
  157.3053  131.0653  151.2039 LP  0  0  0  0  0  0  0  0  0  0  0  0  # atno 17370 bound_to 10713
  157.3004  130.6840  149.6161 LP  0  0  0  0  0  0  0  0  0  0  0  0  # atno 17371 bound_to 10713
  140.7403  134.4157  157.5555 LP  0  0  0  0  0  0  0  0  0  0  0  0  # atno 17394 bound_to 11000
  139.8893  134.8832  156.2425 LP  0  0  0  0  0  0  0  0  0  0  0  0  # atno 17395 bound_to 11000

$$$$
