AV-unprocessed.smi:561|AV-procd|sdf|2942|dock9
  -GOLD-   2262023443D 1   1.00000     0.00000
 Structure written by MMmdl.
 35 36  0  0  0  0  0  0  0  0  2 V2000
  152.3631  139.2331  155.3808 C   0  0  0  0  0  0  0  0  0  0  0  0
  150.8859  139.6199  155.5369 C   0  0  2  0  0  0  0  0  0  0  0  0
  150.4443  140.6042  154.4233 C   0  0  0  0  0  0  0  0  0  0  0  0
  149.0335  140.5104  154.0622 N   0  0  0  0  0  0  0  0  0  0  0  0
  148.0764  141.5161  154.1506 C   0  0  0  0  0  0  0  0  0  0  0  0
  146.8945  140.9802  153.6925 C   0  0  0  0  0  0  0  0  0  0  0  0
  147.0983  139.6590  153.3027 N   0  0  0  0  0  0  0  0  0  0  0  0
  148.3860  139.4524  153.5483 C   0  0  0  0  0  0  0  0  0  0  0  0
  150.6997  140.2340  156.8572 N   0  5  0  0  0  0  0  0  0  0  0  0
  151.1278  141.4822  157.2190 C   0  0  0  0  0  0  0  0  0  0  0  0
  151.0760  142.5015  156.5199 O   0  0  0  0  0  0  0  0  0  0  0  0
  151.7392  141.6689  158.5681 C   0  0  0  0  0  0  0  0  0  0  0  0
  151.7472  142.8463  159.1115 N   0  0  0  0  0  0  0  0  0  0  0  0
  152.2690  143.0755  160.3676 N   0  0  0  0  0  0  0  0  0  0  0  0
  151.9566  144.3877  160.9298 C   0  0  0  0  0  0  0  0  0  0  0  0
  153.0362  142.1953  161.0565 C   0  0  0  0  0  0  0  0  0  0  0  0
  153.4727  142.4070  162.1882 O   0  0  0  0  0  0  0  0  0  0  0  0
  153.3844  140.8882  160.3406 C   0  0  0  0  0  0  0  0  0  0  0  0
  152.3080  140.4765  159.3171 C   0  0  0  0  0  0  0  0  0  0  0  0
  152.5408  138.7525  154.4184 H   0  0  0  0  0  0  0  0  0  0  0  0
  152.6710  138.5326  156.1579 H   0  0  0  0  0  0  0  0  0  0  0  0
  153.0139  140.1062  155.4410 H   0  0  0  0  0  0  0  0  0  0  0  0
  150.3047  138.7032  155.4261 H   0  0  0  0  0  0  0  0  0  0  0  0
  150.6581  141.6329  154.7175 H   0  0  0  0  0  0  0  0  0  0  0  0
  151.0269  140.4192  153.5200 H   0  0  0  0  0  0  0  0  0  0  0  0
  148.3111  142.4983  154.5335 H   0  0  0  0  0  0  0  0  0  0  0  0
  145.9219  141.4421  153.6103 H   0  0  0  0  0  0  0  0  0  0  0  0
  148.8716  138.5077  153.3522 H   0  0  0  0  0  0  0  0  0  0  0  0
  152.8715  144.9408  161.1469 H   0  0  0  0  0  0  0  0  0  0  0  0
  151.3917  144.2830  161.8570 H   0  0  0  0  0  0  0  0  0  0  0  0
  151.3600  144.9945  160.2464 H   0  0  0  0  0  0  0  0  0  0  0  0
  154.3360  141.0398  159.8296 H   0  0  0  0  0  0  0  0  0  0  0  0
  153.5414  140.0910  161.0678 H   0  0  0  0  0  0  0  0  0  0  0  0
  151.4967  139.9494  159.8202 H   0  0  0  0  0  0  0  0  0  0  0  0
  152.7569  139.7633  158.6252 H   0  0  0  0  0  0  0  0  0  0  0  0
  1  2  1  0  0  0  0
  1 20  1  0  0  0  0
  1 21  1  0  0  0  0
  1 22  1  0  0  0  0
  2  3  1  0  0  0  0
  2  9  1  0  0  0  0
  2 23  1  0  0  0  0
  3  4  1  0  0  0  0
  3 24  1  0  0  0  0
  3 25  1  0  0  0  0
  4  8  1  0  0  0  0
  4  5  1  0  0  0  0
  5  6  2  0  0  0  0
  5 26  1  0  0  0  0
  6  7  1  0  0  0  0
  6 27  1  0  0  0  0
  7  8  2  0  0  0  0
  8 28  1  0  0  0  0
  9 10  1  0  0  0  0
 10 11  2  0  0  0  0
 10 12  1  0  0  0  0
 12 19  1  0  0  0  0
 12 13  2  0  0  0  0
 13 14  1  0  0  0  0
 14 15  1  0  0  0  0
 14 16  1  0  0  0  0
 15 29  1  0  0  0  0
 15 30  1  0  0  0  0
 15 31  1  0  0  0  0
 16 17  2  0  0  0  0
 16 18  1  0  0  0  0
 18 19  1  0  0  0  0
 18 32  1  0  0  0  0
 18 33  1  0  0  0  0
 19 34  1  0  0  0  0
 19 35  1  0  0  0  0
M  CHG  1   9  -1
M  END
> <s_m_source_file>
AV-unprocessed.smi

> <i_m_source_file_index>
561

> <i_lp_mmshare_version>
43012

> <i_f3d_flags>
0

> <s_epik_input>
W2NIXTFuW2NIXVtjSF1uMVtDSDJdW0NAQEhdKFtDSDNdKVtOSF1DKD1PKUMyPU5OKFtDSDNdKUMoPU8pW0NIMl1bQ0gyXTI=

> <s_epik_cmdline>
J2VwaWtfcHl0aG9uJywgJy1waCcsICc3LjAnLCAnLXRuJywgJzgnLCAnLW1hJywgJzIwMCcsICctbWV0YWxfYmluZGluZycsICctaW1hZScsICc8aW5maWxlLm1hZT4nLCAnLW9tYWUnLCAnPG91dGZpbGUubWFlPic=

> <r_lp_tautomer_probability>
1

> <r_epik_Ionization_Penalty>
6.06239

> <r_epik_Ionization_Penalty_Charging>
6.06239

> <r_epik_Ionization_Penalty_Neutral>
3.91387e-09

> <r_epik_State_Penalty>
5.76729

> <r_epik_Charging_Adjusted_Penalty>
11.8297

> <i_epik_Tot_Q>
-1

> <i_epik_Tot_abs_Q>
1

> <r_epik_Metal_State_Penalty>
2.02369

> <b_epik_Metal_Only>
1

> <s_epik_Chemistry_Notes>
This compound has an imine and may undergo hydrolysis.

> <s_lp_Force_Field>
OPLS_2005

> <r_lp_Energy>
24.7282

> <b_lp_Chiralities_Consistent>
1

> <s_lp_Variant>
AV-unprocessed.smi:561-7

> <Gold.Version>
5.8.1

> <Gold.Id.Protein>
6NUR|6NUR_protein|mol2

> <Gold.PLP.Fitness>
40.2576

> <Gold.PLP.PLP>
-35.4025

> <Gold.PLP.part.hbond>
0.0000

> <Gold.PLP.part.metal>
0.0000

> <Gold.PLP.part.buried>
1.2053

> <Gold.PLP.part.nonpolar>
-36.3346

> <Gold.PLP.part.repulsive>
0.3575

> <Gold.PLP.ligand.clash>
0.0000

> <Gold.PLP.ligand.torsion>
1.0248

> <Gold.PLP.Chemscore.Hbond>
0.0000

> <Gold.PLP.Chemscore.CHOScore>
2.2924

> <Gold.PLP.Chemscore.Metal>
0.0000

> <Gold.Chemscore.Hbonds>
donor molecule, donor type, donor heavy atom, donor atom, acceptor molecule, acceptor atom, score
      L1  C     5    26       P1  8028  1.00
      L1  C     6    27       P1 10175  0.64
      L1  C     8    28       P1  7948  0.59

> <Gold.PLP.Chemscore.Internal.Correction>
0.0274

> <Gold.Rescore>
     Score         DG    S(hbond)    S(metal)    S(lipo)     H(rot)  DE(clash)    DE(int)     intcor
      6.73      -8.67       0.00        0.00      64.03       1.68       0.03       1.91       ----

> <Gold.Chemscore.Fitness>
6.7323

> <Gold.Chemscore.DG>
-8.6724

> <Gold.Chemscore.ZeroCoef>
-5.4800

> <Gold.Chemscore.Hbond>
0.0000

> <Gold.Chemscore.Metal>
0.0000

> <Gold.Chemscore.Lipo>
64.0350

> <Gold.Chemscore.Internal_Hbond>
0.0000

> <Gold.Chemscore.DEClash>
0.0272

> <Gold.Chemscore.DEInternal>
1.9129

> <Gold.Chemscore.Rot>
1.6796

> <Gold.Chemscore.Internal.Correction>
   9.000000E+99

> <Gold.Chemscore.Hbond.Weighted>
-0.0000

> <Gold.Chemscore.Metal.Weighted>
-0.0000

> <Gold.Chemscore.Lipo.Weighted>
-7.4921

> <Gold.Chemscore.Internal_Hbond.Weighted>
0.0000

> <Gold.Chemscore.DEClash.Weighted>
0.0272

> <Gold.Chemscore.DEInternal.Weighted>
1.9129

> <Gold.Chemscore.Rot.Weighted>
4.2997

> <Gold.Chemscore.Internal.Correction.Weighted>
   9.000000E+99

> <Gold.Protein.RotatedTorsions>
[ 6907 6896 6895 6894 ] final -177.29 input  -60.11 | X-H torsion
[ 7974 7965 7964 7962 ] final -130.42 input  175.53 | X-H torsion
[ 8008 7997 7996 7995 ] final -118.33 input   59.86 | X-H torsion
[ 10167 10162 10161 10158 ] final  -15.89 input  -65.29 | X-H torsion
[ 10718 10713 10712 10709 ] final   15.99 input   66.30 | X-H torsion
[ 10763 10752 10751 10750 ] final -108.80 input  -60.55 | X-H torsion
[ 11005 11000 10999 10996 ] final  105.74 input  -57.11 | X-H torsion

> <Gold.Protein.ActiveResidues>
 VAL166  LYS551  ARG553  GLY616  TRP617  ASP618  TYR619  PRO620  LYS621  CYS622 
 ASP623  PHE694  ASN695  SER759  ASP760  ASP761  ALA762  ILE779  LEU786  VAL792 
 PHE793  MET794  SER795  GLU796  ALA797  LYS798  CYS799  TRP800  GLU811  SER814 

> <Gold.Protein.RotatedAtoms>
  151.6185  133.3341  159.3082 H   0  0  0  0  0  0  0  0  0  0  0  0  # atno 6907 bound_to 6896
  150.8118  134.7281  159.6706 H   0  0  0  0  0  0  0  0  0  0  0  0  # atno 6908 bound_to 6896
  152.4215  134.5952  160.0036 H   0  0  0  0  0  0  0  0  0  0  0  0  # atno 6909 bound_to 6896
  144.9476  140.7309  143.4808 H   0  0  0  0  0  0  0  0  0  0  0  0  # atno 7974 bound_to 7965
  155.0980  140.0395  157.2688 H   0  0  0  0  0  0  0  0  0  0  0  0  # atno 8008 bound_to 7997
  154.6780  140.2627  155.6913 H   0  0  0  0  0  0  0  0  0  0  0  0  # atno 8009 bound_to 7997
  156.2684  140.2784  156.1314 H   0  0  0  0  0  0  0  0  0  0  0  0  # atno 8010 bound_to 7997
  140.7225  143.5172  150.9678 H   0  0  0  0  0  0  0  0  0  0  0  0  # atno 10167 bound_to 10162
  157.0615  130.6311  149.5787 H   0  0  0  0  0  0  0  0  0  0  0  0  # atno 10718 bound_to 10713
  154.8156  135.4624  154.0635 H   0  0  0  0  0  0  0  0  0  0  0  0  # atno 10763 bound_to 10752
  153.2030  135.6871  153.8214 H   0  0  0  0  0  0  0  0  0  0  0  0  # atno 10764 bound_to 10752
  153.7691  135.3273  155.3326 H   0  0  0  0  0  0  0  0  0  0  0  0  # atno 10765 bound_to 10752
  139.8805  134.9346  156.5560 H   0  0  0  0  0  0  0  0  0  0  0  0  # atno 11005 bound_to 11000
  145.2894  139.1889  143.4748 LP  0  0  0  0  0  0  0  0  0  0  0  0  # atno 17320 bound_to 7965
  146.3309  140.2868  142.8613 LP  0  0  0  0  0  0  0  0  0  0  0  0  # atno 17321 bound_to 7965
  139.8888  143.6979  152.3148 LP  0  0  0  0  0  0  0  0  0  0  0  0  # atno 17342 bound_to 10162
  139.7288  144.7587  151.0836 LP  0  0  0  0  0  0  0  0  0  0  0  0  # atno 17343 bound_to 10162
  155.9977  130.5049  150.7544 LP  0  0  0  0  0  0  0  0  0  0  0  0  # atno 17370 bound_to 10713
  157.4951  131.0914  151.0381 LP  0  0  0  0  0  0  0  0  0  0  0  0  # atno 17371 bound_to 10713
  140.8205  133.8357  155.8891 LP  0  0  0  0  0  0  0  0  0  0  0  0  # atno 17394 bound_to 11000
  140.9423  134.1885  157.4789 LP  0  0  0  0  0  0  0  0  0  0  0  0  # atno 17395 bound_to 11000

$$$$
