AV-unprocessed.smi:1085|AV-procd|sdf|4720|dock4
  -GOLD-   22720 3243D 1   1.00000     0.00000
 Structure written by MMmdl.
 33 34  0  0  0  0  0  0  0  0  1 V2000
  151.8914  137.2156  159.5794 O   0  0  0  0  0  0  0  0  0  0  0  0
  152.4497  137.8512  158.6859 C   0  0  0  0  0  0  0  0  0  0  0  0
  153.6091  137.2269  157.9094 C   0  0  0  0  0  0  0  0  0  0  0  0
  153.7851  135.8347  158.2809 N   0  0  0  0  0  0  0  0  0  0  0  0
  154.2811  135.2786  159.3882 C   0  0  0  0  0  0  0  0  0  0  0  0
  154.2331  133.9562  159.3346 N   0  0  0  0  0  0  0  0  0  0  0  0
  153.6631  133.7115  158.0961 N   0  0  0  0  0  0  0  0  0  0  0  0
  153.3951  134.8221  157.4663 N   0  0  0  0  0  0  0  0  0  0  0  0
  152.0890  139.0906  158.3189 N   0  0  0  0  0  0  0  0  0  0  0  0
  150.9478  139.8393  158.8390 C   0  0  2  0  0  0  0  0  0  0  0  0
  149.8578  140.0148  157.7606 C   0  0  0  0  0  0  0  0  0  0  0  0
  150.3151  140.9508  156.6295 C   0  0  0  0  0  0  0  0  0  0  0  0
  150.7620  142.3131  157.1827 C   0  0  0  0  0  0  0  0  0  0  0  0
  151.8734  142.1645  158.2436 C   0  0  1  0  0  0  0  0  0  0  0  0
  152.3305  143.5300  158.7969 C   0  0  0  0  0  0  0  0  0  0  0  0
  152.6124  144.3745  157.8043 F   0  0  0  0  0  0  0  0  0  0  0  0
  151.3693  144.0598  159.5536 F   0  0  0  0  0  0  0  0  0  0  0  0
  153.4171  143.3760  159.5535 F   0  0  0  0  0  0  0  0  0  0  0  0
  151.4131  141.2096  159.3705 C   0  0  0  0  0  0  0  0  0  0  0  0
  153.4226  137.2987  156.8368 H   0  0  0  0  0  0  0  0  0  0  0  0
  154.5351  137.7651  158.1164 H   0  0  0  0  0  0  0  0  0  0  0  0
  154.6651  135.8377  160.2289 H   0  0  0  0  0  0  0  0  0  0  0  0
  152.6159  139.5306  157.5779 H   0  0  0  0  0  0  0  0  0  0  0  0
  150.5275  139.2779  159.6755 H   0  0  0  0  0  0  0  0  0  0  0  0
  149.5639  139.0485  157.3491 H   0  0  0  0  0  0  0  0  0  0  0  0
  148.9610  140.4284  158.2238 H   0  0  0  0  0  0  0  0  0  0  0  0
  151.1350  140.4910  156.0757 H   0  0  0  0  0  0  0  0  0  0  0  0
  149.5037  141.0900  155.9146 H   0  0  0  0  0  0  0  0  0  0  0  0
  151.1094  142.9392  156.3605 H   0  0  0  0  0  0  0  0  0  0  0  0
  149.9029  142.8259  157.6174 H   0  0  0  0  0  0  0  0  0  0  0  0
  152.7375  141.7133  157.7532 H   0  0  0  0  0  0  0  0  0  0  0  0
  150.5915  141.6715  159.9195 H   0  0  0  0  0  0  0  0  0  0  0  0
  152.2155  141.0678  160.0956 H   0  0  0  0  0  0  0  0  0  0  0  0
  1  2  2  0  0  0  0
  2  3  1  0  0  0  0
  2  9  1  0  0  0  0
  3  4  1  0  0  0  0
  3 20  1  0  0  0  0
  3 21  1  0  0  0  0
  4  8  1  0  0  0  0
  4  5  1  0  0  0  0
  5  6  2  0  0  0  0
  5 22  1  0  0  0  0
  6  7  1  0  0  0  0
  7  8  2  0  0  0  0
  9 10  1  0  0  0  0
  9 23  1  0  0  0  0
 10 19  1  0  0  0  0
 10 11  1  0  0  0  0
 10 24  1  0  0  0  0
 11 12  1  0  0  0  0
 11 25  1  0  0  0  0
 11 26  1  0  0  0  0
 12 13  1  0  0  0  0
 12 27  1  0  0  0  0
 12 28  1  0  0  0  0
 13 14  1  0  0  0  0
 13 29  1  0  0  0  0
 13 30  1  0  0  0  0
 14 15  1  0  0  0  0
 14 19  1  0  0  0  0
 14 31  1  0  0  0  0
 15 16  1  0  0  0  0
 15 17  1  0  0  0  0
 15 18  1  0  0  0  0
 19 32  1  0  0  0  0
 19 33  1  0  0  0  0
M  END
> <s_m_source_file>
AV-unprocessed.smi

> <i_m_source_file_index>
1085

> <i_lp_mmshare_version>
43012

> <i_f3d_flags>
0

> <s_epik_input>
bjFubltjSF1uMVtDSDJdQyg9TylbTkhdW0NAQEhdMltDSDJdW0NIMl1bQ0gyXVtDQEBIXShDKEYpKEYpRilbQ0gyXTI=

> <s_epik_cmdline>
J2VwaWtfcHl0aG9uJywgJy1waCcsICc3LjAnLCAnLXRuJywgJzgnLCAnLW1hJywgJzIwMCcsICctbWV0YWxfYmluZGluZycsICctaW1hZScsICc8aW5maWxlLm1hZT4nLCAnLW9tYWUnLCAnPG91dGZpbGUubWFlPic=

> <r_lp_tautomer_probability>
1

> <r_epik_Ionization_Penalty>
8.41315e-07

> <r_epik_Ionization_Penalty_Charging>
0

> <r_epik_Ionization_Penalty_Neutral>
8.41315e-07

> <r_epik_State_Penalty>
-0

> <r_epik_Charging_Adjusted_Penalty>
0

> <i_epik_Tot_Q>
0

> <i_epik_Tot_abs_Q>
0

> <r_epik_Metal_State_Penalty>
-0

> <b_epik_Metal_Only>
0

> <s_lp_Force_Field>
OPLS_2005

> <r_lp_Energy>
11.1057

> <b_lp_Chiralities_Consistent>
1

> <s_lp_Variant>
AV-unprocessed.smi:1085-1

> <Gold.Version>
5.8.1

> <Gold.Id.Protein>
6NUR|6NUR_protein|mol2

> <Gold.PLP.Fitness>
34.4389

> <Gold.PLP.PLP>
-29.9914

> <Gold.PLP.part.hbond>
-2.3287

> <Gold.PLP.part.metal>
0.0000

> <Gold.PLP.part.buried>
-5.4167

> <Gold.PLP.part.nonpolar>
-23.1221

> <Gold.PLP.part.repulsive>
0.0814

> <Gold.PLP.ligand.clash>
0.0000

> <Gold.PLP.ligand.torsion>
0.3665

> <Gold.PLP.Chemscore.Hbond>
1.7150

> <Gold.PLP.Chemscore.CHOScore>
0.0000

> <Gold.PLP.Chemscore.Metal>
0.0000

> <Gold.Chemscore.Hbonds>
donor molecule, donor type, donor heavy atom, donor atom, acceptor molecule, acceptor atom, score
      P1  H  6896  6909       L1     1  0.78
      P1  H 10752 10763       L1     8  0.68

> <Gold.PLP.Chemscore.Internal.Correction>
0.0354

> <Gold.Rescore>
     Score         DG    S(hbond)    S(metal)    S(lipo)     H(rot)  DE(clash)    DE(int)     intcor
     12.09     -12.64       1.94        0.00      50.58       2.05       0.00       0.55       ----

> <Gold.Chemscore.Fitness>
12.0926

> <Gold.Chemscore.DG>
-12.6379

> <Gold.Chemscore.ZeroCoef>
-5.4800

> <Gold.Chemscore.Hbond>
1.9393

> <Gold.Chemscore.Metal>
0.0000

> <Gold.Chemscore.Lipo>
50.5769

> <Gold.Chemscore.Internal_Hbond>
0.0000

> <Gold.Chemscore.DEClash>
0.0000

> <Gold.Chemscore.DEInternal>
0.5454

> <Gold.Chemscore.Rot>
2.0456

> <Gold.Chemscore.Internal.Correction>
   9.000000E+99

> <Gold.Chemscore.Hbonds>
donor molecule, donor type, donor heavy atom, donor atom, acceptor molecule, acceptor atom, score
      P1  H  6896  6909       L1     1  0.77
      P1  H 10752 10763       L1     8  0.49

> <Gold.Chemscore.Hbond.Weighted>
-6.4772

> <Gold.Chemscore.Metal.Weighted>
-0.0000

> <Gold.Chemscore.Lipo.Weighted>
-5.9175

> <Gold.Chemscore.Internal_Hbond.Weighted>
0.0000

> <Gold.Chemscore.DEClash.Weighted>
0.0000

> <Gold.Chemscore.DEInternal.Weighted>
0.5454

> <Gold.Chemscore.Rot.Weighted>
5.2368

> <Gold.Chemscore.Internal.Correction.Weighted>
   9.000000E+99

> <Gold.Protein.RotatedTorsions>
[ 6907 6896 6895 6894 ] final  131.54 input  -60.11 | X-H torsion
[ 7974 7965 7964 7962 ] final  138.49 input  175.53 | X-H torsion
[ 8008 7997 7996 7995 ] final  -80.14 input   59.86 | X-H torsion
[ 10167 10162 10161 10158 ] final -173.25 input  -65.29 | X-H torsion
[ 10718 10713 10712 10709 ] final  149.28 input   66.30 | X-H torsion
[ 10763 10752 10751 10750 ] final  137.86 input  -60.55 | X-H torsion
[ 11005 11000 10999 10996 ] final  159.45 input  -57.11 | X-H torsion

> <Gold.Protein.ActiveResidues>
 VAL166  LYS551  ARG553  GLY616  TRP617  ASP618  TYR619  PRO620  LYS621  CYS622 
 ASP623  PHE694  ASN695  SER759  ASP760  ASP761  ALA762  ILE779  LEU786  VAL792 
 PHE793  MET794  SER795  GLU796  ALA797  LYS798  CYS799  TRP800  GLU811  SER814 

> <Gold.Protein.RotatedAtoms>
  152.3416  133.6073  159.5880 H   0  0  0  0  0  0  0  0  0  0  0  0  # atno 6907 bound_to 6896
  150.7482  133.9713  159.3555 H   0  0  0  0  0  0  0  0  0  0  0  0  # atno 6908 bound_to 6896
  151.7577  135.0818  160.0392 H   0  0  0  0  0  0  0  0  0  0  0  0  # atno 6909 bound_to 6896
  144.9368  139.4980  143.5591 H   0  0  0  0  0  0  0  0  0  0  0  0  # atno 7974 bound_to 7965
  154.5854  140.0667  156.9163 H   0  0  0  0  0  0  0  0  0  0  0  0  # atno 8008 bound_to 7997
  155.2389  140.3343  155.4276 H   0  0  0  0  0  0  0  0  0  0  0  0  # atno 8009 bound_to 7997
  156.2219  140.1802  156.7442 H   0  0  0  0  0  0  0  0  0  0  0  0  # atno 8010 bound_to 7997
  139.5699  144.1667  152.1368 H   0  0  0  0  0  0  0  0  0  0  0  0  # atno 10167 bound_to 10162
  157.2981  131.0866  151.1411 H   0  0  0  0  0  0  0  0  0  0  0  0  # atno 10718 bound_to 10713
  153.8800  135.3045  155.3445 H   0  0  0  0  0  0  0  0  0  0  0  0  # atno 10763 bound_to 10752
  154.7766  135.4858  153.9759 H   0  0  0  0  0  0  0  0  0  0  0  0  # atno 10764 bound_to 10752
  153.1357  135.6813  153.9204 H   0  0  0  0  0  0  0  0  0  0  0  0  # atno 10765 bound_to 10752
  140.1963  134.8370  157.2969 H   0  0  0  0  0  0  0  0  0  0  0  0  # atno 11005 bound_to 11000
  146.3269  139.8358  142.8900 LP  0  0  0  0  0  0  0  0  0  0  0  0  # atno 17320 bound_to 7965
  145.3055  141.0206  143.3584 LP  0  0  0  0  0  0  0  0  0  0  0  0  # atno 17321 bound_to 7965
  140.1198  144.5383  150.6870 LP  0  0  0  0  0  0  0  0  0  0  0  0  # atno 17342 bound_to 10162
  140.6983  143.2418  151.4938 LP  0  0  0  0  0  0  0  0  0  0  0  0  # atno 17343 bound_to 10162
  157.2780  130.6736  149.6052 LP  0  0  0  0  0  0  0  0  0  0  0  0  # atno 17370 bound_to 10713
  155.9670  130.4458  150.5517 LP  0  0  0  0  0  0  0  0  0  0  0  0  # atno 17371 bound_to 10713
  140.2103  134.4146  155.7616 LP  0  0  0  0  0  0  0  0  0  0  0  0  # atno 17394 bound_to 11000
  141.2227  133.7115  156.8327 LP  0  0  0  0  0  0  0  0  0  0  0  0  # atno 17395 bound_to 11000

$$$$
