AV-unprocessed.smi:2061|AV-procd|sdf|8387|dock4
  -GOLD-   2272011 63D 1   1.00000     0.00000
 Structure written by MMmdl.
 45 46  0  0  0  0  0  0  0  0  3 V2000
  151.2160  141.0869  155.9097 C   0  0  0  0  0  0  0  0  0  0  0  0
  151.4867  139.7013  155.4312 C   0  0  0  0  0  0  0  0  0  0  0  0
  150.6856  138.6095  155.2499 C   0  0  0  0  0  0  0  0  0  0  0  0
  151.5891  137.6186  154.7774 C   0  0  0  0  0  0  0  0  0  0  0  0
  151.2740  136.3596  154.4356 N   0  5  0  0  0  0  0  0  0  0  0  0
  150.3141  135.6884  155.1117 C   0  0  0  0  0  0  0  0  0  0  0  0
  150.4307  135.1555  156.2175 O   0  0  0  0  0  0  0  0  0  0  0  0
  149.1436  135.6310  154.4637 N   0  0  0  0  0  0  0  0  0  0  0  0
  147.9409  134.9623  154.9474 C   0  0  0  0  0  0  0  0  0  0  0  0
  146.8768  134.7910  153.8320 C   0  0  1  0  0  0  0  0  0  0  0  0
  146.2085  136.1530  153.5216 C   0  0  0  0  0  0  0  0  0  0  0  0
  147.4478  134.1758  152.5837 N   0  3  1  0  0  0  0  0  0  0  0  0
  148.2301  132.9226  152.7652 C   0  0  0  0  0  0  0  0  0  0  0  0
  147.3015  131.7278  153.0670 C   0  0  2  0  0  0  0  0  0  0  0  0
  148.0791  130.4156  153.2124 C   0  0  0  0  0  0  0  0  0  0  0  0
  146.3849  131.5794  151.9863 O   0  0  0  0  0  0  0  0  0  0  0  0
  145.5667  132.7275  151.7801 C   0  0  2  0  0  0  0  0  0  0  0  0
  144.6125  132.4266  150.6191 C   0  0  0  0  0  0  0  0  0  0  0  0
  146.4680  133.9472  151.4860 C   0  0  0  0  0  0  0  0  0  0  0  0
  152.8257  138.0736  154.6662 N   0  0  0  0  0  0  0  0  0  0  0  0
  152.7702  139.4067  155.0901 O   0  0  0  0  0  0  0  0  0  0  0  0
  150.4246  141.5506  155.3207 H   0  0  0  0  0  0  0  0  0  0  0  0
  152.1055  141.7121  155.8301 H   0  0  0  0  0  0  0  0  0  0  0  0
  150.9009  141.0789  156.9533 H   0  0  0  0  0  0  0  0  0  0  0  0
  149.6240  138.5307  155.4292 H   0  0  0  0  0  0  0  0  0  0  0  0
  149.0911  136.0806  153.5612 H   0  0  0  0  0  0  0  0  0  0  0  0
  148.1985  133.9889  155.3686 H   0  0  0  0  0  0  0  0  0  0  0  0
  147.5702  135.5854  155.7602 H   0  0  0  0  0  0  0  0  0  0  0  0
  146.1067  134.1291  154.2271 H   0  0  0  0  0  0  0  0  0  0  0  0
  145.8531  136.6532  154.4220 H   0  0  0  0  0  0  0  0  0  0  0  0
  145.3282  136.0523  152.8894 H   0  0  0  0  0  0  0  0  0  0  0  0
  146.9053  136.8309  153.0280 H   0  0  0  0  0  0  0  0  0  0  0  0
  148.7647  132.7254  151.8346 H   0  0  0  0  0  0  0  0  0  0  0  0
  149.0160  133.0220  153.5107 H   0  0  0  0  0  0  0  0  0  0  0  0
  146.7477  131.9010  153.9907 H   0  0  0  0  0  0  0  0  0  0  0  0
  148.7926  130.4718  154.0350 H   0  0  0  0  0  0  0  0  0  0  0  0
  148.6334  130.1807  152.3031 H   0  0  0  0  0  0  0  0  0  0  0  0
  147.4043  129.5836  153.4150 H   0  0  0  0  0  0  0  0  0  0  0  0
  144.9666  132.9041  152.6735 H   0  0  0  0  0  0  0  0  0  0  0  0
  143.9494  133.2706  150.4277 H   0  0  0  0  0  0  0  0  0  0  0  0
  143.9895  131.5598  150.8413 H   0  0  0  0  0  0  0  0  0  0  0  0
  145.1605  132.2161  149.7002 H   0  0  0  0  0  0  0  0  0  0  0  0
  145.8718  134.8304  151.2689 H   0  0  0  0  0  0  0  0  0  0  0  0
  147.0307  133.7590  150.5704 H   0  0  0  0  0  0  0  0  0  0  0  0
  148.1052  134.8605  152.2378 H   0  0  0  0  0  0  0  0  0  0  0  0
  1  2  1  0  0  0  0
  1 22  1  0  0  0  0
  1 23  1  0  0  0  0
  1 24  1  0  0  0  0
  2 21  1  0  0  0  0
  2  3  2  0  0  0  0
  3  4  1  0  0  0  0
  3 25  1  0  0  0  0
  4  5  1  0  0  0  0
  4 20  2  0  0  0  0
  5  6  1  0  0  0  0
  6  7  2  0  0  0  0
  6  8  1  0  0  0  0
  8  9  1  0  0  0  0
  8 26  1  0  0  0  0
  9 10  1  0  0  0  0
  9 27  1  0  0  0  0
  9 28  1  0  0  0  0
 10 11  1  0  0  0  0
 10 12  1  0  0  0  0
 10 29  1  0  0  0  0
 11 30  1  0  0  0  0
 11 31  1  0  0  0  0
 11 32  1  0  0  0  0
 12 19  1  0  0  0  0
 12 13  1  0  0  0  0
 12 45  1  0  0  0  0
 13 14  1  0  0  0  0
 13 33  1  0  0  0  0
 13 34  1  0  0  0  0
 14 15  1  0  0  0  0
 14 16  1  0  0  0  0
 14 35  1  0  0  0  0
 15 36  1  0  0  0  0
 15 37  1  0  0  0  0
 15 38  1  0  0  0  0
 16 17  1  0  0  0  0
 17 18  1  0  0  0  0
 17 19  1  0  0  0  0
 17 39  1  0  0  0  0
 18 40  1  0  0  0  0
 18 41  1  0  0  0  0
 18 42  1  0  0  0  0
 19 43  1  0  0  0  0
 19 44  1  0  0  0  0
 20 21  1  0  0  0  0
M  CHG  1   5  -1
M  CHG  1  12   1
M  END
> <s_m_source_file>
AV-unprocessed.smi

> <i_m_source_file_index>
2061

> <i_lp_mmshare_version>
43012

> <i_f3d_flags>
0

> <s_epik_input>
W0NIM11jMVtjSF1jKG5vMSlbTkhdQyg9TylbTkhdW0NIMl1bQ0BIXShbQ0gzXSlOMltDSDJdW0NAQEhdKFtDSDNdKU9bQ0BASF0oW0NIM10pW0NIMl0y

> <s_epik_cmdline>
J2VwaWtfcHl0aG9uJywgJy1waCcsICc3LjAnLCAnLXRuJywgJzgnLCAnLW1hJywgJzIwMCcsICctbWV0YWxfYmluZGluZycsICctaW1hZScsICc8aW5maWxlLm1hZT4nLCAnLW9tYWUnLCAnPG91dGZpbGUubWFlPic=

> <r_epik_Ionization_Penalty>
6.73511

> <r_epik_Ionization_Penalty_Charging>
6.73502

> <r_epik_Ionization_Penalty_Neutral>
9.50841e-05

> <r_epik_State_Penalty>
6.93549

> <r_epik_Charging_Adjusted_Penalty>
13.6705

> <i_epik_Tot_Q>
0

> <i_epik_Tot_abs_Q>
2

> <r_epik_Metal_State_Penalty>
2.87211

> <b_epik_Metal_Only>
1

> <s_lp_Force_Field>
OPLS_2005

> <r_lp_Energy>
11.5912

> <b_lp_Chiralities_Consistent>
1

> <s_lp_Variant>
AV-unprocessed.smi:2061-28

> <Gold.Version>
5.8.1

> <Gold.Id.Protein>
6NUR|6NUR_protein|mol2

> <Gold.PLP.Fitness>
48.8644

> <Gold.PLP.PLP>
-33.0662

> <Gold.PLP.part.hbond>
-5.4177

> <Gold.PLP.part.metal>
0.0000

> <Gold.PLP.part.buried>
-3.2384

> <Gold.PLP.part.nonpolar>
-24.1060

> <Gold.PLP.part.repulsive>
1.0710

> <Gold.PLP.ligand.clash>
0.0000

> <Gold.PLP.ligand.torsion>
1.1375

> <Gold.PLP.Chemscore.Hbond>
6.0000

> <Gold.PLP.Chemscore.CHOScore>
0.0000

> <Gold.PLP.Chemscore.Metal>
0.0000

> <Gold.Chemscore.Hbonds>
donor molecule, donor type, donor heavy atom, donor atom, acceptor molecule, acceptor atom, score
      L1  H     8    26       P1  7948  1.00
      L1  H    12    45       P1  7948  2.00
      P1  H  7997  8010       L1    21  1.00
      P1  H 10752 10764       L1     5  2.00

> <Gold.PLP.Chemscore.Internal.Correction>
0.0731

> <Gold.Rescore>
     Score         DG    S(hbond)    S(metal)    S(lipo)     H(rot)  DE(clash)    DE(int)     intcor
     17.50     -18.81       3.03        0.00      61.46       1.56       0.12       1.19       ----

> <Gold.Chemscore.Fitness>
17.5018

> <Gold.Chemscore.DG>
-18.8105

> <Gold.Chemscore.ZeroCoef>
-5.4800

> <Gold.Chemscore.Hbond>
3.0302

> <Gold.Chemscore.Metal>
0.0000

> <Gold.Chemscore.Lipo>
61.4583

> <Gold.Chemscore.Internal_Hbond>
0.0000

> <Gold.Chemscore.DEClash>
0.1192

> <Gold.Chemscore.DEInternal>
1.1895

> <Gold.Chemscore.Rot>
1.5550

> <Gold.Chemscore.Internal.Correction>
   9.000000E+99

> <Gold.Chemscore.Hbonds>
donor molecule, donor type, donor heavy atom, donor atom, acceptor molecule, acceptor atom, score
      L1  H     8    26       P1  7948  0.94
      L1  H    12    45       P1  7948  0.44
      P1  H  7997  8010       L1    21  0.90
      P1  H 10752 10764       L1     5  0.25

> <Gold.Chemscore.Hbond.Weighted>
-10.1208

> <Gold.Chemscore.Metal.Weighted>
-0.0000

> <Gold.Chemscore.Lipo.Weighted>
-7.1906

> <Gold.Chemscore.Internal_Hbond.Weighted>
0.0000

> <Gold.Chemscore.DEClash.Weighted>
0.1192

> <Gold.Chemscore.DEInternal.Weighted>
1.1895

> <Gold.Chemscore.Rot.Weighted>
3.9809

> <Gold.Chemscore.Internal.Correction.Weighted>
   9.000000E+99

> <Gold.Protein.RotatedTorsions>
[ 6907 6896 6895 6894 ] final  -14.34 input  -60.11 | X-H torsion
[ 7974 7965 7964 7962 ] final  -11.91 input  175.53 | X-H torsion
[ 8008 7997 7996 7995 ] final   96.66 input   59.86 | X-H torsion
[ 10167 10162 10161 10158 ] final  -18.59 input  -65.29 | X-H torsion
[ 10718 10713 10712 10709 ] final  156.22 input   66.30 | X-H torsion
[ 10763 10752 10751 10750 ] final  -75.40 input  -60.55 | X-H torsion
[ 11005 11000 10999 10996 ] final   64.29 input  -57.11 | X-H torsion

> <Gold.Protein.ActiveResidues>
 VAL166  LYS551  ARG553  GLY616  TRP617  ASP618  TYR619  PRO620  LYS621  CYS622 
 ASP623  PHE694  ASN695  SER759  ASP760  ASP761  ALA762  ILE779  LEU786  VAL792 
 PHE793  MET794  SER795  GLU796  ALA797  LYS798  CYS799  TRP800  GLU811  SER814 

> <Gold.Protein.RotatedAtoms>
  151.3409  135.0863  159.9370 H   0  0  0  0  0  0  0  0  0  0  0  0  # atno 6907 bound_to 6896
  152.5211  133.9448  159.7654 H   0  0  0  0  0  0  0  0  0  0  0  0  # atno 6908 bound_to 6896
  150.9805  133.6197  159.2753 H   0  0  0  0  0  0  0  0  0  0  0  0  # atno 6909 bound_to 6896
  146.2171  140.2980  142.8373 H   0  0  0  0  0  0  0  0  0  0  0  0  # atno 7974 bound_to 7965
  156.0819  140.3269  155.7705 H   0  0  0  0  0  0  0  0  0  0  0  0  # atno 8008 bound_to 7997
  155.5138  140.0579  157.2936 H   0  0  0  0  0  0  0  0  0  0  0  0  # atno 8009 bound_to 7997
  154.4587  140.1956  156.0322 H   0  0  0  0  0  0  0  0  0  0  0  0  # atno 8010 bound_to 7997
  140.7260  143.4901  151.0003 H   0  0  0  0  0  0  0  0  0  0  0  0  # atno 10167 bound_to 10162
  157.2079  131.0691  151.1987 H   0  0  0  0  0  0  0  0  0  0  0  0  # atno 10718 bound_to 10713
  154.4860  135.5832  153.6424 H   0  0  0  0  0  0  0  0  0  0  0  0  # atno 10763 bound_to 10752
  152.9855  135.6101  154.3186 H   0  0  0  0  0  0  0  0  0  0  0  0  # atno 10764 bound_to 10752
  154.3081  135.2845  155.2558 H   0  0  0  0  0  0  0  0  0  0  0  0  # atno 10765 bound_to 10752
  139.9969  134.6504  155.9996 H   0  0  0  0  0  0  0  0  0  0  0  0  # atno 11005 bound_to 11000
  144.9078  140.7721  143.5826 LP  0  0  0  0  0  0  0  0  0  0  0  0  # atno 17320 bound_to 7965
  145.2909  139.1884  143.4741 LP  0  0  0  0  0  0  0  0  0  0  0  0  # atno 17321 bound_to 7965
  139.8605  143.7321  152.3173 LP  0  0  0  0  0  0  0  0  0  0  0  0  # atno 17342 bound_to 10162
  139.7534  144.7527  151.0472 LP  0  0  0  0  0  0  0  0  0  0  0  0  # atno 17343 bound_to 10162
  157.3701  130.7177  149.6559 LP  0  0  0  0  0  0  0  0  0  0  0  0  # atno 17370 bound_to 10713
  155.9693  130.4201  150.4407 LP  0  0  0  0  0  0  0  0  0  0  0  0  # atno 17371 bound_to 10713
  141.1611  133.6539  156.4322 LP  0  0  0  0  0  0  0  0  0  0  0  0  # atno 17394 bound_to 11000
  140.4802  134.6672  157.5167 LP  0  0  0  0  0  0  0  0  0  0  0  0  # atno 17395 bound_to 11000

$$$$
