AV-unprocessed.smi:2001|AV-procd|sdf|8111|dock6
  -GOLD-   2272010343D 1   1.00000     0.00000
 Structure written by MMmdl.
 50 51  0  0  0  0  0  0  0  0  3 V2000
  143.6482  133.7412  163.0287 C   0  0  0  0  0  0  0  0  0  0  0  0
  144.7530  134.1425  162.2387 O   0  0  0  0  0  0  0  0  0  0  0  0
  145.9241  133.3941  162.5207 C   0  0  0  0  0  0  0  0  0  0  0  0
  147.1584  134.1319  161.9774 C   0  0  0  0  0  0  0  0  0  0  0  0
  146.8503  134.8743  160.7503 N   0  0  0  0  0  0  0  0  0  0  0  0
  146.4736  134.0678  159.6902 N   0  0  0  0  0  0  0  0  0  0  0  0
  146.1613  134.5877  158.5475 C   0  0  0  0  0  0  0  0  0  0  0  0
  145.7536  133.7120  157.4024 C   0  0  0  0  0  0  0  0  0  0  0  0
  145.4888  132.5402  157.7051 O   0  0  0  0  0  0  0  0  0  0  0  0
  145.7029  134.2422  156.1430 N   0  5  0  0  0  0  0  0  0  0  0  0
  146.0651  133.5335  154.9176 C   0  0  0  0  0  0  0  0  0  0  0  0
  145.0874  133.9130  153.7891 C   0  0  0  0  0  0  0  0  0  0  0  0
  145.1003  132.9149  152.6870 N   0  3  1  0  0  0  0  0  0  0  0  0
  144.5539  133.4440  151.4154 C   0  0  0  0  0  0  0  0  0  0  0  0
  144.4689  132.3245  150.3619 C   0  0  1  0  0  0  0  0  0  0  0  0
  143.9943  132.8490  149.0025 C   0  0  0  0  0  0  0  0  0  0  0  0
  145.7562  131.7394  150.1802 O   0  0  0  0  0  0  0  0  0  0  0  0
  146.3460  131.2052  151.3658 C   0  0  2  0  0  0  0  0  0  0  0  0
  145.6437  129.9207  151.8413 C   0  0  0  0  0  0  0  0  0  0  0  0
  146.4306  132.2948  152.4511 C   0  0  0  0  0  0  0  0  0  0  0  0
  146.2012  136.0328  158.3594 C   0  0  0  0  0  0  0  0  0  0  0  0
  146.5662  136.8074  159.4043 C   0  0  0  0  0  0  0  0  0  0  0  0
  146.9208  136.2386  160.7051 C   0  0  0  0  0  0  0  0  0  0  0  0
  147.2507  136.9263  161.6712 O   0  0  0  0  0  0  0  0  0  0  0  0
  142.7827  134.3578  162.7861 H   0  0  0  0  0  0  0  0  0  0  0  0
  143.8591  133.8596  164.0924 H   0  0  0  0  0  0  0  0  0  0  0  0
  143.3841  132.7003  162.8371 H   0  0  0  0  0  0  0  0  0  0  0  0
  146.0210  133.2714  163.6003 H   0  0  0  0  0  0  0  0  0  0  0  0
  145.8565  132.3949  162.0869 H   0  0  0  0  0  0  0  0  0  0  0  0
  147.5814  134.7794  162.7472 H   0  0  0  0  0  0  0  0  0  0  0  0
  147.9398  133.4017  161.7585 H   0  0  0  0  0  0  0  0  0  0  0  0
  147.0802  133.7663  154.5934 H   0  0  0  0  0  0  0  0  0  0  0  0
  146.0397  132.4525  155.0596 H   0  0  0  0  0  0  0  0  0  0  0  0
  144.0856  133.9745  154.2176 H   0  0  0  0  0  0  0  0  0  0  0  0
  145.3082  134.9068  153.3960 H   0  0  0  0  0  0  0  0  0  0  0  0
  143.5587  133.8569  151.5859 H   0  0  0  0  0  0  0  0  0  0  0  0
  145.1852  134.2600  151.0595 H   0  0  0  0  0  0  0  0  0  0  0  0
  143.7632  131.5628  150.6940 H   0  0  0  0  0  0  0  0  0  0  0  0
  143.0038  133.2981  149.0784 H   0  0  0  0  0  0  0  0  0  0  0  0
  143.9370  132.0414  148.2721 H   0  0  0  0  0  0  0  0  0  0  0  0
  144.6759  133.6045  148.6107 H   0  0  0  0  0  0  0  0  0  0  0  0
  147.3649  130.9256  151.0961 H   0  0  0  0  0  0  0  0  0  0  0  0
  146.1967  129.4601  152.6601 H   0  0  0  0  0  0  0  0  0  0  0  0
  145.5812  129.1902  151.0343 H   0  0  0  0  0  0  0  0  0  0  0  0
  144.6328  130.1098  152.2016 H   0  0  0  0  0  0  0  0  0  0  0  0
  147.1333  133.0687  152.1381 H   0  0  0  0  0  0  0  0  0  0  0  0
  146.8276  131.8685  153.3731 H   0  0  0  0  0  0  0  0  0  0  0  0
  145.9448  136.4910  157.4158 H   0  0  0  0  0  0  0  0  0  0  0  0
  146.5971  137.8798  159.2779 H   0  0  0  0  0  0  0  0  0  0  0  0
  144.4743  132.1767  152.9764 H   0  0  0  0  0  0  0  0  0  0  0  0
  1  2  1  0  0  0  0
  1 25  1  0  0  0  0
  1 26  1  0  0  0  0
  1 27  1  0  0  0  0
  2  3  1  0  0  0  0
  3  4  1  0  0  0  0
  3 28  1  0  0  0  0
  3 29  1  0  0  0  0
  4  5  1  0  0  0  0
  4 30  1  0  0  0  0
  4 31  1  0  0  0  0
  5 23  1  0  0  0  0
  5  6  1  0  0  0  0
  6  7  2  0  0  0  0
  7  8  1  0  0  0  0
  7 21  1  0  0  0  0
  8  9  2  0  0  0  0
  8 10  1  0  0  0  0
 10 11  1  0  0  0  0
 11 12  1  0  0  0  0
 11 32  1  0  0  0  0
 11 33  1  0  0  0  0
 12 13  1  0  0  0  0
 12 34  1  0  0  0  0
 12 35  1  0  0  0  0
 13 20  1  0  0  0  0
 13 14  1  0  0  0  0
 13 50  1  0  0  0  0
 14 15  1  0  0  0  0
 14 36  1  0  0  0  0
 14 37  1  0  0  0  0
 15 16  1  0  0  0  0
 15 17  1  0  0  0  0
 15 38  1  0  0  0  0
 16 39  1  0  0  0  0
 16 40  1  0  0  0  0
 16 41  1  0  0  0  0
 17 18  1  0  0  0  0
 18 19  1  0  0  0  0
 18 20  1  0  0  0  0
 18 42  1  0  0  0  0
 19 43  1  0  0  0  0
 19 44  1  0  0  0  0
 19 45  1  0  0  0  0
 20 46  1  0  0  0  0
 20 47  1  0  0  0  0
 21 22  2  0  0  0  0
 21 48  1  0  0  0  0
 22 23  1  0  0  0  0
 22 49  1  0  0  0  0
 23 24  2  0  0  0  0
M  CHG  1  10  -1
M  CHG  1  13   1
M  END
> <s_m_source_file>
AV-unprocessed.smi

> <i_m_source_file_index>
2001

> <i_lp_mmshare_version>
43012

> <i_f3d_flags>
0

> <s_epik_input>
W0NIM11PW0NIMl1bQ0gyXW4xbmMoW2NIXVtjSF1jMT1PKUMoPU8pW05IXVtDSDJdW0NIMl1OMltDSDJdW0NAQEhdKFtDSDNdKU9bQ0BASF0oW0NIM10pW0NIMl0y

> <s_epik_cmdline>
J2VwaWtfcHl0aG9uJywgJy1waCcsICc3LjAnLCAnLXRuJywgJzgnLCAnLW1hJywgJzIwMCcsICctbWV0YWxfYmluZGluZycsICctaW1hZScsICc8aW5maWxlLm1hZT4nLCAnLW9tYWUnLCAnPG91dGZpbGUubWFlPic=

> <r_lp_tautomer_probability>
1

> <r_epik_Ionization_Penalty>
6.90846

> <r_epik_Ionization_Penalty_Charging>
6.90846

> <r_epik_Ionization_Penalty_Neutral>
1.08445e-11

> <r_epik_State_Penalty>
7.54671

> <r_epik_Charging_Adjusted_Penalty>
14.4552

> <i_epik_Tot_Q>
0

> <i_epik_Tot_abs_Q>
2

> <r_epik_Metal_State_Penalty>
3.46181

> <b_epik_Metal_Only>
1

> <s_lp_Force_Field>
OPLS_2005

> <r_lp_Energy>
43.982

> <b_lp_Chiralities_Consistent>
1

> <s_lp_Variant>
AV-unprocessed.smi:2001-10

> <Gold.Version>
5.8.1

> <Gold.Id.Protein>
6NUR|6NUR_protein|mol2

> <Gold.PLP.Fitness>
36.8743

> <Gold.PLP.PLP>
-33.4023

> <Gold.PLP.part.hbond>
-2.0261

> <Gold.PLP.part.metal>
0.0000

> <Gold.PLP.part.buried>
-4.3750

> <Gold.PLP.part.nonpolar>
-27.3027

> <Gold.PLP.part.repulsive>
0.2261

> <Gold.PLP.ligand.clash>
0.0000

> <Gold.PLP.ligand.torsion>
1.0705

> <Gold.PLP.Chemscore.Hbond>
1.8080

> <Gold.PLP.Chemscore.CHOScore>
0.0000

> <Gold.PLP.Chemscore.Metal>
0.0000

> <Gold.Chemscore.Hbonds>
donor molecule, donor type, donor heavy atom, donor atom, acceptor molecule, acceptor atom, score
      P1  H  6931  6943       L1    24  0.50
      P1  H  6934  6947       L1    24  0.50

> <Gold.PLP.Chemscore.Internal.Correction>
0.1889

> <Gold.Rescore>
     Score         DG    S(hbond)    S(metal)    S(lipo)     H(rot)  DE(clash)    DE(int)     intcor
     14.49     -16.10       1.70        0.00      86.31       2.02       0.07       1.54       ----

> <Gold.Chemscore.Fitness>
14.4919

> <Gold.Chemscore.DG>
-16.1035

> <Gold.Chemscore.ZeroCoef>
-5.4800

> <Gold.Chemscore.Hbond>
1.7040

> <Gold.Chemscore.Metal>
0.0000

> <Gold.Chemscore.Lipo>
86.3090

> <Gold.Chemscore.Internal_Hbond>
0.0000

> <Gold.Chemscore.DEClash>
0.0683

> <Gold.Chemscore.DEInternal>
1.5434

> <Gold.Chemscore.Rot>
2.0179

> <Gold.Chemscore.Internal.Correction>
   9.000000E+99

> <Gold.Chemscore.Hbonds>
donor molecule, donor type, donor heavy atom, donor atom, acceptor molecule, acceptor atom, score
      P1  H  6931  6943       L1    24  0.47
      P1  H  6934  6947       L1    24  0.23

> <Gold.Chemscore.Hbond.Weighted>
-5.6912

> <Gold.Chemscore.Metal.Weighted>
-0.0000

> <Gold.Chemscore.Lipo.Weighted>
-10.0982

> <Gold.Chemscore.Internal_Hbond.Weighted>
0.0000

> <Gold.Chemscore.DEClash.Weighted>
0.0683

> <Gold.Chemscore.DEInternal.Weighted>
1.5434

> <Gold.Chemscore.Rot.Weighted>
5.1659

> <Gold.Chemscore.Internal.Correction.Weighted>
   9.000000E+99

> <Gold.Protein.RotatedTorsions>
[ 6907 6896 6895 6894 ] final -179.79 input  -60.11 | X-H torsion
[ 7974 7965 7964 7962 ] final  -37.17 input  175.53 | X-H torsion
[ 8008 7997 7996 7995 ] final   98.79 input   59.86 | X-H torsion
[ 10167 10162 10161 10158 ] final -111.87 input  -65.29 | X-H torsion
[ 10718 10713 10712 10709 ] final -147.54 input   66.30 | X-H torsion
[ 10763 10752 10751 10750 ] final  169.46 input  -60.55 | X-H torsion
[ 11005 11000 10999 10996 ] final   96.55 input  -57.11 | X-H torsion

> <Gold.Protein.ActiveResidues>
 VAL166  LYS551  ARG553  GLY616  TRP617  ASP618  TYR619  PRO620  LYS621  CYS622 
 ASP623  PHE694  ASN695  SER759  ASP760  ASP761  ALA762  ILE779  LEU786  VAL792 
 PHE793  MET794  SER795  GLU796  ALA797  LYS798  CYS799  TRP800  GLU811  SER814 

> <Gold.Protein.RotatedAtoms>
  151.6592  133.3317  159.3169 H   0  0  0  0  0  0  0  0  0  0  0  0  # atno 6907 bound_to 6896
  150.7922  134.6958  159.6532 H   0  0  0  0  0  0  0  0  0  0  0  0  # atno 6908 bound_to 6896
  152.4003  134.6300  160.0124 H   0  0  0  0  0  0  0  0  0  0  0  0  # atno 6909 bound_to 6896
  146.0598  140.6365  142.9002 H   0  0  0  0  0  0  0  0  0  0  0  0  # atno 7974 bound_to 7965
  156.1040  140.3238  155.7980 H   0  0  0  0  0  0  0  0  0  0  0  0  # atno 8008 bound_to 7997
  155.4788  140.0552  157.2987 H   0  0  0  0  0  0  0  0  0  0  0  0  # atno 8009 bound_to 7997
  154.4715  140.2013  155.9997 H   0  0  0  0  0  0  0  0  0  0  0  0  # atno 8010 bound_to 7997
  140.1289  143.4378  152.1641 H   0  0  0  0  0  0  0  0  0  0  0  0  # atno 10167 bound_to 10162
  156.4089  130.7971  151.2187 H   0  0  0  0  0  0  0  0  0  0  0  0  # atno 10718 bound_to 10713
  154.3835  135.2753  155.2197 H   0  0  0  0  0  0  0  0  0  0  0  0  # atno 10763 bound_to 10752
  154.4294  135.5981  153.6062 H   0  0  0  0  0  0  0  0  0  0  0  0  # atno 10764 bound_to 10752
  152.9834  135.5992  154.4081 H   0  0  0  0  0  0  0  0  0  0  0  0  # atno 10765 bound_to 10752
  139.8781  134.8956  156.4175 H   0  0  0  0  0  0  0  0  0  0  0  0  # atno 11005 bound_to 11000
  144.7168  140.4238  143.7038 LP  0  0  0  0  0  0  0  0  0  0  0  0  # atno 17320 bound_to 7965
  145.6580  139.1576  143.2824 LP  0  0  0  0  0  0  0  0  0  0  0  0  # atno 17321 bound_to 7965
  139.5530  144.7352  151.4379 LP  0  0  0  0  0  0  0  0  0  0  0  0  # atno 17342 bound_to 10162
  140.6828  143.8042  150.7145 LP  0  0  0  0  0  0  0  0  0  0  0  0  # atno 17343 bound_to 10162
  157.7506  131.0264  150.3959 LP  0  0  0  0  0  0  0  0  0  0  0  0  # atno 17370 bound_to 10713
  156.4254  130.3961  149.6797 LP  0  0  0  0  0  0  0  0  0  0  0  0  # atno 17371 bound_to 10713
  140.9157  133.7680  155.9845 LP  0  0  0  0  0  0  0  0  0  0  0  0  # atno 17394 bound_to 11000
  140.8496  134.2969  157.5280 LP  0  0  0  0  0  0  0  0  0  0  0  0  # atno 17395 bound_to 11000

$$$$
