AV-unprocessed.smi:1350|AV-procd|sdf|5521|dock3
  -GOLD-   22720 5113D 1   1.00000     0.00000
 Structure written by MMmdl.
 43 45  0  0  0  0  0  0  0  0  1 V2000
  144.5355  141.3602  158.1604 C   0  0  0  0  0  0  0  0  0  0  0  0
  145.4559  141.1480  157.1005 O   0  0  0  0  0  0  0  0  0  0  0  0
  145.4150  142.0009  156.0161 C   0  0  0  0  0  0  0  0  0  0  0  0
  144.5150  143.0923  155.9099 C   0  0  0  0  0  0  0  0  0  0  0  0
  144.5312  143.9265  154.7760 C   0  0  0  0  0  0  0  0  0  0  0  0
  145.4444  143.6839  153.7346 C   0  0  0  0  0  0  0  0  0  0  0  0
  146.3411  142.6044  153.8279 C   0  0  0  0  0  0  0  0  0  0  0  0
  146.3275  141.7628  154.9602 C   0  0  0  0  0  0  0  0  0  0  0  0
  147.3062  140.6051  155.0441 C   0  0  0  0  0  0  0  0  0  0  0  0
  148.4407  140.9420  155.8252 O   0  0  0  0  0  0  0  0  0  0  0  0
  149.2377  139.8176  156.1579 C   0  0  0  0  0  0  0  0  0  0  0  0
  150.7132  140.1661  155.9080 C   0  0  1  0  0  0  0  0  0  0  0  0
  150.9949  139.9660  154.5369 O   0  0  0  0  0  0  0  0  0  0  0  0
  151.0307  141.6277  156.2786 C   0  0  0  0  0  0  0  0  0  0  0  0
  151.5568  141.7579  157.6260 N   0  0  0  0  0  0  0  0  0  0  0  0
  152.0439  140.7704  158.4016 C   0  0  0  0  0  0  0  0  0  0  0  0
  152.4765  141.1037  159.6143 N   0  0  0  0  0  0  0  0  0  0  0  0
  152.2444  142.4684  159.6274 C   0  0  0  0  0  0  0  0  0  0  0  0
  152.4848  143.4291  160.6358 C   0  0  0  0  0  0  0  0  0  0  0  0
  152.1638  144.7857  160.4212 C   0  0  0  0  0  0  0  0  0  0  0  0
  151.5992  145.2021  159.1979 C   0  0  0  0  0  0  0  0  0  0  0  0
  151.3502  144.2632  158.1784 C   0  0  0  0  0  0  0  0  0  0  0  0
  151.6703  142.9101  158.3969 C   0  0  0  0  0  0  0  0  0  0  0  0
  144.6905  140.6012  158.9272 H   0  0  0  0  0  0  0  0  0  0  0  0
  143.5039  141.2745  157.8160 H   0  0  0  0  0  0  0  0  0  0  0  0
  144.6824  142.3349  158.6274 H   0  0  0  0  0  0  0  0  0  0  0  0
  143.8004  143.3135  156.6879 H   0  0  0  0  0  0  0  0  0  0  0  0
  143.8419  144.7550  154.7062 H   0  0  0  0  0  0  0  0  0  0  0  0
  145.4573  144.3250  152.8654 H   0  0  0  0  0  0  0  0  0  0  0  0
  147.0396  142.4247  153.0238 H   0  0  0  0  0  0  0  0  0  0  0  0
  146.8149  139.7290  155.4705 H   0  0  0  0  0  0  0  0  0  0  0  0
  147.6118  140.3390  154.0308 H   0  0  0  0  0  0  0  0  0  0  0  0
  149.0719  139.4996  157.1889 H   0  0  0  0  0  0  0  0  0  0  0  0
  148.9438  138.9880  155.5126 H   0  0  0  0  0  0  0  0  0  0  0  0
  151.3485  139.5054  156.4998 H   0  0  0  0  0  0  0  0  0  0  0  0
  150.5114  139.2095  154.2413 H   0  0  0  0  0  0  0  0  0  0  0  0
  151.7480  142.0552  155.5768 H   0  0  0  0  0  0  0  0  0  0  0  0
  150.1287  142.2372  156.2098 H   0  0  0  0  0  0  0  0  0  0  0  0
  152.0830  139.7481  158.0552 H   0  0  0  0  0  0  0  0  0  0  0  0
  152.9178  143.1215  161.5760 H   0  0  0  0  0  0  0  0  0  0  0  0
  152.3529  145.5109  161.1991 H   0  0  0  0  0  0  0  0  0  0  0  0
  151.3579  146.2435  159.0423 H   0  0  0  0  0  0  0  0  0  0  0  0
  150.9211  144.5782  157.2389 H   0  0  0  0  0  0  0  0  0  0  0  0
  1  2  1  0  0  0  0
  1 24  1  0  0  0  0
  1 25  1  0  0  0  0
  1 26  1  0  0  0  0
  2  3  1  0  0  0  0
  3  8  1  0  0  0  0
  3  4  2  0  0  0  0
  4  5  1  0  0  0  0
  4 27  1  0  0  0  0
  5  6  2  0  0  0  0
  5 28  1  0  0  0  0
  6  7  1  0  0  0  0
  6 29  1  0  0  0  0
  7  8  2  0  0  0  0
  7 30  1  0  0  0  0
  8  9  1  0  0  0  0
  9 10  1  0  0  0  0
  9 31  1  0  0  0  0
  9 32  1  0  0  0  0
 10 11  1  0  0  0  0
 11 12  1  0  0  0  0
 11 33  1  0  0  0  0
 11 34  1  0  0  0  0
 12 13  1  0  0  0  0
 12 14  1  0  0  0  0
 12 35  1  0  0  0  0
 13 36  1  0  0  0  0
 14 15  1  0  0  0  0
 14 37  1  0  0  0  0
 14 38  1  0  0  0  0
 15 23  1  0  0  0  0
 15 16  1  0  0  0  0
 16 17  2  0  0  0  0
 16 39  1  0  0  0  0
 17 18  1  0  0  0  0
 18 23  2  0  0  0  0
 18 19  1  0  0  0  0
 19 20  2  0  0  0  0
 19 40  1  0  0  0  0
 20 21  1  0  0  0  0
 20 41  1  0  0  0  0
 21 22  2  0  0  0  0
 21 42  1  0  0  0  0
 22 23  1  0  0  0  0
 22 43  1  0  0  0  0
M  END
> <s_m_source_file>
AV-unprocessed.smi

> <i_m_source_file_index>
1350

> <i_lp_mmshare_version>
43012

> <i_f3d_flags>
0

> <s_epik_input>
W0NIM11PYzFbY0hdW2NIXVtjSF1bY0hdYzFbQ0gyXU9bQ0gyXVtDQEhdKFtPSF0pW0NIMl1uKFtjSF1uMiljKGMyMylbY0hdW2NIXVtjSF1bY0hdMw==

> <s_epik_cmdline>
J2VwaWtfcHl0aG9uJywgJy1waCcsICc3LjAnLCAnLXRuJywgJzgnLCAnLW1hJywgJzIwMCcsICctbWV0YWxfYmluZGluZycsICctaW1hZScsICc8aW5maWxlLm1hZT4nLCAnLW9tYWUnLCAnPG91dGZpbGUubWFlPic=

> <r_lp_tautomer_probability>
1

> <r_epik_Ionization_Penalty>
0.0713119

> <r_epik_Ionization_Penalty_Charging>
0

> <r_epik_Ionization_Penalty_Neutral>
0.0713119

> <r_epik_State_Penalty>
0.06259

> <r_epik_Charging_Adjusted_Penalty>
0.06259

> <i_epik_Tot_Q>
0

> <i_epik_Tot_abs_Q>
0

> <r_epik_Metal_State_Penalty>
6.60119e-05

> <b_epik_Metal_Only>
0

> <s_lp_Force_Field>
OPLS_2005

> <r_lp_Energy>
19.121

> <b_lp_Chiralities_Consistent>
1

> <s_lp_Variant>
AV-unprocessed.smi:1350-2

> <Gold.Version>
5.8.1

> <Gold.Id.Protein>
6NUR|6NUR_protein|mol2

> <Gold.PLP.Fitness>
48.2126

> <Gold.PLP.PLP>
-48.1922

> <Gold.PLP.part.hbond>
-1.0000

> <Gold.PLP.part.metal>
0.0000

> <Gold.PLP.part.buried>
-9.1263

> <Gold.PLP.part.nonpolar>
-37.4245

> <Gold.PLP.part.repulsive>
0.0784

> <Gold.PLP.ligand.clash>
0.0000

> <Gold.PLP.ligand.torsion>
1.5842

> <Gold.PLP.Chemscore.Hbond>
1.0000

> <Gold.PLP.Chemscore.CHOScore>
0.0000

> <Gold.PLP.Chemscore.Metal>
0.0000

> <Gold.Chemscore.Hbonds>
donor molecule, donor type, donor heavy atom, donor atom, acceptor molecule, acceptor atom, score
      P1  H  7989  7998       L1    13  0.96

> <Gold.PLP.Chemscore.Internal.Correction>
0.1888

> <Gold.Rescore>
     Score         DG    S(hbond)    S(metal)    S(lipo)     H(rot)  DE(clash)    DE(int)     intcor
     14.99     -16.31       0.98        0.00     122.26       2.63       0.07       1.25       ----

> <Gold.Chemscore.Fitness>
14.9894

> <Gold.Chemscore.DG>
-16.3121

> <Gold.Chemscore.ZeroCoef>
-5.4800

> <Gold.Chemscore.Hbond>
0.9767

> <Gold.Chemscore.Metal>
0.0000

> <Gold.Chemscore.Lipo>
122.2629

> <Gold.Chemscore.Internal_Hbond>
0.0000

> <Gold.Chemscore.DEClash>
0.0702

> <Gold.Chemscore.DEInternal>
1.2526

> <Gold.Chemscore.Rot>
2.6308

> <Gold.Chemscore.Internal.Correction>
   9.000000E+99

> <Gold.Chemscore.Hbonds>
donor molecule, donor type, donor heavy atom, donor atom, acceptor molecule, acceptor atom, score
      P1  H  7989  7998       L1    13  0.87

> <Gold.Chemscore.Hbond.Weighted>
-3.2621

> <Gold.Chemscore.Metal.Weighted>
-0.0000

> <Gold.Chemscore.Lipo.Weighted>
-14.3048

> <Gold.Chemscore.Internal_Hbond.Weighted>
0.0000

> <Gold.Chemscore.DEClash.Weighted>
0.0702

> <Gold.Chemscore.DEInternal.Weighted>
1.2526

> <Gold.Chemscore.Rot.Weighted>
6.7347

> <Gold.Chemscore.Internal.Correction.Weighted>
   9.000000E+99

> <Gold.Protein.RotatedTorsions>
[ 6907 6896 6895 6894 ] final  133.95 input  -60.11 | X-H torsion
[ 7974 7965 7964 7962 ] final  175.65 input  175.53 | X-H torsion
[ 8008 7997 7996 7995 ] final   90.47 input   59.86 | X-H torsion
[ 10167 10162 10161 10158 ] final  133.21 input  -65.29 | X-H torsion
[ 10718 10713 10712 10709 ] final  137.98 input   66.30 | X-H torsion
[ 10763 10752 10751 10750 ] final -147.09 input  -60.55 | X-H torsion
[ 11005 11000 10999 10996 ] final  130.42 input  -57.11 | X-H torsion

> <Gold.Protein.ActiveResidues>
 VAL166  LYS551  ARG553  GLY616  TRP617  ASP618  TYR619  PRO620  LYS621  CYS622 
 ASP623  PHE694  ASN695  SER759  ASP760  ASP761  ALA762  ILE779  LEU786  VAL792 
 PHE793  MET794  SER795  GLU796  ALA797  LYS798  CYS799  TRP800  GLU811  SER814 

> <Gold.Protein.RotatedAtoms>
  152.3165  133.5807  159.5715 H   0  0  0  0  0  0  0  0  0  0  0  0  # atno 6907 bound_to 6896
  150.7349  134.0075  159.3667 H   0  0  0  0  0  0  0  0  0  0  0  0  # atno 6908 bound_to 6896
  151.7964  135.0722  160.0445 H   0  0  0  0  0  0  0  0  0  0  0  0  # atno 6909 bound_to 6896
  144.7198  139.9978  143.6440 H   0  0  0  0  0  0  0  0  0  0  0  0  # atno 7974 bound_to 7965
  156.0123  140.3349  155.6953 H   0  0  0  0  0  0  0  0  0  0  0  0  # atno 8008 bound_to 7997
  155.6140  140.0668  157.2715 H   0  0  0  0  0  0  0  0  0  0  0  0  # atno 8009 bound_to 7997
  154.4286  140.1788  156.1290 H   0  0  0  0  0  0  0  0  0  0  0  0  # atno 8010 bound_to 7997
  139.5306  144.6626  151.4963 H   0  0  0  0  0  0  0  0  0  0  0  0  # atno 10167 bound_to 10162
  157.4302  131.1048  151.0258 H   0  0  0  0  0  0  0  0  0  0  0  0  # atno 10718 bound_to 10713
  154.8304  135.3369  154.6763 H   0  0  0  0  0  0  0  0  0  0  0  0  # atno 10763 bound_to 10752
  153.7384  135.6947  153.4977 H   0  0  0  0  0  0  0  0  0  0  0  0  # atno 10764 bound_to 10752
  153.2262  135.4432  155.0496 H   0  0  0  0  0  0  0  0  0  0  0  0  # atno 10765 bound_to 10752
  139.9671  134.9587  156.9291 H   0  0  0  0  0  0  0  0  0  0  0  0  # atno 11005 bound_to 11000
  146.0360  139.3378  143.0726 LP  0  0  0  0  0  0  0  0  0  0  0  0  # atno 17320 bound_to 7965
  145.8394  140.9588  143.0807 LP  0  0  0  0  0  0  0  0  0  0  0  0  # atno 17321 bound_to 7965
  140.6482  143.8751  150.6758 LP  0  0  0  0  0  0  0  0  0  0  0  0  # atno 17342 bound_to 10162
  140.2107  143.3886  152.1720 LP  0  0  0  0  0  0  0  0  0  0  0  0  # atno 17343 bound_to 10162
  157.1157  130.6040  149.5493 LP  0  0  0  0  0  0  0  0  0  0  0  0  # atno 17370 bound_to 10713
  155.9910  130.4964  150.7283 LP  0  0  0  0  0  0  0  0  0  0  0  0  # atno 17371 bound_to 10713
  140.5373  134.0754  155.7332 LP  0  0  0  0  0  0  0  0  0  0  0  0  # atno 17394 bound_to 11000
  141.1351  133.9236  157.2452 LP  0  0  0  0  0  0  0  0  0  0  0  0  # atno 17395 bound_to 11000

$$$$
