AV-unprocessed.smi:2021|AV-procd|sdf|8180|dock2
  -GOLD-   2272010433D 1   1.00000     0.00000
 Structure written by MMmdl.
 41 42  0  0  0  0  0  0  0  0  1 V2000
  150.6698  143.4389  158.3780 C   0  0  0  0  0  0  0  0  0  0  0  0
  150.5430  142.0843  157.6633 C   0  0  0  0  0  0  0  0  0  0  0  0
  151.2598  140.9940  158.4782 C   0  0  0  0  0  0  0  0  0  0  0  0
  151.0820  142.1669  156.2158 C   0  0  0  0  0  0  0  0  0  0  0  0
  150.5800  141.1457  155.2951 N   0  0  0  0  0  0  0  0  0  0  0  0
  149.1242  141.1532  155.1770 C   0  0  0  0  0  0  0  0  0  0  0  0
  148.6187  140.0489  154.2334 C   0  0  0  0  0  0  0  0  0  0  0  0
  149.0938  138.7840  154.6806 O   0  0  0  0  0  0  0  0  0  0  0  0
  150.5165  138.7173  154.7457 C   0  0  2  0  0  0  0  0  0  0  0  0
  150.9194  137.3101  155.2192 C   0  0  0  0  0  0  0  0  0  0  0  0
  150.2177  136.2696  154.4752 N   0  0  0  0  0  0  0  0  0  0  0  0
  150.2140  134.9670  154.7913 C   0  0  0  0  0  0  0  0  0  0  0  0
  150.7890  134.5074  155.7779 O   0  0  0  0  0  0  0  0  0  0  0  0
  149.5133  134.2521  153.8966 N   0  0  0  0  0  0  0  0  0  0  0  0
  149.3078  132.8499  153.8699 C   0  0  0  0  0  0  0  0  0  0  0  0
  148.2811  132.3791  153.1520 N   0  0  0  0  0  0  0  0  0  0  0  0
  148.1987  130.9931  153.2087 N   0  0  0  0  0  0  0  0  0  0  0  0
  149.1672  130.4726  153.9684 C   0  0  0  0  0  0  0  0  0  0  0  0
  150.2774  131.6231  154.6914 S   0  0  0  0  0  0  0  0  0  0  0  0
  151.0161  139.8148  155.7054 C   0  0  0  0  0  0  0  0  0  0  0  0
  151.7107  143.7568  158.4459 H   0  0  0  0  0  0  0  0  0  0  0  0
  150.2698  143.3889  159.3912 H   0  0  0  0  0  0  0  0  0  0  0  0
  150.1177  144.2157  157.8481 H   0  0  0  0  0  0  0  0  0  0  0  0
  149.4790  141.8452  157.6312 H   0  0  0  0  0  0  0  0  0  0  0  0
  152.3237  141.2111  158.5775 H   0  0  0  0  0  0  0  0  0  0  0  0
  151.1670  140.0134  158.0136 H   0  0  0  0  0  0  0  0  0  0  0  0
  150.8431  140.9181  159.4829 H   0  0  0  0  0  0  0  0  0  0  0  0
  150.8054  143.1412  155.8106 H   0  0  0  0  0  0  0  0  0  0  0  0
  152.1732  142.1626  156.2205 H   0  0  0  0  0  0  0  0  0  0  0  0
  148.6717  141.0239  156.1613 H   0  0  0  0  0  0  0  0  0  0  0  0
  148.7828  142.1148  154.7956 H   0  0  0  0  0  0  0  0  0  0  0  0
  147.5290  140.0347  154.2152 H   0  0  0  0  0  0  0  0  0  0  0  0
  148.9542  140.2306  153.2112 H   0  0  0  0  0  0  0  0  0  0  0  0
  150.9294  138.8979  153.7514 H   0  0  0  0  0  0  0  0  0  0  0  0
  151.9973  137.1698  155.1209 H   0  0  0  0  0  0  0  0  0  0  0  0
  150.6879  137.1910  156.2779 H   0  0  0  0  0  0  0  0  0  0  0  0
  149.7218  136.5614  153.6459 H   0  0  0  0  0  0  0  0  0  0  0  0
  149.0895  134.7669  153.1390 H   0  0  0  0  0  0  0  0  0  0  0  0
  149.2288  129.4028  154.1031 H   0  0  0  0  0  0  0  0  0  0  0  0
  152.1054  139.7828  155.7494 H   0  0  0  0  0  0  0  0  0  0  0  0
  150.6580  139.6046  156.7148 H   0  0  0  0  0  0  0  0  0  0  0  0
  1  2  1  0  0  0  0
  1 21  1  0  0  0  0
  1 22  1  0  0  0  0
  1 23  1  0  0  0  0
  2  3  1  0  0  0  0
  2  4  1  0  0  0  0
  2 24  1  0  0  0  0
  3 25  1  0  0  0  0
  3 26  1  0  0  0  0
  3 27  1  0  0  0  0
  4  5  1  0  0  0  0
  4 28  1  0  0  0  0
  4 29  1  0  0  0  0
  5 20  1  0  0  0  0
  5  6  1  0  0  0  0
  6  7  1  0  0  0  0
  6 30  1  0  0  0  0
  6 31  1  0  0  0  0
  7  8  1  0  0  0  0
  7 32  1  0  0  0  0
  7 33  1  0  0  0  0
  8  9  1  0  0  0  0
  9 10  1  0  0  0  0
  9 20  1  0  0  0  0
  9 34  1  0  0  0  0
 10 11  1  0  0  0  0
 10 35  1  0  0  0  0
 10 36  1  0  0  0  0
 11 12  1  0  0  0  0
 11 37  1  0  0  0  0
 12 13  2  0  0  0  0
 12 14  1  0  0  0  0
 14 15  1  0  0  0  0
 14 38  1  0  0  0  0
 15 19  1  0  0  0  0
 15 16  2  0  0  0  0
 16 17  1  0  0  0  0
 17 18  2  0  0  0  0
 18 19  1  0  0  0  0
 18 39  1  0  0  0  0
 20 40  1  0  0  0  0
 20 41  1  0  0  0  0
M  END
> <s_m_source_file>
AV-unprocessed.smi

> <i_m_source_file_index>
2021

> <i_lp_mmshare_version>
43012

> <i_f3d_flags>
0

> <s_epik_input>
W0NIM11bQ0hdKFtDSDNdKVtDSDJdTjFbQ0gyXVtDSDJdT1tDQEhdKFtDSDJdMSlbQ0gyXVtOSF1DKD1PKVtOSF1jMm5uW2NIXXMy

> <s_epik_cmdline>
J2VwaWtfcHl0aG9uJywgJy1waCcsICc3LjAnLCAnLXRuJywgJzgnLCAnLW1hJywgJzIwMCcsICctbWV0YWxfYmluZGluZycsICctaW1hZScsICc8aW5maWxlLm1hZT4nLCAnLW9tYWUnLCAnPG91dGZpbGUubWFlPic=

> <r_lp_tautomer_probability>
1

> <r_epik_Ionization_Penalty>
1.11451

> <r_epik_Ionization_Penalty_Charging>
0

> <r_epik_Ionization_Penalty_Neutral>
1.11451

> <r_epik_State_Penalty>
1.17021

> <r_epik_Charging_Adjusted_Penalty>
1.17021

> <i_epik_Tot_Q>
0

> <i_epik_Tot_abs_Q>
0

> <r_epik_Metal_State_Penalty>
1.53642

> <b_epik_Metal_Only>
0

> <s_lp_Force_Field>
OPLS_2005

> <r_lp_Energy>
23.4775

> <b_lp_Chiralities_Consistent>
1

> <s_lp_Variant>
AV-unprocessed.smi:2021-6

> <Gold.Version>
5.8.1

> <Gold.Id.Protein>
6NUR|6NUR_protein|mol2

> <Gold.PLP.Fitness>
37.4831

> <Gold.PLP.PLP>
-31.7228

> <Gold.PLP.part.hbond>
-3.3863

> <Gold.PLP.part.metal>
0.0000

> <Gold.PLP.part.buried>
-4.8956

> <Gold.PLP.part.nonpolar>
-23.7400

> <Gold.PLP.part.repulsive>
0.5572

> <Gold.PLP.ligand.clash>
0.0000

> <Gold.PLP.ligand.torsion>
0.4077

> <Gold.PLP.Chemscore.Hbond>
2.1666

> <Gold.PLP.Chemscore.CHOScore>
0.0000

> <Gold.PLP.Chemscore.Metal>
0.0000

> <Gold.Chemscore.Hbonds>
donor molecule, donor type, donor heavy atom, donor atom, acceptor molecule, acceptor atom, score
      L1  H    11    37       P1  7948  1.00
      L1  H    14    38       P1  7948  0.65
      P1  H  7989  7998       L1     5  0.25

> <Gold.PLP.Chemscore.Internal.Correction>
0.0760

> <Gold.Rescore>
     Score         DG    S(hbond)    S(metal)    S(lipo)     H(rot)  DE(clash)    DE(int)     intcor
     12.84     -13.33       1.35        0.00      68.75       1.84       0.05       0.43       ----

> <Gold.Chemscore.Fitness>
12.8445

> <Gold.Chemscore.DG>
-13.3332

> <Gold.Chemscore.ZeroCoef>
-5.4800

> <Gold.Chemscore.Hbond>
1.3542

> <Gold.Chemscore.Metal>
0.0000

> <Gold.Chemscore.Lipo>
68.7536

> <Gold.Chemscore.Internal_Hbond>
0.0000

> <Gold.Chemscore.DEClash>
0.0544

> <Gold.Chemscore.DEInternal>
0.4343

> <Gold.Chemscore.Rot>
1.8413

> <Gold.Chemscore.Internal.Correction>
   9.000000E+99

> <Gold.Chemscore.Hbonds>
donor molecule, donor type, donor heavy atom, donor atom, acceptor molecule, acceptor atom, score
      L1  H    11    37       P1  7948  0.48
      L1  H    14    38       P1  7948  0.05
      P1  H  7989  7998       L1     5  0.01

> <Gold.Chemscore.Hbond.Weighted>
-4.5229

> <Gold.Chemscore.Metal.Weighted>
-0.0000

> <Gold.Chemscore.Lipo.Weighted>
-8.0442

> <Gold.Chemscore.Internal_Hbond.Weighted>
0.0000

> <Gold.Chemscore.DEClash.Weighted>
0.0544

> <Gold.Chemscore.DEInternal.Weighted>
0.4343

> <Gold.Chemscore.Rot.Weighted>
4.7138

> <Gold.Chemscore.Internal.Correction.Weighted>
   9.000000E+99

> <Gold.Protein.RotatedTorsions>
[ 6907 6896 6895 6894 ] final  -18.59 input  -60.11 | X-H torsion
[ 7974 7965 7964 7962 ] final  116.59 input  175.53 | X-H torsion
[ 8008 7997 7996 7995 ] final   73.55 input   59.86 | X-H torsion
[ 10167 10162 10161 10158 ] final  145.38 input  -65.29 | X-H torsion
[ 10718 10713 10712 10709 ] final  -85.79 input   66.30 | X-H torsion
[ 10763 10752 10751 10750 ] final   97.91 input  -60.55 | X-H torsion
[ 11005 11000 10999 10996 ] final   92.37 input  -57.11 | X-H torsion

> <Gold.Protein.ActiveResidues>
 VAL166  LYS551  ARG553  GLY616  TRP617  ASP618  TYR619  PRO620  LYS621  CYS622 
 ASP623  PHE694  ASN695  SER759  ASP760  ASP761  ALA762  ILE779  LEU786  VAL792 
 PHE793  MET794  SER795  GLU796  ALA797  LYS798  CYS799  TRP800  GLU811  SER814 

> <Gold.Protein.RotatedAtoms>
  151.2758  135.0699  159.9150 H   0  0  0  0  0  0  0  0  0  0  0  0  # atno 6907 bound_to 6896
  152.5343  134.0082  159.7936 H   0  0  0  0  0  0  0  0  0  0  0  0  # atno 6908 bound_to 6896
  151.0328  133.5725  159.2690 H   0  0  0  0  0  0  0  0  0  0  0  0  # atno 6909 bound_to 6896
  145.1778  139.3066  143.4434 H   0  0  0  0  0  0  0  0  0  0  0  0  # atno 7974 bound_to 7965
  155.7854  140.3481  155.5320 H   0  0  0  0  0  0  0  0  0  0  0  0  # atno 8008 bound_to 7997
  155.8687  140.0983  157.1585 H   0  0  0  0  0  0  0  0  0  0  0  0  # atno 8009 bound_to 7997
  154.4016  140.1344  156.4039 H   0  0  0  0  0  0  0  0  0  0  0  0  # atno 8010 bound_to 7997
  139.4927  144.5905  151.6690 H   0  0  0  0  0  0  0  0  0  0  0  0  # atno 10167 bound_to 10162
  155.9994  130.4743  150.4617 H   0  0  0  0  0  0  0  0  0  0  0  0  # atno 10718 bound_to 10713
  153.2827  135.4166  155.1093 H   0  0  0  0  0  0  0  0  0  0  0  0  # atno 10763 bound_to 10752
  154.8494  135.3499  154.6090 H   0  0  0  0  0  0  0  0  0  0  0  0  # atno 10764 bound_to 10752
  153.6511  135.7052  153.5266 H   0  0  0  0  0  0  0  0  0  0  0  0  # atno 10765 bound_to 10752
  139.8824  134.8729  156.3563 H   0  0  0  0  0  0  0  0  0  0  0  0  # atno 11005 bound_to 11000
  146.3458  140.1946  142.8589 LP  0  0  0  0  0  0  0  0  0  0  0  0  # atno 17320 bound_to 7965
  145.0167  140.8760  143.5191 LP  0  0  0  0  0  0  0  0  0  0  0  0  # atno 17321 bound_to 7965
  140.5531  144.0392  150.6136 LP  0  0  0  0  0  0  0  0  0  0  0  0  # atno 17342 bound_to 10162
  140.3453  143.2995  152.0545 LP  0  0  0  0  0  0  0  0  0  0  0  0  # atno 17343 bound_to 10162
  157.2640  131.0573  151.2302 LP  0  0  0  0  0  0  0  0  0  0  0  0  # atno 17370 bound_to 10713
  157.3406  130.7031  149.6379 LP  0  0  0  0  0  0  0  0  0  0  0  0  # atno 17371 bound_to 10713
  140.9560  133.7419  156.0336 LP  0  0  0  0  0  0  0  0  0  0  0  0  # atno 17394 bound_to 11000
  140.8048  134.3468  157.5429 LP  0  0  0  0  0  0  0  0  0  0  0  0  # atno 17395 bound_to 11000

$$$$
