AV-unprocessed.smi:1683|AV-procd|sdf|6752|dock5
  -GOLD-   22720 7513D 1   1.00000     0.00000
 Structure written by MMmdl.
 37 38  0  0  0  0  0  0  0  0  2 V2000
  146.5259  138.2011  154.9797 O   0  0  0  0  0  0  0  0  0  0  0  0
  145.7381  138.8599  154.3008 C   0  0  0  0  0  0  0  0  0  0  0  0
  144.5332  138.4129  153.9192 N   0  0  0  0  0  0  0  0  0  0  0  0
  143.9781  137.1035  154.2469 C   0  0  0  0  0  0  0  0  0  0  0  0
  143.8856  136.2141  152.9963 C   0  0  1  0  0  0  0  0  0  0  0  0
  144.9406  136.4962  151.9250 C   0  0  0  0  0  0  0  0  0  0  0  0
  145.0655  135.1784  151.1474 C   0  0  0  0  0  0  0  0  0  0  0  0
  144.4076  134.1308  151.9658 N   0  3  1  0  0  0  0  0  0  0  0  0
  145.1229  132.8337  152.0410 C   0  0  0  0  0  0  0  0  0  0  0  0
  145.2055  132.1247  150.6780 C   0  0  0  0  0  0  0  0  0  0  0  0
  145.5068  130.8417  150.8717 F   0  0  0  0  0  0  0  0  0  0  0  0
  144.0299  132.1986  150.0540 F   0  0  0  0  0  0  0  0  0  0  0  0
  146.1468  132.6690  149.9079 F   0  0  0  0  0  0  0  0  0  0  0  0
  144.1022  134.7289  153.2801 C   0  0  0  0  0  0  0  0  0  0  0  0
  145.9638  140.1042  153.8479 N   0  0  0  0  0  0  0  0  0  0  0  0
  147.1188  140.8999  154.0583 C   0  0  0  0  0  0  0  0  0  0  0  0
  148.3824  140.6704  153.4491 C   0  0  0  0  0  0  0  0  0  0  0  0
  149.2747  141.5732  153.8308 N   0  0  0  0  0  0  0  0  0  0  0  0
  148.5928  142.3767  154.6779 N   0  0  0  0  0  0  0  0  0  0  0  0
  147.2771  142.0053  154.8465 C   0  0  0  0  0  0  0  0  0  0  0  0
  149.0340  143.1660  155.1282 H   0  0  0  0  0  0  0  0  0  0  0  0
  143.9577  139.0246  153.3590 H   0  0  0  0  0  0  0  0  0  0  0  0
  144.6134  136.6373  155.0009 H   0  0  0  0  0  0  0  0  0  0  0  0
  142.9854  137.1977  154.6906 H   0  0  0  0  0  0  0  0  0  0  0  0
  142.8976  136.3327  152.5472 H   0  0  0  0  0  0  0  0  0  0  0  0
  144.6725  137.3361  151.2831 H   0  0  0  0  0  0  0  0  0  0  0  0
  145.8968  136.7317  152.3947 H   0  0  0  0  0  0  0  0  0  0  0  0
  144.5583  135.2408  150.1841 H   0  0  0  0  0  0  0  0  0  0  0  0
  146.1154  134.9530  150.9549 H   0  0  0  0  0  0  0  0  0  0  0  0
  146.1170  132.9752  152.4678 H   0  0  0  0  0  0  0  0  0  0  0  0
  144.5804  132.1851  152.7307 H   0  0  0  0  0  0  0  0  0  0  0  0
  144.9536  134.5951  153.9505 H   0  0  0  0  0  0  0  0  0  0  0  0
  143.2320  134.2595  153.7403 H   0  0  0  0  0  0  0  0  0  0  0  0
  145.2328  140.5291  153.2966 H   0  0  0  0  0  0  0  0  0  0  0  0
  148.6756  139.8952  152.7564 H   0  0  0  0  0  0  0  0  0  0  0  0
  146.6015  142.5473  155.4917 H   0  0  0  0  0  0  0  0  0  0  0  0
  143.5131  133.9518  151.5317 H   0  0  0  0  0  0  0  0  0  0  0  0
  1  2  2  0  0  0  0
  2  3  1  0  0  0  0
  2 15  1  0  0  0  0
  3  4  1  0  0  0  0
  3 22  1  0  0  0  0
  4  5  1  0  0  0  0
  4 23  1  0  0  0  0
  4 24  1  0  0  0  0
  5 14  1  0  0  0  0
  5  6  1  0  0  0  0
  5 25  1  0  0  0  0
  6  7  1  0  0  0  0
  6 26  1  0  0  0  0
  6 27  1  0  0  0  0
  7  8  1  0  0  0  0
  7 28  1  0  0  0  0
  7 29  1  0  0  0  0
  8  9  1  0  0  0  0
  8 14  1  0  0  0  0
  8 37  1  0  0  0  0
  9 10  1  0  0  0  0
  9 30  1  0  0  0  0
  9 31  1  0  0  0  0
 10 11  1  0  0  0  0
 10 12  1  0  0  0  0
 10 13  1  0  0  0  0
 14 32  1  0  0  0  0
 14 33  1  0  0  0  0
 15 16  1  0  0  0  0
 15 34  1  0  0  0  0
 16 20  2  0  0  0  0
 16 17  1  0  0  0  0
 17 18  2  0  0  0  0
 17 35  1  0  0  0  0
 18 19  1  0  0  0  0
 19 21  1  0  0  0  0
 19 20  1  0  0  0  0
 20 36  1  0  0  0  0
M  CHG  1   8   1
M  END
> <s_m_source_file>
AV-unprocessed.smi

> <i_m_source_file_index>
1683

> <i_lp_mmshare_version>
43012

> <i_f3d_flags>
0

> <s_epik_input>
W2NIXTFbbkhdbltjSF1jMVtOSF1DKD1PKVtOSF1bQ0gyXVtDQEBIXTJbQ0gyXVtDSDJdTihbQ0gyXTIpW0NIMl1DKEYpKEYpRg==

> <s_epik_cmdline>
J2VwaWtfcHl0aG9uJywgJy1waCcsICc3LjAnLCAnLXRuJywgJzgnLCAnLW1hJywgJzIwMCcsICctbWV0YWxfYmluZGluZycsICctaW1hZScsICc8aW5maWxlLm1hZT4nLCAnLW9tYWUnLCAnPG91dGZpbGUubWFlPic=

> <r_lp_tautomer_probability>
0.5

> <r_epik_Ionization_Penalty>
0.641865

> <r_epik_Ionization_Penalty_Charging>
0.64182

> <r_epik_Ionization_Penalty_Neutral>
4.50685e-05

> <r_epik_State_Penalty>
0.65957

> <r_epik_Charging_Adjusted_Penalty>
1.30139

> <i_epik_Tot_Q>
1

> <i_epik_Tot_abs_Q>
1

> <r_epik_Metal_State_Penalty>
0.659571

> <b_epik_Metal_Only>
0

> <s_lp_Force_Field>
OPLS_2005

> <r_lp_Energy>
31.2098

> <b_lp_Chiralities_Consistent>
1

> <s_lp_Variant>
AV-unprocessed.smi:1683-6

> <Gold.Version>
5.8.1

> <Gold.Id.Protein>
6NUR|6NUR_protein|mol2

> <Gold.PLP.Fitness>
43.2756

> <Gold.PLP.PLP>
-31.7672

> <Gold.PLP.part.hbond>
-4.9088

> <Gold.PLP.part.metal>
0.0000

> <Gold.PLP.part.buried>
-2.6814

> <Gold.PLP.part.nonpolar>
-25.6511

> <Gold.PLP.part.repulsive>
0.4465

> <Gold.PLP.ligand.clash>
0.0000

> <Gold.PLP.ligand.torsion>
1.3718

> <Gold.PLP.Chemscore.Hbond>
3.6800

> <Gold.PLP.Chemscore.CHOScore>
0.9170

> <Gold.PLP.Chemscore.Metal>
0.0000

> <Gold.Chemscore.Hbonds>
donor molecule, donor type, donor heavy atom, donor atom, acceptor molecule, acceptor atom, score
      L1  H     3    22       P1 10175  1.00
      L1  H    15    34       P1 10175  1.00
      L1  H    19    21       P1  8028  0.93
      P1  H  8011  8017       L1    18  0.70
      L1  C    17    35       P1  7957  0.55

> <Gold.PLP.Chemscore.Internal.Correction>
0.4608

> <Gold.Rescore>
     Score         DG    S(hbond)    S(metal)    S(lipo)     H(rot)  DE(clash)    DE(int)     intcor
     14.96     -16.76       3.03        0.00      49.64       1.81       0.34       1.47       ----

> <Gold.Chemscore.Fitness>
14.9582

> <Gold.Chemscore.DG>
-16.7646

> <Gold.Chemscore.ZeroCoef>
-5.4800

> <Gold.Chemscore.Hbond>
3.0282

> <Gold.Chemscore.Metal>
0.0000

> <Gold.Chemscore.Lipo>
49.6433

> <Gold.Chemscore.Internal_Hbond>
0.0000

> <Gold.Chemscore.DEClash>
0.3407

> <Gold.Chemscore.DEInternal>
1.4658

> <Gold.Chemscore.Rot>
1.8116

> <Gold.Chemscore.Internal.Correction>
   9.000000E+99

> <Gold.Chemscore.Hbonds>
donor molecule, donor type, donor heavy atom, donor atom, acceptor molecule, acceptor atom, score
      L1  H     3    22       P1 10175  0.98
      L1  H    15    34       P1 10175  0.93
      L1  H    19    21       P1  8028  0.89
      P1  H  7989  7998       L1    18  0.01
      P1  H  8011  8017       L1    18  0.33

> <Gold.Chemscore.Hbond.Weighted>
-10.1141

> <Gold.Chemscore.Metal.Weighted>
-0.0000

> <Gold.Chemscore.Lipo.Weighted>
-5.8083

> <Gold.Chemscore.Internal_Hbond.Weighted>
0.0000

> <Gold.Chemscore.DEClash.Weighted>
0.3407

> <Gold.Chemscore.DEInternal.Weighted>
1.4658

> <Gold.Chemscore.Rot.Weighted>
4.6378

> <Gold.Chemscore.Internal.Correction.Weighted>
   9.000000E+99

> <Gold.Protein.RotatedTorsions>
[ 6907 6896 6895 6894 ] final   12.70 input  -60.11 | X-H torsion
[ 7974 7965 7964 7962 ] final   58.67 input  175.53 | X-H torsion
[ 8008 7997 7996 7995 ] final -177.54 input   59.86 | X-H torsion
[ 10167 10162 10161 10158 ] final -127.96 input  -65.29 | X-H torsion
[ 10718 10713 10712 10709 ] final  100.16 input   66.30 | X-H torsion
[ 10763 10752 10751 10750 ] final   53.33 input  -60.55 | X-H torsion
[ 11005 11000 10999 10996 ] final -148.83 input  -57.11 | X-H torsion

> <Gold.Protein.ActiveResidues>
 VAL166  LYS551  ARG553  GLY616  TRP617  ASP618  TYR619  PRO620  LYS621  CYS622 
 ASP623  PHE694  ASN695  SER759  ASP760  ASP761  ALA762  ILE779  LEU786  VAL792 
 PHE793  MET794  SER795  GLU796  ALA797  LYS798  CYS799  TRP800  GLU811  SER814 

> <Gold.Protein.RotatedAtoms>
  151.7746  135.0777  160.0364 H   0  0  0  0  0  0  0  0  0  0  0  0  # atno 6907 bound_to 6896
  152.3265  133.5906  159.5788 H   0  0  0  0  0  0  0  0  0  0  0  0  # atno 6908 bound_to 6896
  150.7398  133.9849  159.3630 H   0  0  0  0  0  0  0  0  0  0  0  0  # atno 6909 bound_to 6896
  145.9156  139.3688  143.0509 H   0  0  0  0  0  0  0  0  0  0  0  0  # atno 7974 bound_to 7965
  156.0082  140.1235  157.0480 H   0  0  0  0  0  0  0  0  0  0  0  0  # atno 8008 bound_to 7997
  154.4266  140.1093  156.5861 H   0  0  0  0  0  0  0  0  0  0  0  0  # atno 8009 bound_to 7997
  155.6118  140.3471  155.4627 H   0  0  0  0  0  0  0  0  0  0  0  0  # atno 8010 bound_to 7997
  139.9553  143.6010  152.2462 H   0  0  0  0  0  0  0  0  0  0  0  0  # atno 10167 bound_to 10162
  157.6860  131.0690  150.5059 H   0  0  0  0  0  0  0  0  0  0  0  0  # atno 10718 bound_to 10713
  152.9794  135.5782  154.4723 H   0  0  0  0  0  0  0  0  0  0  0  0  # atno 10763 bound_to 10752
  154.4284  135.2773  155.1931 H   0  0  0  0  0  0  0  0  0  0  0  0  # atno 10764 bound_to 10752
  154.3650  135.6180  153.5764 H   0  0  0  0  0  0  0  0  0  0  0  0  # atno 10765 bound_to 10752
  140.7571  134.3341  157.5111 H   0  0  0  0  0  0  0  0  0  0  0  0  # atno 11005 bound_to 11000
  145.8615  140.9472  143.0697 LP  0  0  0  0  0  0  0  0  0  0  0  0  # atno 17320 bound_to 7965
  144.6747  140.0537  143.7478 LP  0  0  0  0  0  0  0  0  0  0  0  0  # atno 17321 bound_to 7965
  139.6596  144.7662  151.1989 LP  0  0  0  0  0  0  0  0  0  0  0  0  # atno 17342 bound_to 10162
  140.7570  143.6031  150.8679 LP  0  0  0  0  0  0  0  0  0  0  0  0  # atno 17343 bound_to 10162
  156.5378  130.4200  149.6169 LP  0  0  0  0  0  0  0  0  0  0  0  0  # atno 17370 bound_to 10713
  156.3012  130.7178  151.2050 LP  0  0  0  0  0  0  0  0  0  0  0  0  # atno 17371 bound_to 10713
  139.8777  134.9178  156.3188 LP  0  0  0  0  0  0  0  0  0  0  0  0  # atno 17394 bound_to 11000
  140.9697  133.7335  156.0518 LP  0  0  0  0  0  0  0  0  0  0  0  0  # atno 17395 bound_to 11000

$$$$
