AV-unprocessed.smi:3116|AV-procd|sdf|11873|dock7
  -GOLD-   2272017253D 1   1.00000     0.00000
 Structure written by MMmdl.
 33 33  0  0  0  0  0  0  0  0  1 V2000
  151.8632  139.0584  156.5552 C   0  0  0  0  0  0  0  0  0  0  0  0
  151.2473  140.3363  157.1615 C   0  0  1  0  0  0  0  0  0  0  0  0
  152.2672  141.1454  157.8468 N   0  0  0  0  0  0  0  0  0  0  0  0
  152.3776  140.8709  159.2791 C   0  0  1  0  0  0  0  0  0  0  0  0
  153.0820  139.5100  159.4165 C   0  0  0  0  0  0  0  0  0  0  0  0
  153.1503  142.0318  159.9634 C   0  0  2  0  0  0  0  0  0  0  0  0
  153.4285  141.7735  161.4567 C   0  0  0  0  0  0  0  0  0  0  0  0
  152.4608  143.3080  159.7991 N   0  0  0  0  0  0  0  0  0  0  0  0
  152.8277  144.3770  159.0079 C   0  0  0  0  0  0  0  0  0  0  0  0
  151.8732  145.3423  159.1548 C   0  0  0  0  0  0  0  0  0  0  0  0
  150.9480  144.7658  160.0685 C   0  0  0  0  0  0  0  0  0  0  0  0
  151.3002  143.5496  160.4507 N   0  0  0  0  0  0  0  0  0  0  0  0
  150.5355  141.1905  156.1038 C   0  0  0  0  0  0  0  0  0  0  0  0
  150.0613  142.3712  156.5099 N   0  0  0  0  0  0  0  0  0  0  0  0
  150.4218  140.8090  154.9398 O   0  0  0  0  0  0  0  0  0  0  0  0
  151.1164  138.4805  156.0091 H   0  0  0  0  0  0  0  0  0  0  0  0
  152.2685  138.4047  157.3274 H   0  0  0  0  0  0  0  0  0  0  0  0
  152.6743  139.2920  155.8643 H   0  0  0  0  0  0  0  0  0  0  0  0
  150.4802  140.0431  157.8804 H   0  0  0  0  0  0  0  0  0  0  0  0
  153.1715  141.0545  157.4067 H   0  0  0  0  0  0  0  0  0  0  0  0
  151.3913  140.7865  159.7388 H   0  0  0  0  0  0  0  0  0  0  0  0
  153.1189  139.1823  160.4551 H   0  0  0  0  0  0  0  0  0  0  0  0
  154.1056  139.5496  159.0418 H   0  0  0  0  0  0  0  0  0  0  0  0
  152.5541  138.7346  158.8601 H   0  0  0  0  0  0  0  0  0  0  0  0
  154.1184  142.1319  159.4695 H   0  0  0  0  0  0  0  0  0  0  0  0
  154.0982  140.9261  161.5997 H   0  0  0  0  0  0  0  0  0  0  0  0
  152.5093  141.5688  162.0062 H   0  0  0  0  0  0  0  0  0  0  0  0
  153.9063  142.6377  161.9195 H   0  0  0  0  0  0  0  0  0  0  0  0
  153.7260  144.3603  158.4085 H   0  0  0  0  0  0  0  0  0  0  0  0
  151.8404  146.3119  158.6808 H   0  0  0  0  0  0  0  0  0  0  0  0
  150.0365  145.1913  160.4615 H   0  0  0  0  0  0  0  0  0  0  0  0
  149.5805  142.9695  155.8534 H   0  0  0  0  0  0  0  0  0  0  0  0
  150.1817  142.6574  157.4705 H   0  0  0  0  0  0  0  0  0  0  0  0
  1  2  1  0  0  0  0
  1 16  1  0  0  0  0
  1 17  1  0  0  0  0
  1 18  1  0  0  0  0
  2  3  1  0  0  0  0
  2 13  1  0  0  0  0
  2 19  1  0  0  0  0
  3  4  1  0  0  0  0
  3 20  1  0  0  0  0
  4  5  1  0  0  0  0
  4  6  1  0  0  0  0
  4 21  1  0  0  0  0
  5 22  1  0  0  0  0
  5 23  1  0  0  0  0
  5 24  1  0  0  0  0
  6  7  1  0  0  0  0
  6  8  1  0  0  0  0
  6 25  1  0  0  0  0
  7 26  1  0  0  0  0
  7 27  1  0  0  0  0
  7 28  1  0  0  0  0
  8 12  1  0  0  0  0
  8  9  1  0  0  0  0
  9 10  2  0  0  0  0
  9 29  1  0  0  0  0
 10 11  1  0  0  0  0
 10 30  1  0  0  0  0
 11 12  2  0  0  0  0
 11 31  1  0  0  0  0
 13 14  1  0  0  0  0
 13 15  2  0  0  0  0
 14 32  1  0  0  0  0
 14 33  1  0  0  0  0
M  END
> <s_m_source_file>
AV-unprocessed.smi

> <i_m_source_file_index>
3116

> <i_lp_mmshare_version>
43012

> <i_f3d_flags>
0

> <s_epik_input>
W05IMl1DKD1PKVtDQEhdKFtDSDNdKVtOSF1bQ0BIXShbQ0gzXSlbQ0BIXShbQ0gzXSluMVtjSF1bY0hdW2NIXW4x

> <s_epik_cmdline>
J2VwaWtfcHl0aG9uJywgJy1waCcsICc3LjAnLCAnLXRuJywgJzgnLCAnLW1hJywgJzIwMCcsICctbWV0YWxfYmluZGluZycsICctaW1hZScsICc8aW5maWxlLm1hZT4nLCAnLW9tYWUnLCAnPG91dGZpbGUubWFlPic=

> <r_lp_tautomer_probability>
1

> <r_epik_Ionization_Penalty>
0.865977

> <r_epik_Ionization_Penalty_Charging>
0

> <r_epik_Ionization_Penalty_Neutral>
0.865977

> <r_epik_State_Penalty>
0.901888

> <r_epik_Charging_Adjusted_Penalty>
0.901888

> <i_epik_Tot_Q>
0

> <i_epik_Tot_abs_Q>
0

> <r_epik_Metal_State_Penalty>
0.901181

> <b_epik_Metal_Only>
0

> <s_lp_Force_Field>
OPLS_2005

> <r_lp_Energy>
8.51746

> <b_lp_Chiralities_Consistent>
1

> <s_lp_Variant>
AV-unprocessed.smi:3116-12

> <Gold.Version>
5.8.1

> <Gold.Id.Protein>
6NUR|6NUR_protein|mol2

> <Gold.PLP.Fitness>
40.6776

> <Gold.PLP.PLP>
-37.1619

> <Gold.PLP.part.hbond>
-2.4969

> <Gold.PLP.part.metal>
0.0000

> <Gold.PLP.part.buried>
-4.3533

> <Gold.PLP.part.nonpolar>
-29.6910

> <Gold.PLP.part.repulsive>
0.2369

> <Gold.PLP.ligand.clash>
0.0000

> <Gold.PLP.ligand.torsion>
0.8372

> <Gold.PLP.Chemscore.Hbond>
1.6960

> <Gold.PLP.Chemscore.CHOScore>
0.0000

> <Gold.PLP.Chemscore.Metal>
0.0000

> <Gold.Chemscore.Hbonds>
donor molecule, donor type, donor heavy atom, donor atom, acceptor molecule, acceptor atom, score
      L1  H    14    32       P1  8028  0.85
      P1  H  7989  7998       L1    15  0.82

> <Gold.PLP.Chemscore.Internal.Correction>
0.1021

> <Gold.Rescore>
     Score         DG    S(hbond)    S(metal)    S(lipo)     H(rot)  DE(clash)    DE(int)     intcor
     13.92     -14.72       1.68        0.00      83.08       2.38       0.08       0.71       ----

> <Gold.Chemscore.Fitness>
13.9205

> <Gold.Chemscore.DG>
-14.7156

> <Gold.Chemscore.ZeroCoef>
-5.4800

> <Gold.Chemscore.Hbond>
1.6818

> <Gold.Chemscore.Metal>
0.0000

> <Gold.Chemscore.Lipo>
83.0805

> <Gold.Chemscore.Internal_Hbond>
0.0000

> <Gold.Chemscore.DEClash>
0.0836

> <Gold.Chemscore.DEInternal>
0.7115

> <Gold.Chemscore.Rot>
2.3836

> <Gold.Chemscore.Internal.Correction>
   9.000000E+99

> <Gold.Chemscore.Hbonds>
donor molecule, donor type, donor heavy atom, donor atom, acceptor molecule, acceptor atom, score
      L1  H    14    32       P1  8028  0.83
      P1  H  7989  7998       L1    15  0.81

> <Gold.Chemscore.Hbond.Weighted>
-5.6172

> <Gold.Chemscore.Metal.Weighted>
-0.0000

> <Gold.Chemscore.Lipo.Weighted>
-9.7204

> <Gold.Chemscore.Internal_Hbond.Weighted>
0.0000

> <Gold.Chemscore.DEClash.Weighted>
0.0836

> <Gold.Chemscore.DEInternal.Weighted>
0.7115

> <Gold.Chemscore.Rot.Weighted>
6.1020

> <Gold.Chemscore.Internal.Correction.Weighted>
   9.000000E+99

> <Gold.Protein.RotatedTorsions>
[ 6907 6896 6895 6894 ] final   57.24 input  -60.11 | X-H torsion
[ 7974 7965 7964 7962 ] final   69.32 input  175.53 | X-H torsion
[ 8008 7997 7996 7995 ] final   85.75 input   59.86 | X-H torsion
[ 10167 10162 10161 10158 ] final   46.98 input  -65.29 | X-H torsion
[ 10718 10713 10712 10709 ] final -155.31 input   66.30 | X-H torsion
[ 10763 10752 10751 10750 ] final  174.21 input  -60.55 | X-H torsion
[ 11005 11000 10999 10996 ] final -141.82 input  -57.11 | X-H torsion

> <Gold.Protein.ActiveResidues>
 VAL166  LYS551  ARG553  GLY616  TRP617  ASP618  TYR619  PRO620  LYS621  CYS622 
 ASP623  PHE694  ASN695  SER759  ASP760  ASP761  ALA762  ILE779  LEU786  VAL792 
 PHE793  MET794  SER795  GLU796  ALA797  LYS798  CYS799  TRP800  GLU811  SER814 

> <Gold.Protein.RotatedAtoms>
  152.3713  134.6730  160.0174 H   0  0  0  0  0  0  0  0  0  0  0  0  # atno 6907 bound_to 6896
  151.7022  133.3306  159.3277 H   0  0  0  0  0  0  0  0  0  0  0  0  # atno 6908 bound_to 6896
  150.7675  134.6540  159.6348 H   0  0  0  0  0  0  0  0  0  0  0  0  # atno 6909 bound_to 6896
  145.7919  139.2938  143.1205 H   0  0  0  0  0  0  0  0  0  0  0  0  # atno 7974 bound_to 7965
  155.9541  140.3398  155.6433 H   0  0  0  0  0  0  0  0  0  0  0  0  # atno 8008 bound_to 7997
  155.6883  140.0746  157.2476 H   0  0  0  0  0  0  0  0  0  0  0  0  # atno 8009 bound_to 7997
  154.4128  140.1662  156.2045 H   0  0  0  0  0  0  0  0  0  0  0  0  # atno 8010 bound_to 7997
  140.3083  144.2851  150.6205 H   0  0  0  0  0  0  0  0  0  0  0  0  # atno 10167 bound_to 10162
  156.5111  130.8435  151.2647 H   0  0  0  0  0  0  0  0  0  0  0  0  # atno 10718 bound_to 10713
  154.4508  135.2764  155.1782 H   0  0  0  0  0  0  0  0  0  0  0  0  # atno 10763 bound_to 10752
  154.3610  135.6129  153.5694 H   0  0  0  0  0  0  0  0  0  0  0  0  # atno 10764 bound_to 10752
  152.9847  135.5834  154.4852 H   0  0  0  0  0  0  0  0  0  0  0  0  # atno 10765 bound_to 10752
  140.8287  134.2543  157.4867 H   0  0  0  0  0  0  0  0  0  0  0  0  # atno 11005 bound_to 11000
  145.9968  140.8555  143.0038 LP  0  0  0  0  0  0  0  0  0  0  0  0  # atno 17320 bound_to 7965
  144.6780  140.2295  143.7357 LP  0  0  0  0  0  0  0  0  0  0  0  0  # atno 17321 bound_to 7965
  140.5591  143.2195  151.7797 LP  0  0  0  0  0  0  0  0  0  0  0  0  # atno 17342 bound_to 10162
  139.4899  144.4374  151.9804 LP  0  0  0  0  0  0  0  0  0  0  0  0  # atno 17343 bound_to 10162
  157.7450  130.9949  150.2725 LP  0  0  0  0  0  0  0  0  0  0  0  0  # atno 17370 bound_to 10713
  156.3239  130.3790  149.7550 LP  0  0  0  0  0  0  0  0  0  0  0  0  # atno 17371 bound_to 10713
  139.8705  134.9574  156.4268 LP  0  0  0  0  0  0  0  0  0  0  0  0  # atno 17394 bound_to 11000
  140.9022  133.7771  155.9693 LP  0  0  0  0  0  0  0  0  0  0  0  0  # atno 17395 bound_to 11000

$$$$
