AV-unprocessed.smi:3148|AV-procd|sdf|11993|dock9
  -GOLD-   2272017403D 1   1.00000     0.00000
 Structure written by MMmdl.
 34 36  0  0  0  0  0  0  0  0  1 V2000
  152.8591  138.5880  155.2299 C   0  0  0  0  0  0  0  0  0  0  0  0
  151.4650  138.4484  154.9794 O   0  0  0  0  0  0  0  0  0  0  0  0
  150.6772  139.5789  155.0432 C   0  0  0  0  0  0  0  0  0  0  0  0
  149.5158  139.6612  154.2486 C   0  0  0  0  0  0  0  0  0  0  0  0
  148.7597  140.8465  154.3632 C   0  0  0  0  0  0  0  0  0  0  0  0
  147.4960  141.0604  153.5577 C   0  0  0  0  0  0  0  0  0  0  0  0
  149.1282  141.8498  155.1900 N   0  0  0  0  0  0  0  0  0  0  0  0
  150.2458  141.6719  155.8975 C   0  0  0  0  0  0  0  0  0  0  0  0
  150.5982  142.7205  156.7268 N   0  0  0  0  0  0  0  0  0  0  0  0
  151.7390  142.7006  157.6353 C   0  0  2  0  0  0  0  0  0  0  0  0
  151.4246  142.0481  158.9832 C   0  0  0  0  0  0  0  0  0  0  0  0
  151.8649  143.1387  159.9702 C   0  0  2  0  0  0  0  0  0  0  0  0
  150.8628  144.2998  160.0104 C   0  0  0  0  0  0  0  0  0  0  0  0
  151.1262  144.9834  158.6701 C   0  0  0  0  0  0  0  0  0  0  0  0
  152.2304  144.0953  158.0713 C   0  0  1  0  0  0  0  0  0  0  0  0
  152.9293  143.7412  159.2527 O   0  0  0  0  0  0  0  0  0  0  0  0
  151.0363  140.5933  155.8687 N   0  0  0  0  0  0  0  0  0  0  0  0
  153.3415  137.6152  155.1360 H   0  0  0  0  0  0  0  0  0  0  0  0
  153.0487  138.9552  156.2396 H   0  0  0  0  0  0  0  0  0  0  0  0
  153.3281  139.2613  154.5108 H   0  0  0  0  0  0  0  0  0  0  0  0
  149.2255  138.8579  153.5876 H   0  0  0  0  0  0  0  0  0  0  0  0
  147.2013  140.1477  153.0391 H   0  0  0  0  0  0  0  0  0  0  0  0
  147.6513  141.8415  152.8132 H   0  0  0  0  0  0  0  0  0  0  0  0
  146.6746  141.3628  154.2079 H   0  0  0  0  0  0  0  0  0  0  0  0
  150.1471  143.6075  156.5563 H   0  0  0  0  0  0  0  0  0  0  0  0
  152.5597  142.1568  157.1651 H   0  0  0  0  0  0  0  0  0  0  0  0
  150.3741  141.7829  159.1109 H   0  0  0  0  0  0  0  0  0  0  0  0
  152.0192  141.1431  159.1114 H   0  0  0  0  0  0  0  0  0  0  0  0
  152.1420  142.7598  160.9542 H   0  0  0  0  0  0  0  0  0  0  0  0
  149.8329  143.9573  160.1170 H   0  0  0  0  0  0  0  0  0  0  0  0
  151.0850  144.9777  160.8353 H   0  0  0  0  0  0  0  0  0  0  0  0
  150.2376  145.0459  158.0414 H   0  0  0  0  0  0  0  0  0  0  0  0
  151.4954  145.9969  158.8290 H   0  0  0  0  0  0  0  0  0  0  0  0
  152.8459  144.6006  157.3266 H   0  0  0  0  0  0  0  0  0  0  0  0
  1  2  1  0  0  0  0
  1 18  1  0  0  0  0
  1 19  1  0  0  0  0
  1 20  1  0  0  0  0
  2  3  1  0  0  0  0
  3 17  1  0  0  0  0
  3  4  2  0  0  0  0
  4  5  1  0  0  0  0
  4 21  1  0  0  0  0
  5  6  1  0  0  0  0
  5  7  2  0  0  0  0
  6 22  1  0  0  0  0
  6 23  1  0  0  0  0
  6 24  1  0  0  0  0
  7  8  1  0  0  0  0
  8  9  1  0  0  0  0
  8 17  2  0  0  0  0
  9 10  1  0  0  0  0
  9 25  1  0  0  0  0
 10 15  1  0  0  0  0
 10 11  1  0  0  0  0
 10 26  1  0  0  0  0
 11 12  1  0  0  0  0
 11 27  1  0  0  0  0
 11 28  1  0  0  0  0
 12 16  1  0  0  0  0
 12 13  1  0  0  0  0
 12 29  1  0  0  0  0
 13 14  1  0  0  0  0
 13 30  1  0  0  0  0
 13 31  1  0  0  0  0
 14 15  1  0  0  0  0
 14 32  1  0  0  0  0
 14 33  1  0  0  0  0
 15 16  1  0  0  0  0
 15 34  1  0  0  0  0
M  END
> <s_m_source_file>
AV-unprocessed.smi

> <i_m_source_file_index>
3148

> <i_lp_mmshare_version>
43012

> <i_f3d_flags>
0

> <s_epik_input>
W0NIM11PYzFbY0hdYyhbQ0gzXSluYyhuMSlbTkhdW0NASF0oW0NIMl1bQ0BASF0yMylbQ0BASF0oTzMpW0NIMl1bQ0gyXTI=

> <s_epik_cmdline>
J2VwaWtfcHl0aG9uJywgJy1waCcsICc3LjAnLCAnLXRuJywgJzgnLCAnLW1hJywgJzIwMCcsICctbWV0YWxfYmluZGluZycsICctaW1hZScsICc8aW5maWxlLm1hZT4nLCAnLW9tYWUnLCAnPG91dGZpbGUubWFlPic=

> <r_lp_tautomer_probability>
1

> <r_epik_Ionization_Penalty>
0.101645

> <r_epik_Ionization_Penalty_Charging>
0

> <r_epik_Ionization_Penalty_Neutral>
0.101645

> <r_epik_State_Penalty>
0.0916212

> <r_epik_Charging_Adjusted_Penalty>
0.0916212

> <i_epik_Tot_Q>
0

> <i_epik_Tot_abs_Q>
0

> <r_epik_Metal_State_Penalty>
0.0781

> <b_epik_Metal_Only>
0

> <s_lp_Force_Field>
OPLS_2005

> <r_lp_Energy>
31.5885

> <b_lp_Chiralities_Consistent>
1

> <s_lp_Variant>
AV-unprocessed.smi:3148-3

> <Gold.Version>
5.8.1

> <Gold.Id.Protein>
6NUR|6NUR_protein|mol2

> <Gold.PLP.Fitness>
38.6337

> <Gold.PLP.PLP>
-37.0208

> <Gold.PLP.part.hbond>
-1.3074

> <Gold.PLP.part.metal>
0.0000

> <Gold.PLP.part.buried>
-5.9786

> <Gold.PLP.part.nonpolar>
-30.9833

> <Gold.PLP.part.repulsive>
1.6009

> <Gold.PLP.ligand.clash>
0.0000

> <Gold.PLP.ligand.torsion>
0.6985

> <Gold.PLP.Chemscore.Hbond>
1.0000

> <Gold.PLP.Chemscore.CHOScore>
0.0000

> <Gold.PLP.Chemscore.Metal>
0.0000

> <Gold.Chemscore.Hbonds>
donor molecule, donor type, donor heavy atom, donor atom, acceptor molecule, acceptor atom, score
      L1  H     9    25       P1  8028  1.00

> <Gold.PLP.Chemscore.Internal.Correction>
0.0100

> <Gold.Rescore>
     Score         DG    S(hbond)    S(metal)    S(lipo)     H(rot)  DE(clash)    DE(int)     intcor
     15.33     -16.62       1.00        0.00      93.51       1.22       0.71       0.58       ----

> <Gold.Chemscore.Fitness>
15.3293

> <Gold.Chemscore.DG>
-16.6166

> <Gold.Chemscore.ZeroCoef>
-5.4800

> <Gold.Chemscore.Hbond>
0.9963

> <Gold.Chemscore.Metal>
0.0000

> <Gold.Chemscore.Lipo>
93.5059

> <Gold.Chemscore.Internal_Hbond>
0.0000

> <Gold.Chemscore.DEClash>
0.7062

> <Gold.Chemscore.DEInternal>
0.5811

> <Gold.Chemscore.Rot>
1.2232

> <Gold.Chemscore.Internal.Correction>
   9.000000E+99

> <Gold.Chemscore.Hbonds>
donor molecule, donor type, donor heavy atom, donor atom, acceptor molecule, acceptor atom, score
      L1  H     9    25       P1  8028  0.97

> <Gold.Chemscore.Hbond.Weighted>
-3.3278

> <Gold.Chemscore.Metal.Weighted>
-0.0000

> <Gold.Chemscore.Lipo.Weighted>
-10.9402

> <Gold.Chemscore.Internal_Hbond.Weighted>
0.0000

> <Gold.Chemscore.DEClash.Weighted>
0.7062

> <Gold.Chemscore.DEInternal.Weighted>
0.5811

> <Gold.Chemscore.Rot.Weighted>
3.1314

> <Gold.Chemscore.Internal.Correction.Weighted>
   9.000000E+99

> <Gold.Protein.RotatedTorsions>
[ 6907 6896 6895 6894 ] final -152.85 input  -60.11 | X-H torsion
[ 7974 7965 7964 7962 ] final -136.22 input  175.53 | X-H torsion
[ 8008 7997 7996 7995 ] final   17.94 input   59.86 | X-H torsion
[ 10167 10162 10161 10158 ] final   48.15 input  -65.29 | X-H torsion
[ 10718 10713 10712 10709 ] final -103.58 input   66.30 | X-H torsion
[ 10763 10752 10751 10750 ] final  126.81 input  -60.55 | X-H torsion
[ 11005 11000 10999 10996 ] final  141.77 input  -57.11 | X-H torsion

> <Gold.Protein.ActiveResidues>
 VAL166  LYS551  ARG553  GLY616  TRP617  ASP618  TYR619  PRO620  LYS621  CYS622 
 ASP623  PHE694  ASN695  SER759  ASP760  ASP761  ALA762  ILE779  LEU786  VAL792 
 PHE793  MET794  SER795  GLU796  ALA797  LYS798  CYS799  TRP800  GLU811  SER814 

> <Gold.Protein.RotatedAtoms>
  151.2338  133.4436  159.2604 H   0  0  0  0  0  0  0  0  0  0  0  0  # atno 6907 bound_to 6896
  151.0769  134.9834  159.8347 H   0  0  0  0  0  0  0  0  0  0  0  0  # atno 6908 bound_to 6896
  152.5419  134.2280  159.8866 H   0  0  0  0  0  0  0  0  0  0  0  0  # atno 6909 bound_to 6896
  144.8946  140.6689  143.5123 H   0  0  0  0  0  0  0  0  0  0  0  0  # atno 7974 bound_to 7965
  154.8988  140.2997  155.5329 H   0  0  0  0  0  0  0  0  0  0  0  0  # atno 8008 bound_to 7997
  156.3019  140.2411  156.3948 H   0  0  0  0  0  0  0  0  0  0  0  0  # atno 8009 bound_to 7997
  154.8543  140.0408  157.1613 H   0  0  0  0  0  0  0  0  0  0  0  0  # atno 8010 bound_to 7997
  140.2962  144.2988  150.6229 H   0  0  0  0  0  0  0  0  0  0  0  0  # atno 10167 bound_to 10162
  156.0271  130.5474  150.7273 H   0  0  0  0  0  0  0  0  0  0  0  0  # atno 10718 bound_to 10713
  153.6993  135.3286  155.3221 H   0  0  0  0  0  0  0  0  0  0  0  0  # atno 10763 bound_to 10752
  154.8417  135.4450  154.1427 H   0  0  0  0  0  0  0  0  0  0  0  0  # atno 10764 bound_to 10752
  153.2490  135.6979  153.7778 H   0  0  0  0  0  0  0  0  0  0  0  0  # atno 10765 bound_to 10752
  140.0426  134.9297  157.0871 H   0  0  0  0  0  0  0  0  0  0  0  0  # atno 11005 bound_to 11000
  145.3723  139.1656  143.4325 LP  0  0  0  0  0  0  0  0  0  0  0  0  # atno 17320 bound_to 7965
  146.3074  140.3796  142.8682 LP  0  0  0  0  0  0  0  0  0  0  0  0  # atno 17321 bound_to 7965
  140.5690  143.2183  151.7633 LP  0  0  0  0  0  0  0  0  0  0  0  0  # atno 17342 bound_to 10162
  139.4926  144.4243  151.9943 LP  0  0  0  0  0  0  0  0  0  0  0  0  # atno 17343 bound_to 10162
  157.4874  131.0908  151.0466 LP  0  0  0  0  0  0  0  0  0  0  0  0  # atno 17370 bound_to 10713
  157.0882  130.5931  149.5434 LP  0  0  0  0  0  0  0  0  0  0  0  0  # atno 17371 bound_to 10713
  140.4044  134.2048  155.7163 LP  0  0  0  0  0  0  0  0  0  0  0  0  # atno 17394 bound_to 11000
  141.1891  133.8246  157.0970 LP  0  0  0  0  0  0  0  0  0  0  0  0  # atno 17395 bound_to 11000

$$$$
