AV-unprocessed.smi:332|AV-procd|sdf|2359|dock7
  -GOLD-   2262022273D 1   1.00000     0.00000
 Structure written by MMmdl.
 42 44  0  0  0  0  0  0  0  0  1 V2000
  147.1480  141.8329  158.0093 C   0  0  0  0  0  0  0  0  0  0  0  0
  147.8522  142.0717  156.6635 C   0  0  1  0  0  0  0  0  0  0  0  0
  149.1932  142.5888  156.9302 N   0  0  0  0  0  0  0  0  0  0  0  0
  150.0805  142.0708  157.7940 C   0  0  0  0  0  0  0  0  0  0  0  0
  149.8763  141.0466  158.4470 O   0  0  0  0  0  0  0  0  0  0  0  0
  151.4070  142.8309  157.9293 C   0  0  0  0  0  0  0  0  0  0  0  0
  152.2167  142.3725  159.0702 N   0  0  0  0  0  0  0  0  0  0  0  0
  152.3326  143.2467  160.1694 C   0  0  0  0  0  0  0  0  0  0  0  0
  153.0503  142.9272  161.2578 C   0  0  0  0  0  0  0  0  0  0  0  0
  153.7159  141.6464  161.2846 C   0  0  0  0  0  0  0  0  0  0  0  0
  153.6147  140.8040  160.2373 C   0  0  0  0  0  0  0  0  0  0  0  0
  152.8322  141.1497  159.0447 C   0  0  0  0  0  0  0  0  0  0  0  0
  152.7360  140.3874  158.0821 O   0  0  0  0  0  0  0  0  0  0  0  0
  147.9408  140.7844  155.8062 C   0  0  1  0  0  0  0  0  0  0  0  0
  146.5601  140.2349  155.3714 C   0  0  0  0  0  0  0  0  0  0  0  0
  146.6916  140.1096  153.8434 C   0  0  2  0  0  0  0  0  0  0  0  0
  147.6691  138.9707  153.5014 C   0  0  0  0  0  0  0  0  0  0  0  0
  149.0334  139.5698  153.8896 C   0  0  0  0  0  0  0  0  0  0  0  0
  148.6515  140.9582  154.4374 C   0  0  1  0  0  0  0  0  0  0  0  0
  147.5101  141.3479  153.5042 C   0  0  0  0  0  0  0  0  0  0  0  0
  146.1205  141.4969  157.8710 H   0  0  0  0  0  0  0  0  0  0  0  0
  147.1110  142.7497  158.5986 H   0  0  0  0  0  0  0  0  0  0  0  0
  147.6672  141.0783  158.6011 H   0  0  0  0  0  0  0  0  0  0  0  0
  147.2693  142.8132  156.1152 H   0  0  0  0  0  0  0  0  0  0  0  0
  149.4565  143.4294  156.4364 H   0  0  0  0  0  0  0  0  0  0  0  0
  151.9573  142.7212  156.9939 H   0  0  0  0  0  0  0  0  0  0  0  0
  151.2115  143.9011  158.0228 H   0  0  0  0  0  0  0  0  0  0  0  0
  151.8113  144.1876  160.0676 H   0  0  0  0  0  0  0  0  0  0  0  0
  153.1312  143.6119  162.0893 H   0  0  0  0  0  0  0  0  0  0  0  0
  154.2994  141.3631  162.1482 H   0  0  0  0  0  0  0  0  0  0  0  0
  154.1214  139.8508  160.2745 H   0  0  0  0  0  0  0  0  0  0  0  0
  148.4693  140.0288  156.3900 H   0  0  0  0  0  0  0  0  0  0  0  0
  146.3244  139.2825  155.8475 H   0  0  0  0  0  0  0  0  0  0  0  0
  145.7565  140.9316  155.6133 H   0  0  0  0  0  0  0  0  0  0  0  0
  145.7341  140.0340  153.3276 H   0  0  0  0  0  0  0  0  0  0  0  0
  147.4445  138.0558  154.0509 H   0  0  0  0  0  0  0  0  0  0  0  0
  147.6410  138.7388  152.4361 H   0  0  0  0  0  0  0  0  0  0  0  0
  149.5649  138.9618  154.6224 H   0  0  0  0  0  0  0  0  0  0  0  0
  149.6731  139.6637  153.0109 H   0  0  0  0  0  0  0  0  0  0  0  0
  149.4928  141.6510  154.4409 H   0  0  0  0  0  0  0  0  0  0  0  0
  147.8057  141.3964  152.4548 H   0  0  0  0  0  0  0  0  0  0  0  0
  147.0199  142.2830  153.7798 H   0  0  0  0  0  0  0  0  0  0  0  0
  1  2  1  0  0  0  0
  1 21  1  0  0  0  0
  1 22  1  0  0  0  0
  1 23  1  0  0  0  0
  2  3  1  0  0  0  0
  2 14  1  0  0  0  0
  2 24  1  0  0  0  0
  3  4  1  0  0  0  0
  3 25  1  0  0  0  0
  4  5  2  0  0  0  0
  4  6  1  0  0  0  0
  6  7  1  0  0  0  0
  6 26  1  0  0  0  0
  6 27  1  0  0  0  0
  7 12  1  0  0  0  0
  7  8  1  0  0  0  0
  8  9  2  0  0  0  0
  8 28  1  0  0  0  0
  9 10  1  0  0  0  0
  9 29  1  0  0  0  0
 10 11  2  0  0  0  0
 10 30  1  0  0  0  0
 11 12  1  0  0  0  0
 11 31  1  0  0  0  0
 12 13  2  0  0  0  0
 14 19  1  0  0  0  0
 14 15  1  0  0  0  0
 14 32  1  0  0  0  0
 15 16  1  0  0  0  0
 15 33  1  0  0  0  0
 15 34  1  0  0  0  0
 16 20  1  0  0  0  0
 16 17  1  0  0  0  0
 16 35  1  0  0  0  0
 17 18  1  0  0  0  0
 17 36  1  0  0  0  0
 17 37  1  0  0  0  0
 18 19  1  0  0  0  0
 18 38  1  0  0  0  0
 18 39  1  0  0  0  0
 19 20  1  0  0  0  0
 19 40  1  0  0  0  0
 20 41  1  0  0  0  0
 20 42  1  0  0  0  0
M  END
> <s_m_source_file>
AV-unprocessed.smi

> <i_m_source_file_index>
332

> <i_lp_mmshare_version>
43012

> <i_f3d_flags>
0

> <s_epik_input>
W0NIMl0xW0NIMl1bQ0BIXShbQ0gyXTIpW0NAQEhdKFtDSDJdW0NAQEhdMTIpW0NASF0oW0NIM10pW05IXUMoPU8pW0NIMl1uM1tjSF1bY0hdW2NIXVtjSF1jMz1P

> <s_epik_cmdline>
J2VwaWtfcHl0aG9uJywgJy1waCcsICc3LjAnLCAnLXRuJywgJzgnLCAnLW1hJywgJzIwMCcsICctbWV0YWxfYmluZGluZycsICctaW1hZScsICc8aW5maWxlLm1hZT4nLCAnLW9tYWUnLCAnPG91dGZpbGUubWFlPic=

> <r_lp_tautomer_probability>
1

> <r_epik_Ionization_Penalty>
4.05802e-07

> <r_epik_Ionization_Penalty_Charging>
3.84175e-07

> <r_epik_Ionization_Penalty_Neutral>
2.16269e-08

> <r_epik_State_Penalty>
-0

> <r_epik_Charging_Adjusted_Penalty>
3.84175e-07

> <i_epik_Tot_Q>
0

> <i_epik_Tot_abs_Q>
0

> <r_epik_Metal_State_Penalty>
-0

> <b_epik_Metal_Only>
0

> <s_lp_Force_Field>
OPLS_2005

> <r_lp_Energy>
59.7004

> <b_lp_Chiralities_Consistent>
1

> <s_lp_Variant>
AV-unprocessed.smi:332-8

> <Gold.Version>
5.8.1

> <Gold.Id.Protein>
6NUR|6NUR_protein|mol2

> <Gold.PLP.Fitness>
40.1568

> <Gold.PLP.PLP>
-35.4298

> <Gold.PLP.part.hbond>
-2.0000

> <Gold.PLP.part.metal>
0.0000

> <Gold.PLP.part.buried>
0.9931

> <Gold.PLP.part.nonpolar>
-32.7691

> <Gold.PLP.part.repulsive>
0.0123

> <Gold.PLP.ligand.clash>
0.0000

> <Gold.PLP.ligand.torsion>
0.3915

> <Gold.PLP.Chemscore.Hbond>
1.8322

> <Gold.PLP.Chemscore.CHOScore>
0.0000

> <Gold.PLP.Chemscore.Metal>
0.0000

> <Gold.Chemscore.Hbonds>
donor molecule, donor type, donor heavy atom, donor atom, acceptor molecule, acceptor atom, score
      L1  H     3    25       P1  8028  0.88
      P1  H  7997  8010       L1    13  0.66

> <Gold.PLP.Chemscore.Internal.Correction>
0.0136

> <Gold.Rescore>
     Score         DG    S(hbond)    S(metal)    S(lipo)     H(rot)  DE(clash)    DE(int)     intcor
     14.88     -17.94       1.78        0.00      89.32       1.54       0.85       2.22       ----

> <Gold.Chemscore.Fitness>
14.8756

> <Gold.Chemscore.DG>
-17.9422

> <Gold.Chemscore.ZeroCoef>
-5.4800

> <Gold.Chemscore.Hbond>
1.7827

> <Gold.Chemscore.Metal>
0.0000

> <Gold.Chemscore.Lipo>
89.3154

> <Gold.Chemscore.Internal_Hbond>
0.0000

> <Gold.Chemscore.DEClash>
0.8454

> <Gold.Chemscore.DEInternal>
2.2213

> <Gold.Chemscore.Rot>
1.5398

> <Gold.Chemscore.Internal.Correction>
   9.000000E+99

> <Gold.Chemscore.Hbonds>
donor molecule, donor type, donor heavy atom, donor atom, acceptor molecule, acceptor atom, score
      L1  H     3    25       P1  8028  0.86
      P1  H  7997  8010       L1    13  0.61

> <Gold.Chemscore.Hbond.Weighted>
-5.9542

> <Gold.Chemscore.Metal.Weighted>
-0.0000

> <Gold.Chemscore.Lipo.Weighted>
-10.4499

> <Gold.Chemscore.Internal_Hbond.Weighted>
0.0000

> <Gold.Chemscore.DEClash.Weighted>
0.8454

> <Gold.Chemscore.DEInternal.Weighted>
2.2213

> <Gold.Chemscore.Rot.Weighted>
3.9419

> <Gold.Chemscore.Internal.Correction.Weighted>
   9.000000E+99

> <Gold.Protein.RotatedTorsions>
[ 6907 6896 6895 6894 ] final -139.78 input  -60.11 | X-H torsion
[ 7974 7965 7964 7962 ] final  142.29 input  175.53 | X-H torsion
[ 8008 7997 7996 7995 ] final   46.52 input   59.86 | X-H torsion
[ 10167 10162 10161 10158 ] final  -66.42 input  -65.29 | X-H torsion
[ 10718 10713 10712 10709 ] final -113.24 input   66.30 | X-H torsion
[ 10763 10752 10751 10750 ] final   17.26 input  -60.55 | X-H torsion
[ 11005 11000 10999 10996 ] final  140.31 input  -57.11 | X-H torsion

> <Gold.Protein.ActiveResidues>
 VAL166  LYS551  ARG553  GLY616  TRP617  ASP618  TYR619  PRO620  LYS621  CYS622 
 ASP623  PHE694  ASN695  SER759  ASP760  ASP761  ALA762  ILE779  LEU786  VAL792 
 PHE793  MET794  SER795  GLU796  ALA797  LYS798  CYS799  TRP800  GLU811  SER814 

> <Gold.Protein.RotatedAtoms>
  151.0521  133.5615  159.2641 H   0  0  0  0  0  0  0  0  0  0  0  0  # atno 6907 bound_to 6896
  151.2622  135.0657  159.9112 H   0  0  0  0  0  0  0  0  0  0  0  0  # atno 6908 bound_to 6896
  152.5383  134.0265  159.8059 H   0  0  0  0  0  0  0  0  0  0  0  0  # atno 6909 bound_to 6896
  144.9021  139.5408  143.5749 H   0  0  0  0  0  0  0  0  0  0  0  0  # atno 7974 bound_to 7965
  155.3539  140.3415  155.4239 H   0  0  0  0  0  0  0  0  0  0  0  0  # atno 8008 bound_to 7997
  156.1749  140.1644  156.8415 H   0  0  0  0  0  0  0  0  0  0  0  0  # atno 8009 bound_to 7997
  154.5272  140.0753  156.8262 H   0  0  0  0  0  0  0  0  0  0  0  0  # atno 8010 bound_to 7997
  140.5658  143.2314  151.6638 H   0  0  0  0  0  0  0  0  0  0  0  0  # atno 10167 bound_to 10162
  156.0754  130.5962  150.8615 H   0  0  0  0  0  0  0  0  0  0  0  0  # atno 10718 bound_to 10713
  153.1355  135.6749  153.9110 H   0  0  0  0  0  0  0  0  0  0  0  0  # atno 10763 bound_to 10752
  153.8583  135.3084  155.3437 H   0  0  0  0  0  0  0  0  0  0  0  0  # atno 10764 bound_to 10752
  154.7743  135.4922  153.9796 H   0  0  0  0  0  0  0  0  0  0  0  0  # atno 10765 bound_to 10752
  140.0318  134.9348  157.0677 H   0  0  0  0  0  0  0  0  0  0  0  0  # atno 11005 bound_to 11000
  146.3114  139.7760  142.9017 LP  0  0  0  0  0  0  0  0  0  0  0  0  # atno 17320 bound_to 7965
  145.3598  141.0323  143.3291 LP  0  0  0  0  0  0  0  0  0  0  0  0  # atno 17321 bound_to 7965
  139.5092  144.3584  152.0585 LP  0  0  0  0  0  0  0  0  0  0  0  0  # atno 17342 bound_to 10162
  140.2716  144.3958  150.6149 LP  0  0  0  0  0  0  0  0  0  0  0  0  # atno 17343 bound_to 10162
  157.5847  131.0946  150.9215 LP  0  0  0  0  0  0  0  0  0  0  0  0  # atno 17370 bound_to 10713
  156.9404  130.5382  149.5280 LP  0  0  0  0  0  0  0  0  0  0  0  0  # atno 17371 bound_to 10713
  140.4213  134.1878  155.7164 LP  0  0  0  0  0  0  0  0  0  0  0  0  # atno 17394 bound_to 11000
  141.1835  133.8363  157.1172 LP  0  0  0  0  0  0  0  0  0  0  0  0  # atno 17395 bound_to 11000

$$$$
