AV-unprocessed.smi:2984|AV-procd|sdf|11378|dock1
  -GOLD-   2272016293D 1   1.00000     0.00000
 Structure written by MMmdl.
 38 39  0  0  0  0  0  0  0  0  1 V2000
  151.0586  136.6513  158.7796 O   0  0  0  0  0  0  0  0  0  0  0  0
  150.1404  137.3919  158.4239 C   0  0  0  0  0  0  0  0  0  0  0  0
  148.7719  136.7793  158.0947 C   0  0  0  0  0  0  0  0  0  0  0  0
  148.3726  135.7439  159.0605 N   0  0  0  0  0  0  0  0  0  0  0  0
  148.5036  134.4497  158.5862 N   0  0  0  0  0  0  0  0  0  0  0  0
  148.1604  133.4606  159.3373 C   0  0  0  0  0  0  0  0  0  0  0  0
  147.6434  133.6519  160.6739 C   0  0  0  0  0  0  0  0  0  0  0  0
  147.1960  132.2857  161.6336 Cl  0  0  0  0  0  0  0  0  0  0  0  0
  147.5299  134.9233  161.1338 C   0  0  0  0  0  0  0  0  0  0  0  0
  146.9217  135.2310  162.7243 Cl  0  0  0  0  0  0  0  0  0  0  0  0
  147.9131  136.0757  160.3065 C   0  0  0  0  0  0  0  0  0  0  0  0
  147.8273  137.2433  160.6887 O   0  0  0  0  0  0  0  0  0  0  0  0
  150.2324  138.7314  158.2867 N   0  0  0  0  0  0  0  0  0  0  0  0
  151.2986  139.5138  158.5374 C   0  0  0  0  0  0  0  0  0  0  0  0
  152.2863  139.1929  159.2018 O   0  0  0  0  0  0  0  0  0  0  0  0
  151.1505  140.7202  157.9700 N   0  0  0  0  0  0  0  0  0  0  0  0
  151.9390  141.9064  158.2903 C   0  0  0  0  0  0  0  0  0  0  0  0
  152.0103  142.1132  159.8178 C   0  0  0  0  0  0  0  0  0  0  0  0
  152.7683  143.4016  160.1768 C   0  0  0  0  0  0  0  0  0  0  0  0
  152.1489  144.6251  159.4837 C   0  0  0  0  0  0  0  0  0  0  0  0
  152.0827  144.4250  157.9615 C   0  0  0  0  0  0  0  0  0  0  0  0
  151.3228  143.1383  157.6005 C   0  0  0  0  0  0  0  0  0  0  0  0
  148.0344  137.5836  158.0692 H   0  0  0  0  0  0  0  0  0  0  0  0
  148.7873  136.3672  157.0839 H   0  0  0  0  0  0  0  0  0  0  0  0
  148.2410  132.4259  159.0042 H   0  0  0  0  0  0  0  0  0  0  0  0
  149.3960  139.2023  157.9751 H   0  0  0  0  0  0  0  0  0  0  0  0
  150.4311  140.8312  157.2707 H   0  0  0  0  0  0  0  0  0  0  0  0
  152.9519  141.7751  157.9044 H   0  0  0  0  0  0  0  0  0  0  0  0
  151.0020  142.1608  160.2317 H   0  0  0  0  0  0  0  0  0  0  0  0
  152.4977  141.2604  160.2922 H   0  0  0  0  0  0  0  0  0  0  0  0
  152.7654  143.5457  161.2575 H   0  0  0  0  0  0  0  0  0  0  0  0
  153.8139  143.3048  159.8812 H   0  0  0  0  0  0  0  0  0  0  0  0
  151.1450  144.7969  159.8740 H   0  0  0  0  0  0  0  0  0  0  0  0
  152.7288  145.5183  159.7171 H   0  0  0  0  0  0  0  0  0  0  0  0
  151.6012  145.2847  157.4945 H   0  0  0  0  0  0  0  0  0  0  0  0
  153.0937  144.3783  157.5549 H   0  0  0  0  0  0  0  0  0  0  0  0
  151.3272  143.0021  156.5182 H   0  0  0  0  0  0  0  0  0  0  0  0
  150.2775  143.2435  157.8945 H   0  0  0  0  0  0  0  0  0  0  0  0
  1  2  2  0  0  0  0
  2  3  1  0  0  0  0
  2 13  1  0  0  0  0
  3  4  1  0  0  0  0
  3 23  1  0  0  0  0
  3 24  1  0  0  0  0
  4 11  1  0  0  0  0
  4  5  1  0  0  0  0
  5  6  2  0  0  0  0
  6  7  1  0  0  0  0
  6 25  1  0  0  0  0
  7  8  1  0  0  0  0
  7  9  2  0  0  0  0
  9 10  1  0  0  0  0
  9 11  1  0  0  0  0
 11 12  2  0  0  0  0
 13 14  1  0  0  0  0
 13 26  1  0  0  0  0
 14 15  2  0  0  0  0
 14 16  1  0  0  0  0
 16 17  1  0  0  0  0
 16 27  1  0  0  0  0
 17 22  1  0  0  0  0
 17 18  1  0  0  0  0
 17 28  1  0  0  0  0
 18 19  1  0  0  0  0
 18 29  1  0  0  0  0
 18 30  1  0  0  0  0
 19 20  1  0  0  0  0
 19 31  1  0  0  0  0
 19 32  1  0  0  0  0
 20 21  1  0  0  0  0
 20 33  1  0  0  0  0
 20 34  1  0  0  0  0
 21 22  1  0  0  0  0
 21 35  1  0  0  0  0
 21 36  1  0  0  0  0
 22 37  1  0  0  0  0
 22 38  1  0  0  0  0
M  END
> <s_m_source_file>
AV-unprocessed.smi

> <i_m_source_file_index>
2984

> <i_lp_mmshare_version>
43012

> <i_f3d_flags>
0

> <s_epik_input>
Tz1jMWMoQ2wpYyhDbClbY0hdbm4xW0NIMl1DKD1PKVtOSF1DKD1PKVtOSF1bQ0hdMltDSDJdW0NIMl1bQ0gyXVtDSDJdW0NIMl0y

> <s_epik_cmdline>
J2VwaWtfcHl0aG9uJywgJy1waCcsICc3LjAnLCAnLXRuJywgJzgnLCAnLW1hJywgJzIwMCcsICctbWV0YWxfYmluZGluZycsICctaW1hZScsICc8aW5maWxlLm1hZT4nLCAnLW9tYWUnLCAnPG91dGZpbGUubWFlPic=

> <r_lp_tautomer_probability>
1

> <r_epik_Ionization_Penalty>
3.27035e-05

> <r_epik_Ionization_Penalty_Charging>
2.24292e-11

> <r_epik_Ionization_Penalty_Neutral>
3.27035e-05

> <r_epik_State_Penalty>
-0

> <r_epik_Charging_Adjusted_Penalty>
2.24292e-11

> <i_epik_Tot_Q>
0

> <i_epik_Tot_abs_Q>
0

> <r_epik_Metal_State_Penalty>
-0

> <b_epik_Metal_Only>
0

> <s_lp_Force_Field>
OPLS_2005

> <r_lp_Energy>
25.082

> <b_lp_Chiralities_Consistent>
1

> <s_lp_Variant>
AV-unprocessed.smi:2984-1

> <Gold.Version>
5.8.1

> <Gold.Id.Protein>
6NUR|6NUR_protein|mol2

> <Gold.PLP.Fitness>
49.9367

> <Gold.PLP.PLP>
-43.5522

> <Gold.PLP.part.hbond>
-3.2782

> <Gold.PLP.part.metal>
0.0000

> <Gold.PLP.part.buried>
-5.7816

> <Gold.PLP.part.nonpolar>
-35.1801

> <Gold.PLP.part.repulsive>
0.2247

> <Gold.PLP.ligand.clash>
0.0000

> <Gold.PLP.ligand.torsion>
0.6565

> <Gold.PLP.Chemscore.Hbond>
2.5440

> <Gold.PLP.Chemscore.CHOScore>
0.0000

> <Gold.PLP.Chemscore.Metal>
0.0000

> <Gold.Chemscore.Hbonds>
donor molecule, donor type, donor heavy atom, donor atom, acceptor molecule, acceptor atom, score
      P1  H  6896  6907       L1     1  0.94
      P1  H  6931  6943       L1    12  0.78
      P1  H  6934  6947       L1    12  0.85

> <Gold.PLP.Chemscore.Internal.Correction>
0.0655

> <Gold.Rescore>
     Score         DG    S(hbond)    S(metal)    S(lipo)     H(rot)  DE(clash)    DE(int)     intcor
     19.64     -22.65       2.62        0.00     107.68       1.63       0.03       2.98       ----

> <Gold.Chemscore.Fitness>
19.6374

> <Gold.Chemscore.DG>
-22.6460

> <Gold.Chemscore.ZeroCoef>
-5.4800

> <Gold.Chemscore.Hbond>
2.6155

> <Gold.Chemscore.Metal>
0.0000

> <Gold.Chemscore.Lipo>
107.6807

> <Gold.Chemscore.Internal_Hbond>
0.0000

> <Gold.Chemscore.DEClash>
0.0310

> <Gold.Chemscore.DEInternal>
2.9776

> <Gold.Chemscore.Rot>
1.6283

> <Gold.Chemscore.Internal.Correction>
   9.000000E+99

> <Gold.Chemscore.Hbonds>
donor molecule, donor type, donor heavy atom, donor atom, acceptor molecule, acceptor atom, score
      P1  H  6896  6907       L1     1  0.91
      P1  H  6931  6943       L1    12  0.77
      P1  H  6934  6947       L1    12  0.83

> <Gold.Chemscore.Hbond.Weighted>
-8.7357

> <Gold.Chemscore.Metal.Weighted>
-0.0000

> <Gold.Chemscore.Lipo.Weighted>
-12.5986

> <Gold.Chemscore.Internal_Hbond.Weighted>
0.0000

> <Gold.Chemscore.DEClash.Weighted>
0.0310

> <Gold.Chemscore.DEInternal.Weighted>
2.9776

> <Gold.Chemscore.Rot.Weighted>
4.1684

> <Gold.Chemscore.Internal.Correction.Weighted>
   9.000000E+99

> <Gold.Protein.RotatedTorsions>
[ 6907 6896 6895 6894 ] final  -22.10 input  -60.11 | X-H torsion
[ 7974 7965 7964 7962 ] final  135.83 input  175.53 | X-H torsion
[ 8008 7997 7996 7995 ] final  -80.13 input   59.86 | X-H torsion
[ 10167 10162 10161 10158 ] final  153.44 input  -65.29 | X-H torsion
[ 10718 10713 10712 10709 ] final  131.22 input   66.30 | X-H torsion
[ 10763 10752 10751 10750 ] final  179.59 input  -60.55 | X-H torsion
[ 11005 11000 10999 10996 ] final   15.29 input  -57.11 | X-H torsion

> <Gold.Protein.ActiveResidues>
 VAL166  LYS551  ARG553  GLY616  TRP617  ASP618  TYR619  PRO620  LYS621  CYS622 
 ASP623  PHE694  ASN695  SER759  ASP760  ASP761  ALA762  ILE779  LEU786  VAL792 
 PHE793  MET794  SER795  GLU796  ALA797  LYS798  CYS799  TRP800  GLU811  SER814 

> <Gold.Protein.RotatedAtoms>
  151.2235  135.0527  159.8959 H   0  0  0  0  0  0  0  0  0  0  0  0  # atno 6907 bound_to 6896
  152.5413  134.0614  159.8164 H   0  0  0  0  0  0  0  0  0  0  0  0  # atno 6908 bound_to 6896
  151.0784  133.5361  159.2654 H   0  0  0  0  0  0  0  0  0  0  0  0  # atno 6909 bound_to 6896
  144.9625  139.4694  143.5472 H   0  0  0  0  0  0  0  0  0  0  0  0  # atno 7974 bound_to 7965
  154.5853  140.0667  156.9162 H   0  0  0  0  0  0  0  0  0  0  0  0  # atno 8008 bound_to 7997
  155.2390  140.3343  155.4276 H   0  0  0  0  0  0  0  0  0  0  0  0  # atno 8009 bound_to 7997
  156.2218  140.1802  156.7443 H   0  0  0  0  0  0  0  0  0  0  0  0  # atno 8010 bound_to 7997
  139.4827  144.5273  151.7780 H   0  0  0  0  0  0  0  0  0  0  0  0  # atno 10167 bound_to 10162
  157.4988  131.1093  150.9456 H   0  0  0  0  0  0  0  0  0  0  0  0  # atno 10718 bound_to 10713
  154.5226  135.2795  155.1249 H   0  0  0  0  0  0  0  0  0  0  0  0  # atno 10763 bound_to 10752
  154.2801  135.6287  153.5347 H   0  0  0  0  0  0  0  0  0  0  0  0  # atno 10764 bound_to 10752
  152.9940  135.5649  154.5719 H   0  0  0  0  0  0  0  0  0  0  0  0  # atno 10765 bound_to 10752
  140.4600  134.1137  155.7715 H   0  0  0  0  0  0  0  0  0  0  0  0  # atno 11005 bound_to 11000
  146.3357  139.8784  142.8828 LP  0  0  0  0  0  0  0  0  0  0  0  0  # atno 17320 bound_to 7965
  145.2679  141.0099  143.3789 LP  0  0  0  0  0  0  0  0  0  0  0  0  # atno 17321 bound_to 7965
  140.4794  144.1471  150.5930 LP  0  0  0  0  0  0  0  0  0  0  0  0  # atno 17342 bound_to 10162
  140.4294  143.2575  151.9615 LP  0  0  0  0  0  0  0  0  0  0  0  0  # atno 17343 bound_to 10162
  157.0133  130.5645  149.5323 LP  0  0  0  0  0  0  0  0  0  0  0  0  # atno 17370 bound_to 10713
  156.0216  130.5311  150.8292 LP  0  0  0  0  0  0  0  0  0  0  0  0  # atno 17371 bound_to 10713
  141.1625  133.8765  157.1807 LP  0  0  0  0  0  0  0  0  0  0  0  0  # atno 17394 bound_to 11000
  139.9951  135.0050  157.0065 LP  0  0  0  0  0  0  0  0  0  0  0  0  # atno 17395 bound_to 11000

$$$$
