AV-unprocessed.smi:3084|AV-procd|sdf|11749|dock3
  -GOLD-   2272017143D 1   1.00000     0.00000
 Structure written by MMmdl.
 27 28  0  0  0  0  0  0  0  0  2 V2000
  152.1389  139.0169  155.1755 C   0  0  0  0  0  0  0  0  0  0  0  0
  152.6918  139.0151  156.4249 N   0  0  0  0  0  0  0  0  0  0  0  0
  152.1562  140.1277  156.9066 C   0  0  0  0  0  0  0  0  0  0  0  0
  151.3457  140.7499  156.0488 N   0  0  0  0  0  0  0  0  0  0  0  0
  150.5915  141.9825  156.1853 C   0  0  0  0  0  0  0  0  0  0  0  0
  150.9658  142.7846  157.4487 C   0  0  1  0  0  0  0  0  0  0  0  0
  152.0414  143.8634  157.1844 C   0  0  0  0  0  0  0  0  0  0  0  0
  152.3448  144.6760  158.4529 C   0  0  0  0  0  0  0  0  0  0  0  0
  151.0515  145.2653  159.0335 C   0  0  0  0  0  0  0  0  0  0  0  0
  150.0112  144.1597  159.2734 C   0  0  0  0  0  0  0  0  0  0  0  0
  149.7513  143.4058  158.0273 N   0  3  0  0  0  0  0  0  0  0  0  0
  151.3283  140.0382  154.8974 N   0  0  0  0  0  0  0  0  0  0  0  0
  152.3415  138.2440  154.4486 H   0  0  0  0  0  0  0  0  0  0  0  0
  152.3573  140.4935  157.9030 H   0  0  0  0  0  0  0  0  0  0  0  0
  150.7602  142.5866  155.2926 H   0  0  0  0  0  0  0  0  0  0  0  0
  149.5302  141.7303  156.1961 H   0  0  0  0  0  0  0  0  0  0  0  0
  151.3535  142.0867  158.1926 H   0  0  0  0  0  0  0  0  0  0  0  0
  152.9635  143.4045  156.8264 H   0  0  0  0  0  0  0  0  0  0  0  0
  151.7041  144.5350  156.3937 H   0  0  0  0  0  0  0  0  0  0  0  0
  152.8213  144.0341  159.1950 H   0  0  0  0  0  0  0  0  0  0  0  0
  153.0543  145.4732  158.2288 H   0  0  0  0  0  0  0  0  0  0  0  0
  151.2640  145.7882  159.9666 H   0  0  0  0  0  0  0  0  0  0  0  0
  150.6463  146.0095  158.3463 H   0  0  0  0  0  0  0  0  0  0  0  0
  150.3591  143.4711  160.0446 H   0  0  0  0  0  0  0  0  0  0  0  0
  149.0758  144.5916  159.6297 H   0  0  0  0  0  0  0  0  0  0  0  0
  149.3592  144.0392  157.3455 H   0  0  0  0  0  0  0  0  0  0  0  0
  149.0766  142.6800  158.2229 H   0  0  0  0  0  0  0  0  0  0  0  0
  1 12  2  0  0  0  0
  1  2  1  0  0  0  0
  1 13  1  0  0  0  0
  2  3  2  0  0  0  0
  3  4  1  0  0  0  0
  3 14  1  0  0  0  0
  4  5  1  0  0  0  0
  4 12  1  0  0  0  0
  5  6  1  0  0  0  0
  5 15  1  0  0  0  0
  5 16  1  0  0  0  0
  6 11  1  0  0  0  0
  6  7  1  0  0  0  0
  6 17  1  0  0  0  0
  7  8  1  0  0  0  0
  7 18  1  0  0  0  0
  7 19  1  0  0  0  0
  8  9  1  0  0  0  0
  8 20  1  0  0  0  0
  8 21  1  0  0  0  0
  9 10  1  0  0  0  0
  9 22  1  0  0  0  0
  9 23  1  0  0  0  0
 10 11  1  0  0  0  0
 10 24  1  0  0  0  0
 10 25  1  0  0  0  0
 11 26  1  0  0  0  0
 11 27  1  0  0  0  0
M  CHG  1  11   1
M  END
> <s_m_source_file>
AV-unprocessed.smi

> <i_m_source_file_index>
3084

> <i_lp_mmshare_version>
43012

> <i_f3d_flags>
0

> <s_epik_input>
bjFbY0hdbltjSF1uMVtDSDJdW0NAQEhdMltDSDJdW0NIMl1bQ0gyXVtDSDJdW05IXTI=

> <s_epik_cmdline>
J2VwaWtfcHl0aG9uJywgJy1waCcsICc3LjAnLCAnLXRuJywgJzgnLCAnLW1hJywgJzIwMCcsICctbWV0YWxfYmluZGluZycsICctaW1hZScsICc8aW5maWxlLm1hZT4nLCAnLW9tYWUnLCAnPG91dGZpbGUubWFlPic=

> <r_lp_tautomer_probability>
1

> <r_epik_Ionization_Penalty>
0.000475214

> <r_epik_Ionization_Penalty_Charging>
0.000474443

> <r_epik_Ionization_Penalty_Neutral>
7.70992e-07

> <r_epik_State_Penalty>
0.000294136

> <r_epik_Charging_Adjusted_Penalty>
0.000768579

> <i_epik_Tot_Q>
1

> <i_epik_Tot_abs_Q>
1

> <r_epik_Metal_State_Penalty>
-0

> <b_epik_Metal_Only>
0

> <s_lp_Force_Field>
OPLS_2005

> <r_lp_Energy>
15.8084

> <b_lp_Chiralities_Consistent>
1

> <s_lp_Variant>
AV-unprocessed.smi:3084-2

> <Gold.Version>
5.8.1

> <Gold.Id.Protein>
6NUR|6NUR_protein|mol2

> <Gold.PLP.Fitness>
38.5446

> <Gold.PLP.PLP>
-29.9907

> <Gold.PLP.part.hbond>
-3.3626

> <Gold.PLP.part.metal>
0.0000

> <Gold.PLP.part.buried>
-3.0992

> <Gold.PLP.part.nonpolar>
-23.2194

> <Gold.PLP.part.repulsive>
0.1017

> <Gold.PLP.ligand.clash>
0.0000

> <Gold.PLP.ligand.torsion>
0.6005

> <Gold.PLP.Chemscore.Hbond>
3.2500

> <Gold.PLP.Chemscore.CHOScore>
0.0000

> <Gold.PLP.Chemscore.Metal>
0.0000

> <Gold.Chemscore.Hbonds>
donor molecule, donor type, donor heavy atom, donor atom, acceptor molecule, acceptor atom, score
      L1  H    11    26       P1  8028  1.90
      P1  H  7989  7998       L1    12  1.00
      P1  H  7997  8010       L1     2  0.20

> <Gold.PLP.Chemscore.Internal.Correction>
0.0048

> <Gold.Rescore>
     Score         DG    S(hbond)    S(metal)    S(lipo)     H(rot)  DE(clash)    DE(int)     intcor
     11.92     -12.64       1.17        0.00      60.79       1.51       0.18       0.53       ----

> <Gold.Chemscore.Fitness>
11.9248

> <Gold.Chemscore.DG>
-12.6351

> <Gold.Chemscore.ZeroCoef>
-5.4800

> <Gold.Chemscore.Hbond>
1.1675

> <Gold.Chemscore.Metal>
0.0000

> <Gold.Chemscore.Lipo>
60.7919

> <Gold.Chemscore.Internal_Hbond>
0.0000

> <Gold.Chemscore.DEClash>
0.1763

> <Gold.Chemscore.DEInternal>
0.5341

> <Gold.Chemscore.Rot>
1.5066

> <Gold.Chemscore.Internal.Correction>
   9.000000E+99

> <Gold.Chemscore.Hbonds>
donor molecule, donor type, donor heavy atom, donor atom, acceptor molecule, acceptor atom, score
      L1  H    11    26       P1  8028  0.21
      P1  H  7989  7998       L1    12  0.87

> <Gold.Chemscore.Hbond.Weighted>
-3.8994

> <Gold.Chemscore.Metal.Weighted>
-0.0000

> <Gold.Chemscore.Lipo.Weighted>
-7.1126

> <Gold.Chemscore.Internal_Hbond.Weighted>
0.0000

> <Gold.Chemscore.DEClash.Weighted>
0.1763

> <Gold.Chemscore.DEInternal.Weighted>
0.5341

> <Gold.Chemscore.Rot.Weighted>
3.8569

> <Gold.Chemscore.Internal.Correction.Weighted>
   9.000000E+99

> <Gold.Protein.RotatedTorsions>
[ 6907 6896 6895 6894 ] final  -49.36 input  -60.11 | X-H torsion
[ 7974 7965 7964 7962 ] final  -60.04 input  175.53 | X-H torsion
[ 8008 7997 7996 7995 ] final   82.12 input   59.86 | X-H torsion
[ 10167 10162 10161 10158 ] final  -90.75 input  -65.29 | X-H torsion
[ 10718 10713 10712 10709 ] final  -92.44 input   66.30 | X-H torsion
[ 10763 10752 10751 10750 ] final  179.52 input  -60.55 | X-H torsion
[ 11005 11000 10999 10996 ] final   93.85 input  -57.11 | X-H torsion

> <Gold.Protein.ActiveResidues>
 VAL166  LYS551  ARG553  GLY616  TRP617  ASP618  TYR619  PRO620  LYS621  CYS622 
 ASP623  PHE694  ASN695  SER759  ASP760  ASP761  ALA762  ILE779  LEU786  VAL792 
 PHE793  MET794  SER795  GLU796  ALA797  LYS798  CYS799  TRP800  GLU811  SER814 

> <Gold.Protein.RotatedAtoms>
  150.8813  134.8205  159.7226 H   0  0  0  0  0  0  0  0  0  0  0  0  # atno 6907 bound_to 6896
  152.4780  134.4791  159.9670 H   0  0  0  0  0  0  0  0  0  0  0  0  # atno 6908 bound_to 6896
  151.4866  133.3495  159.2882 H   0  0  0  0  0  0  0  0  0  0  0  0  # atno 6909 bound_to 6896
  145.8202  140.8545  143.0136 H   0  0  0  0  0  0  0  0  0  0  0  0  # atno 7974 bound_to 7965
  155.9063  140.3430  155.6064 H   0  0  0  0  0  0  0  0  0  0  0  0  # atno 8008 bound_to 7997
  155.7441  140.0811  157.2251 H   0  0  0  0  0  0  0  0  0  0  0  0  # atno 8009 bound_to 7997
  154.4050  140.1565  156.2636 H   0  0  0  0  0  0  0  0  0  0  0  0  # atno 8010 bound_to 7997
  140.3517  143.2887  151.9718 H   0  0  0  0  0  0  0  0  0  0  0  0  # atno 10167 bound_to 10162
  156.0002  130.4987  150.5626 H   0  0  0  0  0  0  0  0  0  0  0  0  # atno 10718 bound_to 10713
  154.5217  135.2794  155.1257 H   0  0  0  0  0  0  0  0  0  0  0  0  # atno 10763 bound_to 10752
  154.2812  135.6285  153.5351 H   0  0  0  0  0  0  0  0  0  0  0  0  # atno 10764 bound_to 10752
  152.9938  135.5651  154.5707 H   0  0  0  0  0  0  0  0  0  0  0  0  # atno 10765 bound_to 10752
  139.8805  134.8813  156.3778 H   0  0  0  0  0  0  0  0  0  0  0  0  # atno 11005 bound_to 11000
  144.6748  140.0523  143.7478 LP  0  0  0  0  0  0  0  0  0  0  0  0  # atno 17320 bound_to 7965
  145.9683  139.2850  143.1114 LP  0  0  0  0  0  0  0  0  0  0  0  0  # atno 17321 bound_to 7965
  139.4825  144.6070  151.7504 LP  0  0  0  0  0  0  0  0  0  0  0  0  # atno 17342 bound_to 10162
  140.5212  144.0876  150.6023 LP  0  0  0  0  0  0  0  0  0  0  0  0  # atno 17343 bound_to 10162
  157.3533  131.0737  151.1696 LP  0  0  0  0  0  0  0  0  0  0  0  0  # atno 17370 bound_to 10713
  157.2505  130.6611  149.5929 LP  0  0  0  0  0  0  0  0  0  0  0  0  # atno 17371 bound_to 10713
  140.9420  133.7508  156.0158 LP  0  0  0  0  0  0  0  0  0  0  0  0  # atno 17394 bound_to 11000
  140.8208  134.3291  157.5382 LP  0  0  0  0  0  0  0  0  0  0  0  0  # atno 17395 bound_to 11000

$$$$
