AV-unprocessed.smi:327|AV-procd|sdf|2346|dock3
  -GOLD-   2262022253D 1   1.00000     0.00000
 Structure written by MMmdl.
 47 48  0  0  0  0  0  0  0  0  1 V2000
  145.9626  143.5138  160.9587 C   0  0  0  0  0  0  0  0  0  0  0  0
  146.2933  142.5621  159.9631 O   0  0  0  0  0  0  0  0  0  0  0  0
  146.2465  143.1052  158.6540 C   0  0  0  0  0  0  0  0  0  0  0  0
  145.7844  142.0301  157.6569 C   0  0  0  0  0  0  0  0  0  0  0  0
  146.7344  141.8673  156.5503 N   0  0  0  0  0  0  0  0  0  0  0  0
  148.0539  141.7558  156.9566 N   0  0  0  0  0  0  0  0  0  0  0  0
  148.9959  141.6192  156.0798 C   0  0  0  0  0  0  0  0  0  0  0  0
  150.4273  141.5099  156.4760 C   0  0  0  0  0  0  0  0  0  0  0  0
  151.2703  140.9997  155.7361 O   0  0  0  0  0  0  0  0  0  0  0  0
  150.7271  142.0148  157.6866 N   0  0  0  0  0  0  0  0  0  0  0  0
  152.0568  142.0658  158.2896 C   0  0  0  0  0  0  0  0  0  0  0  0
  152.0805  141.1504  159.5332 C   0  0  0  0  0  0  0  0  0  0  0  0
  153.3246  141.2799  160.4349 C   0  0  0  0  0  0  0  0  0  0  0  0
  153.0975  142.0925  161.7263 C   0  0  0  0  0  0  0  0  0  0  0  0
  152.8759  143.6106  161.5668 C   0  0  0  0  0  0  0  0  0  0  0  0
  151.5391  144.0031  160.9052 C   0  0  0  0  0  0  0  0  0  0  0  0
  151.6305  144.4108  159.4222 C   0  0  0  0  0  0  0  0  0  0  0  0
  152.5069  143.5292  158.5102 C   0  0  0  0  0  0  0  0  0  0  0  0
  148.6898  141.5735  154.6601 C   0  0  0  0  0  0  0  0  0  0  0  0
  147.3989  141.6886  154.2785 C   0  0  0  0  0  0  0  0  0  0  0  0
  146.3153  141.8531  155.2488 C   0  0  0  0  0  0  0  0  0  0  0  0
  145.1346  141.9697  154.9220 O   0  0  0  0  0  0  0  0  0  0  0  0
  146.0063  143.0453  161.9417 H   0  0  0  0  0  0  0  0  0  0  0  0
  144.9530  143.9009  160.8150 H   0  0  0  0  0  0  0  0  0  0  0  0
  146.6629  144.3501  160.9531 H   0  0  0  0  0  0  0  0  0  0  0  0
  145.5785  143.9676  158.6212 H   0  0  0  0  0  0  0  0  0  0  0  0
  147.2406  143.4558  158.3730 H   0  0  0  0  0  0  0  0  0  0  0  0
  145.6890  141.0779  158.1816 H   0  0  0  0  0  0  0  0  0  0  0  0
  144.7800  142.2584  157.2964 H   0  0  0  0  0  0  0  0  0  0  0  0
  149.9719  142.4131  158.2259 H   0  0  0  0  0  0  0  0  0  0  0  0
  152.7656  141.6301  157.5829 H   0  0  0  0  0  0  0  0  0  0  0  0
  151.1738  141.2653  160.1254 H   0  0  0  0  0  0  0  0  0  0  0  0
  152.0337  140.1218  159.1726 H   0  0  0  0  0  0  0  0  0  0  0  0
  153.6092  140.2733  160.7436 H   0  0  0  0  0  0  0  0  0  0  0  0
  154.1847  141.6540  159.8800 H   0  0  0  0  0  0  0  0  0  0  0  0
  152.2659  141.6615  162.2851 H   0  0  0  0  0  0  0  0  0  0  0  0
  153.9730  141.9532  162.3614 H   0  0  0  0  0  0  0  0  0  0  0  0
  152.8797  144.0359  162.5709 H   0  0  0  0  0  0  0  0  0  0  0  0
  153.7210  144.0790  161.0625 H   0  0  0  0  0  0  0  0  0  0  0  0
  150.7973  143.2184  161.0449 H   0  0  0  0  0  0  0  0  0  0  0  0
  151.1296  144.8574  161.4457 H   0  0  0  0  0  0  0  0  0  0  0  0
  150.6240  144.4862  159.0091 H   0  0  0  0  0  0  0  0  0  0  0  0
  152.0357  145.4225  159.3801 H   0  0  0  0  0  0  0  0  0  0  0  0
  153.5410  143.5559  158.8493 H   0  0  0  0  0  0  0  0  0  0  0  0
  152.5430  144.0147  157.5341 H   0  0  0  0  0  0  0  0  0  0  0  0
  149.4691  141.4524  153.9216 H   0  0  0  0  0  0  0  0  0  0  0  0
  147.1573  141.6582  153.2262 H   0  0  0  0  0  0  0  0  0  0  0  0
  1  2  1  0  0  0  0
  1 23  1  0  0  0  0
  1 24  1  0  0  0  0
  1 25  1  0  0  0  0
  2  3  1  0  0  0  0
  3  4  1  0  0  0  0
  3 26  1  0  0  0  0
  3 27  1  0  0  0  0
  4  5  1  0  0  0  0
  4 28  1  0  0  0  0
  4 29  1  0  0  0  0
  5 21  1  0  0  0  0
  5  6  1  0  0  0  0
  6  7  2  0  0  0  0
  7  8  1  0  0  0  0
  7 19  1  0  0  0  0
  8  9  2  0  0  0  0
  8 10  1  0  0  0  0
 10 11  1  0  0  0  0
 10 30  1  0  0  0  0
 11 18  1  0  0  0  0
 11 12  1  0  0  0  0
 11 31  1  0  0  0  0
 12 13  1  0  0  0  0
 12 32  1  0  0  0  0
 12 33  1  0  0  0  0
 13 14  1  0  0  0  0
 13 34  1  0  0  0  0
 13 35  1  0  0  0  0
 14 15  1  0  0  0  0
 14 36  1  0  0  0  0
 14 37  1  0  0  0  0
 15 16  1  0  0  0  0
 15 38  1  0  0  0  0
 15 39  1  0  0  0  0
 16 17  1  0  0  0  0
 16 40  1  0  0  0  0
 16 41  1  0  0  0  0
 17 18  1  0  0  0  0
 17 42  1  0  0  0  0
 17 43  1  0  0  0  0
 18 44  1  0  0  0  0
 18 45  1  0  0  0  0
 19 20  2  0  0  0  0
 19 46  1  0  0  0  0
 20 21  1  0  0  0  0
 20 47  1  0  0  0  0
 21 22  2  0  0  0  0
M  END
> <s_m_source_file>
AV-unprocessed.smi

> <i_m_source_file_index>
327

> <i_lp_mmshare_version>
43012

> <i_f3d_flags>
0

> <s_epik_input>
W0NIM11PW0NIMl1bQ0gyXW4xbmMoW2NIXVtjSF1jMT1PKUMoPU8pW05IXVtDSF0yW0NIMl1bQ0gyXVtDSDJdW0NIMl1bQ0gyXVtDSDJdW0NIMl0y

> <s_epik_cmdline>
J2VwaWtfcHl0aG9uJywgJy1waCcsICc3LjAnLCAnLXRuJywgJzgnLCAnLW1hJywgJzIwMCcsICctbWV0YWxfYmluZGluZycsICctaW1hZScsICc8aW5maWxlLm1hZT4nLCAnLW9tYWUnLCAnPG91dGZpbGUubWFlPic=

> <r_lp_tautomer_probability>
1

> <r_epik_Ionization_Penalty>
5.81787e-07

> <r_epik_Ionization_Penalty_Charging>
6.75108e-09

> <r_epik_Ionization_Penalty_Neutral>
5.75036e-07

> <r_epik_State_Penalty>
-0

> <r_epik_Charging_Adjusted_Penalty>
6.75108e-09

> <i_epik_Tot_Q>
0

> <i_epik_Tot_abs_Q>
0

> <r_epik_Metal_State_Penalty>
-0

> <b_epik_Metal_Only>
0

> <s_lp_Force_Field>
OPLS_2005

> <r_lp_Energy>
41.0284

> <b_lp_Chiralities_Consistent>
1

> <s_lp_Variant>
AV-unprocessed.smi:327-1

> <Gold.Version>
5.8.1

> <Gold.Id.Protein>
6NUR|6NUR_protein|mol2

> <Gold.PLP.Fitness>
44.6520

> <Gold.PLP.PLP>
-42.5449

> <Gold.PLP.part.hbond>
-2.0000

> <Gold.PLP.part.metal>
0.0000

> <Gold.PLP.part.buried>
-3.8215

> <Gold.PLP.part.nonpolar>
-36.2042

> <Gold.PLP.part.repulsive>
0.3998

> <Gold.PLP.ligand.clash>
0.0000

> <Gold.PLP.ligand.torsion>
0.9476

> <Gold.PLP.Chemscore.Hbond>
1.3175

> <Gold.PLP.Chemscore.CHOScore>
0.0000

> <Gold.PLP.Chemscore.Metal>
0.0000

> <Gold.Chemscore.Hbonds>
donor molecule, donor type, donor heavy atom, donor atom, acceptor molecule, acceptor atom, score
      P1  H  6934  6946       L1     2  1.00
      P1  H  7989  7998       L1     9  0.28

> <Gold.PLP.Chemscore.Internal.Correction>
0.0498

> <Gold.Rescore>
     Score         DG    S(hbond)    S(metal)    S(lipo)     H(rot)  DE(clash)    DE(int)     intcor
     18.33     -19.34       1.57        0.00     107.11       1.53       0.01       1.00       ----

> <Gold.Chemscore.Fitness>
18.3325

> <Gold.Chemscore.DG>
-19.3419

> <Gold.Chemscore.ZeroCoef>
-5.4800

> <Gold.Chemscore.Hbond>
1.5695

> <Gold.Chemscore.Metal>
0.0000

> <Gold.Chemscore.Lipo>
107.1138

> <Gold.Chemscore.Internal_Hbond>
0.0000

> <Gold.Chemscore.DEClash>
0.0060

> <Gold.Chemscore.DEInternal>
1.0034

> <Gold.Chemscore.Rot>
1.5283

> <Gold.Chemscore.Internal.Correction>
   9.000000E+99

> <Gold.Chemscore.Hbonds>
donor molecule, donor type, donor heavy atom, donor atom, acceptor molecule, acceptor atom, score
      P1  H  6934  6946       L1     2  0.84
      P1  H  7989  7998       L1     9  0.28

> <Gold.Chemscore.Hbond.Weighted>
-5.2420

> <Gold.Chemscore.Metal.Weighted>
-0.0000

> <Gold.Chemscore.Lipo.Weighted>
-12.5323

> <Gold.Chemscore.Internal_Hbond.Weighted>
0.0000

> <Gold.Chemscore.DEClash.Weighted>
0.0060

> <Gold.Chemscore.DEInternal.Weighted>
1.0034

> <Gold.Chemscore.Rot.Weighted>
3.9124

> <Gold.Chemscore.Internal.Correction.Weighted>
   9.000000E+99

> <Gold.Protein.RotatedTorsions>
[ 6907 6896 6895 6894 ] final -150.01 input  -60.11 | X-H torsion
[ 7974 7965 7964 7962 ] final -107.83 input  175.53 | X-H torsion
[ 8008 7997 7996 7995 ] final  152.60 input   59.86 | X-H torsion
[ 10167 10162 10161 10158 ] final   -4.91 input  -65.29 | X-H torsion
[ 10718 10713 10712 10709 ] final -158.34 input   66.30 | X-H torsion
[ 10763 10752 10751 10750 ] final  -34.86 input  -60.55 | X-H torsion
[ 11005 11000 10999 10996 ] final   66.36 input  -57.11 | X-H torsion

> <Gold.Protein.ActiveResidues>
 VAL166  LYS551  ARG553  GLY616  TRP617  ASP618  TYR619  PRO620  LYS621  CYS622 
 ASP623  PHE694  ASN695  SER759  ASP760  ASP761  ALA762  ILE779  LEU786  VAL792 
 PHE793  MET794  SER795  GLU796  ALA797  LYS798  CYS799  TRP800  GLU811  SER814 

> <Gold.Protein.RotatedAtoms>
  151.1924  133.4659  159.2594 H   0  0  0  0  0  0  0  0  0  0  0  0  # atno 6907 bound_to 6896
  151.1151  135.0048  159.8522 H   0  0  0  0  0  0  0  0  0  0  0  0  # atno 6908 bound_to 6896
  152.5453  134.1840  159.8700 H   0  0  0  0  0  0  0  0  0  0  0  0  # atno 6909 bound_to 6896
  145.2004  140.9054  143.3372 H   0  0  0  0  0  0  0  0  0  0  0  0  # atno 7974 bound_to 7965
  156.2621  140.2016  156.6359 H   0  0  0  0  0  0  0  0  0  0  0  0  # atno 8008 bound_to 7997
  154.6647  140.0557  157.0125 H   0  0  0  0  0  0  0  0  0  0  0  0  # atno 8009 bound_to 7997
  155.1225  140.3226  155.4496 H   0  0  0  0  0  0  0  0  0  0  0  0  # atno 8010 bound_to 7997
  140.6944  143.6369  150.8471 H   0  0  0  0  0  0  0  0  0  0  0  0  # atno 10167 bound_to 10162
  156.5527  130.8612  151.2785 H   0  0  0  0  0  0  0  0  0  0  0  0  # atno 10718 bound_to 10713
  153.8537  135.6846  153.4789 H   0  0  0  0  0  0  0  0  0  0  0  0  # atno 10763 bound_to 10752
  153.1382  135.4669  154.9453 H   0  0  0  0  0  0  0  0  0  0  0  0  # atno 10764 bound_to 10752
  154.7790  135.3262  154.7978 H   0  0  0  0  0  0  0  0  0  0  0  0  # atno 10765 bound_to 10752
  139.9837  134.6703  156.0216 H   0  0  0  0  0  0  0  0  0  0  0  0  # atno 11005 bound_to 11000
  144.9953  139.3650  143.6194 LP  0  0  0  0  0  0  0  0  0  0  0  0  # atno 17320 bound_to 7965
  146.3418  139.9153  142.8774 LP  0  0  0  0  0  0  0  0  0  0  0  0  # atno 17321 bound_to 7965
  140.0086  143.5667  152.2848 LP  0  0  0  0  0  0  0  0  0  0  0  0  # atno 17342 bound_to 10162
  139.6383  144.7652  151.2393 LP  0  0  0  0  0  0  0  0  0  0  0  0  # atno 17343 bound_to 10162
  157.7384  130.9813  150.2251 LP  0  0  0  0  0  0  0  0  0  0  0  0  # atno 17370 bound_to 10713
  156.2870  130.3740  149.7879 LP  0  0  0  0  0  0  0  0  0  0  0  0  # atno 17371 bound_to 10713
  141.1505  133.6549  156.3999 LP  0  0  0  0  0  0  0  0  0  0  0  0  # atno 17394 bound_to 11000
  140.5045  134.6453  157.5261 LP  0  0  0  0  0  0  0  0  0  0  0  0  # atno 17395 bound_to 11000

$$$$
