AV-unprocessed.smi:1703|AV-procd|sdf|6862|dock5
  -GOLD-   22720 8 53D 1   1.00000     0.00000
 Structure written by MMmdl.
 49 51  0  0  0  0  0  0  0  0  2 V2000
  144.1269  132.3050  150.9104 C   0  0  0  0  0  0  0  0  0  0  0  0
  144.6318  133.2847  151.9754 C   0  0  1  0  0  0  0  0  0  0  0  0
  146.0720  133.7609  151.6853 C   0  0  0  0  0  0  0  0  0  0  0  0
  146.5091  134.8100  152.6422 N   0  3  2  0  0  0  0  0  0  0  0  0
  146.9238  134.3039  153.9784 C   0  0  0  0  0  0  0  0  0  0  0  0
  148.3332  133.6811  153.9615 C   0  0  1  0  0  0  0  0  0  0  0  0
  149.2908  134.7206  154.0294 O   0  0  0  0  0  0  0  0  0  0  0  0
  148.5355  132.7098  155.1417 C   0  0  0  0  0  0  0  0  0  0  0  0
  149.2239  131.4842  154.7589 N   0  0  0  0  0  0  0  0  0  0  0  0
  148.8118  130.5255  153.8910 C   0  0  0  0  0  0  0  0  0  0  0  0
  147.5028  130.6079  153.1665 C   0  0  0  0  0  0  0  0  0  0  0  0
  147.3744  129.6303  152.1565 O   0  0  0  0  0  0  0  0  0  0  0  0
  149.6437  129.4970  153.7247 N   0  0  0  0  0  0  0  0  0  0  0  0
  150.6915  129.8135  154.5670 C   0  0  0  0  0  0  0  0  0  0  0  0
  151.8899  129.1173  154.8437 C   0  0  0  0  0  0  0  0  0  0  0  0
  152.8271  129.6441  155.7564 C   0  0  0  0  0  0  0  0  0  0  0  0
  152.5804  130.8721  156.4037 C   0  0  0  0  0  0  0  0  0  0  0  0
  151.3927  131.5819  156.1426 C   0  0  0  0  0  0  0  0  0  0  0  0
  150.4599  131.0516  155.2309 C   0  0  0  0  0  0  0  0  0  0  0  0
  145.5106  135.9048  152.7035 C   0  0  0  0  0  0  0  0  0  0  0  0
  144.0989  135.3586  152.9968 C   0  0  1  0  0  0  0  0  0  0  0  0
  143.0397  136.4658  152.9867 C   0  0  0  0  0  0  0  0  0  0  0  0
  143.7579  134.4085  151.9930 O   0  0  0  0  0  0  0  0  0  0  0  0
  144.7582  131.4172  150.8631 H   0  0  0  0  0  0  0  0  0  0  0  0
  144.1202  132.7642  149.9214 H   0  0  0  0  0  0  0  0  0  0  0  0
  143.1109  131.9775  151.1320 H   0  0  0  0  0  0  0  0  0  0  0  0
  144.5865  132.7835  152.9429 H   0  0  0  0  0  0  0  0  0  0  0  0
  146.7618  132.9177  151.6853 H   0  0  0  0  0  0  0  0  0  0  0  0
  146.1153  134.1867  150.6818 H   0  0  0  0  0  0  0  0  0  0  0  0
  146.9196  135.1222  154.7001 H   0  0  0  0  0  0  0  0  0  0  0  0
  146.1957  133.5805  154.3448 H   0  0  0  0  0  0  0  0  0  0  0  0
  148.4956  133.1397  153.0307 H   0  0  0  0  0  0  0  0  0  0  0  0
  149.1780  135.2877  153.2817 H   0  0  0  0  0  0  0  0  0  0  0  0
  149.1074  133.1933  155.9347 H   0  0  0  0  0  0  0  0  0  0  0  0
  147.5744  132.4498  155.5852 H   0  0  0  0  0  0  0  0  0  0  0  0
  146.6797  130.5092  153.8735 H   0  0  0  0  0  0  0  0  0  0  0  0
  147.4063  131.5931  152.7091 H   0  0  0  0  0  0  0  0  0  0  0  0
  147.8719  129.9096  151.4033 H   0  0  0  0  0  0  0  0  0  0  0  0
  152.0883  128.1759  154.3530 H   0  0  0  0  0  0  0  0  0  0  0  0
  153.7395  129.1033  155.9605 H   0  0  0  0  0  0  0  0  0  0  0  0
  153.3037  131.2686  157.1011 H   0  0  0  0  0  0  0  0  0  0  0  0
  151.2034  132.5225  156.6374 H   0  0  0  0  0  0  0  0  0  0  0  0
  145.8042  136.6493  153.4444 H   0  0  0  0  0  0  0  0  0  0  0  0
  145.5093  136.4182  151.7409 H   0  0  0  0  0  0  0  0  0  0  0  0
  144.0796  134.8739  153.9744 H   0  0  0  0  0  0  0  0  0  0  0  0
  143.2517  137.2191  153.7460 H   0  0  0  0  0  0  0  0  0  0  0  0
  142.0490  136.0591  153.1907 H   0  0  0  0  0  0  0  0  0  0  0  0
  143.0008  136.9676  152.0194 H   0  0  0  0  0  0  0  0  0  0  0  0
  147.3456  135.2239  152.2543 H   0  0  0  0  0  0  0  0  0  0  0  0
  1  2  1  0  0  0  0
  1 24  1  0  0  0  0
  1 25  1  0  0  0  0
  1 26  1  0  0  0  0
  2 23  1  0  0  0  0
  2  3  1  0  0  0  0
  2 27  1  0  0  0  0
  3  4  1  0  0  0  0
  3 28  1  0  0  0  0
  3 29  1  0  0  0  0
  4  5  1  0  0  0  0
  4 20  1  0  0  0  0
  4 49  1  0  0  0  0
  5  6  1  0  0  0  0
  5 30  1  0  0  0  0
  5 31  1  0  0  0  0
  6  7  1  0  0  0  0
  6  8  1  0  0  0  0
  6 32  1  0  0  0  0
  7 33  1  0  0  0  0
  8  9  1  0  0  0  0
  8 34  1  0  0  0  0
  8 35  1  0  0  0  0
  9 19  1  0  0  0  0
  9 10  1  0  0  0  0
 10 11  1  0  0  0  0
 10 13  2  0  0  0  0
 11 12  1  0  0  0  0
 11 36  1  0  0  0  0
 11 37  1  0  0  0  0
 12 38  1  0  0  0  0
 13 14  1  0  0  0  0
 14 19  2  0  0  0  0
 14 15  1  0  0  0  0
 15 16  2  0  0  0  0
 15 39  1  0  0  0  0
 16 17  1  0  0  0  0
 16 40  1  0  0  0  0
 17 18  2  0  0  0  0
 17 41  1  0  0  0  0
 18 19  1  0  0  0  0
 18 42  1  0  0  0  0
 20 21  1  0  0  0  0
 20 43  1  0  0  0  0
 20 44  1  0  0  0  0
 21 22  1  0  0  0  0
 21 23  1  0  0  0  0
 21 45  1  0  0  0  0
 22 46  1  0  0  0  0
 22 47  1  0  0  0  0
 22 48  1  0  0  0  0
M  CHG  1   4   1
M  END
> <s_m_source_file>
AV-unprocessed.smi

> <i_m_source_file_index>
1703

> <i_lp_mmshare_version>
43012

> <i_f3d_flags>
0

> <s_epik_input>
W0NIM11bQ0BASF0xW0NIMl1OKFtDSDJdW0NASF0oTzEpW0NIM10pW0NIMl1bQ0BIXShbT0hdKVtDSDJdbihjKG4yKVtDSDJdW09IXSljKGMyMylbY0hdW2NIXVtjSF1bY0hdMw==

> <s_epik_cmdline>
J2VwaWtfcHl0aG9uJywgJy1waCcsICc3LjAnLCAnLXRuJywgJzgnLCAnLW1hJywgJzIwMCcsICctbWV0YWxfYmluZGluZycsICctaW1hZScsICc8aW5maWxlLm1hZT4nLCAnLW9tYWUnLCAnPG91dGZpbGUubWFlPic=

> <r_epik_Ionization_Penalty>
0.655661

> <r_epik_Ionization_Penalty_Charging>
0.608065

> <r_epik_Ionization_Penalty_Neutral>
0.0475963

> <r_epik_State_Penalty>
0.695267

> <r_epik_Charging_Adjusted_Penalty>
1.30333

> <i_epik_Tot_Q>
1

> <i_epik_Tot_abs_Q>
1

> <r_epik_Metal_State_Penalty>
0.653591

> <b_epik_Metal_Only>
0

> <s_lp_Force_Field>
OPLS_2005

> <r_lp_Energy>
23.9002

> <b_lp_Chiralities_Consistent>
1

> <s_lp_Variant>
AV-unprocessed.smi:1703-10

> <Gold.Version>
5.8.1

> <Gold.Id.Protein>
6NUR|6NUR_protein|mol2

> <Gold.PLP.Fitness>
44.6600

> <Gold.PLP.PLP>
-35.1356

> <Gold.PLP.part.hbond>
-3.0000

> <Gold.PLP.part.metal>
0.0000

> <Gold.PLP.part.buried>
-3.7927

> <Gold.PLP.part.nonpolar>
-28.6722

> <Gold.PLP.part.repulsive>
0.2551

> <Gold.PLP.ligand.clash>
0.0000

> <Gold.PLP.ligand.torsion>
1.1343

> <Gold.PLP.Chemscore.Hbond>
3.9000

> <Gold.PLP.Chemscore.CHOScore>
0.0000

> <Gold.PLP.Chemscore.Metal>
0.0000

> <Gold.Chemscore.Hbonds>
donor molecule, donor type, donor heavy atom, donor atom, acceptor molecule, acceptor atom, score
      L1  H     4    49       P1  7948  2.00
      L1  H     7    33       P1  7948  0.95
      L1  H    12    38       P1 10747  1.00

> <Gold.PLP.Chemscore.Internal.Correction>
0.0930

> <Gold.Rescore>
     Score         DG    S(hbond)    S(metal)    S(lipo)     H(rot)  DE(clash)    DE(int)     intcor
     14.81     -16.08       2.88        0.00      73.06       2.96       0.00       1.27       ----

> <Gold.Chemscore.Fitness>
14.8091

> <Gold.Chemscore.DG>
-16.0822

> <Gold.Chemscore.ZeroCoef>
-5.4800

> <Gold.Chemscore.Hbond>
2.8845

> <Gold.Chemscore.Metal>
0.0000

> <Gold.Chemscore.Lipo>
73.0626

> <Gold.Chemscore.Internal_Hbond>
0.0000

> <Gold.Chemscore.DEClash>
0.0000

> <Gold.Chemscore.DEInternal>
1.2731

> <Gold.Chemscore.Rot>
2.9611

> <Gold.Chemscore.Internal.Correction>
   9.000000E+99

> <Gold.Chemscore.Hbonds>
donor molecule, donor type, donor heavy atom, donor atom, acceptor molecule, acceptor atom, score
      L1  H     4    49       P1  7948  0.99
      L1  H     7    33       P1  7948  0.22
      L1  H    12    38       P1 10747  0.98

> <Gold.Chemscore.Hbond.Weighted>
-9.6342

> <Gold.Chemscore.Metal.Weighted>
-0.0000

> <Gold.Chemscore.Lipo.Weighted>
-8.5483

> <Gold.Chemscore.Internal_Hbond.Weighted>
0.0000

> <Gold.Chemscore.DEClash.Weighted>
0.0000

> <Gold.Chemscore.DEInternal.Weighted>
1.2731

> <Gold.Chemscore.Rot.Weighted>
7.5803

> <Gold.Chemscore.Internal.Correction.Weighted>
   9.000000E+99

> <Gold.Protein.RotatedTorsions>
[ 6907 6896 6895 6894 ] final  113.21 input  -60.11 | X-H torsion
[ 7974 7965 7964 7962 ] final  -31.25 input  175.53 | X-H torsion
[ 8008 7997 7996 7995 ] final   15.26 input   59.86 | X-H torsion
[ 10167 10162 10161 10158 ] final   82.55 input  -65.29 | X-H torsion
[ 10718 10713 10712 10709 ] final   72.91 input   66.30 | X-H torsion
[ 10763 10752 10751 10750 ] final  -53.19 input  -60.55 | X-H torsion
[ 11005 11000 10999 10996 ] final  -24.06 input  -57.11 | X-H torsion

> <Gold.Protein.ActiveResidues>
 VAL166  LYS551  ARG553  GLY616  TRP617  ASP618  TYR619  PRO620  LYS621  CYS622 
 ASP623  PHE694  ASN695  SER759  ASP760  ASP761  ALA762  ILE779  LEU786  VAL792 
 PHE793  MET794  SER795  GLU796  ALA797  LYS798  CYS799  TRP800  GLU811  SER814 

> <Gold.Protein.RotatedAtoms>
  152.4873  133.8407  159.7150 H   0  0  0  0  0  0  0  0  0  0  0  0  # atno 6907 bound_to 6896
  150.8971  133.7157  159.2895 H   0  0  0  0  0  0  0  0  0  0  0  0  # atno 6908 bound_to 6896
  151.4611  135.1042  159.9777 H   0  0  0  0  0  0  0  0  0  0  0  0  # atno 6909 bound_to 6896
  146.1082  140.5643  142.8790 H   0  0  0  0  0  0  0  0  0  0  0  0  # atno 7974 bound_to 7965
  154.8601  140.2943  155.5544 H   0  0  0  0  0  0  0  0  0  0  0  0  # atno 8008 bound_to 7997
  156.3019  140.2479  156.3507 H   0  0  0  0  0  0  0  0  0  0  0  0  # atno 8009 bound_to 7997
  154.8927  140.0394  157.1837 H   0  0  0  0  0  0  0  0  0  0  0  0  # atno 8010 bound_to 7997
  139.9276  144.6173  150.8377 H   0  0  0  0  0  0  0  0  0  0  0  0  # atno 10167 bound_to 10162
  157.6523  130.9602  150.0995 H   0  0  0  0  0  0  0  0  0  0  0  0  # atno 10718 bound_to 10713
  154.1548  135.6484  153.4972 H   0  0  0  0  0  0  0  0  0  0  0  0  # atno 10763 bound_to 10752
  153.0127  135.5346  154.6771 H   0  0  0  0  0  0  0  0  0  0  0  0  # atno 10764 bound_to 10752
  154.6069  135.2949  155.0447 H   0  0  0  0  0  0  0  0  0  0  0  0  # atno 10765 bound_to 10752
  140.8810  133.7654  156.0302 H   0  0  0  0  0  0  0  0  0  0  0  0  # atno 11005 bound_to 11000
  144.7489  140.5139  143.6816 LP  0  0  0  0  0  0  0  0  0  0  0  0  # atno 17320 bound_to 7965
  145.5718  139.1484  143.3284 LP  0  0  0  0  0  0  0  0  0  0  0  0  # atno 17321 bound_to 7965
  140.7646  143.3253  151.2530 LP  0  0  0  0  0  0  0  0  0  0  0  0  # atno 17342 bound_to 10162
  139.6809  143.9856  152.2808 LP  0  0  0  0  0  0  0  0  0  0  0  0  # atno 17343 bound_to 10162
  156.1922  130.3655  149.8895 LP  0  0  0  0  0  0  0  0  0  0  0  0  # atno 17370 bound_to 10713
  156.6821  130.8862  151.3577 LP  0  0  0  0  0  0  0  0  0  0  0  0  # atno 17371 bound_to 10713
  140.8461  134.3009  157.5294 LP  0  0  0  0  0  0  0  0  0  0  0  0  # atno 17394 bound_to 11000
  139.8720  134.9442  156.3875 LP  0  0  0  0  0  0  0  0  0  0  0  0  # atno 17395 bound_to 11000

$$$$
