AV-unprocessed.smi:203|AV-procd|sdf|1585|dock7
  -GOLD-   2262019483D 1   1.00000     0.00000
 Structure written by MMmdl.
 57 61  0  0  0  0  0  0  0  0  1 V2000
  147.6192  136.8567  161.1681 O   0  0  0  0  0  0  0  0  0  0  0  0
  147.7256  135.9729  160.3212 C   0  0  0  0  0  0  0  0  0  0  0  0
  146.9017  134.6970  160.3327 C   0  0  0  0  0  0  0  0  0  0  0  0
  147.5533  133.8338  159.2331 C   0  0  2  0  0  0  0  0  0  0  0  0
  148.3069  132.5705  159.7599 C   0  0  1  0  0  0  0  0  0  0  0  0
  147.6120  131.9223  160.9863 C   0  0  0  0  0  0  0  0  0  0  0  0
  148.3798  130.6922  161.4882 C   0  0  0  0  0  0  0  0  0  0  0  0
  148.5579  129.6862  160.3458 C   0  0  0  0  0  0  0  0  0  0  0  0
  149.2479  130.3528  159.1483 C   0  0  0  0  0  0  0  0  0  0  0  0
  148.5271  131.5504  158.7183 N   0  0  0  0  0  0  0  0  0  0  0  0
  149.0115  131.9926  157.5367 C   0  0  0  0  0  0  0  0  0  0  0  0
  150.2879  132.4485  157.5223 N   0  0  0  0  0  0  0  0  0  0  0  0
  150.8341  132.8642  156.3756 C   0  0  0  0  0  0  0  0  0  0  0  0
  150.2910  132.9002  155.1566 N   0  0  0  0  0  0  0  0  0  0  0  0
  149.0036  132.4499  155.1730 C   0  0  0  0  0  0  0  0  0  0  0  0
  148.2853  131.9943  156.3129 C   0  0  0  0  0  0  0  0  0  0  0  0
  146.9950  131.6292  155.9479 N   0  0  0  0  0  0  0  0  0  0  0  0
  146.9594  131.8372  154.6604 C   0  0  0  0  0  0  0  0  0  0  0  0
  148.1322  132.3016  154.1086 N   0  0  0  0  0  0  0  0  0  0  0  0
  148.3823  132.5812  152.7058 C   0  0  0  0  0  0  0  0  0  0  0  0
  147.3313  133.5220  152.0695 C   0  0  2  0  0  0  0  0  0  0  0  0
  147.1232  134.6161  152.9386 O   0  0  0  0  0  0  0  0  0  0  0  0
  145.9582  132.9059  151.7061 C   0  0  2  0  0  0  0  0  0  0  0  0
  145.9717  131.6956  150.7695 C   0  0  0  0  0  0  0  0  0  0  0  0
  144.5574  131.7195  150.2334 C   0  0  0  0  0  0  0  0  0  0  0  0
  144.2917  133.2170  150.0960 C   0  0  0  0  0  0  0  0  0  0  0  0
  145.0874  133.8538  151.0927 O   0  0  0  0  0  0  0  0  0  0  0  0
  148.4623  134.8047  158.4493 C   0  0  0  0  0  0  0  0  0  0  0  0
  148.5560  135.9885  159.2807 N   0  0  0  0  0  0  0  0  0  0  0  0
  146.9099  134.2256  161.3156 H   0  0  0  0  0  0  0  0  0  0  0  0
  145.8675  134.9355  160.0820 H   0  0  0  0  0  0  0  0  0  0  0  0
  146.7738  133.5200  158.5387 H   0  0  0  0  0  0  0  0  0  0  0  0
  149.2915  132.8981  160.0946 H   0  0  0  0  0  0  0  0  0  0  0  0
  147.5186  132.6362  161.8038 H   0  0  0  0  0  0  0  0  0  0  0  0
  146.5968  131.6189  160.7301 H   0  0  0  0  0  0  0  0  0  0  0  0
  149.3553  130.9948  161.8708 H   0  0  0  0  0  0  0  0  0  0  0  0
  147.8464  130.2284  162.3184 H   0  0  0  0  0  0  0  0  0  0  0  0
  149.1417  128.8305  160.6858 H   0  0  0  0  0  0  0  0  0  0  0  0
  147.5850  129.2992  160.0401 H   0  0  0  0  0  0  0  0  0  0  0  0
  150.2703  130.6233  159.4162 H   0  0  0  0  0  0  0  0  0  0  0  0
  149.3135  129.6404  158.3244 H   0  0  0  0  0  0  0  0  0  0  0  0
  151.8554  133.2089  156.4425 H   0  0  0  0  0  0  0  0  0  0  0  0
  146.0761  131.6350  154.0720 H   0  0  0  0  0  0  0  0  0  0  0  0
  149.3812  133.0098  152.6141 H   0  0  0  0  0  0  0  0  0  0  0  0
  148.4068  131.6311  152.1705 H   0  0  0  0  0  0  0  0  0  0  0  0
  147.7545  133.9396  151.1554 H   0  0  0  0  0  0  0  0  0  0  0  0
  147.6478  135.3425  152.6384 H   0  0  0  0  0  0  0  0  0  0  0  0
  145.4558  132.6112  152.6294 H   0  0  0  0  0  0  0  0  0  0  0  0
  146.6748  131.8274  149.9483 H   0  0  0  0  0  0  0  0  0  0  0  0
  146.2177  130.7652  151.2821 H   0  0  0  0  0  0  0  0  0  0  0  0
  144.4454  131.1791  149.2930 H   0  0  0  0  0  0  0  0  0  0  0  0
  143.8740  131.2827  150.9627 H   0  0  0  0  0  0  0  0  0  0  0  0
  144.6139  133.5719  149.1168 H   0  0  0  0  0  0  0  0  0  0  0  0
  143.2360  133.4637  150.2120 H   0  0  0  0  0  0  0  0  0  0  0  0
  149.4477  134.3927  158.2312 H   0  0  0  0  0  0  0  0  0  0  0  0
  148.0056  135.0816  157.4982 H   0  0  0  0  0  0  0  0  0  0  0  0
  149.1951  136.7443  159.0802 H   0  0  0  0  0  0  0  0  0  0  0  0
  1  2  2  0  0  0  0
  2 29  1  0  0  0  0
  2  3  1  0  0  0  0
  3  4  1  0  0  0  0
  3 30  1  0  0  0  0
  3 31  1  0  0  0  0
  4  5  1  0  0  0  0
  4 28  1  0  0  0  0
  4 32  1  0  0  0  0
  5 10  1  0  0  0  0
  5  6  1  0  0  0  0
  5 33  1  0  0  0  0
  6  7  1  0  0  0  0
  6 34  1  0  0  0  0
  6 35  1  0  0  0  0
  7  8  1  0  0  0  0
  7 36  1  0  0  0  0
  7 37  1  0  0  0  0
  8  9  1  0  0  0  0
  8 38  1  0  0  0  0
  8 39  1  0  0  0  0
  9 10  1  0  0  0  0
  9 40  1  0  0  0  0
  9 41  1  0  0  0  0
 10 11  1  0  0  0  0
 11 16  1  0  0  0  0
 11 12  2  0  0  0  0
 12 13  1  0  0  0  0
 13 14  2  0  0  0  0
 13 42  1  0  0  0  0
 14 15  1  0  0  0  0
 15 19  1  0  0  0  0
 15 16  2  0  0  0  0
 16 17  1  0  0  0  0
 17 18  2  0  0  0  0
 18 19  1  0  0  0  0
 18 43  1  0  0  0  0
 19 20  1  0  0  0  0
 20 21  1  0  0  0  0
 20 44  1  0  0  0  0
 20 45  1  0  0  0  0
 21 22  1  0  0  0  0
 21 23  1  0  0  0  0
 21 46  1  0  0  0  0
 22 47  1  0  0  0  0
 23 27  1  0  0  0  0
 23 24  1  0  0  0  0
 23 48  1  0  0  0  0
 24 25  1  0  0  0  0
 24 49  1  0  0  0  0
 24 50  1  0  0  0  0
 25 26  1  0  0  0  0
 25 51  1  0  0  0  0
 25 52  1  0  0  0  0
 26 27  1  0  0  0  0
 26 53  1  0  0  0  0
 26 54  1  0  0  0  0
 28 29  1  0  0  0  0
 28 55  1  0  0  0  0
 28 56  1  0  0  0  0
 29 57  1  0  0  0  0
M  END
> <s_m_source_file>
AV-unprocessed.smi

> <i_m_source_file_index>
203

> <i_lp_mmshare_version>
43012

> <i_f3d_flags>
0

> <s_epik_input>
Tz1DMVtDSDJdW0NASF0oW0NIMl1bTkhdMSlbQ0BASF0yW0NIMl1bQ0gyXVtDSDJdW0NIMl1OMmMobltjSF1uMyljKGMzNCluW2NIXW40W0NIMl1bQ0BIXShbT0hdKVtDQEBIXTVbQ0gyXVtDSDJdW0NIMl1PNQ==

> <s_epik_cmdline>
J2VwaWtfcHl0aG9uJywgJy1waCcsICc3LjAnLCAnLXRuJywgJzgnLCAnLW1hJywgJzIwMCcsICctbWV0YWxfYmluZGluZycsICctaW1hZScsICc8aW5maWxlLm1hZT4nLCAnLW9tYWUnLCAnPG91dGZpbGUubWFlPic=

> <r_lp_tautomer_probability>
1

> <r_epik_Ionization_Penalty>
0.00175146

> <r_epik_Ionization_Penalty_Charging>
0

> <r_epik_Ionization_Penalty_Neutral>
0.00175146

> <r_epik_State_Penalty>
0.00109045

> <r_epik_Charging_Adjusted_Penalty>
0.00109045

> <i_epik_Tot_Q>
0

> <i_epik_Tot_abs_Q>
0

> <r_epik_Metal_State_Penalty>
-0

> <b_epik_Metal_Only>
0

> <s_lp_Force_Field>
OPLS_2005

> <r_lp_Energy>
55.4262

> <b_lp_Chiralities_Consistent>
1

> <s_lp_Variant>
AV-unprocessed.smi:203-4

> <Gold.Version>
5.8.1

> <Gold.Id.Protein>
6NUR|6NUR_protein|mol2

> <Gold.PLP.Fitness>
46.8443

> <Gold.PLP.PLP>
-36.5142

> <Gold.PLP.part.hbond>
-4.0000

> <Gold.PLP.part.metal>
0.0000

> <Gold.PLP.part.buried>
-4.5082

> <Gold.PLP.part.nonpolar>
-28.1805

> <Gold.PLP.part.repulsive>
0.3444

> <Gold.PLP.ligand.clash>
0.0000

> <Gold.PLP.ligand.torsion>
0.6981

> <Gold.PLP.Chemscore.Hbond>
3.8240

> <Gold.PLP.Chemscore.CHOScore>
0.0000

> <Gold.PLP.Chemscore.Metal>
0.0000

> <Gold.Chemscore.Hbonds>
donor molecule, donor type, donor heavy atom, donor atom, acceptor molecule, acceptor atom, score
      L1  H    22    47       P1  7948  1.00
      P1  H  6896  6908       L1    12  0.73
      P1  H  6931  6943       L1     1  0.78
      P1  H  6934  6947       L1     1  0.49

> <Gold.PLP.Chemscore.Internal.Correction>
0.2544

> <Gold.Rescore>
     Score         DG    S(hbond)    S(metal)    S(lipo)     H(rot)  DE(clash)    DE(int)     intcor
     17.97     -19.72       3.56        0.00      79.63       2.72       0.05       1.71       ----

> <Gold.Chemscore.Fitness>
17.9675

> <Gold.Chemscore.DG>
-19.7234

> <Gold.Chemscore.ZeroCoef>
-5.4800

> <Gold.Chemscore.Hbond>
3.5575

> <Gold.Chemscore.Metal>
0.0000

> <Gold.Chemscore.Lipo>
79.6341

> <Gold.Chemscore.Internal_Hbond>
0.0000

> <Gold.Chemscore.DEClash>
0.0477

> <Gold.Chemscore.DEInternal>
1.7082

> <Gold.Chemscore.Rot>
2.7171

> <Gold.Chemscore.Internal.Correction>
   9.000000E+99

> <Gold.Chemscore.Hbonds>
donor molecule, donor type, donor heavy atom, donor atom, acceptor molecule, acceptor atom, score
      L1  H    22    47       P1  7948  0.99
      P1  H  6896  6908       L1    12  0.58
      P1  H  6931  6943       L1     1  0.74
      P1  H  6934  6947       L1     1  0.47

> <Gold.Chemscore.Hbond.Weighted>
-11.8819

> <Gold.Chemscore.Metal.Weighted>
-0.0000

> <Gold.Chemscore.Lipo.Weighted>
-9.3172

> <Gold.Chemscore.Internal_Hbond.Weighted>
0.0000

> <Gold.Chemscore.DEClash.Weighted>
0.0477

> <Gold.Chemscore.DEInternal.Weighted>
1.7082

> <Gold.Chemscore.Rot.Weighted>
6.9557

> <Gold.Chemscore.Internal.Correction.Weighted>
   9.000000E+99

> <Gold.Protein.RotatedTorsions>
[ 6907 6896 6895 6894 ] final  101.10 input  -60.11 | X-H torsion
[ 7974 7965 7964 7962 ] final  134.90 input  175.53 | X-H torsion
[ 8008 7997 7996 7995 ] final -148.48 input   59.86 | X-H torsion
[ 10167 10162 10161 10158 ] final   17.05 input  -65.29 | X-H torsion
[ 10718 10713 10712 10709 ] final -132.21 input   66.30 | X-H torsion
[ 10763 10752 10751 10750 ] final   27.93 input  -60.55 | X-H torsion
[ 11005 11000 10999 10996 ] final  -21.64 input  -57.11 | X-H torsion

> <Gold.Protein.ActiveResidues>
 VAL166  LYS551  ARG553  GLY616  TRP617  ASP618  TYR619  PRO620  LYS621  CYS622 
 ASP623  PHE694  ASN695  SER759  ASP760  ASP761  ALA762  ILE779  LEU786  VAL792 
 PHE793  MET794  SER795  GLU796  ALA797  LYS798  CYS799  TRP800  GLU811  SER814 

> <Gold.Protein.RotatedAtoms>
  152.5357  134.0177  159.7966 H   0  0  0  0  0  0  0  0  0  0  0  0  # atno 6907 bound_to 6896
  151.0368  133.5733  159.2662 H   0  0  0  0  0  0  0  0  0  0  0  0  # atno 6908 bound_to 6896
  151.2718  135.0694  159.9190 H   0  0  0  0  0  0  0  0  0  0  0  0  # atno 6909 bound_to 6896
  144.9717  139.4598  143.5430 H   0  0  0  0  0  0  0  0  0  0  0  0  # atno 7974 bound_to 7965
  155.5923  140.0654  157.2755 H   0  0  0  0  0  0  0  0  0  0  0  0  # atno 8008 bound_to 7997
  154.4301  140.1833  156.1135 H   0  0  0  0  0  0  0  0  0  0  0  0  # atno 8009 bound_to 7997
  156.0223  140.3315  155.7055 H   0  0  0  0  0  0  0  0  0  0  0  0  # atno 8010 bound_to 7997
  140.5754  143.9083  150.6746 H   0  0  0  0  0  0  0  0  0  0  0  0  # atno 10167 bound_to 10162
  156.2323  130.7045  151.0871 H   0  0  0  0  0  0  0  0  0  0  0  0  # atno 10718 bound_to 10713
  153.0524  135.6525  154.0660 H   0  0  0  0  0  0  0  0  0  0  0  0  # atno 10763 bound_to 10752
  154.0346  135.2908  155.3365 H   0  0  0  0  0  0  0  0  0  0  0  0  # atno 10764 bound_to 10752
  154.6820  135.5316  153.8343 H   0  0  0  0  0  0  0  0  0  0  0  0  # atno 10765 bound_to 10752
  140.8581  133.7808  156.0042 H   0  0  0  0  0  0  0  0  0  0  0  0  # atno 11005 bound_to 11000
  146.3384  139.8933  142.8805 LP  0  0  0  0  0  0  0  0  0  0  0  0  # atno 17320 bound_to 7965
  145.2549  141.0057  143.3859 LP  0  0  0  0  0  0  0  0  0  0  0  0  # atno 17321 bound_to 7965
  140.2568  143.3552  152.1357 LP  0  0  0  0  0  0  0  0  0  0  0  0  # atno 17342 bound_to 10162
  139.5140  144.6941  151.5680 LP  0  0  0  0  0  0  0  0  0  0  0  0  # atno 17343 bound_to 10162
  157.7138  131.0720  150.6402 LP  0  0  0  0  0  0  0  0  0  0  0  0  # atno 17370 bound_to 10713
  156.6470  130.4474  149.5732 LP  0  0  0  0  0  0  0  0  0  0  0  0  # atno 17371 bound_to 10713
  140.8714  134.2721  157.5189 LP  0  0  0  0  0  0  0  0  0  0  0  0  # atno 17394 bound_to 11000
  139.8706  134.9569  156.4252 LP  0  0  0  0  0  0  0  0  0  0  0  0  # atno 17395 bound_to 11000

$$$$
