AV-unprocessed.smi:2988|AV-procd|sdf|11387|dock6
  -GOLD-   2272016313D 1   1.00000     0.00000
 Structure written by MMmdl.
 37 38  0  0  0  0  0  0  0  0  1 V2000
  151.4192  142.9453  157.1384 C   0  0  0  0  0  0  0  0  0  0  0  0
  151.7281  142.0348  158.3410 C   0  0  2  0  0  0  0  0  0  0  0  0
  152.6986  142.7364  159.3134 C   0  0  0  0  0  0  0  0  0  0  0  0
  153.0179  141.8629  160.5361 C   0  0  0  0  0  0  0  0  0  0  0  0
  153.5800  140.5004  160.1087 C   0  0  0  0  0  0  0  0  0  0  0  0
  152.6159  139.7838  159.1523 C   0  0  0  0  0  0  0  0  0  0  0  0
  152.2874  140.6504  157.9208 C   0  0  1  0  0  0  0  0  0  0  0  0
  151.3306  139.9318  157.0802 N   0  0  0  0  0  0  0  0  0  0  0  0
  151.5118  139.5916  155.7946 C   0  0  0  0  0  0  0  0  0  0  0  0
  152.5441  139.8319  155.1669 O   0  0  0  0  0  0  0  0  0  0  0  0
  150.3440  138.8564  155.1218 C   0  0  0  0  0  0  0  0  0  0  0  0
  149.1721  139.7176  154.9052 N   0  0  0  0  0  0  0  0  0  0  0  0
  149.4780  140.9783  154.4236 N   0  0  0  0  0  0  0  0  0  0  0  0
  148.5292  141.8245  154.2142 C   0  0  0  0  0  0  0  0  0  0  0  0
  147.1409  141.5026  154.4607 C   0  0  0  0  0  0  0  0  0  0  0  0
  145.9113  142.6795  154.1607 Cl  0  0  0  0  0  0  0  0  0  0  0  0
  146.8513  140.2616  154.9265 C   0  0  0  0  0  0  0  0  0  0  0  0
  145.2135  139.8018  155.2432 Cl  0  0  0  0  0  0  0  0  0  0  0  0
  147.9071  139.2709  155.1775 C   0  0  0  0  0  0  0  0  0  0  0  0
  147.6852  138.1343  155.5978 O   0  0  0  0  0  0  0  0  0  0  0  0
  152.3062  143.1033  156.5243 H   0  0  0  0  0  0  0  0  0  0  0  0
  151.0641  143.9222  157.4673 H   0  0  0  0  0  0  0  0  0  0  0  0
  150.6439  142.5214  156.5002 H   0  0  0  0  0  0  0  0  0  0  0  0
  150.7901  141.8729  158.8746 H   0  0  0  0  0  0  0  0  0  0  0  0
  153.6253  142.9831  158.7931 H   0  0  0  0  0  0  0  0  0  0  0  0
  152.2730  143.6834  159.6473 H   0  0  0  0  0  0  0  0  0  0  0  0
  153.7332  142.3737  161.1815 H   0  0  0  0  0  0  0  0  0  0  0  0
  152.1144  141.7176  161.1296 H   0  0  0  0  0  0  0  0  0  0  0  0
  154.5455  140.6385  159.6203 H   0  0  0  0  0  0  0  0  0  0  0  0
  153.7627  139.8804  160.9870 H   0  0  0  0  0  0  0  0  0  0  0  0
  153.0538  138.8360  158.8357 H   0  0  0  0  0  0  0  0  0  0  0  0
  151.6974  139.5356  159.6863 H   0  0  0  0  0  0  0  0  0  0  0  0
  153.2184  140.8097  157.3736 H   0  0  0  0  0  0  0  0  0  0  0  0
  150.4502  139.6872  157.5098 H   0  0  0  0  0  0  0  0  0  0  0  0
  150.7020  138.4542  154.1724 H   0  0  0  0  0  0  0  0  0  0  0  0
  150.0588  137.9878  155.7187 H   0  0  0  0  0  0  0  0  0  0  0  0
  148.7222  142.8296  153.8391 H   0  0  0  0  0  0  0  0  0  0  0  0
  1  2  1  0  0  0  0
  1 21  1  0  0  0  0
  1 22  1  0  0  0  0
  1 23  1  0  0  0  0
  2  7  1  0  0  0  0
  2  3  1  0  0  0  0
  2 24  1  0  0  0  0
  3  4  1  0  0  0  0
  3 25  1  0  0  0  0
  3 26  1  0  0  0  0
  4  5  1  0  0  0  0
  4 27  1  0  0  0  0
  4 28  1  0  0  0  0
  5  6  1  0  0  0  0
  5 29  1  0  0  0  0
  5 30  1  0  0  0  0
  6  7  1  0  0  0  0
  6 31  1  0  0  0  0
  6 32  1  0  0  0  0
  7  8  1  0  0  0  0
  7 33  1  0  0  0  0
  8  9  1  0  0  0  0
  8 34  1  0  0  0  0
  9 10  2  0  0  0  0
  9 11  1  0  0  0  0
 11 12  1  0  0  0  0
 11 35  1  0  0  0  0
 11 36  1  0  0  0  0
 12 19  1  0  0  0  0
 12 13  1  0  0  0  0
 13 14  2  0  0  0  0
 14 15  1  0  0  0  0
 14 37  1  0  0  0  0
 15 16  1  0  0  0  0
 15 17  2  0  0  0  0
 17 18  1  0  0  0  0
 17 19  1  0  0  0  0
 19 20  2  0  0  0  0
M  END
> <s_m_source_file>
AV-unprocessed.smi

> <i_m_source_file_index>
2988

> <i_lp_mmshare_version>
43012

> <i_f3d_flags>
0

> <s_epik_input>
W0NIM11bQ0BASF0xW0NIMl1bQ0gyXVtDSDJdW0NIMl1bQ0BIXTFbTkhdQyg9TylbQ0gyXW4ybltjSF1jKENsKWMoQ2wpYzI9Tw==

> <s_epik_cmdline>
J2VwaWtfcHl0aG9uJywgJy1waCcsICc3LjAnLCAnLXRuJywgJzgnLCAnLW1hJywgJzIwMCcsICctbWV0YWxfYmluZGluZycsICctaW1hZScsICc8aW5maWxlLm1hZT4nLCAnLW9tYWUnLCAnPG91dGZpbGUubWFlPic=

> <r_lp_tautomer_probability>
1

> <r_epik_Ionization_Penalty>
1.90782e-08

> <r_epik_Ionization_Penalty_Charging>
3.13143e-11

> <r_epik_Ionization_Penalty_Neutral>
1.90469e-08

> <r_epik_State_Penalty>
-0

> <r_epik_Charging_Adjusted_Penalty>
3.13143e-11

> <i_epik_Tot_Q>
0

> <i_epik_Tot_abs_Q>
0

> <r_epik_Metal_State_Penalty>
-0

> <b_epik_Metal_Only>
0

> <s_lp_Force_Field>
OPLS_2005

> <r_lp_Energy>
24.1537

> <b_lp_Chiralities_Consistent>
1

> <s_lp_Variant>
AV-unprocessed.smi:2988-1

> <Gold.Version>
5.8.1

> <Gold.Id.Protein>
6NUR|6NUR_protein|mol2

> <Gold.PLP.Fitness>
41.7908

> <Gold.PLP.PLP>
-35.4820

> <Gold.PLP.part.hbond>
-2.9172

> <Gold.PLP.part.metal>
0.0000

> <Gold.PLP.part.buried>
-3.3983

> <Gold.PLP.part.nonpolar>
-30.4223

> <Gold.PLP.part.repulsive>
0.2671

> <Gold.PLP.ligand.clash>
0.0000

> <Gold.PLP.ligand.torsion>
0.3167

> <Gold.PLP.Chemscore.Hbond>
1.4755

> <Gold.PLP.Chemscore.CHOScore>
0.8370

> <Gold.PLP.Chemscore.Metal>
0.0000

> <Gold.Chemscore.Hbonds>
donor molecule, donor type, donor heavy atom, donor atom, acceptor molecule, acceptor atom, score
      P1  H  7989  7998       L1    10  0.42
      P1  H  7997  8008       L1    10  0.93
      L1  C    14    37       P1  8028  0.62

> <Gold.PLP.Chemscore.Internal.Correction>
0.0047

> <Gold.Rescore>
     Score         DG    S(hbond)    S(metal)    S(lipo)     H(rot)  DE(clash)    DE(int)     intcor
     17.15     -18.00       1.60        0.00      93.96       1.50       0.48       0.36       ----

> <Gold.Chemscore.Fitness>
17.1529

> <Gold.Chemscore.DG>
-17.9969

> <Gold.Chemscore.ZeroCoef>
-5.4800

> <Gold.Chemscore.Hbond>
1.6042

> <Gold.Chemscore.Metal>
0.0000

> <Gold.Chemscore.Lipo>
93.9564

> <Gold.Chemscore.Internal_Hbond>
0.0000

> <Gold.Chemscore.DEClash>
0.4814

> <Gold.Chemscore.DEInternal>
0.3627

> <Gold.Chemscore.Rot>
1.4977

> <Gold.Chemscore.Internal.Correction>
   9.000000E+99

> <Gold.Chemscore.Hbonds>
donor molecule, donor type, donor heavy atom, donor atom, acceptor molecule, acceptor atom, score
      P1  H  7989  7998       L1    13  0.10
      P1  H  7997  8008       L1    10  0.89

> <Gold.Chemscore.Hbond.Weighted>
-5.3581

> <Gold.Chemscore.Metal.Weighted>
-0.0000

> <Gold.Chemscore.Lipo.Weighted>
-10.9929

> <Gold.Chemscore.Internal_Hbond.Weighted>
0.0000

> <Gold.Chemscore.DEClash.Weighted>
0.4814

> <Gold.Chemscore.DEInternal.Weighted>
0.3627

> <Gold.Chemscore.Rot.Weighted>
3.8341

> <Gold.Chemscore.Internal.Correction.Weighted>
   9.000000E+99

> <Gold.Protein.RotatedTorsions>
[ 6907 6896 6895 6894 ] final  125.48 input  -60.11 | X-H torsion
[ 7974 7965 7964 7962 ] final -145.78 input  175.53 | X-H torsion
[ 8008 7997 7996 7995 ] final  -20.02 input   59.86 | X-H torsion
[ 10167 10162 10161 10158 ] final -179.04 input  -65.29 | X-H torsion
[ 10718 10713 10712 10709 ] final -126.07 input   66.30 | X-H torsion
[ 10763 10752 10751 10750 ] final  179.19 input  -60.55 | X-H torsion
[ 11005 11000 10999 10996 ] final  -59.45 input  -57.11 | X-H torsion

> <Gold.Protein.ActiveResidues>
 VAL166  LYS551  ARG553  GLY616  TRP617  ASP618  TYR619  PRO620  LYS621  CYS622 
 ASP623  PHE694  ASN695  SER759  ASP760  ASP761  ALA762  ILE779  LEU786  VAL792 
 PHE793  MET794  SER795  GLU796  ALA797  LYS798  CYS799  TRP800  GLU811  SER814 

> <Gold.Protein.RotatedAtoms>
  152.3988  133.6787  159.6298 H   0  0  0  0  0  0  0  0  0  0  0  0  # atno 6907 bound_to 6896
  150.7883  133.8827  159.3299 H   0  0  0  0  0  0  0  0  0  0  0  0  # atno 6908 bound_to 6896
  151.6597  135.0992  160.0228 H   0  0  0  0  0  0  0  0  0  0  0  0  # atno 6909 bound_to 6896
  144.8204  140.5539  143.5582 H   0  0  0  0  0  0  0  0  0  0  0  0  # atno 7974 bound_to 7965
  154.4798  140.2073  155.9791 H   0  0  0  0  0  0  0  0  0  0  0  0  # atno 8008 bound_to 7997
  156.1146  140.3223  155.8091 H   0  0  0  0  0  0  0  0  0  0  0  0  # atno 8009 bound_to 7997
  155.4574  140.0521  157.2985 H   0  0  0  0  0  0  0  0  0  0  0  0  # atno 8010 bound_to 7997
  139.5404  144.2379  152.0883 H   0  0  0  0  0  0  0  0  0  0  0  0  # atno 10167 bound_to 10162
  156.1732  130.6682  151.0208 H   0  0  0  0  0  0  0  0  0  0  0  0  # atno 10718 bound_to 10713
  154.5174  135.2792  155.1291 H   0  0  0  0  0  0  0  0  0  0  0  0  # atno 10763 bound_to 10752
  154.2862  135.6276  153.5370 H   0  0  0  0  0  0  0  0  0  0  0  0  # atno 10764 bound_to 10752
  152.9930  135.5663  154.5655 H   0  0  0  0  0  0  0  0  0  0  0  0  # atno 10765 bound_to 10752
  141.1248  133.6616  156.5073 H   0  0  0  0  0  0  0  0  0  0  0  0  # atno 11005 bound_to 11000
  145.5119  139.1479  143.3600 LP  0  0  0  0  0  0  0  0  0  0  0  0  # atno 17320 bound_to 7965
  146.2509  140.5260  142.8894 LP  0  0  0  0  0  0  0  0  0  0  0  0  # atno 17321 bound_to 7965
  140.1856  144.4802  150.6505 LP  0  0  0  0  0  0  0  0  0  0  0  0  # atno 17342 bound_to 10162
  140.6631  143.2259  151.5808 LP  0  0  0  0  0  0  0  0  0  0  0  0  # atno 17343 bound_to 10162
  157.6818  131.0836  150.7350 LP  0  0  0  0  0  0  0  0  0  0  0  0  # atno 17370 bound_to 10713
  156.7409  130.4739  149.5478 LP  0  0  0  0  0  0  0  0  0  0  0  0  # atno 17371 bound_to 10713
  140.4397  134.7026  157.4985 LP  0  0  0  0  0  0  0  0  0  0  0  0  # atno 17394 bound_to 11000
  140.0237  134.6509  155.9203 LP  0  0  0  0  0  0  0  0  0  0  0  0  # atno 17395 bound_to 11000

$$$$
