AV-unprocessed.smi:178|AV-procd|sdf|1447|dock10
  -GOLD-   2262019243D 1   1.00000     0.00000
 Structure written by MMmdl.
 50 52  0  0  0  0  0  0  0  0  1 V2000
  149.9485  132.2951  156.5444 C   0  0  0  0  0  0  0  0  0  0  0  0
  149.4222  132.4168  157.8544 O   0  0  0  0  0  0  0  0  0  0  0  0
  148.0450  132.7508  157.8573 C   0  0  0  0  0  0  0  0  0  0  0  0
  147.5004  132.5817  159.2843 C   0  0  0  0  0  0  0  0  0  0  0  0
  147.5339  133.8273  160.0541 N   0  0  0  0  0  0  0  0  0  0  0  0
  147.6285  133.7495  161.5095 C   0  0  0  0  0  0  0  0  0  0  0  0
  146.7141  134.7595  162.2152 C   0  0  0  0  0  0  0  0  0  0  0  0
  147.2782  136.1167  162.2175 C   0  0  0  0  0  0  0  0  0  0  0  0
  147.7216  137.1852  162.2193 N   0  0  0  0  0  0  0  0  0  0  0  0
  147.3134  135.0183  159.4255 C   0  0  0  0  0  0  0  0  0  0  0  0
  146.0536  135.2808  158.9847 N   0  0  0  0  0  0  0  0  0  0  0  0
  145.7686  136.4253  158.3596 C   0  0  0  0  0  0  0  0  0  0  0  0
  146.5817  137.4404  158.0712 N   0  0  0  0  0  0  0  0  0  0  0  0
  147.8491  137.1958  158.5080 C   0  0  0  0  0  0  0  0  0  0  0  0
  148.3001  136.0267  159.1899 C   0  0  0  0  0  0  0  0  0  0  0  0
  149.6526  136.1654  159.4880 N   0  0  0  0  0  0  0  0  0  0  0  0
  149.9798  137.3318  159.0061 C   0  0  0  0  0  0  0  0  0  0  0  0
  148.9589  138.0144  158.3886 N   0  0  0  0  0  0  0  0  0  0  0  0
  149.0428  139.3237  157.7606 C   0  0  0  0  0  0  0  0  0  0  0  0
  150.1966  139.4453  156.7359 C   0  0  1  0  0  0  0  0  0  0  0  0
  151.4281  139.4519  157.4399 O   0  0  0  0  0  0  0  0  0  0  0  0
  150.2231  138.2830  155.7539 C   0  0  0  0  0  0  0  0  0  0  0  0
  150.9333  138.8836  154.5486 C   0  0  0  0  0  0  0  0  0  0  0  0
  150.4265  140.2077  154.4810 O   0  0  0  0  0  0  0  0  0  0  0  0
  150.0919  140.6688  155.7893 C   0  0  2  0  0  0  0  0  0  0  0  0
  150.9446  141.8987  156.1485 C   0  0  0  0  0  0  0  0  0  0  0  0
  151.0046  132.0300  156.5978 H   0  0  0  0  0  0  0  0  0  0  0  0
  149.8644  133.2346  155.9967 H   0  0  0  0  0  0  0  0  0  0  0  0
  149.4335  131.5148  155.9824 H   0  0  0  0  0  0  0  0  0  0  0  0
  147.9127  133.7790  157.5173 H   0  0  0  0  0  0  0  0  0  0  0  0
  147.5067  132.1043  157.1634 H   0  0  0  0  0  0  0  0  0  0  0  0
  146.4692  132.2314  159.2292 H   0  0  0  0  0  0  0  0  0  0  0  0
  148.0473  131.7974  159.8089 H   0  0  0  0  0  0  0  0  0  0  0  0
  147.3511  132.7416  161.8197 H   0  0  0  0  0  0  0  0  0  0  0  0
  148.6623  133.8678  161.8325 H   0  0  0  0  0  0  0  0  0  0  0  0
  145.7380  134.8085  161.7332 H   0  0  0  0  0  0  0  0  0  0  0  0
  146.5481  134.4684  163.2521 H   0  0  0  0  0  0  0  0  0  0  0  0
  144.7422  136.5436  158.0452 H   0  0  0  0  0  0  0  0  0  0  0  0
  150.9834  137.7239  159.0834 H   0  0  0  0  0  0  0  0  0  0  0  0
  148.0862  139.5397  157.2824 H   0  0  0  0  0  0  0  0  0  0  0  0
  149.1622  140.0669  158.5502 H   0  0  0  0  0  0  0  0  0  0  0  0
  151.4253  140.1802  158.0421 H   0  0  0  0  0  0  0  0  0  0  0  0
  150.7158  137.3905  156.1418 H   0  0  0  0  0  0  0  0  0  0  0  0
  149.2079  138.0047  155.4668 H   0  0  0  0  0  0  0  0  0  0  0  0
  152.0114  138.9182  154.7112 H   0  0  0  0  0  0  0  0  0  0  0  0
  150.7427  138.3326  153.6275 H   0  0  0  0  0  0  0  0  0  0  0  0
  149.0493  140.9817  155.7265 H   0  0  0  0  0  0  0  0  0  0  0  0
  150.7196  142.2593  157.1521 H   0  0  0  0  0  0  0  0  0  0  0  0
  150.7523  142.7160  155.4531 H   0  0  0  0  0  0  0  0  0  0  0  0
  152.0108  141.6760  156.1021 H   0  0  0  0  0  0  0  0  0  0  0  0
  1  2  1  0  0  0  0
  1 27  1  0  0  0  0
  1 28  1  0  0  0  0
  1 29  1  0  0  0  0
  2  3  1  0  0  0  0
  3  4  1  0  0  0  0
  3 30  1  0  0  0  0
  3 31  1  0  0  0  0
  4  5  1  0  0  0  0
  4 32  1  0  0  0  0
  4 33  1  0  0  0  0
  5  6  1  0  0  0  0
  5 10  1  0  0  0  0
  6  7  1  0  0  0  0
  6 34  1  0  0  0  0
  6 35  1  0  0  0  0
  7  8  1  0  0  0  0
  7 36  1  0  0  0  0
  7 37  1  0  0  0  0
  8  9  3  0  0  0  0
 10 15  1  0  0  0  0
 10 11  2  0  0  0  0
 11 12  1  0  0  0  0
 12 13  2  0  0  0  0
 12 38  1  0  0  0  0
 13 14  1  0  0  0  0
 14 18  1  0  0  0  0
 14 15  2  0  0  0  0
 15 16  1  0  0  0  0
 16 17  2  0  0  0  0
 17 18  1  0  0  0  0
 17 39  1  0  0  0  0
 18 19  1  0  0  0  0
 19 20  1  0  0  0  0
 19 40  1  0  0  0  0
 19 41  1  0  0  0  0
 20 25  1  0  0  0  0
 20 21  1  0  0  0  0
 20 22  1  0  0  0  0
 21 42  1  0  0  0  0
 22 23  1  0  0  0  0
 22 43  1  0  0  0  0
 22 44  1  0  0  0  0
 23 24  1  0  0  0  0
 23 45  1  0  0  0  0
 23 46  1  0  0  0  0
 24 25  1  0  0  0  0
 25 26  1  0  0  0  0
 25 47  1  0  0  0  0
 26 48  1  0  0  0  0
 26 49  1  0  0  0  0
 26 50  1  0  0  0  0
M  END
> <s_m_source_file>
AV-unprocessed.smi

> <i_m_source_file_index>
178

> <i_lp_mmshare_version>
43012

> <i_f3d_flags>
0

> <s_epik_input>
W0NIM11PW0NIMl1bQ0gyXU4oW0NIMl1bQ0gyXUMjTiljKG5bY0hdbjEpYyhjMTIpbltjSF1uMltDSDJdW0NAQF0zKFtPSF0pW0NIMl1bQ0gyXU9bQ0BIXTNbQ0gzXQ==

> <s_epik_cmdline>
J2VwaWtfcHl0aG9uJywgJy1waCcsICc3LjAnLCAnLXRuJywgJzgnLCAnLW1hJywgJzIwMCcsICctbWV0YWxfYmluZGluZycsICctaW1hZScsICc8aW5maWxlLm1hZT4nLCAnLW9tYWUnLCAnPG91dGZpbGUubWFlPic=

> <r_lp_tautomer_probability>
1

> <r_epik_Ionization_Penalty>
0.000885317

> <r_epik_Ionization_Penalty_Charging>
0

> <r_epik_Ionization_Penalty_Neutral>
0.000885317

> <r_epik_State_Penalty>
0.00047273

> <r_epik_Charging_Adjusted_Penalty>
0.00047273

> <i_epik_Tot_Q>
0

> <i_epik_Tot_abs_Q>
0

> <r_epik_Metal_State_Penalty>
-0

> <b_epik_Metal_Only>
0

> <s_lp_Force_Field>
OPLS_2005

> <r_lp_Energy>
28.3017

> <b_lp_Chiralities_Consistent>
1

> <s_lp_Variant>
AV-unprocessed.smi:178-3

> <Gold.Version>
5.8.1

> <Gold.Id.Protein>
6NUR|6NUR_protein|mol2

> <Gold.PLP.Fitness>
43.2820

> <Gold.PLP.PLP>
-35.1583

> <Gold.PLP.part.hbond>
-4.9622

> <Gold.PLP.part.metal>
0.0000

> <Gold.PLP.part.buried>
-5.8603

> <Gold.PLP.part.nonpolar>
-24.2312

> <Gold.PLP.part.repulsive>
0.0934

> <Gold.PLP.ligand.clash>
0.0000

> <Gold.PLP.ligand.torsion>
2.5766

> <Gold.PLP.Chemscore.Hbond>
4.3765

> <Gold.PLP.Chemscore.CHOScore>
0.0000

> <Gold.PLP.Chemscore.Metal>
0.0000

> <Gold.Chemscore.Hbonds>
donor molecule, donor type, donor heavy atom, donor atom, acceptor molecule, acceptor atom, score
      P1  H  6896  6908       L1    16  1.00
      P1  H  6931  6943       L1     9  0.96
      P1  H  6934  6947       L1     9  0.19
      P1  H  7989  7998       L1    24  0.90

> <Gold.PLP.Chemscore.Internal.Correction>
0.1474

> <Gold.Rescore>
     Score         DG    S(hbond)    S(metal)    S(lipo)     H(rot)  DE(clash)    DE(int)     intcor
     12.92     -16.77       3.87        0.00      59.91       3.37       0.15       3.70       ----

> <Gold.Chemscore.Fitness>
12.9218

> <Gold.Chemscore.DG>
-16.7659

> <Gold.Chemscore.ZeroCoef>
-5.4800

> <Gold.Chemscore.Hbond>
3.8658

> <Gold.Chemscore.Metal>
0.0000

> <Gold.Chemscore.Lipo>
59.9094

> <Gold.Chemscore.Internal_Hbond>
0.0000

> <Gold.Chemscore.DEClash>
0.1461

> <Gold.Chemscore.DEInternal>
3.6980

> <Gold.Chemscore.Rot>
3.3732

> <Gold.Chemscore.Internal.Correction>
   9.000000E+99

> <Gold.Chemscore.Hbonds>
donor molecule, donor type, donor heavy atom, donor atom, acceptor molecule, acceptor atom, score
      P1  H  6896  6907       L1     2  0.01
      P1  H  6896  6908       L1    16  0.96
      P1  H  6931  6943       L1     9  0.92
      P1  H  6934  6947       L1     9  0.19
      P1  H  7989  7998       L1    24  0.18

> <Gold.Chemscore.Hbond.Weighted>
-12.9118

> <Gold.Chemscore.Metal.Weighted>
-0.0000

> <Gold.Chemscore.Lipo.Weighted>
-7.0094

> <Gold.Chemscore.Internal_Hbond.Weighted>
0.0000

> <Gold.Chemscore.DEClash.Weighted>
0.1461

> <Gold.Chemscore.DEInternal.Weighted>
3.6980

> <Gold.Chemscore.Rot.Weighted>
8.6354

> <Gold.Chemscore.Internal.Correction.Weighted>
   9.000000E+99

> <Gold.Protein.RotatedTorsions>
[ 6907 6896 6895 6894 ] final -158.85 input  -60.11 | X-H torsion
[ 7974 7965 7964 7962 ] final   71.26 input  175.53 | X-H torsion
[ 8008 7997 7996 7995 ] final  106.73 input   59.86 | X-H torsion
[ 10167 10162 10161 10158 ] final   50.27 input  -65.29 | X-H torsion
[ 10718 10713 10712 10709 ] final  -28.84 input   66.30 | X-H torsion
[ 10763 10752 10751 10750 ] final -109.90 input  -60.55 | X-H torsion
[ 11005 11000 10999 10996 ] final  123.83 input  -57.11 | X-H torsion

> <Gold.Protein.ActiveResidues>
 VAL166  LYS551  ARG553  GLY616  TRP617  ASP618  TYR619  PRO620  LYS621  CYS622 
 ASP623  PHE694  ASN695  SER759  ASP760  ASP761  ALA762  ILE779  LEU786  VAL792 
 PHE793  MET794  SER795  GLU796  ALA797  LYS798  CYS799  TRP800  GLU811  SER814 

> <Gold.Protein.RotatedAtoms>
  151.3245  133.4026  159.2657 H   0  0  0  0  0  0  0  0  0  0  0  0  # atno 6907 bound_to 6896
  151.0007  134.9320  159.7962 H   0  0  0  0  0  0  0  0  0  0  0  0  # atno 6908 bound_to 6896
  152.5274  134.3210  159.9201 H   0  0  0  0  0  0  0  0  0  0  0  0  # atno 6909 bound_to 6896
  145.7680  139.2830  143.1337 H   0  0  0  0  0  0  0  0  0  0  0  0  # atno 7974 bound_to 7965
  156.1767  140.3107  155.9072 H   0  0  0  0  0  0  0  0  0  0  0  0  # atno 8008 bound_to 7997
  155.3472  140.0469  157.3063 H   0  0  0  0  0  0  0  0  0  0  0  0  # atno 8009 bound_to 7997
  154.5298  140.2226  155.8835 H   0  0  0  0  0  0  0  0  0  0  0  0  # atno 8010 bound_to 7997
  140.2742  144.3230  150.6281 H   0  0  0  0  0  0  0  0  0  0  0  0  # atno 10167 bound_to 10162
  156.4200  130.4424  149.7190 H   0  0  0  0  0  0  0  0  0  0  0  0  # atno 10718 bound_to 10713
  154.8218  135.4584  154.0802 H   0  0  0  0  0  0  0  0  0  0  0  0  # atno 10763 bound_to 10752
  153.2149  135.6886  153.8075 H   0  0  0  0  0  0  0  0  0  0  0  0  # atno 10764 bound_to 10752
  153.7513  135.3297  155.3298 H   0  0  0  0  0  0  0  0  0  0  0  0  # atno 10765 bound_to 10752
  139.9331  134.9641  156.8319 H   0  0  0  0  0  0  0  0  0  0  0  0  # atno 11005 bound_to 11000
  146.0198  140.8358  142.9929 LP  0  0  0  0  0  0  0  0  0  0  0  0  # atno 17320 bound_to 7965
  144.6818  140.2612  143.7318 LP  0  0  0  0  0  0  0  0  0  0  0  0  # atno 17321 bound_to 7965
  140.5865  143.2170  151.7333 LP  0  0  0  0  0  0  0  0  0  0  0  0  # atno 17342 bound_to 10162
  139.4980  144.4004  152.0188 LP  0  0  0  0  0  0  0  0  0  0  0  0  # atno 17343 bound_to 10162
  156.4135  130.7733  151.2748 LP  0  0  0  0  0  0  0  0  0  0  0  0  # atno 17370 bound_to 10713
  157.7508  131.0204  150.3708 LP  0  0  0  0  0  0  0  0  0  0  0  0  # atno 17371 bound_to 10713
  140.6149  134.0048  155.7593 LP  0  0  0  0  0  0  0  0  0  0  0  0  # atno 17394 bound_to 11000
  141.0930  133.9887  157.3206 LP  0  0  0  0  0  0  0  0  0  0  0  0  # atno 17395 bound_to 11000

$$$$
