AV-unprocessed.smi:144|AV-procd|sdf|1196|dock4
  -GOLD-   2262018353D 1   1.00000     0.00000
 Structure written by MMmdl.
 46 48  0  0  0  0  0  0  0  0  1 V2000
  150.8123  137.2059  159.8725 O   0  0  0  0  0  0  0  0  0  0  0  0
  150.5853  137.5024  158.7005 C   0  0  0  0  0  0  0  0  0  0  0  0
  151.6145  138.3717  157.9540 C   0  0  0  0  0  0  0  0  0  0  0  0
  151.2308  139.7920  157.7784 N   0  0  0  0  0  0  0  0  0  0  0  0
  150.0358  140.0935  157.0784 C   0  0  0  0  0  0  0  0  0  0  0  0
  149.3228  139.1999  156.6200 O   0  0  0  0  0  0  0  0  0  0  0  0
  149.7324  141.5125  156.9305 C   0  0  0  0  0  0  0  0  0  0  0  0
  148.6219  141.8907  156.2753 F   0  0  0  0  0  0  0  0  0  0  0  0
  150.5562  142.4547  157.4334 C   0  0  0  0  0  0  0  0  0  0  0  0
  151.7202  142.1459  158.1135 N   0  0  0  0  0  0  0  0  0  0  0  0
  152.6319  143.2277  158.6506 C   0  0  1  0  0  0  0  0  0  0  0  0
  152.1622  144.6039  158.1655 C   0  0  0  0  0  0  0  0  0  0  0  0
  151.2708  145.0464  159.3054 C   0  0  0  0  0  0  0  0  0  0  0  0
  151.9956  144.4543  160.5091 C   0  0  0  0  0  0  0  0  0  0  0  0
  152.5661  143.2315  160.0480 O   0  0  0  0  0  0  0  0  0  0  0  0
  152.0878  140.7948  158.2914 C   0  0  0  0  0  0  0  0  0  0  0  0
  153.1383  140.4984  158.8648 O   0  0  0  0  0  0  0  0  0  0  0  0
  149.4766  137.1305  158.0297 N   0  0  0  0  0  0  0  0  0  0  0  0
  148.3893  136.3337  158.4769 C   0  0  0  0  0  0  0  0  0  0  0  0
  147.9834  136.4934  159.8170 C   0  0  0  0  0  0  0  0  0  0  0  0
  146.8989  135.7533  160.3345 C   0  0  0  0  0  0  0  0  0  0  0  0
  146.4717  135.9096  161.7863 C   0  0  0  0  0  0  0  0  0  0  0  0
  145.2030  136.3142  161.8542 F   0  0  0  0  0  0  0  0  0  0  0  0
  146.5814  134.7342  162.4040 F   0  0  0  0  0  0  0  0  0  0  0  0
  147.2290  136.8018  162.4258 F   0  0  0  0  0  0  0  0  0  0  0  0
  146.2161  134.8474  159.4963 C   0  0  0  0  0  0  0  0  0  0  0  0
  146.5966  134.6923  158.1460 C   0  0  0  0  0  0  0  0  0  0  0  0
  145.8588  133.7318  157.2251 C   0  0  0  0  0  0  0  0  0  0  0  0
  145.3570  134.4017  156.1874 F   0  0  0  0  0  0  0  0  0  0  0  0
  146.7104  132.8124  156.7716 F   0  0  0  0  0  0  0  0  0  0  0  0
  144.8567  133.1111  157.8488 F   0  0  0  0  0  0  0  0  0  0  0  0
  147.6800  135.4403  157.6402 C   0  0  0  0  0  0  0  0  0  0  0  0
  152.5677  138.2897  158.4785 H   0  0  0  0  0  0  0  0  0  0  0  0
  151.8124  137.9047  156.9879 H   0  0  0  0  0  0  0  0  0  0  0  0
  150.2847  143.4892  157.2848 H   0  0  0  0  0  0  0  0  0  0  0  0
  153.6405  142.9624  158.3296 H   0  0  0  0  0  0  0  0  0  0  0  0
  153.0307  145.2586  158.0833 H   0  0  0  0  0  0  0  0  0  0  0  0
  151.6601  144.5586  157.1982 H   0  0  0  0  0  0  0  0  0  0  0  0
  151.1572  146.1290  159.3658 H   0  0  0  0  0  0  0  0  0  0  0  0
  150.2792  144.6036  159.2041 H   0  0  0  0  0  0  0  0  0  0  0  0
  152.8019  145.1161  160.8283 H   0  0  0  0  0  0  0  0  0  0  0  0
  151.3333  144.2913  161.3596 H   0  0  0  0  0  0  0  0  0  0  0  0
  149.3733  137.5234  157.1054 H   0  0  0  0  0  0  0  0  0  0  0  0
  148.5176  137.1841  160.4532 H   0  0  0  0  0  0  0  0  0  0  0  0
  145.3931  134.2756  159.8984 H   0  0  0  0  0  0  0  0  0  0  0  0
  147.9428  135.3216  156.6003 H   0  0  0  0  0  0  0  0  0  0  0  0
  1  2  2  0  0  0  0
  2  3  1  0  0  0  0
  2 18  1  0  0  0  0
  3  4  1  0  0  0  0
  3 33  1  0  0  0  0
  3 34  1  0  0  0  0
  4 16  1  0  0  0  0
  4  5  1  0  0  0  0
  5  6  2  0  0  0  0
  5  7  1  0  0  0  0
  7  8  1  0  0  0  0
  7  9  2  0  0  0  0
  9 10  1  0  0  0  0
  9 35  1  0  0  0  0
 10 11  1  0  0  0  0
 10 16  1  0  0  0  0
 11 15  1  0  0  0  0
 11 12  1  0  0  0  0
 11 36  1  0  0  0  0
 12 13  1  0  0  0  0
 12 37  1  0  0  0  0
 12 38  1  0  0  0  0
 13 14  1  0  0  0  0
 13 39  1  0  0  0  0
 13 40  1  0  0  0  0
 14 15  1  0  0  0  0
 14 41  1  0  0  0  0
 14 42  1  0  0  0  0
 16 17  2  0  0  0  0
 18 19  1  0  0  0  0
 18 43  1  0  0  0  0
 19 32  1  0  0  0  0
 19 20  2  0  0  0  0
 20 21  1  0  0  0  0
 20 44  1  0  0  0  0
 21 22  1  0  0  0  0
 21 26  2  0  0  0  0
 22 23  1  0  0  0  0
 22 24  1  0  0  0  0
 22 25  1  0  0  0  0
 26 27  1  0  0  0  0
 26 45  1  0  0  0  0
 27 28  1  0  0  0  0
 27 32  2  0  0  0  0
 28 29  1  0  0  0  0
 28 30  1  0  0  0  0
 28 31  1  0  0  0  0
 32 46  1  0  0  0  0
M  END
> <s_m_source_file>
AV-unprocessed.smi

> <i_m_source_file_index>
144

> <i_lp_mmshare_version>
43012

> <i_f3d_flags>
0

> <s_epik_input>
RkMoRikoRiljKFtjSF0xKVtjSF1jKEMoRikoRilGKVtjSF1jMVtOSF1DKD1PKVtDSDJdbjJjKD1PKWMoRilbY0hdbihjMj1PKVtDQEBIXTNbQ0gyXVtDSDJdW0NIMl1PMw==

> <s_epik_cmdline>
J2VwaWtfcHl0aG9uJywgJy1waCcsICc3LjAnLCAnLXRuJywgJzgnLCAnLW1hJywgJzIwMCcsICctbWV0YWxfYmluZGluZycsICctaW1hZScsICc8aW5maWxlLm1hZT4nLCAnLW9tYWUnLCAnPG91dGZpbGUubWFlPic=

> <r_lp_tautomer_probability>
1

> <r_epik_Ionization_Penalty>
3.68082e-06

> <r_epik_Ionization_Penalty_Charging>
3.88729e-08

> <r_epik_Ionization_Penalty_Neutral>
3.64194e-06

> <r_epik_State_Penalty>
-0

> <r_epik_Charging_Adjusted_Penalty>
3.88729e-08

> <i_epik_Tot_Q>
0

> <i_epik_Tot_abs_Q>
0

> <r_epik_Metal_State_Penalty>
-0

> <b_epik_Metal_Only>
0

> <s_epik_Chemistry_Notes>
This compound contains an acetal/aminal-like group ( X-CH(R)-Y where X, Y are N, S, or O) that may be acid/base labile, releasing an aldehyde.

> <s_lp_Force_Field>
OPLS_2005

> <r_lp_Energy>
36.4766

> <b_lp_Chiralities_Consistent>
1

> <s_lp_Variant>
AV-unprocessed.smi:144-2

> <Gold.Version>
5.8.1

> <Gold.Id.Protein>
6NUR|6NUR_protein|mol2

> <Gold.PLP.Fitness>
58.5068

> <Gold.PLP.PLP>
-52.5544

> <Gold.PLP.part.hbond>
-1.9151

> <Gold.PLP.part.metal>
0.0000

> <Gold.PLP.part.buried>
-5.8233

> <Gold.PLP.part.nonpolar>
-44.2031

> <Gold.PLP.part.repulsive>
0.1131

> <Gold.PLP.ligand.clash>
0.6131

> <Gold.PLP.ligand.torsion>
0.6272

> <Gold.PLP.Chemscore.Hbond>
1.3660

> <Gold.PLP.Chemscore.CHOScore>
1.0000

> <Gold.PLP.Chemscore.Metal>
0.0000

> <Gold.Chemscore.Hbonds>
donor molecule, donor type, donor heavy atom, donor atom, acceptor molecule, acceptor atom, score
      P1  H  6896  6909       L1     1  0.78
      P1  H  7997  8009       L1    17  0.12
      L1  C     9    35       P1  8028  1.00

> <Gold.PLP.Chemscore.Internal.Correction>
0.7219

> <Gold.Rescore>
     Score         DG    S(hbond)    S(metal)    S(lipo)     H(rot)  DE(clash)    DE(int)     intcor
     12.76     -16.86       1.84        0.00      84.78       1.83       0.33       3.77       ----

> <Gold.Chemscore.Fitness>
12.7619

> <Gold.Chemscore.DG>
-16.8592

> <Gold.Chemscore.ZeroCoef>
-5.4800

> <Gold.Chemscore.Hbond>
1.8417

> <Gold.Chemscore.Metal>
0.0000

> <Gold.Chemscore.Lipo>
84.7780

> <Gold.Chemscore.Internal_Hbond>
0.0000

> <Gold.Chemscore.DEClash>
0.3263

> <Gold.Chemscore.DEInternal>
3.7710

> <Gold.Chemscore.Rot>
1.8325

> <Gold.Chemscore.Internal.Correction>
   9.000000E+99

> <Gold.Chemscore.Hbonds>
donor molecule, donor type, donor heavy atom, donor atom, acceptor molecule, acceptor atom, score
      P1  H  6896  6909       L1     1  0.51
      P1  H  7997  8009       L1    17  0.07

> <Gold.Chemscore.Hbond.Weighted>
-6.1513

> <Gold.Chemscore.Metal.Weighted>
-0.0000

> <Gold.Chemscore.Lipo.Weighted>
-9.9190

> <Gold.Chemscore.Internal_Hbond.Weighted>
0.0000

> <Gold.Chemscore.DEClash.Weighted>
0.3263

> <Gold.Chemscore.DEInternal.Weighted>
3.7710

> <Gold.Chemscore.Rot.Weighted>
4.6911

> <Gold.Chemscore.Internal.Correction.Weighted>
   9.000000E+99

> <Gold.Protein.RotatedTorsions>
[ 6907 6896 6895 6894 ] final  105.50 input  -60.11 | X-H torsion
[ 7974 7965 7964 7962 ] final  -70.38 input  175.53 | X-H torsion
[ 8008 7997 7996 7995 ] final  144.18 input   59.86 | X-H torsion
[ 10167 10162 10161 10158 ] final  -40.27 input  -65.29 | X-H torsion
[ 10718 10713 10712 10709 ] final -136.94 input   66.30 | X-H torsion
[ 10763 10752 10751 10750 ] final   52.43 input  -60.55 | X-H torsion
[ 11005 11000 10999 10996 ] final  105.87 input  -57.11 | X-H torsion

> <Gold.Protein.ActiveResidues>
 VAL166  LYS551  ARG553  GLY616  TRP617  ASP618  TYR619  PRO620  LYS621  CYS622 
 ASP623  PHE694  ASN695  SER759  ASP760  ASP761  ALA762  ILE779  LEU786  VAL792 
 PHE793  MET794  SER795  GLU796  ALA797  LYS798  CYS799  TRP800  GLU811  SER814 

> <Gold.Protein.RotatedAtoms>
  152.5228  133.9519  159.7675 H   0  0  0  0  0  0  0  0  0  0  0  0  # atno 6907 bound_to 6896
  150.9827  133.6220  159.2727 H   0  0  0  0  0  0  0  0  0  0  0  0  # atno 6908 bound_to 6896
  151.3392  135.0865  159.9418 H   0  0  0  0  0  0  0  0  0  0  0  0  # atno 6909 bound_to 6896
  145.6916  140.9151  143.0778 H   0  0  0  0  0  0  0  0  0  0  0  0  # atno 7974 bound_to 7965
  156.2914  140.2242  156.5011 H   0  0  0  0  0  0  0  0  0  0  0  0  # atno 8008 bound_to 7997
  154.7689  140.0468  157.1056 H   0  0  0  0  0  0  0  0  0  0  0  0  # atno 8009 bound_to 7997
  154.9898  140.3089  155.4914 H   0  0  0  0  0  0  0  0  0  0  0  0  # atno 8010 bound_to 7997
  140.7039  143.3164  151.2900 H   0  0  0  0  0  0  0  0  0  0  0  0  # atno 10167 bound_to 10162
  156.2826  130.7329  151.1332 H   0  0  0  0  0  0  0  0  0  0  0  0  # atno 10718 bound_to 10713
  152.9789  135.5813  154.4577 H   0  0  0  0  0  0  0  0  0  0  0  0  # atno 10763 bound_to 10752
  154.4157  135.2771  155.2010 H   0  0  0  0  0  0  0  0  0  0  0  0  # atno 10764 bound_to 10752
  154.3781  135.6153  153.5830 H   0  0  0  0  0  0  0  0  0  0  0  0  # atno 10765 bound_to 10752
  139.8807  134.9350  156.5580 H   0  0  0  0  0  0  0  0  0  0  0  0  # atno 11005 bound_to 11000
  144.6995  139.8829  143.7448 LP  0  0  0  0  0  0  0  0  0  0  0  0  # atno 17320 bound_to 7965
  146.0876  139.3865  143.0425 LP  0  0  0  0  0  0  0  0  0  0  0  0  # atno 17321 bound_to 7965
  139.6603  144.0201  152.2688 LP  0  0  0  0  0  0  0  0  0  0  0  0  # atno 17342 bound_to 10162
  139.9766  144.6457  150.7939 LP  0  0  0  0  0  0  0  0  0  0  0  0  # atno 17343 bound_to 10162
  157.7319  131.0604  150.5655 LP  0  0  0  0  0  0  0  0  0  0  0  0  # atno 17370 bound_to 10713
  156.5762  130.4292  149.5997 LP  0  0  0  0  0  0  0  0  0  0  0  0  # atno 17371 bound_to 10713
  140.8190  133.8368  155.8878 LP  0  0  0  0  0  0  0  0  0  0  0  0  # atno 17394 bound_to 11000
  140.9436  134.1869  157.4780 LP  0  0  0  0  0  0  0  0  0  0  0  0  # atno 17395 bound_to 11000

$$$$
