AV-unprocessed.smi:2053|AV-procd|sdf|8331|dock3
  -GOLD-   2272010593D 1   1.00000     0.00000
 Structure written by MMmdl.
 44 45  0  0  0  0  0  0  0  0  1 V2000
  151.2762  144.9333  158.5331 C   0  0  0  0  0  0  0  0  0  0  0  0
  150.6901  143.6510  158.3934 O   0  0  0  0  0  0  0  0  0  0  0  0
  150.6453  143.2191  157.0436 C   0  0  0  0  0  0  0  0  0  0  0  0
  150.2339  141.7445  156.9995 C   0  0  0  0  0  0  0  0  0  0  0  0
  150.5213  141.2273  155.7038 O   0  0  0  0  0  0  0  0  0  0  0  0
  150.1531  139.9295  155.4147 C   0  0  0  0  0  0  0  0  0  0  0  0
  149.7934  139.0798  156.4793 C   0  0  0  0  0  0  0  0  0  0  0  0
  149.4179  137.7529  156.1956 C   0  0  0  0  0  0  0  0  0  0  0  0
  149.4229  137.3137  154.8502 C   0  0  0  0  0  0  0  0  0  0  0  0
  149.0454  136.0107  154.4278 N   0  0  0  0  0  0  0  0  0  0  0  0
  148.6317  134.9645  155.1665 C   0  0  0  0  0  0  0  0  0  0  0  0
  148.5529  134.9684  156.3950 O   0  0  0  0  0  0  0  0  0  0  0  0
  148.2638  133.7058  154.3634 C   0  0  1  0  0  0  0  0  0  0  0  0
  148.9856  132.4280  154.8275 C   0  0  0  0  0  0  0  0  0  0  0  0
  148.0049  131.7926  155.8029 C   0  0  0  0  0  0  0  0  0  0  0  0
  146.6473  132.1175  155.1833 C   0  0  0  0  0  0  0  0  0  0  0  0
  146.8302  133.3809  154.4532 N   0  0  0  0  0  0  0  0  0  0  0  0
  145.8204  133.7010  153.0838 S   0  0  0  0  0  0  0  0  0  0  0  0
  146.4162  132.4802  151.8447 C   0  0  0  0  0  0  0  0  0  0  0  0
  144.4422  133.3446  153.4542 O   0  0  0  0  0  0  0  0  0  0  0  0
  146.1234  135.0598  152.6092 O   0  0  0  0  0  0  0  0  0  0  0  0
  149.7860  138.2470  153.8573 C   0  0  0  0  0  0  0  0  0  0  0  0
  150.1473  139.5201  154.1223 N   0  0  0  0  0  0  0  0  0  0  0  0
  151.2858  145.2194  159.5848 H   0  0  0  0  0  0  0  0  0  0  0  0
  150.7112  145.6878  157.9845 H   0  0  0  0  0  0  0  0  0  0  0  0
  152.3061  144.9371  158.1737 H   0  0  0  0  0  0  0  0  0  0  0  0
  149.9116  143.8172  156.5012 H   0  0  0  0  0  0  0  0  0  0  0  0
  151.6104  143.3602  156.5542 H   0  0  0  0  0  0  0  0  0  0  0  0
  150.7560  141.1830  157.7763 H   0  0  0  0  0  0  0  0  0  0  0  0
  149.1625  141.6680  157.1919 H   0  0  0  0  0  0  0  0  0  0  0  0
  149.7999  139.4413  157.4969 H   0  0  0  0  0  0  0  0  0  0  0  0
  149.1229  137.1112  157.0106 H   0  0  0  0  0  0  0  0  0  0  0  0
  149.1297  135.8383  153.4358 H   0  0  0  0  0  0  0  0  0  0  0  0
  148.5315  133.8903  153.3216 H   0  0  0  0  0  0  0  0  0  0  0  0
  149.1370  131.7647  153.9746 H   0  0  0  0  0  0  0  0  0  0  0  0
  149.9654  132.6020  155.2742 H   0  0  0  0  0  0  0  0  0  0  0  0
  148.1666  130.7218  155.9298 H   0  0  0  0  0  0  0  0  0  0  0  0
  148.0915  132.2654  156.7821 H   0  0  0  0  0  0  0  0  0  0  0  0
  146.3593  131.3311  154.4846 H   0  0  0  0  0  0  0  0  0  0  0  0
  145.8606  132.2128  155.9320 H   0  0  0  0  0  0  0  0  0  0  0  0
  145.8216  132.5681  150.9356 H   0  0  0  0  0  0  0  0  0  0  0  0
  146.3132  131.4732  152.2483 H   0  0  0  0  0  0  0  0  0  0  0  0
  147.4624  132.6739  151.6104 H   0  0  0  0  0  0  0  0  0  0  0  0
  149.7906  137.9633  152.8150 H   0  0  0  0  0  0  0  0  0  0  0  0
  1  2  1  0  0  0  0
  1 24  1  0  0  0  0
  1 25  1  0  0  0  0
  1 26  1  0  0  0  0
  2  3  1  0  0  0  0
  3  4  1  0  0  0  0
  3 27  1  0  0  0  0
  3 28  1  0  0  0  0
  4  5  1  0  0  0  0
  4 29  1  0  0  0  0
  4 30  1  0  0  0  0
  5  6  1  0  0  0  0
  6 23  1  0  0  0  0
  6  7  2  0  0  0  0
  7  8  1  0  0  0  0
  7 31  1  0  0  0  0
  8  9  2  0  0  0  0
  8 32  1  0  0  0  0
  9 10  1  0  0  0  0
  9 22  1  0  0  0  0
 10 11  1  0  0  0  0
 10 33  1  0  0  0  0
 11 12  2  0  0  0  0
 11 13  1  0  0  0  0
 13 17  1  0  0  0  0
 13 14  1  0  0  0  0
 13 34  1  0  0  0  0
 14 15  1  0  0  0  0
 14 35  1  0  0  0  0
 14 36  1  0  0  0  0
 15 16  1  0  0  0  0
 15 37  1  0  0  0  0
 15 38  1  0  0  0  0
 16 17  1  0  0  0  0
 16 39  1  0  0  0  0
 16 40  1  0  0  0  0
 17 18  1  0  0  0  0
 18 19  1  0  0  0  0
 18 20  2  0  0  0  0
 18 21  2  0  0  0  0
 19 41  1  0  0  0  0
 19 42  1  0  0  0  0
 19 43  1  0  0  0  0
 22 23  2  0  0  0  0
 22 44  1  0  0  0  0
M  END
> <s_m_source_file>
AV-unprocessed.smi

> <i_m_source_file_index>
2053

> <i_lp_mmshare_version>
43012

> <i_f3d_flags>
0

> <s_epik_input>
W0NIM11PW0NIMl1bQ0gyXU9jMVtjSF1bY0hdYyhbY0hdbjEpW05IXUMoPU8pW0NAQEhdMltDSDJdW0NIMl1bQ0gyXU4yUyg9TykoPU8pW0NIM10=

> <s_epik_cmdline>
J2VwaWtfcHl0aG9uJywgJy1waCcsICc3LjAnLCAnLXRuJywgJzgnLCAnLW1hJywgJzIwMCcsICctbWV0YWxfYmluZGluZycsICctaW1hZScsICc8aW5maWxlLm1hZT4nLCAnLW9tYWUnLCAnPG91dGZpbGUubWFlPic=

> <r_lp_tautomer_probability>
1

> <r_epik_Ionization_Penalty>
1.28704e-05

> <r_epik_Ionization_Penalty_Charging>
0

> <r_epik_Ionization_Penalty_Neutral>
1.28704e-05

> <r_epik_State_Penalty>
-0

> <r_epik_Charging_Adjusted_Penalty>
0

> <i_epik_Tot_Q>
0

> <i_epik_Tot_abs_Q>
0

> <r_epik_Metal_State_Penalty>
-0

> <b_epik_Metal_Only>
0

> <s_lp_Force_Field>
OPLS_2005

> <r_lp_Energy>
12.3258

> <b_lp_Chiralities_Consistent>
1

> <s_lp_Variant>
AV-unprocessed.smi:2053-2

> <Gold.Version>
5.8.1

> <Gold.Id.Protein>
6NUR|6NUR_protein|mol2

> <Gold.PLP.Fitness>
40.2043

> <Gold.PLP.PLP>
-29.1477

> <Gold.PLP.part.hbond>
-2.4229

> <Gold.PLP.part.metal>
0.0000

> <Gold.PLP.part.buried>
-4.8645

> <Gold.PLP.part.nonpolar>
-25.2177

> <Gold.PLP.part.repulsive>
2.5746

> <Gold.PLP.ligand.clash>
0.0000

> <Gold.PLP.ligand.torsion>
0.6030

> <Gold.PLP.Chemscore.Hbond>
2.0000

> <Gold.PLP.Chemscore.CHOScore>
1.8949

> <Gold.PLP.Chemscore.Metal>
0.0000

> <Gold.Chemscore.Hbonds>
donor molecule, donor type, donor heavy atom, donor atom, acceptor molecule, acceptor atom, score
      L1  H    10    33       P1  7948  1.00
      P1  H  7989  7998       L1    23  0.68
      L1  C    22    44       P1  7948  1.00
      L1  C    22    44       P1  7957  0.49

> <Gold.PLP.Chemscore.Internal.Correction>
0.5777

> <Gold.Rescore>
     Score         DG    S(hbond)    S(metal)    S(lipo)     H(rot)  DE(clash)    DE(int)     intcor
     12.23     -14.14       1.84        0.00      70.73       2.26       0.36       1.55       ----

> <Gold.Chemscore.Fitness>
12.2269

> <Gold.Chemscore.DG>
-14.1361

> <Gold.Chemscore.ZeroCoef>
-5.4800

> <Gold.Chemscore.Hbond>
1.8443

> <Gold.Chemscore.Metal>
0.0000

> <Gold.Chemscore.Lipo>
70.7320

> <Gold.Chemscore.Internal_Hbond>
0.0000

> <Gold.Chemscore.DEClash>
0.3581

> <Gold.Chemscore.DEInternal>
1.5512

> <Gold.Chemscore.Rot>
2.2576

> <Gold.Chemscore.Internal.Correction>
   9.000000E+99

> <Gold.Chemscore.Hbonds>
donor molecule, donor type, donor heavy atom, donor atom, acceptor molecule, acceptor atom, score
      L1  H    10    33       P1  7948  0.76
      P1  H  7989  7998       L1    23  0.10

> <Gold.Chemscore.Hbond.Weighted>
-6.1600

> <Gold.Chemscore.Metal.Weighted>
-0.0000

> <Gold.Chemscore.Lipo.Weighted>
-8.2756

> <Gold.Chemscore.Internal_Hbond.Weighted>
0.0000

> <Gold.Chemscore.DEClash.Weighted>
0.3581

> <Gold.Chemscore.DEInternal.Weighted>
1.5512

> <Gold.Chemscore.Rot.Weighted>
5.7796

> <Gold.Chemscore.Internal.Correction.Weighted>
   9.000000E+99

> <Gold.Protein.RotatedTorsions>
[ 6907 6896 6895 6894 ] final   54.44 input  -60.11 | X-H torsion
[ 7974 7965 7964 7962 ] final  118.44 input  175.53 | X-H torsion
[ 8008 7997 7996 7995 ] final   87.04 input   59.86 | X-H torsion
[ 10167 10162 10161 10158 ] final  -17.51 input  -65.29 | X-H torsion
[ 10718 10713 10712 10709 ] final  -79.11 input   66.30 | X-H torsion
[ 10763 10752 10751 10750 ] final  -90.13 input  -60.55 | X-H torsion
[ 11005 11000 10999 10996 ] final   98.59 input  -57.11 | X-H torsion

> <Gold.Protein.ActiveResidues>
 VAL166  LYS551  ARG553  GLY616  TRP617  ASP618  TYR619  PRO620  LYS621  CYS622 
 ASP623  PHE694  ASN695  SER759  ASP760  ASP761  ALA762  ILE779  LEU786  VAL792 
 PHE793  MET794  SER795  GLU796  ALA797  LYS798  CYS799  TRP800  GLU811  SER814 

> <Gold.Protein.RotatedAtoms>
  152.3439  134.7097  160.0255 H   0  0  0  0  0  0  0  0  0  0  0  0  # atno 6907 bound_to 6896
  151.7473  133.3320  159.3390 H   0  0  0  0  0  0  0  0  0  0  0  0  # atno 6908 bound_to 6896
  150.7497  134.6157  159.6154 H   0  0  0  0  0  0  0  0  0  0  0  0  # atno 6909 bound_to 6896
  145.1552  139.3187  143.4546 H   0  0  0  0  0  0  0  0  0  0  0  0  # atno 7974 bound_to 7965
  155.9704  140.3386  155.6571 H   0  0  0  0  0  0  0  0  0  0  0  0  # atno 8008 bound_to 7997
  155.6681  140.0724  157.2548 H   0  0  0  0  0  0  0  0  0  0  0  0  # atno 8009 bound_to 7997
  154.4165  140.1696  156.1837 H   0  0  0  0  0  0  0  0  0  0  0  0  # atno 8010 bound_to 7997
  140.7248  143.5008  150.9872 H   0  0  0  0  0  0  0  0  0  0  0  0  # atno 10167 bound_to 10162
  156.0100  130.4536  150.3598 H   0  0  0  0  0  0  0  0  0  0  0  0  # atno 10718 bound_to 10713
  154.6626  135.5315  153.8036 H   0  0  0  0  0  0  0  0  0  0  0  0  # atno 10763 bound_to 10752
  153.0451  135.6509  154.0849 H   0  0  0  0  0  0  0  0  0  0  0  0  # atno 10764 bound_to 10752
  154.0756  135.2951  155.3280 H   0  0  0  0  0  0  0  0  0  0  0  0  # atno 10765 bound_to 10752
  139.8772  134.9056  156.4478 H   0  0  0  0  0  0  0  0  0  0  0  0  # atno 11005 bound_to 11000
  146.3489  140.1641  142.8590 LP  0  0  0  0  0  0  0  0  0  0  0  0  # atno 17320 bound_to 7965
  145.0389  140.8930  143.5064 LP  0  0  0  0  0  0  0  0  0  0  0  0  # atno 17321 bound_to 7965
  139.8717  143.7184  152.3165 LP  0  0  0  0  0  0  0  0  0  0  0  0  # atno 17342 bound_to 10162
  139.7435  144.7553  151.0616 LP  0  0  0  0  0  0  0  0  0  0  0  0  # atno 17343 bound_to 10162
  157.1687  131.0363  151.2806 LP  0  0  0  0  0  0  0  0  0  0  0  0  # atno 17370 bound_to 10713
  157.4247  130.7457  149.6942 LP  0  0  0  0  0  0  0  0  0  0  0  0  # atno 17371 bound_to 10713
  140.8953  133.7818  155.9618 LP  0  0  0  0  0  0  0  0  0  0  0  0  # atno 17394 bound_to 11000
  140.8709  134.2727  157.5191 LP  0  0  0  0  0  0  0  0  0  0  0  0  # atno 17395 bound_to 11000

$$$$
