AV-unprocessed.smi:54|AV-procd|sdf|550|dock8
  -GOLD-   2262016443D 1   1.00000     0.00000
 Structure written by MMmdl.
 43 45  0  0  0  0  0  0  0  0  2 V2000
  151.4909  145.1424  160.1445 C   0  0  0  0  0  0  0  0  0  0  0  0
  152.8871  144.6684  159.7076 C   0  0  0  0  0  0  0  0  0  0  0  0
  153.1282  144.9464  158.2148 C   0  0  0  0  0  0  0  0  0  0  0  0
  153.0778  143.1777  160.0217 C   0  0  0  0  0  0  0  0  0  0  0  0
  153.4702  142.8459  161.1431 O   0  0  0  0  0  0  0  0  0  0  0  0
  152.7937  142.3310  159.0066 N   0  0  0  0  0  0  0  0  0  0  0  0
  152.8744  140.9338  158.9739 C   0  0  0  0  0  0  0  0  0  0  0  0
  152.1202  140.2439  158.1473 N   0  0  0  0  0  0  0  0  0  0  0  0
  152.3308  138.8836  158.2539 C   0  0  0  0  0  0  0  0  0  0  0  0
  153.1980  138.2309  159.0851 C   0  0  0  0  0  0  0  0  0  0  0  0
  153.1262  136.8539  158.9118 N   0  0  0  0  0  0  0  0  0  0  0  0
  152.1968  136.7398  157.9633 C   0  0  0  0  0  0  0  0  0  0  0  0
  151.6713  137.9028  157.5239 N   0  0  0  0  0  0  0  0  0  0  0  0
  150.6234  138.1216  156.4724 C   0  0  1  0  0  0  0  0  0  0  0  0
  149.8912  139.2649  156.8003 O   0  0  0  0  0  0  0  0  0  0  0  0
  150.3291  140.3593  156.0032 C   0  0  2  0  0  0  0  0  0  0  0  0
  149.2835  141.4877  155.9764 C   0  0  0  0  0  0  0  0  0  0  0  0
  149.5382  142.3597  154.8959 O   0  0  0  0  0  0  0  0  0  0  0  0
  150.6086  139.6839  154.6550 C   0  0  2  0  0  0  0  0  0  0  0  0
  149.4049  139.4705  153.9405 O   0  0  0  0  0  0  0  0  0  0  0  0
  151.2272  138.3524  155.0646 C   0  0  1  0  0  0  0  0  0  0  0  0
  152.6406  138.4570  155.0470 O   0  0  0  0  0  0  0  0  0  0  0  0
  154.0213  139.0733  159.9851 C   0  0  0  0  0  0  0  0  0  0  0  0
  154.8178  138.5323  160.7497 O   0  0  0  0  0  0  0  0  0  0  0  0
  153.8147  140.4215  159.8816 N   0  5  0  0  0  0  0  0  0  0  0  0
  149.9880  137.2374  156.5361 H   0  0  0  0  0  0  0  0  0  0  0  0
  151.2747  140.7353  156.3983 H   0  0  0  0  0  0  0  0  0  0  0  0
  151.2713  140.2832  154.0289 H   0  0  0  0  0  0  0  0  0  0  0  0
  150.9345  137.5374  154.4010 H   0  0  0  0  0  0  0  0  0  0  0  0
  151.3112  144.9282  161.1989 H   0  0  0  0  0  0  0  0  0  0  0  0
  150.7029  144.6575  159.5670 H   0  0  0  0  0  0  0  0  0  0  0  0
  151.3853  146.2188  160.0076 H   0  0  0  0  0  0  0  0  0  0  0  0
  153.6251  145.2371  160.2760 H   0  0  0  0  0  0  0  0  0  0  0  0
  154.1158  144.6048  157.9023 H   0  0  0  0  0  0  0  0  0  0  0  0
  153.0712  146.0146  158.0045 H   0  0  0  0  0  0  0  0  0  0  0  0
  152.3883  144.4471  157.5877 H   0  0  0  0  0  0  0  0  0  0  0  0
  152.4991  142.7754  158.1497 H   0  0  0  0  0  0  0  0  0  0  0  0
  151.8931  135.7776  157.5786 H   0  0  0  0  0  0  0  0  0  0  0  0
  148.2861  141.0713  155.8315 H   0  0  0  0  0  0  0  0  0  0  0  0
  149.2719  142.0435  156.9145 H   0  0  0  0  0  0  0  0  0  0  0  0
  149.7080  143.2231  155.2403 H   0  0  0  0  0  0  0  0  0  0  0  0
  149.5850  139.5810  153.0192 H   0  0  0  0  0  0  0  0  0  0  0  0
  153.0046  137.6172  155.2856 H   0  0  0  0  0  0  0  0  0  0  0  0
  1  2  1  0  0  0  0
  1 30  1  0  0  0  0
  1 31  1  0  0  0  0
  1 32  1  0  0  0  0
  2  3  1  0  0  0  0
  2  4  1  0  0  0  0
  2 33  1  0  0  0  0
  3 34  1  0  0  0  0
  3 35  1  0  0  0  0
  3 36  1  0  0  0  0
  4  5  2  0  0  0  0
  4  6  1  0  0  0  0
  6 37  1  0  0  0  0
  6  7  1  0  0  0  0
  7 25  1  0  0  0  0
  7  8  2  0  0  0  0
  8  9  1  0  0  0  0
  9 13  1  0  0  0  0
  9 10  2  0  0  0  0
 10 11  1  0  0  0  0
 10 23  1  0  0  0  0
 11 12  2  0  0  0  0
 12 13  1  0  0  0  0
 12 38  1  0  0  0  0
 13 14  1  0  0  0  0
 14 26  1  0  0  0  0
 14 21  1  0  0  0  0
 14 15  1  0  0  0  0
 15 16  1  0  0  0  0
 16 27  1  0  0  0  0
 16 17  1  0  0  0  0
 16 19  1  0  0  0  0
 17 18  1  0  0  0  0
 17 39  1  0  0  0  0
 17 40  1  0  0  0  0
 18 41  1  0  0  0  0
 19 28  1  0  0  0  0
 19 20  1  0  0  0  0
 19 21  1  0  0  0  0
 20 42  1  0  0  0  0
 21 29  1  0  0  0  0
 21 22  1  0  0  0  0
 22 43  1  0  0  0  0
 23 24  2  0  0  0  0
 23 25  1  0  0  0  0
M  CHG  1  25  -1
M  END
> <s_m_source_file>
AV-unprocessed.smi

> <i_m_source_file_index>
54

> <i_lp_mmshare_version>
43012

> <i_f3d_flags>
0

> <s_epik_input>
W0NIM11bQ0hdKFtDSDNdKUMoPU8pW05IXWMobjEpW25IXWMoPU8pYyhjMTIpbltjSF1uMltDQEBIXTNPW0NASF0oW0NIMl1bT0hdKVtDQEBIXShbT0hdKVtDQEhdM1tPSF0=

> <s_epik_cmdline>
J2VwaWtfcHl0aG9uJywgJy1waCcsICc3LjAnLCAnLXRuJywgJzgnLCAnLW1hJywgJzIwMCcsICctbWV0YWxfYmluZGluZycsICctaW1hZScsICc8aW5maWxlLm1hZT4nLCAnLW9tYWUnLCAnPG91dGZpbGUubWFlPic=

> <r_lp_tautomer_probability>
0.85571

> <r_epik_Ionization_Penalty>
1.75936

> <r_epik_Ionization_Penalty_Charging>
4.55893e-11

> <r_epik_Ionization_Penalty_Neutral>
1.75936

> <r_epik_State_Penalty>
1.72072

> <r_epik_Charging_Adjusted_Penalty>
1.72072

> <i_epik_Tot_Q>
-1

> <i_epik_Tot_abs_Q>
1

> <r_epik_Metal_State_Penalty>
0.400338

> <b_epik_Metal_Only>
1

> <s_epik_Chemistry_Notes>
This compound contains an acetal/aminal-like group ( X-CH(R)-Y where X, Y are N, S, or O) that may be acid/base labile, releasing an aldehyde.

> <s_lp_Force_Field>
OPLS_2005

> <r_lp_Energy>
59.3573

> <b_lp_Chiralities_Consistent>
1

> <s_lp_Variant>
AV-unprocessed.smi:54-22

> <Gold.Version>
5.8.1

> <Gold.Id.Protein>
6NUR|6NUR_protein|mol2

> <Gold.PLP.Fitness>
44.5366

> <Gold.PLP.PLP>
-39.0672

> <Gold.PLP.part.hbond>
-4.0000

> <Gold.PLP.part.metal>
0.0000

> <Gold.PLP.part.buried>
-6.4548

> <Gold.PLP.part.nonpolar>
-28.0635

> <Gold.PLP.part.repulsive>
0.1035

> <Gold.PLP.ligand.clash>
0.0000

> <Gold.PLP.ligand.torsion>
1.7307

> <Gold.PLP.Chemscore.Hbond>
2.9485

> <Gold.PLP.Chemscore.CHOScore>
0.0000

> <Gold.PLP.Chemscore.Metal>
0.0000

> <Gold.Chemscore.Hbonds>
donor molecule, donor type, donor heavy atom, donor atom, acceptor molecule, acceptor atom, score
      L1  H    18    41       P1  8028  0.83
      L1  H    20    42       P1  7957  1.00

> <Gold.PLP.Chemscore.Internal.Correction>
0.0853

> <Gold.Rescore>
     Score         DG    S(hbond)    S(metal)    S(lipo)     H(rot)  DE(clash)    DE(int)     intcor
      6.51     -11.99       2.60        0.00      69.24       4.02       0.12       5.36       ----

> <Gold.Chemscore.Fitness>
6.5133

> <Gold.Chemscore.DG>
-11.9873

> <Gold.Chemscore.ZeroCoef>
-5.4800

> <Gold.Chemscore.Hbond>
2.6034

> <Gold.Chemscore.Metal>
0.0000

> <Gold.Chemscore.Lipo>
69.2413

> <Gold.Chemscore.Internal_Hbond>
0.0000

> <Gold.Chemscore.DEClash>
0.1184

> <Gold.Chemscore.DEInternal>
5.3556

> <Gold.Chemscore.Rot>
4.0192

> <Gold.Chemscore.Internal.Correction>
   9.000000E+99

> <Gold.Chemscore.Hbonds>
donor molecule, donor type, donor heavy atom, donor atom, acceptor molecule, acceptor atom, score
      L1  H    18    41       P1  8028  0.81
      L1  H    20    42       P1  7957  1.00

> <Gold.Chemscore.Hbond.Weighted>
-8.6953

> <Gold.Chemscore.Metal.Weighted>
-0.0000

> <Gold.Chemscore.Lipo.Weighted>
-8.1012

> <Gold.Chemscore.Internal_Hbond.Weighted>
0.0000

> <Gold.Chemscore.DEClash.Weighted>
0.1184

> <Gold.Chemscore.DEInternal.Weighted>
5.3556

> <Gold.Chemscore.Rot.Weighted>
10.2893

> <Gold.Chemscore.Internal.Correction.Weighted>
   9.000000E+99

> <Gold.Protein.RotatedTorsions>
[ 6907 6896 6895 6894 ] final   10.88 input  -60.11 | X-H torsion
[ 7974 7965 7964 7962 ] final  -51.42 input  175.53 | X-H torsion
[ 8008 7997 7996 7995 ] final  -30.21 input   59.86 | X-H torsion
[ 10167 10162 10161 10158 ] final  143.15 input  -65.29 | X-H torsion
[ 10718 10713 10712 10709 ] final  -22.83 input   66.30 | X-H torsion
[ 10763 10752 10751 10750 ] final -174.52 input  -60.55 | X-H torsion
[ 11005 11000 10999 10996 ] final   92.62 input  -57.11 | X-H torsion

> <Gold.Protein.ActiveResidues>
 VAL166  LYS551  ARG553  GLY616  TRP617  ASP618  TYR619  PRO620  LYS621  CYS622 
 ASP623  PHE694  ASN695  SER759  ASP760  ASP761  ALA762  ILE779  LEU786  VAL792 
 PHE793  MET794  SER795  GLU796  ALA797  LYS798  CYS799  TRP800  GLU811  SER814 

> <Gold.Protein.RotatedAtoms>
  151.7454  135.0845  160.0322 H   0  0  0  0  0  0  0  0  0  0  0  0  # atno 6907 bound_to 6896
  152.3452  133.6109  159.5913 H   0  0  0  0  0  0  0  0  0  0  0  0  # atno 6908 bound_to 6896
  150.7504  133.9577  159.3547 H   0  0  0  0  0  0  0  0  0  0  0  0  # atno 6909 bound_to 6896
  145.9192  140.7849  142.9656 H   0  0  0  0  0  0  0  0  0  0  0  0  # atno 7974 bound_to 7965
  154.4259  140.1797  156.1370 H   0  0  0  0  0  0  0  0  0  0  0  0  # atno 8008 bound_to 7997
  156.0022  140.3359  155.6832 H   0  0  0  0  0  0  0  0  0  0  0  0  # atno 8009 bound_to 7997
  155.6227  140.0661  157.2664 H   0  0  0  0  0  0  0  0  0  0  0  0  # atno 8010 bound_to 7997
  139.4976  144.6059  151.6379 H   0  0  0  0  0  0  0  0  0  0  0  0  # atno 10167 bound_to 10162
  156.4992  130.4584  149.6711 H   0  0  0  0  0  0  0  0  0  0  0  0  # atno 10718 bound_to 10713
  154.5953  135.2849  155.0592 H   0  0  0  0  0  0  0  0  0  0  0  0  # atno 10763 bound_to 10752
  154.1878  135.6446  153.5055 H   0  0  0  0  0  0  0  0  0  0  0  0  # atno 10764 bound_to 10752
  153.0136  135.5439  154.6653 H   0  0  0  0  0  0  0  0  0  0  0  0  # atno 10765 bound_to 10752
  139.8821  134.8743  156.3599 H   0  0  0  0  0  0  0  0  0  0  0  0  # atno 11005 bound_to 11000
  144.6751  140.1948  143.7393 LP  0  0  0  0  0  0  0  0  0  0  0  0  # atno 17320 bound_to 7965
  145.8572  139.2205  143.1737 LP  0  0  0  0  0  0  0  0  0  0  0  0  # atno 17321 bound_to 7965
  140.5721  144.0091  150.6222 LP  0  0  0  0  0  0  0  0  0  0  0  0  # atno 17342 bound_to 10162
  140.3212  143.3136  152.0782 LP  0  0  0  0  0  0  0  0  0  0  0  0  # atno 17343 bound_to 10162
  156.3349  130.7351  151.2287 LP  0  0  0  0  0  0  0  0  0  0  0  0  # atno 17370 bound_to 10713
  157.7465  131.0419  150.4671 LP  0  0  0  0  0  0  0  0  0  0  0  0  # atno 17371 bound_to 10713
  140.9537  133.7434  156.0306 LP  0  0  0  0  0  0  0  0  0  0  0  0  # atno 17394 bound_to 11000
  140.8075  134.3438  157.5422 LP  0  0  0  0  0  0  0  0  0  0  0  0  # atno 17395 bound_to 11000

$$$$
