AV-unprocessed.smi:2026|AV-procd|sdf|8202|dock10
  -GOLD-   2272010463D 1   1.00000     0.00000
 Structure written by MMmdl.
 46 48  0  0  0  0  0  0  0  0  1 V2000
  151.5829  144.9892  160.5790 C   0  0  0  0  0  0  0  0  0  0  0  0
  151.8887  143.5224  160.3308 C   0  0  0  0  0  0  0  0  0  0  0  0
  152.8983  142.8916  161.0923 C   0  0  0  0  0  0  0  0  0  0  0  0
  153.2130  141.5295  160.8920 C   0  0  0  0  0  0  0  0  0  0  0  0
  154.1495  140.7228  161.5155 N   0  0  0  0  0  0  0  0  0  0  0  0
  153.9598  139.5628  160.8932 C   0  0  0  0  0  0  0  0  0  0  0  0
  153.0105  139.5227  159.9386 N   0  0  0  0  0  0  0  0  0  0  0  0
  152.6337  138.3756  159.1318 C   0  0  0  0  0  0  0  0  0  0  0  0
  152.1508  138.7733  157.7234 C   0  0  1  0  0  0  0  0  0  0  0  0
  153.2809  138.9753  156.8964 O   0  0  0  0  0  0  0  0  0  0  0  0
  151.2670  137.6748  157.0973 C   0  0  0  0  0  0  0  0  0  0  0  0
  150.5592  138.1529  155.9056 N   0  0  0  0  0  0  0  0  0  0  0  0
  151.0115  138.0127  154.6470 C   0  0  0  0  0  0  0  0  0  0  0  0
  152.0556  137.4624  154.3006 O   0  0  0  0  0  0  0  0  0  0  0  0
  150.1261  138.5795  153.8167 N   0  0  0  0  0  0  0  0  0  0  0  0
  148.9888  139.1542  154.5099 C   0  0  0  0  0  0  0  0  0  0  0  0
  148.9253  140.6763  154.2914 C   0  0  0  0  0  0  0  0  0  0  0  0
  147.6823  138.4504  154.1006 C   0  0  0  0  0  0  0  0  0  0  0  0
  149.3909  138.8079  155.9352 C   0  0  0  0  0  0  0  0  0  0  0  0
  148.7287  139.1033  156.9304 O   0  0  0  0  0  0  0  0  0  0  0  0
  152.4844  140.8097  159.9001 C   0  0  0  0  0  0  0  0  0  0  0  0
  151.4773  141.4264  159.1365 C   0  0  0  0  0  0  0  0  0  0  0  0
  151.1758  142.7878  159.3495 C   0  0  0  0  0  0  0  0  0  0  0  0
  150.0861  143.4438  158.5198 C   0  0  0  0  0  0  0  0  0  0  0  0
  152.1937  145.3931  161.3868 H   0  0  0  0  0  0  0  0  0  0  0  0
  150.5364  145.1209  160.8538 H   0  0  0  0  0  0  0  0  0  0  0  0
  151.7825  145.5767  159.6825 H   0  0  0  0  0  0  0  0  0  0  0  0
  153.4416  143.4505  161.8398 H   0  0  0  0  0  0  0  0  0  0  0  0
  154.5434  138.6894  161.1460 H   0  0  0  0  0  0  0  0  0  0  0  0
  153.4844  137.6959  159.0675 H   0  0  0  0  0  0  0  0  0  0  0  0
  151.8457  137.8365  159.6596 H   0  0  0  0  0  0  0  0  0  0  0  0
  151.5969  139.7106  157.7932 H   0  0  0  0  0  0  0  0  0  0  0  0
  153.0244  138.8436  155.9964 H   0  0  0  0  0  0  0  0  0  0  0  0
  151.8540  136.7808  156.8781 H   0  0  0  0  0  0  0  0  0  0  0  0
  150.5192  137.3524  157.8241 H   0  0  0  0  0  0  0  0  0  0  0  0
  150.2296  138.6145  152.8128 H   0  0  0  0  0  0  0  0  0  0  0  0
  148.0866  141.1183  154.8307 H   0  0  0  0  0  0  0  0  0  0  0  0
  148.7987  140.9154  153.2351 H   0  0  0  0  0  0  0  0  0  0  0  0
  149.8354  141.1719  154.6331 H   0  0  0  0  0  0  0  0  0  0  0  0
  146.8249  138.8719  154.6264 H   0  0  0  0  0  0  0  0  0  0  0  0
  147.7117  137.3823  154.3214 H   0  0  0  0  0  0  0  0  0  0  0  0
  147.4974  138.5586  153.0314 H   0  0  0  0  0  0  0  0  0  0  0  0
  150.9398  140.8555  158.3941 H   0  0  0  0  0  0  0  0  0  0  0  0
  149.6686  142.7489  157.7907 H   0  0  0  0  0  0  0  0  0  0  0  0
  150.4821  144.3011  157.9750 H   0  0  0  0  0  0  0  0  0  0  0  0
  149.2732  143.7854  159.1608 H   0  0  0  0  0  0  0  0  0  0  0  0
  1  2  1  0  0  0  0
  1 25  1  0  0  0  0
  1 26  1  0  0  0  0
  1 27  1  0  0  0  0
  2 23  1  0  0  0  0
  2  3  2  0  0  0  0
  3  4  1  0  0  0  0
  3 28  1  0  0  0  0
  4 21  2  0  0  0  0
  4  5  1  0  0  0  0
  5  6  2  0  0  0  0
  6  7  1  0  0  0  0
  6 29  1  0  0  0  0
  7  8  1  0  0  0  0
  7 21  1  0  0  0  0
  8  9  1  0  0  0  0
  8 30  1  0  0  0  0
  8 31  1  0  0  0  0
  9 10  1  0  0  0  0
  9 11  1  0  0  0  0
  9 32  1  0  0  0  0
 10 33  1  0  0  0  0
 11 12  1  0  0  0  0
 11 34  1  0  0  0  0
 11 35  1  0  0  0  0
 12 19  1  0  0  0  0
 12 13  1  0  0  0  0
 13 14  2  0  0  0  0
 13 15  1  0  0  0  0
 15 16  1  0  0  0  0
 15 36  1  0  0  0  0
 16 17  1  0  0  0  0
 16 18  1  0  0  0  0
 16 19  1  0  0  0  0
 17 37  1  0  0  0  0
 17 38  1  0  0  0  0
 17 39  1  0  0  0  0
 18 40  1  0  0  0  0
 18 41  1  0  0  0  0
 18 42  1  0  0  0  0
 19 20  2  0  0  0  0
 21 22  1  0  0  0  0
 22 23  2  0  0  0  0
 22 43  1  0  0  0  0
 23 24  1  0  0  0  0
 24 44  1  0  0  0  0
 24 45  1  0  0  0  0
 24 46  1  0  0  0  0
M  END
> <s_m_source_file>
AV-unprocessed.smi

> <i_m_source_file_index>
2026

> <i_lp_mmshare_version>
43012

> <i_f3d_flags>
0

> <s_epik_input>
W0NIM11jKFtjSF0xKWMoW0NIM10pW2NIXWMoYzEyKW4oW2NIXW4yKVtDSDJdW0NASF0oW09IXSlbQ0gyXU4oQzM9TylDKD1PKVtOSF1DMyhbQ0gzXSlbQ0gzXQ==

> <s_epik_cmdline>
J2VwaWtfcHl0aG9uJywgJy1waCcsICc3LjAnLCAnLXRuJywgJzgnLCAnLW1hJywgJzIwMCcsICctbWV0YWxfYmluZGluZycsICctaW1hZScsICc8aW5maWxlLm1hZT4nLCAnLW9tYWUnLCAnPG91dGZpbGUubWFlPic=

> <r_lp_tautomer_probability>
1

> <r_epik_Ionization_Penalty>
0.103994

> <r_epik_Ionization_Penalty_Charging>
0

> <r_epik_Ionization_Penalty_Neutral>
0.103994

> <r_epik_State_Penalty>
0.0938482

> <r_epik_Charging_Adjusted_Penalty>
0.0938482

> <i_epik_Tot_Q>
0

> <i_epik_Tot_abs_Q>
0

> <r_epik_Metal_State_Penalty>
0.106997

> <b_epik_Metal_Only>
0

> <s_lp_Force_Field>
OPLS_2005

> <r_lp_Energy>
23.8549

> <b_lp_Chiralities_Consistent>
1

> <s_lp_Variant>
AV-unprocessed.smi:2026-2

> <Gold.Version>
5.8.1

> <Gold.Id.Protein>
6NUR|6NUR_protein|mol2

> <Gold.PLP.Fitness>
49.2829

> <Gold.PLP.PLP>
-43.4741

> <Gold.PLP.part.hbond>
-3.3538

> <Gold.PLP.part.metal>
0.0000

> <Gold.PLP.part.buried>
-5.7873

> <Gold.PLP.part.nonpolar>
-34.5716

> <Gold.PLP.part.repulsive>
0.3642

> <Gold.PLP.ligand.clash>
0.0000

> <Gold.PLP.ligand.torsion>
1.0380

> <Gold.PLP.Chemscore.Hbond>
2.6251

> <Gold.PLP.Chemscore.CHOScore>
0.0000

> <Gold.PLP.Chemscore.Metal>
0.0000

> <Gold.Chemscore.Hbonds>
donor molecule, donor type, donor heavy atom, donor atom, acceptor molecule, acceptor atom, score
      L1  H    15    36       P1  7957  0.33
      P1  H  7997  8008       L1    10  0.65
      P1  H 10752 10765       L1    14  0.88

> <Gold.PLP.Chemscore.Internal.Correction>
0.0098

> <Gold.Rescore>
     Score         DG    S(hbond)    S(metal)    S(lipo)     H(rot)  DE(clash)    DE(int)     intcor
     15.77     -16.82       1.51        0.00     107.08       2.44       0.11       0.94       ----

> <Gold.Chemscore.Fitness>
15.7743

> <Gold.Chemscore.DG>
-16.8213

> <Gold.Chemscore.ZeroCoef>
-5.4800

> <Gold.Chemscore.Hbond>
1.5116

> <Gold.Chemscore.Metal>
0.0000

> <Gold.Chemscore.Lipo>
107.0803

> <Gold.Chemscore.Internal_Hbond>
0.0000

> <Gold.Chemscore.DEClash>
0.1057

> <Gold.Chemscore.DEInternal>
0.9413

> <Gold.Chemscore.Rot>
2.4358

> <Gold.Chemscore.Internal.Correction>
   9.000000E+99

> <Gold.Chemscore.Hbonds>
donor molecule, donor type, donor heavy atom, donor atom, acceptor molecule, acceptor atom, score
      L1  H    15    36       P1  7957  0.12
      P1  H  7997  8008       L1    10  0.05
      P1  H 10752 10765       L1    14  0.83

> <Gold.Chemscore.Hbond.Weighted>
-5.0486

> <Gold.Chemscore.Metal.Weighted>
-0.0000

> <Gold.Chemscore.Lipo.Weighted>
-12.5284

> <Gold.Chemscore.Internal_Hbond.Weighted>
0.0000

> <Gold.Chemscore.DEClash.Weighted>
0.1057

> <Gold.Chemscore.DEInternal.Weighted>
0.9413

> <Gold.Chemscore.Rot.Weighted>
6.2357

> <Gold.Chemscore.Internal.Correction.Weighted>
   9.000000E+99

> <Gold.Protein.RotatedTorsions>
[ 6907 6896 6895 6894 ] final  -51.81 input  -60.11 | X-H torsion
[ 7974 7965 7964 7962 ] final   43.39 input  175.53 | X-H torsion
[ 8008 7997 7996 7995 ] final  -52.03 input   59.86 | X-H torsion
[ 10167 10162 10161 10158 ] final  122.42 input  -65.29 | X-H torsion
[ 10718 10713 10712 10709 ] final   23.96 input   66.30 | X-H torsion
[ 10763 10752 10751 10750 ] final  151.78 input  -60.55 | X-H torsion
[ 11005 11000 10999 10996 ] final  -54.29 input  -57.11 | X-H torsion

> <Gold.Protein.ActiveResidues>
 VAL166  LYS551  ARG553  GLY616  TRP617  ASP618  TYR619  PRO620  LYS621  CYS622 
 ASP623  PHE694  ASN695  SER759  ASP760  ASP761  ALA762  ILE779  LEU786  VAL792 
 PHE793  MET794  SER795  GLU796  ALA797  LYS798  CYS799  TRP800  GLU811  SER814 

> <Gold.Protein.RotatedAtoms>
  150.8576  134.7920  159.7057 H   0  0  0  0  0  0  0  0  0  0  0  0  # atno 6907 bound_to 6896
  152.4623  134.5152  159.9776 H   0  0  0  0  0  0  0  0  0  0  0  0  # atno 6908 bound_to 6896
  151.5262  133.3419  159.2945 H   0  0  0  0  0  0  0  0  0  0  0  0  # atno 6909 bound_to 6896
  146.0659  139.5192  142.9628 H   0  0  0  0  0  0  0  0  0  0  0  0  # atno 7974 bound_to 7965
  154.4097  140.1233  156.4925 H   0  0  0  0  0  0  0  0  0  0  0  0  # atno 8008 bound_to 7997
  155.6975  140.3495  155.4900 H   0  0  0  0  0  0  0  0  0  0  0  0  # atno 8009 bound_to 7997
  155.9414  140.1088  157.1042 H   0  0  0  0  0  0  0  0  0  0  0  0  # atno 8010 bound_to 7997
  139.5860  144.7006  151.3409 H   0  0  0  0  0  0  0  0  0  0  0  0  # atno 10167 bound_to 10162
  157.1732  130.6769  149.6085 H   0  0  0  0  0  0  0  0  0  0  0  0  # atno 10718 bound_to 10713
  154.1094  135.2840  155.3234 H   0  0  0  0  0  0  0  0  0  0  0  0  # atno 10763 bound_to 10752
  154.6500  135.5372  153.7894 H   0  0  0  0  0  0  0  0  0  0  0  0  # atno 10764 bound_to 10752
  153.0351  135.6508  154.1253 H   0  0  0  0  0  0  0  0  0  0  0  0  # atno 10765 bound_to 10752
  141.1018  133.6617  156.4299 H   0  0  0  0  0  0  0  0  0  0  0  0  # atno 11005 bound_to 11000
  145.6478  141.0270  143.1777 LP  0  0  0  0  0  0  0  0  0  0  0  0  # atno 17320 bound_to 7965
  144.7202  139.8056  143.7384 LP  0  0  0  0  0  0  0  0  0  0  0  0  # atno 17321 bound_to 7965
  140.7131  143.7338  150.7604 LP  0  0  0  0  0  0  0  0  0  0  0  0  # atno 17342 bound_to 10162
  140.0882  143.4903  152.2493 LP  0  0  0  0  0  0  0  0  0  0  0  0  # atno 17343 bound_to 10162
  155.9735  130.4672  150.6315 LP  0  0  0  0  0  0  0  0  0  0  0  0  # atno 17370 bound_to 10713
  157.4023  131.0811  151.1297 LP  0  0  0  0  0  0  0  0  0  0  0  0  # atno 17371 bound_to 10713
  140.5002  134.6493  157.5245 LP  0  0  0  0  0  0  0  0  0  0  0  0  # atno 17394 bound_to 11000
  139.9873  134.7041  155.9751 LP  0  0  0  0  0  0  0  0  0  0  0  0  # atno 17395 bound_to 11000

$$$$
