AV-unprocessed.smi:2492|AV-procd|sdf|9816|dock4
  -GOLD-   2272013443D 1   1.00000     0.00000
 Structure written by MMmdl.
 32 33  0  0  0  0  0  0  0  0  2 V2000
  151.4913  145.6329  159.9189 C   0  0  0  0  0  0  0  0  0  0  0  0
  151.9361  144.1922  158.9137 S   0  0  0  0  0  0  0  0  0  0  0  0
  153.1521  143.3979  160.0049 C   0  0  1  0  0  0  0  0  0  0  0  0
  152.5638  142.9509  161.3420 C   0  0  0  0  0  0  0  0  0  0  0  0
  153.5620  141.9145  161.8594 C   0  0  0  0  0  0  0  0  0  0  0  0
  154.1691  141.2478  160.6112 C   0  0  1  0  0  0  0  0  0  0  0  0
  153.7095  139.8658  160.4920 N   0  0  0  0  0  0  0  0  0  0  0  0
  154.1260  138.9765  159.5788 C   0  0  0  0  0  0  0  0  0  0  0  0
  154.9721  139.3042  158.7433 O   0  0  0  0  0  0  0  0  0  0  0  0
  153.5341  137.7655  159.6882 N   0  5  0  0  0  0  0  0  0  0  0  0
  153.9355  136.7491  158.9072 C   0  0  0  0  0  0  0  0  0  0  0  0
  154.0962  135.4816  159.2899 N   0  0  0  0  0  0  0  0  0  0  0  0
  154.4922  134.8882  158.1322 C   0  0  0  0  0  0  0  0  0  0  0  0
  154.8054  133.4346  158.0334 C   0  0  0  0  0  0  0  0  0  0  0  0
  154.5775  135.6826  157.0758 N   0  0  0  0  0  0  0  0  0  0  0  0
  154.2006  136.9322  157.5872 O   0  0  0  0  0  0  0  0  0  0  0  0
  153.7238  142.1081  159.4100 C   0  0  0  0  0  0  0  0  0  0  0  0
  150.7852  146.2629  159.3783 H   0  0  0  0  0  0  0  0  0  0  0  0
  152.3766  146.2254  160.1494 H   0  0  0  0  0  0  0  0  0  0  0  0
  151.0264  145.3206  160.8538 H   0  0  0  0  0  0  0  0  0  0  0  0
  153.9715  144.0946  160.1870 H   0  0  0  0  0  0  0  0  0  0  0  0
  152.4235  143.7758  162.0405 H   0  0  0  0  0  0  0  0  0  0  0  0
  151.5941  142.4766  161.1841 H   0  0  0  0  0  0  0  0  0  0  0  0
  154.3520  142.4230  162.4138 H   0  0  0  0  0  0  0  0  0  0  0  0
  153.0955  141.2063  162.5457 H   0  0  0  0  0  0  0  0  0  0  0  0
  155.2570  141.2602  160.7014 H   0  0  0  0  0  0  0  0  0  0  0  0
  153.0156  139.5568  161.1568 H   0  0  0  0  0  0  0  0  0  0  0  0
  153.9201  132.8810  157.7207 H   0  0  0  0  0  0  0  0  0  0  0  0
  155.1339  133.0481  158.9985 H   0  0  0  0  0  0  0  0  0  0  0  0
  155.5991  133.2610  157.3061 H   0  0  0  0  0  0  0  0  0  0  0  0
  152.9454  141.5927  158.8447 H   0  0  0  0  0  0  0  0  0  0  0  0
  154.5447  142.3037  158.7193 H   0  0  0  0  0  0  0  0  0  0  0  0
  1  2  1  0  0  0  0
  1 18  1  0  0  0  0
  1 19  1  0  0  0  0
  1 20  1  0  0  0  0
  2  3  1  0  0  0  0
  3 17  1  0  0  0  0
  3  4  1  0  0  0  0
  3 21  1  0  0  0  0
  4  5  1  0  0  0  0
  4 22  1  0  0  0  0
  4 23  1  0  0  0  0
  5  6  1  0  0  0  0
  5 24  1  0  0  0  0
  5 25  1  0  0  0  0
  6  7  1  0  0  0  0
  6 17  1  0  0  0  0
  6 26  1  0  0  0  0
  7  8  1  0  0  0  0
  7 27  1  0  0  0  0
  8  9  2  0  0  0  0
  8 10  1  0  0  0  0
 10 11  1  0  0  0  0
 11 16  1  0  0  0  0
 11 12  2  0  0  0  0
 12 13  1  0  0  0  0
 13 14  1  0  0  0  0
 13 15  2  0  0  0  0
 14 28  1  0  0  0  0
 14 29  1  0  0  0  0
 14 30  1  0  0  0  0
 15 16  1  0  0  0  0
 17 31  1  0  0  0  0
 17 32  1  0  0  0  0
M  CHG  1  10  -1
M  END
> <s_m_source_file>
AV-unprocessed.smi

> <i_m_source_file_index>
2492

> <i_lp_mmshare_version>
43012

> <i_f3d_flags>
0

> <s_epik_input>
W0NIM11TW0NAQEhdMVtDSDJdW0NIMl1bQ0BIXShbQ0gyXTEpW05IXUMoPU8pW05IXWMybmMoW0NIM10pbm8y

> <s_epik_cmdline>
J2VwaWtfcHl0aG9uJywgJy1waCcsICc3LjAnLCAnLXRuJywgJzgnLCAnLW1hJywgJzIwMCcsICctbWV0YWxfYmluZGluZycsICctaW1hZScsICc8aW5maWxlLm1hZT4nLCAnLW9tYWUnLCAnPG91dGZpbGUubWFlPic=

> <r_lp_tautomer_probability>
1

> <r_epik_Ionization_Penalty>
6.26454

> <r_epik_Ionization_Penalty_Charging>
6.26445

> <r_epik_Ionization_Penalty_Neutral>
9.05726e-05

> <r_epik_State_Penalty>
6.26444

> <r_epik_Charging_Adjusted_Penalty>
12.5289

> <i_epik_Tot_Q>
-1

> <i_epik_Tot_abs_Q>
1

> <r_epik_Metal_State_Penalty>
2.20125

> <b_epik_Metal_Only>
1

> <s_lp_Force_Field>
OPLS_2005

> <r_lp_Energy>
11.8534

> <b_lp_Chiralities_Consistent>
1

> <s_lp_Variant>
AV-unprocessed.smi:2492-6

> <Gold.Version>
5.8.1

> <Gold.Id.Protein>
6NUR|6NUR_protein|mol2

> <Gold.PLP.Fitness>
42.6547

> <Gold.PLP.PLP>
-34.4049

> <Gold.PLP.part.hbond>
-3.0000

> <Gold.PLP.part.metal>
0.0000

> <Gold.PLP.part.buried>
-4.5800

> <Gold.PLP.part.nonpolar>
-26.4328

> <Gold.PLP.part.repulsive>
0.0501

> <Gold.PLP.ligand.clash>
0.0000

> <Gold.PLP.ligand.torsion>
0.3837

> <Gold.PLP.Chemscore.Hbond>
3.0000

> <Gold.PLP.Chemscore.CHOScore>
0.0000

> <Gold.PLP.Chemscore.Metal>
0.0000

> <Gold.Chemscore.Hbonds>
donor molecule, donor type, donor heavy atom, donor atom, acceptor molecule, acceptor atom, score
      P1  H  6896  6909       L1    12  1.00
      P1  H  7997  8009       L1     9  1.00
      P1  H 10752 10764       L1    15  1.00

> <Gold.PLP.Chemscore.Internal.Correction>
0.0172

> <Gold.Rescore>
     Score         DG    S(hbond)    S(metal)    S(lipo)     H(rot)  DE(clash)    DE(int)     intcor
     19.90     -21.68       2.87        0.00      84.30       1.27       0.00       1.78       ----

> <Gold.Chemscore.Fitness>
19.8993

> <Gold.Chemscore.DG>
-21.6820

> <Gold.Chemscore.ZeroCoef>
-5.4800

> <Gold.Chemscore.Hbond>
2.8720

> <Gold.Chemscore.Metal>
0.0000

> <Gold.Chemscore.Lipo>
84.3044

> <Gold.Chemscore.Internal_Hbond>
0.0000

> <Gold.Chemscore.DEClash>
0.0004

> <Gold.Chemscore.DEInternal>
1.7823

> <Gold.Chemscore.Rot>
1.2712

> <Gold.Chemscore.Internal.Correction>
   9.000000E+99

> <Gold.Chemscore.Hbonds>
donor molecule, donor type, donor heavy atom, donor atom, acceptor molecule, acceptor atom, score
      P1  H  6896  6909       L1    12  0.66
      P1  H  7997  8009       L1     9  0.98
      P1  H 10752 10764       L1    15  0.94

> <Gold.Chemscore.Hbond.Weighted>
-9.5926

> <Gold.Chemscore.Metal.Weighted>
-0.0000

> <Gold.Chemscore.Lipo.Weighted>
-9.8636

> <Gold.Chemscore.Internal_Hbond.Weighted>
0.0000

> <Gold.Chemscore.DEClash.Weighted>
0.0004

> <Gold.Chemscore.DEInternal.Weighted>
1.7823

> <Gold.Chemscore.Rot.Weighted>
3.2542

> <Gold.Chemscore.Internal.Correction.Weighted>
   9.000000E+99

> <Gold.Protein.RotatedTorsions>
[ 6907 6896 6895 6894 ] final -176.67 input  -60.11 | X-H torsion
[ 7974 7965 7964 7962 ] final   82.14 input  175.53 | X-H torsion
[ 8008 7997 7996 7995 ] final  102.11 input   59.86 | X-H torsion
[ 10167 10162 10161 10158 ] final   24.68 input  -65.29 | X-H torsion
[ 10718 10713 10712 10709 ] final -146.12 input   66.30 | X-H torsion
[ 10763 10752 10751 10750 ] final   28.62 input  -60.55 | X-H torsion
[ 11005 11000 10999 10996 ] final  128.03 input  -57.11 | X-H torsion

> <Gold.Protein.ActiveResidues>
 VAL166  LYS551  ARG553  GLY616  TRP617  ASP618  TYR619  PRO620  LYS621  CYS622 
 ASP623  PHE694  ASN695  SER759  ASP760  ASP761  ALA762  ILE779  LEU786  VAL792 
 PHE793  MET794  SER795  GLU796  ALA797  LYS798  CYS799  TRP800  GLU811  SER814 

> <Gold.Protein.RotatedAtoms>
  151.6086  133.3349  159.3062 H   0  0  0  0  0  0  0  0  0  0  0  0  # atno 6907 bound_to 6896
  150.8169  134.7359  159.6749 H   0  0  0  0  0  0  0  0  0  0  0  0  # atno 6908 bound_to 6896
  152.4264  134.5865  160.0014 H   0  0  0  0  0  0  0  0  0  0  0  0  # atno 6909 bound_to 6896
  145.6289  139.2401  143.2096 H   0  0  0  0  0  0  0  0  0  0  0  0  # atno 7974 bound_to 7965
  156.1363  140.3186  155.8425 H   0  0  0  0  0  0  0  0  0  0  0  0  # atno 8008 bound_to 7997
  155.4239  140.0514  157.3041 H   0  0  0  0  0  0  0  0  0  0  0  0  # atno 8009 bound_to 7997
  154.4939  140.2103  155.9501 H   0  0  0  0  0  0  0  0  0  0  0  0  # atno 8010 bound_to 7997
  140.5168  144.0068  150.6398 H   0  0  0  0  0  0  0  0  0  0  0  0  # atno 10167 bound_to 10162
  156.3910  130.7885  151.2087 H   0  0  0  0  0  0  0  0  0  0  0  0  # atno 10718 bound_to 10713
  153.0480  135.6509  154.0766 H   0  0  0  0  0  0  0  0  0  0  0  0  # atno 10763 bound_to 10752
  154.0460  135.2899  155.3349 H   0  0  0  0  0  0  0  0  0  0  0  0  # atno 10764 bound_to 10752
  154.6751  135.5341  153.8255 H   0  0  0  0  0  0  0  0  0  0  0  0  # atno 10765 bound_to 10752
  139.9539  134.9617  156.8942 H   0  0  0  0  0  0  0  0  0  0  0  0  # atno 11005 bound_to 11000
  146.1372  140.7106  142.9384 LP  0  0  0  0  0  0  0  0  0  0  0  0  # atno 17320 bound_to 7965
  144.7201  140.4345  143.7014 LP  0  0  0  0  0  0  0  0  0  0  0  0  # atno 17321 bound_to 7965
  140.3406  143.3022  152.0592 LP  0  0  0  0  0  0  0  0  0  0  0  0  # atno 17342 bound_to 10162
  139.4912  144.6445  151.6808 LP  0  0  0  0  0  0  0  0  0  0  0  0  # atno 17343 bound_to 10162
  157.7499  131.0315  150.4187 LP  0  0  0  0  0  0  0  0  0  0  0  0  # atno 17370 bound_to 10713
  156.4448  130.3999  149.6674 LP  0  0  0  0  0  0  0  0  0  0  0  0  # atno 17371 bound_to 10713
  140.5655  134.0493  155.7413 LP  0  0  0  0  0  0  0  0  0  0  0  0  # atno 17394 bound_to 11000
  141.1207  133.9466  157.2736 LP  0  0  0  0  0  0  0  0  0  0  0  0  # atno 17395 bound_to 11000

$$$$
