AV-unprocessed.smi:725|AV-procd|sdf|3509|dock9
  -GOLD-   22720 0503D 1   1.00000     0.00000
 Structure written by MMmdl.
 47 48  0  0  0  0  0  0  0  0  1 V2000
  148.3570  140.3541  154.1477 C   0  0  0  0  0  0  0  0  0  0  0  0
  149.2881  139.4316  154.9425 C   0  0  0  0  0  0  0  0  0  0  0  0
  150.0349  138.4326  154.0361 C   0  0  0  0  0  0  0  0  0  0  0  0
  151.1425  137.5890  154.7166 C   0  0  2  0  0  0  0  0  0  0  0  0
  152.0777  138.4559  155.5875 C   0  0  0  0  0  0  0  0  0  0  0  0
  151.9113  136.9912  153.6897 O   0  0  0  0  0  0  0  0  0  0  0  0
  150.4743  136.4359  155.5090 C   0  0  0  0  0  0  0  0  0  0  0  0
  149.7941  135.4600  154.6592 N   0  0  0  0  0  0  0  0  0  0  0  0
  149.4038  134.2300  155.0325 C   0  0  0  0  0  0  0  0  0  0  0  0
  149.5714  133.7751  156.1644 O   0  0  0  0  0  0  0  0  0  0  0  0
  148.7046  133.4331  153.9624 C   0  0  0  0  0  0  0  0  0  0  0  0
  147.7340  134.0668  153.1518 C   0  0  0  0  0  0  0  0  0  0  0  0
  147.1099  133.3441  152.1202 C   0  0  0  0  0  0  0  0  0  0  0  0
  147.4861  132.0047  151.9262 C   0  0  0  0  0  0  0  0  0  0  0  0
  148.4111  131.3825  152.6840 N   0  0  0  0  0  0  0  0  0  0  0  0
  149.0176  132.0687  153.6850 C   0  0  0  0  0  0  0  0  0  0  0  0
  149.9443  131.3506  154.4676 N   0  0  0  0  0  0  0  0  0  0  0  0
  151.2785  131.9208  154.6245 C   0  0  0  0  0  0  0  0  0  0  0  0
  152.0577  131.1377  155.6949 C   0  0  0  0  0  0  0  0  0  0  0  0
  152.0919  129.7564  155.3460 O   0  0  0  0  0  0  0  0  0  0  0  0
  150.7862  129.1905  155.2681 C   0  0  0  0  0  0  0  0  0  0  0  0
  149.9693  129.9201  154.1882 C   0  0  0  0  0  0  0  0  0  0  0  0
  147.8389  141.0473  154.8105 H   0  0  0  0  0  0  0  0  0  0  0  0
  147.6018  139.7819  153.6087 H   0  0  0  0  0  0  0  0  0  0  0  0
  148.9142  140.9441  153.4197 H   0  0  0  0  0  0  0  0  0  0  0  0
  150.0008  140.0429  155.4963 H   0  0  0  0  0  0  0  0  0  0  0  0
  148.6938  138.8985  155.6838 H   0  0  0  0  0  0  0  0  0  0  0  0
  149.3025  137.7600  153.5875 H   0  0  0  0  0  0  0  0  0  0  0  0
  150.4745  138.9851  153.2043 H   0  0  0  0  0  0  0  0  0  0  0  0
  151.5255  138.9341  156.3969 H   0  0  0  0  0  0  0  0  0  0  0  0
  152.5639  139.2402  155.0086 H   0  0  0  0  0  0  0  0  0  0  0  0
  152.8790  137.8693  156.0366 H   0  0  0  0  0  0  0  0  0  0  0  0
  151.3269  136.7117  153.0020 H   0  0  0  0  0  0  0  0  0  0  0  0
  151.2219  135.9324  156.1244 H   0  0  0  0  0  0  0  0  0  0  0  0
  149.7422  136.8365  156.2113 H   0  0  0  0  0  0  0  0  0  0  0  0
  149.5973  135.7478  153.7118 H   0  0  0  0  0  0  0  0  0  0  0  0
  147.4714  135.1035  153.3065 H   0  0  0  0  0  0  0  0  0  0  0  0
  146.3667  133.8079  151.4888 H   0  0  0  0  0  0  0  0  0  0  0  0
  147.0326  131.4164  151.1423 H   0  0  0  0  0  0  0  0  0  0  0  0
  151.8135  131.8770  153.6747 H   0  0  0  0  0  0  0  0  0  0  0  0
  151.2026  132.9710  154.9093 H   0  0  0  0  0  0  0  0  0  0  0  0
  153.0788  131.5122  155.7662 H   0  0  0  0  0  0  0  0  0  0  0  0
  151.6015  131.2636  156.6782 H   0  0  0  0  0  0  0  0  0  0  0  0
  150.8714  128.1317  155.0240 H   0  0  0  0  0  0  0  0  0  0  0  0
  150.2916  129.2557  156.2388 H   0  0  0  0  0  0  0  0  0  0  0  0
  148.9585  129.5138  154.1505 H   0  0  0  0  0  0  0  0  0  0  0  0
  150.4157  129.7562  153.2064 H   0  0  0  0  0  0  0  0  0  0  0  0
  1  2  1  0  0  0  0
  1 23  1  0  0  0  0
  1 24  1  0  0  0  0
  1 25  1  0  0  0  0
  2  3  1  0  0  0  0
  2 26  1  0  0  0  0
  2 27  1  0  0  0  0
  3  4  1  0  0  0  0
  3 28  1  0  0  0  0
  3 29  1  0  0  0  0
  4  5  1  0  0  0  0
  4  6  1  0  0  0  0
  4  7  1  0  0  0  0
  5 30  1  0  0  0  0
  5 31  1  0  0  0  0
  5 32  1  0  0  0  0
  6 33  1  0  0  0  0
  7  8  1  0  0  0  0
  7 34  1  0  0  0  0
  7 35  1  0  0  0  0
  8  9  1  0  0  0  0
  8 36  1  0  0  0  0
  9 10  2  0  0  0  0
  9 11  1  0  0  0  0
 11 16  1  0  0  0  0
 11 12  2  0  0  0  0
 12 13  1  0  0  0  0
 12 37  1  0  0  0  0
 13 14  2  0  0  0  0
 13 38  1  0  0  0  0
 14 15  1  0  0  0  0
 14 39  1  0  0  0  0
 15 16  2  0  0  0  0
 16 17  1  0  0  0  0
 17 22  1  0  0  0  0
 17 18  1  0  0  0  0
 18 19  1  0  0  0  0
 18 40  1  0  0  0  0
 18 41  1  0  0  0  0
 19 20  1  0  0  0  0
 19 42  1  0  0  0  0
 19 43  1  0  0  0  0
 20 21  1  0  0  0  0
 21 22  1  0  0  0  0
 21 44  1  0  0  0  0
 21 45  1  0  0  0  0
 22 46  1  0  0  0  0
 22 47  1  0  0  0  0
M  END
> <s_m_source_file>
AV-unprocessed.smi

> <i_m_source_file_index>
725

> <i_lp_mmshare_version>
43012

> <i_f3d_flags>
0

> <s_epik_input>
W0NIM11bQ0gyXVtDSDJdW0NAQF0oW0NIM10pKFtPSF0pW0NIMl1bTkhdQyg9TyljMVtjSF1bY0hdW2NIXW5jMU4yW0NIMl1bQ0gyXU9bQ0gyXVtDSDJdMg==

> <s_epik_cmdline>
J2VwaWtfcHl0aG9uJywgJy1waCcsICc3LjAnLCAnLXRuJywgJzgnLCAnLW1hJywgJzIwMCcsICctbWV0YWxfYmluZGluZycsICctaW1hZScsICc8aW5maWxlLm1hZT4nLCAnLW9tYWUnLCAnPG91dGZpbGUubWFlPic=

> <r_lp_tautomer_probability>
1

> <r_epik_Ionization_Penalty>
1.23446e-05

> <r_epik_Ionization_Penalty_Charging>
0

> <r_epik_Ionization_Penalty_Neutral>
1.23446e-05

> <r_epik_State_Penalty>
-0

> <r_epik_Charging_Adjusted_Penalty>
0

> <i_epik_Tot_Q>
0

> <i_epik_Tot_abs_Q>
0

> <r_epik_Metal_State_Penalty>
-0

> <b_epik_Metal_Only>
0

> <s_lp_Force_Field>
OPLS_2005

> <r_lp_Energy>
29.6434

> <b_lp_Chiralities_Consistent>
1

> <s_lp_Variant>
AV-unprocessed.smi:725-2

> <Gold.Version>
5.8.1

> <Gold.Id.Protein>
6NUR|6NUR_protein|mol2

> <Gold.PLP.Fitness>
36.2980

> <Gold.PLP.PLP>
-29.8645

> <Gold.PLP.part.hbond>
-3.0000

> <Gold.PLP.part.metal>
0.0000

> <Gold.PLP.part.buried>
-1.2815

> <Gold.PLP.part.nonpolar>
-26.0598

> <Gold.PLP.part.repulsive>
0.4512

> <Gold.PLP.ligand.clash>
0.0000

> <Gold.PLP.ligand.torsion>
1.2335

> <Gold.PLP.Chemscore.Hbond>
2.8640

> <Gold.PLP.Chemscore.CHOScore>
0.0000

> <Gold.PLP.Chemscore.Metal>
0.0000

> <Gold.Chemscore.Hbonds>
donor molecule, donor type, donor heavy atom, donor atom, acceptor molecule, acceptor atom, score
      L1  H     6    33       P1  7949  0.93
      L1  H     8    36       P1  7948  1.00
      P1  H 10752 10763       L1     6  1.00
      L1  C    14    39       P1 10747  0.27

> <Gold.PLP.Chemscore.Internal.Correction>
0.3085

> <Gold.Rescore>
     Score         DG    S(hbond)    S(metal)    S(lipo)     H(rot)  DE(clash)    DE(int)     intcor
     10.05     -15.66       2.22        0.00      71.63       2.19       1.00       4.61       ----

> <Gold.Chemscore.Fitness>
10.0514

> <Gold.Chemscore.DG>
-15.6633

> <Gold.Chemscore.ZeroCoef>
-5.4800

> <Gold.Chemscore.Hbond>
2.2208

> <Gold.Chemscore.Metal>
0.0000

> <Gold.Chemscore.Lipo>
71.6306

> <Gold.Chemscore.Internal_Hbond>
0.0000

> <Gold.Chemscore.DEClash>
0.9993

> <Gold.Chemscore.DEInternal>
4.6126

> <Gold.Chemscore.Rot>
2.1933

> <Gold.Chemscore.Internal.Correction>
   9.000000E+99

> <Gold.Chemscore.Hbonds>
donor molecule, donor type, donor heavy atom, donor atom, acceptor molecule, acceptor atom, score
      L1  H     6    33       P1  7949  0.68
      L1  H     8    36       P1  7948  0.25
      P1  H 10752 10763       L1     6  0.60

> <Gold.Chemscore.Hbond.Weighted>
-7.4174

> <Gold.Chemscore.Metal.Weighted>
-0.0000

> <Gold.Chemscore.Lipo.Weighted>
-8.3808

> <Gold.Chemscore.Internal_Hbond.Weighted>
0.0000

> <Gold.Chemscore.DEClash.Weighted>
0.9993

> <Gold.Chemscore.DEInternal.Weighted>
4.6126

> <Gold.Chemscore.Rot.Weighted>
5.6149

> <Gold.Chemscore.Internal.Correction.Weighted>
   9.000000E+99

> <Gold.Protein.RotatedTorsions>
[ 6907 6896 6895 6894 ] final -101.98 input  -60.11 | X-H torsion
[ 7974 7965 7964 7962 ] final  -78.14 input  175.53 | X-H torsion
[ 8008 7997 7996 7995 ] final -103.80 input   59.86 | X-H torsion
[ 10167 10162 10161 10158 ] final  179.03 input  -65.29 | X-H torsion
[ 10718 10713 10712 10709 ] final -179.49 input   66.30 | X-H torsion
[ 10763 10752 10751 10750 ] final   20.04 input  -60.55 | X-H torsion
[ 11005 11000 10999 10996 ] final -132.11 input  -57.11 | X-H torsion

> <Gold.Protein.ActiveResidues>
 VAL166  LYS551  ARG553  GLY616  TRP617  ASP618  TYR619  PRO620  LYS621  CYS622 
 ASP623  PHE694  ASN695  SER759  ASP760  ASP761  ALA762  ILE779  LEU786  VAL792 
 PHE793  MET794  SER795  GLU796  ALA797  LYS798  CYS799  TRP800  GLU811  SER814 

> <Gold.Protein.RotatedAtoms>
  150.7177  134.0650  159.3844 H   0  0  0  0  0  0  0  0  0  0  0  0  # atno 6907 bound_to 6896
  151.8631  135.0514  160.0481 H   0  0  0  0  0  0  0  0  0  0  0  0  # atno 6908 bound_to 6896
  152.2701  133.5339  159.5471 H   0  0  0  0  0  0  0  0  0  0  0  0  # atno 6909 bound_to 6896
  145.5904  140.9430  143.1295 H   0  0  0  0  0  0  0  0  0  0  0  0  # atno 7974 bound_to 7965
  154.8761  140.0421  157.1754 H   0  0  0  0  0  0  0  0  0  0  0  0  # atno 8008 bound_to 7997
  154.8688  140.2955  155.5473 H   0  0  0  0  0  0  0  0  0  0  0  0  # atno 8009 bound_to 7997
  156.2999  140.2433  156.3674 H   0  0  0  0  0  0  0  0  0  0  0  0  # atno 8010 bound_to 7997
  139.5319  144.2609  152.0707 H   0  0  0  0  0  0  0  0  0  0  0  0  # atno 10167 bound_to 10162
  156.8599  130.9748  151.3084 H   0  0  0  0  0  0  0  0  0  0  0  0  # atno 10718 bound_to 10713
  153.1111  135.6697  153.9499 H   0  0  0  0  0  0  0  0  0  0  0  0  # atno 10763 bound_to 10752
  153.9042  135.3032  155.3450 H   0  0  0  0  0  0  0  0  0  0  0  0  # atno 10764 bound_to 10752
  154.7530  135.5025  153.9401 H   0  0  0  0  0  0  0  0  0  0  0  0  # atno 10765 bound_to 10752
  140.9199  134.1458  157.4322 H   0  0  0  0  0  0  0  0  0  0  0  0  # atno 11005 bound_to 11000
  144.7354  139.7602  143.7331 LP  0  0  0  0  0  0  0  0  0  0  0  0  # atno 17320 bound_to 7965
  146.1651  139.4780  142.9963 LP  0  0  0  0  0  0  0  0  0  0  0  0  # atno 17321 bound_to 7965
  140.2074  144.4597  150.6402 LP  0  0  0  0  0  0  0  0  0  0  0  0  # atno 17342 bound_to 10162
  140.6502  143.2223  151.6094 LP  0  0  0  0  0  0  0  0  0  0  0  0  # atno 17343 bound_to 10162
  157.6256  130.8689  149.9183 LP  0  0  0  0  0  0  0  0  0  0  0  0  # atno 17370 bound_to 10713
  156.0782  130.3676  150.0634 LP  0  0  0  0  0  0  0  0  0  0  0  0  # atno 17371 bound_to 10713
  139.8773  134.9967  156.5811 LP  0  0  0  0  0  0  0  0  0  0  0  0  # atno 17394 bound_to 11000
  140.8001  133.8512  155.8719 LP  0  0  0  0  0  0  0  0  0  0  0  0  # atno 17395 bound_to 11000

$$$$
