AV-unprocessed.smi:1118|AV-procd|sdf|4815|dock5
  -GOLD-   22720 3373D 1   1.00000     0.00000
 Structure written by MMmdl.
 45 46  0  0  0  0  0  0  0  0  2 V2000
  151.8968  138.5890  154.7525 C   0  0  0  0  0  0  0  0  0  0  0  0
  151.0002  139.6832  154.6673 O   0  0  0  0  0  0  0  0  0  0  0  0
  150.8063  140.3254  155.9167 C   0  0  0  0  0  0  0  0  0  0  0  0
  150.3362  141.7671  155.6692 C   0  0  0  0  0  0  0  0  0  0  0  0
  148.8748  141.8568  155.4201 N   0  3  2  0  0  0  0  0  0  0  0  0
  148.0811  141.3783  156.5807 C   0  0  0  0  0  0  0  0  0  0  0  0
  146.5786  141.6147  156.3573 C   0  0  0  0  0  0  0  0  0  0  0  0
  146.0741  140.9310  155.0691 C   0  0  2  0  0  0  0  0  0  0  0  0
  145.9929  139.3880  155.1498 C   0  0  0  0  0  0  0  0  0  0  0  0
  145.2241  138.8293  154.0430 N   0  0  0  0  0  0  0  0  0  0  0  0
  145.0536  137.5211  153.7946 C   0  0  0  0  0  0  0  0  0  0  0  0
  145.6096  136.6260  154.4310 O   0  0  0  0  0  0  0  0  0  0  0  0
  144.0680  137.1675  152.6818 C   0  0  0  0  0  0  0  0  0  0  0  0
  142.7095  137.1545  153.1940 N   0  0  0  0  0  0  0  0  0  0  0  0
  141.7043  138.0745  152.9786 C   0  0  0  0  0  0  0  0  0  0  0  0
  140.5980  137.6315  153.6453 C   0  0  0  0  0  0  0  0  0  0  0  0
  141.0290  136.4155  154.2455 C   0  0  0  0  0  0  0  0  0  0  0  0
  142.2926  136.1317  153.9732 N   0  0  0  0  0  0  0  0  0  0  0  0
  146.9448  141.4056  153.8909 C   0  0  0  0  0  0  0  0  0  0  0  0
  148.4494  141.2015  154.1540 C   0  0  0  0  0  0  0  0  0  0  0  0
  152.0069  138.1278  153.7709 H   0  0  0  0  0  0  0  0  0  0  0  0
  151.5277  137.8286  155.4422 H   0  0  0  0  0  0  0  0  0  0  0  0
  152.8841  138.9130  155.0844 H   0  0  0  0  0  0  0  0  0  0  0  0
  150.0967  139.7697  156.5300 H   0  0  0  0  0  0  0  0  0  0  0  0
  151.7502  140.3449  156.4636 H   0  0  0  0  0  0  0  0  0  0  0  0
  150.6039  142.4062  156.5117 H   0  0  0  0  0  0  0  0  0  0  0  0
  150.8814  142.1539  154.8072 H   0  0  0  0  0  0  0  0  0  0  0  0
  148.2834  140.3209  156.7558 H   0  0  0  0  0  0  0  0  0  0  0  0
  148.3906  141.9102  157.4810 H   0  0  0  0  0  0  0  0  0  0  0  0
  146.0115  141.2867  157.2283 H   0  0  0  0  0  0  0  0  0  0  0  0
  146.3995  142.6881  156.2825 H   0  0  0  0  0  0  0  0  0  0  0  0
  145.0585  141.2867  154.8893 H   0  0  0  0  0  0  0  0  0  0  0  0
  146.9977  138.9679  155.0966 H   0  0  0  0  0  0  0  0  0  0  0  0
  145.5871  139.0654  156.1089 H   0  0  0  0  0  0  0  0  0  0  0  0
  144.7224  139.4859  153.4621 H   0  0  0  0  0  0  0  0  0  0  0  0
  144.1410  137.8819  151.8600 H   0  0  0  0  0  0  0  0  0  0  0  0
  144.3031  136.1828  152.2757 H   0  0  0  0  0  0  0  0  0  0  0  0
  141.8582  138.9561  152.3735 H   0  0  0  0  0  0  0  0  0  0  0  0
  139.6281  138.1037  153.6955 H   0  0  0  0  0  0  0  0  0  0  0  0
  140.4648  135.7347  154.8657 H   0  0  0  0  0  0  0  0  0  0  0  0
  146.6524  140.8929  152.9739 H   0  0  0  0  0  0  0  0  0  0  0  0
  146.7591  142.4660  153.7142 H   0  0  0  0  0  0  0  0  0  0  0  0
  149.0053  141.6129  153.3126 H   0  0  0  0  0  0  0  0  0  0  0  0
  148.6902  140.1386  154.1931 H   0  0  0  0  0  0  0  0  0  0  0  0
  148.6642  142.8408  155.3275 H   0  0  0  0  0  0  0  0  0  0  0  0
  1  2  1  0  0  0  0
  1 21  1  0  0  0  0
  1 22  1  0  0  0  0
  1 23  1  0  0  0  0
  2  3  1  0  0  0  0
  3  4  1  0  0  0  0
  3 24  1  0  0  0  0
  3 25  1  0  0  0  0
  4  5  1  0  0  0  0
  4 26  1  0  0  0  0
  4 27  1  0  0  0  0
  5 20  1  0  0  0  0
  5  6  1  0  0  0  0
  5 45  1  0  0  0  0
  6  7  1  0  0  0  0
  6 28  1  0  0  0  0
  6 29  1  0  0  0  0
  7  8  1  0  0  0  0
  7 30  1  0  0  0  0
  7 31  1  0  0  0  0
  8  9  1  0  0  0  0
  8 19  1  0  0  0  0
  8 32  1  0  0  0  0
  9 10  1  0  0  0  0
  9 33  1  0  0  0  0
  9 34  1  0  0  0  0
 10 11  1  0  0  0  0
 10 35  1  0  0  0  0
 11 12  2  0  0  0  0
 11 13  1  0  0  0  0
 13 14  1  0  0  0  0
 13 36  1  0  0  0  0
 13 37  1  0  0  0  0
 14 18  1  0  0  0  0
 14 15  1  0  0  0  0
 15 16  2  0  0  0  0
 15 38  1  0  0  0  0
 16 17  1  0  0  0  0
 16 39  1  0  0  0  0
 17 18  2  0  0  0  0
 17 40  1  0  0  0  0
 19 20  1  0  0  0  0
 19 41  1  0  0  0  0
 19 42  1  0  0  0  0
 20 43  1  0  0  0  0
 20 44  1  0  0  0  0
M  CHG  1   5   1
M  END
> <s_m_source_file>
AV-unprocessed.smi

> <i_m_source_file_index>
1118

> <i_lp_mmshare_version>
43012

> <i_f3d_flags>
0

> <s_epik_input>
W0NIM11PW0NIMl1bQ0gyXU4xW0NIMl1bQ0gyXVtDSF0oW0NIMl1bQ0gyXTEpW0NIMl1bTkhdQyg9TylbQ0gyXW4yW2NIXVtjSF1bY0hdbjI=

> <s_epik_cmdline>
J2VwaWtfcHl0aG9uJywgJy1waCcsICc3LjAnLCAnLXRuJywgJzgnLCAnLW1hJywgJzIwMCcsICctbWV0YWxfYmluZGluZycsICctaW1hZScsICc8aW5maWxlLm1hZT4nLCAnLW9tYWUnLCAnPG91dGZpbGUubWFlPic=

> <r_lp_tautomer_probability>
1

> <r_epik_Ionization_Penalty>
0.00991549

> <r_epik_Ionization_Penalty_Charging>
0.00990284

> <r_epik_Ionization_Penalty_Neutral>
1.26554e-05

> <r_epik_State_Penalty>
0.00754525

> <r_epik_Charging_Adjusted_Penalty>
0.0174481

> <i_epik_Tot_Q>
1

> <i_epik_Tot_abs_Q>
1

> <r_epik_Metal_State_Penalty>
0.00754527

> <b_epik_Metal_Only>
0

> <s_lp_Force_Field>
OPLS_2005

> <r_lp_Energy>
20.3216

> <b_lp_Chiralities_Consistent>
1

> <s_lp_Variant>
AV-unprocessed.smi:1118-2

> <Gold.Version>
5.8.1

> <Gold.Id.Protein>
6NUR|6NUR_protein|mol2

> <Gold.PLP.Fitness>
51.3299

> <Gold.PLP.PLP>
-31.9536

> <Gold.PLP.part.hbond>
-3.0000

> <Gold.PLP.part.metal>
0.0000

> <Gold.PLP.part.buried>
-3.5428

> <Gold.PLP.part.nonpolar>
-25.1334

> <Gold.PLP.part.repulsive>
0.3525

> <Gold.PLP.ligand.clash>
0.0000

> <Gold.PLP.ligand.torsion>
0.8400

> <Gold.PLP.Chemscore.Hbond>
4.0000

> <Gold.PLP.Chemscore.CHOScore>
2.9553

> <Gold.PLP.Chemscore.Metal>
0.0000

> <Gold.Chemscore.Hbonds>
donor molecule, donor type, donor heavy atom, donor atom, acceptor molecule, acceptor atom, score
      L1  H     5    45       P1  8028  2.00
      L1  H    10    35       P1 10175  1.00
      P1  H  7989  7998       L1     2  1.00
      L1  C    15    38       P1 10160  0.93
      L1  C    15    38       P1 10175  0.98
      L1  C    17    40       P1 11000  1.00

> <Gold.PLP.Chemscore.Internal.Correction>
0.1905

> <Gold.Rescore>
     Score         DG    S(hbond)    S(metal)    S(lipo)     H(rot)  DE(clash)    DE(int)     intcor
     16.37     -17.35       2.92        0.00      66.53       2.22       0.04       0.93       ----

> <Gold.Chemscore.Fitness>
16.3737

> <Gold.Chemscore.DG>
-17.3491

> <Gold.Chemscore.ZeroCoef>
-5.4800

> <Gold.Chemscore.Hbond>
2.9220

> <Gold.Chemscore.Metal>
0.0000

> <Gold.Chemscore.Lipo>
66.5297

> <Gold.Chemscore.Internal_Hbond>
0.0000

> <Gold.Chemscore.DEClash>
0.0404

> <Gold.Chemscore.DEInternal>
0.9350

> <Gold.Chemscore.Rot>
2.2166

> <Gold.Chemscore.Internal.Correction>
   9.000000E+99

> <Gold.Chemscore.Hbonds>
donor molecule, donor type, donor heavy atom, donor atom, acceptor molecule, acceptor atom, score
      L1  H     5    45       P1  8028  0.99
      L1  H    10    35       P1 10175  1.00
      P1  H  7989  7998       L1     2  0.49

> <Gold.Chemscore.Hbond.Weighted>
-9.7596

> <Gold.Chemscore.Metal.Weighted>
-0.0000

> <Gold.Chemscore.Lipo.Weighted>
-7.7840

> <Gold.Chemscore.Internal_Hbond.Weighted>
0.0000

> <Gold.Chemscore.DEClash.Weighted>
0.0404

> <Gold.Chemscore.DEInternal.Weighted>
0.9350

> <Gold.Chemscore.Rot.Weighted>
5.6745

> <Gold.Chemscore.Internal.Correction.Weighted>
   9.000000E+99

> <Gold.Protein.RotatedTorsions>
[ 6907 6896 6895 6894 ] final  -88.75 input  -60.11 | X-H torsion
[ 7974 7965 7964 7962 ] final  132.72 input  175.53 | X-H torsion
[ 8008 7997 7996 7995 ] final  -97.45 input   59.86 | X-H torsion
[ 10167 10162 10161 10158 ] final  122.10 input  -65.29 | X-H torsion
[ 10718 10713 10712 10709 ] final -170.67 input   66.30 | X-H torsion
[ 10763 10752 10751 10750 ] final   68.86 input  -60.55 | X-H torsion
[ 11005 11000 10999 10996 ] final -117.29 input  -57.11 | X-H torsion

> <Gold.Protein.ActiveResidues>
 VAL166  LYS551  ARG553  GLY616  TRP617  ASP618  TYR619  PRO620  LYS621  CYS622 
 ASP623  PHE694  ASN695  SER759  ASP760  ASP761  ALA762  ILE779  LEU786  VAL792 
 PHE793  MET794  SER795  GLU796  ALA797  LYS798  CYS799  TRP800  GLU811  SER814 

> <Gold.Protein.RotatedAtoms>
  150.6870  134.2693  159.4581 H   0  0  0  0  0  0  0  0  0  0  0  0  # atno 6907 bound_to 6896
  152.0616  134.9588  160.0584 H   0  0  0  0  0  0  0  0  0  0  0  0  # atno 6908 bound_to 6896
  152.1013  133.4216  159.4625 H   0  0  0  0  0  0  0  0  0  0  0  0  # atno 6909 bound_to 6896
  144.9939  139.4379  143.5326 H   0  0  0  0  0  0  0  0  0  0  0  0  # atno 7974 bound_to 7965
  154.7879  140.0463  157.1178 H   0  0  0  0  0  0  0  0  0  0  0  0  # atno 8008 bound_to 7997
  154.9626  140.3079  155.5004 H   0  0  0  0  0  0  0  0  0  0  0  0  # atno 8009 bound_to 7997
  156.2946  140.2268  156.4713 H   0  0  0  0  0  0  0  0  0  0  0  0  # atno 8010 bound_to 7997
  139.5879  144.7013  151.3364 H   0  0  0  0  0  0  0  0  0  0  0  0  # atno 10167 bound_to 10162
  156.7296  130.9301  151.3103 H   0  0  0  0  0  0  0  0  0  0  0  0  # atno 10718 bound_to 10713
  153.0257  135.5232  154.7200 H   0  0  0  0  0  0  0  0  0  0  0  0  # atno 10763 bound_to 10752
  154.6258  135.2894  155.0276 H   0  0  0  0  0  0  0  0  0  0  0  0  # atno 10764 bound_to 10752
  154.1246  135.6602  153.4962 H   0  0  0  0  0  0  0  0  0  0  0  0  # atno 10765 bound_to 10752
  141.0364  133.9902  157.3063 H   0  0  0  0  0  0  0  0  0  0  0  0  # atno 11005 bound_to 11000
  146.3437  139.9287  142.8756 LP  0  0  0  0  0  0  0  0  0  0  0  0  # atno 17320 bound_to 7965
  145.2247  140.9949  143.4025 LP  0  0  0  0  0  0  0  0  0  0  0  0  # atno 17321 bound_to 7965
  140.7147  143.7297  150.7633 LP  0  0  0  0  0  0  0  0  0  0  0  0  # atno 17342 bound_to 10162
  140.0846  143.4936  152.2512 LP  0  0  0  0  0  0  0  0  0  0  0  0  # atno 17343 bound_to 10162
  157.6864  130.9190  150.0398 LP  0  0  0  0  0  0  0  0  0  0  0  0  # atno 17370 bound_to 10713
  156.1538  130.3643  149.9399 LP  0  0  0  0  0  0  0  0  0  0  0  0  # atno 17371 bound_to 10713
  139.9244  135.0201  156.8181 LP  0  0  0  0  0  0  0  0  0  0  0  0  # atno 17394 bound_to 11000
  140.6313  133.9903  155.7663 LP  0  0  0  0  0  0  0  0  0  0  0  0  # atno 17395 bound_to 11000

$$$$
