AV-unprocessed.smi:3004|AV-procd|sdf|11440|dock10
  -GOLD-   2272016373D 1   1.00000     0.00000
 Structure written by MMmdl.
 47 48  0  0  0  0  0  0  0  0  2 V2000
  153.2506  140.6722  160.6434 C   0  0  0  0  0  0  0  0  0  0  0  0
  152.5562  141.9425  160.2505 C   0  0  0  0  0  0  0  0  0  0  0  0
  152.7880  143.2607  160.7339 C   0  0  0  0  0  0  0  0  0  0  0  0
  151.8874  144.0327  160.0557 C   0  0  0  0  0  0  0  0  0  0  0  0
  151.6365  145.5034  160.1222 C   0  0  0  0  0  0  0  0  0  0  0  0
  151.1782  143.1843  159.2237 N   0  0  0  0  0  0  0  0  0  0  0  0
  150.1084  143.4974  158.2876 C   0  0  0  0  0  0  0  0  0  0  0  0
  149.4943  142.2292  157.6910 C   0  0  0  0  0  0  0  0  0  0  0  0
  149.1422  141.3096  158.4294 O   0  0  0  0  0  0  0  0  0  0  0  0
  149.3681  142.1902  156.3551 N   0  0  0  0  0  0  0  0  0  0  0  0
  148.7877  141.0862  155.6014 C   0  0  0  0  0  0  0  0  0  0  0  0
  148.1130  141.5828  154.3070 C   0  0  0  0  0  0  0  0  0  0  0  0
  147.0771  142.6249  154.5429 N   0  3  1  0  0  0  0  0  0  0  0  0
  146.2676  142.8917  153.3227 C   0  0  0  0  0  0  0  0  0  0  0  0
  145.3583  144.1167  153.5086 C   0  0  0  0  0  0  0  0  0  0  0  0
  144.4556  143.9514  154.7358 C   0  0  0  0  0  0  0  0  0  0  0  0
  145.3114  143.6588  155.9759 C   0  0  0  0  0  0  0  0  0  0  0  0
  146.2405  142.4428  155.7713 C   0  0  1  0  0  0  0  0  0  0  0  0
  145.4664  141.1072  155.8012 C   0  0  0  0  0  0  0  0  0  0  0  0
  151.5932  141.9041  159.3445 N   0  0  0  0  0  0  0  0  0  0  0  0
  154.0964  140.8725  161.3016 H   0  0  0  0  0  0  0  0  0  0  0  0
  153.6298  140.1433  159.7689 H   0  0  0  0  0  0  0  0  0  0  0  0
  152.5716  140.0021  161.1710 H   0  0  0  0  0  0  0  0  0  0  0  0
  153.5064  143.5893  161.4705 H   0  0  0  0  0  0  0  0  0  0  0  0
  152.3051  145.9803  160.8391 H   0  0  0  0  0  0  0  0  0  0  0  0
  150.6117  145.7097  160.4312 H   0  0  0  0  0  0  0  0  0  0  0  0
  151.7999  145.9706  159.1510 H   0  0  0  0  0  0  0  0  0  0  0  0
  149.3345  144.0753  158.7954 H   0  0  0  0  0  0  0  0  0  0  0  0
  150.5080  144.1309  157.4948 H   0  0  0  0  0  0  0  0  0  0  0  0
  149.6854  142.9914  155.8277 H   0  0  0  0  0  0  0  0  0  0  0  0
  149.6024  140.3990  155.3765 H   0  0  0  0  0  0  0  0  0  0  0  0
  148.0759  140.5409  156.2237 H   0  0  0  0  0  0  0  0  0  0  0  0
  148.8821  142.0153  153.6657 H   0  0  0  0  0  0  0  0  0  0  0  0
  147.6944  140.7478  153.7449 H   0  0  0  0  0  0  0  0  0  0  0  0
  146.9307  143.0751  152.4764 H   0  0  0  0  0  0  0  0  0  0  0  0
  145.6754  142.0130  153.0652 H   0  0  0  0  0  0  0  0  0  0  0  0
  145.9702  145.0127  153.6222 H   0  0  0  0  0  0  0  0  0  0  0  0
  144.7501  144.2689  152.6164 H   0  0  0  0  0  0  0  0  0  0  0  0
  143.8658  144.8552  154.8919 H   0  0  0  0  0  0  0  0  0  0  0  0
  143.7438  143.1423  154.5691 H   0  0  0  0  0  0  0  0  0  0  0  0
  145.9176  144.5375  156.2020 H   0  0  0  0  0  0  0  0  0  0  0  0
  144.6698  143.5052  156.8444 H   0  0  0  0  0  0  0  0  0  0  0  0
  146.9091  142.4398  156.6313 H   0  0  0  0  0  0  0  0  0  0  0  0
  144.8590  141.0360  156.7039 H   0  0  0  0  0  0  0  0  0  0  0  0
  146.1378  140.2491  155.8093 H   0  0  0  0  0  0  0  0  0  0  0  0
  144.7947  140.9973  154.9502 H   0  0  0  0  0  0  0  0  0  0  0  0
  147.5956  143.4774  154.6998 H   0  0  0  0  0  0  0  0  0  0  0  0
  1  2  1  0  0  0  0
  1 21  1  0  0  0  0
  1 22  1  0  0  0  0
  1 23  1  0  0  0  0
  2 20  2  0  0  0  0
  2  3  1  0  0  0  0
  3  4  2  0  0  0  0
  3 24  1  0  0  0  0
  4  5  1  0  0  0  0
  4  6  1  0  0  0  0
  5 25  1  0  0  0  0
  5 26  1  0  0  0  0
  5 27  1  0  0  0  0
  6  7  1  0  0  0  0
  6 20  1  0  0  0  0
  7  8  1  0  0  0  0
  7 28  1  0  0  0  0
  7 29  1  0  0  0  0
  8  9  2  0  0  0  0
  8 10  1  0  0  0  0
 10 11  1  0  0  0  0
 10 30  1  0  0  0  0
 11 12  1  0  0  0  0
 11 31  1  0  0  0  0
 11 32  1  0  0  0  0
 12 13  1  0  0  0  0
 12 33  1  0  0  0  0
 12 34  1  0  0  0  0
 13 18  1  0  0  0  0
 13 14  1  0  0  0  0
 13 47  1  0  0  0  0
 14 15  1  0  0  0  0
 14 35  1  0  0  0  0
 14 36  1  0  0  0  0
 15 16  1  0  0  0  0
 15 37  1  0  0  0  0
 15 38  1  0  0  0  0
 16 17  1  0  0  0  0
 16 39  1  0  0  0  0
 16 40  1  0  0  0  0
 17 18  1  0  0  0  0
 17 41  1  0  0  0  0
 17 42  1  0  0  0  0
 18 19  1  0  0  0  0
 18 43  1  0  0  0  0
 19 44  1  0  0  0  0
 19 45  1  0  0  0  0
 19 46  1  0  0  0  0
M  CHG  1  13   1
M  END
> <s_m_source_file>
AV-unprocessed.smi

> <i_m_source_file_index>
3004

> <i_lp_mmshare_version>
43012

> <i_f3d_flags>
0

> <s_epik_input>
W0NIM11jMVtjSF1jKFtDSDNdKW4objEpW0NIMl1DKD1PKVtOSF1bQ0gyXVtDSDJdTjJbQ0gyXVtDSDJdW0NIMl1bQ0gyXVtDQEhdMltDSDNd

> <s_epik_cmdline>
J2VwaWtfcHl0aG9uJywgJy1waCcsICc3LjAnLCAnLXRuJywgJzgnLCAnLW1hJywgJzIwMCcsICctbWV0YWxfYmluZGluZycsICctaW1hZScsICc8aW5maWxlLm1hZT4nLCAnLW9tYWUnLCAnPG91dGZpbGUubWFlPic=

> <r_lp_tautomer_probability>
1

> <r_epik_Ionization_Penalty>
0.00303644

> <r_epik_Ionization_Penalty_Charging>
0.00284254

> <r_epik_Ionization_Penalty_Neutral>
0.000193908

> <r_epik_State_Penalty>
-0

> <r_epik_Charging_Adjusted_Penalty>
0.00284254

> <i_epik_Tot_Q>
1

> <i_epik_Tot_abs_Q>
1

> <r_epik_Metal_State_Penalty>
-0

> <b_epik_Metal_Only>
0

> <s_lp_Force_Field>
OPLS_2005

> <r_lp_Energy>
17.9546

> <b_lp_Chiralities_Consistent>
1

> <s_lp_Variant>
AV-unprocessed.smi:3004-2

> <Gold.Version>
5.8.1

> <Gold.Id.Protein>
6NUR|6NUR_protein|mol2

> <Gold.PLP.Fitness>
49.1255

> <Gold.PLP.PLP>
-42.1067

> <Gold.PLP.part.hbond>
-2.0000

> <Gold.PLP.part.metal>
0.0000

> <Gold.PLP.part.buried>
-7.6831

> <Gold.PLP.part.nonpolar>
-32.2329

> <Gold.PLP.part.repulsive>
0.2119

> <Gold.PLP.ligand.clash>
0.0000

> <Gold.PLP.ligand.torsion>
0.4822

> <Gold.PLP.Chemscore.Hbond>
2.6400

> <Gold.PLP.Chemscore.CHOScore>
0.0000

> <Gold.PLP.Chemscore.Metal>
0.0000

> <Gold.Chemscore.Hbonds>
donor molecule, donor type, donor heavy atom, donor atom, acceptor molecule, acceptor atom, score
      L1  H    10    30       P1  8028  0.59
      L1  H    13    47       P1  8028  2.00

> <Gold.PLP.Chemscore.Internal.Correction>
0.0632

> <Gold.Rescore>
     Score         DG    S(hbond)    S(metal)    S(lipo)     H(rot)  DE(clash)    DE(int)     intcor
     14.44     -16.09       0.91        0.00     101.03       1.67       0.02       1.62       ----

> <Gold.Chemscore.Fitness>
14.4430

> <Gold.Chemscore.DG>
-16.0857

> <Gold.Chemscore.ZeroCoef>
-5.4800

> <Gold.Chemscore.Hbond>
0.9131

> <Gold.Chemscore.Metal>
0.0000

> <Gold.Chemscore.Lipo>
101.0275

> <Gold.Chemscore.Internal_Hbond>
0.0000

> <Gold.Chemscore.DEClash>
0.0210

> <Gold.Chemscore.DEInternal>
1.6217

> <Gold.Chemscore.Rot>
1.6657

> <Gold.Chemscore.Internal.Correction>
   9.000000E+99

> <Gold.Chemscore.Hbonds>
donor molecule, donor type, donor heavy atom, donor atom, acceptor molecule, acceptor atom, score
      L1  H    10    30       P1  8028  0.58
      L1  H    13    47       P1  8028  0.29

> <Gold.Chemscore.Hbond.Weighted>
-3.0496

> <Gold.Chemscore.Metal.Weighted>
-0.0000

> <Gold.Chemscore.Lipo.Weighted>
-11.8202

> <Gold.Chemscore.Internal_Hbond.Weighted>
0.0000

> <Gold.Chemscore.DEClash.Weighted>
0.0210

> <Gold.Chemscore.DEInternal.Weighted>
1.6217

> <Gold.Chemscore.Rot.Weighted>
4.2641

> <Gold.Chemscore.Internal.Correction.Weighted>
   9.000000E+99

> <Gold.Protein.RotatedTorsions>
[ 6907 6896 6895 6894 ] final   -2.20 input  -60.11 | X-H torsion
[ 7974 7965 7964 7962 ] final   -0.21 input  175.53 | X-H torsion
[ 8008 7997 7996 7995 ] final   87.42 input   59.86 | X-H torsion
[ 10167 10162 10161 10158 ] final    6.09 input  -65.29 | X-H torsion
[ 10718 10713 10712 10709 ] final  -40.53 input   66.30 | X-H torsion
[ 10763 10752 10751 10750 ] final -139.26 input  -60.55 | X-H torsion
[ 11005 11000 10999 10996 ] final  176.82 input  -57.11 | X-H torsion

> <Gold.Protein.ActiveResidues>
 VAL166  LYS551  ARG553  GLY616  TRP617  ASP618  TYR619  PRO620  LYS621  CYS622 
 ASP623  PHE694  ASN695  SER759  ASP760  ASP761  ALA762  ILE779  LEU786  VAL792 
 PHE793  MET794  SER795  GLU796  ALA797  LYS798  CYS799  TRP800  GLU811  SER814 

> <Gold.Protein.RotatedAtoms>
  151.5338  135.1068  159.9909 H   0  0  0  0  0  0  0  0  0  0  0  0  # atno 6907 bound_to 6896
  152.4566  133.7732  159.6821 H   0  0  0  0  0  0  0  0  0  0  0  0  # atno 6908 bound_to 6896
  150.8512  133.7718  159.3049 H   0  0  0  0  0  0  0  0  0  0  0  0  # atno 6909 bound_to 6896
  146.2429  140.1236  142.8340 H   0  0  0  0  0  0  0  0  0  0  0  0  # atno 7974 bound_to 7965
  155.9751  140.3382  155.6611 H   0  0  0  0  0  0  0  0  0  0  0  0  # atno 8008 bound_to 7997
  155.6623  140.0717  157.2568 H   0  0  0  0  0  0  0  0  0  0  0  0  # atno 8009 bound_to 7997
  154.4176  140.1706  156.1777 H   0  0  0  0  0  0  0  0  0  0  0  0  # atno 8010 bound_to 7997
  140.6446  143.7692  150.7480 H   0  0  0  0  0  0  0  0  0  0  0  0  # atno 10167 bound_to 10162
  156.2803  130.4216  149.8344 H   0  0  0  0  0  0  0  0  0  0  0  0  # atno 10718 bound_to 10713
  154.8614  135.3588  154.5518 H   0  0  0  0  0  0  0  0  0  0  0  0  # atno 10763 bound_to 10752
  153.6136  135.7008  153.5342 H   0  0  0  0  0  0  0  0  0  0  0  0  # atno 10764 bound_to 10752
  153.3188  135.4157  155.1360 H   0  0  0  0  0  0  0  0  0  0  0  0  # atno 10765 bound_to 10752
  140.3773  134.6977  157.4429 H   0  0  0  0  0  0  0  0  0  0  0  0  # atno 11005 bound_to 11000
  145.0385  140.8927  143.5066 LP  0  0  0  0  0  0  0  0  0  0  0  0  # atno 17320 bound_to 7965
  145.1312  139.2630  143.5538 LP  0  0  0  0  0  0  0  0  0  0  0  0  # atno 17321 bound_to 7965
  140.1330  143.4509  152.2242 LP  0  0  0  0  0  0  0  0  0  0  0  0  # atno 17342 bound_to 10162
  139.5657  144.7433  151.4030 LP  0  0  0  0  0  0  0  0  0  0  0  0  # atno 17343 bound_to 10162
  156.5794  130.8459  151.3378 LP  0  0  0  0  0  0  0  0  0  0  0  0  # atno 17370 bound_to 10713
  157.7312  130.9697  150.1869 LP  0  0  0  0  0  0  0  0  0  0  0  0  # atno 17371 bound_to 10713
  140.0505  134.6137  155.8867 LP  0  0  0  0  0  0  0  0  0  0  0  0  # atno 17394 bound_to 11000
  141.1935  133.6579  156.5551 LP  0  0  0  0  0  0  0  0  0  0  0  0  # atno 17395 bound_to 11000

$$$$
