AV-unprocessed.smi:2478|AV-procd|sdf|9763|dock4
  -GOLD-   2272013403D 1   1.00000     0.00000
 Structure written by MMmdl.
 42 43  0  0  0  0  0  0  0  0  1 V2000
  153.5113  140.5097  160.5204 C   0  0  0  0  0  0  0  0  0  0  0  0
  152.8455  141.3033  159.3842 C   0  0  2  0  0  0  0  0  0  0  0  0
  152.6259  142.7714  159.8028 C   0  0  0  0  0  0  0  0  0  0  0  0
  151.9540  143.5883  158.6890 C   0  0  0  0  0  0  0  0  0  0  0  0
  150.6279  142.9462  158.2599 C   0  0  0  0  0  0  0  0  0  0  0  0
  150.8364  141.4875  157.8283 C   0  0  0  0  0  0  0  0  0  0  0  0
  151.5142  140.6561  158.9385 C   0  0  1  0  0  0  0  0  0  0  0  0
  151.8036  139.3549  158.4418 O   0  0  0  0  0  0  0  0  0  0  0  0
  150.6674  138.6361  157.9845 C   0  0  0  0  0  0  0  0  0  0  0  0
  150.2940  137.5932  159.0360 C   0  0  0  0  0  0  0  0  0  0  0  0
  151.1802  136.9137  159.5541 O   0  0  0  0  0  0  0  0  0  0  0  0
  148.9833  137.4964  159.3264 N   0  0  0  0  0  0  0  0  0  0  0  0
  148.3396  136.6098  160.2330 C   0  0  0  0  0  0  0  0  0  0  0  0
  147.8057  137.0164  161.4120 N   0  0  0  0  0  0  0  0  0  0  0  0
  147.2219  136.1108  162.2223 C   0  0  0  0  0  0  0  0  0  0  0  0
  147.1387  134.7435  161.9097 C   0  0  0  0  0  0  0  0  0  0  0  0
  147.6867  134.3077  160.6911 C   0  0  0  0  0  0  0  0  0  0  0  0
  148.2912  135.2522  159.8266 C   0  0  0  0  0  0  0  0  0  0  0  0
  148.8611  134.8902  158.6247 O   0  0  0  0  0  0  0  0  0  0  0  0
  148.0898  134.2922  157.6782 C   0  0  0  0  0  0  0  0  0  0  0  0
  148.7272  134.3221  156.4831 F   0  0  0  0  0  0  0  0  0  0  0  0
  147.8738  132.9922  157.9959 F   0  0  0  0  0  0  0  0  0  0  0  0
  152.8725  140.4696  161.4032 H   0  0  0  0  0  0  0  0  0  0  0  0
  154.4570  140.9651  160.8149 H   0  0  0  0  0  0  0  0  0  0  0  0
  153.7246  139.4842  160.2177 H   0  0  0  0  0  0  0  0  0  0  0  0
  153.5268  141.2974  158.5319 H   0  0  0  0  0  0  0  0  0  0  0  0
  152.0090  142.8103  160.7018 H   0  0  0  0  0  0  0  0  0  0  0  0
  153.5796  143.2308  160.0649 H   0  0  0  0  0  0  0  0  0  0  0  0
  151.7792  144.6093  159.0291 H   0  0  0  0  0  0  0  0  0  0  0  0
  152.6231  143.6581  157.8302 H   0  0  0  0  0  0  0  0  0  0  0  0
  149.9163  142.9864  159.0858 H   0  0  0  0  0  0  0  0  0  0  0  0
  150.1863  143.5159  157.4417 H   0  0  0  0  0  0  0  0  0  0  0  0
  149.8743  141.0544  157.5557 H   0  0  0  0  0  0  0  0  0  0  0  0
  151.4509  141.4613  156.9274 H   0  0  0  0  0  0  0  0  0  0  0  0
  150.8538  140.5927  159.8059 H   0  0  0  0  0  0  0  0  0  0  0  0
  149.8351  139.3213  157.8123 H   0  0  0  0  0  0  0  0  0  0  0  0
  150.8752  138.1223  157.0459 H   0  0  0  0  0  0  0  0  0  0  0  0
  148.3702  138.1308  158.8356 H   0  0  0  0  0  0  0  0  0  0  0  0
  146.8141  136.4872  163.1487 H   0  0  0  0  0  0  0  0  0  0  0  0
  146.6700  134.0465  162.5884 H   0  0  0  0  0  0  0  0  0  0  0  0
  147.6435  133.2597  160.4350 H   0  0  0  0  0  0  0  0  0  0  0  0
  147.1323  134.7996  157.5579 H   0  0  0  0  0  0  0  0  0  0  0  0
  1  2  1  0  0  0  0
  1 23  1  0  0  0  0
  1 24  1  0  0  0  0
  1 25  1  0  0  0  0
  2  7  1  0  0  0  0
  2  3  1  0  0  0  0
  2 26  1  0  0  0  0
  3  4  1  0  0  0  0
  3 27  1  0  0  0  0
  3 28  1  0  0  0  0
  4  5  1  0  0  0  0
  4 29  1  0  0  0  0
  4 30  1  0  0  0  0
  5  6  1  0  0  0  0
  5 31  1  0  0  0  0
  5 32  1  0  0  0  0
  6  7  1  0  0  0  0
  6 33  1  0  0  0  0
  6 34  1  0  0  0  0
  7  8  1  0  0  0  0
  7 35  1  0  0  0  0
  8  9  1  0  0  0  0
  9 10  1  0  0  0  0
  9 36  1  0  0  0  0
  9 37  1  0  0  0  0
 10 11  2  0  0  0  0
 10 12  1  0  0  0  0
 12 13  1  0  0  0  0
 12 38  1  0  0  0  0
 13 18  1  0  0  0  0
 13 14  2  0  0  0  0
 14 15  1  0  0  0  0
 15 16  2  0  0  0  0
 15 39  1  0  0  0  0
 16 17  1  0  0  0  0
 16 40  1  0  0  0  0
 17 18  2  0  0  0  0
 17 41  1  0  0  0  0
 18 19  1  0  0  0  0
 19 20  1  0  0  0  0
 20 21  1  0  0  0  0
 20 22  1  0  0  0  0
 20 42  1  0  0  0  0
M  END
> <s_m_source_file>
AV-unprocessed.smi

> <i_m_source_file_index>
2478

> <i_lp_mmshare_version>
43012

> <i_f3d_flags>
0

> <s_epik_input>
W0NIM11bQ0BASF0xW0NIMl1bQ0gyXVtDSDJdW0NIMl1bQ0BIXTFPW0NIMl1DKD1PKVtOSF1jMm5bY0hdW2NIXVtjSF1jMk9bQ0hdKEYpRg==

> <s_epik_cmdline>
J2VwaWtfcHl0aG9uJywgJy1waCcsICc3LjAnLCAnLXRuJywgJzgnLCAnLW1hJywgJzIwMCcsICctbWV0YWxfYmluZGluZycsICctaW1hZScsICc8aW5maWxlLm1hZT4nLCAnLW9tYWUnLCAnPG91dGZpbGUubWFlPic=

> <r_lp_tautomer_probability>
1

> <r_epik_Ionization_Penalty>
6.06012e-05

> <r_epik_Ionization_Penalty_Charging>
0

> <r_epik_Ionization_Penalty_Neutral>
6.06012e-05

> <r_epik_State_Penalty>
-0

> <r_epik_Charging_Adjusted_Penalty>
0

> <i_epik_Tot_Q>
0

> <i_epik_Tot_abs_Q>
0

> <r_epik_Metal_State_Penalty>
-0

> <b_epik_Metal_Only>
0

> <s_lp_Force_Field>
OPLS_2005

> <r_lp_Energy>
14.0723

> <b_lp_Chiralities_Consistent>
1

> <s_lp_Variant>
AV-unprocessed.smi:2478-1

> <Gold.Version>
5.8.1

> <Gold.Id.Protein>
6NUR|6NUR_protein|mol2

> <Gold.PLP.Fitness>
44.8526

> <Gold.PLP.PLP>
-38.9743

> <Gold.PLP.part.hbond>
-4.0000

> <Gold.PLP.part.metal>
0.0000

> <Gold.PLP.part.buried>
-5.1582

> <Gold.PLP.part.nonpolar>
-30.4850

> <Gold.PLP.part.repulsive>
0.2271

> <Gold.PLP.ligand.clash>
0.0000

> <Gold.PLP.ligand.torsion>
1.3030

> <Gold.PLP.Chemscore.Hbond>
2.8000

> <Gold.PLP.Chemscore.CHOScore>
0.0000

> <Gold.PLP.Chemscore.Metal>
0.0000

> <Gold.Chemscore.Hbonds>
donor molecule, donor type, donor heavy atom, donor atom, acceptor molecule, acceptor atom, score
      P1  H  6896  6909       L1    11  1.00
      P1  H  6931  6943       L1    14  1.00
      P1  H  6934  6947       L1    14  0.55

> <Gold.PLP.Chemscore.Internal.Correction>
0.0843

> <Gold.Rescore>
     Score         DG    S(hbond)    S(metal)    S(lipo)     H(rot)  DE(clash)    DE(int)     intcor
     16.72     -18.89       2.29        0.00      89.56       1.85       0.01       2.16       ----

> <Gold.Chemscore.Fitness>
16.7186

> <Gold.Chemscore.DG>
-18.8878

> <Gold.Chemscore.ZeroCoef>
-5.4800

> <Gold.Chemscore.Hbond>
2.2935

> <Gold.Chemscore.Metal>
0.0000

> <Gold.Chemscore.Lipo>
89.5605

> <Gold.Chemscore.Internal_Hbond>
0.0000

> <Gold.Chemscore.DEClash>
0.0073

> <Gold.Chemscore.DEInternal>
2.1619

> <Gold.Chemscore.Rot>
1.8481

> <Gold.Chemscore.Internal.Correction>
   9.000000E+99

> <Gold.Chemscore.Hbonds>
donor molecule, donor type, donor heavy atom, donor atom, acceptor molecule, acceptor atom, score
      P1  H  6896  6909       L1    11  0.99
      P1  H  6931  6943       L1    14  0.25
      P1  H  6934  6947       L1    14  0.19

> <Gold.Chemscore.Hbond.Weighted>
-7.6603

> <Gold.Chemscore.Metal.Weighted>
-0.0000

> <Gold.Chemscore.Lipo.Weighted>
-10.4786

> <Gold.Chemscore.Internal_Hbond.Weighted>
0.0000

> <Gold.Chemscore.DEClash.Weighted>
0.0073

> <Gold.Chemscore.DEInternal.Weighted>
2.1619

> <Gold.Chemscore.Rot.Weighted>
4.7311

> <Gold.Chemscore.Internal.Correction.Weighted>
   9.000000E+99

> <Gold.Protein.RotatedTorsions>
[ 6907 6896 6895 6894 ] final   94.47 input  -60.11 | X-H torsion
[ 7974 7965 7964 7962 ] final   34.36 input  175.53 | X-H torsion
[ 8008 7997 7996 7995 ] final    5.83 input   59.86 | X-H torsion
[ 10167 10162 10161 10158 ] final   24.69 input  -65.29 | X-H torsion
[ 10718 10713 10712 10709 ] final  149.61 input   66.30 | X-H torsion
[ 10763 10752 10751 10750 ] final  162.25 input  -60.55 | X-H torsion
[ 11005 11000 10999 10996 ] final  -38.20 input  -57.11 | X-H torsion

> <Gold.Protein.ActiveResidues>
 VAL166  LYS551  ARG553  GLY616  TRP617  ASP618  TYR619  PRO620  LYS621  CYS622 
 ASP623  PHE694  ASN695  SER759  ASP760  ASP761  ALA762  ILE779  LEU786  VAL792 
 PHE793  MET794  SER795  GLU796  ALA797  LYS798  CYS799  TRP800  GLU811  SER814 

> <Gold.Protein.RotatedAtoms>
  152.5449  134.1189  159.8390 H   0  0  0  0  0  0  0  0  0  0  0  0  # atno 6907 bound_to 6896
  151.1247  133.5072  159.2608 H   0  0  0  0  0  0  0  0  0  0  0  0  # atno 6908 bound_to 6896
  151.1740  135.0341  159.8818 H   0  0  0  0  0  0  0  0  0  0  0  0  # atno 6909 bound_to 6896
  146.1358  139.6279  142.9196 H   0  0  0  0  0  0  0  0  0  0  0  0  # atno 7974 bound_to 7965
  154.7334  140.2735  155.6436 H   0  0  0  0  0  0  0  0  0  0  0  0  # atno 8008 bound_to 7997
  156.2855  140.2711  156.1966 H   0  0  0  0  0  0  0  0  0  0  0  0  # atno 8009 bound_to 7997
  155.0352  140.0371  157.2479 H   0  0  0  0  0  0  0  0  0  0  0  0  # atno 8010 bound_to 7997
  140.5168  144.0069  150.6398 H   0  0  0  0  0  0  0  0  0  0  0  0  # atno 10167 bound_to 10162
  157.2940  131.0858  151.1441 H   0  0  0  0  0  0  0  0  0  0  0  0  # atno 10718 bound_to 10713
  154.2755  135.2764  155.2719 H   0  0  0  0  0  0  0  0  0  0  0  0  # atno 10763 bound_to 10752
  154.5264  135.5742  153.6726 H   0  0  0  0  0  0  0  0  0  0  0  0  # atno 10764 bound_to 10752
  152.9938  135.6217  154.2912 H   0  0  0  0  0  0  0  0  0  0  0  0  # atno 10765 bound_to 10752
  141.0010  133.6956  156.2022 H   0  0  0  0  0  0  0  0  0  0  0  0  # atno 11005 bound_to 11000
  145.5158  141.0434  143.2462 LP  0  0  0  0  0  0  0  0  0  0  0  0  # atno 17320 bound_to 7965
  144.7738  139.6674  143.7183 LP  0  0  0  0  0  0  0  0  0  0  0  0  # atno 17321 bound_to 7965
  140.3407  143.3021  152.0591 LP  0  0  0  0  0  0  0  0  0  0  0  0  # atno 17342 bound_to 10162
  139.4911  144.6444  151.6809 LP  0  0  0  0  0  0  0  0  0  0  0  0  # atno 17343 bound_to 10162
  157.2826  130.6757  149.6073 LP  0  0  0  0  0  0  0  0  0  0  0  0  # atno 17370 bound_to 10713
  155.9668  130.4445  150.5464 LP  0  0  0  0  0  0  0  0  0  0  0  0  # atno 17371 bound_to 10713
  140.6890  134.4686  157.5589 LP  0  0  0  0  0  0  0  0  0  0  0  0  # atno 17394 bound_to 11000
  139.9038  134.8494  156.1786 LP  0  0  0  0  0  0  0  0  0  0  0  0  # atno 17395 bound_to 11000

$$$$
