AV-unprocessed.smi:2202|AV-procd|sdf|8932|dock10
  -GOLD-   2272012143D 1   1.00000     0.00000
 Structure written by MMmdl.
 43 45  0  0  0  0  0  0  0  0  2 V2000
  149.7503  134.2926  154.3631 O   0  0  0  0  0  0  0  0  0  0  0  0
  148.7672  134.6812  154.9964 C   0  0  0  0  0  0  0  0  0  0  0  0
  148.8624  135.8747  155.9580 C   0  0  0  0  0  0  0  0  0  0  0  0
  149.5025  137.0570  155.3628 N   0  0  0  0  0  0  0  0  0  0  0  0
  150.7909  137.1074  155.0005 C   0  0  0  0  0  0  0  0  0  0  0  0
  151.6086  136.1942  155.1199 O   0  0  0  0  0  0  0  0  0  0  0  0
  151.1478  138.4619  154.3842 C   0  0  2  0  0  0  0  0  0  0  0  0
  152.3367  139.1301  155.1241 C   0  0  0  0  0  0  0  0  0  0  0  0
  151.9079  139.8668  156.3762 C   0  0  0  0  0  0  0  0  0  0  0  0
  150.7434  140.5267  156.4276 C   0  0  0  0  0  0  0  0  0  0  0  0
  149.8095  140.5622  155.2356 C   0  0  0  0  0  0  0  0  0  0  0  0
  149.7958  139.2272  154.4451 C   0  0  2  0  0  0  0  0  0  0  0  0
  148.8612  138.2005  155.0892 C   0  0  0  0  0  0  0  0  0  0  0  0
  147.6698  138.4270  155.3024 O   0  0  0  0  0  0  0  0  0  0  0  0
  147.5599  134.1050  154.8964 N   0  0  0  0  0  0  0  0  0  0  0  0
  147.2515  132.9624  154.0449 C   0  0  0  0  0  0  0  0  0  0  0  0
  147.6316  133.2300  152.5786 C   0  0  0  0  0  0  0  0  0  0  0  0
  146.4636  133.0183  151.6357 C   0  0  0  0  0  0  0  0  0  0  0  0
  145.1966  133.5984  151.8623 C   0  0  0  0  0  0  0  0  0  0  0  0
  144.1563  133.3624  150.9392 C   0  0  0  0  0  0  0  0  0  0  0  0
  144.4049  132.5538  149.8106 C   0  0  0  0  0  0  0  0  0  0  0  0
  145.6894  132.0003  149.6333 C   0  0  0  0  0  0  0  0  0  0  0  0
  146.6598  132.2495  150.5398 N   0  3  0  0  0  0  0  0  0  0  0  0
  147.8577  136.1237  156.3036 H   0  0  0  0  0  0  0  0  0  0  0  0
  149.4114  135.5665  156.8498 H   0  0  0  0  0  0  0  0  0  0  0  0
  151.4287  138.2820  153.3457 H   0  0  0  0  0  0  0  0  0  0  0  0
  153.0955  138.3933  155.3910 H   0  0  0  0  0  0  0  0  0  0  0  0
  152.8307  139.8455  154.4660 H   0  0  0  0  0  0  0  0  0  0  0  0
  152.5941  139.8899  157.2099 H   0  0  0  0  0  0  0  0  0  0  0  0
  150.4675  141.0952  157.3036 H   0  0  0  0  0  0  0  0  0  0  0  0
  148.8080  140.8231  155.5804 H   0  0  0  0  0  0  0  0  0  0  0  0
  150.1262  141.3779  154.5849 H   0  0  0  0  0  0  0  0  0  0  0  0
  149.4269  139.4131  153.4355 H   0  0  0  0  0  0  0  0  0  0  0  0
  146.8032  134.4871  155.4455 H   0  0  0  0  0  0  0  0  0  0  0  0
  147.8012  132.0987  154.4199 H   0  0  0  0  0  0  0  0  0  0  0  0
  146.1916  132.7160  154.1290 H   0  0  0  0  0  0  0  0  0  0  0  0
  147.9909  134.2531  152.4590 H   0  0  0  0  0  0  0  0  0  0  0  0
  148.4554  132.5793  152.2824 H   0  0  0  0  0  0  0  0  0  0  0  0
  145.0222  134.2179  152.7303 H   0  0  0  0  0  0  0  0  0  0  0  0
  143.1798  133.7976  151.0945 H   0  0  0  0  0  0  0  0  0  0  0  0
  143.6218  132.3611  149.0918 H   0  0  0  0  0  0  0  0  0  0  0  0
  145.9683  131.3712  148.8006 H   0  0  0  0  0  0  0  0  0  0  0  0
  147.5823  131.8391  150.3918 H   0  0  0  0  0  0  0  0  0  0  0  0
  1  2  2  0  0  0  0
  2  3  1  0  0  0  0
  2 15  1  0  0  0  0
  3  4  1  0  0  0  0
  3 24  1  0  0  0  0
  3 25  1  0  0  0  0
  4 13  1  0  0  0  0
  4  5  1  0  0  0  0
  5  6  2  0  0  0  0
  5  7  1  0  0  0  0
  7 12  1  0  0  0  0
  7  8  1  0  0  0  0
  7 26  1  0  0  0  0
  8  9  1  0  0  0  0
  8 27  1  0  0  0  0
  8 28  1  0  0  0  0
  9 10  2  0  0  0  0
  9 29  1  0  0  0  0
 10 11  1  0  0  0  0
 10 30  1  0  0  0  0
 11 12  1  0  0  0  0
 11 31  1  0  0  0  0
 11 32  1  0  0  0  0
 12 13  1  0  0  0  0
 12 33  1  0  0  0  0
 13 14  2  0  0  0  0
 15 16  1  0  0  0  0
 15 34  1  0  0  0  0
 16 17  1  0  0  0  0
 16 35  1  0  0  0  0
 16 36  1  0  0  0  0
 17 18  1  0  0  0  0
 17 37  1  0  0  0  0
 17 38  1  0  0  0  0
 18 23  1  0  0  0  0
 18 19  2  0  0  0  0
 19 20  1  0  0  0  0
 19 39  1  0  0  0  0
 20 21  2  0  0  0  0
 20 40  1  0  0  0  0
 21 22  1  0  0  0  0
 21 41  1  0  0  0  0
 22 23  2  0  0  0  0
 22 42  1  0  0  0  0
 23 43  1  0  0  0  0
M  CHG  1  23   1
M  END
> <s_m_source_file>
AV-unprocessed.smi

> <i_m_source_file_index>
2202

> <i_lp_mmshare_version>
43012

> <i_f3d_flags>
0

> <s_epik_input>
W0NIMl0xW0NIXT1bQ0hdW0NIMl1bQ0BIXShbQ0BIXTEyKUMoPU8pTihDMj1PKVtDSDJdQyg9TylbTkhdW0NIMl1bQ0gyXWMzW2NIXVtjSF1bY0hdW2NIXW4z

> <s_epik_cmdline>
J2VwaWtfcHl0aG9uJywgJy1waCcsICc3LjAnLCAnLXRuJywgJzgnLCAnLW1hJywgJzIwMCcsICctbWV0YWxfYmluZGluZycsICctaW1hZScsICc8aW5maWxlLm1hZT4nLCAnLW9tYWUnLCAnPG91dGZpbGUubWFlPic=

> <r_lp_tautomer_probability>
1

> <r_epik_Ionization_Penalty>
1.90039

> <r_epik_Ionization_Penalty_Charging>
1.90039

> <r_epik_Ionization_Penalty_Neutral>
1.50224e-07

> <r_epik_State_Penalty>
2.02162

> <r_epik_Charging_Adjusted_Penalty>
3.922

> <i_epik_Tot_Q>
1

> <i_epik_Tot_abs_Q>
1

> <r_epik_Metal_State_Penalty>
2.04542

> <b_epik_Metal_Only>
0

> <s_lp_Force_Field>
OPLS_2005

> <r_lp_Energy>
20.8283

> <b_lp_Chiralities_Consistent>
1

> <s_lp_Variant>
AV-unprocessed.smi:2202-4

> <Gold.Version>
5.8.1

> <Gold.Id.Protein>
6NUR|6NUR_protein|mol2

> <Gold.PLP.Fitness>
46.4301

> <Gold.PLP.PLP>
-41.6665

> <Gold.PLP.part.hbond>
-2.0000

> <Gold.PLP.part.metal>
0.0000

> <Gold.PLP.part.buried>
-6.0088

> <Gold.PLP.part.nonpolar>
-35.2764

> <Gold.PLP.part.repulsive>
0.4538

> <Gold.PLP.ligand.clash>
0.0000

> <Gold.PLP.ligand.torsion>
0.6326

> <Gold.PLP.Chemscore.Hbond>
2.0000

> <Gold.PLP.Chemscore.CHOScore>
0.0000

> <Gold.PLP.Chemscore.Metal>
0.0000

> <Gold.Chemscore.Hbonds>
donor molecule, donor type, donor heavy atom, donor atom, acceptor molecule, acceptor atom, score
      L1  H    23    43       P1 10747  1.00
      P1  H 10752 10763       L1     6  1.00

> <Gold.PLP.Chemscore.Internal.Correction>
0.0288

> <Gold.Rescore>
     Score         DG    S(hbond)    S(metal)    S(lipo)     H(rot)  DE(clash)    DE(int)     intcor
     15.53     -18.55       1.96        0.00      98.66       1.96       0.00       3.02       ----

> <Gold.Chemscore.Fitness>
15.5309

> <Gold.Chemscore.DG>
-18.5508

> <Gold.Chemscore.ZeroCoef>
-5.4800

> <Gold.Chemscore.Hbond>
1.9617

> <Gold.Chemscore.Metal>
0.0000

> <Gold.Chemscore.Lipo>
98.6566

> <Gold.Chemscore.Internal_Hbond>
0.0000

> <Gold.Chemscore.DEClash>
0.0021

> <Gold.Chemscore.DEInternal>
3.0178

> <Gold.Chemscore.Rot>
1.9625

> <Gold.Chemscore.Internal.Correction>
   9.000000E+99

> <Gold.Chemscore.Hbonds>
donor molecule, donor type, donor heavy atom, donor atom, acceptor molecule, acceptor atom, score
      L1  H    23    43       P1 10747  1.00
      P1  H 10752 10763       L1     6  0.96

> <Gold.Chemscore.Hbond.Weighted>
-6.5520

> <Gold.Chemscore.Metal.Weighted>
-0.0000

> <Gold.Chemscore.Lipo.Weighted>
-11.5428

> <Gold.Chemscore.Internal_Hbond.Weighted>
0.0000

> <Gold.Chemscore.DEClash.Weighted>
0.0021

> <Gold.Chemscore.DEInternal.Weighted>
3.0178

> <Gold.Chemscore.Rot.Weighted>
5.0240

> <Gold.Chemscore.Internal.Correction.Weighted>
   9.000000E+99

> <Gold.Protein.RotatedTorsions>
[ 6907 6896 6895 6894 ] final -162.79 input  -60.11 | X-H torsion
[ 7974 7965 7964 7962 ] final   95.07 input  175.53 | X-H torsion
[ 8008 7997 7996 7995 ] final  -30.09 input   59.86 | X-H torsion
[ 10167 10162 10161 10158 ] final  -82.80 input  -65.29 | X-H torsion
[ 10718 10713 10712 10709 ] final -103.68 input   66.30 | X-H torsion
[ 10763 10752 10751 10750 ] final   45.72 input  -60.55 | X-H torsion
[ 11005 11000 10999 10996 ] final   14.55 input  -57.11 | X-H torsion

> <Gold.Protein.ActiveResidues>
 VAL166  LYS551  ARG553  GLY616  TRP617  ASP618  TYR619  PRO620  LYS621  CYS622 
 ASP623  PHE694  ASN695  SER759  ASP760  ASP761  ALA762  ILE779  LEU786  VAL792 
 PHE793  MET794  SER795  GLU796  ALA797  LYS798  CYS799  TRP800  GLU811  SER814 

> <Gold.Protein.RotatedAtoms>
  151.3859  133.3805  159.2715 H   0  0  0  0  0  0  0  0  0  0  0  0  # atno 6907 bound_to 6896
  150.9542  134.8939  159.7701 H   0  0  0  0  0  0  0  0  0  0  0  0  # atno 6908 bound_to 6896
  152.5124  134.3815  159.9405 H   0  0  0  0  0  0  0  0  0  0  0  0  # atno 6909 bound_to 6896
  145.4571  139.2289  143.3008 H   0  0  0  0  0  0  0  0  0  0  0  0  # atno 7974 bound_to 7965
  154.4264  140.1800  156.1352 H   0  0  0  0  0  0  0  0  0  0  0  0  # atno 8008 bound_to 7997
  156.0036  140.3357  155.6845 H   0  0  0  0  0  0  0  0  0  0  0  0  # atno 8009 bound_to 7997
  155.6209  140.0659  157.2669 H   0  0  0  0  0  0  0  0  0  0  0  0  # atno 8010 bound_to 7997
  140.4286  143.2557  151.8791 H   0  0  0  0  0  0  0  0  0  0  0  0  # atno 10167 bound_to 10162
  156.0274  130.5479  150.7287 H   0  0  0  0  0  0  0  0  0  0  0  0  # atno 10718 bound_to 10713
  152.9820  135.6030  154.3483 H   0  0  0  0  0  0  0  0  0  0  0  0  # atno 10763 bound_to 10752
  154.3174  135.2770  155.2538 H   0  0  0  0  0  0  0  0  0  0  0  0  # atno 10764 bound_to 10752
  154.4720  135.5939  153.6384 H   0  0  0  0  0  0  0  0  0  0  0  0  # atno 10765 bound_to 10752
  140.4682  134.1058  155.7728 H   0  0  0  0  0  0  0  0  0  0  0  0  # atno 11005 bound_to 11000
  146.2472  140.5336  142.8909 LP  0  0  0  0  0  0  0  0  0  0  0  0  # atno 17320 bound_to 7965
  144.8026  140.6240  143.6468 LP  0  0  0  0  0  0  0  0  0  0  0  0  # atno 17321 bound_to 7965
  139.4784  144.5360  151.8598 LP  0  0  0  0  0  0  0  0  0  0  0  0  # atno 17342 bound_to 10162
  140.4453  144.1930  150.5893 LP  0  0  0  0  0  0  0  0  0  0  0  0  # atno 17343 bound_to 10162
  157.4885  131.0909  151.0454 LP  0  0  0  0  0  0  0  0  0  0  0  0  # atno 17370 bound_to 10713
  157.0868  130.5926  149.5431 LP  0  0  0  0  0  0  0  0  0  0  0  0  # atno 17371 bound_to 10713
  141.1589  133.8830  157.1901 LP  0  0  0  0  0  0  0  0  0  0  0  0  # atno 17394 bound_to 11000
  139.9902  135.0067  156.9957 LP  0  0  0  0  0  0  0  0  0  0  0  0  # atno 17395 bound_to 11000

$$$$
