AV-unprocessed.smi:2999|AV-procd|sdf|11418|dock1
  -GOLD-   2272016343D 1   1.00000     0.00000
 Structure written by MMmdl.
 37 39  0  0  0  0  0  0  0  0  1 V2000
  146.3530  139.3664  154.3811 O   0  0  0  0  0  0  0  0  0  0  0  0
  147.1284  139.5984  153.4529 C   0  0  0  0  0  0  0  0  0  0  0  0
  148.0625  140.5594  153.4906 N   0  0  0  0  0  0  0  0  0  0  0  0
  148.3193  141.4477  154.6205 C   0  0  0  0  0  0  0  0  0  0  0  0
  149.7856  141.3901  155.0836 C   0  0  1  0  0  0  0  0  0  0  0  0
  149.9721  141.6976  156.5857 C   0  0  0  0  0  0  0  0  0  0  0  0
  151.3610  141.5510  157.0043 N   0  0  0  0  0  0  0  0  0  0  0  0
  151.5088  141.8235  158.4261 C   0  0  0  0  0  0  0  0  0  0  0  0
  151.9740  143.1850  158.8738 C   0  0  0  0  0  0  0  0  0  0  0  0
  152.8889  141.9817  159.0099 C   0  0  0  0  0  0  0  0  0  0  0  0
  151.8097  140.2032  156.6800 C   0  0  0  0  0  0  0  0  0  0  0  0
  151.6332  139.8921  155.1849 C   0  0  0  0  0  0  0  0  0  0  0  0
  150.2684  140.0741  154.8214 O   0  0  0  0  0  0  0  0  0  0  0  0
  147.1564  138.9416  152.2802 N   0  0  0  0  0  0  0  0  0  0  0  0
  146.3590  137.8411  151.8702 C   0  0  0  0  0  0  0  0  0  0  0  0
  146.4973  137.2012  150.7030 N   0  0  0  0  0  0  0  0  0  0  0  0
  145.5730  136.1631  150.5615 C   0  0  0  0  0  0  0  0  0  0  0  0
  144.7325  136.0255  151.6384 C   0  0  0  0  0  0  0  0  0  0  0  0
  145.0725  137.1998  152.8813 S   0  0  0  0  0  0  0  0  0  0  0  0
  148.6508  140.6803  152.6792 H   0  0  0  0  0  0  0  0  0  0  0  0
  148.0309  142.4750  154.3917 H   0  0  0  0  0  0  0  0  0  0  0  0
  147.6713  141.1270  155.4366 H   0  0  0  0  0  0  0  0  0  0  0  0
  150.3708  142.0963  154.4915 H   0  0  0  0  0  0  0  0  0  0  0  0
  149.6390  142.7140  156.7967 H   0  0  0  0  0  0  0  0  0  0  0  0
  149.3354  141.0341  157.1734 H   0  0  0  0  0  0  0  0  0  0  0  0
  150.7541  141.3176  159.0266 H   0  0  0  0  0  0  0  0  0  0  0  0
  152.2186  143.9173  158.1065 H   0  0  0  0  0  0  0  0  0  0  0  0
  151.5374  143.5903  159.7842 H   0  0  0  0  0  0  0  0  0  0  0  0
  153.0581  141.5877  160.0098 H   0  0  0  0  0  0  0  0  0  0  0  0
  153.7383  141.9184  158.3323 H   0  0  0  0  0  0  0  0  0  0  0  0
  152.8592  140.0876  156.9537 H   0  0  0  0  0  0  0  0  0  0  0  0
  151.2515  139.4732  157.2682 H   0  0  0  0  0  0  0  0  0  0  0  0
  152.2689  140.5375  154.5768 H   0  0  0  0  0  0  0  0  0  0  0  0
  151.9244  138.8633  154.9742 H   0  0  0  0  0  0  0  0  0  0  0  0
  147.8418  139.2534  151.6081 H   0  0  0  0  0  0  0  0  0  0  0  0
  145.5827  135.5709  149.6586 H   0  0  0  0  0  0  0  0  0  0  0  0
  143.9377  135.3073  151.7753 H   0  0  0  0  0  0  0  0  0  0  0  0
  1  2  2  0  0  0  0
  2  3  1  0  0  0  0
  2 14  1  0  0  0  0
  3  4  1  0  0  0  0
  3 20  1  0  0  0  0
  4  5  1  0  0  0  0
  4 21  1  0  0  0  0
  4 22  1  0  0  0  0
  5 13  1  0  0  0  0
  5  6  1  0  0  0  0
  5 23  1  0  0  0  0
  6  7  1  0  0  0  0
  6 24  1  0  0  0  0
  6 25  1  0  0  0  0
  7  8  1  0  0  0  0
  7 11  1  0  0  0  0
  8 10  1  0  0  0  0
  8  9  1  0  0  0  0
  8 26  1  0  0  0  0
  9 10  1  0  0  0  0
  9 27  1  0  0  0  0
  9 28  1  0  0  0  0
 10 29  1  0  0  0  0
 10 30  1  0  0  0  0
 11 12  1  0  0  0  0
 11 31  1  0  0  0  0
 11 32  1  0  0  0  0
 12 13  1  0  0  0  0
 12 33  1  0  0  0  0
 12 34  1  0  0  0  0
 14 15  1  0  0  0  0
 14 35  1  0  0  0  0
 15 19  1  0  0  0  0
 15 16  2  0  0  0  0
 16 17  1  0  0  0  0
 17 18  2  0  0  0  0
 17 36  1  0  0  0  0
 18 19  1  0  0  0  0
 18 37  1  0  0  0  0
M  END
> <s_m_source_file>
AV-unprocessed.smi

> <i_m_source_file_index>
2999

> <i_lp_mmshare_version>
43012

> <i_f3d_flags>
0

> <s_epik_input>
czFbY0hdW2NIXW5jMVtOSF1DKD1PKVtOSF1bQ0gyXVtDQEBIXTJbQ0gyXU4oW0NIMl1bQ0gyXU8yKVtDSF0zW0NIMl1bQ0gyXTM=

> <s_epik_cmdline>
J2VwaWtfcHl0aG9uJywgJy1waCcsICc3LjAnLCAnLXRuJywgJzgnLCAnLW1hJywgJzIwMCcsICctbWV0YWxfYmluZGluZycsICctaW1hZScsICc8aW5maWxlLm1hZT4nLCAnLW9tYWUnLCAnPG91dGZpbGUubWFlPic=

> <r_lp_tautomer_probability>
0.999

> <r_epik_Ionization_Penalty>
0.0449352

> <r_epik_Ionization_Penalty_Charging>
0

> <r_epik_Ionization_Penalty_Neutral>
0.0449352

> <r_epik_State_Penalty>
0.0379856

> <r_epik_Charging_Adjusted_Penalty>
0.0379856

> <i_epik_Tot_Q>
0

> <i_epik_Tot_abs_Q>
0

> <r_epik_Metal_State_Penalty>
0.0775629

> <b_epik_Metal_Only>
0

> <s_lp_Force_Field>
OPLS_2005

> <r_lp_Energy>
30.84

> <b_lp_Chiralities_Consistent>
1

> <s_lp_Variant>
AV-unprocessed.smi:2999-2

> <Gold.Version>
5.8.1

> <Gold.Id.Protein>
6NUR|6NUR_protein|mol2

> <Gold.PLP.Fitness>
42.9985

> <Gold.PLP.PLP>
-31.8034

> <Gold.PLP.part.hbond>
-4.2602

> <Gold.PLP.part.metal>
0.0000

> <Gold.PLP.part.buried>
1.2144

> <Gold.PLP.part.nonpolar>
-31.0758

> <Gold.PLP.part.repulsive>
2.8234

> <Gold.PLP.ligand.clash>
0.0000

> <Gold.PLP.ligand.torsion>
0.9664

> <Gold.PLP.Chemscore.Hbond>
3.0000

> <Gold.PLP.Chemscore.CHOScore>
1.0000

> <Gold.PLP.Chemscore.Metal>
0.0000

> <Gold.Chemscore.Hbonds>
donor molecule, donor type, donor heavy atom, donor atom, acceptor molecule, acceptor atom, score
      L1  H     3    20       P1  7957  1.00
      L1  H    14    35       P1  7957  1.00
      P1  H  7954  7966       L1    16  1.00
      L1  C    17    36       P1  7921  1.00

> <Gold.PLP.Chemscore.Internal.Correction>
1.1278

> <Gold.Rescore>
     Score         DG    S(hbond)    S(metal)    S(lipo)     H(rot)  DE(clash)    DE(int)     intcor
     15.65     -19.91       2.78        0.00      77.88       1.55       1.97       2.30       ----

> <Gold.Chemscore.Fitness>
15.6520

> <Gold.Chemscore.DG>
-19.9145

> <Gold.Chemscore.ZeroCoef>
-5.4800

> <Gold.Chemscore.Hbond>
2.7788

> <Gold.Chemscore.Metal>
0.0000

> <Gold.Chemscore.Lipo>
77.8770

> <Gold.Chemscore.Internal_Hbond>
0.0000

> <Gold.Chemscore.DEClash>
1.9672

> <Gold.Chemscore.DEInternal>
2.2953

> <Gold.Chemscore.Rot>
1.5463

> <Gold.Chemscore.Internal.Correction>
   9.000000E+99

> <Gold.Chemscore.Hbonds>
donor molecule, donor type, donor heavy atom, donor atom, acceptor molecule, acceptor atom, score
      L1  H     3    20       P1  7957  0.97
      L1  H    14    35       P1  7957  0.93
      P1  H  7954  7966       L1    16  0.56

> <Gold.Chemscore.Hbond.Weighted>
-9.2813

> <Gold.Chemscore.Metal.Weighted>
-0.0000

> <Gold.Chemscore.Lipo.Weighted>
-9.1116

> <Gold.Chemscore.Internal_Hbond.Weighted>
0.0000

> <Gold.Chemscore.DEClash.Weighted>
1.9672

> <Gold.Chemscore.DEInternal.Weighted>
2.2953

> <Gold.Chemscore.Rot.Weighted>
3.9584

> <Gold.Chemscore.Internal.Correction.Weighted>
   9.000000E+99

> <Gold.Protein.RotatedTorsions>
[ 6907 6896 6895 6894 ] final  178.41 input  -60.11 | X-H torsion
[ 7974 7965 7964 7962 ] final   -5.44 input  175.53 | X-H torsion
[ 8008 7997 7996 7995 ] final  -19.57 input   59.86 | X-H torsion
[ 10167 10162 10161 10158 ] final -154.58 input  -65.29 | X-H torsion
[ 10718 10713 10712 10709 ] final  130.88 input   66.30 | X-H torsion
[ 10763 10752 10751 10750 ] final  -83.90 input  -60.55 | X-H torsion
[ 11005 11000 10999 10996 ] final  -55.23 input  -57.11 | X-H torsion

> <Gold.Protein.ActiveResidues>
 VAL166  LYS551  ARG553  GLY616  TRP617  ASP618  TYR619  PRO620  LYS621  CYS622 
 ASP623  PHE694  ASN695  SER759  ASP760  ASP761  ALA762  ILE779  LEU786  VAL792 
 PHE793  MET794  SER795  GLU796  ALA797  LYS798  CYS799  TRP800  GLU811  SER814 

> <Gold.Protein.RotatedAtoms>
  151.6883  133.3311  159.3236 H   0  0  0  0  0  0  0  0  0  0  0  0  # atno 6907 bound_to 6896
  150.7791  134.6721  159.6406 H   0  0  0  0  0  0  0  0  0  0  0  0  # atno 6908 bound_to 6896
  152.3842  134.6546  160.0183 H   0  0  0  0  0  0  0  0  0  0  0  0  # atno 6909 bound_to 6896
  146.2352  140.2021  142.8334 H   0  0  0  0  0  0  0  0  0  0  0  0  # atno 7974 bound_to 7965
  154.4828  140.2085  155.9725 H   0  0  0  0  0  0  0  0  0  0  0  0  # atno 8008 bound_to 7997
  156.1190  140.3216  155.8150 H   0  0  0  0  0  0  0  0  0  0  0  0  # atno 8009 bound_to 7997
  155.4501  140.0516  157.2993 H   0  0  0  0  0  0  0  0  0  0  0  0  # atno 8010 bound_to 7997
  139.7001  143.9276  152.2425 H   0  0  0  0  0  0  0  0  0  0  0  0  # atno 10167 bound_to 10162
  157.5021  131.1094  150.9413 H   0  0  0  0  0  0  0  0  0  0  0  0  # atno 10718 bound_to 10713
  154.5931  135.5540  153.7299 H   0  0  0  0  0  0  0  0  0  0  0  0  # atno 10763 bound_to 10752
  153.0125  135.6348  154.1820 H   0  0  0  0  0  0  0  0  0  0  0  0  # atno 10764 bound_to 10752
  154.1761  135.2889  155.3046 H   0  0  0  0  0  0  0  0  0  0  0  0  # atno 10765 bound_to 10752
  141.1064  133.6613  156.4438 H   0  0  0  0  0  0  0  0  0  0  0  0  # atno 11005 bound_to 11000
  144.9773  140.8426  143.5418 LP  0  0  0  0  0  0  0  0  0  0  0  0  # atno 17320 bound_to 7965
  145.2010  139.2252  143.5193 LP  0  0  0  0  0  0  0  0  0  0  0  0  # atno 17321 bound_to 7965
  139.9117  144.6853  150.8555 LP  0  0  0  0  0  0  0  0  0  0  0  0  # atno 17342 bound_to 10162
  140.7707  143.3439  151.2152 LP  0  0  0  0  0  0  0  0  0  0  0  0  # atno 17343 bound_to 10162
  157.0081  130.5626  149.5318 LP  0  0  0  0  0  0  0  0  0  0  0  0  # atno 17370 bound_to 10713
  156.0235  130.5330  150.8343 LP  0  0  0  0  0  0  0  0  0  0  0  0  # atno 17371 bound_to 10713
  140.4892  134.6592  157.5203 LP  0  0  0  0  0  0  0  0  0  0  0  0  # atno 17394 bound_to 11000
  139.9936  134.6947  155.9648 LP  0  0  0  0  0  0  0  0  0  0  0  0  # atno 17395 bound_to 11000

$$$$
