AV-unprocessed.smi:1383|AV-procd|sdf|5624|dock10
  -GOLD-   22720 5243D 1   1.00000     0.00000
 Structure written by MMmdl.
 30 30  0  0  0  0  0  0  0  0  2 V2000
  146.8561  132.5857  161.5714 C   0  0  0  0  0  0  0  0  0  0  0  0
  147.1734  133.8361  160.7361 C   0  0  0  0  0  0  0  0  0  0  0  0
  147.9372  134.9369  161.5062 C   0  0  2  0  0  0  0  0  0  0  0  0
  147.1403  135.4116  162.7334 C   0  0  0  0  0  0  0  0  0  0  0  0
  148.2793  136.1385  160.6044 C   0  0  0  0  0  0  0  0  0  0  0  0
  147.8259  137.2501  160.8837 O   0  0  0  0  0  0  0  0  0  0  0  0
  149.0766  135.7882  159.5660 N   0  5  0  0  0  0  0  0  0  0  0  0
  149.0987  136.5501  158.4618 C   0  0  0  0  0  0  0  0  0  0  0  0
  150.0218  136.4155  157.5036 N   0  0  0  0  0  0  0  0  0  0  0  0
  149.8692  137.3181  156.4467 C   0  0  0  0  0  0  0  0  0  0  0  0
  150.8283  137.2895  155.2916 C   0  0  0  0  0  0  0  0  0  0  0  0
  150.7137  138.5701  154.4609 C   0  0  0  0  0  0  0  0  0  0  0  0
  149.9186  138.5353  153.3877 N   0  0  0  0  0  0  0  0  0  0  0  0
  151.3263  139.5837  154.7908 O   0  0  0  0  0  0  0  0  0  0  0  0
  148.7982  138.1588  156.6107 C   0  0  0  0  0  0  0  0  0  0  0  0
  147.9578  137.8477  158.1026 S   0  0  0  0  0  0  0  0  0  0  0  0
  146.2677  131.8739  160.9923 H   0  0  0  0  0  0  0  0  0  0  0  0
  146.2831  132.8442  162.4622 H   0  0  0  0  0  0  0  0  0  0  0  0
  147.7638  132.0749  161.8937 H   0  0  0  0  0  0  0  0  0  0  0  0
  147.7341  133.5431  159.8473 H   0  0  0  0  0  0  0  0  0  0  0  0
  146.2330  134.2494  160.3704 H   0  0  0  0  0  0  0  0  0  0  0  0
  148.8590  134.4883  161.8838 H   0  0  0  0  0  0  0  0  0  0  0  0
  147.6740  136.1948  163.2734 H   0  0  0  0  0  0  0  0  0  0  0  0
  146.9737  134.5908  163.4315 H   0  0  0  0  0  0  0  0  0  0  0  0
  146.1644  135.8074  162.4496 H   0  0  0  0  0  0  0  0  0  0  0  0
  151.8563  137.1831  155.6404 H   0  0  0  0  0  0  0  0  0  0  0  0
  150.6299  136.4271  154.6542 H   0  0  0  0  0  0  0  0  0  0  0  0
  149.8006  139.3660  152.8248 H   0  0  0  0  0  0  0  0  0  0  0  0
  149.4238  137.6869  153.1547 H   0  0  0  0  0  0  0  0  0  0  0  0
  148.4573  138.9420  155.9504 H   0  0  0  0  0  0  0  0  0  0  0  0
  1  2  1  0  0  0  0
  1 17  1  0  0  0  0
  1 18  1  0  0  0  0
  1 19  1  0  0  0  0
  2  3  1  0  0  0  0
  2 20  1  0  0  0  0
  2 21  1  0  0  0  0
  3  4  1  0  0  0  0
  3  5  1  0  0  0  0
  3 22  1  0  0  0  0
  4 23  1  0  0  0  0
  4 24  1  0  0  0  0
  4 25  1  0  0  0  0
  5  6  2  0  0  0  0
  5  7  1  0  0  0  0
  7  8  1  0  0  0  0
  8 16  1  0  0  0  0
  8  9  2  0  0  0  0
  9 10  1  0  0  0  0
 10 11  1  0  0  0  0
 10 15  2  0  0  0  0
 11 12  1  0  0  0  0
 11 26  1  0  0  0  0
 11 27  1  0  0  0  0
 12 13  1  0  0  0  0
 12 14  2  0  0  0  0
 13 28  1  0  0  0  0
 13 29  1  0  0  0  0
 15 16  1  0  0  0  0
 15 30  1  0  0  0  0
M  CHG  1   7  -1
M  END
> <s_m_source_file>
AV-unprocessed.smi

> <i_m_source_file_index>
1383

> <i_lp_mmshare_version>
43012

> <i_f3d_flags>
0

> <s_epik_input>
W0NIM11bQ0gyXVtDQEhdKFtDSDNdKUMoPU8pW05IXWMxbmMoW2NIXXMxKVtDSDJdQyg9TylbTkgyXQ==

> <s_epik_cmdline>
J2VwaWtfcHl0aG9uJywgJy1waCcsICc3LjAnLCAnLXRuJywgJzgnLCAnLW1hJywgJzIwMCcsICctbWV0YWxfYmluZGluZycsICctaW1hZScsICc8aW5maWxlLm1hZT4nLCAnLW9tYWUnLCAnPG91dGZpbGUubWFlPic=

> <r_lp_tautomer_probability>
1

> <r_epik_Ionization_Penalty>
5.3563

> <r_epik_Ionization_Penalty_Charging>
4.90463

> <r_epik_Ionization_Penalty_Neutral>
0.451677

> <r_epik_State_Penalty>
4.90447

> <r_epik_Charging_Adjusted_Penalty>
9.8091

> <i_epik_Tot_Q>
-1

> <i_epik_Tot_abs_Q>
1

> <r_epik_Metal_State_Penalty>
1.05508

> <b_epik_Metal_Only>
1

> <s_lp_Force_Field>
OPLS_2005

> <r_lp_Energy>
-0.655456

> <b_lp_Chiralities_Consistent>
1

> <s_lp_Variant>
AV-unprocessed.smi:1383-3

> <Gold.Version>
5.8.1

> <Gold.Id.Protein>
6NUR|6NUR_protein|mol2

> <Gold.PLP.Fitness>
45.1905

> <Gold.PLP.PLP>
-26.2800

> <Gold.PLP.part.hbond>
-6.3009

> <Gold.PLP.part.metal>
0.0000

> <Gold.PLP.part.buried>
-4.1997

> <Gold.PLP.part.nonpolar>
-15.5119

> <Gold.PLP.part.repulsive>
0.1641

> <Gold.PLP.ligand.clash>
0.0000

> <Gold.PLP.ligand.torsion>
0.7114

> <Gold.PLP.Chemscore.Hbond>
6.7440

> <Gold.PLP.Chemscore.CHOScore>
0.0000

> <Gold.PLP.Chemscore.Metal>
0.0000

> <Gold.Chemscore.Hbonds>
donor molecule, donor type, donor heavy atom, donor atom, acceptor molecule, acceptor atom, score
      L1  H    13    28       P1  7957  0.91
      L1  H    13    29       P1  7948  0.99
      P1  H  6896  6908       L1     7  2.00
      P1  H  6931  6943       L1     6  0.85
      P1  H  6934  6947       L1     6  0.83
      P1  H  7989  7998       L1    14  1.00

> <Gold.PLP.Chemscore.Internal.Correction>
0.1013

> <Gold.Rescore>
     Score         DG    S(hbond)    S(metal)    S(lipo)     H(rot)  DE(clash)    DE(int)     intcor
     19.78     -22.20       5.32        0.00      38.11       2.15       0.03       2.39       ----

> <Gold.Chemscore.Fitness>
19.7773

> <Gold.Chemscore.DG>
-22.1971

> <Gold.Chemscore.ZeroCoef>
-5.4800

> <Gold.Chemscore.Hbond>
5.3203

> <Gold.Chemscore.Metal>
0.0000

> <Gold.Chemscore.Lipo>
38.1150

> <Gold.Chemscore.Internal_Hbond>
0.0000

> <Gold.Chemscore.DEClash>
0.0320

> <Gold.Chemscore.DEInternal>
2.3878

> <Gold.Chemscore.Rot>
2.1532

> <Gold.Chemscore.Internal.Correction>
   9.000000E+99

> <Gold.Chemscore.Hbonds>
donor molecule, donor type, donor heavy atom, donor atom, acceptor molecule, acceptor atom, score
      L1  H    13    28       P1  7957  0.89
      L1  H    13    29       P1  7948  0.85
      P1  H  6896  6908       L1     7  0.68
      P1  H  6931  6943       L1     6  0.68
      P1  H  6934  6947       L1     6  0.81
      P1  H  7989  7998       L1    14  0.96

> <Gold.Chemscore.Hbond.Weighted>
-17.7699

> <Gold.Chemscore.Metal.Weighted>
-0.0000

> <Gold.Chemscore.Lipo.Weighted>
-4.4595

> <Gold.Chemscore.Internal_Hbond.Weighted>
0.0000

> <Gold.Chemscore.DEClash.Weighted>
0.0320

> <Gold.Chemscore.DEInternal.Weighted>
2.3878

> <Gold.Chemscore.Rot.Weighted>
5.5123

> <Gold.Chemscore.Internal.Correction.Weighted>
   9.000000E+99

> <Gold.Protein.RotatedTorsions>
[ 6907 6896 6895 6894 ] final  165.30 input  -60.11 | X-H torsion
[ 7974 7965 7964 7962 ] final   -0.08 input  175.53 | X-H torsion
[ 8008 7997 7996 7995 ] final -139.93 input   59.86 | X-H torsion
[ 10167 10162 10161 10158 ] final  125.23 input  -65.29 | X-H torsion
[ 10718 10713 10712 10709 ] final -160.22 input   66.30 | X-H torsion
[ 10763 10752 10751 10750 ] final -146.41 input  -60.55 | X-H torsion
[ 11005 11000 10999 10996 ] final -158.67 input  -57.11 | X-H torsion

> <Gold.Protein.ActiveResidues>
 VAL166  LYS551  ARG553  GLY616  TRP617  ASP618  TYR619  PRO620  LYS621  CYS622 
 ASP623  PHE694  ASN695  SER759  ASP760  ASP761  ALA762  ILE779  LEU786  VAL792 
 PHE793  MET794  SER795  GLU796  ALA797  LYS798  CYS799  TRP800  GLU811  SER814 

> <Gold.Protein.RotatedAtoms>
  151.8965  133.3528  159.3815 H   0  0  0  0  0  0  0  0  0  0  0  0  # atno 6907 bound_to 6896
  150.7090  134.4871  159.5507 H   0  0  0  0  0  0  0  0  0  0  0  0  # atno 6908 bound_to 6896
  152.2451  134.8189  160.0505 H   0  0  0  0  0  0  0  0  0  0  0  0  # atno 6909 bound_to 6896
  146.2430  140.1216  142.8340 H   0  0  0  0  0  0  0  0  0  0  0  0  # atno 7974 bound_to 7965
  155.4529  140.0540  157.2999 H   0  0  0  0  0  0  0  0  0  0  0  0  # atno 8008 bound_to 7997
  154.4769  140.2065  155.9811 H   0  0  0  0  0  0  0  0  0  0  0  0  # atno 8009 bound_to 7997
  156.1146  140.3198  155.8126 H   0  0  0  0  0  0  0  0  0  0  0  0  # atno 8010 bound_to 7997
  139.5697  144.6932  151.3813 H   0  0  0  0  0  0  0  0  0  0  0  0  # atno 10167 bound_to 10162
  156.5790  130.8721  151.2859 H   0  0  0  0  0  0  0  0  0  0  0  0  # atno 10718 bound_to 10713
  154.8337  135.3387  154.6658 H   0  0  0  0  0  0  0  0  0  0  0  0  # atno 10763 bound_to 10752
  153.7275  135.6954  153.5002 H   0  0  0  0  0  0  0  0  0  0  0  0  # atno 10764 bound_to 10752
  153.2336  135.4408  155.0575 H   0  0  0  0  0  0  0  0  0  0  0  0  # atno 10765 bound_to 10752
  140.6510  134.4450  157.5235 H   0  0  0  0  0  0  0  0  0  0  0  0  # atno 11005 bound_to 11000
  145.0402  140.8939  143.5057 LP  0  0  0  0  0  0  0  0  0  0  0  0  # atno 17320 bound_to 7965
  145.1295  139.2641  143.5547 LP  0  0  0  0  0  0  0  0  0  0  0  0  # atno 17321 bound_to 7965
  140.6981  143.7699  150.7359 LP  0  0  0  0  0  0  0  0  0  0  0  0  # atno 17342 bound_to 10162
  140.1201  143.4619  152.2318 LP  0  0  0  0  0  0  0  0  0  0  0  0  # atno 17343 bound_to 10162
  157.7331  130.9725  150.1960 LP  0  0  0  0  0  0  0  0  0  0  0  0  # atno 17370 bound_to 10713
  156.2648  130.3715  149.8093 LP  0  0  0  0  0  0  0  0  0  0  0  0  # atno 17371 bound_to 10713
  139.9046  134.8479  156.1758 LP  0  0  0  0  0  0  0  0  0  0  0  0  # atno 17394 bound_to 11000
  141.0536  133.6876  156.1819 LP  0  0  0  0  0  0  0  0  0  0  0  0  # atno 17395 bound_to 11000

$$$$
