AV-unprocessed.smi:1437|AV-procd|sdf|5865|dock3
  -GOLD-   22720 5543D 1   1.00000     0.00000
 Structure written by MMmdl.
 35 36  0  0  0  0  0  0  0  0  3 V2000
  152.6869  143.7158  161.8379 C   0  0  0  0  0  0  0  0  0  0  0  0
  152.3915  143.2008  160.4706 C   0  0  0  0  0  0  0  0  0  0  0  0
  151.7448  143.7422  159.3962 C   0  0  0  0  0  0  0  0  0  0  0  0
  151.8165  142.7114  158.4198 C   0  0  0  0  0  0  0  0  0  0  0  0
  151.3248  142.7723  157.1727 N   0  5  0  0  0  0  0  0  0  0  0  0
  150.6152  141.7366  156.6699 C   0  0  0  0  0  0  0  0  0  0  0  0
  150.8184  140.5387  156.8808 O   0  0  0  0  0  0  0  0  0  0  0  0
  149.6050  142.1132  155.8725 N   0  0  0  0  0  0  0  0  0  0  0  0
  148.6676  141.2207  155.1976 C   0  0  2  0  0  0  0  0  0  0  0  0
  149.4128  140.0539  154.5236 C   0  0  0  0  0  0  0  0  0  0  0  0
  148.4446  139.1658  153.7253 C   0  0  0  0  0  0  0  0  0  0  0  0
  147.6912  139.9627  152.7254 N   0  3  1  0  0  0  0  0  0  0  0  0
  146.8387  139.1198  151.8601 C   0  0  0  0  0  0  0  0  0  0  0  0
  146.9337  141.0732  153.3546 C   0  0  0  0  0  0  0  0  0  0  0  0
  147.8706  142.0038  154.1420 C   0  0  0  0  0  0  0  0  0  0  0  0
  152.4648  141.6450  158.8576 N   0  0  0  0  0  0  0  0  0  0  0  0
  152.8308  141.9481  160.1744 O   0  0  0  0  0  0  0  0  0  0  0  0
  153.3669  144.5663  161.7901 H   0  0  0  0  0  0  0  0  0  0  0  0
  153.1498  142.9473  162.4576 H   0  0  0  0  0  0  0  0  0  0  0  0
  151.7716  144.0414  162.3322 H   0  0  0  0  0  0  0  0  0  0  0  0
  151.2896  144.7180  159.3205 H   0  0  0  0  0  0  0  0  0  0  0  0
  149.4791  143.1045  155.7280 H   0  0  0  0  0  0  0  0  0  0  0  0
  147.9620  140.8202  155.9282 H   0  0  0  0  0  0  0  0  0  0  0  0
  150.1833  140.4427  153.8558 H   0  0  0  0  0  0  0  0  0  0  0  0
  149.9288  139.4520  155.2725 H   0  0  0  0  0  0  0  0  0  0  0  0
  149.0067  138.3803  153.2186 H   0  0  0  0  0  0  0  0  0  0  0  0
  147.7458  138.6712  154.4018 H   0  0  0  0  0  0  0  0  0  0  0  0
  146.0641  138.6189  152.4424 H   0  0  0  0  0  0  0  0  0  0  0  0
  147.4350  138.3582  151.3565 H   0  0  0  0  0  0  0  0  0  0  0  0
  146.3540  139.7235  151.0921 H   0  0  0  0  0  0  0  0  0  0  0  0
  146.4165  141.6460  152.5842 H   0  0  0  0  0  0  0  0  0  0  0  0
  146.1670  140.6655  154.0157 H   0  0  0  0  0  0  0  0  0  0  0  0
  147.2896  142.7930  154.6212 H   0  0  0  0  0  0  0  0  0  0  0  0
  148.5545  142.4992  153.4510 H   0  0  0  0  0  0  0  0  0  0  0  0
  148.3795  140.3902  152.1222 H   0  0  0  0  0  0  0  0  0  0  0  0
  1  2  1  0  0  0  0
  1 18  1  0  0  0  0
  1 19  1  0  0  0  0
  1 20  1  0  0  0  0
  2 17  1  0  0  0  0
  2  3  2  0  0  0  0
  3  4  1  0  0  0  0
  3 21  1  0  0  0  0
  4  5  1  0  0  0  0
  4 16  2  0  0  0  0
  5  6  1  0  0  0  0
  6  7  2  0  0  0  0
  6  8  1  0  0  0  0
  8  9  1  0  0  0  0
  8 22  1  0  0  0  0
  9 15  1  0  0  0  0
  9 10  1  0  0  0  0
  9 23  1  0  0  0  0
 10 11  1  0  0  0  0
 10 24  1  0  0  0  0
 10 25  1  0  0  0  0
 11 12  1  0  0  0  0
 11 26  1  0  0  0  0
 11 27  1  0  0  0  0
 12 13  1  0  0  0  0
 12 14  1  0  0  0  0
 12 35  1  0  0  0  0
 13 28  1  0  0  0  0
 13 29  1  0  0  0  0
 13 30  1  0  0  0  0
 14 15  1  0  0  0  0
 14 31  1  0  0  0  0
 14 32  1  0  0  0  0
 15 33  1  0  0  0  0
 15 34  1  0  0  0  0
 16 17  1  0  0  0  0
M  CHG  1   5  -1
M  CHG  1  12   1
M  END
> <s_m_source_file>
AV-unprocessed.smi

> <i_m_source_file_index>
1437

> <i_lp_mmshare_version>
43012

> <i_f3d_flags>
0

> <s_epik_input>
W0NIM11jMVtjSF1jKG5vMSlbTkhdQyg9TylbTkhdW0NIXTJbQ0gyXVtDSDJdTihbQ0gzXSlbQ0gyXVtDSDJdMg==

> <s_epik_cmdline>
J2VwaWtfcHl0aG9uJywgJy1waCcsICc3LjAnLCAnLXRuJywgJzgnLCAnLW1hJywgJzIwMCcsICctbWV0YWxfYmluZGluZycsICctaW1hZScsICc8aW5maWxlLm1hZT4nLCAnLW9tYWUnLCAnPG91dGZpbGUubWFlPic=

> <r_epik_Ionization_Penalty>
6.28535

> <r_epik_Ionization_Penalty_Charging>
6.28525

> <r_epik_Ionization_Penalty_Neutral>
9.66055e-05

> <r_epik_State_Penalty>
6.28414

> <r_epik_Charging_Adjusted_Penalty>
12.5694

> <i_epik_Tot_Q>
0

> <i_epik_Tot_abs_Q>
2

> <r_epik_Metal_State_Penalty>
2.21724

> <b_epik_Metal_Only>
1

> <s_lp_Force_Field>
OPLS_2005

> <r_lp_Energy>
2.83336

> <b_lp_Chiralities_Consistent>
1

> <s_lp_Variant>
AV-unprocessed.smi:1437-3

> <Gold.Version>
5.8.1

> <Gold.Id.Protein>
6NUR|6NUR_protein|mol2

> <Gold.PLP.Fitness>
39.8325

> <Gold.PLP.PLP>
-35.4400

> <Gold.PLP.part.hbond>
-1.9303

> <Gold.PLP.part.metal>
0.0000

> <Gold.PLP.part.buried>
-3.5147

> <Gold.PLP.part.nonpolar>
-29.0627

> <Gold.PLP.part.repulsive>
0.3203

> <Gold.PLP.ligand.clash>
0.0000

> <Gold.PLP.ligand.torsion>
0.8078

> <Gold.PLP.Chemscore.Hbond>
2.0000

> <Gold.PLP.Chemscore.CHOScore>
0.0000

> <Gold.PLP.Chemscore.Metal>
0.0000

> <Gold.Chemscore.Hbonds>
donor molecule, donor type, donor heavy atom, donor atom, acceptor molecule, acceptor atom, score
      L1  H     8    22       P1  8028  1.00
      L1  H    12    35       P1  7957  0.85

> <Gold.PLP.Chemscore.Internal.Correction>
0.0081

> <Gold.Rescore>
     Score         DG    S(hbond)    S(metal)    S(lipo)     H(rot)  DE(clash)    DE(int)     intcor
     15.10     -18.71       1.97        0.00      78.87       1.00       0.05       3.56       ----

> <Gold.Chemscore.Fitness>
15.0988

> <Gold.Chemscore.DG>
-18.7137

> <Gold.Chemscore.ZeroCoef>
-5.4800

> <Gold.Chemscore.Hbond>
1.9657

> <Gold.Chemscore.Metal>
0.0000

> <Gold.Chemscore.Lipo>
78.8731

> <Gold.Chemscore.Internal_Hbond>
0.0000

> <Gold.Chemscore.DEClash>
0.0501

> <Gold.Chemscore.DEInternal>
3.5648

> <Gold.Chemscore.Rot>
1.0000

> <Gold.Chemscore.Internal.Correction>
   9.000000E+99

> <Gold.Chemscore.Hbonds>
donor molecule, donor type, donor heavy atom, donor atom, acceptor molecule, acceptor atom, score
      L1  H     8    22       P1  8028  1.00
      L1  H    12    35       P1  7957  0.83

> <Gold.Chemscore.Hbond.Weighted>
-6.5655

> <Gold.Chemscore.Metal.Weighted>
-0.0000

> <Gold.Chemscore.Lipo.Weighted>
-9.2281

> <Gold.Chemscore.Internal_Hbond.Weighted>
0.0000

> <Gold.Chemscore.DEClash.Weighted>
0.0501

> <Gold.Chemscore.DEInternal.Weighted>
3.5648

> <Gold.Chemscore.Rot.Weighted>
2.5600

> <Gold.Chemscore.Internal.Correction.Weighted>
   9.000000E+99

> <Gold.Protein.RotatedTorsions>
[ 6907 6896 6895 6894 ] final -170.47 input  -60.11 | X-H torsion
[ 7974 7965 7964 7962 ] final  179.65 input  175.53 | X-H torsion
[ 8008 7997 7996 7995 ] final  -63.20 input   59.86 | X-H torsion
[ 10167 10162 10161 10158 ] final  -42.60 input  -65.29 | X-H torsion
[ 10718 10713 10712 10709 ] final   -6.90 input   66.30 | X-H torsion
[ 10763 10752 10751 10750 ] final  136.52 input  -60.55 | X-H torsion
[ 11005 11000 10999 10996 ] final  -21.59 input  -57.11 | X-H torsion

> <Gold.Protein.ActiveResidues>
 VAL166  LYS551  ARG553  GLY616  TRP617  ASP618  TYR619  PRO620  LYS621  CYS622 
 ASP623  PHE694  ASN695  SER759  ASP760  ASP761  ALA762  ILE779  LEU786  VAL792 
 PHE793  MET794  SER795  GLU796  ALA797  LYS798  CYS799  TRP800  GLU811  SER814 

> <Gold.Protein.RotatedAtoms>
  151.5082  133.3490  159.2880 H   0  0  0  0  0  0  0  0  0  0  0  0  # atno 6907 bound_to 6896
  150.8729  134.8108  159.7179 H   0  0  0  0  0  0  0  0  0  0  0  0  # atno 6908 bound_to 6896
  152.4711  134.4969  159.9764 H   0  0  0  0  0  0  0  0  0  0  0  0  # atno 6909 bound_to 6896
  144.7144  140.0580  143.6433 H   0  0  0  0  0  0  0  0  0  0  0  0  # atno 7974 bound_to 7965
  154.4541  140.0980  156.6706 H   0  0  0  0  0  0  0  0  0  0  0  0  # atno 8008 bound_to 7997
  155.5192  140.3478  155.4385 H   0  0  0  0  0  0  0  0  0  0  0  0  # atno 8009 bound_to 7997
  156.0742  140.1357  156.9780 H   0  0  0  0  0  0  0  0  0  0  0  0  # atno 8010 bound_to 7997
  140.6963  143.3029  151.3232 H   0  0  0  0  0  0  0  0  0  0  0  0  # atno 10167 bound_to 10162
  156.7251  130.5163  149.5858 H   0  0  0  0  0  0  0  0  0  0  0  0  # atno 10718 bound_to 10713
  153.8579  135.3071  155.3436 H   0  0  0  0  0  0  0  0  0  0  0  0  # atno 10763 bound_to 10752
  154.7862  135.4808  153.9954 H   0  0  0  0  0  0  0  0  0  0  0  0  # atno 10764 bound_to 10752
  153.1479  135.6837  153.9021 H   0  0  0  0  0  0  0  0  0  0  0  0  # atno 10765 bound_to 10752
  140.8575  133.7812  156.0037 H   0  0  0  0  0  0  0  0  0  0  0  0  # atno 11005 bound_to 11000
  145.9888  139.2998  143.0997 LP  0  0  0  0  0  0  0  0  0  0  0  0  # atno 17320 bound_to 7965
  145.8927  140.9294  143.0544 LP  0  0  0  0  0  0  0  0  0  0  0  0  # atno 17321 bound_to 7965
  139.6423  144.0515  152.2564 LP  0  0  0  0  0  0  0  0  0  0  0  0  # atno 17342 bound_to 10162
  140.0025  144.6283  150.7717 LP  0  0  0  0  0  0  0  0  0  0  0  0  # atno 17343 bound_to 10162
  156.1567  130.6346  151.0666 LP  0  0  0  0  0  0  0  0  0  0  0  0  # atno 17370 bound_to 10713
  157.6882  131.0818  150.7184 LP  0  0  0  0  0  0  0  0  0  0  0  0  # atno 17371 bound_to 10713
  140.8720  134.2715  157.5186 LP  0  0  0  0  0  0  0  0  0  0  0  0  # atno 17394 bound_to 11000
  139.8706  134.9572  156.4261 LP  0  0  0  0  0  0  0  0  0  0  0  0  # atno 17395 bound_to 11000

$$$$
