AV-unprocessed.smi:730|AV-procd|sdf|3522|dock2
  -GOLD-   22720 0513D 1   1.00000     0.00000
 Structure written by MMmdl.
 40 41  0  0  0  0  0  0  0  0  1 V2000
  151.6564  144.4664  160.4514 C   0  0  0  0  0  0  0  0  0  0  0  0
  152.1432  143.6263  159.2539 C   0  0  0  0  0  0  0  0  0  0  0  0
  152.8389  144.5667  158.2521 C   0  0  0  0  0  0  0  0  0  0  0  0
  153.1606  142.5910  159.7690 C   0  0  0  0  0  0  0  0  0  0  0  0
  150.9912  142.9285  158.5862 C   0  0  0  0  0  0  0  0  0  0  0  0
  150.8790  142.1644  157.4562 C   0  0  0  0  0  0  0  0  0  0  0  0
  149.5005  141.8252  157.4275 C   0  0  0  0  0  0  0  0  0  0  0  0
  148.9701  141.0206  156.3870 N   0  0  0  0  0  0  0  0  0  0  0  0
  147.6868  140.9246  156.0002 C   0  0  0  0  0  0  0  0  0  0  0  0
  146.7456  141.5381  156.5041 O   0  0  0  0  0  0  0  0  0  0  0  0
  147.5478  140.0636  154.9819 N   0  0  0  0  0  0  0  0  0  0  0  0
  146.2841  139.7387  154.3238 C   0  0  2  0  0  0  0  0  0  0  0  0
  145.3663  138.9459  155.2736 C   0  0  0  0  0  0  0  0  0  0  0  0
  145.5255  137.4821  154.8673 C   0  0  0  0  0  0  0  0  0  0  0  0
  145.7011  137.5453  153.3538 C   0  0  0  0  0  0  0  0  0  0  0  0
  146.5311  138.8137  153.1100 C   0  0  1  0  0  0  0  0  0  0  0  0
  146.1374  139.4272  151.8999 O   0  0  0  0  0  0  0  0  0  0  0  0
  148.8261  142.3339  158.4460 N   0  0  0  0  0  0  0  0  0  0  0  0
  149.7753  143.0409  159.1920 O   0  0  0  0  0  0  0  0  0  0  0  0
  152.4850  144.9790  160.9414 H   0  0  0  0  0  0  0  0  0  0  0  0
  151.1683  143.8438  161.2023 H   0  0  0  0  0  0  0  0  0  0  0  0
  150.9413  145.2283  160.1389 H   0  0  0  0  0  0  0  0  0  0  0  0
  152.1478  145.3193  157.8709 H   0  0  0  0  0  0  0  0  0  0  0  0
  153.2308  144.0182  157.3946 H   0  0  0  0  0  0  0  0  0  0  0  0
  153.6761  145.0920  158.7130 H   0  0  0  0  0  0  0  0  0  0  0  0
  154.0027  143.0729  160.2669 H   0  0  0  0  0  0  0  0  0  0  0  0
  153.5655  141.9885  158.9550 H   0  0  0  0  0  0  0  0  0  0  0  0
  152.7024  141.9080  160.4852 H   0  0  0  0  0  0  0  0  0  0  0  0
  151.6599  141.8910  156.7622 H   0  0  0  0  0  0  0  0  0  0  0  0
  149.6397  140.4577  155.8838 H   0  0  0  0  0  0  0  0  0  0  0  0
  148.3742  139.6021  154.6310 H   0  0  0  0  0  0  0  0  0  0  0  0
  145.7878  140.6624  154.0185 H   0  0  0  0  0  0  0  0  0  0  0  0
  145.5813  139.1088  156.3306 H   0  0  0  0  0  0  0  0  0  0  0  0
  144.3323  139.2509  155.1073 H   0  0  0  0  0  0  0  0  0  0  0  0
  146.4216  137.0652  155.3286 H   0  0  0  0  0  0  0  0  0  0  0  0
  144.6760  136.8681  155.1676 H   0  0  0  0  0  0  0  0  0  0  0  0
  146.1731  136.6505  152.9470 H   0  0  0  0  0  0  0  0  0  0  0  0
  144.7172  137.6375  152.8902 H   0  0  0  0  0  0  0  0  0  0  0  0
  147.5862  138.5444  153.0350 H   0  0  0  0  0  0  0  0  0  0  0  0
  145.3209  139.8806  152.0450 H   0  0  0  0  0  0  0  0  0  0  0  0
  1  2  1  0  0  0  0
  1 20  1  0  0  0  0
  1 21  1  0  0  0  0
  1 22  1  0  0  0  0
  2  3  1  0  0  0  0
  2  4  1  0  0  0  0
  2  5  1  0  0  0  0
  3 23  1  0  0  0  0
  3 24  1  0  0  0  0
  3 25  1  0  0  0  0
  4 26  1  0  0  0  0
  4 27  1  0  0  0  0
  4 28  1  0  0  0  0
  5 19  1  0  0  0  0
  5  6  2  0  0  0  0
  6  7  1  0  0  0  0
  6 29  1  0  0  0  0
  7  8  1  0  0  0  0
  7 18  2  0  0  0  0
  8  9  1  0  0  0  0
  8 30  1  0  0  0  0
  9 10  2  0  0  0  0
  9 11  1  0  0  0  0
 11 12  1  0  0  0  0
 11 31  1  0  0  0  0
 12 16  1  0  0  0  0
 12 13  1  0  0  0  0
 12 32  1  0  0  0  0
 13 14  1  0  0  0  0
 13 33  1  0  0  0  0
 13 34  1  0  0  0  0
 14 15  1  0  0  0  0
 14 35  1  0  0  0  0
 14 36  1  0  0  0  0
 15 16  1  0  0  0  0
 15 37  1  0  0  0  0
 15 38  1  0  0  0  0
 16 17  1  0  0  0  0
 16 39  1  0  0  0  0
 17 40  1  0  0  0  0
 18 19  1  0  0  0  0
M  END
> <s_m_source_file>
AV-unprocessed.smi

> <i_m_source_file_index>
730

> <i_lp_mmshare_version>
43012

> <i_f3d_flags>
0

> <s_epik_input>
W0NIM11DKFtDSDNdKShbQ0gzXSljMVtjSF1jKG5vMSlbTkhdQyg9TylbTkhdW0NAQEhdMltDSDJdW0NIMl1bQ0gyXVtDQEhdMltPSF0=

> <s_epik_cmdline>
J2VwaWtfcHl0aG9uJywgJy1waCcsICc3LjAnLCAnLXRuJywgJzgnLCAnLW1hJywgJzIwMCcsICctbWV0YWxfYmluZGluZycsICctaW1hZScsICc8aW5maWxlLm1hZT4nLCAnLW9tYWUnLCAnPG91dGZpbGUubWFlPic=

> <r_lp_tautomer_probability>
1

> <r_epik_Ionization_Penalty>
2.23071e-05

> <r_epik_Ionization_Penalty_Charging>
0

> <r_epik_Ionization_Penalty_Neutral>
2.23071e-05

> <r_epik_State_Penalty>
-0

> <r_epik_Charging_Adjusted_Penalty>
0

> <i_epik_Tot_Q>
0

> <i_epik_Tot_abs_Q>
0

> <r_epik_Metal_State_Penalty>
-0

> <b_epik_Metal_Only>
0

> <s_lp_Force_Field>
OPLS_2005

> <r_lp_Energy>
16.5614

> <b_lp_Chiralities_Consistent>
1

> <s_lp_Variant>
AV-unprocessed.smi:730-1

> <Gold.Version>
5.8.1

> <Gold.Id.Protein>
6NUR|6NUR_protein|mol2

> <Gold.PLP.Fitness>
34.6381

> <Gold.PLP.PLP>
-32.1048

> <Gold.PLP.part.hbond>
-2.7148

> <Gold.PLP.part.metal>
0.0000

> <Gold.PLP.part.buried>
-6.0111

> <Gold.PLP.part.nonpolar>
-25.3921

> <Gold.PLP.part.repulsive>
0.3513

> <Gold.PLP.ligand.clash>
0.0000

> <Gold.PLP.ligand.torsion>
0.2373

> <Gold.PLP.Chemscore.Hbond>
1.0000

> <Gold.PLP.Chemscore.CHOScore>
0.0000

> <Gold.PLP.Chemscore.Metal>
0.0000

> <Gold.Chemscore.Hbonds>
donor molecule, donor type, donor heavy atom, donor atom, acceptor molecule, acceptor atom, score
      L1  H    17    40       P1 10175  1.00

> <Gold.PLP.Chemscore.Internal.Correction>
0.0078

> <Gold.Rescore>
     Score         DG    S(hbond)    S(metal)    S(lipo)     H(rot)  DE(clash)    DE(int)     intcor
     12.84     -14.49       0.98        0.00      86.40       1.71       0.07       1.58       ----

> <Gold.Chemscore.Fitness>
12.8432

> <Gold.Chemscore.DG>
-14.4910

> <Gold.Chemscore.ZeroCoef>
-5.4800

> <Gold.Chemscore.Hbond>
0.9839

> <Gold.Chemscore.Metal>
0.0000

> <Gold.Chemscore.Lipo>
86.3993

> <Gold.Chemscore.Internal_Hbond>
0.0000

> <Gold.Chemscore.DEClash>
0.0653

> <Gold.Chemscore.DEInternal>
1.5825

> <Gold.Chemscore.Rot>
1.7125

> <Gold.Chemscore.Internal.Correction>
   9.000000E+99

> <Gold.Chemscore.Hbonds>
donor molecule, donor type, donor heavy atom, donor atom, acceptor molecule, acceptor atom, score
      L1  H    17    40       P1 10175  0.78

> <Gold.Chemscore.Hbond.Weighted>
-3.2864

> <Gold.Chemscore.Metal.Weighted>
-0.0000

> <Gold.Chemscore.Lipo.Weighted>
-10.1087

> <Gold.Chemscore.Internal_Hbond.Weighted>
0.0000

> <Gold.Chemscore.DEClash.Weighted>
0.0653

> <Gold.Chemscore.DEInternal.Weighted>
1.5825

> <Gold.Chemscore.Rot.Weighted>
4.3841

> <Gold.Chemscore.Internal.Correction.Weighted>
   9.000000E+99

> <Gold.Protein.RotatedTorsions>
[ 6907 6896 6895 6894 ] final -136.55 input  -60.11 | X-H torsion
[ 7974 7965 7964 7962 ] final  152.33 input  175.53 | X-H torsion
[ 8008 7997 7996 7995 ] final  141.78 input   59.86 | X-H torsion
[ 10167 10162 10161 10158 ] final  -82.77 input  -65.29 | X-H torsion
[ 10718 10713 10712 10709 ] final  143.95 input   66.30 | X-H torsion
[ 10763 10752 10751 10750 ] final  -42.45 input  -60.55 | X-H torsion
[ 11005 11000 10999 10996 ] final   44.24 input  -57.11 | X-H torsion

> <Gold.Protein.ActiveResidues>
 VAL166  LYS551  ARG553  GLY616  TRP617  ASP618  TYR619  PRO620  LYS621  CYS622 
 ASP623  PHE694  ASN695  SER759  ASP760  ASP761  ALA762  ILE779  LEU786  VAL792 
 PHE793  MET794  SER795  GLU796  ALA797  LYS798  CYS799  TRP800  GLU811  SER814 

> <Gold.Protein.RotatedAtoms>
  151.0114  133.5961  159.2681 H   0  0  0  0  0  0  0  0  0  0  0  0  # atno 6907 bound_to 6896
  151.3112  135.0793  159.9282 H   0  0  0  0  0  0  0  0  0  0  0  0  # atno 6908 bound_to 6896
  152.5300  133.9779  159.7847 H   0  0  0  0  0  0  0  0  0  0  0  0  # atno 6909 bound_to 6896
  144.8230  139.6655  143.6092 H   0  0  0  0  0  0  0  0  0  0  0  0  # atno 7974 bound_to 7965
  156.2960  140.2306  156.4620 H   0  0  0  0  0  0  0  0  0  0  0  0  # atno 8008 bound_to 7997
  154.8010  140.0448  157.1293 H   0  0  0  0  0  0  0  0  0  0  0  0  # atno 8009 bound_to 7997
  154.9534  140.3045  155.5068 H   0  0  0  0  0  0  0  0  0  0  0  0  # atno 8010 bound_to 7997
  140.4289  143.2556  151.8787 H   0  0  0  0  0  0  0  0  0  0  0  0  # atno 10167 bound_to 10162
  157.3630  131.0968  151.0898 H   0  0  0  0  0  0  0  0  0  0  0  0  # atno 10718 bound_to 10713
  153.9792  135.6719  153.4749 H   0  0  0  0  0  0  0  0  0  0  0  0  # atno 10763 bound_to 10752
  153.0756  135.4950  154.8394 H   0  0  0  0  0  0  0  0  0  0  0  0  # atno 10764 bound_to 10752
  154.7174  135.3110  154.9063 H   0  0  0  0  0  0  0  0  0  0  0  0  # atno 10765 bound_to 10752
  140.1570  134.4389  155.8343 H   0  0  0  0  0  0  0  0  0  0  0  0  # atno 11005 bound_to 11000
  146.2535  139.6251  142.9411 LP  0  0  0  0  0  0  0  0  0  0  0  0  # atno 17320 bound_to 7965
  145.5063  141.0436  143.2512 LP  0  0  0  0  0  0  0  0  0  0  0  0  # atno 17321 bound_to 7965
  139.4784  144.5356  151.8603 LP  0  0  0  0  0  0  0  0  0  0  0  0  # atno 17342 bound_to 10162
  140.4450  144.1934  150.5893 LP  0  0  0  0  0  0  0  0  0  0  0  0  # atno 17343 bound_to 10162
  157.2031  130.6404  149.5746 LP  0  0  0  0  0  0  0  0  0  0  0  0  # atno 17370 bound_to 10713
  155.9741  130.4684  150.6359 LP  0  0  0  0  0  0  0  0  0  0  0  0  # atno 17371 bound_to 10713
  141.2205  133.6897  156.7525 LP  0  0  0  0  0  0  0  0  0  0  0  0  # atno 17394 bound_to 11000
  140.2535  134.8522  157.3690 LP  0  0  0  0  0  0  0  0  0  0  0  0  # atno 17395 bound_to 11000

$$$$
