AV-unprocessed.smi:1485|AV-procd|sdf|6001|dock7
  -GOLD-   22720 6 93D 1   1.00000     0.00000
 Structure written by MMmdl.
 44 45  0  0  0  0  0  0  0  0  1 V2000
  144.2928  146.0938  158.3182 C   0  0  0  0  0  0  0  0  0  0  0  0
  143.2608  145.2972  158.8714 O   0  0  0  0  0  0  0  0  0  0  0  0
  143.3503  145.1891  160.2832 C   0  0  0  0  0  0  0  0  0  0  0  0
  143.9810  143.8368  160.6519 C   0  0  0  0  0  0  0  0  0  0  0  0
  145.2335  143.6059  159.9235 N   0  0  0  0  0  0  0  0  0  0  0  0
  146.3037  144.3385  160.4066 N   0  0  0  0  0  0  0  0  0  0  0  0
  147.4668  144.2387  159.8497 C   0  0  0  0  0  0  0  0  0  0  0  0
  148.6311  145.0363  160.3231 C   0  0  0  0  0  0  0  0  0  0  0  0
  148.4921  146.0540  161.0035 O   0  0  0  0  0  0  0  0  0  0  0  0
  149.8328  144.5575  159.9559 N   0  0  0  0  0  0  0  0  0  0  0  0
  151.1320  145.1355  160.2910 C   0  0  2  0  0  0  0  0  0  0  0  0
  151.9054  145.5331  159.0175 C   0  0  0  0  0  0  0  0  0  0  0  0
  152.3642  144.3045  158.2127 C   0  0  0  0  0  0  0  0  0  0  0  0
  153.1798  143.3353  159.0837 C   0  0  0  0  0  0  0  0  0  0  0  0
  152.3975  142.9047  160.3390 C   0  0  1  0  0  0  0  0  0  0  0  0
  153.2158  141.9402  161.2087 C   0  0  0  0  0  0  0  0  0  0  0  0
  151.9468  144.1423  161.1431 C   0  0  0  0  0  0  0  0  0  0  0  0
  147.6784  143.3436  158.7251 C   0  0  0  0  0  0  0  0  0  0  0  0
  146.6206  142.6484  158.2519 C   0  0  0  0  0  0  0  0  0  0  0  0
  145.2870  142.7671  158.8449 C   0  0  0  0  0  0  0  0  0  0  0  0
  144.3021  142.1704  158.4108 O   0  0  0  0  0  0  0  0  0  0  0  0
  144.1828  146.1329  157.2346 H   0  0  0  0  0  0  0  0  0  0  0  0
  145.2757  145.6770  158.5418 H   0  0  0  0  0  0  0  0  0  0  0  0
  144.2495  147.1148  158.6989 H   0  0  0  0  0  0  0  0  0  0  0  0
  143.9733  145.9974  160.6682 H   0  0  0  0  0  0  0  0  0  0  0  0
  142.3652  145.2917  160.7413 H   0  0  0  0  0  0  0  0  0  0  0  0
  144.1591  143.7941  161.7279 H   0  0  0  0  0  0  0  0  0  0  0  0
  143.2689  143.0349  160.4495 H   0  0  0  0  0  0  0  0  0  0  0  0
  149.8466  143.7142  159.4002 H   0  0  0  0  0  0  0  0  0  0  0  0
  150.9687  146.0313  160.8925 H   0  0  0  0  0  0  0  0  0  0  0  0
  151.2966  146.1856  158.3903 H   0  0  0  0  0  0  0  0  0  0  0  0
  152.7809  146.1184  159.3012 H   0  0  0  0  0  0  0  0  0  0  0  0
  151.4964  143.7864  157.8024 H   0  0  0  0  0  0  0  0  0  0  0  0
  152.9612  144.6248  157.3586 H   0  0  0  0  0  0  0  0  0  0  0  0
  153.4526  142.4586  158.4954 H   0  0  0  0  0  0  0  0  0  0  0  0
  154.1157  143.8123  159.3783 H   0  0  0  0  0  0  0  0  0  0  0  0
  151.5069  142.3663  160.0120 H   0  0  0  0  0  0  0  0  0  0  0  0
  154.1272  142.4127  161.5763 H   0  0  0  0  0  0  0  0  0  0  0  0
  153.5045  141.0525  160.6456 H   0  0  0  0  0  0  0  0  0  0  0  0
  152.6402  141.6083  162.0732 H   0  0  0  0  0  0  0  0  0  0  0  0
  152.8265  144.6535  161.5371 H   0  0  0  0  0  0  0  0  0  0  0  0
  151.3634  143.8337  162.0117 H   0  0  0  0  0  0  0  0  0  0  0  0
  148.6519  143.2372  158.2690 H   0  0  0  0  0  0  0  0  0  0  0  0
  146.7621  141.9833  157.4127 H   0  0  0  0  0  0  0  0  0  0  0  0
  1  2  1  0  0  0  0
  1 22  1  0  0  0  0
  1 23  1  0  0  0  0
  1 24  1  0  0  0  0
  2  3  1  0  0  0  0
  3  4  1  0  0  0  0
  3 25  1  0  0  0  0
  3 26  1  0  0  0  0
  4  5  1  0  0  0  0
  4 27  1  0  0  0  0
  4 28  1  0  0  0  0
  5 20  1  0  0  0  0
  5  6  1  0  0  0  0
  6  7  2  0  0  0  0
  7  8  1  0  0  0  0
  7 18  1  0  0  0  0
  8  9  2  0  0  0  0
  8 10  1  0  0  0  0
 10 11  1  0  0  0  0
 10 29  1  0  0  0  0
 11 17  1  0  0  0  0
 11 12  1  0  0  0  0
 11 30  1  0  0  0  0
 12 13  1  0  0  0  0
 12 31  1  0  0  0  0
 12 32  1  0  0  0  0
 13 14  1  0  0  0  0
 13 33  1  0  0  0  0
 13 34  1  0  0  0  0
 14 15  1  0  0  0  0
 14 35  1  0  0  0  0
 14 36  1  0  0  0  0
 15 16  1  0  0  0  0
 15 17  1  0  0  0  0
 15 37  1  0  0  0  0
 16 38  1  0  0  0  0
 16 39  1  0  0  0  0
 16 40  1  0  0  0  0
 17 41  1  0  0  0  0
 17 42  1  0  0  0  0
 18 19  2  0  0  0  0
 18 43  1  0  0  0  0
 19 20  1  0  0  0  0
 19 44  1  0  0  0  0
 20 21  2  0  0  0  0
M  END
> <s_m_source_file>
AV-unprocessed.smi

> <i_m_source_file_index>
1485

> <i_lp_mmshare_version>
43012

> <i_f3d_flags>
0

> <s_epik_input>
W0NIM11PW0NIMl1bQ0gyXW4xbmMoW2NIXVtjSF1jMT1PKUMoPU8pW05IXVtDQEBIXTJbQ0gyXVtDSDJdW0NIMl1bQ0BASF0oW0NIM10pW0NIMl0y

> <s_epik_cmdline>
J2VwaWtfcHl0aG9uJywgJy1waCcsICc3LjAnLCAnLXRuJywgJzgnLCAnLW1hJywgJzIwMCcsICctbWV0YWxfYmluZGluZycsICctaW1hZScsICc8aW5maWxlLm1hZT4nLCAnLW9tYWUnLCAnPG91dGZpbGUubWFlPic=

> <r_lp_tautomer_probability>
1

> <r_epik_Ionization_Penalty>
6.4688e-07

> <r_epik_Ionization_Penalty_Charging>
6.63567e-09

> <r_epik_Ionization_Penalty_Neutral>
6.40245e-07

> <r_epik_State_Penalty>
-0

> <r_epik_Charging_Adjusted_Penalty>
6.63567e-09

> <i_epik_Tot_Q>
0

> <i_epik_Tot_abs_Q>
0

> <r_epik_Metal_State_Penalty>
-0

> <b_epik_Metal_Only>
0

> <s_lp_Force_Field>
OPLS_2005

> <r_lp_Energy>
29.3151

> <b_lp_Chiralities_Consistent>
1

> <s_lp_Variant>
AV-unprocessed.smi:1485-1

> <Gold.Version>
5.8.1

> <Gold.Id.Protein>
6NUR|6NUR_protein|mol2

> <Gold.PLP.Fitness>
39.4601

> <Gold.PLP.PLP>
-40.8213

> <Gold.PLP.part.hbond>
-1.3082

> <Gold.PLP.part.metal>
0.0000

> <Gold.PLP.part.buried>
-6.2632

> <Gold.PLP.part.nonpolar>
-34.5477

> <Gold.PLP.part.repulsive>
0.6255

> <Gold.PLP.ligand.clash>
0.0000

> <Gold.PLP.ligand.torsion>
0.6943

> <Gold.PLP.Chemscore.Hbond>
0.0000

> <Gold.PLP.Chemscore.CHOScore>
0.0000

> <Gold.PLP.Chemscore.Metal>
0.0000

> <Gold.PLP.Chemscore.Internal.Correction>
0.0274

> <Gold.Rescore>
     Score         DG    S(hbond)    S(metal)    S(lipo)     H(rot)  DE(clash)    DE(int)     intcor
     13.25     -13.95       0.00        0.00     106.29       1.55       0.28       0.42       ----

> <Gold.Chemscore.Fitness>
13.2474

> <Gold.Chemscore.DG>
-13.9535

> <Gold.Chemscore.ZeroCoef>
-5.4800

> <Gold.Chemscore.Hbond>
0.0000

> <Gold.Chemscore.Metal>
0.0000

> <Gold.Chemscore.Lipo>
106.2883

> <Gold.Chemscore.Internal_Hbond>
0.0000

> <Gold.Chemscore.DEClash>
0.2829

> <Gold.Chemscore.DEInternal>
0.4232

> <Gold.Chemscore.Rot>
1.5478

> <Gold.Chemscore.Internal.Correction>
   9.000000E+99

> <Gold.Chemscore.Hbond.Weighted>
-0.0000

> <Gold.Chemscore.Metal.Weighted>
-0.0000

> <Gold.Chemscore.Lipo.Weighted>
-12.4357

> <Gold.Chemscore.Internal_Hbond.Weighted>
0.0000

> <Gold.Chemscore.DEClash.Weighted>
0.2829

> <Gold.Chemscore.DEInternal.Weighted>
0.4232

> <Gold.Chemscore.Rot.Weighted>
3.9623

> <Gold.Chemscore.Internal.Correction.Weighted>
   9.000000E+99

> <Gold.Protein.RotatedTorsions>
[ 6907 6896 6895 6894 ] final   12.72 input  -60.11 | X-H torsion
[ 7974 7965 7964 7962 ] final -130.03 input  175.53 | X-H torsion
[ 8008 7997 7996 7995 ] final   19.48 input   59.86 | X-H torsion
[ 10167 10162 10161 10158 ] final  -42.99 input  -65.29 | X-H torsion
[ 10718 10713 10712 10709 ] final  -38.92 input   66.30 | X-H torsion
[ 10763 10752 10751 10750 ] final  -71.54 input  -60.55 | X-H torsion
[ 11005 11000 10999 10996 ] final  115.78 input  -57.11 | X-H torsion

> <Gold.Protein.ActiveResidues>
 VAL166  LYS551  ARG553  GLY616  TRP617  ASP618  TYR619  PRO620  LYS621  CYS622 
 ASP623  PHE694  ASN695  SER759  ASP760  ASP761  ALA762  ILE779  LEU786  VAL792 
 PHE793  MET794  SER795  GLU796  ALA797  LYS798  CYS799  TRP800  GLU811  SER814 

> <Gold.Protein.RotatedAtoms>
  151.7749  135.0777  160.0365 H   0  0  0  0  0  0  0  0  0  0  0  0  # atno 6907 bound_to 6896
  152.3263  133.5904  159.5787 H   0  0  0  0  0  0  0  0  0  0  0  0  # atno 6908 bound_to 6896
  150.7397  133.9852  159.3631 H   0  0  0  0  0  0  0  0  0  0  0  0  # atno 6909 bound_to 6896
  144.9514  140.7349  143.4785 H   0  0  0  0  0  0  0  0  0  0  0  0  # atno 7974 bound_to 7965
  154.9214  140.3028  155.5214 H   0  0  0  0  0  0  0  0  0  0  0  0  # atno 8008 bound_to 7997
  156.3009  140.2371  156.4200 H   0  0  0  0  0  0  0  0  0  0  0  0  # atno 8009 bound_to 7997
  154.8327  140.0417  157.1477 H   0  0  0  0  0  0  0  0  0  0  0  0  # atno 8010 bound_to 7997
  140.6950  143.3007  151.3288 H   0  0  0  0  0  0  0  0  0  0  0  0  # atno 10167 bound_to 10162
  156.2982  130.4237  149.8169 H   0  0  0  0  0  0  0  0  0  0  0  0  # atno 10718 bound_to 10713
  154.4332  135.5959  153.6082 H   0  0  0  0  0  0  0  0  0  0  0  0  # atno 10763 bound_to 10752
  152.9800  135.5980  154.3814 H   0  0  0  0  0  0  0  0  0  0  0  0  # atno 10764 bound_to 10752
  154.3654  135.2841  155.2275 H   0  0  0  0  0  0  0  0  0  0  0  0  # atno 10765 bound_to 10752
  139.9020  134.9589  156.7098 H   0  0  0  0  0  0  0  0  0  0  0  0  # atno 11005 bound_to 11000
  145.2838  139.1908  143.4777 LP  0  0  0  0  0  0  0  0  0  0  0  0  # atno 17320 bound_to 7965
  146.3322  140.2804  142.8610 LP  0  0  0  0  0  0  0  0  0  0  0  0  # atno 17321 bound_to 7965
  139.6394  144.0568  152.2542 LP  0  0  0  0  0  0  0  0  0  0  0  0  # atno 17342 bound_to 10162
  140.0069  144.6253  150.7681 LP  0  0  0  0  0  0  0  0  0  0  0  0  # atno 17343 bound_to 10162
  156.5557  130.8361  151.3313 LP  0  0  0  0  0  0  0  0  0  0  0  0  # atno 17370 bound_to 10713
  157.7361  130.9773  150.2118 LP  0  0  0  0  0  0  0  0  0  0  0  0  # atno 17371 bound_to 10713
  140.7084  133.9244  155.8069 LP  0  0  0  0  0  0  0  0  0  0  0  0  # atno 17394 bound_to 11000
  141.0318  134.0745  157.4005 LP  0  0  0  0  0  0  0  0  0  0  0  0  # atno 17395 bound_to 11000

$$$$
