AV-unprocessed.smi:1756|AV-procd|sdf|7074|dock6
  -GOLD-   22720 8293D 1   1.00000     0.00000
 Structure written by MMmdl.
 37 38  0  0  0  0  0  0  0  0  2 V2000
  150.8714  136.9678  156.2853 O   0  0  0  0  0  0  0  0  0  0  0  0
  150.4114  136.6354  155.1932 C   0  0  0  0  0  0  0  0  0  0  0  0
  150.2144  137.4978  154.1858 N   0  0  0  0  0  0  0  0  0  0  0  0
  150.5070  138.9273  154.2224 C   0  0  0  0  0  0  0  0  0  0  0  0
  149.2925  139.7568  154.6779 C   0  0  1  0  0  0  0  0  0  0  0  0
  149.5512  141.2790  154.6805 C   0  0  0  0  0  0  0  0  0  0  0  0
  148.2740  142.0460  155.0406 C   0  0  0  0  0  0  0  0  0  0  0  0
  147.1279  141.6037  154.1261 C   0  0  0  0  0  0  0  0  0  0  0  0
  146.9869  140.0740  154.1516 C   0  0  0  0  0  0  0  0  0  0  0  0
  148.2214  139.4671  153.7818 O   0  0  0  0  0  0  0  0  0  0  0  0
  150.0191  135.3977  154.8420 N   0  0  0  0  0  0  0  0  0  0  0  0
  150.0561  134.2012  155.5787 C   0  0  0  0  0  0  0  0  0  0  0  0
  150.4217  132.9874  155.0800 C   0  0  0  0  0  0  0  0  0  0  0  0
  150.4260  131.7786  155.8943 C   0  0  0  0  0  0  0  0  0  0  0  0
  150.9214  130.4317  155.3976 C   0  0  0  0  0  0  0  0  0  0  0  0
  150.3146  130.0848  154.2621 F   0  0  0  0  0  0  0  0  0  0  0  0
  152.2324  130.4876  155.1677 F   0  0  0  0  0  0  0  0  0  0  0  0
  150.6983  129.4784  156.3023 F   0  0  0  0  0  0  0  0  0  0  0  0
  150.0337  132.0218  157.1963 C   0  0  0  0  0  0  0  0  0  0  0  0
  149.6332  133.1818  157.7612 N   0  5  0  0  0  0  0  0  0  0  0  0
  149.6317  134.3056  156.9902 C   0  0  0  0  0  0  0  0  0  0  0  0
  149.2850  135.3967  157.4443 O   0  0  0  0  0  0  0  0  0  0  0  0
  149.8266  137.1376  153.3263 H   0  0  0  0  0  0  0  0  0  0  0  0
  151.3732  139.1395  154.8514 H   0  0  0  0  0  0  0  0  0  0  0  0
  150.7881  139.2247  153.2118 H   0  0  0  0  0  0  0  0  0  0  0  0
  149.0050  139.4332  155.6799 H   0  0  0  0  0  0  0  0  0  0  0  0
  150.3385  141.5350  155.3895 H   0  0  0  0  0  0  0  0  0  0  0  0
  149.9027  141.5933  153.6970 H   0  0  0  0  0  0  0  0  0  0  0  0
  148.0109  141.8509  156.0811 H   0  0  0  0  0  0  0  0  0  0  0  0
  148.4387  143.1202  154.9542 H   0  0  0  0  0  0  0  0  0  0  0  0
  146.1946  142.0752  154.4346 H   0  0  0  0  0  0  0  0  0  0  0  0
  147.3246  141.9339  153.1054 H   0  0  0  0  0  0  0  0  0  0  0  0
  146.6793  139.7269  155.1391 H   0  0  0  0  0  0  0  0  0  0  0  0
  146.2155  139.7573  153.4494 H   0  0  0  0  0  0  0  0  0  0  0  0
  149.6061  135.3034  153.9256 H   0  0  0  0  0  0  0  0  0  0  0  0
  150.7065  132.8739  154.0475 H   0  0  0  0  0  0  0  0  0  0  0  0
  150.0484  131.1545  157.8904 H   0  0  0  0  0  0  0  0  0  0  0  0
  1  2  2  0  0  0  0
  2  3  1  0  0  0  0
  2 11  1  0  0  0  0
  3  4  1  0  0  0  0
  3 23  1  0  0  0  0
  4  5  1  0  0  0  0
  4 24  1  0  0  0  0
  4 25  1  0  0  0  0
  5 10  1  0  0  0  0
  5  6  1  0  0  0  0
  5 26  1  0  0  0  0
  6  7  1  0  0  0  0
  6 27  1  0  0  0  0
  6 28  1  0  0  0  0
  7  8  1  0  0  0  0
  7 29  1  0  0  0  0
  7 30  1  0  0  0  0
  8  9  1  0  0  0  0
  8 31  1  0  0  0  0
  8 32  1  0  0  0  0
  9 10  1  0  0  0  0
  9 33  1  0  0  0  0
  9 34  1  0  0  0  0
 11 12  1  0  0  0  0
 11 35  1  0  0  0  0
 12 21  1  0  0  0  0
 12 13  2  0  0  0  0
 13 14  1  0  0  0  0
 13 36  1  0  0  0  0
 14 15  1  0  0  0  0
 14 19  2  0  0  0  0
 15 16  1  0  0  0  0
 15 17  1  0  0  0  0
 15 18  1  0  0  0  0
 19 20  1  0  0  0  0
 19 37  1  0  0  0  0
 20 21  1  0  0  0  0
 21 22  2  0  0  0  0
M  CHG  1  20  -1
M  END
> <s_m_source_file>
AV-unprocessed.smi

> <i_m_source_file_index>
1756

> <i_lp_mmshare_version>
43012

> <i_f3d_flags>
0

> <s_epik_input>
Tz1jMVtuSF1bY0hdYyhDKEYpKEYpRilbY0hdYzFbTkhdQyg9TylbTkhdW0NIMl1bQ0BASF0yW0NIMl1bQ0gyXVtDSDJdW0NIMl1PMg==

> <s_epik_cmdline>
J2VwaWtfcHl0aG9uJywgJy1waCcsICc3LjAnLCAnLXRuJywgJzgnLCAnLW1hJywgJzIwMCcsICctbWV0YWxfYmluZGluZycsICctaW1hZScsICc8aW5maWxlLm1hZT4nLCAnLW9tYWUnLCAnPG91dGZpbGUubWFlPic=

> <r_lp_tautomer_probability>
1

> <r_epik_Ionization_Penalty>
3.16985

> <r_epik_Ionization_Penalty_Charging>
0.174782

> <r_epik_Ionization_Penalty_Neutral>
2.99507

> <r_epik_State_Penalty>
2.99125

> <r_epik_Charging_Adjusted_Penalty>
3.16603

> <i_epik_Tot_Q>
-1

> <i_epik_Tot_abs_Q>
1

> <r_epik_Metal_State_Penalty>
0.453096

> <b_epik_Metal_Only>
1

> <s_lp_Force_Field>
OPLS_2005

> <r_lp_Energy>
20.8362

> <b_lp_Chiralities_Consistent>
1

> <s_lp_Variant>
AV-unprocessed.smi:1756-4

> <Gold.Version>
5.8.1

> <Gold.Id.Protein>
6NUR|6NUR_protein|mol2

> <Gold.PLP.Fitness>
39.7404

> <Gold.PLP.PLP>
-31.2238

> <Gold.PLP.part.hbond>
-2.8195

> <Gold.PLP.part.metal>
0.0000

> <Gold.PLP.part.buried>
-1.3981

> <Gold.PLP.part.nonpolar>
-26.8722

> <Gold.PLP.part.repulsive>
1.7417

> <Gold.PLP.ligand.clash>
0.0000

> <Gold.PLP.ligand.torsion>
0.7644

> <Gold.PLP.Chemscore.Hbond>
3.3283

> <Gold.PLP.Chemscore.CHOScore>
0.0000

> <Gold.PLP.Chemscore.Metal>
0.0000

> <Gold.Chemscore.Hbonds>
donor molecule, donor type, donor heavy atom, donor atom, acceptor molecule, acceptor atom, score
      L1  H     3    23       P1  7948  1.00
      L1  H    11    35       P1  7948  0.25
      P1  H  6896  6908       L1    20  2.00

> <Gold.PLP.Chemscore.Internal.Correction>
0.0604

> <Gold.Rescore>
     Score         DG    S(hbond)    S(metal)    S(lipo)     H(rot)  DE(clash)    DE(int)     intcor
      8.96     -14.25       1.70        0.00      55.57       1.32       0.74       4.55       ----

> <Gold.Chemscore.Fitness>
8.9578

> <Gold.Chemscore.DG>
-14.2528

> <Gold.Chemscore.ZeroCoef>
-5.4800

> <Gold.Chemscore.Hbond>
1.6952

> <Gold.Chemscore.Metal>
0.0000

> <Gold.Chemscore.Lipo>
55.5748

> <Gold.Chemscore.Internal_Hbond>
0.0000

> <Gold.Chemscore.DEClash>
0.7450

> <Gold.Chemscore.DEInternal>
4.5500

> <Gold.Chemscore.Rot>
1.3248

> <Gold.Chemscore.Internal.Correction>
   9.000000E+99

> <Gold.Chemscore.Hbonds>
donor molecule, donor type, donor heavy atom, donor atom, acceptor molecule, acceptor atom, score
      L1  H     3    23       P1  7948  0.45
      L1  H    11    35       P1  7948  0.04
      P1  H  6896  6908       L1    20  0.25

> <Gold.Chemscore.Hbond.Weighted>
-5.6621

> <Gold.Chemscore.Metal.Weighted>
-0.0000

> <Gold.Chemscore.Lipo.Weighted>
-6.5023

> <Gold.Chemscore.Internal_Hbond.Weighted>
0.0000

> <Gold.Chemscore.DEClash.Weighted>
0.7450

> <Gold.Chemscore.DEInternal.Weighted>
4.5500

> <Gold.Chemscore.Rot.Weighted>
3.3915

> <Gold.Chemscore.Internal.Correction.Weighted>
   9.000000E+99

> <Gold.Protein.RotatedTorsions>
[ 6907 6896 6895 6894 ] final  118.29 input  -60.11 | X-H torsion
[ 7974 7965 7964 7962 ] final  175.90 input  175.53 | X-H torsion
[ 8008 7997 7996 7995 ] final   50.11 input   59.86 | X-H torsion
[ 10167 10162 10161 10158 ] final   38.60 input  -65.29 | X-H torsion
[ 10718 10713 10712 10709 ] final  153.10 input   66.30 | X-H torsion
[ 10763 10752 10751 10750 ] final -168.74 input  -60.55 | X-H torsion
[ 11005 11000 10999 10996 ] final   -1.30 input  -57.11 | X-H torsion

> <Gold.Protein.ActiveResidues>
 VAL166  LYS551  ARG553  GLY616  TRP617  ASP618  TYR619  PRO620  LYS621  CYS622 
 ASP623  PHE694  ASN695  SER759  ASP760  ASP761  ALA762  ILE779  LEU786  VAL792 
 PHE793  MET794  SER795  GLU796  ALA797  LYS798  CYS799  TRP800  GLU811  SER814 

> <Gold.Protein.RotatedAtoms>
  152.4553  133.7711  159.6798 H   0  0  0  0  0  0  0  0  0  0  0  0  # atno 6907 bound_to 6896
  150.8478  133.7825  159.3043 H   0  0  0  0  0  0  0  0  0  0  0  0  # atno 6908 bound_to 6896
  151.5430  135.1071  159.9983 H   0  0  0  0  0  0  0  0  0  0  0  0  # atno 6909 bound_to 6896
  144.7193  140.0015  143.6440 H   0  0  0  0  0  0  0  0  0  0  0  0  # atno 7974 bound_to 7965
  155.4134  140.3443  155.4265 H   0  0  0  0  0  0  0  0  0  0  0  0  # atno 8008 bound_to 7997
  156.1436  140.1549  156.8914 H   0  0  0  0  0  0  0  0  0  0  0  0  # atno 8009 bound_to 7997
  154.4991  140.0819  156.7741 H   0  0  0  0  0  0  0  0  0  0  0  0  # atno 8010 bound_to 7997
  140.3921  144.1839  150.6131 H   0  0  0  0  0  0  0  0  0  0  0  0  # atno 10167 bound_to 10162
  157.2492  131.0775  151.1741 H   0  0  0  0  0  0  0  0  0  0  0  0  # atno 10718 bound_to 10713
  154.6596  135.2923  154.9883 H   0  0  0  0  0  0  0  0  0  0  0  0  # atno 10763 bound_to 10752
  154.0947  135.6585  153.4862 H   0  0  0  0  0  0  0  0  0  0  0  0  # atno 10764 bound_to 10752
  153.0422  135.5228  154.7541 H   0  0  0  0  0  0  0  0  0  0  0  0  # atno 10765 bound_to 10752
  140.6458  133.9448  155.8352 H   0  0  0  0  0  0  0  0  0  0  0  0  # atno 11005 bound_to 11000
  146.0331  139.3353  143.0743 LP  0  0  0  0  0  0  0  0  0  0  0  0  # atno 17320 bound_to 7965
  145.8428  140.9571  143.0790 LP  0  0  0  0  0  0  0  0  0  0  0  0  # atno 17321 bound_to 7965
  140.4829  143.2373  151.8929 LP  0  0  0  0  0  0  0  0  0  0  0  0  # atno 17342 bound_to 10162
  139.4788  144.5250  151.8748 LP  0  0  0  0  0  0  0  0  0  0  0  0  # atno 17343 bound_to 10162
  157.3296  130.6978  149.6316 LP  0  0  0  0  0  0  0  0  0  0  0  0  # atno 17370 bound_to 10713
  155.9667  130.4311  150.4907 LP  0  0  0  0  0  0  0  0  0  0  0  0  # atno 17371 bound_to 10713
  141.0573  134.0398  157.3705 LP  0  0  0  0  0  0  0  0  0  0  0  0  # atno 17394 bound_to 11000
  139.9063  135.0180  156.7501 LP  0  0  0  0  0  0  0  0  0  0  0  0  # atno 17395 bound_to 11000

$$$$
