AV-unprocessed.smi:2093|AV-procd|sdf|8551|dock1
  -GOLD-   2272011273D 1   1.00000     0.00000
 Structure written by MMmdl.
 30 31  0  0  0  0  0  0  0  0  2 V2000
  152.6807  144.3120  158.6443 C   0  0  0  0  0  0  0  0  0  0  0  0
  151.9431  142.9750  158.8382 C   0  0  1  0  0  0  0  0  0  0  0  0
  152.3837  142.0197  157.8238 N   0  0  0  0  0  0  0  0  0  0  0  0
  151.7964  140.8519  157.5249 C   0  0  0  0  0  0  0  0  0  0  0  0
  150.7809  140.5000  158.1297 O   0  0  0  0  0  0  0  0  0  0  0  0
  152.4219  140.1649  156.5419 N   0  5  0  0  0  0  0  0  0  0  0  0
  151.7117  139.3862  155.7097 C   0  0  0  0  0  0  0  0  0  0  0  0
  150.8323  139.8726  154.8260 N   0  0  0  0  0  0  0  0  0  0  0  0
  150.2121  138.8848  154.0589 C   0  0  0  0  0  0  0  0  0  0  0  0
  150.6368  137.6174  154.3581 C   0  0  0  0  0  0  0  0  0  0  0  0
  151.8336  137.6266  155.6219 S   0  0  0  0  0  0  0  0  0  0  0  0
  152.1872  142.3732  160.2356 C   0  0  1  0  0  0  0  0  0  0  0  0
  153.5381  141.6757  160.4084 C   0  0  0  0  0  0  0  0  0  0  0  0
  153.8193  141.7886  161.8996 C   0  0  0  0  0  0  0  0  0  0  0  0
  152.7968  142.8132  162.3968 C   0  0  0  0  0  0  0  0  0  0  0  0
  152.2604  143.3954  161.2184 O   0  0  0  0  0  0  0  0  0  0  0  0
  152.3445  145.0599  159.3623 H   0  0  0  0  0  0  0  0  0  0  0  0
  152.5043  144.7197  157.6486 H   0  0  0  0  0  0  0  0  0  0  0  0
  153.7574  144.1911  158.7673 H   0  0  0  0  0  0  0  0  0  0  0  0
  150.8712  143.1469  158.7241 H   0  0  0  0  0  0  0  0  0  0  0  0
  153.2163  142.2607  157.3067 H   0  0  0  0  0  0  0  0  0  0  0  0
  149.4806  139.1753  153.3195 H   0  0  0  0  0  0  0  0  0  0  0  0
  150.3221  136.6844  153.9158 H   0  0  0  0  0  0  0  0  0  0  0  0
  151.3801  141.6871  160.5016 H   0  0  0  0  0  0  0  0  0  0  0  0
  153.5238  140.6428  160.0595 H   0  0  0  0  0  0  0  0  0  0  0  0
  154.3113  142.2075  159.8521 H   0  0  0  0  0  0  0  0  0  0  0  0
  153.6880  140.8332  162.4087 H   0  0  0  0  0  0  0  0  0  0  0  0
  154.8418  142.1252  162.0744 H   0  0  0  0  0  0  0  0  0  0  0  0
  151.9957  142.3196  162.9486 H   0  0  0  0  0  0  0  0  0  0  0  0
  153.2402  143.5700  163.0442 H   0  0  0  0  0  0  0  0  0  0  0  0
  1  2  1  0  0  0  0
  1 17  1  0  0  0  0
  1 18  1  0  0  0  0
  1 19  1  0  0  0  0
  2  3  1  0  0  0  0
  2 12  1  0  0  0  0
  2 20  1  0  0  0  0
  3  4  1  0  0  0  0
  3 21  1  0  0  0  0
  4  5  2  0  0  0  0
  4  6  1  0  0  0  0
  6  7  1  0  0  0  0
  7 11  1  0  0  0  0
  7  8  2  0  0  0  0
  8  9  1  0  0  0  0
  9 10  2  0  0  0  0
  9 22  1  0  0  0  0
 10 11  1  0  0  0  0
 10 23  1  0  0  0  0
 12 16  1  0  0  0  0
 12 13  1  0  0  0  0
 12 24  1  0  0  0  0
 13 14  1  0  0  0  0
 13 25  1  0  0  0  0
 13 26  1  0  0  0  0
 14 15  1  0  0  0  0
 14 27  1  0  0  0  0
 14 28  1  0  0  0  0
 15 16  1  0  0  0  0
 15 29  1  0  0  0  0
 15 30  1  0  0  0  0
M  CHG  1   6  -1
M  END
> <s_m_source_file>
AV-unprocessed.smi

> <i_m_source_file_index>
2093

> <i_lp_mmshare_version>
43012

> <i_f3d_flags>
0

> <s_epik_input>
TzFbQ0gyXVtDSDJdW0NIMl1bQ0BIXTFbQ0BIXShbQ0gzXSlbTkhdQyg9TylbTkhdYzJuW2NIXVtjSF1zMg==

> <s_epik_cmdline>
J2VwaWtfcHl0aG9uJywgJy1waCcsICc3LjAnLCAnLXRuJywgJzgnLCAnLW1hJywgJzIwMCcsICctbWV0YWxfYmluZGluZycsICctaW1hZScsICc8aW5maWxlLm1hZT4nLCAnLW9tYWUnLCAnPG91dGZpbGUubWFlPic=

> <r_lp_tautomer_probability>
0.999

> <r_epik_Ionization_Penalty>
8.26346

> <r_epik_Ionization_Penalty_Charging>
6.6559

> <r_epik_Ionization_Penalty_Neutral>
1.60756

> <r_epik_State_Penalty>
6.65607

> <r_epik_Charging_Adjusted_Penalty>
13.312

> <i_epik_Tot_Q>
-1

> <i_epik_Tot_abs_Q>
1

> <r_epik_Metal_State_Penalty>
2.5789

> <b_epik_Metal_Only>
1

> <s_lp_Force_Field>
OPLS_2005

> <r_lp_Energy>
13.9073

> <b_lp_Chiralities_Consistent>
1

> <s_lp_Variant>
AV-unprocessed.smi:2093-8

> <Gold.Version>
5.8.1

> <Gold.Id.Protein>
6NUR|6NUR_protein|mol2

> <Gold.PLP.Fitness>
45.7280

> <Gold.PLP.PLP>
-33.2651

> <Gold.PLP.part.hbond>
-2.0000

> <Gold.PLP.part.metal>
0.0000

> <Gold.PLP.part.buried>
2.0277

> <Gold.PLP.part.nonpolar>
-32.6546

> <Gold.PLP.part.repulsive>
0.2462

> <Gold.PLP.ligand.clash>
0.0000

> <Gold.PLP.ligand.torsion>
1.3434

> <Gold.PLP.Chemscore.Hbond>
3.0000

> <Gold.PLP.Chemscore.CHOScore>
1.9816

> <Gold.PLP.Chemscore.Metal>
0.0000

> <Gold.Chemscore.Hbonds>
donor molecule, donor type, donor heavy atom, donor atom, acceptor molecule, acceptor atom, score
      P1  H  7989  7998       L1     8  1.00
      P1  H  7997  8010       L1     6  2.00
      L1  C     9    22       P1  7957  1.00
      L1  C    10    23       P1  7948  0.77
      L1  C    10    23       P1  7949  0.18

> <Gold.PLP.Chemscore.Internal.Correction>
0.2050

> <Gold.Rescore>
     Score         DG    S(hbond)    S(metal)    S(lipo)     H(rot)  DE(clash)    DE(int)     intcor
     16.39     -18.98       1.83        0.00      91.02       1.28       1.49       1.10       ----

> <Gold.Chemscore.Fitness>
16.3915

> <Gold.Chemscore.DG>
-18.9806

> <Gold.Chemscore.ZeroCoef>
-5.4800

> <Gold.Chemscore.Hbond>
1.8331

> <Gold.Chemscore.Metal>
0.0000

> <Gold.Chemscore.Lipo>
91.0192

> <Gold.Chemscore.Internal_Hbond>
0.0000

> <Gold.Chemscore.DEClash>
1.4904

> <Gold.Chemscore.DEInternal>
1.0988

> <Gold.Chemscore.Rot>
1.2778

> <Gold.Chemscore.Internal.Correction>
   9.000000E+99

> <Gold.Chemscore.Hbonds>
donor molecule, donor type, donor heavy atom, donor atom, acceptor molecule, acceptor atom, score
      P1  H  7989  7998       L1     8  0.22
      P1  H  7997  8010       L1     6  0.91

> <Gold.Chemscore.Hbond.Weighted>
-6.1225

> <Gold.Chemscore.Metal.Weighted>
-0.0000

> <Gold.Chemscore.Lipo.Weighted>
-10.6493

> <Gold.Chemscore.Internal_Hbond.Weighted>
0.0000

> <Gold.Chemscore.DEClash.Weighted>
1.4904

> <Gold.Chemscore.DEInternal.Weighted>
1.0988

> <Gold.Chemscore.Rot.Weighted>
3.2711

> <Gold.Chemscore.Internal.Correction.Weighted>
   9.000000E+99

> <Gold.Protein.RotatedTorsions>
[ 6907 6896 6895 6894 ] final -109.31 input  -60.11 | X-H torsion
[ 7974 7965 7964 7962 ] final  -76.12 input  175.53 | X-H torsion
[ 8008 7997 7996 7995 ] final   64.48 input   59.86 | X-H torsion
[ 10167 10162 10161 10158 ] final  -14.59 input  -65.29 | X-H torsion
[ 10718 10713 10712 10709 ] final  133.85 input   66.30 | X-H torsion
[ 10763 10752 10751 10750 ] final  140.38 input  -60.55 | X-H torsion
[ 11005 11000 10999 10996 ] final   40.73 input  -57.11 | X-H torsion

> <Gold.Protein.ActiveResidues>
 VAL166  LYS551  ARG553  GLY616  TRP617  ASP618  TYR619  PRO620  LYS621  CYS622 
 ASP623  PHE694  ASN695  SER759  ASP760  ASP761  ALA762  ILE779  LEU786  VAL792 
 PHE793  MET794  SER795  GLU796  ALA797  LYS798  CYS799  TRP800  GLU811  SER814 

> <Gold.Protein.RotatedAtoms>
  150.7554  133.9547  159.3496 H   0  0  0  0  0  0  0  0  0  0  0  0  # atno 6907 bound_to 6896
  151.7468  135.0840  160.0334 H   0  0  0  0  0  0  0  0  0  0  0  0  # atno 6908 bound_to 6896
  152.3492  133.6122  159.5968 H   0  0  0  0  0  0  0  0  0  0  0  0  # atno 6909 bound_to 6896
  145.6171  140.9372  143.1158 H   0  0  0  0  0  0  0  0  0  0  0  0  # atno 7974 bound_to 7965
  155.6466  140.3497  155.4733 H   0  0  0  0  0  0  0  0  0  0  0  0  # atno 8008 bound_to 7997
  155.9882  140.1188  157.0686 H   0  0  0  0  0  0  0  0  0  0  0  0  # atno 8009 bound_to 7997
  154.4211  140.1124  156.5515 H   0  0  0  0  0  0  0  0  0  0  0  0  # atno 8010 bound_to 7997
  140.7204  143.5305  150.9525 H   0  0  0  0  0  0  0  0  0  0  0  0  # atno 10167 bound_to 10162
  157.4732  131.1081  150.9776 H   0  0  0  0  0  0  0  0  0  0  0  0  # atno 10718 bound_to 10713
  153.9218  135.3000  155.3447 H   0  0  0  0  0  0  0  0  0  0  0  0  # atno 10763 bound_to 10752
  154.7572  135.4952  153.9399 H   0  0  0  0  0  0  0  0  0  0  0  0  # atno 10764 bound_to 10752
  153.1138  135.6765  153.9557 H   0  0  0  0  0  0  0  0  0  0  0  0  # atno 10765 bound_to 10752
  140.1903  134.3995  155.8150 H   0  0  0  0  0  0  0  0  0  0  0  0  # atno 11005 bound_to 11000
  144.7246  139.7917  143.7369 LP  0  0  0  0  0  0  0  0  0  0  0  0  # atno 17320 bound_to 7965
  146.1460  139.4529  143.0079 LP  0  0  0  0  0  0  0  0  0  0  0  0  # atno 17321 bound_to 7965
  139.9025  143.6818  152.3129 LP  0  0  0  0  0  0  0  0  0  0  0  0  # atno 17342 bound_to 10162
  139.7173  144.7609  151.1013 LP  0  0  0  0  0  0  0  0  0  0  0  0  # atno 17343 bound_to 10162
  157.0534  130.5796  149.5374 LP  0  0  0  0  0  0  0  0  0  0  0  0  # atno 17370 bound_to 10713
  156.0084  130.5173  150.7906 LP  0  0  0  0  0  0  0  0  0  0  0  0  # atno 17371 bound_to 10713
  141.2226  133.7043  156.8083 LP  0  0  0  0  0  0  0  0  0  0  0  0  # atno 17394 bound_to 11000
  140.2167  134.8787  157.3334 LP  0  0  0  0  0  0  0  0  0  0  0  0  # atno 17395 bound_to 11000

$$$$
