AV-unprocessed.smi:505|AV-procd|sdf|2748|dock3
  -GOLD-   2262023213D 1   1.00000     0.00000
 Structure written by MMmdl.
 37 38  0  0  0  0  0  0  0  0  1 V2000
  145.9617  143.1729  154.1556 C   0  0  0  0  0  0  0  0  0  0  0  0
  146.2151  141.7804  154.1077 O   0  0  0  0  0  0  0  0  0  0  0  0
  147.1998  141.3727  155.0437 C   0  0  0  0  0  0  0  0  0  0  0  0
  148.5137  142.1166  154.7673 C   0  0  0  0  0  0  0  0  0  0  0  0
  149.6768  141.3740  155.2429 N   0  0  0  0  0  0  0  0  0  0  0  0
  150.6743  141.8128  156.0503 C   0  0  0  0  0  0  0  0  0  0  0  0
  150.6793  143.1212  156.5140 N   0  0  0  0  0  0  0  0  0  0  0  0
  151.6012  143.8415  157.3709 C   0  0  0  0  0  0  0  0  0  0  0  0
  151.0594  143.9784  158.7994 C   0  0  0  0  0  0  0  0  0  0  0  0
  149.9992  144.9104  158.8271 O   0  0  0  0  0  0  0  0  0  0  0  0
  151.6143  140.9065  156.3304 N   0  0  0  0  0  0  0  0  0  0  0  0
  151.1819  139.7908  155.6263 C   0  0  0  0  0  0  0  0  0  0  0  0
  150.0272  140.0546  154.9620 C   0  0  0  0  0  0  0  0  0  0  0  0
  149.3545  139.0594  154.1188 C   0  0  0  0  0  0  0  0  0  0  0  0
  148.3141  139.2853  153.5042 O   0  0  0  0  0  0  0  0  0  0  0  0
  150.0024  137.8696  154.0837 N   0  0  0  0  0  0  0  0  0  0  0  0
  151.1626  137.5355  154.7279 C   0  0  0  0  0  0  0  0  0  0  0  0
  151.6361  136.4071  154.5953 O   0  0  0  0  0  0  0  0  0  0  0  0
  151.7582  138.4937  155.5085 N   0  0  0  0  0  0  0  0  0  0  0  0
  152.9991  138.1886  156.2233 C   0  0  0  0  0  0  0  0  0  0  0  0
  149.5831  137.1484  153.5152 H   0  0  0  0  0  0  0  0  0  0  0  0
  145.1984  143.4311  153.4215 H   0  0  0  0  0  0  0  0  0  0  0  0
  146.8605  143.7451  153.9227 H   0  0  0  0  0  0  0  0  0  0  0  0
  145.5989  143.4741  155.1392 H   0  0  0  0  0  0  0  0  0  0  0  0
  146.8614  141.5881  156.0581 H   0  0  0  0  0  0  0  0  0  0  0  0
  147.3579  140.2953  154.9746 H   0  0  0  0  0  0  0  0  0  0  0  0
  148.6180  142.3063  153.6987 H   0  0  0  0  0  0  0  0  0  0  0  0
  148.5018  143.0987  155.2389 H   0  0  0  0  0  0  0  0  0  0  0  0
  149.9370  143.6988  156.1466 H   0  0  0  0  0  0  0  0  0  0  0  0
  152.5339  143.2775  157.3909 H   0  0  0  0  0  0  0  0  0  0  0  0
  151.8312  144.8173  156.9412 H   0  0  0  0  0  0  0  0  0  0  0  0
  150.7360  143.0183  159.2033 H   0  0  0  0  0  0  0  0  0  0  0  0
  151.8457  144.3543  159.4543 H   0  0  0  0  0  0  0  0  0  0  0  0
  149.6648  145.0122  157.9491 H   0  0  0  0  0  0  0  0  0  0  0  0
  152.8724  137.3097  156.8572 H   0  0  0  0  0  0  0  0  0  0  0  0
  153.3230  139.0061  156.8674 H   0  0  0  0  0  0  0  0  0  0  0  0
  153.8058  137.9876  155.5171 H   0  0  0  0  0  0  0  0  0  0  0  0
  1  2  1  0  0  0  0
  1 22  1  0  0  0  0
  1 23  1  0  0  0  0
  1 24  1  0  0  0  0
  2  3  1  0  0  0  0
  3  4  1  0  0  0  0
  3 25  1  0  0  0  0
  3 26  1  0  0  0  0
  4  5  1  0  0  0  0
  4 27  1  0  0  0  0
  4 28  1  0  0  0  0
  5 13  1  0  0  0  0
  5  6  1  0  0  0  0
  6  7  1  0  0  0  0
  6 11  2  0  0  0  0
  7  8  1  0  0  0  0
  7 29  1  0  0  0  0
  8  9  1  0  0  0  0
  8 30  1  0  0  0  0
  8 31  1  0  0  0  0
  9 10  1  0  0  0  0
  9 32  1  0  0  0  0
  9 33  1  0  0  0  0
 10 34  1  0  0  0  0
 11 12  1  0  0  0  0
 12 19  1  0  0  0  0
 12 13  2  0  0  0  0
 13 14  1  0  0  0  0
 14 15  2  0  0  0  0
 14 16  1  0  0  0  0
 16 21  1  0  0  0  0
 16 17  1  0  0  0  0
 17 18  2  0  0  0  0
 17 19  1  0  0  0  0
 19 20  1  0  0  0  0
 20 35  1  0  0  0  0
 20 36  1  0  0  0  0
 20 37  1  0  0  0  0
M  END
> <s_m_source_file>
AV-unprocessed.smi

> <i_m_source_file_index>
505

> <i_lp_mmshare_version>
43012

> <i_f3d_flags>
0

> <s_epik_input>
W09IXVtDSDJdW0NIMl1bTkhdYyhuMSluKFtDSDJdW0NIMl1PW0NIM10pYyhjMTIpYyg9TylbbkhdYyg9TyluMltDSDNd

> <s_epik_cmdline>
J2VwaWtfcHl0aG9uJywgJy1waCcsICc3LjAnLCAnLXRuJywgJzgnLCAnLW1hJywgJzIwMCcsICctbWV0YWxfYmluZGluZycsICctaW1hZScsICc8aW5maWxlLm1hZT4nLCAnLW9tYWUnLCAnPG91dGZpbGUubWFlPic=

> <r_lp_tautomer_probability>
1

> <r_epik_Ionization_Penalty>
7.89905e-05

> <r_epik_Ionization_Penalty_Charging>
2.6983e-05

> <r_epik_Ionization_Penalty_Neutral>
5.20075e-05

> <r_epik_State_Penalty>
-0

> <r_epik_Charging_Adjusted_Penalty>
2.6983e-05

> <i_epik_Tot_Q>
0

> <i_epik_Tot_abs_Q>
0

> <r_epik_Metal_State_Penalty>
0.02526

> <b_epik_Metal_Only>
0

> <s_lp_Force_Field>
OPLS_2005

> <r_lp_Energy>
22.7063

> <b_lp_Chiralities_Consistent>
1

> <s_lp_Variant>
AV-unprocessed.smi:505-1

> <Gold.Version>
5.8.1

> <Gold.Id.Protein>
6NUR|6NUR_protein|mol2

> <Gold.PLP.Fitness>
45.2199

> <Gold.PLP.PLP>
-35.7289

> <Gold.PLP.part.hbond>
-4.0703

> <Gold.PLP.part.metal>
0.0000

> <Gold.PLP.part.buried>
-2.8432

> <Gold.PLP.part.nonpolar>
-31.3142

> <Gold.PLP.part.repulsive>
2.5360

> <Gold.PLP.ligand.clash>
0.0000

> <Gold.PLP.ligand.torsion>
0.3557

> <Gold.PLP.Chemscore.Hbond>
3.3927

> <Gold.PLP.Chemscore.CHOScore>
0.0000

> <Gold.PLP.Chemscore.Metal>
0.0000

> <Gold.Chemscore.Hbonds>
donor molecule, donor type, donor heavy atom, donor atom, acceptor molecule, acceptor atom, score
      L1  H     7    29       P1  8028  1.00
      L1  H    10    34       P1  8029  0.39
      L1  H    16    21       P1  7948  1.00
      P1  H 10752 10763       L1    18  1.00

> <Gold.PLP.Chemscore.Internal.Correction>
0.0241

> <Gold.Rescore>
     Score         DG    S(hbond)    S(metal)    S(lipo)     H(rot)  DE(clash)    DE(int)     intcor
     10.65     -12.73       2.86        0.00      47.41       3.06       0.45       1.63       ----

> <Gold.Chemscore.Fitness>
10.6527

> <Gold.Chemscore.DG>
-12.7326

> <Gold.Chemscore.ZeroCoef>
-5.4800

> <Gold.Chemscore.Hbond>
2.8575

> <Gold.Chemscore.Metal>
0.0000

> <Gold.Chemscore.Lipo>
47.4142

> <Gold.Chemscore.Internal_Hbond>
0.0000

> <Gold.Chemscore.DEClash>
0.4474

> <Gold.Chemscore.DEInternal>
1.6325

> <Gold.Chemscore.Rot>
3.0621

> <Gold.Chemscore.Internal.Correction>
   9.000000E+99

> <Gold.Chemscore.Hbonds>
donor molecule, donor type, donor heavy atom, donor atom, acceptor molecule, acceptor atom, score
      L1  H     7    29       P1  8028  0.93
      L1  H    10    34       P1  8029  0.05
      L1  H    16    21       P1  7948  0.80
      P1  H 10752 10763       L1    18  0.94

> <Gold.Chemscore.Hbond.Weighted>
-9.5442

> <Gold.Chemscore.Metal.Weighted>
-0.0000

> <Gold.Chemscore.Lipo.Weighted>
-5.5475

> <Gold.Chemscore.Internal_Hbond.Weighted>
0.0000

> <Gold.Chemscore.DEClash.Weighted>
0.4474

> <Gold.Chemscore.DEInternal.Weighted>
1.6325

> <Gold.Chemscore.Rot.Weighted>
7.8390

> <Gold.Chemscore.Internal.Correction.Weighted>
   9.000000E+99

> <Gold.Protein.RotatedTorsions>
[ 6907 6896 6895 6894 ] final   -3.00 input  -60.11 | X-H torsion
[ 7974 7965 7964 7962 ] final   80.59 input  175.53 | X-H torsion
[ 8008 7997 7996 7995 ] final   84.99 input   59.86 | X-H torsion
[ 10167 10162 10161 10158 ] final   75.47 input  -65.29 | X-H torsion
[ 10718 10713 10712 10709 ] final   86.85 input   66.30 | X-H torsion
[ 10763 10752 10751 10750 ] final   33.99 input  -60.55 | X-H torsion
[ 11005 11000 10999 10996 ] final  140.58 input  -57.11 | X-H torsion

> <Gold.Protein.ActiveResidues>
 VAL166  LYS551  ARG553  GLY616  TRP617  ASP618  TYR619  PRO620  LYS621  CYS622 
 ASP623  PHE694  ASN695  SER759  ASP760  ASP761  ALA762  ILE779  LEU786  VAL792 
 PHE793  MET794  SER795  GLU796  ALA797  LYS798  CYS799  TRP800  GLU811  SER814 

> <Gold.Protein.RotatedAtoms>
  151.5207  135.1067  159.9877 H   0  0  0  0  0  0  0  0  0  0  0  0  # atno 6907 bound_to 6896
  152.4621  133.7841  159.6877 H   0  0  0  0  0  0  0  0  0  0  0  0  # atno 6908 bound_to 6896
  150.8588  133.7610  159.3024 H   0  0  0  0  0  0  0  0  0  0  0  0  # atno 6909 bound_to 6896
  145.6492  139.2443  143.1986 H   0  0  0  0  0  0  0  0  0  0  0  0  # atno 7974 bound_to 7965
  155.9442  140.3406  155.6353 H   0  0  0  0  0  0  0  0  0  0  0  0  # atno 8008 bound_to 7997
  155.7002  140.0759  157.2432 H   0  0  0  0  0  0  0  0  0  0  0  0  # atno 8009 bound_to 7997
  154.4108  140.1641  156.2170 H   0  0  0  0  0  0  0  0  0  0  0  0  # atno 8010 bound_to 7997
  140.0026  144.5674  150.7724 H   0  0  0  0  0  0  0  0  0  0  0  0  # atno 10167 bound_to 10162
  157.6933  131.0232  150.3034 H   0  0  0  0  0  0  0  0  0  0  0  0  # atno 10718 bound_to 10713
  153.0185  135.6372  154.1598 H   0  0  0  0  0  0  0  0  0  0  0  0  # atno 10763 bound_to 10752
  154.1334  135.2839  155.3181 H   0  0  0  0  0  0  0  0  0  0  0  0  # atno 10764 bound_to 10752
  154.6177  135.5535  153.7603 H   0  0  0  0  0  0  0  0  0  0  0  0  # atno 10765 bound_to 10752
  140.0338  134.9339  157.0713 H   0  0  0  0  0  0  0  0  0  0  0  0  # atno 11005 bound_to 11000
  146.1217  140.7300  142.9454 LP  0  0  0  0  0  0  0  0  0  0  0  0  # atno 17320 bound_to 7965
  144.7129  140.4103  143.7067 LP  0  0  0  0  0  0  0  0  0  0  0  0  # atno 17321 bound_to 7965
  140.7413  143.2816  151.3583 LP  0  0  0  0  0  0  0  0  0  0  0  0  # atno 17342 bound_to 10162
  139.6261  144.0812  152.2435 LP  0  0  0  0  0  0  0  0  0  0  0  0  # atno 17343 bound_to 10162
  156.3546  130.3837  149.7300 LP  0  0  0  0  0  0  0  0  0  0  0  0  # atno 17370 bound_to 10713
  156.4767  130.8022  151.3038 LP  0  0  0  0  0  0  0  0  0  0  0  0  # atno 17371 bound_to 10713
  140.4182  134.1909  155.7164 LP  0  0  0  0  0  0  0  0  0  0  0  0  # atno 17394 bound_to 11000
  141.1846  133.8341  157.1135 LP  0  0  0  0  0  0  0  0  0  0  0  0  # atno 17395 bound_to 11000

$$$$
