AV-unprocessed.smi:556|AV-procd|sdf|2913|dock5
  -GOLD-   2262023403D 1   1.00000     0.00000
 Structure written by MMmdl.
 38 39  0  0  0  0  0  0  0  0  1 V2000
  144.5259  135.0954  150.8632 C   0  0  0  0  0  0  0  0  0  0  0  0
  144.6659  133.6656  151.4133 C   0  0  1  0  0  0  0  0  0  0  0  0
  143.8433  132.6251  150.6245 C   0  0  0  0  0  0  0  0  0  0  0  0
  144.4429  132.3372  149.3709 O   0  0  0  0  0  0  0  0  0  0  0  0
  145.7432  131.7926  149.5280 C   0  0  0  0  0  0  0  0  0  0  0  0
  146.6482  132.8341  150.2000 C   0  0  0  0  0  0  0  0  0  0  0  0
  146.0899  133.2648  151.4931 N   0  0  0  0  0  0  0  0  0  0  0  0
  146.8699  133.3266  152.6051 C   0  0  0  0  0  0  0  0  0  0  0  0
  146.5944  134.0166  153.5880 O   0  0  0  0  0  0  0  0  0  0  0  0
  147.9682  132.5515  152.5722 N   0  0  0  0  0  0  0  0  0  0  0  0
  148.9491  132.4315  153.6442 C   0  0  0  0  0  0  0  0  0  0  0  0
  148.9980  131.0039  154.2125 C   0  0  0  0  0  0  0  0  0  0  0  0
  150.3718  130.6612  154.7162 C   0  0  0  0  0  0  0  0  0  0  0  0
  151.1744  131.3942  155.6363 C   0  0  0  0  0  0  0  0  0  0  0  0
  152.3452  130.8227  155.8669 N   0  0  0  0  0  0  0  0  0  0  0  0
  152.3299  129.7078  155.1077 N   0  0  0  0  0  0  0  0  0  0  0  0
  153.4776  128.8260  155.1110 C   0  0  0  0  0  0  0  0  0  0  0  0
  151.1519  129.5838  154.4032 C   0  0  0  0  0  0  0  0  0  0  0  0
  143.4841  135.4163  150.8726 H   0  0  0  0  0  0  0  0  0  0  0  0
  144.8815  135.1685  149.8353 H   0  0  0  0  0  0  0  0  0  0  0  0
  145.0935  135.8060  151.4646 H   0  0  0  0  0  0  0  0  0  0  0  0
  144.2072  133.6738  152.4021 H   0  0  0  0  0  0  0  0  0  0  0  0
  143.7493  131.7025  151.2001 H   0  0  0  0  0  0  0  0  0  0  0  0
  142.8293  132.9886  150.4575 H   0  0  0  0  0  0  0  0  0  0  0  0
  145.7046  130.8700  150.1099 H   0  0  0  0  0  0  0  0  0  0  0  0
  146.1367  131.5332  148.5451 H   0  0  0  0  0  0  0  0  0  0  0  0
  147.6488  132.4090  150.2889 H   0  0  0  0  0  0  0  0  0  0  0  0
  146.7521  133.7065  149.5544 H   0  0  0  0  0  0  0  0  0  0  0  0
  148.1318  132.0005  151.7421 H   0  0  0  0  0  0  0  0  0  0  0  0
  149.9336  132.7365  153.2852 H   0  0  0  0  0  0  0  0  0  0  0  0
  148.6740  133.1345  154.4311 H   0  0  0  0  0  0  0  0  0  0  0  0
  148.2633  130.9099  155.0131 H   0  0  0  0  0  0  0  0  0  0  0  0
  148.6905  130.2934  153.4443 H   0  0  0  0  0  0  0  0  0  0  0  0
  150.9426  132.3218  156.1385 H   0  0  0  0  0  0  0  0  0  0  0  0
  153.2284  127.8865  154.6170 H   0  0  0  0  0  0  0  0  0  0  0  0
  153.7827  128.6155  156.1366 H   0  0  0  0  0  0  0  0  0  0  0  0
  154.3049  129.2980  154.5800 H   0  0  0  0  0  0  0  0  0  0  0  0
  150.9676  128.7503  153.7413 H   0  0  0  0  0  0  0  0  0  0  0  0
  1  2  1  0  0  0  0
  1 19  1  0  0  0  0
  1 20  1  0  0  0  0
  1 21  1  0  0  0  0
  2  7  1  0  0  0  0
  2  3  1  0  0  0  0
  2 22  1  0  0  0  0
  3  4  1  0  0  0  0
  3 23  1  0  0  0  0
  3 24  1  0  0  0  0
  4  5  1  0  0  0  0
  5  6  1  0  0  0  0
  5 25  1  0  0  0  0
  5 26  1  0  0  0  0
  6  7  1  0  0  0  0
  6 27  1  0  0  0  0
  6 28  1  0  0  0  0
  7  8  1  0  0  0  0
  8  9  2  0  0  0  0
  8 10  1  0  0  0  0
 10 11  1  0  0  0  0
 10 29  1  0  0  0  0
 11 12  1  0  0  0  0
 11 30  1  0  0  0  0
 11 31  1  0  0  0  0
 12 13  1  0  0  0  0
 12 32  1  0  0  0  0
 12 33  1  0  0  0  0
 13 18  2  0  0  0  0
 13 14  1  0  0  0  0
 14 15  2  0  0  0  0
 14 34  1  0  0  0  0
 15 16  1  0  0  0  0
 16 17  1  0  0  0  0
 16 18  1  0  0  0  0
 17 35  1  0  0  0  0
 17 36  1  0  0  0  0
 17 37  1  0  0  0  0
 18 38  1  0  0  0  0
M  END
> <s_m_source_file>
AV-unprocessed.smi

> <i_m_source_file_index>
556

> <i_lp_mmshare_version>
43012

> <i_f3d_flags>
0

> <s_epik_input>
W0NIM11bQ0BASF0xW0NIMl1PW0NIMl1bQ0gyXU4xQyg9TylbTkhdW0NIMl1bQ0gyXWMyW2NIXW5uKFtDSDNdKVtjSF0y

> <s_epik_cmdline>
J2VwaWtfcHl0aG9uJywgJy1waCcsICc3LjAnLCAnLXRuJywgJzgnLCAnLW1hJywgJzIwMCcsICctbWV0YWxfYmluZGluZycsICctaW1hZScsICc8aW5maWxlLm1hZT4nLCAnLW9tYWUnLCAnPG91dGZpbGUubWFlPic=

> <r_lp_tautomer_probability>
1

> <r_epik_Ionization_Penalty>
0.000536334

> <r_epik_Ionization_Penalty_Charging>
0

> <r_epik_Ionization_Penalty_Neutral>
0.000536334

> <r_epik_State_Penalty>
-0

> <r_epik_Charging_Adjusted_Penalty>
0

> <i_epik_Tot_Q>
0

> <i_epik_Tot_abs_Q>
0

> <r_epik_Metal_State_Penalty>
-0

> <b_epik_Metal_Only>
0

> <s_lp_Force_Field>
OPLS_2005

> <r_lp_Energy>
28.9332

> <b_lp_Chiralities_Consistent>
1

> <s_lp_Variant>
AV-unprocessed.smi:556-2

> <Gold.Version>
5.8.1

> <Gold.Id.Protein>
6NUR|6NUR_protein|mol2

> <Gold.PLP.Fitness>
40.9270

> <Gold.PLP.PLP>
-36.5512

> <Gold.PLP.part.hbond>
-1.0000

> <Gold.PLP.part.metal>
0.0000

> <Gold.PLP.part.buried>
-4.5488

> <Gold.PLP.part.nonpolar>
-30.9626

> <Gold.PLP.part.repulsive>
0.2787

> <Gold.PLP.ligand.clash>
0.7465

> <Gold.PLP.ligand.torsion>
0.4360

> <Gold.PLP.Chemscore.Hbond>
0.9913

> <Gold.PLP.Chemscore.CHOScore>
1.0000

> <Gold.PLP.Chemscore.Metal>
0.0000

> <Gold.Chemscore.Hbonds>
donor molecule, donor type, donor heavy atom, donor atom, acceptor molecule, acceptor atom, score
      L1  H    10    29       P1 10747  0.99
      L1  C    18    38       P1 10737  1.00

> <Gold.PLP.Chemscore.Internal.Correction>
0.0205

> <Gold.Rescore>
     Score         DG    S(hbond)    S(metal)    S(lipo)     H(rot)  DE(clash)    DE(int)     intcor
     13.54     -14.15       0.98        0.00      76.69       1.40       0.20       0.40       ----

> <Gold.Chemscore.Fitness>
13.5442

> <Gold.Chemscore.DG>
-14.1503

> <Gold.Chemscore.ZeroCoef>
-5.4800

> <Gold.Chemscore.Hbond>
0.9826

> <Gold.Chemscore.Metal>
0.0000

> <Gold.Chemscore.Lipo>
76.6901

> <Gold.Chemscore.Internal_Hbond>
0.0000

> <Gold.Chemscore.DEClash>
0.2039

> <Gold.Chemscore.DEInternal>
0.4023

> <Gold.Chemscore.Rot>
1.4001

> <Gold.Chemscore.Internal.Correction>
   9.000000E+99

> <Gold.Chemscore.Hbonds>
donor molecule, donor type, donor heavy atom, donor atom, acceptor molecule, acceptor atom, score
      L1  H    10    29       P1 10747  0.92

> <Gold.Chemscore.Hbond.Weighted>
-3.2818

> <Gold.Chemscore.Metal.Weighted>
-0.0000

> <Gold.Chemscore.Lipo.Weighted>
-8.9727

> <Gold.Chemscore.Internal_Hbond.Weighted>
0.0000

> <Gold.Chemscore.DEClash.Weighted>
0.2039

> <Gold.Chemscore.DEInternal.Weighted>
0.4023

> <Gold.Chemscore.Rot.Weighted>
3.5842

> <Gold.Chemscore.Internal.Correction.Weighted>
   9.000000E+99

> <Gold.Protein.RotatedTorsions>
[ 6907 6896 6895 6894 ] final    3.30 input  -60.11 | X-H torsion
[ 7974 7965 7964 7962 ] final  -88.43 input  175.53 | X-H torsion
[ 8008 7997 7996 7995 ] final  -89.00 input   59.86 | X-H torsion
[ 10167 10162 10161 10158 ] final   55.38 input  -65.29 | X-H torsion
[ 10718 10713 10712 10709 ] final  -23.90 input   66.30 | X-H torsion
[ 10763 10752 10751 10750 ] final  -33.56 input  -60.55 | X-H torsion
[ 11005 11000 10999 10996 ] final  177.47 input  -57.11 | X-H torsion

> <Gold.Protein.ActiveResidues>
 VAL166  LYS551  ARG553  GLY616  TRP617  ASP618  TYR619  PRO620  LYS621  CYS622 
 ASP623  PHE694  ASN695  SER759  ASP760  ASP761  ALA762  ILE779  LEU786  VAL792 
 PHE793  MET794  SER795  GLU796  ALA797  LYS798  CYS799  TRP800  GLU811  SER814 

> <Gold.Protein.RotatedAtoms>
  151.6229  135.1030  160.0105 H   0  0  0  0  0  0  0  0  0  0  0  0  # atno 6907 bound_to 6896
  152.4148  133.7016  159.6438 H   0  0  0  0  0  0  0  0  0  0  0  0  # atno 6908 bound_to 6896
  150.8037  133.8477  159.3237 H   0  0  0  0  0  0  0  0  0  0  0  0  # atno 6909 bound_to 6896
  145.4532  140.9561  143.2010 H   0  0  0  0  0  0  0  0  0  0  0  0  # atno 7974 bound_to 7965
  154.6814  140.0547  157.0269 H   0  0  0  0  0  0  0  0  0  0  0  0  # atno 8008 bound_to 7997
  155.0947  140.3223  155.4545 H   0  0  0  0  0  0  0  0  0  0  0  0  # atno 8009 bound_to 7997
  156.2695  140.2042  156.6073 H   0  0  0  0  0  0  0  0  0  0  0  0  # atno 8010 bound_to 7997
  140.2201  144.3798  150.6454 H   0  0  0  0  0  0  0  0  0  0  0  0  # atno 10167 bound_to 10162
  156.4848  130.4553  149.6790 H   0  0  0  0  0  0  0  0  0  0  0  0  # atno 10718 bound_to 10713
  153.8323  135.6865  153.4813 H   0  0  0  0  0  0  0  0  0  0  0  0  # atno 10763 bound_to 10752
  153.1504  135.4620  154.9626 H   0  0  0  0  0  0  0  0  0  0  0  0  # atno 10764 bound_to 10752
  154.7881  135.3292  154.7784 H   0  0  0  0  0  0  0  0  0  0  0  0  # atno 10765 bound_to 10752
  140.3844  134.6918  157.4470 H   0  0  0  0  0  0  0  0  0  0  0  0  # atno 11005 bound_to 11000
  144.8048  139.6072  143.7055 LP  0  0  0  0  0  0  0  0  0  0  0  0  # atno 17320 bound_to 7965
  146.2492  139.6164  142.9438 LP  0  0  0  0  0  0  0  0  0  0  0  0  # atno 17321 bound_to 7965
  140.6261  143.2181  151.6593 LP  0  0  0  0  0  0  0  0  0  0  0  0  # atno 17342 bound_to 10162
  139.5147  144.3401  152.0748 LP  0  0  0  0  0  0  0  0  0  0  0  0  # atno 17343 bound_to 10162
  156.3485  130.7419  151.2375 LP  0  0  0  0  0  0  0  0  0  0  0  0  # atno 17370 bound_to 10713
  157.7480  131.0384  150.4499 LP  0  0  0  0  0  0  0  0  0  0  0  0  # atno 17371 bound_to 10713
  140.0454  134.6207  155.8928 LP  0  0  0  0  0  0  0  0  0  0  0  0  # atno 17394 bound_to 11000
  141.1912  133.6571  156.5447 LP  0  0  0  0  0  0  0  0  0  0  0  0  # atno 17395 bound_to 11000

$$$$
