AV-unprocessed.smi:977|AV-procd|sdf|4306|dock9
  -GOLD-   22720 2213D 1   1.00000     0.00000
 Structure written by MMmdl.
 37 38  0  0  0  0  0  0  0  0  1 V2000
  147.4734  141.4978  154.1440 C   0  0  0  0  0  0  0  0  0  0  0  0
  148.7507  140.7418  154.3845 C   0  0  0  0  0  0  0  0  0  0  0  0
  149.7785  141.3703  154.9362 N   0  0  0  0  0  0  0  0  0  0  0  0
  150.8399  140.4527  154.9730 O   0  0  0  0  0  0  0  0  0  0  0  0
  150.4229  139.2760  154.4366 C   0  0  0  0  0  0  0  0  0  0  0  0
  151.4207  138.1696  154.3692 C   0  0  0  0  0  0  0  0  0  0  0  0
  149.1124  139.3967  154.0802 C   0  0  0  0  0  0  0  0  0  0  0  0
  148.3439  138.3786  153.4629 N   0  0  0  0  0  0  0  0  0  0  0  0
  147.0367  138.1415  153.6483 C   0  0  0  0  0  0  0  0  0  0  0  0
  146.3204  138.7482  154.4445 O   0  0  0  0  0  0  0  0  0  0  0  0
  146.6047  137.1394  152.8691 N   0  0  0  0  0  0  0  0  0  0  0  0
  145.2339  136.6346  152.8208 C   0  0  2  0  0  0  0  0  0  0  0  0
  144.9132  135.9669  154.1672 C   0  0  0  0  0  0  0  0  0  0  0  0
  145.0627  135.6653  151.6302 C   0  0  1  0  0  0  0  0  0  0  0  0
  146.0493  134.4928  151.6232 C   0  0  0  0  0  0  0  0  0  0  0  0
  145.2662  133.4188  150.9043 C   0  0  0  0  0  0  0  0  0  0  0  0
  143.8667  133.6530  151.4564 C   0  0  0  0  0  0  0  0  0  0  0  0
  143.7685  135.0598  151.6460 O   0  0  0  0  0  0  0  0  0  0  0  0
  146.9720  141.1485  153.2412 H   0  0  0  0  0  0  0  0  0  0  0  0
  147.6587  142.5651  154.0191 H   0  0  0  0  0  0  0  0  0  0  0  0
  146.7838  141.3777  154.9794 H   0  0  0  0  0  0  0  0  0  0  0  0
  151.0437  137.3358  153.7769 H   0  0  0  0  0  0  0  0  0  0  0  0
  151.6507  137.7982  155.3676 H   0  0  0  0  0  0  0  0  0  0  0  0
  152.3493  138.5137  153.9134 H   0  0  0  0  0  0  0  0  0  0  0  0
  148.8512  137.7250  152.8846 H   0  0  0  0  0  0  0  0  0  0  0  0
  147.2702  136.6998  152.2505 H   0  0  0  0  0  0  0  0  0  0  0  0
  144.5451  137.4720  152.6946 H   0  0  0  0  0  0  0  0  0  0  0  0
  143.8785  135.6264  154.2069 H   0  0  0  0  0  0  0  0  0  0  0  0
  145.0562  136.6634  154.9940 H   0  0  0  0  0  0  0  0  0  0  0  0
  145.5548  135.1030  154.3446 H   0  0  0  0  0  0  0  0  0  0  0  0
  145.1518  136.2088  150.6881 H   0  0  0  0  0  0  0  0  0  0  0  0
  146.9923  134.7334  151.1316 H   0  0  0  0  0  0  0  0  0  0  0  0
  146.2688  134.1669  152.6410 H   0  0  0  0  0  0  0  0  0  0  0  0
  145.2841  133.5945  149.8279 H   0  0  0  0  0  0  0  0  0  0  0  0
  145.6381  132.4123  151.0971 H   0  0  0  0  0  0  0  0  0  0  0  0
  143.0844  133.2819  150.7940 H   0  0  0  0  0  0  0  0  0  0  0  0
  143.7532  133.1642  152.4247 H   0  0  0  0  0  0  0  0  0  0  0  0
  1  2  1  0  0  0  0
  1 19  1  0  0  0  0
  1 20  1  0  0  0  0
  1 21  1  0  0  0  0
  2  7  1  0  0  0  0
  2  3  2  0  0  0  0
  3  4  1  0  0  0  0
  4  5  1  0  0  0  0
  5  6  1  0  0  0  0
  5  7  2  0  0  0  0
  6 22  1  0  0  0  0
  6 23  1  0  0  0  0
  6 24  1  0  0  0  0
  7  8  1  0  0  0  0
  8  9  1  0  0  0  0
  8 25  1  0  0  0  0
  9 10  2  0  0  0  0
  9 11  1  0  0  0  0
 11 12  1  0  0  0  0
 11 26  1  0  0  0  0
 12 13  1  0  0  0  0
 12 14  1  0  0  0  0
 12 27  1  0  0  0  0
 13 28  1  0  0  0  0
 13 29  1  0  0  0  0
 13 30  1  0  0  0  0
 14 18  1  0  0  0  0
 14 15  1  0  0  0  0
 14 31  1  0  0  0  0
 15 16  1  0  0  0  0
 15 32  1  0  0  0  0
 15 33  1  0  0  0  0
 16 17  1  0  0  0  0
 16 34  1  0  0  0  0
 16 35  1  0  0  0  0
 17 18  1  0  0  0  0
 17 36  1  0  0  0  0
 17 37  1  0  0  0  0
M  END
> <s_m_source_file>
AV-unprocessed.smi

> <i_m_source_file_index>
977

> <i_lp_mmshare_version>
43012

> <i_f3d_flags>
0

> <s_epik_input>
W0NIM11jMW5vYyhbQ0gzXSljMVtOSF1DKD1PKVtOSF1bQ0BIXShbQ0gzXSlbQ0BASF0yW0NIMl1bQ0gyXVtDSDJdTzI=

> <s_epik_cmdline>
J2VwaWtfcHl0aG9uJywgJy1waCcsICc3LjAnLCAnLXRuJywgJzgnLCAnLW1hJywgJzIwMCcsICctbWV0YWxfYmluZGluZycsICctaW1hZScsICc8aW5maWxlLm1hZT4nLCAnLW9tYWUnLCAnPG91dGZpbGUubWFlPic=

> <r_lp_tautomer_probability>
1

> <r_epik_Ionization_Penalty>
3.41601e-05

> <r_epik_Ionization_Penalty_Charging>
0

> <r_epik_Ionization_Penalty_Neutral>
3.41601e-05

> <r_epik_State_Penalty>
-0

> <r_epik_Charging_Adjusted_Penalty>
0

> <i_epik_Tot_Q>
0

> <i_epik_Tot_abs_Q>
0

> <r_epik_Metal_State_Penalty>
-0

> <b_epik_Metal_Only>
0

> <s_lp_Force_Field>
OPLS_2005

> <r_lp_Energy>
19.7512

> <b_lp_Chiralities_Consistent>
1

> <s_lp_Variant>
AV-unprocessed.smi:977-3

> <Gold.Version>
5.8.1

> <Gold.Id.Protein>
6NUR|6NUR_protein|mol2

> <Gold.PLP.Fitness>
37.7651

> <Gold.PLP.PLP>
-30.6394

> <Gold.PLP.part.hbond>
-4.9519

> <Gold.PLP.part.metal>
0.0000

> <Gold.PLP.part.buried>
-3.1147

> <Gold.PLP.part.nonpolar>
-23.4401

> <Gold.PLP.part.repulsive>
0.5747

> <Gold.PLP.ligand.clash>
0.0000

> <Gold.PLP.ligand.torsion>
0.3748

> <Gold.PLP.Chemscore.Hbond>
2.5400

> <Gold.PLP.Chemscore.CHOScore>
0.0000

> <Gold.PLP.Chemscore.Metal>
0.0000

> <Gold.Chemscore.Hbonds>
donor molecule, donor type, donor heavy atom, donor atom, acceptor molecule, acceptor atom, score
      L1  H     8    25       P1  7948  1.00
      L1  H    11    26       P1  7948  1.00
      P1  H  7989  7998       L1     4  0.52

> <Gold.PLP.Chemscore.Internal.Correction>
0.2553

> <Gold.Rescore>
     Score         DG    S(hbond)    S(metal)    S(lipo)     H(rot)  DE(clash)    DE(int)     intcor
     16.03     -16.49       1.94        0.00      65.28       1.22       0.03       0.43       ----

> <Gold.Chemscore.Fitness>
16.0287

> <Gold.Chemscore.DG>
-16.4911

> <Gold.Chemscore.ZeroCoef>
-5.4800

> <Gold.Chemscore.Hbond>
1.9449

> <Gold.Chemscore.Metal>
0.0000

> <Gold.Chemscore.Lipo>
65.2842

> <Gold.Chemscore.Internal_Hbond>
0.0000

> <Gold.Chemscore.DEClash>
0.0318

> <Gold.Chemscore.DEInternal>
0.4306

> <Gold.Chemscore.Rot>
1.2200

> <Gold.Chemscore.Internal.Correction>
   9.000000E+99

> <Gold.Chemscore.Hbonds>
donor molecule, donor type, donor heavy atom, donor atom, acceptor molecule, acceptor atom, score
      L1  H     8    25       P1  7948  0.98
      L1  H    11    26       P1  7948  0.95
      P1  H  7989  7998       L1     4  0.01

> <Gold.Chemscore.Hbond.Weighted>
-6.4961

> <Gold.Chemscore.Metal.Weighted>
-0.0000

> <Gold.Chemscore.Lipo.Weighted>
-7.6383

> <Gold.Chemscore.Internal_Hbond.Weighted>
0.0000

> <Gold.Chemscore.DEClash.Weighted>
0.0318

> <Gold.Chemscore.DEInternal.Weighted>
0.4306

> <Gold.Chemscore.Rot.Weighted>
3.1232

> <Gold.Chemscore.Internal.Correction.Weighted>
   9.000000E+99

> <Gold.Protein.RotatedTorsions>
[ 6907 6896 6895 6894 ] final  134.69 input  -60.11 | X-H torsion
[ 7974 7965 7964 7962 ] final  -54.91 input  175.53 | X-H torsion
[ 8008 7997 7996 7995 ] final  -82.32 input   59.86 | X-H torsion
[ 10167 10162 10161 10158 ] final  148.92 input  -65.29 | X-H torsion
[ 10718 10713 10712 10709 ] final -165.46 input   66.30 | X-H torsion
[ 10763 10752 10751 10750 ] final -162.34 input  -60.55 | X-H torsion
[ 11005 11000 10999 10996 ] final  -50.99 input  -57.11 | X-H torsion

> <Gold.Protein.ActiveResidues>
 VAL166  LYS551  ARG553  GLY616  TRP617  ASP618  TYR619  PRO620  LYS621  CYS622 
 ASP623  PHE694  ASN695  SER759  ASP760  ASP761  ALA762  ILE779  LEU786  VAL792 
 PHE793  MET794  SER795  GLU796  ALA797  LYS798  CYS799  TRP800  GLU811  SER814 

> <Gold.Protein.RotatedAtoms>
  152.3086  133.5729  159.5665 H   0  0  0  0  0  0  0  0  0  0  0  0  # atno 6907 bound_to 6896
  150.7311  134.0186  159.3702 H   0  0  0  0  0  0  0  0  0  0  0  0  # atno 6908 bound_to 6896
  151.8081  135.0689  160.0460 H   0  0  0  0  0  0  0  0  0  0  0  0  # atno 6909 bound_to 6896
  145.8802  140.8150  142.9844 H   0  0  0  0  0  0  0  0  0  0  0  0  # atno 7974 bound_to 7965
  154.6074  140.0635  156.9449 H   0  0  0  0  0  0  0  0  0  0  0  0  # atno 8008 bound_to 7997
  155.2030  140.3316  155.4322 H   0  0  0  0  0  0  0  0  0  0  0  0  # atno 8009 bound_to 7997
  156.2356  140.1861  156.7112 H   0  0  0  0  0  0  0  0  0  0  0  0  # atno 8010 bound_to 7997
  139.4868  144.5642  151.7175 H   0  0  0  0  0  0  0  0  0  0  0  0  # atno 10167 bound_to 10162
  156.6537  130.9018  151.3017 H   0  0  0  0  0  0  0  0  0  0  0  0  # atno 10718 bound_to 10713
  154.7223  135.3028  154.9027 H   0  0  0  0  0  0  0  0  0  0  0  0  # atno 10763 bound_to 10752
  153.9895  135.6720  153.4757 H   0  0  0  0  0  0  0  0  0  0  0  0  # atno 10764 bound_to 10752
  153.0845  135.4991  154.8486 H   0  0  0  0  0  0  0  0  0  0  0  0  # atno 10765 bound_to 10752
  141.0846  133.6645  156.3811 H   0  0  0  0  0  0  0  0  0  0  0  0  # atno 11005 bound_to 11000
  144.6727  140.1372  143.7439 LP  0  0  0  0  0  0  0  0  0  0  0  0  # atno 17320 bound_to 7965
  145.9033  139.2443  143.1481 LP  0  0  0  0  0  0  0  0  0  0  0  0  # atno 17321 bound_to 7965
  140.5217  144.0868  150.6025 LP  0  0  0  0  0  0  0  0  0  0  0  0  # atno 17342 bound_to 10162
  140.3829  143.2793  152.0150 LP  0  0  0  0  0  0  0  0  0  0  0  0  # atno 17343 bound_to 10162
  157.7132  130.9466  150.1163 LP  0  0  0  0  0  0  0  0  0  0  0  0  # atno 17370 bound_to 10713
  156.2064  130.3663  149.8724 LP  0  0  0  0  0  0  0  0  0  0  0  0  # atno 17371 bound_to 10713
  140.5391  134.6137  157.5374 LP  0  0  0  0  0  0  0  0  0  0  0  0  # atno 17394 bound_to 11000
  139.9663  134.7367  156.0132 LP  0  0  0  0  0  0  0  0  0  0  0  0  # atno 17395 bound_to 11000

$$$$
