AV-unprocessed.smi:2143|AV-procd|sdf|8728|dock3
  -GOLD-   2272011493D 1   1.00000     0.00000
 Structure written by MMmdl.
 44 45  0  0  0  0  0  0  0  0  1 V2000
  151.9539  145.0400  160.4887 C   0  0  0  0  0  0  0  0  0  0  0  0
  151.6876  143.6560  159.8731 C   0  0  2  0  0  0  0  0  0  0  0  0
  152.9517  142.7724  159.8832 C   0  0  0  0  0  0  0  0  0  0  0  0
  152.6548  141.3583  159.3598 C   0  0  0  0  0  0  0  0  0  0  0  0
  152.0030  141.3950  157.9692 C   0  0  0  0  0  0  0  0  0  0  0  0
  150.7382  142.2752  157.9691 C   0  0  2  0  0  0  0  0  0  0  0  0
  150.1222  142.2582  156.6440 N   0  0  0  0  0  0  0  0  0  0  0  0
  149.9794  141.1735  155.8677 C   0  0  0  0  0  0  0  0  0  0  0  0
  150.3508  140.0482  156.2041 O   0  0  0  0  0  0  0  0  0  0  0  0
  149.2889  141.4030  154.5164 C   0  0  0  0  0  0  0  0  0  0  0  0
  147.8489  141.6641  154.6399 N   0  0  0  0  0  0  0  0  0  0  0  0
  147.3069  142.7995  154.0654 C   0  0  0  0  0  0  0  0  0  0  0  0
  145.9983  143.1241  154.1484 C   0  0  0  0  0  0  0  0  0  0  0  0
  145.0593  142.2703  154.8657 C   0  0  0  0  0  0  0  0  0  0  0  0
  143.8635  142.5397  154.9845 O   0  0  0  0  0  0  0  0  0  0  0  0
  145.6365  141.1073  155.4298 N   0  0  0  0  0  0  0  0  0  0  0  0
  144.7830  140.2093  156.1804 C   0  0  0  0  0  0  0  0  0  0  0  0
  147.0096  140.7825  155.3542 C   0  0  0  0  0  0  0  0  0  0  0  0
  147.4728  139.7746  155.8938 O   0  0  0  0  0  0  0  0  0  0  0  0
  151.0431  143.7169  158.4624 C   0  0  2  0  0  0  0  0  0  0  0  0
  151.8584  144.5489  157.4451 C   0  0  0  0  0  0  0  0  0  0  0  0
  152.7490  145.5710  159.9656 H   0  0  0  0  0  0  0  0  0  0  0  0
  152.2581  144.9482  161.5317 H   0  0  0  0  0  0  0  0  0  0  0  0
  151.0588  145.6621  160.4619 H   0  0  0  0  0  0  0  0  0  0  0  0
  150.9595  143.1737  160.5271 H   0  0  0  0  0  0  0  0  0  0  0  0
  153.7366  143.2306  159.2807 H   0  0  0  0  0  0  0  0  0  0  0  0
  153.3482  142.7048  160.8969 H   0  0  0  0  0  0  0  0  0  0  0  0
  153.5747  140.7741  159.3243 H   0  0  0  0  0  0  0  0  0  0  0  0
  151.9912  140.8455  160.0574 H   0  0  0  0  0  0  0  0  0  0  0  0
  152.7219  141.7635  157.2366 H   0  0  0  0  0  0  0  0  0  0  0  0
  151.7494  140.3794  157.6628 H   0  0  0  0  0  0  0  0  0  0  0  0
  150.0333  141.8194  158.6677 H   0  0  0  0  0  0  0  0  0  0  0  0
  149.7808  143.1403  156.2908 H   0  0  0  0  0  0  0  0  0  0  0  0
  149.7780  142.2449  154.0242 H   0  0  0  0  0  0  0  0  0  0  0  0
  149.4584  140.5432  153.8655 H   0  0  0  0  0  0  0  0  0  0  0  0
  147.9635  143.4676  153.5269 H   0  0  0  0  0  0  0  0  0  0  0  0
  145.6419  144.0303  153.6809 H   0  0  0  0  0  0  0  0  0  0  0  0
  145.0884  139.1817  155.9767 H   0  0  0  0  0  0  0  0  0  0  0  0
  143.7452  140.3215  155.8655 H   0  0  0  0  0  0  0  0  0  0  0  0
  144.9068  140.4627  157.2343 H   0  0  0  0  0  0  0  0  0  0  0  0
  150.0857  144.2277  158.5747 H   0  0  0  0  0  0  0  0  0  0  0  0
  152.8527  144.1358  157.2799 H   0  0  0  0  0  0  0  0  0  0  0  0
  151.9809  145.5787  157.7786 H   0  0  0  0  0  0  0  0  0  0  0  0
  151.3599  144.5993  156.4773 H   0  0  0  0  0  0  0  0  0  0  0  0
  1  2  1  0  0  0  0
  1 22  1  0  0  0  0
  1 23  1  0  0  0  0
  1 24  1  0  0  0  0
  2 20  1  0  0  0  0
  2  3  1  0  0  0  0
  2 25  1  0  0  0  0
  3  4  1  0  0  0  0
  3 26  1  0  0  0  0
  3 27  1  0  0  0  0
  4  5  1  0  0  0  0
  4 28  1  0  0  0  0
  4 29  1  0  0  0  0
  5  6  1  0  0  0  0
  5 30  1  0  0  0  0
  5 31  1  0  0  0  0
  6  7  1  0  0  0  0
  6 20  1  0  0  0  0
  6 32  1  0  0  0  0
  7  8  1  0  0  0  0
  7 33  1  0  0  0  0
  8  9  2  0  0  0  0
  8 10  1  0  0  0  0
 10 11  1  0  0  0  0
 10 34  1  0  0  0  0
 10 35  1  0  0  0  0
 11 18  1  0  0  0  0
 11 12  1  0  0  0  0
 12 13  2  0  0  0  0
 12 36  1  0  0  0  0
 13 14  1  0  0  0  0
 13 37  1  0  0  0  0
 14 15  2  0  0  0  0
 14 16  1  0  0  0  0
 16 17  1  0  0  0  0
 16 18  1  0  0  0  0
 17 38  1  0  0  0  0
 17 39  1  0  0  0  0
 17 40  1  0  0  0  0
 18 19  2  0  0  0  0
 20 21  1  0  0  0  0
 20 41  1  0  0  0  0
 21 42  1  0  0  0  0
 21 43  1  0  0  0  0
 21 44  1  0  0  0  0
M  END
> <s_m_source_file>
AV-unprocessed.smi

> <i_m_source_file_index>
2143

> <i_lp_mmshare_version>
43012

> <i_f3d_flags>
0

> <s_epik_input>
W0NIM11bQ0BASF0xW0NIMl1bQ0gyXVtDSDJdW0NASF0oW0NASF0xW0NIM10pW05IXUMoPU8pW0NIMl1uMltjSF1bY0hdYyg9TyluKFtDSDNdKWMyPU8=

> <s_epik_cmdline>
J2VwaWtfcHl0aG9uJywgJy1waCcsICc3LjAnLCAnLXRuJywgJzgnLCAnLW1hJywgJzIwMCcsICctbWV0YWxfYmluZGluZycsICctaW1hZScsICc8aW5maWxlLm1hZT4nLCAnLW9tYWUnLCAnPG91dGZpbGUubWFlPic=

> <r_lp_tautomer_probability>
1

> <r_epik_Ionization_Penalty>
3.18445e-08

> <r_epik_Ionization_Penalty_Charging>
1.27977e-08

> <r_epik_Ionization_Penalty_Neutral>
1.90469e-08

> <r_epik_State_Penalty>
-0

> <r_epik_Charging_Adjusted_Penalty>
1.27977e-08

> <i_epik_Tot_Q>
0

> <i_epik_Tot_abs_Q>
0

> <r_epik_Metal_State_Penalty>
-0

> <b_epik_Metal_Only>
0

> <s_lp_Force_Field>
OPLS_2005

> <r_lp_Energy>
21.2837

> <b_lp_Chiralities_Consistent>
1

> <s_lp_Variant>
AV-unprocessed.smi:2143-7

> <Gold.Version>
5.8.1

> <Gold.Id.Protein>
6NUR|6NUR_protein|mol2

> <Gold.PLP.Fitness>
44.0053

> <Gold.PLP.PLP>
-40.8301

> <Gold.PLP.part.hbond>
-1.0000

> <Gold.PLP.part.metal>
0.0000

> <Gold.PLP.part.buried>
-3.3937

> <Gold.PLP.part.nonpolar>
-36.1946

> <Gold.PLP.part.repulsive>
0.2268

> <Gold.PLP.ligand.clash>
0.0000

> <Gold.PLP.ligand.torsion>
0.3751

> <Gold.PLP.Chemscore.Hbond>
1.0000

> <Gold.PLP.Chemscore.CHOScore>
0.3005

> <Gold.PLP.Chemscore.Metal>
0.0000

> <Gold.Chemscore.Hbonds>
donor molecule, donor type, donor heavy atom, donor atom, acceptor molecule, acceptor atom, score
      L1  H     7    33       P1  8028  1.00
      L1  C    12    36       P1  8028  0.29

> <Gold.PLP.Chemscore.Internal.Correction>
0.0238

> <Gold.Rescore>
     Score         DG    S(hbond)    S(metal)    S(lipo)     H(rot)  DE(clash)    DE(int)     intcor
     14.18     -16.78       1.00        0.00     101.16       1.51       0.86       1.74       ----

> <Gold.Chemscore.Fitness>
14.1815

> <Gold.Chemscore.DG>
-16.7805

> <Gold.Chemscore.ZeroCoef>
-5.4800

> <Gold.Chemscore.Hbond>
0.9995

> <Gold.Chemscore.Metal>
0.0000

> <Gold.Chemscore.Lipo>
101.1588

> <Gold.Chemscore.Internal_Hbond>
0.0000

> <Gold.Chemscore.DEClash>
0.8581

> <Gold.Chemscore.DEInternal>
1.7409

> <Gold.Chemscore.Rot>
1.5131

> <Gold.Chemscore.Internal.Correction>
   9.000000E+99

> <Gold.Chemscore.Hbonds>
donor molecule, donor type, donor heavy atom, donor atom, acceptor molecule, acceptor atom, score
      L1  H     7    33       P1  8028  1.00

> <Gold.Chemscore.Hbond.Weighted>
-3.3384

> <Gold.Chemscore.Metal.Weighted>
-0.0000

> <Gold.Chemscore.Lipo.Weighted>
-11.8356

> <Gold.Chemscore.Internal_Hbond.Weighted>
0.0000

> <Gold.Chemscore.DEClash.Weighted>
0.8581

> <Gold.Chemscore.DEInternal.Weighted>
1.7409

> <Gold.Chemscore.Rot.Weighted>
3.8734

> <Gold.Chemscore.Internal.Correction.Weighted>
   9.000000E+99

> <Gold.Protein.RotatedTorsions>
[ 6907 6896 6895 6894 ] final   12.55 input  -60.11 | X-H torsion
[ 7974 7965 7964 7962 ] final -131.64 input  175.53 | X-H torsion
[ 8008 7997 7996 7995 ] final -122.85 input   59.86 | X-H torsion
[ 10167 10162 10161 10158 ] final -107.87 input  -65.29 | X-H torsion
[ 10718 10713 10712 10709 ] final   20.64 input   66.30 | X-H torsion
[ 10763 10752 10751 10750 ] final  -76.76 input  -60.55 | X-H torsion
[ 11005 11000 10999 10996 ] final  118.10 input  -57.11 | X-H torsion

> <Gold.Protein.ActiveResidues>
 VAL166  LYS551  ARG553  GLY616  TRP617  ASP618  TYR619  PRO620  LYS621  CYS622 
 ASP623  PHE694  ASN695  SER759  ASP760  ASP761  ALA762  ILE779  LEU786  VAL792 
 PHE793  MET794  SER795  GLU796  ALA797  LYS798  CYS799  TRP800  GLU811  SER814 

> <Gold.Protein.RotatedAtoms>
  151.7721  135.0783  160.0361 H   0  0  0  0  0  0  0  0  0  0  0  0  # atno 6907 bound_to 6896
  152.3281  133.5923  159.5799 H   0  0  0  0  0  0  0  0  0  0  0  0  # atno 6908 bound_to 6896
  150.7407  133.9825  159.3623 H   0  0  0  0  0  0  0  0  0  0  0  0  # atno 6909 bound_to 6896
  144.9360  140.7184  143.4876 H   0  0  0  0  0  0  0  0  0  0  0  0  # atno 7974 bound_to 7965
  155.1709  140.0408  157.2862 H   0  0  0  0  0  0  0  0  0  0  0  0  # atno 8008 bound_to 7997
  154.6270  140.2515  155.7452 H   0  0  0  0  0  0  0  0  0  0  0  0  # atno 8009 bound_to 7997
  156.2464  140.2883  156.0604 H   0  0  0  0  0  0  0  0  0  0  0  0  # atno 8010 bound_to 7997
  140.1722  143.4033  152.1345 H   0  0  0  0  0  0  0  0  0  0  0  0  # atno 10167 bound_to 10162
  157.1273  130.6575  149.5941 H   0  0  0  0  0  0  0  0  0  0  0  0  # atno 10718 bound_to 10713
  154.5040  135.5787  153.6553 H   0  0  0  0  0  0  0  0  0  0  0  0  # atno 10763 bound_to 10752
  152.9884  135.6142  154.2965 H   0  0  0  0  0  0  0  0  0  0  0  0  # atno 10764 bound_to 10752
  154.2875  135.2849  155.2649 H   0  0  0  0  0  0  0  0  0  0  0  0  # atno 10765 bound_to 10752
  139.9097  134.9617  156.7451 H   0  0  0  0  0  0  0  0  0  0  0  0  # atno 11005 bound_to 11000
  145.3066  139.1832  143.4661 LP  0  0  0  0  0  0  0  0  0  0  0  0  # atno 17320 bound_to 7965
  146.3267  140.3064  142.8624 LP  0  0  0  0  0  0  0  0  0  0  0  0  # atno 17321 bound_to 7965
  139.5333  144.7182  151.4981 LP  0  0  0  0  0  0  0  0  0  0  0  0  # atno 17342 bound_to 10162
  140.6574  143.8570  150.6850 LP  0  0  0  0  0  0  0  0  0  0  0  0  # atno 17343 bound_to 10162
  155.9815  130.4823  150.6833 LP  0  0  0  0  0  0  0  0  0  0  0  0  # atno 17370 bound_to 10713
  157.4424  131.0863  151.0930 LP  0  0  0  0  0  0  0  0  0  0  0  0  # atno 17371 bound_to 10713
  140.6818  133.9468  155.7915 LP  0  0  0  0  0  0  0  0  0  0  0  0  # atno 17394 bound_to 11000
  141.0505  134.0492  157.3790 LP  0  0  0  0  0  0  0  0  0  0  0  0  # atno 17395 bound_to 11000

$$$$
