AV-unprocessed.smi:2136|AV-procd|sdf|8704|dock9
  -GOLD-   2272011463D 1   1.00000     0.00000
 Structure written by MMmdl.
 43 44  0  0  0  0  0  0  0  0  2 V2000
  149.7596  133.6634  155.1178 C   0  0  0  0  0  0  0  0  0  0  0  0
  149.8978  135.0002  156.3775 S   0  0  0  0  0  0  0  0  0  0  0  0
  148.6711  135.0307  157.1890 O   0  0  0  0  0  0  0  0  0  0  0  0
  151.1988  134.8225  157.0411 O   0  0  0  0  0  0  0  0  0  0  0  0
  149.9723  136.4685  155.4263 N   0  0  0  0  0  0  0  0  0  0  0  0
  151.2836  137.1625  155.4251 C   0  0  0  0  0  0  0  0  0  0  0  0
  151.4011  138.2430  154.3424 C   0  0  0  0  0  0  0  0  0  0  0  0
  150.2469  139.2335  154.4347 C   0  0  0  0  0  0  0  0  0  0  0  0
  148.9459  138.4568  154.2589 C   0  0  0  0  0  0  0  0  0  0  0  0
  148.7684  137.3541  155.3315 C   0  0  1  0  0  0  0  0  0  0  0  0
  147.4337  136.6372  155.0665 C   0  0  0  0  0  0  0  0  0  0  0  0
  146.5084  136.7265  155.8746 O   0  0  0  0  0  0  0  0  0  0  0  0
  147.3442  135.9282  153.9303 N   0  0  0  0  0  0  0  0  0  0  0  0
  146.1632  135.1959  153.4910 C   0  0  0  0  0  0  0  0  0  0  0  0
  146.5261  133.8003  152.9556 C   0  0  0  0  0  0  0  0  0  0  0  0
  145.5264  133.2995  151.9314 C   0  0  0  0  0  0  0  0  0  0  0  0
  145.7373  132.0714  151.2664 C   0  0  0  0  0  0  0  0  0  0  0  0
  144.7923  131.6268  150.3184 C   0  0  0  0  0  0  0  0  0  0  0  0
  143.6583  132.4220  150.0548 C   0  0  0  0  0  0  0  0  0  0  0  0
  143.4906  133.5920  150.7096 N   0  3  0  0  0  0  0  0  0  0  0  0
  144.3713  134.0517  151.6256 C   0  0  0  0  0  0  0  0  0  0  0  0
  149.8880  132.6983  155.6072 H   0  0  0  0  0  0  0  0  0  0  0  0
  150.5368  133.7900  154.3646 H   0  0  0  0  0  0  0  0  0  0  0  0
  148.7815  133.6835  154.6427 H   0  0  0  0  0  0  0  0  0  0  0  0
  151.4454  137.6010  156.4106 H   0  0  0  0  0  0  0  0  0  0  0  0
  152.0829  136.4391  155.2656 H   0  0  0  0  0  0  0  0  0  0  0  0
  152.3507  138.7684  154.4471 H   0  0  0  0  0  0  0  0  0  0  0  0
  151.4129  137.7770  153.3561 H   0  0  0  0  0  0  0  0  0  0  0  0
  150.2594  139.7479  155.3963 H   0  0  0  0  0  0  0  0  0  0  0  0
  150.3403  139.9966  153.6615 H   0  0  0  0  0  0  0  0  0  0  0  0
  148.1072  139.1535  154.2983 H   0  0  0  0  0  0  0  0  0  0  0  0
  148.9315  138.0205  153.2584 H   0  0  0  0  0  0  0  0  0  0  0  0
  148.6812  137.8570  156.2965 H   0  0  0  0  0  0  0  0  0  0  0  0
  148.1460  135.9157  153.3159 H   0  0  0  0  0  0  0  0  0  0  0  0
  145.4488  135.1212  154.3128 H   0  0  0  0  0  0  0  0  0  0  0  0
  145.6769  135.7794  152.7088 H   0  0  0  0  0  0  0  0  0  0  0  0
  147.5212  133.8202  152.5089 H   0  0  0  0  0  0  0  0  0  0  0  0
  146.5716  133.0790  153.7726 H   0  0  0  0  0  0  0  0  0  0  0  0
  146.6125  131.4754  151.4813 H   0  0  0  0  0  0  0  0  0  0  0  0
  144.9365  130.6896  149.8007 H   0  0  0  0  0  0  0  0  0  0  0  0
  142.8863  132.1597  149.3458 H   0  0  0  0  0  0  0  0  0  0  0  0
  144.1259  135.0002  152.0813 H   0  0  0  0  0  0  0  0  0  0  0  0
  142.6634  134.1528  150.5035 H   0  0  0  0  0  0  0  0  0  0  0  0
  1  2  1  0  0  0  0
  1 22  1  0  0  0  0
  1 23  1  0  0  0  0
  1 24  1  0  0  0  0
  2  3  2  0  0  0  0
  2  4  2  0  0  0  0
  2  5  1  0  0  0  0
  5 10  1  0  0  0  0
  5  6  1  0  0  0  0
  6  7  1  0  0  0  0
  6 25  1  0  0  0  0
  6 26  1  0  0  0  0
  7  8  1  0  0  0  0
  7 27  1  0  0  0  0
  7 28  1  0  0  0  0
  8  9  1  0  0  0  0
  8 29  1  0  0  0  0
  8 30  1  0  0  0  0
  9 10  1  0  0  0  0
  9 31  1  0  0  0  0
  9 32  1  0  0  0  0
 10 11  1  0  0  0  0
 10 33  1  0  0  0  0
 11 12  2  0  0  0  0
 11 13  1  0  0  0  0
 13 14  1  0  0  0  0
 13 34  1  0  0  0  0
 14 15  1  0  0  0  0
 14 35  1  0  0  0  0
 14 36  1  0  0  0  0
 15 16  1  0  0  0  0
 15 37  1  0  0  0  0
 15 38  1  0  0  0  0
 16 21  1  0  0  0  0
 16 17  2  0  0  0  0
 17 18  1  0  0  0  0
 17 39  1  0  0  0  0
 18 19  2  0  0  0  0
 18 40  1  0  0  0  0
 19 20  1  0  0  0  0
 19 41  1  0  0  0  0
 20 21  2  0  0  0  0
 20 43  1  0  0  0  0
 21 42  1  0  0  0  0
M  CHG  1  20   1
M  END
> <s_m_source_file>
AV-unprocessed.smi

> <i_m_source_file_index>
2136

> <i_lp_mmshare_version>
43012

> <i_f3d_flags>
0

> <s_epik_input>
W0NIM11TKD1PKSg9TylOMVtDSDJdW0NIMl1bQ0gyXVtDSDJdW0NASF0xQyg9TylbTkhdW0NIMl1bQ0gyXWMyW2NIXVtjSF1bY0hdbltjSF0y

> <s_epik_cmdline>
J2VwaWtfcHl0aG9uJywgJy1waCcsICc3LjAnLCAnLXRuJywgJzgnLCAnLW1hJywgJzIwMCcsICctbWV0YWxfYmluZGluZycsICctaW1hZScsICc8aW5maWxlLm1hZT4nLCAnLW9tYWUnLCAnPG91dGZpbGUubWFlPic=

> <r_epik_Ionization_Penalty>
2.2835

> <r_epik_Ionization_Penalty_Charging>
2.2835

> <r_epik_Ionization_Penalty_Neutral>
1.35461e-07

> <r_epik_State_Penalty>
2.43297

> <r_epik_Charging_Adjusted_Penalty>
4.71647

> <i_epik_Tot_Q>
1

> <i_epik_Tot_abs_Q>
1

> <r_epik_Metal_State_Penalty>
2.44557

> <b_epik_Metal_Only>
0

> <s_lp_Force_Field>
OPLS_2005

> <r_lp_Energy>
13.1957

> <b_lp_Chiralities_Consistent>
1

> <s_lp_Variant>
AV-unprocessed.smi:2136-3

> <Gold.Version>
5.8.1

> <Gold.Id.Protein>
6NUR|6NUR_protein|mol2

> <Gold.PLP.Fitness>
42.4242

> <Gold.PLP.PLP>
-34.0013

> <Gold.PLP.part.hbond>
-2.6970

> <Gold.PLP.part.metal>
0.0000

> <Gold.PLP.part.buried>
-5.8979

> <Gold.PLP.part.nonpolar>
-26.8699

> <Gold.PLP.part.repulsive>
0.0248

> <Gold.PLP.ligand.clash>
0.0000

> <Gold.PLP.ligand.torsion>
1.3511

> <Gold.PLP.Chemscore.Hbond>
3.0000

> <Gold.PLP.Chemscore.CHOScore>
0.0000

> <Gold.PLP.Chemscore.Metal>
0.0000

> <Gold.Chemscore.Hbonds>
donor molecule, donor type, donor heavy atom, donor atom, acceptor molecule, acceptor atom, score
      L1  H    13    34       P1  7948  1.00
      L1  H    20    43       P1 10186  2.00

> <Gold.PLP.Chemscore.Internal.Correction>
2.1251

> <Gold.Rescore>
     Score         DG    S(hbond)    S(metal)    S(lipo)     H(rot)  DE(clash)    DE(int)     intcor
     13.88     -17.74       1.97        0.00      84.80       1.65       0.03       3.83       ----

> <Gold.Chemscore.Fitness>
13.8820

> <Gold.Chemscore.DG>
-17.7424

> <Gold.Chemscore.ZeroCoef>
-5.4800

> <Gold.Chemscore.Hbond>
1.9684

> <Gold.Chemscore.Metal>
0.0000

> <Gold.Chemscore.Lipo>
84.8012

> <Gold.Chemscore.Internal_Hbond>
0.0000

> <Gold.Chemscore.DEClash>
0.0339

> <Gold.Chemscore.DEInternal>
3.8266

> <Gold.Chemscore.Rot>
1.6538

> <Gold.Chemscore.Internal.Correction>
   9.000000E+99

> <Gold.Chemscore.Hbonds>
donor molecule, donor type, donor heavy atom, donor atom, acceptor molecule, acceptor atom, score
      L1  H    13    34       P1  7948  0.98
      L1  H    20    43       P1 10186  0.74

> <Gold.Chemscore.Hbond.Weighted>
-6.5744

> <Gold.Chemscore.Metal.Weighted>
-0.0000

> <Gold.Chemscore.Lipo.Weighted>
-9.9217

> <Gold.Chemscore.Internal_Hbond.Weighted>
0.0000

> <Gold.Chemscore.DEClash.Weighted>
0.0339

> <Gold.Chemscore.DEInternal.Weighted>
3.8266

> <Gold.Chemscore.Rot.Weighted>
4.2337

> <Gold.Chemscore.Internal.Correction.Weighted>
   9.000000E+99

> <Gold.Protein.RotatedTorsions>
[ 6907 6896 6895 6894 ] final -146.14 input  -60.11 | X-H torsion
[ 7974 7965 7964 7962 ] final  110.41 input  175.53 | X-H torsion
[ 8008 7997 7996 7995 ] final   23.39 input   59.86 | X-H torsion
[ 10167 10162 10161 10158 ] final   24.34 input  -65.29 | X-H torsion
[ 10718 10713 10712 10709 ] final  -22.09 input   66.30 | X-H torsion
[ 10763 10752 10751 10750 ] final  -34.58 input  -60.55 | X-H torsion
[ 11005 11000 10999 10996 ] final   -3.51 input  -57.11 | X-H torsion

> <Gold.Protein.ActiveResidues>
 VAL166  LYS551  ARG553  GLY616  TRP617  ASP618  TYR619  PRO620  LYS621  CYS622 
 ASP623  PHE694  ASN695  SER759  ASP760  ASP761  ALA762  ILE779  LEU786  VAL792 
 PHE793  MET794  SER795  GLU796  ALA797  LYS798  CYS799  TRP800  GLU811  SER814 

> <Gold.Protein.RotatedAtoms>
  151.1374  133.4994  159.2597 H   0  0  0  0  0  0  0  0  0  0  0  0  # atno 6907 bound_to 6896
  151.1691  135.0309  159.8754 H   0  0  0  0  0  0  0  0  0  0  0  0  # atno 6908 bound_to 6896
  152.5461  134.1240  159.8464 H   0  0  0  0  0  0  0  0  0  0  0  0  # atno 6909 bound_to 6896
  145.2554  139.2723  143.4045 H   0  0  0  0  0  0  0  0  0  0  0  0  # atno 7974 bound_to 7965
  154.9802  140.3101  155.4950 H   0  0  0  0  0  0  0  0  0  0  0  0  # atno 8008 bound_to 7997
  156.2954  140.2268  156.4840 H   0  0  0  0  0  0  0  0  0  0  0  0  # atno 8009 bound_to 7997
  154.7797  140.0447  157.1105 H   0  0  0  0  0  0  0  0  0  0  0  0  # atno 8010 bound_to 7997
  140.5196  144.0025  150.6410 H   0  0  0  0  0  0  0  0  0  0  0  0  # atno 10167 bound_to 10162
  156.5093  130.4606  149.6657 H   0  0  0  0  0  0  0  0  0  0  0  0  # atno 10718 bound_to 10713
  153.8491  135.6850  153.4794 H   0  0  0  0  0  0  0  0  0  0  0  0  # atno 10763 bound_to 10752
  153.1408  135.4658  154.9490 H   0  0  0  0  0  0  0  0  0  0  0  0  # atno 10764 bound_to 10752
  154.7810  135.3269  154.7937 H   0  0  0  0  0  0  0  0  0  0  0  0  # atno 10765 bound_to 10752
  140.6701  133.9244  155.8489 H   0  0  0  0  0  0  0  0  0  0  0  0  # atno 11005 bound_to 11000
  146.3291  140.2956  142.8617 LP  0  0  0  0  0  0  0  0  0  0  0  0  # atno 17320 bound_to 7965
  144.9466  140.8134  143.5598 LP  0  0  0  0  0  0  0  0  0  0  0  0  # atno 17321 bound_to 7965
  140.3370  143.3042  152.0627 LP  0  0  0  0  0  0  0  0  0  0  0  0  # atno 17342 bound_to 10162
  139.4919  144.6469  151.6759 LP  0  0  0  0  0  0  0  0  0  0  0  0  # atno 17343 bound_to 10162
  156.3256  130.7304  151.2224 LP  0  0  0  0  0  0  0  0  0  0  0  0  # atno 17370 bound_to 10713
  157.7453  131.0444  150.4790 LP  0  0  0  0  0  0  0  0  0  0  0  0  # atno 17371 bound_to 10713
  141.0399  134.0637  157.3915 LP  0  0  0  0  0  0  0  0  0  0  0  0  # atno 17394 bound_to 11000
  139.8984  135.0154  156.7148 LP  0  0  0  0  0  0  0  0  0  0  0  0  # atno 17395 bound_to 11000

$$$$
