AV-unprocessed.smi:3345|AV-procd|sdf|12906|dock10
  -GOLD-   2272019323D 1   1.00000     0.00000
 Structure written by MMmdl.
 41 42  0  0  0  0  0  0  0  0  2 V2000
  146.3979  138.7660  152.0670 C   0  0  0  0  0  0  0  0  0  0  0  0
  146.8287  138.3760  153.4872 C   0  0  1  0  0  0  0  0  0  0  0  0
  146.2762  136.9896  153.8902 C   0  0  0  0  0  0  0  0  0  0  0  0
  146.2707  136.0144  152.7690 N   0  3  0  0  0  0  0  0  0  0  0  0
  146.5229  134.6169  153.1945 C   0  0  0  0  0  0  0  0  0  0  0  0
  146.5898  133.6967  151.9650 C   0  0  0  0  0  0  0  0  0  0  0  0
  145.3717  133.7928  151.2367 O   0  0  0  0  0  0  0  0  0  0  0  0
  145.1380  135.1116  150.7573 C   0  0  0  0  0  0  0  0  0  0  0  0
  145.0440  136.0892  151.9414 C   0  0  0  0  0  0  0  0  0  0  0  0
  148.2889  138.3921  153.5747 N   0  0  0  0  0  0  0  0  0  0  0  0
  149.0221  139.2012  154.3570 C   0  0  0  0  0  0  0  0  0  0  0  0
  148.5369  140.1034  155.0397 O   0  0  0  0  0  0  0  0  0  0  0  0
  150.5273  138.9051  154.4099 C   0  0  1  0  0  0  0  0  0  0  0  0
  151.3179  139.9789  155.1842 C   0  0  0  0  0  0  0  0  0  0  0  0
  150.7386  137.5659  154.9468 N   0  0  0  0  0  0  0  0  0  0  0  0
  151.6403  137.1281  155.8284 C   0  0  0  0  0  0  0  0  0  0  0  0
  151.5907  135.8214  156.0458 N   0  0  0  0  0  0  0  0  0  0  0  0
  150.5626  135.4893  155.2103 C   0  0  0  0  0  0  0  0  0  0  0  0
  150.0353  136.4917  154.5082 N   0  0  0  0  0  0  0  0  0  0  0  0
  145.3111  138.7832  151.9789 H   0  0  0  0  0  0  0  0  0  0  0  0
  146.7806  138.0632  151.3260 H   0  0  0  0  0  0  0  0  0  0  0  0
  146.7644  139.7589  151.8043 H   0  0  0  0  0  0  0  0  0  0  0  0
  146.4108  139.1265  154.1595 H   0  0  0  0  0  0  0  0  0  0  0  0
  146.8317  136.5816  154.7360 H   0  0  0  0  0  0  0  0  0  0  0  0
  145.2504  137.1246  154.2369 H   0  0  0  0  0  0  0  0  0  0  0  0
  147.4576  134.5486  153.7495 H   0  0  0  0  0  0  0  0  0  0  0  0
  145.7292  134.2870  153.8664 H   0  0  0  0  0  0  0  0  0  0  0  0
  147.4347  133.9605  151.3263 H   0  0  0  0  0  0  0  0  0  0  0  0
  146.7350  132.6622  152.2765 H   0  0  0  0  0  0  0  0  0  0  0  0
  145.9337  135.4058  150.0730 H   0  0  0  0  0  0  0  0  0  0  0  0
  144.2093  135.1215  150.1868 H   0  0  0  0  0  0  0  0  0  0  0  0
  144.1726  135.8541  152.5547 H   0  0  0  0  0  0  0  0  0  0  0  0
  144.9103  137.1043  151.5657 H   0  0  0  0  0  0  0  0  0  0  0  0
  148.7793  137.6930  153.0355 H   0  0  0  0  0  0  0  0  0  0  0  0
  150.9012  138.9039  153.3846 H   0  0  0  0  0  0  0  0  0  0  0  0
  151.1821  140.9642  154.7370 H   0  0  0  0  0  0  0  0  0  0  0  0
  152.3857  139.7593  155.1702 H   0  0  0  0  0  0  0  0  0  0  0  0
  151.0094  140.0463  156.2284 H   0  0  0  0  0  0  0  0  0  0  0  0
  152.3542  137.7771  156.3142 H   0  0  0  0  0  0  0  0  0  0  0  0
  150.2075  134.4753  155.0990 H   0  0  0  0  0  0  0  0  0  0  0  0
  147.0347  136.2762  152.1623 H   0  0  0  0  0  0  0  0  0  0  0  0
  1  2  1  0  0  0  0
  1 20  1  0  0  0  0
  1 21  1  0  0  0  0
  1 22  1  0  0  0  0
  2  3  1  0  0  0  0
  2 10  1  0  0  0  0
  2 23  1  0  0  0  0
  3  4  1  0  0  0  0
  3 24  1  0  0  0  0
  3 25  1  0  0  0  0
  4  9  1  0  0  0  0
  4  5  1  0  0  0  0
  4 41  1  0  0  0  0
  5  6  1  0  0  0  0
  5 26  1  0  0  0  0
  5 27  1  0  0  0  0
  6  7  1  0  0  0  0
  6 28  1  0  0  0  0
  6 29  1  0  0  0  0
  7  8  1  0  0  0  0
  8  9  1  0  0  0  0
  8 30  1  0  0  0  0
  8 31  1  0  0  0  0
  9 32  1  0  0  0  0
  9 33  1  0  0  0  0
 10 11  1  0  0  0  0
 10 34  1  0  0  0  0
 11 12  2  0  0  0  0
 11 13  1  0  0  0  0
 13 14  1  0  0  0  0
 13 15  1  0  0  0  0
 13 35  1  0  0  0  0
 14 36  1  0  0  0  0
 14 37  1  0  0  0  0
 14 38  1  0  0  0  0
 15 19  1  0  0  0  0
 15 16  1  0  0  0  0
 16 17  2  0  0  0  0
 16 39  1  0  0  0  0
 17 18  1  0  0  0  0
 18 19  2  0  0  0  0
 18 40  1  0  0  0  0
M  CHG  1   4   1
M  END
> <s_m_source_file>
AV-unprocessed.smi

> <i_m_source_file_index>
3345

> <i_lp_mmshare_version>
43012

> <i_f3d_flags>
0

> <s_epik_input>
W0NIMl0xW0NIMl1PW0NIMl1bQ0gyXU4xW0NIMl1bQ0BASF0oW0NIM10pW05IXUMoPU8pW0NASF0oW0NIM10pbjJbY0hdbltjSF1uMg==

> <s_epik_cmdline>
J2VwaWtfcHl0aG9uJywgJy1waCcsICc3LjAnLCAnLXRuJywgJzgnLCAnLW1hJywgJzIwMCcsICctbWV0YWxfYmluZGluZycsICctaW1hZScsICc8aW5maWxlLm1hZT4nLCAnLW9tYWUnLCAnPG91dGZpbGUubWFlPic=

> <r_lp_tautomer_probability>
1

> <r_epik_Ionization_Penalty>
0.71326

> <r_epik_Ionization_Penalty_Charging>
0.713252

> <r_epik_Ionization_Penalty_Neutral>
8.27671e-06

> <r_epik_State_Penalty>
0.737017

> <r_epik_Charging_Adjusted_Penalty>
1.45027

> <i_epik_Tot_Q>
1

> <i_epik_Tot_abs_Q>
1

> <r_epik_Metal_State_Penalty>
0.73702

> <b_epik_Metal_Only>
0

> <s_lp_Force_Field>
OPLS_2005

> <r_lp_Energy>
25.9196

> <b_lp_Chiralities_Consistent>
1

> <s_lp_Variant>
AV-unprocessed.smi:3345-8

> <Gold.Version>
5.8.1

> <Gold.Id.Protein>
6NUR|6NUR_protein|mol2

> <Gold.PLP.Fitness>
37.8837

> <Gold.PLP.PLP>
-27.7235

> <Gold.PLP.part.hbond>
-3.4482

> <Gold.PLP.part.metal>
0.0000

> <Gold.PLP.part.buried>
-1.6451

> <Gold.PLP.part.nonpolar>
-24.6217

> <Gold.PLP.part.repulsive>
1.1424

> <Gold.PLP.ligand.clash>
0.0000

> <Gold.PLP.ligand.torsion>
0.9985

> <Gold.PLP.Chemscore.Hbond>
4.0000

> <Gold.PLP.Chemscore.CHOScore>
0.0000

> <Gold.PLP.Chemscore.Metal>
0.0000

> <Gold.Chemscore.Hbonds>
donor molecule, donor type, donor heavy atom, donor atom, acceptor molecule, acceptor atom, score
      L1  H     4    41       P1  7948  1.89
      L1  H    10    34       P1  7948  1.00
      P1  H 10752 10765       L1    17  0.80

> <Gold.PLP.Chemscore.Internal.Correction>
0.1572

> <Gold.Rescore>
     Score         DG    S(hbond)    S(metal)    S(lipo)     H(rot)  DE(clash)    DE(int)     intcor
      7.96     -11.31       1.93        0.00      51.84       2.61       0.05       3.31       ----

> <Gold.Chemscore.Fitness>
7.9632

> <Gold.Chemscore.DG>
-11.3150

> <Gold.Chemscore.ZeroCoef>
-5.4800

> <Gold.Chemscore.Hbond>
1.9343

> <Gold.Chemscore.Metal>
0.0000

> <Gold.Chemscore.Lipo>
51.8425

> <Gold.Chemscore.Internal_Hbond>
0.0000

> <Gold.Chemscore.DEClash>
0.0466

> <Gold.Chemscore.DEInternal>
3.3052

> <Gold.Chemscore.Rot>
2.6138

> <Gold.Chemscore.Internal.Correction>
   9.000000E+99

> <Gold.Chemscore.Hbonds>
donor molecule, donor type, donor heavy atom, donor atom, acceptor molecule, acceptor atom, score
      L1  H     4    41       P1  7948  0.91
      L1  H    10    34       P1  7948  0.99
      P1  H 10752 10765       L1    17  0.08

> <Gold.Chemscore.Hbond.Weighted>
-6.4607

> <Gold.Chemscore.Metal.Weighted>
-0.0000

> <Gold.Chemscore.Lipo.Weighted>
-6.0656

> <Gold.Chemscore.Internal_Hbond.Weighted>
0.0000

> <Gold.Chemscore.DEClash.Weighted>
0.0466

> <Gold.Chemscore.DEInternal.Weighted>
3.3052

> <Gold.Chemscore.Rot.Weighted>
6.6912

> <Gold.Chemscore.Internal.Correction.Weighted>
   9.000000E+99

> <Gold.Protein.RotatedTorsions>
[ 6907 6896 6895 6894 ] final  -48.23 input  -60.11 | X-H torsion
[ 7974 7965 7964 7962 ] final -145.97 input  175.53 | X-H torsion
[ 8008 7997 7996 7995 ] final -118.35 input   59.86 | X-H torsion
[ 10167 10162 10161 10158 ] final  141.30 input  -65.29 | X-H torsion
[ 10718 10713 10712 10709 ] final -145.82 input   66.30 | X-H torsion
[ 10763 10752 10751 10750 ] final -136.87 input  -60.55 | X-H torsion
[ 11005 11000 10999 10996 ] final    6.95 input  -57.11 | X-H torsion

> <Gold.Protein.ActiveResidues>
 VAL166  LYS551  ARG553  GLY616  TRP617  ASP618  TYR619  PRO620  LYS621  CYS622 
 ASP623  PHE694  ASN695  SER759  ASP760  ASP761  ALA762  ILE779  LEU786  VAL792 
 PHE793  MET794  SER795  GLU796  ALA797  LYS798  CYS799  TRP800  GLU811  SER814 

> <Gold.Protein.RotatedAtoms>
  150.8927  134.8332  159.7304 H   0  0  0  0  0  0  0  0  0  0  0  0  # atno 6907 bound_to 6896
  152.4846  134.4624  159.9619 H   0  0  0  0  0  0  0  0  0  0  0  0  # atno 6908 bound_to 6896
  151.4684  133.3536  159.2855 H   0  0  0  0  0  0  0  0  0  0  0  0  # atno 6909 bound_to 6896
  144.8191  140.5516  143.5590 H   0  0  0  0  0  0  0  0  0  0  0  0  # atno 7974 bound_to 7965
  155.0983  140.0395  157.2689 H   0  0  0  0  0  0  0  0  0  0  0  0  # atno 8008 bound_to 7997
  154.6778  140.2626  155.6914 H   0  0  0  0  0  0  0  0  0  0  0  0  # atno 8009 bound_to 7997
  156.2683  140.2784  156.1311 H   0  0  0  0  0  0  0  0  0  0  0  0  # atno 8010 bound_to 7997
  139.5024  144.6180  151.6118 H   0  0  0  0  0  0  0  0  0  0  0  0  # atno 10167 bound_to 10162
  156.3872  130.7867  151.2066 H   0  0  0  0  0  0  0  0  0  0  0  0  # atno 10718 bound_to 10713
  154.8674  135.3659  154.5130 H   0  0  0  0  0  0  0  0  0  0  0  0  # atno 10763 bound_to 10752
  153.5764  135.7019  153.5487 H   0  0  0  0  0  0  0  0  0  0  0  0  # atno 10764 bound_to 10752
  153.3496  135.4076  155.1598 H   0  0  0  0  0  0  0  0  0  0  0  0  # atno 10765 bound_to 10752
  140.5537  134.0258  155.7946 H   0  0  0  0  0  0  0  0  0  0  0  0  # atno 11005 bound_to 11000
  145.5146  139.1478  143.3586 LP  0  0  0  0  0  0  0  0  0  0  0  0  # atno 17320 bound_to 7965
  146.2496  140.5287  142.8899 LP  0  0  0  0  0  0  0  0  0  0  0  0  # atno 17321 bound_to 7965
  140.5874  143.9841  150.6303 LP  0  0  0  0  0  0  0  0  0  0  0  0  # atno 17342 bound_to 10162
  140.3010  143.3261  152.0972 LP  0  0  0  0  0  0  0  0  0  0  0  0  # atno 17343 bound_to 10162
  157.7496  131.0326  150.4235 LP  0  0  0  0  0  0  0  0  0  0  0  0  # atno 17370 bound_to 10713
  156.4490  130.4007  149.6648 LP  0  0  0  0  0  0  0  0  0  0  0  0  # atno 17371 bound_to 10713
  141.1156  133.9545  157.2828 LP  0  0  0  0  0  0  0  0  0  0  0  0  # atno 17394 bound_to 11000
  139.9442  135.0186  156.8802 LP  0  0  0  0  0  0  0  0  0  0  0  0  # atno 17395 bound_to 11000

$$$$
