AV-unprocessed.smi:1331|AV-procd|sdf|5487|dock10
  -GOLD-   22720 5 63D 1   1.00000     0.00000
 Structure written by MMmdl.
 38 39  0  0  0  0  0  0  0  0  1 V2000
  151.6061  138.1934  155.3572 C   0  0  0  0  0  0  0  0  0  0  0  0
  150.5747  139.2906  155.6599 C   0  0  2  0  0  0  0  0  0  0  0  0
  149.8572  139.7664  154.3822 C   0  0  0  0  0  0  0  0  0  0  0  0
  148.7725  140.6884  154.6724 N   0  0  0  0  0  0  0  0  0  0  0  0
  147.9990  141.4057  153.7844 C   0  0  0  0  0  0  0  0  0  0  0  0
  147.1001  142.1253  154.5182 C   0  0  0  0  0  0  0  0  0  0  0  0
  147.4058  141.7770  155.8635 C   0  0  0  0  0  0  0  0  0  0  0  0
  148.4078  140.9177  155.9529 N   0  0  0  0  0  0  0  0  0  0  0  0
  151.2310  140.4198  156.3146 N   0  0  0  0  0  0  0  0  0  0  0  0
  151.3872  140.5718  157.6383 C   0  0  0  0  0  0  0  0  0  0  0  0
  151.0238  139.7333  158.4636 O   0  0  0  0  0  0  0  0  0  0  0  0
  152.0505  141.8763  158.0986 C   0  0  0  0  0  0  0  0  0  0  0  0
  152.1110  141.9567  159.6391 C   0  0  0  0  0  0  0  0  0  0  0  0
  152.7591  143.2707  160.1049 C   0  0  0  0  0  0  0  0  0  0  0  0
  152.0243  144.4896  159.5252 C   0  0  0  0  0  0  0  0  0  0  0  0
  151.9519  144.4173  157.9916 C   0  0  0  0  0  0  0  0  0  0  0  0
  151.3072  143.1017  157.5251 C   0  0  0  0  0  0  0  0  0  0  0  0
  151.1348  137.3333  154.8815 H   0  0  0  0  0  0  0  0  0  0  0  0
  152.0855  137.8399  156.2709 H   0  0  0  0  0  0  0  0  0  0  0  0
  152.3879  138.5566  154.6893 H   0  0  0  0  0  0  0  0  0  0  0  0
  149.8208  138.8699  156.3283 H   0  0  0  0  0  0  0  0  0  0  0  0
  150.5613  140.2429  153.6979 H   0  0  0  0  0  0  0  0  0  0  0  0
  149.4354  138.9134  153.8493 H   0  0  0  0  0  0  0  0  0  0  0  0
  148.1493  141.3417  152.7167 H   0  0  0  0  0  0  0  0  0  0  0  0
  146.3392  142.7971  154.1501 H   0  0  0  0  0  0  0  0  0  0  0  0
  146.9324  142.1209  156.7714 H   0  0  0  0  0  0  0  0  0  0  0  0
  151.5576  141.1632  155.7141 H   0  0  0  0  0  0  0  0  0  0  0  0
  153.0742  141.8928  157.7192 H   0  0  0  0  0  0  0  0  0  0  0  0
  151.1070  141.8844  160.0608 H   0  0  0  0  0  0  0  0  0  0  0  0
  152.6742  141.1118  160.0374 H   0  0  0  0  0  0  0  0  0  0  0  0
  152.7585  143.3198  161.1942 H   0  0  0  0  0  0  0  0  0  0  0  0
  153.8048  143.2927  159.7953 H   0  0  0  0  0  0  0  0  0  0  0  0
  151.0152  144.5365  159.9363 H   0  0  0  0  0  0  0  0  0  0  0  0
  152.5265  145.4076  159.8316 H   0  0  0  0  0  0  0  0  0  0  0  0
  151.3855  145.2654  157.6061 H   0  0  0  0  0  0  0  0  0  0  0  0
  152.9559  144.5002  157.5736 H   0  0  0  0  0  0  0  0  0  0  0  0
  151.3066  143.0633  156.4347 H   0  0  0  0  0  0  0  0  0  0  0  0
  150.2608  143.0865  157.8347 H   0  0  0  0  0  0  0  0  0  0  0  0
  1  2  1  0  0  0  0
  1 18  1  0  0  0  0
  1 19  1  0  0  0  0
  1 20  1  0  0  0  0
  2  3  1  0  0  0  0
  2  9  1  0  0  0  0
  2 21  1  0  0  0  0
  3  4  1  0  0  0  0
  3 22  1  0  0  0  0
  3 23  1  0  0  0  0
  4  8  1  0  0  0  0
  4  5  1  0  0  0  0
  5  6  2  0  0  0  0
  5 24  1  0  0  0  0
  6  7  1  0  0  0  0
  6 25  1  0  0  0  0
  7  8  2  0  0  0  0
  7 26  1  0  0  0  0
  9 10  1  0  0  0  0
  9 27  1  0  0  0  0
 10 11  2  0  0  0  0
 10 12  1  0  0  0  0
 12 17  1  0  0  0  0
 12 13  1  0  0  0  0
 12 28  1  0  0  0  0
 13 14  1  0  0  0  0
 13 29  1  0  0  0  0
 13 30  1  0  0  0  0
 14 15  1  0  0  0  0
 14 31  1  0  0  0  0
 14 32  1  0  0  0  0
 15 16  1  0  0  0  0
 15 33  1  0  0  0  0
 15 34  1  0  0  0  0
 16 17  1  0  0  0  0
 16 35  1  0  0  0  0
 16 36  1  0  0  0  0
 17 37  1  0  0  0  0
 17 38  1  0  0  0  0
M  END
> <s_m_source_file>
AV-unprocessed.smi

> <i_m_source_file_index>
1331

> <i_lp_mmshare_version>
43012

> <i_f3d_flags>
0

> <s_epik_input>
bjFbY0hdW2NIXVtjSF1uMVtDSDJdW0NAQEhdKFtDSDNdKVtOSF1DKD1PKVtDSF0yW0NIMl1bQ0gyXVtDSDJdW0NIMl1bQ0gyXTI=

> <s_epik_cmdline>
J2VwaWtfcHl0aG9uJywgJy1waCcsICc3LjAnLCAnLXRuJywgJzgnLCAnLW1hJywgJzIwMCcsICctbWV0YWxfYmluZGluZycsICctaW1hZScsICc8aW5maWxlLm1hZT4nLCAnLW9tYWUnLCAnPG91dGZpbGUubWFlPic=

> <r_lp_tautomer_probability>
1

> <r_epik_Ionization_Penalty>
0.000326658

> <r_epik_Ionization_Penalty_Charging>
0

> <r_epik_Ionization_Penalty_Neutral>
0.000326658

> <r_epik_State_Penalty>
-0

> <r_epik_Charging_Adjusted_Penalty>
0

> <i_epik_Tot_Q>
0

> <i_epik_Tot_abs_Q>
0

> <r_epik_Metal_State_Penalty>
-0

> <b_epik_Metal_Only>
0

> <s_lp_Force_Field>
OPLS_2005

> <r_lp_Energy>
10.6365

> <b_lp_Chiralities_Consistent>
1

> <s_lp_Variant>
AV-unprocessed.smi:1331-1

> <Gold.Version>
5.8.1

> <Gold.Id.Protein>
6NUR|6NUR_protein|mol2

> <Gold.PLP.Fitness>
39.9095

> <Gold.PLP.PLP>
-37.8196

> <Gold.PLP.part.hbond>
0.0000

> <Gold.PLP.part.metal>
0.0000

> <Gold.PLP.part.buried>
-4.6329

> <Gold.PLP.part.nonpolar>
-34.0400

> <Gold.PLP.part.repulsive>
0.1766

> <Gold.PLP.ligand.clash>
0.0000

> <Gold.PLP.ligand.torsion>
0.4722

> <Gold.PLP.Chemscore.Hbond>
0.0000

> <Gold.PLP.Chemscore.CHOScore>
1.0000

> <Gold.PLP.Chemscore.Metal>
0.0000

> <Gold.Chemscore.Hbonds>
donor molecule, donor type, donor heavy atom, donor atom, acceptor molecule, acceptor atom, score
      L1  C     5    24       P1  7957  1.00

> <Gold.PLP.Chemscore.Internal.Correction>
0.0342

> <Gold.Rescore>
     Score         DG    S(hbond)    S(metal)    S(lipo)     H(rot)  DE(clash)    DE(int)     intcor
     13.58     -14.06       0.00        0.00     105.98       1.49       0.06       0.43       ----

> <Gold.Chemscore.Fitness>
13.5796

> <Gold.Chemscore.DG>
-14.0647

> <Gold.Chemscore.ZeroCoef>
-5.4800

> <Gold.Chemscore.Hbond>
0.0000

> <Gold.Chemscore.Metal>
0.0000

> <Gold.Chemscore.Lipo>
105.9790

> <Gold.Chemscore.Internal_Hbond>
0.0000

> <Gold.Chemscore.DEClash>
0.0589

> <Gold.Chemscore.DEInternal>
0.4262

> <Gold.Chemscore.Rot>
1.4902

> <Gold.Chemscore.Internal.Correction>
   9.000000E+99

> <Gold.Chemscore.Hbond.Weighted>
-0.0000

> <Gold.Chemscore.Metal.Weighted>
-0.0000

> <Gold.Chemscore.Lipo.Weighted>
-12.3995

> <Gold.Chemscore.Internal_Hbond.Weighted>
0.0000

> <Gold.Chemscore.DEClash.Weighted>
0.0589

> <Gold.Chemscore.DEInternal.Weighted>
0.4262

> <Gold.Chemscore.Rot.Weighted>
3.8149

> <Gold.Chemscore.Internal.Correction.Weighted>
   9.000000E+99

> <Gold.Protein.RotatedTorsions>
[ 6907 6896 6895 6894 ] final    9.33 input  -60.11 | X-H torsion
[ 7974 7965 7964 7962 ] final  158.56 input  175.53 | X-H torsion
[ 8008 7997 7996 7995 ] final -179.29 input   59.86 | X-H torsion
[ 10167 10162 10161 10158 ] final  -38.66 input  -65.29 | X-H torsion
[ 10718 10713 10712 10709 ] final  -88.48 input   66.30 | X-H torsion
[ 10763 10752 10751 10750 ] final -163.30 input  -60.55 | X-H torsion
[ 11005 11000 10999 10996 ] final   13.11 input  -57.11 | X-H torsion

> <Gold.Protein.ActiveResidues>
 VAL166  LYS551  ARG553  GLY616  TRP617  ASP618  TYR619  PRO620  LYS621  CYS622 
 ASP623  PHE694  ASN695  SER759  ASP760  ASP761  ALA762  ILE779  LEU786  VAL792 
 PHE793  MET794  SER795  GLU796  ALA797  LYS798  CYS799  TRP800  GLU811  SER814 

> <Gold.Protein.RotatedAtoms>
  151.7204  135.0895  160.0282 H   0  0  0  0  0  0  0  0  0  0  0  0  # atno 6907 bound_to 6896
  152.3605  133.6287  159.6020 H   0  0  0  0  0  0  0  0  0  0  0  0  # atno 6908 bound_to 6896
  150.7601  133.9347  159.3479 H   0  0  0  0  0  0  0  0  0  0  0  0  # atno 6909 bound_to 6896
  144.7839  139.7495  143.6249 H   0  0  0  0  0  0  0  0  0  0  0  0  # atno 7974 bound_to 7965
  156.0288  140.1277  157.0280 H   0  0  0  0  0  0  0  0  0  0  0  0  # atno 8008 bound_to 7997
  154.4341  140.1053  156.6140 H   0  0  0  0  0  0  0  0  0  0  0  0  # atno 8009 bound_to 7997
  155.5837  140.3468  155.4549 H   0  0  0  0  0  0  0  0  0  0  0  0  # atno 8010 bound_to 7997
  140.7086  143.3263  151.2673 H   0  0  0  0  0  0  0  0  0  0  0  0  # atno 10167 bound_to 10162
  155.9983  130.4837  150.5026 H   0  0  0  0  0  0  0  0  0  0  0  0  # atno 10718 bound_to 10713
  154.7135  135.3011  154.9160 H   0  0  0  0  0  0  0  0  0  0  0  0  # atno 10763 bound_to 10752
  154.0054  135.6701  153.4766 H   0  0  0  0  0  0  0  0  0  0  0  0  # atno 10764 bound_to 10752
  153.0774  135.5027  154.8347 H   0  0  0  0  0  0  0  0  0  0  0  0  # atno 10765 bound_to 10752
  140.4844  134.0903  155.7757 H   0  0  0  0  0  0  0  0  0  0  0  0  # atno 11005 bound_to 11000
  146.2061  139.5386  142.9712 LP  0  0  0  0  0  0  0  0  0  0  0  0  # atno 17320 bound_to 7965
  145.5975  141.0360  143.2036 LP  0  0  0  0  0  0  0  0  0  0  0  0  # atno 17321 bound_to 7965
  139.6732  143.9984  152.2765 LP  0  0  0  0  0  0  0  0  0  0  0  0  # atno 17342 bound_to 10162
  139.9589  144.6571  150.8099 LP  0  0  0  0  0  0  0  0  0  0  0  0  # atno 17343 bound_to 10162
  157.3009  131.0645  151.2069 LP  0  0  0  0  0  0  0  0  0  0  0  0  # atno 17370 bound_to 10713
  157.3049  130.6861  149.6184 LP  0  0  0  0  0  0  0  0  0  0  0  0  # atno 17371 bound_to 10713
  141.1515  133.8960  157.2085 LP  0  0  0  0  0  0  0  0  0  0  0  0  # atno 17394 bound_to 11000
  139.9807  135.0099  156.9742 LP  0  0  0  0  0  0  0  0  0  0  0  0  # atno 17395 bound_to 11000

$$$$
