AV-unprocessed.smi:2137|AV-procd|sdf|8706|dock7
  -GOLD-   2272011463D 1   1.00000     0.00000
 Structure written by MMmdl.
 50 51  0  0  0  0  0  0  0  0  2 V2000
  147.2476  130.9539  153.1340 C   0  0  0  0  0  0  0  0  0  0  0  0
  145.8237  131.3662  152.7357 C   0  0  2  0  0  0  0  0  0  0  0  0
  145.5445  131.0614  151.2545 C   0  0  0  0  0  0  0  0  0  0  0  0
  144.1265  131.5083  150.8779 C   0  0  0  0  0  0  0  0  0  0  0  0
  143.9062  132.9899  151.2227 C   0  0  0  0  0  0  0  0  0  0  0  0
  144.1788  133.2521  152.6596 N   0  3  2  0  0  0  0  0  0  0  0  0
  143.8433  134.6450  153.0490 C   0  0  0  0  0  0  0  0  0  0  0  0
  144.8537  135.6697  152.4984 C   0  0  0  0  0  0  0  0  0  0  0  0
  146.1096  135.8195  153.3755 C   0  0  0  0  0  0  0  0  0  0  0  0
  146.8242  137.0638  153.1137 N   0  0  0  0  0  0  0  0  0  0  0  0
  147.0758  138.0187  154.0224 C   0  0  0  0  0  0  0  0  0  0  0  0
  146.7349  137.9377  155.2019 O   0  0  0  0  0  0  0  0  0  0  0  0
  147.8314  139.2557  153.5273 C   0  0  0  0  0  0  0  0  0  0  0  0
  149.1341  139.3991  154.1889 N   0  0  0  0  0  0  0  0  0  0  0  0
  150.0684  138.3852  154.0756 C   0  0  0  0  0  0  0  0  0  0  0  0
  151.2881  138.4269  154.6544 C   0  0  0  0  0  0  0  0  0  0  0  0
  151.6955  139.5741  155.4555 C   0  0  0  0  0  0  0  0  0  0  0  0
  152.7992  139.6668  155.9947 O   0  0  0  0  0  0  0  0  0  0  0  0
  150.7203  140.5917  155.5655 N   0  0  0  0  0  0  0  0  0  0  0  0
  151.0831  141.7546  156.3489 C   0  0  0  0  0  0  0  0  0  0  0  0
  149.4488  140.5488  154.9471 C   0  0  0  0  0  0  0  0  0  0  0  0
  148.6327  141.4676  155.0522 O   0  0  0  0  0  0  0  0  0  0  0  0
  145.5640  132.8569  153.0327 C   0  0  0  0  0  0  0  0  0  0  0  0
  147.9950  131.5063  152.5637 H   0  0  0  0  0  0  0  0  0  0  0  0
  147.4123  129.8908  152.9565 H   0  0  0  0  0  0  0  0  0  0  0  0
  147.4303  131.1426  154.1924 H   0  0  0  0  0  0  0  0  0  0  0  0
  145.1308  130.7770  153.3387 H   0  0  0  0  0  0  0  0  0  0  0  0
  146.2711  131.5762  150.6241 H   0  0  0  0  0  0  0  0  0  0  0  0
  145.6616  129.9949  151.0580 H   0  0  0  0  0  0  0  0  0  0  0  0
  143.9549  131.3435  149.8136 H   0  0  0  0  0  0  0  0  0  0  0  0
  143.3958  130.8956  151.4077 H   0  0  0  0  0  0  0  0  0  0  0  0
  144.5497  133.6210  150.6072 H   0  0  0  0  0  0  0  0  0  0  0  0
  142.8762  133.2599  150.9861 H   0  0  0  0  0  0  0  0  0  0  0  0
  142.8269  134.8808  152.7299 H   0  0  0  0  0  0  0  0  0  0  0  0
  143.8495  134.7238  154.1371 H   0  0  0  0  0  0  0  0  0  0  0  0
  145.1635  135.3636  151.4985 H   0  0  0  0  0  0  0  0  0  0  0  0
  144.3855  136.6467  152.3824 H   0  0  0  0  0  0  0  0  0  0  0  0
  145.8310  135.8035  154.4295 H   0  0  0  0  0  0  0  0  0  0  0  0
  146.7774  134.9697  153.2236 H   0  0  0  0  0  0  0  0  0  0  0  0
  147.1321  137.2245  152.1650 H   0  0  0  0  0  0  0  0  0  0  0  0
  147.9768  139.1729  152.4488 H   0  0  0  0  0  0  0  0  0  0  0  0
  147.2130  140.1440  153.6669 H   0  0  0  0  0  0  0  0  0  0  0  0
  149.8110  137.5118  153.4940 H   0  0  0  0  0  0  0  0  0  0  0  0
  151.9712  137.6002  154.5235 H   0  0  0  0  0  0  0  0  0  0  0  0
  150.2156  142.3848  156.5432 H   0  0  0  0  0  0  0  0  0  0  0  0
  151.8357  142.3004  155.7778 H   0  0  0  0  0  0  0  0  0  0  0  0
  151.4816  141.4045  157.3029 H   0  0  0  0  0  0  0  0  0  0  0  0
  145.7320  133.0394  154.0936 H   0  0  0  0  0  0  0  0  0  0  0  0
  146.2778  133.4801  152.4908 H   0  0  0  0  0  0  0  0  0  0  0  0
  143.5519  132.6525  153.1769 H   0  0  0  0  0  0  0  0  0  0  0  0
  1  2  1  0  0  0  0
  1 24  1  0  0  0  0
  1 25  1  0  0  0  0
  1 26  1  0  0  0  0
  2 23  1  0  0  0  0
  2  3  1  0  0  0  0
  2 27  1  0  0  0  0
  3  4  1  0  0  0  0
  3 28  1  0  0  0  0
  3 29  1  0  0  0  0
  4  5  1  0  0  0  0
  4 30  1  0  0  0  0
  4 31  1  0  0  0  0
  5  6  1  0  0  0  0
  5 32  1  0  0  0  0
  5 33  1  0  0  0  0
  6  7  1  0  0  0  0
  6 23  1  0  0  0  0
  6 50  1  0  0  0  0
  7  8  1  0  0  0  0
  7 34  1  0  0  0  0
  7 35  1  0  0  0  0
  8  9  1  0  0  0  0
  8 36  1  0  0  0  0
  8 37  1  0  0  0  0
  9 10  1  0  0  0  0
  9 38  1  0  0  0  0
  9 39  1  0  0  0  0
 10 11  1  0  0  0  0
 10 40  1  0  0  0  0
 11 12  2  0  0  0  0
 11 13  1  0  0  0  0
 13 14  1  0  0  0  0
 13 41  1  0  0  0  0
 13 42  1  0  0  0  0
 14 21  1  0  0  0  0
 14 15  1  0  0  0  0
 15 16  2  0  0  0  0
 15 43  1  0  0  0  0
 16 17  1  0  0  0  0
 16 44  1  0  0  0  0
 17 18  2  0  0  0  0
 17 19  1  0  0  0  0
 19 20  1  0  0  0  0
 19 21  1  0  0  0  0
 20 45  1  0  0  0  0
 20 46  1  0  0  0  0
 20 47  1  0  0  0  0
 21 22  2  0  0  0  0
 23 48  1  0  0  0  0
 23 49  1  0  0  0  0
M  CHG  1   6   1
M  END
> <s_m_source_file>
AV-unprocessed.smi

> <i_m_source_file_index>
2137

> <i_lp_mmshare_version>
43012

> <i_f3d_flags>
0

> <s_epik_input>
W0NIM11bQ0BASF0xW0NIMl1bQ0gyXVtDSDJdTihbQ0gyXTEpW0NIMl1bQ0gyXVtDSDJdW05IXUMoPU8pW0NIMl1uMltjSF1bY0hdYyg9TyluKFtDSDNdKWMyPU8=

> <s_epik_cmdline>
J2VwaWtfcHl0aG9uJywgJy1waCcsICc3LjAnLCAnLXRuJywgJzgnLCAnLW1hJywgJzIwMCcsICctbWV0YWxfYmluZGluZycsICctaW1hZScsICc8aW5maWxlLm1hZT4nLCAnLW9tYWUnLCAnPG91dGZpbGUubWFlPic=

> <r_lp_tautomer_probability>
1

> <r_epik_Ionization_Penalty>
0.000384839

> <r_epik_Ionization_Penalty_Charging>
0.000384812

> <r_epik_Ionization_Penalty_Neutral>
2.6907e-08

> <r_epik_State_Penalty>
0.000235226

> <r_epik_Charging_Adjusted_Penalty>
0.000620038

> <i_epik_Tot_Q>
1

> <i_epik_Tot_abs_Q>
1

> <r_epik_Metal_State_Penalty>
-0

> <b_epik_Metal_Only>
0

> <s_lp_Force_Field>
OPLS_2005

> <r_lp_Energy>
29.3938

> <b_lp_Chiralities_Consistent>
1

> <s_lp_Variant>
AV-unprocessed.smi:2137-1

> <Gold.Version>
5.8.1

> <Gold.Id.Protein>
6NUR|6NUR_protein|mol2

> <Gold.PLP.Fitness>
50.9606

> <Gold.PLP.PLP>
-39.0130

> <Gold.PLP.part.hbond>
-3.0000

> <Gold.PLP.part.metal>
0.0000

> <Gold.PLP.part.buried>
-3.4721

> <Gold.PLP.part.nonpolar>
-33.8119

> <Gold.PLP.part.repulsive>
0.1802

> <Gold.PLP.ligand.clash>
0.0000

> <Gold.PLP.ligand.torsion>
0.2720

> <Gold.PLP.Chemscore.Hbond>
3.1447

> <Gold.PLP.Chemscore.CHOScore>
1.0000

> <Gold.PLP.Chemscore.Metal>
0.0000

> <Gold.Chemscore.Hbonds>
donor molecule, donor type, donor heavy atom, donor atom, acceptor molecule, acceptor atom, score
      L1  H     6    50       P1 10957  2.00
      L1  H    10    40       P1  7948  0.18
      P1  H  7997  8009       L1    18  1.00
      L1  C    15    43       P1  7948  1.00

> <Gold.PLP.Chemscore.Internal.Correction>
0.0574

> <Gold.Rescore>
     Score         DG    S(hbond)    S(metal)    S(lipo)     H(rot)  DE(clash)    DE(int)     intcor
     15.45     -15.92       2.27        0.00      74.38       2.27       0.01       0.46       ----

> <Gold.Chemscore.Fitness>
15.4548

> <Gold.Chemscore.DG>
-15.9246

> <Gold.Chemscore.ZeroCoef>
-5.4800

> <Gold.Chemscore.Hbond>
2.2651

> <Gold.Chemscore.Metal>
0.0000

> <Gold.Chemscore.Lipo>
74.3803

> <Gold.Chemscore.Internal_Hbond>
0.0000

> <Gold.Chemscore.DEClash>
0.0069

> <Gold.Chemscore.DEInternal>
0.4629

> <Gold.Chemscore.Rot>
2.2748

> <Gold.Chemscore.Internal.Correction>
   9.000000E+99

> <Gold.Chemscore.Hbonds>
donor molecule, donor type, donor heavy atom, donor atom, acceptor molecule, acceptor atom, score
      L1  H     6    50       P1 10957  0.24
      L1  H    10    40       P1  7948  0.17
      P1  H  7997  8009       L1    18  1.00

> <Gold.Chemscore.Hbond.Weighted>
-7.5655

> <Gold.Chemscore.Metal.Weighted>
-0.0000

> <Gold.Chemscore.Lipo.Weighted>
-8.7025

> <Gold.Chemscore.Internal_Hbond.Weighted>
0.0000

> <Gold.Chemscore.DEClash.Weighted>
0.0069

> <Gold.Chemscore.DEInternal.Weighted>
0.4629

> <Gold.Chemscore.Rot.Weighted>
5.8234

> <Gold.Chemscore.Internal.Correction.Weighted>
   9.000000E+99

> <Gold.Protein.RotatedTorsions>
[ 6907 6896 6895 6894 ] final  -22.61 input  -60.11 | X-H torsion
[ 7974 7965 7964 7962 ] final -123.64 input  175.53 | X-H torsion
[ 8008 7997 7996 7995 ] final -164.40 input   59.86 | X-H torsion
[ 10167 10162 10161 10158 ] final -101.42 input  -65.29 | X-H torsion
[ 10718 10713 10712 10709 ] final   19.85 input   66.30 | X-H torsion
[ 10763 10752 10751 10750 ] final -153.69 input  -60.55 | X-H torsion
[ 11005 11000 10999 10996 ] final -135.01 input  -57.11 | X-H torsion

> <Gold.Protein.ActiveResidues>
 VAL166  LYS551  ARG553  GLY616  TRP617  ASP618  TYR619  PRO620  LYS621  CYS622 
 ASP623  PHE694  ASN695  SER759  ASP760  ASP761  ALA762  ILE779  LEU786  VAL792 
 PHE793  MET794  SER795  GLU796  ALA797  LYS798  CYS799  TRP800  GLU811  SER814 

> <Gold.Protein.RotatedAtoms>
  151.2160  135.0500  159.8930 H   0  0  0  0  0  0  0  0  0  0  0  0  # atno 6907 bound_to 6896
  152.5420  134.0692  159.8196 H   0  0  0  0  0  0  0  0  0  0  0  0  # atno 6908 bound_to 6896
  151.0852  133.5311  159.2650 H   0  0  0  0  0  0  0  0  0  0  0  0  # atno 6909 bound_to 6896
  145.0166  140.7952  143.4406 H   0  0  0  0  0  0  0  0  0  0  0  0  # atno 7974 bound_to 7965
  155.8351  140.0940  157.1769 H   0  0  0  0  0  0  0  0  0  0  0  0  # atno 8008 bound_to 7997
  154.3980  140.1411  156.3722 H   0  0  0  0  0  0  0  0  0  0  0  0  # atno 8009 bound_to 7997
  155.8124  140.3449  155.5468 H   0  0  0  0  0  0  0  0  0  0  0  0  # atno 8010 bound_to 7997
  140.2415  143.3535  152.0797 H   0  0  0  0  0  0  0  0  0  0  0  0  # atno 10167 bound_to 10162
  157.1162  130.6530  149.5911 H   0  0  0  0  0  0  0  0  0  0  0  0  # atno 10718 bound_to 10713
  154.7910  135.3207  154.7776 H   0  0  0  0  0  0  0  0  0  0  0  0  # atno 10763 bound_to 10752
  153.8465  135.6866  153.4801 H   0  0  0  0  0  0  0  0  0  0  0  0  # atno 10764 bound_to 10752
  153.1581  135.4672  154.9673 H   0  0  0  0  0  0  0  0  0  0  0  0  # atno 10765 bound_to 10752
  140.8937  134.1779  157.4509 H   0  0  0  0  0  0  0  0  0  0  0  0  # atno 11005 bound_to 11000
  145.1952  139.2280  143.5222 LP  0  0  0  0  0  0  0  0  0  0  0  0  # atno 17320 bound_to 7965
  146.3479  140.1757  142.8589 LP  0  0  0  0  0  0  0  0  0  0  0  0  # atno 17321 bound_to 7965
  139.5076  144.6834  151.5949 LP  0  0  0  0  0  0  0  0  0  0  0  0  # atno 17342 bound_to 10162
  140.6110  143.9436  150.6453 LP  0  0  0  0  0  0  0  0  0  0  0  0  # atno 17343 bound_to 10162
  155.9839  130.4861  150.6955 LP  0  0  0  0  0  0  0  0  0  0  0  0  # atno 17370 bound_to 10713
  157.4516  131.0873  151.0840 LP  0  0  0  0  0  0  0  0  0  0  0  0  # atno 17371 bound_to 10713
  139.8733  134.9869  156.5346 LP  0  0  0  0  0  0  0  0  0  0  0  0  # atno 17394 bound_to 11000
  140.8315  133.8275  155.8988 LP  0  0  0  0  0  0  0  0  0  0  0  0  # atno 17395 bound_to 11000

$$$$
