AV-unprocessed.smi:2528|AV-procd|sdf|9959|dock5
  -GOLD-   2272014 03D 1   1.00000     0.00000
 Structure written by MMmdl.
 43 45  0  0  0  0  0  0  0  0  1 V2000
  150.2440  136.4300  158.7252 O   0  0  0  0  0  0  0  0  0  0  0  0
  149.4388  137.3461  158.5540 C   0  0  0  0  0  0  0  0  0  0  0  0
  149.6449  138.3605  157.7021 N   0  0  0  0  0  0  0  0  0  0  0  0
  150.8350  138.5312  156.8759 C   0  0  0  0  0  0  0  0  0  0  0  0
  151.6637  139.7482  157.3194 C   0  0  1  0  0  0  0  0  0  0  0  0
  150.7956  141.0111  157.4727 C   0  0  0  0  0  0  0  0  0  0  0  0
  151.5675  142.1447  157.9662 N   0  0  0  0  0  0  0  0  0  0  0  0
  150.7297  143.3333  158.1173 C   0  0  0  0  0  0  0  0  0  0  0  0
  151.5281  144.5540  158.6014 C   0  0  0  0  0  0  0  0  0  0  0  0
  152.2390  144.2348  159.9243 C   0  0  0  0  0  0  0  0  0  0  0  0
  153.0749  142.9539  159.7778 C   0  0  0  0  0  0  0  0  0  0  0  0
  152.2173  141.7931  159.2325 C   0  0  2  0  0  0  0  0  0  0  0  0
  153.0668  140.5151  159.0784 C   0  0  0  0  0  0  0  0  0  0  0  0
  152.2593  139.4536  158.5806 O   0  0  0  0  0  0  0  0  0  0  0  0
  148.2573  137.4721  159.1836 N   0  0  0  0  0  0  0  0  0  0  0  0
  147.6623  136.5871  160.1219 C   0  0  0  0  0  0  0  0  0  0  0  0
  147.8172  135.2130  159.8296 C   0  0  0  0  0  0  0  0  0  0  0  0
  147.2729  134.2524  160.7041 C   0  0  0  0  0  0  0  0  0  0  0  0
  146.5859  134.6910  161.8499 C   0  0  0  0  0  0  0  0  0  0  0  0
  146.4746  136.0770  162.0660 C   0  0  0  0  0  0  0  0  0  0  0  0
  146.9959  136.9994  161.2295 N   0  0  0  0  0  0  0  0  0  0  0  0
  148.9353  139.0744  157.6276 H   0  0  0  0  0  0  0  0  0  0  0  0
  151.4425  137.6252  156.9107 H   0  0  0  0  0  0  0  0  0  0  0  0
  150.5194  138.6517  155.8391 H   0  0  0  0  0  0  0  0  0  0  0  0
  152.4494  139.9407  156.5863 H   0  0  0  0  0  0  0  0  0  0  0  0
  150.3490  141.2635  156.5101 H   0  0  0  0  0  0  0  0  0  0  0  0
  149.9692  140.8025  158.1543 H   0  0  0  0  0  0  0  0  0  0  0  0
  150.2583  143.5728  157.1634 H   0  0  0  0  0  0  0  0  0  0  0  0
  149.9196  143.1284  158.8189 H   0  0  0  0  0  0  0  0  0  0  0  0
  152.2636  144.8343  157.8463 H   0  0  0  0  0  0  0  0  0  0  0  0
  150.8665  145.4114  158.7268 H   0  0  0  0  0  0  0  0  0  0  0  0
  152.8728  145.0690  160.2261 H   0  0  0  0  0  0  0  0  0  0  0  0
  151.4991  144.1010  160.7145 H   0  0  0  0  0  0  0  0  0  0  0  0
  153.9123  143.1421  159.1043 H   0  0  0  0  0  0  0  0  0  0  0  0
  153.5065  142.6836  160.7419 H   0  0  0  0  0  0  0  0  0  0  0  0
  151.4411  141.5803  159.9703 H   0  0  0  0  0  0  0  0  0  0  0  0
  153.9083  140.6831  158.4042 H   0  0  0  0  0  0  0  0  0  0  0  0
  153.4829  140.2152  160.0404 H   0  0  0  0  0  0  0  0  0  0  0  0
  147.7123  138.2892  158.9521 H   0  0  0  0  0  0  0  0  0  0  0  0
  148.3493  134.8929  158.9454 H   0  0  0  0  0  0  0  0  0  0  0  0
  147.3825  133.1978  160.4991 H   0  0  0  0  0  0  0  0  0  0  0  0
  146.1562  133.9847  162.5448 H   0  0  0  0  0  0  0  0  0  0  0  0
  145.9549  136.4551  162.9338 H   0  0  0  0  0  0  0  0  0  0  0  0
  1  2  2  0  0  0  0
  2  3  1  0  0  0  0
  2 15  1  0  0  0  0
  3  4  1  0  0  0  0
  3 22  1  0  0  0  0
  4  5  1  0  0  0  0
  4 23  1  0  0  0  0
  4 24  1  0  0  0  0
  5 14  1  0  0  0  0
  5  6  1  0  0  0  0
  5 25  1  0  0  0  0
  6  7  1  0  0  0  0
  6 26  1  0  0  0  0
  6 27  1  0  0  0  0
  7 12  1  0  0  0  0
  7  8  1  0  0  0  0
  8  9  1  0  0  0  0
  8 28  1  0  0  0  0
  8 29  1  0  0  0  0
  9 10  1  0  0  0  0
  9 30  1  0  0  0  0
  9 31  1  0  0  0  0
 10 11  1  0  0  0  0
 10 32  1  0  0  0  0
 10 33  1  0  0  0  0
 11 12  1  0  0  0  0
 11 34  1  0  0  0  0
 11 35  1  0  0  0  0
 12 13  1  0  0  0  0
 12 36  1  0  0  0  0
 13 14  1  0  0  0  0
 13 37  1  0  0  0  0
 13 38  1  0  0  0  0
 15 16  1  0  0  0  0
 15 39  1  0  0  0  0
 16 21  1  0  0  0  0
 16 17  2  0  0  0  0
 17 18  1  0  0  0  0
 17 40  1  0  0  0  0
 18 19  2  0  0  0  0
 18 41  1  0  0  0  0
 19 20  1  0  0  0  0
 19 42  1  0  0  0  0
 20 21  2  0  0  0  0
 20 43  1  0  0  0  0
M  END
> <s_m_source_file>
AV-unprocessed.smi

> <i_m_source_file_index>
2528

> <i_lp_mmshare_version>
43012

> <i_f3d_flags>
0

> <s_epik_input>
bjFbY0hdW2NIXVtjSF1bY0hdYzFbTkhdQyg9TylbTkhdW0NIMl1bQ0BIXShbQ0gyXTIpT1tDSDJdW0NAQEhdKE4yMylbQ0gyXVtDSDJdW0NIMl1bQ0gyXTM=

> <s_epik_cmdline>
J2VwaWtfcHl0aG9uJywgJy1waCcsICc3LjAnLCAnLXRuJywgJzgnLCAnLW1hJywgJzIwMCcsICctbWV0YWxfYmluZGluZycsICctaW1hZScsICc8aW5maWxlLm1hZT4nLCAnLW9tYWUnLCAnPG91dGZpbGUubWFlPic=

> <r_epik_Ionization_Penalty>
1.14192

> <r_epik_Ionization_Penalty_Charging>
0

> <r_epik_Ionization_Penalty_Neutral>
1.14192

> <r_epik_State_Penalty>
1.20248

> <r_epik_Charging_Adjusted_Penalty>
1.20248

> <i_epik_Tot_Q>
0

> <i_epik_Tot_abs_Q>
0

> <r_epik_Metal_State_Penalty>
1.20248

> <b_epik_Metal_Only>
0

> <s_lp_Force_Field>
OPLS_2005

> <r_lp_Energy>
35.0124

> <b_lp_Chiralities_Consistent>
1

> <s_lp_Variant>
AV-unprocessed.smi:2528-12

> <Gold.Version>
5.8.1

> <Gold.Id.Protein>
6NUR|6NUR_protein|mol2

> <Gold.PLP.Fitness>
46.6420

> <Gold.PLP.PLP>
-41.1543

> <Gold.PLP.part.hbond>
-3.0000

> <Gold.PLP.part.metal>
0.0000

> <Gold.PLP.part.buried>
-6.3346

> <Gold.PLP.part.nonpolar>
-33.4111

> <Gold.PLP.part.repulsive>
0.3551

> <Gold.PLP.ligand.clash>
0.0000

> <Gold.PLP.ligand.torsion>
0.3947

> <Gold.PLP.Chemscore.Hbond>
2.0922

> <Gold.PLP.Chemscore.CHOScore>
0.0000

> <Gold.PLP.Chemscore.Metal>
0.0000

> <Gold.Chemscore.Hbonds>
donor molecule, donor type, donor heavy atom, donor atom, acceptor molecule, acceptor atom, score
      P1  H  6896  6907       L1     1  1.00
      P1  H  6934  6947       L1    21  0.85

> <Gold.PLP.Chemscore.Internal.Correction>
0.0004

> <Gold.Rescore>
     Score         DG    S(hbond)    S(metal)    S(lipo)     H(rot)  DE(clash)    DE(int)     intcor
     18.70     -20.42       1.52        0.00     112.03       1.27       0.05       1.66       ----

> <Gold.Chemscore.Fitness>
18.6997

> <Gold.Chemscore.DG>
-20.4173

> <Gold.Chemscore.ZeroCoef>
-5.4800

> <Gold.Chemscore.Hbond>
1.5208

> <Gold.Chemscore.Metal>
0.0000

> <Gold.Chemscore.Lipo>
112.0333

> <Gold.Chemscore.Internal_Hbond>
0.0000

> <Gold.Chemscore.DEClash>
0.0531

> <Gold.Chemscore.DEInternal>
1.6645

> <Gold.Chemscore.Rot>
1.2696

> <Gold.Chemscore.Internal.Correction>
   9.000000E+99

> <Gold.Chemscore.Hbonds>
donor molecule, donor type, donor heavy atom, donor atom, acceptor molecule, acceptor atom, score
      P1  H  6896  6907       L1     1  0.99
      P1  H  6934  6947       L1    21  0.16

> <Gold.Chemscore.Hbond.Weighted>
-5.0796

> <Gold.Chemscore.Metal.Weighted>
-0.0000

> <Gold.Chemscore.Lipo.Weighted>
-13.1079

> <Gold.Chemscore.Internal_Hbond.Weighted>
0.0000

> <Gold.Chemscore.DEClash.Weighted>
0.0531

> <Gold.Chemscore.DEInternal.Weighted>
1.6645

> <Gold.Chemscore.Rot.Weighted>
3.2502

> <Gold.Chemscore.Internal.Correction.Weighted>
   9.000000E+99

> <Gold.Protein.RotatedTorsions>
[ 6907 6896 6895 6894 ] final  -40.46 input  -60.11 | X-H torsion
[ 7974 7965 7964 7962 ] final  -92.29 input  175.53 | X-H torsion
[ 8008 7997 7996 7995 ] final  120.00 input   59.86 | X-H torsion
[ 10167 10162 10161 10158 ] final  172.87 input  -65.29 | X-H torsion
[ 10718 10713 10712 10709 ] final   81.31 input   66.30 | X-H torsion
[ 10763 10752 10751 10750 ] final -131.58 input  -60.55 | X-H torsion
[ 11005 11000 10999 10996 ] final   97.79 input  -57.11 | X-H torsion

> <Gold.Protein.ActiveResidues>
 VAL166  LYS551  ARG553  GLY616  TRP617  ASP618  TYR619  PRO620  LYS621  CYS622 
 ASP623  PHE694  ASN695  SER759  ASP760  ASP761  ALA762  ILE779  LEU786  VAL792 
 PHE793  MET794  SER795  GLU796  ALA797  LYS798  CYS799  TRP800  GLU811  SER814 

> <Gold.Protein.RotatedAtoms>
  150.9781  134.9142  159.7827 H   0  0  0  0  0  0  0  0  0  0  0  0  # atno 6907 bound_to 6896
  152.5213  134.3448  159.9240 H   0  0  0  0  0  0  0  0  0  0  0  0  # atno 6908 bound_to 6896
  151.3455  133.3904  159.2710 H   0  0  0  0  0  0  0  0  0  0  0  0  # atno 6909 bound_to 6896
  145.4018  140.9538  143.2283 H   0  0  0  0  0  0  0  0  0  0  0  0  # atno 7974 bound_to 7965
  156.2622  140.2840  156.1081 H   0  0  0  0  0  0  0  0  0  0  0  0  # atno 8008 bound_to 7997
  155.1287  140.0393  157.2786 H   0  0  0  0  0  0  0  0  0  0  0  0  # atno 8009 bound_to 7997
  154.6616  140.2567  155.7109 H   0  0  0  0  0  0  0  0  0  0  0  0  # atno 8010 bound_to 7997
  139.5090  144.3325  152.0097 H   0  0  0  0  0  0  0  0  0  0  0  0  # atno 10167 bound_to 10162
  157.6829  130.9998  150.2208 H   0  0  0  0  0  0  0  0  0  0  0  0  # atno 10718 bound_to 10713
  154.8750  135.3825  154.4270 H   0  0  0  0  0  0  0  0  0  0  0  0  # atno 10763 bound_to 10752
  153.4968  135.7030  153.5859 H   0  0  0  0  0  0  0  0  0  0  0  0  # atno 10764 bound_to 10752
  153.4208  135.3902  155.2077 H   0  0  0  0  0  0  0  0  0  0  0  0  # atno 10765 bound_to 10752
  139.8774  134.9018  156.4359 H   0  0  0  0  0  0  0  0  0  0  0  0  # atno 11005 bound_to 11000
  144.8368  139.5536  143.6918 LP  0  0  0  0  0  0  0  0  0  0  0  0  # atno 17320 bound_to 7965
  146.2748  139.6724  142.9271 LP  0  0  0  0  0  0  0  0  0  0  0  0  # atno 17321 bound_to 7965
  140.2765  144.3907  150.6133 LP  0  0  0  0  0  0  0  0  0  0  0  0  # atno 17342 bound_to 10162
  140.6050  143.2167  151.6998 LP  0  0  0  0  0  0  0  0  0  0  0  0  # atno 17343 bound_to 10162
  156.2860  130.3739  149.7888 LP  0  0  0  0  0  0  0  0  0  0  0  0  # atno 17370 bound_to 10713
  156.5562  130.8363  151.3315 LP  0  0  0  0  0  0  0  0  0  0  0  0  # atno 17371 bound_to 10713
  140.9034  133.7763  155.9706 LP  0  0  0  0  0  0  0  0  0  0  0  0  # atno 17394 bound_to 11000
  140.8626  134.2822  157.5227 LP  0  0  0  0  0  0  0  0  0  0  0  0  # atno 17395 bound_to 11000

$$$$
