AV-unprocessed.smi:1703|AV-procd|sdf|6874|dock9
  -GOLD-   22720 8 73D 1   1.00000     0.00000
 Structure written by MMmdl.
 50 52  0  0  0  0  0  0  0  0  3 V2000
  149.3532  141.3503  154.7587 C   0  0  0  0  0  0  0  0  0  0  0  0
  149.8014  139.9052  155.0027 C   0  0  1  0  0  0  0  0  0  0  0  0
  149.0244  138.9020  154.1267 C   0  0  0  0  0  0  0  0  0  0  0  0
  149.5256  137.5194  154.3181 N   0  3  2  0  0  0  0  0  0  0  0  0
  149.0500  136.8796  155.5741 C   0  0  0  0  0  0  0  0  0  0  0  0
  147.9264  135.8519  155.3201 C   0  0  2  0  0  0  0  0  0  0  0  0
  148.2106  135.1507  154.1270 O   0  0  0  0  0  0  0  0  0  0  0  0
  146.5253  136.4796  155.1721 C   0  0  0  0  0  0  0  0  0  0  0  0
  145.5457  135.5629  154.5657 N   0  0  0  0  0  0  0  0  0  0  0  0
  144.7192  134.6505  155.1561 C   0  0  0  0  0  0  0  0  0  0  0  0
  144.6077  134.3432  156.6132 C   0  0  0  0  0  0  0  0  0  0  0  0
  143.5996  133.3951  156.8831 O   0  0  0  0  0  0  0  0  0  0  0  0
  144.0109  134.0439  154.1630 N   0  3  0  0  0  0  0  0  0  0  0  0
  144.3877  134.5660  152.9258 C   0  0  0  0  0  0  0  0  0  0  0  0
  143.9491  134.2640  151.6403 C   0  0  0  0  0  0  0  0  0  0  0  0
  144.5443  134.9827  150.5833 C   0  0  0  0  0  0  0  0  0  0  0  0
  145.5341  135.9574  150.8250 C   0  0  0  0  0  0  0  0  0  0  0  0
  145.9704  136.2556  152.1330 C   0  0  0  0  0  0  0  0  0  0  0  0
  145.3773  135.5401  153.1742 C   0  0  0  0  0  0  0  0  0  0  0  0
  150.9958  137.4667  154.1111 C   0  0  0  0  0  0  0  0  0  0  0  0
  151.7331  138.5264  154.9596 C   0  0  1  0  0  0  0  0  0  0  0  0
  153.2321  138.5708  154.6441 C   0  0  0  0  0  0  0  0  0  0  0  0
  151.1865  139.8125  154.6877 O   0  0  0  0  0  0  0  0  0  0  0  0
  148.2943  141.4771  154.9854 H   0  0  0  0  0  0  0  0  0  0  0  0
  149.5101  141.6424  153.7198 H   0  0  0  0  0  0  0  0  0  0  0  0
  149.9124  142.0440  155.3873 H   0  0  0  0  0  0  0  0  0  0  0  0
  149.6546  139.6736  156.0591 H   0  0  0  0  0  0  0  0  0  0  0  0
  147.9538  138.9524  154.3292 H   0  0  0  0  0  0  0  0  0  0  0  0
  149.1474  139.1659  153.0751 H   0  0  0  0  0  0  0  0  0  0  0  0
  149.8936  136.4143  156.0815 H   0  0  0  0  0  0  0  0  0  0  0  0
  148.6718  137.6400  156.2593 H   0  0  0  0  0  0  0  0  0  0  0  0
  147.8935  135.1238  156.1292 H   0  0  0  0  0  0  0  0  0  0  0  0
  148.5884  135.7506  153.5017 H   0  0  0  0  0  0  0  0  0  0  0  0
  146.1481  136.8360  156.1304 H   0  0  0  0  0  0  0  0  0  0  0  0
  146.5785  137.3582  154.5275 H   0  0  0  0  0  0  0  0  0  0  0  0
  145.5587  133.9711  156.9927 H   0  0  0  0  0  0  0  0  0  0  0  0
  144.3842  135.2612  157.1574 H   0  0  0  0  0  0  0  0  0  0  0  0
  143.2418  133.0918  156.0624 H   0  0  0  0  0  0  0  0  0  0  0  0
  143.1924  133.5159  151.4524 H   0  0  0  0  0  0  0  0  0  0  0  0
  144.2372  134.7806  149.5672 H   0  0  0  0  0  0  0  0  0  0  0  0
  145.9691  136.4859  149.9889 H   0  0  0  0  0  0  0  0  0  0  0  0
  146.7294  137.0051  152.2995 H   0  0  0  0  0  0  0  0  0  0  0  0
  151.3863  136.4711  154.3185 H   0  0  0  0  0  0  0  0  0  0  0  0
  151.1896  137.6531  153.0539 H   0  0  0  0  0  0  0  0  0  0  0  0
  151.6189  138.3086  156.0224 H   0  0  0  0  0  0  0  0  0  0  0  0
  153.7058  137.6106  154.8506 H   0  0  0  0  0  0  0  0  0  0  0  0
  153.7358  139.3259  155.2483 H   0  0  0  0  0  0  0  0  0  0  0  0
  153.4086  138.8126  153.5955 H   0  0  0  0  0  0  0  0  0  0  0  0
  149.1100  136.9723  153.5768 H   0  0  0  0  0  0  0  0  0  0  0  0
  143.3259  133.3161  154.3238 H   0  0  0  0  0  0  0  0  0  0  0  0
  1  2  1  0  0  0  0
  1 24  1  0  0  0  0
  1 25  1  0  0  0  0
  1 26  1  0  0  0  0
  2 23  1  0  0  0  0
  2  3  1  0  0  0  0
  2 27  1  0  0  0  0
  3  4  1  0  0  0  0
  3 28  1  0  0  0  0
  3 29  1  0  0  0  0
  4  5  1  0  0  0  0
  4 20  1  0  0  0  0
  4 49  1  0  0  0  0
  5  6  1  0  0  0  0
  5 30  1  0  0  0  0
  5 31  1  0  0  0  0
  6  7  1  0  0  0  0
  6  8  1  0  0  0  0
  6 32  1  0  0  0  0
  7 33  1  0  0  0  0
  8  9  1  0  0  0  0
  8 34  1  0  0  0  0
  8 35  1  0  0  0  0
  9 19  1  0  0  0  0
  9 10  1  0  0  0  0
 10 11  1  0  0  0  0
 10 13  2  0  0  0  0
 11 12  1  0  0  0  0
 11 36  1  0  0  0  0
 11 37  1  0  0  0  0
 12 38  1  0  0  0  0
 13 14  1  0  0  0  0
 13 50  1  0  0  0  0
 14 19  2  0  0  0  0
 14 15  1  0  0  0  0
 15 16  2  0  0  0  0
 15 39  1  0  0  0  0
 16 17  1  0  0  0  0
 16 40  1  0  0  0  0
 17 18  2  0  0  0  0
 17 41  1  0  0  0  0
 18 19  1  0  0  0  0
 18 42  1  0  0  0  0
 20 21  1  0  0  0  0
 20 43  1  0  0  0  0
 20 44  1  0  0  0  0
 21 22  1  0  0  0  0
 21 23  1  0  0  0  0
 21 45  1  0  0  0  0
 22 46  1  0  0  0  0
 22 47  1  0  0  0  0
 22 48  1  0  0  0  0
M  CHG  1   4   1
M  CHG  1  13   1
M  END
> <s_m_source_file>
AV-unprocessed.smi

> <i_m_source_file_index>
1703

> <i_lp_mmshare_version>
43012

> <i_f3d_flags>
0

> <s_epik_input>
W0NIM11bQ0BASF0xW0NIMl1OKFtDSDJdW0NASF0oTzEpW0NIM10pW0NIMl1bQ0BIXShbT0hdKVtDSDJdbihjKG4yKVtDSDJdW09IXSljKGMyMylbY0hdW2NIXVtjSF1bY0hdMw==

> <s_epik_cmdline>
J2VwaWtfcHl0aG9uJywgJy1waCcsICc3LjAnLCAnLXRuJywgJzgnLCAnLW1hJywgJzIwMCcsICctbWV0YWxfYmluZGluZycsICctaW1hZScsICc8aW5maWxlLm1hZT4nLCAnLW9tYWUnLCAnPG91dGZpbGUubWFlPic=

> <r_epik_Ionization_Penalty>
2.22579

> <r_epik_Ionization_Penalty_Charging>
2.22492

> <r_epik_Ionization_Penalty_Neutral>
0.000870007

> <r_epik_State_Penalty>
2.3141

> <r_epik_Charging_Adjusted_Penalty>
4.53902

> <i_epik_Tot_Q>
2

> <i_epik_Tot_abs_Q>
2

> <r_epik_Metal_State_Penalty>
6.36517

> <b_epik_Metal_Only>
0

> <s_lp_Force_Field>
OPLS_2005

> <r_lp_Energy>
32.0601

> <b_lp_Chiralities_Consistent>
1

> <s_lp_Variant>
AV-unprocessed.smi:1703-22

> <Gold.Version>
5.8.1

> <Gold.Id.Protein>
6NUR|6NUR_protein|mol2

> <Gold.PLP.Fitness>
54.0940

> <Gold.PLP.PLP>
-35.8532

> <Gold.PLP.part.hbond>
-5.7096

> <Gold.PLP.part.metal>
0.0000

> <Gold.PLP.part.buried>
-2.3421

> <Gold.PLP.part.nonpolar>
-27.8872

> <Gold.PLP.part.repulsive>
0.0765

> <Gold.PLP.ligand.clash>
0.0000

> <Gold.PLP.ligand.torsion>
1.4104

> <Gold.PLP.Chemscore.Hbond>
7.0000

> <Gold.PLP.Chemscore.CHOScore>
0.0000

> <Gold.PLP.Chemscore.Metal>
0.0000

> <Gold.Chemscore.Hbonds>
donor molecule, donor type, donor heavy atom, donor atom, acceptor molecule, acceptor atom, score
      L1  H     4    49       P1  7948  2.00
      L1  H     7    33       P1  7948  1.00
      L1  H    12    38       P1 10957  1.00
      L1  H    13    50       P1 10957  2.00
      P1  H  7989  7998       L1    23  1.00

> <Gold.PLP.Chemscore.Internal.Correction>
0.0617

> <Gold.Rescore>
     Score         DG    S(hbond)    S(metal)    S(lipo)     H(rot)  DE(clash)    DE(int)     intcor
     21.60     -23.12       4.80        0.00      80.18       3.04       0.10       1.41       ----

> <Gold.Chemscore.Fitness>
21.6041

> <Gold.Chemscore.DG>
-23.1204

> <Gold.Chemscore.ZeroCoef>
-5.4800

> <Gold.Chemscore.Hbond>
4.8013

> <Gold.Chemscore.Metal>
0.0000

> <Gold.Chemscore.Lipo>
80.1772

> <Gold.Chemscore.Internal_Hbond>
0.0000

> <Gold.Chemscore.DEClash>
0.1017

> <Gold.Chemscore.DEInternal>
1.4145

> <Gold.Chemscore.Rot>
3.0378

> <Gold.Chemscore.Internal.Correction>
   9.000000E+99

> <Gold.Chemscore.Hbonds>
donor molecule, donor type, donor heavy atom, donor atom, acceptor molecule, acceptor atom, score
      L1  H     4    49       P1  7948  0.98
      L1  H     7    33       P1  7948  0.95
      L1  H    12    38       P1 10957  0.97
      L1  H    13    50       P1 10957  0.99
      P1  H  7989  7998       L1    23  0.85

> <Gold.Chemscore.Hbond.Weighted>
-16.0363

> <Gold.Chemscore.Metal.Weighted>
-0.0000

> <Gold.Chemscore.Lipo.Weighted>
-9.3807

> <Gold.Chemscore.Internal_Hbond.Weighted>
0.0000

> <Gold.Chemscore.DEClash.Weighted>
0.1017

> <Gold.Chemscore.DEInternal.Weighted>
1.4145

> <Gold.Chemscore.Rot.Weighted>
7.7767

> <Gold.Chemscore.Internal.Correction.Weighted>
   9.000000E+99

> <Gold.Protein.RotatedTorsions>
[ 6907 6896 6895 6894 ] final   90.03 input  -60.11 | X-H torsion
[ 7974 7965 7964 7962 ] final  116.05 input  175.53 | X-H torsion
[ 8008 7997 7996 7995 ] final -177.69 input   59.86 | X-H torsion
[ 10167 10162 10161 10158 ] final  -63.90 input  -65.29 | X-H torsion
[ 10718 10713 10712 10709 ] final -114.57 input   66.30 | X-H torsion
[ 10763 10752 10751 10750 ] final   73.55 input  -60.55 | X-H torsion
[ 11005 11000 10999 10996 ] final  134.08 input  -57.11 | X-H torsion

> <Gold.Protein.ActiveResidues>
 VAL166  LYS551  ARG553  GLY616  TRP617  ASP618  TYR619  PRO620  LYS621  CYS622 
 ASP623  PHE694  ASN695  SER759  ASP760  ASP761  ALA762  ILE779  LEU786  VAL792 
 PHE793  MET794  SER795  GLU796  ALA797  LYS798  CYS799  TRP800  GLU811  SER814 

> <Gold.Protein.RotatedAtoms>
  152.5441  134.1875  159.8660 H   0  0  0  0  0  0  0  0  0  0  0  0  # atno 6907 bound_to 6896
  151.1873  133.4681  159.2602 H   0  0  0  0  0  0  0  0  0  0  0  0  # atno 6908 bound_to 6896
  151.1118  135.0043  159.8553 H   0  0  0  0  0  0  0  0  0  0  0  0  # atno 6909 bound_to 6896
  145.1844  139.3033  143.4401 H   0  0  0  0  0  0  0  0  0  0  0  0  # atno 7974 bound_to 7965
  156.0099  140.1238  157.0464 H   0  0  0  0  0  0  0  0  0  0  0  0  # atno 8008 bound_to 7997
  154.4272  140.1090  156.5884 H   0  0  0  0  0  0  0  0  0  0  0  0  # atno 8009 bound_to 7997
  155.6094  140.3471  155.4620 H   0  0  0  0  0  0  0  0  0  0  0  0  # atno 8010 bound_to 7997
  140.5838  143.2331  151.6286 H   0  0  0  0  0  0  0  0  0  0  0  0  # atno 10167 bound_to 10162
  156.0838  130.6034  150.8792 H   0  0  0  0  0  0  0  0  0  0  0  0  # atno 10718 bound_to 10713
  153.0529  135.5058  154.7911 H   0  0  0  0  0  0  0  0  0  0  0  0  # atno 10763 bound_to 10752
  154.6759  135.2960  154.9682 H   0  0  0  0  0  0  0  0  0  0  0  0  # atno 10764 bound_to 10752
  154.0484  135.6707  153.4850 H   0  0  0  0  0  0  0  0  0  0  0  0  # atno 10765 bound_to 10752
  139.9892  134.9521  156.9815 H   0  0  0  0  0  0  0  0  0  0  0  0  # atno 11005 bound_to 11000
  146.3447  140.2035  142.8589 LP  0  0  0  0  0  0  0  0  0  0  0  0  # atno 17320 bound_to 7965
  145.0104  140.8709  143.5228 LP  0  0  0  0  0  0  0  0  0  0  0  0  # atno 17321 bound_to 7965
  139.5185  144.3281  152.0851 LP  0  0  0  0  0  0  0  0  0  0  0  0  # atno 17342 bound_to 10162
  140.2435  144.4244  150.6250 LP  0  0  0  0  0  0  0  0  0  0  0  0  # atno 17343 bound_to 10162
  157.5965  131.0943  150.9031 LP  0  0  0  0  0  0  0  0  0  0  0  0  # atno 17370 bound_to 10713
  156.9197  130.5310  149.5279 LP  0  0  0  0  0  0  0  0  0  0  0  0  # atno 17371 bound_to 10713
  140.4942  134.1162  155.7238 LP  0  0  0  0  0  0  0  0  0  0  0  0  # atno 17394 bound_to 11000
  141.1551  133.8897  157.1998 LP  0  0  0  0  0  0  0  0  0  0  0  0  # atno 17395 bound_to 11000

$$$$
