AV-unprocessed.smi:3116|AV-procd|sdf|11870|dock5
  -GOLD-   2272017253D 1   1.00000     0.00000
 Structure written by MMmdl.
 33 33  0  0  0  0  0  0  0  0  1 V2000
  149.0970  137.1655  155.6247 C   0  0  0  0  0  0  0  0  0  0  0  0
  150.0278  138.3923  155.7202 C   0  0  2  0  0  0  0  0  0  0  0  0
  149.6669  139.2626  156.8509 N   0  0  0  0  0  0  0  0  0  0  0  0
  150.6742  140.2690  157.1799 C   0  0  2  0  0  0  0  0  0  0  0  0
  151.9017  139.5298  157.7479 C   0  0  0  0  0  0  0  0  0  0  0  0
  150.0503  141.2878  158.1710 C   0  0  2  0  0  0  0  0  0  0  0  0
  148.6962  141.8354  157.6789 C   0  0  0  0  0  0  0  0  0  0  0  0
  150.9589  142.3879  158.4716 N   0  0  0  0  0  0  0  0  0  0  0  0
  151.3129  143.4463  157.6602 C   0  0  0  0  0  0  0  0  0  0  0  0
  152.1789  144.2315  158.3657 C   0  0  0  0  0  0  0  0  0  0  0  0
  152.2977  143.5637  159.6162 C   0  0  0  0  0  0  0  0  0  0  0  0
  151.5666  142.4629  159.6779 N   0  0  0  0  0  0  0  0  0  0  0  0
  150.0293  139.2102  154.4210 C   0  0  0  0  0  0  0  0  0  0  0  0
  149.6456  138.5737  153.3113 N   0  0  0  0  0  0  0  0  0  0  0  0
  150.3808  140.3888  154.4055 O   0  0  0  0  0  0  0  0  0  0  0  0
  149.3226  136.5653  154.7423 H   0  0  0  0  0  0  0  0  0  0  0  0
  148.0481  137.4600  155.5675 H   0  0  0  0  0  0  0  0  0  0  0  0
  149.2094  136.5103  156.4886 H   0  0  0  0  0  0  0  0  0  0  0  0
  151.0510  138.0382  155.8597 H   0  0  0  0  0  0  0  0  0  0  0  0
  149.4298  138.7291  157.6750 H   0  0  0  0  0  0  0  0  0  0  0  0
  150.9891  140.8116  156.2869 H   0  0  0  0  0  0  0  0  0  0  0  0
  152.7292  140.2135  157.9374 H   0  0  0  0  0  0  0  0  0  0  0  0
  152.2704  138.7748  157.0532 H   0  0  0  0  0  0  0  0  0  0  0  0
  151.6645  139.0280  158.6866 H   0  0  0  0  0  0  0  0  0  0  0  0
  149.8708  140.7735  159.1169 H   0  0  0  0  0  0  0  0  0  0  0  0
  147.9600  141.0386  157.5723 H   0  0  0  0  0  0  0  0  0  0  0  0
  148.7909  142.3276  156.7105 H   0  0  0  0  0  0  0  0  0  0  0  0
  148.2879  142.5612  158.3829 H   0  0  0  0  0  0  0  0  0  0  0  0
  150.9213  143.5527  156.6594 H   0  0  0  0  0  0  0  0  0  0  0  0
  152.6546  145.1441  158.0384 H   0  0  0  0  0  0  0  0  0  0  0  0
  152.8883  143.8447  160.4757 H   0  0  0  0  0  0  0  0  0  0  0  0
  149.6257  139.0674  152.4309 H   0  0  0  0  0  0  0  0  0  0  0  0
  149.3741  137.6024  153.3585 H   0  0  0  0  0  0  0  0  0  0  0  0
  1  2  1  0  0  0  0
  1 16  1  0  0  0  0
  1 17  1  0  0  0  0
  1 18  1  0  0  0  0
  2  3  1  0  0  0  0
  2 13  1  0  0  0  0
  2 19  1  0  0  0  0
  3  4  1  0  0  0  0
  3 20  1  0  0  0  0
  4  5  1  0  0  0  0
  4  6  1  0  0  0  0
  4 21  1  0  0  0  0
  5 22  1  0  0  0  0
  5 23  1  0  0  0  0
  5 24  1  0  0  0  0
  6  7  1  0  0  0  0
  6  8  1  0  0  0  0
  6 25  1  0  0  0  0
  7 26  1  0  0  0  0
  7 27  1  0  0  0  0
  7 28  1  0  0  0  0
  8 12  1  0  0  0  0
  8  9  1  0  0  0  0
  9 10  2  0  0  0  0
  9 29  1  0  0  0  0
 10 11  1  0  0  0  0
 10 30  1  0  0  0  0
 11 12  2  0  0  0  0
 11 31  1  0  0  0  0
 13 14  1  0  0  0  0
 13 15  2  0  0  0  0
 14 32  1  0  0  0  0
 14 33  1  0  0  0  0
M  END
> <s_m_source_file>
AV-unprocessed.smi

> <i_m_source_file_index>
3116

> <i_lp_mmshare_version>
43012

> <i_f3d_flags>
0

> <s_epik_input>
W05IMl1DKD1PKVtDQEhdKFtDSDNdKVtOSF1bQ0BIXShbQ0gzXSlbQ0BIXShbQ0gzXSluMVtjSF1bY0hdW2NIXW4x

> <s_epik_cmdline>
J2VwaWtfcHl0aG9uJywgJy1waCcsICc3LjAnLCAnLXRuJywgJzgnLCAnLW1hJywgJzIwMCcsICctbWV0YWxfYmluZGluZycsICctaW1hZScsICc8aW5maWxlLm1hZT4nLCAnLW9tYWUnLCAnPG91dGZpbGUubWFlPic=

> <r_lp_tautomer_probability>
1

> <r_epik_Ionization_Penalty>
0.865977

> <r_epik_Ionization_Penalty_Charging>
0

> <r_epik_Ionization_Penalty_Neutral>
0.865977

> <r_epik_State_Penalty>
0.901888

> <r_epik_Charging_Adjusted_Penalty>
0.901888

> <i_epik_Tot_Q>
0

> <i_epik_Tot_abs_Q>
0

> <r_epik_Metal_State_Penalty>
0.901181

> <b_epik_Metal_Only>
0

> <s_lp_Force_Field>
OPLS_2005

> <r_lp_Energy>
9.43225

> <b_lp_Chiralities_Consistent>
1

> <s_lp_Variant>
AV-unprocessed.smi:3116-9

> <Gold.Version>
5.8.1

> <Gold.Id.Protein>
6NUR|6NUR_protein|mol2

> <Gold.PLP.Fitness>
36.6717

> <Gold.PLP.PLP>
-27.7420

> <Gold.PLP.part.hbond>
-2.9845

> <Gold.PLP.part.metal>
0.0000

> <Gold.PLP.part.buried>
-4.3620

> <Gold.PLP.part.nonpolar>
-20.4623

> <Gold.PLP.part.repulsive>
0.2191

> <Gold.PLP.ligand.clash>
0.0000

> <Gold.PLP.ligand.torsion>
1.0287

> <Gold.PLP.Chemscore.Hbond>
2.6103

> <Gold.PLP.Chemscore.CHOScore>
1.0000

> <Gold.PLP.Chemscore.Metal>
0.0000

> <Gold.Chemscore.Hbonds>
donor molecule, donor type, donor heavy atom, donor atom, acceptor molecule, acceptor atom, score
      L1  H    14    32       P1  7957  1.00
      L1  H    14    33       P1  7948  0.58
      P1  H  7989  7998       L1    15  1.00
      L1  C     9    29       P1  8028  0.99

> <Gold.PLP.Chemscore.Internal.Correction>
0.1562

> <Gold.Rescore>
     Score         DG    S(hbond)    S(metal)    S(lipo)     H(rot)  DE(clash)    DE(int)     intcor
     12.25     -14.61       2.44        0.00      60.51       2.38       0.00       2.35       ----

> <Gold.Chemscore.Fitness>
12.2547

> <Gold.Chemscore.DG>
-14.6119

> <Gold.Chemscore.ZeroCoef>
-5.4800

> <Gold.Chemscore.Hbond>
2.4413

> <Gold.Chemscore.Metal>
0.0000

> <Gold.Chemscore.Lipo>
60.5111

> <Gold.Chemscore.Internal_Hbond>
0.0000

> <Gold.Chemscore.DEClash>
0.0038

> <Gold.Chemscore.DEInternal>
2.3534

> <Gold.Chemscore.Rot>
2.3836

> <Gold.Chemscore.Internal.Correction>
   9.000000E+99

> <Gold.Chemscore.Hbonds>
donor molecule, donor type, donor heavy atom, donor atom, acceptor molecule, acceptor atom, score
      L1  H    14    32       P1  7957  0.84
      L1  H    14    33       P1  7948  0.53
      P1  H  7989  7998       L1    15  0.93

> <Gold.Chemscore.Hbond.Weighted>
-8.1540

> <Gold.Chemscore.Metal.Weighted>
-0.0000

> <Gold.Chemscore.Lipo.Weighted>
-7.0798

> <Gold.Chemscore.Internal_Hbond.Weighted>
0.0000

> <Gold.Chemscore.DEClash.Weighted>
0.0038

> <Gold.Chemscore.DEInternal.Weighted>
2.3534

> <Gold.Chemscore.Rot.Weighted>
6.1020

> <Gold.Chemscore.Internal.Correction.Weighted>
   9.000000E+99

> <Gold.Protein.RotatedTorsions>
[ 6907 6896 6895 6894 ] final   15.00 input  -60.11 | X-H torsion
[ 7974 7965 7964 7962 ] final  142.24 input  175.53 | X-H torsion
[ 8008 7997 7996 7995 ] final   85.26 input   59.86 | X-H torsion
[ 10167 10162 10161 10158 ] final  -42.58 input  -65.29 | X-H torsion
[ 10718 10713 10712 10709 ] final   81.05 input   66.30 | X-H torsion
[ 10763 10752 10751 10750 ] final  -71.01 input  -60.55 | X-H torsion
[ 11005 11000 10999 10996 ] final  -89.46 input  -57.11 | X-H torsion

> <Gold.Protein.ActiveResidues>
 VAL166  LYS551  ARG553  GLY616  TRP617  ASP618  TYR619  PRO620  LYS621  CYS622 
 ASP623  PHE694  ASN695  SER759  ASP760  ASP761  ALA762  ILE779  LEU786  VAL792 
 PHE793  MET794  SER795  GLU796  ALA797  LYS798  CYS799  TRP800  GLU811  SER814 

> <Gold.Protein.RotatedAtoms>
  151.8112  135.0680  160.0412 H   0  0  0  0  0  0  0  0  0  0  0  0  # atno 6907 bound_to 6896
  152.3019  133.5659  159.5632 H   0  0  0  0  0  0  0  0  0  0  0  0  # atno 6908 bound_to 6896
  150.7277  134.0195  159.3738 H   0  0  0  0  0  0  0  0  0  0  0  0  # atno 6909 bound_to 6896
  144.9025  139.5403  143.5747 H   0  0  0  0  0  0  0  0  0  0  0  0  # atno 7974 bound_to 7965
  155.9478  140.3403  155.6381 H   0  0  0  0  0  0  0  0  0  0  0  0  # atno 8008 bound_to 7997
  155.6959  140.0754  157.2448 H   0  0  0  0  0  0  0  0  0  0  0  0  # atno 8009 bound_to 7997
  154.4115  140.1649  156.2125 H   0  0  0  0  0  0  0  0  0  0  0  0  # atno 8010 bound_to 7997
  140.6964  143.3030  151.3229 H   0  0  0  0  0  0  0  0  0  0  0  0  # atno 10167 bound_to 10162
  157.6823  130.9987  150.2170 H   0  0  0  0  0  0  0  0  0  0  0  0  # atno 10718 bound_to 10713
  154.4257  135.5976  153.6037 H   0  0  0  0  0  0  0  0  0  0  0  0  # atno 10763 bound_to 10752
  152.9796  135.5963  154.3901 H   0  0  0  0  0  0  0  0  0  0  0  0  # atno 10764 bound_to 10752
  154.3732  135.2841  155.2233 H   0  0  0  0  0  0  0  0  0  0  0  0  # atno 10765 bound_to 10752
  141.1584  133.7631  156.9598 H   0  0  0  0  0  0  0  0  0  0  0  0  # atno 11005 bound_to 11000
  146.3116  139.7767  142.9015 LP  0  0  0  0  0  0  0  0  0  0  0  0  # atno 17320 bound_to 7965
  145.3592  141.0322  143.3294 LP  0  0  0  0  0  0  0  0  0  0  0  0  # atno 17321 bound_to 7965
  139.6425  144.0513  152.2565 LP  0  0  0  0  0  0  0  0  0  0  0  0  # atno 17342 bound_to 10162
  140.0023  144.6284  150.7719 LP  0  0  0  0  0  0  0  0  0  0  0  0  # atno 17343 bound_to 10162
  156.2829  130.3735  149.7917 LP  0  0  0  0  0  0  0  0  0  0  0  0  # atno 17370 bound_to 10713
  156.5600  130.8379  151.3326 LP  0  0  0  0  0  0  0  0  0  0  0  0  # atno 17371 bound_to 10713
  140.1201  134.9422  157.2191 LP  0  0  0  0  0  0  0  0  0  0  0  0  # atno 17394 bound_to 11000
  140.3083  134.3052  155.7273 LP  0  0  0  0  0  0  0  0  0  0  0  0  # atno 17395 bound_to 11000

$$$$
