AV-unprocessed.smi:2688|AV-procd|sdf|10386|dock10
  -GOLD-   2272014423D 1   1.00000     0.00000
 Structure written by MMmdl.
 51 54  0  0  0  0  0  0  0  0  1 V2000
  144.3484  135.6496  150.6832 C   0  0  0  0  0  0  0  0  0  0  0  0
  144.8884  134.2874  151.0033 C   0  0  0  0  0  0  0  0  0  0  0  0
  144.1503  133.0664  150.7421 C   0  0  0  0  0  0  0  0  0  0  0  0
  144.7078  131.8767  151.0541 C   0  0  0  0  0  0  0  0  0  0  0  0
  146.0396  131.7849  151.6486 C   0  0  0  0  0  0  0  0  0  0  0  0
  146.5771  130.7165  151.9395 O   0  0  0  0  0  0  0  0  0  0  0  0
  146.6367  132.9975  151.8496 N   0  0  0  0  0  0  0  0  0  0  0  0
  147.9879  133.0937  152.4204 C   0  0  0  0  0  0  0  0  0  0  0  0
  147.9884  133.5627  153.8823 C   0  0  0  0  0  0  0  0  0  0  0  0
  147.4663  132.8753  154.7613 O   0  0  0  0  0  0  0  0  0  0  0  0
  148.5941  134.7342  154.1302 N   0  0  0  0  0  0  0  0  0  0  0  0
  148.6828  135.3630  155.4431 C   0  0  0  0  0  0  0  0  0  0  0  0
  150.1510  135.4838  155.9029 C   0  0  0  0  0  0  0  0  0  0  0  0
  150.7255  136.9197  156.0002 C   0  0  0  0  0  0  0  0  0  0  0  0
  152.1406  136.9250  156.6410 C   0  0  0  0  0  0  0  0  0  0  0  0
  152.6634  138.3709  156.7811 C   0  0  1  0  0  0  0  0  0  0  0  0
  152.7400  139.0290  155.3870 C   0  0  0  0  0  0  0  0  0  0  0  0
  151.3311  139.0535  154.7565 C   0  0  2  0  0  0  0  0  0  0  0  0
  150.3775  139.8668  155.6556 C   0  0  0  0  0  0  0  0  0  0  0  0
  150.3082  139.2054  157.0472 C   0  0  2  0  0  0  0  0  0  0  0  0
  151.7124  139.1816  157.6846 C   0  0  0  0  0  0  0  0  0  0  0  0
  149.7843  137.7614  156.9042 C   0  0  0  0  0  0  0  0  0  0  0  0
  150.8038  137.6087  154.6107 C   0  0  0  0  0  0  0  0  0  0  0  0
  146.0651  134.2193  151.5340 N   0  0  0  0  0  0  0  0  0  0  0  0
  143.3590  135.5849  150.2300 H   0  0  0  0  0  0  0  0  0  0  0  0
  145.0021  136.1717  149.9838 H   0  0  0  0  0  0  0  0  0  0  0  0
  144.2640  136.2558  151.5855 H   0  0  0  0  0  0  0  0  0  0  0  0
  143.1653  133.1175  150.3018 H   0  0  0  0  0  0  0  0  0  0  0  0
  144.1575  130.9679  150.8586 H   0  0  0  0  0  0  0  0  0  0  0  0
  148.4874  132.1241  152.3768 H   0  0  0  0  0  0  0  0  0  0  0  0
  148.5998  133.7656  151.8152 H   0  0  0  0  0  0  0  0  0  0  0  0
  149.0043  135.2331  153.3541 H   0  0  0  0  0  0  0  0  0  0  0  0
  148.1921  136.3357  155.4099 H   0  0  0  0  0  0  0  0  0  0  0  0
  148.1136  134.7499  156.1410 H   0  0  0  0  0  0  0  0  0  0  0  0
  150.2455  134.9964  156.8744 H   0  0  0  0  0  0  0  0  0  0  0  0
  150.7819  134.9072  155.2246 H   0  0  0  0  0  0  0  0  0  0  0  0
  152.1162  136.4409  157.6184 H   0  0  0  0  0  0  0  0  0  0  0  0
  152.8439  136.3541  156.0351 H   0  0  0  0  0  0  0  0  0  0  0  0
  153.6581  138.3534  157.2278 H   0  0  0  0  0  0  0  0  0  0  0  0
  153.1352  140.0422  155.4692 H   0  0  0  0  0  0  0  0  0  0  0  0
  153.4316  138.4798  154.7471 H   0  0  0  0  0  0  0  0  0  0  0  0
  151.3840  139.5204  153.7725 H   0  0  0  0  0  0  0  0  0  0  0  0
  150.7253  140.8970  155.7433 H   0  0  0  0  0  0  0  0  0  0  0  0
  149.3836  139.9136  155.2086 H   0  0  0  0  0  0  0  0  0  0  0  0
  149.6311  139.7747  157.6849 H   0  0  0  0  0  0  0  0  0  0  0  0
  151.6686  138.7400  158.6809 H   0  0  0  0  0  0  0  0  0  0  0  0
  152.0872  140.1978  157.8132 H   0  0  0  0  0  0  0  0  0  0  0  0
  148.7756  137.7773  156.4887 H   0  0  0  0  0  0  0  0  0  0  0  0
  149.6981  137.3030  157.8904 H   0  0  0  0  0  0  0  0  0  0  0  0
  151.4640  137.0559  153.9423 H   0  0  0  0  0  0  0  0  0  0  0  0
  149.8221  137.6166  154.1353 H   0  0  0  0  0  0  0  0  0  0  0  0
  1  2  1  0  0  0  0
  1 25  1  0  0  0  0
  1 26  1  0  0  0  0
  1 27  1  0  0  0  0
  2 24  2  0  0  0  0
  2  3  1  0  0  0  0
  3  4  2  0  0  0  0
  3 28  1  0  0  0  0
  4  5  1  0  0  0  0
  4 29  1  0  0  0  0
  5  6  2  0  0  0  0
  5  7  1  0  0  0  0
  7  8  1  0  0  0  0
  7 24  1  0  0  0  0
  8  9  1  0  0  0  0
  8 30  1  0  0  0  0
  8 31  1  0  0  0  0
  9 10  2  0  0  0  0
  9 11  1  0  0  0  0
 11 12  1  0  0  0  0
 11 32  1  0  0  0  0
 12 13  1  0  0  0  0
 12 33  1  0  0  0  0
 12 34  1  0  0  0  0
 13 14  1  0  0  0  0
 13 35  1  0  0  0  0
 13 36  1  0  0  0  0
 14 22  1  0  0  0  0
 14 23  1  0  0  0  0
 14 15  1  0  0  0  0
 15 16  1  0  0  0  0
 15 37  1  0  0  0  0
 15 38  1  0  0  0  0
 16 21  1  0  0  0  0
 16 17  1  0  0  0  0
 16 39  1  0  0  0  0
 17 18  1  0  0  0  0
 17 40  1  0  0  0  0
 17 41  1  0  0  0  0
 18 19  1  0  0  0  0
 18 23  1  0  0  0  0
 18 42  1  0  0  0  0
 19 20  1  0  0  0  0
 19 43  1  0  0  0  0
 19 44  1  0  0  0  0
 20 21  1  0  0  0  0
 20 22  1  0  0  0  0
 20 45  1  0  0  0  0
 21 46  1  0  0  0  0
 21 47  1  0  0  0  0
 22 48  1  0  0  0  0
 22 49  1  0  0  0  0
 23 50  1  0  0  0  0
 23 51  1  0  0  0  0
M  END
> <s_m_source_file>
AV-unprocessed.smi

> <i_m_source_file_index>
2688

> <i_lp_mmshare_version>
43012

> <i_f3d_flags>
0

> <s_epik_input>
W0NIM11jMVtjSF1bY0hdYyg9TyluKG4xKVtDSDJdQyg9TylbTkhdW0NIMl1bQ0gyXUMyM1tDSDJdW0NASF00W0NIMl1bQ0BASF0oW0NIMl0zKVtDSDJdW0NASF0oW0NIMl00KVtDSDJdMg==

> <s_epik_cmdline>
J2VwaWtfcHl0aG9uJywgJy1waCcsICc3LjAnLCAnLXRuJywgJzgnLCAnLW1hJywgJzIwMCcsICctbWV0YWxfYmluZGluZycsICctaW1hZScsICc8aW5maWxlLm1hZT4nLCAnLW9tYWUnLCAnPG91dGZpbGUubWFlPic=

> <r_lp_tautomer_probability>
1

> <r_epik_Ionization_Penalty>
8.74812e-07

> <r_epik_Ionization_Penalty_Charging>
8.53005e-07

> <r_epik_Ionization_Penalty_Neutral>
2.18061e-08

> <r_epik_State_Penalty>
-0

> <r_epik_Charging_Adjusted_Penalty>
8.53005e-07

> <i_epik_Tot_Q>
0

> <i_epik_Tot_abs_Q>
0

> <r_epik_Metal_State_Penalty>
-0

> <b_epik_Metal_Only>
0

> <s_lp_Force_Field>
OPLS_2005

> <r_lp_Energy>
47.4944

> <b_lp_Chiralities_Consistent>
1

> <s_lp_Variant>
AV-unprocessed.smi:2688-1

> <Gold.Version>
5.8.1

> <Gold.Id.Protein>
6NUR|6NUR_protein|mol2

> <Gold.PLP.Fitness>
40.1957

> <Gold.PLP.PLP>
-38.3773

> <Gold.PLP.part.hbond>
-1.0000

> <Gold.PLP.part.metal>
0.0000

> <Gold.PLP.part.buried>
-3.6166

> <Gold.PLP.part.nonpolar>
-33.7815

> <Gold.PLP.part.repulsive>
0.3653

> <Gold.PLP.ligand.clash>
0.0000

> <Gold.PLP.ligand.torsion>
0.5965

> <Gold.PLP.Chemscore.Hbond>
1.0000

> <Gold.PLP.Chemscore.CHOScore>
0.0000

> <Gold.PLP.Chemscore.Metal>
0.0000

> <Gold.Chemscore.Hbonds>
donor molecule, donor type, donor heavy atom, donor atom, acceptor molecule, acceptor atom, score
      L1  H    11    32       P1  7948  1.00

> <Gold.PLP.Chemscore.Internal.Correction>
0.0114

> <Gold.Rescore>
     Score         DG    S(hbond)    S(metal)    S(lipo)     H(rot)  DE(clash)    DE(int)     intcor
     13.64     -14.21       0.65        0.00      93.93       1.73       0.15       0.42       ----

> <Gold.Chemscore.Fitness>
13.6366

> <Gold.Chemscore.DG>
-14.2071

> <Gold.Chemscore.ZeroCoef>
-5.4800

> <Gold.Chemscore.Hbond>
0.6509

> <Gold.Chemscore.Metal>
0.0000

> <Gold.Chemscore.Lipo>
93.9304

> <Gold.Chemscore.Internal_Hbond>
0.0000

> <Gold.Chemscore.DEClash>
0.1460

> <Gold.Chemscore.DEInternal>
0.4245

> <Gold.Chemscore.Rot>
1.7331

> <Gold.Chemscore.Internal.Correction>
   9.000000E+99

> <Gold.Chemscore.Hbonds>
donor molecule, donor type, donor heavy atom, donor atom, acceptor molecule, acceptor atom, score
      L1  H    11    32       P1  7948  0.44

> <Gold.Chemscore.Hbond.Weighted>
-2.1740

> <Gold.Chemscore.Metal.Weighted>
-0.0000

> <Gold.Chemscore.Lipo.Weighted>
-10.9899

> <Gold.Chemscore.Internal_Hbond.Weighted>
0.0000

> <Gold.Chemscore.DEClash.Weighted>
0.1460

> <Gold.Chemscore.DEInternal.Weighted>
0.4245

> <Gold.Chemscore.Rot.Weighted>
4.4367

> <Gold.Chemscore.Internal.Correction.Weighted>
   9.000000E+99

> <Gold.Protein.RotatedTorsions>
[ 6907 6896 6895 6894 ] final -166.52 input  -60.11 | X-H torsion
[ 7974 7965 7964 7962 ] final    3.63 input  175.53 | X-H torsion
[ 8008 7997 7996 7995 ] final  -42.72 input   59.86 | X-H torsion
[ 10167 10162 10161 10158 ] final  123.53 input  -65.29 | X-H torsion
[ 10718 10713 10712 10709 ] final   99.63 input   66.30 | X-H torsion
[ 10763 10752 10751 10750 ] final  -34.06 input  -60.55 | X-H torsion
[ 11005 11000 10999 10996 ] final -178.13 input  -57.11 | X-H torsion

> <Gold.Protein.ActiveResidues>
 VAL166  LYS551  ARG553  GLY616  TRP617  ASP618  TYR619  PRO620  LYS621  CYS622 
 ASP623  PHE694  ASN695  SER759  ASP760  ASP761  ALA762  ILE779  LEU786  VAL792 
 PHE793  MET794  SER795  GLU796  ALA797  LYS798  CYS799  TRP800  GLU811  SER814 

> <Gold.Protein.RotatedAtoms>
  151.4449  133.3633  159.2786 H   0  0  0  0  0  0  0  0  0  0  0  0  # atno 6907 bound_to 6896
  150.9132  134.8550  159.7450 H   0  0  0  0  0  0  0  0  0  0  0  0  # atno 6908 bound_to 6896
  152.4943  134.4380  159.9586 H   0  0  0  0  0  0  0  0  0  0  0  0  # atno 6909 bound_to 6896
  146.2445  140.0656  142.8365 H   0  0  0  0  0  0  0  0  0  0  0  0  # atno 7974 bound_to 7965
  154.3998  140.1466  156.3402 H   0  0  0  0  0  0  0  0  0  0  0  0  # atno 8008 bound_to 7997
  155.8363  140.3464  155.5583 H   0  0  0  0  0  0  0  0  0  0  0  0  # atno 8009 bound_to 7997
  155.8134  140.0887  157.1881 H   0  0  0  0  0  0  0  0  0  0  0  0  # atno 8010 bound_to 7997
  139.5794  144.6979  151.3568 H   0  0  0  0  0  0  0  0  0  0  0  0  # atno 10167 bound_to 10162
  157.6872  131.0675  150.4977 H   0  0  0  0  0  0  0  0  0  0  0  0  # atno 10718 bound_to 10713
  153.8404  135.6858  153.4803 H   0  0  0  0  0  0  0  0  0  0  0  0  # atno 10763 bound_to 10752
  153.1457  135.4639  154.9560 H   0  0  0  0  0  0  0  0  0  0  0  0  # atno 10764 bound_to 10752
  154.7847  135.3281  154.7859 H   0  0  0  0  0  0  0  0  0  0  0  0  # atno 10765 bound_to 10752
  140.4332  134.6500  157.4722 H   0  0  0  0  0  0  0  0  0  0  0  0  # atno 11005 bound_to 11000
  145.0862  140.9254  143.4796 LP  0  0  0  0  0  0  0  0  0  0  0  0  # atno 17320 bound_to 7965
  145.0819  139.2954  143.5779 LP  0  0  0  0  0  0  0  0  0  0  0  0  # atno 17321 bound_to 7965
  140.7074  143.7479  150.7505 LP  0  0  0  0  0  0  0  0  0  0  0  0  # atno 17342 bound_to 10162
  140.1008  143.4790  152.2426 LP  0  0  0  0  0  0  0  0  0  0  0  0  # atno 17343 bound_to 10162
  156.5301  130.4182  149.6206 LP  0  0  0  0  0  0  0  0  0  0  0  0  # atno 17370 bound_to 10713
  156.3077  130.7212  151.2098 LP  0  0  0  0  0  0  0  0  0  0  0  0  # atno 17371 bound_to 10713
  140.0120  134.6676  155.9366 LP  0  0  0  0  0  0  0  0  0  0  0  0  # atno 17394 bound_to 11000
  141.1737  133.6539  156.4746 LP  0  0  0  0  0  0  0  0  0  0  0  0  # atno 17395 bound_to 11000

$$$$
