AV-unprocessed.smi:2062|AV-procd|sdf|8407|dock4
  -GOLD-   2272011 93D 1   1.00000     0.00000
 Structure written by MMmdl.
 41 42  0  0  0  0  0  0  0  0  2 V2000
  153.2257  142.8178  159.5980 C   0  0  0  0  0  0  0  0  0  0  0  0
  152.0650  143.4946  158.8487 C   0  0  0  0  0  0  0  0  0  0  0  0
  151.6724  144.7986  159.5606 C   0  0  0  0  0  0  0  0  0  0  0  0
  150.8465  142.5525  158.7052 C   0  0  0  0  0  0  0  0  0  0  0  0
  151.0647  141.3579  157.8884 N   0  0  0  0  0  0  0  0  0  0  0  0
  151.2208  141.7113  156.4819 C   0  0  0  0  0  0  0  0  0  0  0  0
  151.4530  140.4738  155.6001 C   0  0  0  0  0  0  0  0  0  0  0  0
  150.3753  139.5618  155.7769 O   0  0  0  0  0  0  0  0  0  0  0  0
  150.2210  139.1379  157.1296 C   0  0  2  0  0  0  0  0  0  0  0  0
  149.0466  138.1521  157.2051 C   0  0  0  0  0  0  0  0  0  0  0  0
  148.5246  138.0748  158.5631 N   0  0  0  0  0  0  0  0  0  0  0  0
  148.6592  137.0242  159.3827 C   0  0  0  0  0  0  0  0  0  0  0  0
  149.2682  136.0221  159.0007 O   0  0  0  0  0  0  0  0  0  0  0  0
  148.0811  137.1996  160.5930 N   0  5  0  0  0  0  0  0  0  0  0  0
  147.7631  136.1349  161.3473 C   0  0  0  0  0  0  0  0  0  0  0  0
  147.4868  134.9315  160.8317 N   0  0  0  0  0  0  0  0  0  0  0  0
  147.1734  133.9727  161.7967 C   0  0  0  0  0  0  0  0  0  0  0  0
  147.2021  134.4595  163.0766 C   0  0  0  0  0  0  0  0  0  0  0  0
  147.6284  136.1468  163.1080 S   0  0  0  0  0  0  0  0  0  0  0  0
  149.9876  140.3787  158.0148 C   0  0  0  0  0  0  0  0  0  0  0  0
  152.9389  142.5573  160.6173 H   0  0  0  0  0  0  0  0  0  0  0  0
  154.0911  143.4784  159.6572 H   0  0  0  0  0  0  0  0  0  0  0  0
  153.5495  141.9025  159.1038 H   0  0  0  0  0  0  0  0  0  0  0  0
  152.4156  143.7737  157.8540 H   0  0  0  0  0  0  0  0  0  0  0  0
  151.3016  144.6057  160.5679 H   0  0  0  0  0  0  0  0  0  0  0  0
  150.8914  145.3259  159.0120 H   0  0  0  0  0  0  0  0  0  0  0  0
  152.5246  145.4738  159.6429 H   0  0  0  0  0  0  0  0  0  0  0  0
  150.4727  142.2691  159.6905 H   0  0  0  0  0  0  0  0  0  0  0  0
  150.0352  143.1214  158.2485 H   0  0  0  0  0  0  0  0  0  0  0  0
  150.3318  142.2390  156.1324 H   0  0  0  0  0  0  0  0  0  0  0  0
  152.0587  142.3993  156.3627 H   0  0  0  0  0  0  0  0  0  0  0  0
  151.5089  140.7604  154.5499 H   0  0  0  0  0  0  0  0  0  0  0  0
  152.3972  139.9884  155.8518 H   0  0  0  0  0  0  0  0  0  0  0  0
  151.1331  138.6324  157.4530 H   0  0  0  0  0  0  0  0  0  0  0  0
  148.2463  138.4774  156.5388 H   0  0  0  0  0  0  0  0  0  0  0  0
  149.3605  137.1611  156.8735 H   0  0  0  0  0  0  0  0  0  0  0  0
  148.0253  138.8805  158.9102 H   0  0  0  0  0  0  0  0  0  0  0  0
  146.9399  132.9664  161.4825 H   0  0  0  0  0  0  0  0  0  0  0  0
  146.9992  133.9332  163.9968 H   0  0  0  0  0  0  0  0  0  0  0  0
  149.9030  140.0504  159.0502 H   0  0  0  0  0  0  0  0  0  0  0  0
  149.0350  140.8413  157.7515 H   0  0  0  0  0  0  0  0  0  0  0  0
  1  2  1  0  0  0  0
  1 21  1  0  0  0  0
  1 22  1  0  0  0  0
  1 23  1  0  0  0  0
  2  3  1  0  0  0  0
  2  4  1  0  0  0  0
  2 24  1  0  0  0  0
  3 25  1  0  0  0  0
  3 26  1  0  0  0  0
  3 27  1  0  0  0  0
  4  5  1  0  0  0  0
  4 28  1  0  0  0  0
  4 29  1  0  0  0  0
  5 20  1  0  0  0  0
  5  6  1  0  0  0  0
  6  7  1  0  0  0  0
  6 30  1  0  0  0  0
  6 31  1  0  0  0  0
  7  8  1  0  0  0  0
  7 32  1  0  0  0  0
  7 33  1  0  0  0  0
  8  9  1  0  0  0  0
  9 10  1  0  0  0  0
  9 20  1  0  0  0  0
  9 34  1  0  0  0  0
 10 11  1  0  0  0  0
 10 35  1  0  0  0  0
 10 36  1  0  0  0  0
 11 12  1  0  0  0  0
 11 37  1  0  0  0  0
 12 13  2  0  0  0  0
 12 14  1  0  0  0  0
 14 15  1  0  0  0  0
 15 19  1  0  0  0  0
 15 16  2  0  0  0  0
 16 17  1  0  0  0  0
 17 18  2  0  0  0  0
 17 38  1  0  0  0  0
 18 19  1  0  0  0  0
 18 39  1  0  0  0  0
 20 40  1  0  0  0  0
 20 41  1  0  0  0  0
M  CHG  1  14  -1
M  END
> <s_m_source_file>
AV-unprocessed.smi

> <i_m_source_file_index>
2062

> <i_lp_mmshare_version>
43012

> <i_f3d_flags>
0

> <s_epik_input>
W0NIM11bQ0hdKFtDSDNdKVtDSDJdTjFbQ0gyXVtDSDJdT1tDQEhdKFtDSDJdMSlbQ0gyXVtOSF1DKD1PKVtOSF1jMm5bY0hdW2NIXXMy

> <s_epik_cmdline>
J2VwaWtfcHl0aG9uJywgJy1waCcsICc3LjAnLCAnLXRuJywgJzgnLCAnLW1hJywgJzIwMCcsICctbWV0YWxfYmluZGluZycsICctaW1hZScsICc8aW5maWxlLm1hZT4nLCAnLW9tYWUnLCAnPG91dGZpbGUubWFlPic=

> <r_lp_tautomer_probability>
0.999

> <r_epik_Ionization_Penalty>
7.76343

> <r_epik_Ionization_Penalty_Charging>
5.65212

> <r_epik_Ionization_Penalty_Neutral>
2.11131

> <r_epik_State_Penalty>
6.82229

> <r_epik_Charging_Adjusted_Penalty>
12.4744

> <i_epik_Tot_Q>
-1

> <i_epik_Tot_abs_Q>
1

> <r_epik_Metal_State_Penalty>
2.82401

> <b_epik_Metal_Only>
1

> <s_lp_Force_Field>
OPLS_2005

> <r_lp_Energy>
20.4401

> <b_lp_Chiralities_Consistent>
1

> <s_lp_Variant>
AV-unprocessed.smi:2062-12

> <Gold.Version>
5.8.1

> <Gold.Id.Protein>
6NUR|6NUR_protein|mol2

> <Gold.PLP.Fitness>
49.6888

> <Gold.PLP.PLP>
-38.7378

> <Gold.PLP.part.hbond>
-3.0000

> <Gold.PLP.part.metal>
0.0000

> <Gold.PLP.part.buried>
-2.9787

> <Gold.PLP.part.nonpolar>
-32.9134

> <Gold.PLP.part.repulsive>
0.2032

> <Gold.PLP.ligand.clash>
0.0000

> <Gold.PLP.ligand.torsion>
0.5849

> <Gold.PLP.Chemscore.Hbond>
3.9637

> <Gold.PLP.Chemscore.CHOScore>
0.0000

> <Gold.PLP.Chemscore.Metal>
0.0000

> <Gold.Chemscore.Hbonds>
donor molecule, donor type, donor heavy atom, donor atom, acceptor molecule, acceptor atom, score
      P1  H  6896  6907       L1    13  0.93
      P1  H  6931  6943       L1    14  1.57
      P1  H  6934  6947       L1    14  1.36

> <Gold.PLP.Chemscore.Internal.Correction>
0.2297

> <Gold.Rescore>
     Score         DG    S(hbond)    S(metal)    S(lipo)     H(rot)  DE(clash)    DE(int)     intcor
     16.32     -18.56       1.91        0.00      93.97       1.68       0.23       2.00       ----

> <Gold.Chemscore.Fitness>
16.3231

> <Gold.Chemscore.DG>
-18.5590

> <Gold.Chemscore.ZeroCoef>
-5.4800

> <Gold.Chemscore.Hbond>
1.9100

> <Gold.Chemscore.Metal>
0.0000

> <Gold.Chemscore.Lipo>
93.9724

> <Gold.Chemscore.Internal_Hbond>
0.0000

> <Gold.Chemscore.DEClash>
0.2322

> <Gold.Chemscore.DEInternal>
2.0036

> <Gold.Chemscore.Rot>
1.6779

> <Gold.Chemscore.Internal.Correction>
   9.000000E+99

> <Gold.Chemscore.Hbonds>
donor molecule, donor type, donor heavy atom, donor atom, acceptor molecule, acceptor atom, score
      P1  H  6896  6907       L1    13  0.89
      P1  H  6931  6943       L1    14  0.19
      P1  H  6934  6947       L1    14  0.59

> <Gold.Chemscore.Hbond.Weighted>
-6.3795

> <Gold.Chemscore.Metal.Weighted>
-0.0000

> <Gold.Chemscore.Lipo.Weighted>
-10.9948

> <Gold.Chemscore.Internal_Hbond.Weighted>
0.0000

> <Gold.Chemscore.DEClash.Weighted>
0.2322

> <Gold.Chemscore.DEInternal.Weighted>
2.0036

> <Gold.Chemscore.Rot.Weighted>
4.2953

> <Gold.Chemscore.Internal.Correction.Weighted>
   9.000000E+99

> <Gold.Protein.RotatedTorsions>
[ 6907 6896 6895 6894 ] final  -64.91 input  -60.11 | X-H torsion
[ 7974 7965 7964 7962 ] final   73.04 input  175.53 | X-H torsion
[ 8008 7997 7996 7995 ] final   58.66 input   59.86 | X-H torsion
[ 10167 10162 10161 10158 ] final   15.90 input  -65.29 | X-H torsion
[ 10718 10713 10712 10709 ] final    1.26 input   66.30 | X-H torsion
[ 10763 10752 10751 10750 ] final   58.21 input  -60.55 | X-H torsion
[ 11005 11000 10999 10996 ] final  178.80 input  -57.11 | X-H torsion

> <Gold.Protein.ActiveResidues>
 VAL166  LYS551  ARG553  GLY616  TRP617  ASP618  TYR619  PRO620  LYS621  CYS622 
 ASP623  PHE694  ASN695  SER759  ASP760  ASP761  ALA762  ILE779  LEU786  VAL792 
 PHE793  MET794  SER795  GLU796  ALA797  LYS798  CYS799  TRP800  GLU811  SER814 

> <Gold.Protein.RotatedAtoms>
  150.7556  134.6234  159.6147 H   0  0  0  0  0  0  0  0  0  0  0  0  # atno 6907 bound_to 6896
  152.3533  134.6972  160.0239 H   0  0  0  0  0  0  0  0  0  0  0  0  # atno 6908 bound_to 6896
  151.7386  133.3285  159.3396 H   0  0  0  0  0  0  0  0  0  0  0  0  # atno 6909 bound_to 6896
  145.7459  139.2740  143.1459 H   0  0  0  0  0  0  0  0  0  0  0  0  # atno 7974 bound_to 7965
  155.5537  140.3487  155.4474 H   0  0  0  0  0  0  0  0  0  0  0  0  # atno 8008 bound_to 7997
  156.0565  140.1330  157.0017 H   0  0  0  0  0  0  0  0  0  0  0  0  # atno 8009 bound_to 7997
  154.4459  140.0994  156.6438 H   0  0  0  0  0  0  0  0  0  0  0  0  # atno 8010 bound_to 7997
  140.5835  143.8934  150.6810 H   0  0  0  0  0  0  0  0  0  0  0  0  # atno 10167 bound_to 10162
  156.8456  130.5536  149.5674 H   0  0  0  0  0  0  0  0  0  0  0  0  # atno 10718 bound_to 10713
  152.9866  135.5614  154.5516 H   0  0  0  0  0  0  0  0  0  0  0  0  # atno 10763 bound_to 10752
  154.4952  135.2794  155.1467 H   0  0  0  0  0  0  0  0  0  0  0  0  # atno 10764 bound_to 10752
  154.2920  135.6324  153.5442 H   0  0  0  0  0  0  0  0  0  0  0  0  # atno 10765 bound_to 10752
  140.3991  134.6793  157.4552 H   0  0  0  0  0  0  0  0  0  0  0  0  # atno 11005 bound_to 11000
  146.0403  140.8171  142.9832 LP  0  0  0  0  0  0  0  0  0  0  0  0  # atno 17320 bound_to 7965
  144.6860  140.2900  143.7279 LP  0  0  0  0  0  0  0  0  0  0  0  0  # atno 17321 bound_to 7965
  140.2440  143.3643  152.1463 LP  0  0  0  0  0  0  0  0  0  0  0  0  # atno 17342 bound_to 10162
  139.5184  144.7005  151.5507 LP  0  0  0  0  0  0  0  0  0  0  0  0  # atno 17343 bound_to 10162
  156.0856  130.5856  150.9642 LP  0  0  0  0  0  0  0  0  0  0  0  0  # atno 17370 bound_to 10713
  157.6332  131.0919  150.8401 LP  0  0  0  0  0  0  0  0  0  0  0  0  # atno 17371 bound_to 10713
  140.0349  134.6351  155.9056 LP  0  0  0  0  0  0  0  0  0  0  0  0  # atno 17394 bound_to 11000
  141.1863  133.6557  156.5234 LP  0  0  0  0  0  0  0  0  0  0  0  0  # atno 17395 bound_to 11000

$$$$
