AV-unprocessed.smi:34|AV-procd|sdf|216|dock3
  -GOLD-   2262015523D 1   1.00000     0.00000
 Structure written by MMmdl.
 55 59  0  0  0  0  0  0  0  0  1 V2000
  152.9677  140.2260  159.3226 O   0  0  0  0  0  0  0  0  0  0  0  0
  152.4999  141.1423  158.6458 C   0  0  0  0  0  0  0  0  0  0  0  0
  152.0541  140.9435  157.2778 N   0  0  0  0  0  0  0  0  0  0  0  0
  152.1445  139.8232  156.5230 C   0  0  0  0  0  0  0  0  0  0  0  0
  152.7372  139.8139  155.3002 N   0  0  0  0  0  0  0  0  0  0  0  0
  152.7998  138.6827  154.5926 C   0  0  0  0  0  0  0  0  0  0  0  0
  152.3392  137.4733  154.9157 N   0  0  0  0  0  0  0  0  0  0  0  0
  151.7389  137.4709  156.1400 C   0  0  0  0  0  0  0  0  0  0  0  0
  151.6033  138.5994  156.9968 C   0  0  0  0  0  0  0  0  0  0  0  0
  150.9410  138.2303  158.1600 N   0  0  0  0  0  0  0  0  0  0  0  0
  150.7016  136.9573  157.9963 C   0  0  0  0  0  0  0  0  0  0  0  0
  151.1495  136.4163  156.8116 N   0  0  0  0  0  0  0  0  0  0  0  0
  151.0204  134.9901  156.3684 C   0  0  1  0  0  0  0  0  0  0  0  0
  150.2400  134.2696  157.2784 O   0  0  0  0  0  0  0  0  0  0  0  0
  149.3085  133.4203  156.6004 C   0  0  1  0  0  0  0  0  0  0  0  0
  147.8848  133.9486  156.8406 C   0  0  0  0  0  0  0  0  0  0  0  0
  147.6902  134.1410  158.2326 O   0  0  0  0  0  0  0  0  0  0  0  0
  147.5785  135.3862  158.7362 C   0  0  0  0  0  0  0  0  0  0  0  0
  147.6256  136.4086  158.0489 O   0  0  0  0  0  0  0  0  0  0  0  0
  147.4041  135.3994  160.2170 C   0  0  0  0  0  0  0  0  0  0  0  0
  147.3485  136.6386  160.8967 C   0  0  0  0  0  0  0  0  0  0  0  0
  147.1868  136.6831  162.2952 C   0  0  0  0  0  0  0  0  0  0  0  0
  147.0786  135.4888  163.0309 C   0  0  0  0  0  0  0  0  0  0  0  0
  147.1337  134.2496  162.3666 C   0  0  0  0  0  0  0  0  0  0  0  0
  147.2957  134.2030  160.9682 C   0  0  0  0  0  0  0  0  0  0  0  0
  149.7476  133.4737  155.1333 C   0  0  1  0  0  0  0  0  0  0  0  0
  148.7860  133.2196  154.2436 F   0  0  0  0  0  0  0  0  0  0  0  0
  150.3708  134.8484  154.9859 C   0  0  1  0  0  0  0  0  0  0  0  0
  149.4136  135.8560  154.7074 O   0  0  0  0  0  0  0  0  0  0  0  0
  152.2755  142.5113  159.2198 C   0  0  0  0  0  0  0  0  0  0  0  0
  152.2892  142.7018  160.6201 C   0  0  0  0  0  0  0  0  0  0  0  0
  152.0969  143.9855  161.1671 C   0  0  0  0  0  0  0  0  0  0  0  0
  151.8969  145.0906  160.3186 C   0  0  0  0  0  0  0  0  0  0  0  0
  151.8933  144.9120  158.9225 C   0  0  0  0  0  0  0  0  0  0  0  0
  152.0855  143.6288  158.3741 C   0  0  0  0  0  0  0  0  0  0  0  0
  151.6359  141.7454  156.8294 H   0  0  0  0  0  0  0  0  0  0  0  0
  153.2890  138.7562  153.6323 H   0  0  0  0  0  0  0  0  0  0  0  0
  150.1899  136.3701  158.7450 H   0  0  0  0  0  0  0  0  0  0  0  0
  152.0382  134.5981  156.3928 H   0  0  0  0  0  0  0  0  0  0  0  0
  149.3867  132.4003  156.9785 H   0  0  0  0  0  0  0  0  0  0  0  0
  147.7222  134.8757  156.2909 H   0  0  0  0  0  0  0  0  0  0  0  0
  147.1477  133.2279  156.4855 H   0  0  0  0  0  0  0  0  0  0  0  0
  147.4304  137.5687  160.3529 H   0  0  0  0  0  0  0  0  0  0  0  0
  147.1458  137.6353  162.8032 H   0  0  0  0  0  0  0  0  0  0  0  0
  146.9544  135.5228  164.1033 H   0  0  0  0  0  0  0  0  0  0  0  0
  147.0515  133.3320  162.9304 H   0  0  0  0  0  0  0  0  0  0  0  0
  147.3342  133.2353  160.4898 H   0  0  0  0  0  0  0  0  0  0  0  0
  150.5186  132.7192  154.9704 H   0  0  0  0  0  0  0  0  0  0  0  0
  151.1385  134.8729  154.2122 H   0  0  0  0  0  0  0  0  0  0  0  0
  149.1707  135.7954  153.7962 H   0  0  0  0  0  0  0  0  0  0  0  0
  152.4433  141.8641  161.2851 H   0  0  0  0  0  0  0  0  0  0  0  0
  152.1043  144.1221  162.2384 H   0  0  0  0  0  0  0  0  0  0  0  0
  151.7503  146.0749  160.7385 H   0  0  0  0  0  0  0  0  0  0  0  0
  151.7461  145.7606  158.2706 H   0  0  0  0  0  0  0  0  0  0  0  0
  152.0892  143.5159  157.2996 H   0  0  0  0  0  0  0  0  0  0  0  0
  1  2  2  0  0  0  0
  2  3  1  0  0  0  0
  2 30  1  0  0  0  0
  3  4  1  0  0  0  0
  3 36  1  0  0  0  0
  4  9  1  0  0  0  0
  4  5  2  0  0  0  0
  5  6  1  0  0  0  0
  6  7  2  0  0  0  0
  6 37  1  0  0  0  0
  7  8  1  0  0  0  0
  8 12  1  0  0  0  0
  8  9  2  0  0  0  0
  9 10  1  0  0  0  0
 10 11  2  0  0  0  0
 11 12  1  0  0  0  0
 11 38  1  0  0  0  0
 12 13  1  0  0  0  0
 13 28  1  0  0  0  0
 13 14  1  0  0  0  0
 13 39  1  0  0  0  0
 14 15  1  0  0  0  0
 15 16  1  0  0  0  0
 15 26  1  0  0  0  0
 15 40  1  0  0  0  0
 16 17  1  0  0  0  0
 16 41  1  0  0  0  0
 16 42  1  0  0  0  0
 17 18  1  0  0  0  0
 18 19  2  0  0  0  0
 18 20  1  0  0  0  0
 20 25  1  0  0  0  0
 20 21  2  0  0  0  0
 21 22  1  0  0  0  0
 21 43  1  0  0  0  0
 22 23  2  0  0  0  0
 22 44  1  0  0  0  0
 23 24  1  0  0  0  0
 23 45  1  0  0  0  0
 24 25  2  0  0  0  0
 24 46  1  0  0  0  0
 25 47  1  0  0  0  0
 26 27  1  0  0  0  0
 26 28  1  0  0  0  0
 26 48  1  0  0  0  0
 28 29  1  0  0  0  0
 28 49  1  0  0  0  0
 29 50  1  0  0  0  0
 30 35  1  0  0  0  0
 30 31  2  0  0  0  0
 31 32  1  0  0  0  0
 31 51  1  0  0  0  0
 32 33  2  0  0  0  0
 32 52  1  0  0  0  0
 33 34  1  0  0  0  0
 33 53  1  0  0  0  0
 34 35  2  0  0  0  0
 34 54  1  0  0  0  0
 35 55  1  0  0  0  0
M  END
> <s_m_source_file>
AV-unprocessed.smi

> <i_m_source_file_index>
34

> <i_lp_mmshare_version>
43012

> <i_f3d_flags>
0

> <s_epik_input>
W2NIXTFbY0hdW2NIXVtjSF1bY0hdYzFDKD1PKVtOSF1jKG5bY0hdbjIpYyhjMjMpbltjSF1uM1tDQEBIXTRPW0NASF0oW0NAQEhdKEYpW0NASF00W09IXSlbQ0gyXU9DKD1PKWM1W2NIXVtjSF1bY0hdW2NIXVtjSF01

> <s_epik_cmdline>
J2VwaWtfcHl0aG9uJywgJy1waCcsICc3LjAnLCAnLXRuJywgJzgnLCAnLW1hJywgJzIwMCcsICctbWV0YWxfYmluZGluZycsICctaW1hZScsICc8aW5maWxlLm1hZT4nLCAnLW9tYWUnLCAnPG91dGZpbGUubWFlPic=

> <r_lp_tautomer_probability>
1

> <r_epik_Ionization_Penalty>
0.00257489

> <r_epik_Ionization_Penalty_Charging>
0

> <r_epik_Ionization_Penalty_Neutral>
0.00257489

> <r_epik_State_Penalty>
0.00519398

> <r_epik_Charging_Adjusted_Penalty>
0.00519398

> <i_epik_Tot_Q>
0

> <i_epik_Tot_abs_Q>
0

> <r_epik_Metal_State_Penalty>
0.335891

> <b_epik_Metal_Only>
0

> <s_epik_Chemistry_Notes>
This compound has an ester and may undergo hydrolysis at high or low pH. This compound contains an acetal/aminal-like group ( X-CH(R)-Y where X, Y are N, S, or O) that may be acid/base labile, releasing an aldehyde.

> <s_lp_Force_Field>
OPLS_2005

> <r_lp_Energy>
55.8297

> <b_lp_Chiralities_Consistent>
1

> <s_lp_Variant>
AV-unprocessed.smi:34-2

> <Gold.Version>
5.8.1

> <Gold.Id.Protein>
6NUR|6NUR_protein|mol2

> <Gold.PLP.Fitness>
75.7165

> <Gold.PLP.PLP>
-67.3155

> <Gold.PLP.part.hbond>
-5.0000

> <Gold.PLP.part.metal>
0.0000

> <Gold.PLP.part.buried>
-7.1809

> <Gold.PLP.part.nonpolar>
-55.4199

> <Gold.PLP.part.repulsive>
0.1986

> <Gold.PLP.ligand.clash>
0.0000

> <Gold.PLP.ligand.torsion>
1.1489

> <Gold.PLP.Chemscore.Hbond>
3.5370

> <Gold.PLP.Chemscore.CHOScore>
0.0000

> <Gold.PLP.Chemscore.Metal>
0.0000

> <Gold.Chemscore.Hbonds>
donor molecule, donor type, donor heavy atom, donor atom, acceptor molecule, acceptor atom, score
      L1  H    29    50       P1  7948  1.00
      P1  H  6896  6908       L1    14  0.66
      P1  H  7989  7998       L1     5  0.07
      P1  H  7997  8010       L1     5  0.99
      P1  H 10752 10765       L1     7  0.67

> <Gold.PLP.Chemscore.Internal.Correction>
0.0877

> <Gold.Rescore>
     Score         DG    S(hbond)    S(metal)    S(lipo)     H(rot)  DE(clash)    DE(int)     intcor
     22.07     -23.24       2.50        0.00     139.92       2.72       0.01       1.17       ----

> <Gold.Chemscore.Fitness>
22.0682

> <Gold.Chemscore.DG>
-23.2429

> <Gold.Chemscore.ZeroCoef>
-5.4800

> <Gold.Chemscore.Hbond>
2.5029

> <Gold.Chemscore.Metal>
0.0000

> <Gold.Chemscore.Lipo>
139.9174

> <Gold.Chemscore.Internal_Hbond>
0.0000

> <Gold.Chemscore.DEClash>
0.0069

> <Gold.Chemscore.DEInternal>
1.1678

> <Gold.Chemscore.Rot>
2.7215

> <Gold.Chemscore.Internal.Correction>
   9.000000E+99

> <Gold.Chemscore.Hbonds>
donor molecule, donor type, donor heavy atom, donor atom, acceptor molecule, acceptor atom, score
      L1  H    29    50       P1  7948  0.77
      P1  H  6896  6908       L1    14  0.64
      P1  H  7997  8010       L1     5  0.16
      P1  H 10752 10765       L1     7  0.55

> <Gold.Chemscore.Hbond.Weighted>
-8.3596

> <Gold.Chemscore.Metal.Weighted>
-0.0000

> <Gold.Chemscore.Lipo.Weighted>
-16.3703

> <Gold.Chemscore.Internal_Hbond.Weighted>
0.0000

> <Gold.Chemscore.DEClash.Weighted>
0.0069

> <Gold.Chemscore.DEInternal.Weighted>
1.1678

> <Gold.Chemscore.Rot.Weighted>
6.9670

> <Gold.Chemscore.Internal.Correction.Weighted>
   9.000000E+99

> <Gold.Protein.RotatedTorsions>
[ 6907 6896 6895 6894 ] final  126.35 input  -60.11 | X-H torsion
[ 7974 7965 7964 7962 ] final -150.97 input  175.53 | X-H torsion
[ 8008 7997 7996 7995 ] final  117.72 input   59.86 | X-H torsion
[ 10167 10162 10161 10158 ] final -164.63 input  -65.29 | X-H torsion
[ 10718 10713 10712 10709 ] final  -72.52 input   66.30 | X-H torsion
[ 10763 10752 10751 10750 ] final  168.03 input  -60.55 | X-H torsion
[ 11005 11000 10999 10996 ] final  116.73 input  -57.11 | X-H torsion

> <Gold.Protein.ActiveResidues>
 VAL166  LYS551  ARG553  GLY616  TRP617  ASP618  TYR619  PRO620  LYS621  CYS622 
 ASP623  PHE694  ASN695  SER759  ASP760  ASP761  ALA762  ILE779  LEU786  VAL792 
 PHE793  MET794  SER795  GLU796  ALA797  LYS798  CYS799  TRP800  GLU811  SER814 

> <Gold.Protein.RotatedAtoms>
  152.3911  133.6680  159.6237 H   0  0  0  0  0  0  0  0  0  0  0  0  # atno 6907 bound_to 6896
  150.7819  133.8953  159.3334 H   0  0  0  0  0  0  0  0  0  0  0  0  # atno 6908 bound_to 6896
  151.6739  135.0973  160.0254 H   0  0  0  0  0  0  0  0  0  0  0  0  # atno 6909 bound_to 6896
  144.7876  140.4860  143.5795 H   0  0  0  0  0  0  0  0  0  0  0  0  # atno 7974 bound_to 7965
  156.2509  140.2890  156.0723 H   0  0  0  0  0  0  0  0  0  0  0  0  # atno 8008 bound_to 7997
  155.1657  140.0400  157.2869 H   0  0  0  0  0  0  0  0  0  0  0  0  # atno 8009 bound_to 7997
  154.6361  140.2511  155.7383 H   0  0  0  0  0  0  0  0  0  0  0  0  # atno 8010 bound_to 7997
  139.6237  144.0573  152.1956 H   0  0  0  0  0  0  0  0  0  0  0  0  # atno 10167 bound_to 10162
  156.0317  130.4374  150.2605 H   0  0  0  0  0  0  0  0  0  0  0  0  # atno 10718 bound_to 10713
  154.3625  135.2753  155.2312 H   0  0  0  0  0  0  0  0  0  0  0  0  # atno 10763 bound_to 10752
  154.4494  135.5934  153.6185 H   0  0  0  0  0  0  0  0  0  0  0  0  # atno 10764 bound_to 10752
  152.9842  135.6038  154.3847 H   0  0  0  0  0  0  0  0  0  0  0  0  # atno 10765 bound_to 10752
  139.9051  134.9602  156.7243 H   0  0  0  0  0  0  0  0  0  0  0  0  # atno 11005 bound_to 11000
  145.5879  139.1493  143.3199 LP  0  0  0  0  0  0  0  0  0  0  0  0  # atno 17320 bound_to 7965
  146.2115  140.6006  142.9057 LP  0  0  0  0  0  0  0  0  0  0  0  0  # atno 17321 bound_to 7965
  140.0221  144.6145  150.7557 LP  0  0  0  0  0  0  0  0  0  0  0  0  # atno 17342 bound_to 10162
  140.7398  143.2796  151.3638 LP  0  0  0  0  0  0  0  0  0  0  0  0  # atno 17343 bound_to 10162
  157.0707  131.0116  151.3191 LP  0  0  0  0  0  0  0  0  0  0  0  0  # atno 17370 bound_to 10713
  157.5001  130.7875  149.7596 LP  0  0  0  0  0  0  0  0  0  0  0  0  # atno 17371 bound_to 10713
  140.6975  133.9335  155.8004 LP  0  0  0  0  0  0  0  0  0  0  0  0  # atno 17394 bound_to 11000
  141.0396  134.0640  157.3918 LP  0  0  0  0  0  0  0  0  0  0  0  0  # atno 17395 bound_to 11000

$$$$
