AV-unprocessed.smi:287|AV-procd|sdf|2194|dock6
  -GOLD-   2262021593D 1   1.00000     0.00000
 Structure written by MMmdl.
 55 58  0  0  0  0  0  0  0  0  1 V2000
  144.0730  145.6197  153.1049 C   0  0  0  0  0  0  0  0  0  0  0  0
  144.3978  144.4693  153.9949 C   0  0  0  0  0  0  0  0  0  0  0  0
  145.0308  143.2760  153.8029 C   0  0  0  0  0  0  0  0  0  0  0  0
  145.0387  142.5911  155.0545 C   0  0  0  0  0  0  0  0  0  0  0  0
  145.6429  141.2181  155.3149 C   0  0  2  0  0  0  0  0  0  0  0  0
  146.9908  141.3714  156.0385 C   0  0  0  0  0  0  0  0  0  0  0  0
  145.9351  140.5092  154.1259 O   0  0  0  0  0  0  0  0  0  0  0  0
  144.6979  140.3119  156.1358 C   0  0  0  0  0  0  0  0  0  0  0  0
  145.0365  138.8981  156.0299 N   0  0  0  0  0  0  0  0  0  0  0  0
  144.3111  138.0634  155.2566 C   0  0  0  0  0  0  0  0  0  0  0  0
  142.9749  138.0753  155.4799 N   0  0  0  0  0  0  0  0  0  0  0  0
  142.1666  137.2826  154.7703 C   0  0  0  0  0  0  0  0  0  0  0  0
  142.4836  136.4161  153.8062 N   0  0  0  0  0  0  0  0  0  0  0  0
  143.8279  136.3987  153.5765 C   0  0  0  0  0  0  0  0  0  0  0  0
  144.8075  137.1862  154.2468 C   0  0  0  0  0  0  0  0  0  0  0  0
  146.0636  136.8930  153.7241 N   0  0  0  0  0  0  0  0  0  0  0  0
  145.8342  135.9904  152.8094 C   0  0  0  0  0  0  0  0  0  0  0  0
  144.5126  135.6350  152.6589 N   0  0  0  0  0  0  0  0  0  0  0  0
  143.9066  134.6523  151.7103 C   0  0  2  0  0  0  0  0  0  0  0  0
  144.6668  133.4914  151.7436 O   0  0  0  0  0  0  0  0  0  0  0  0
  144.4375  132.7932  150.5317 C   0  0  2  0  0  0  0  0  0  0  0  0
  145.5568  131.7629  150.3158 C   0  0  0  0  0  0  0  0  0  0  0  0
  146.8076  132.4082  150.2070 O   0  0  0  0  0  0  0  0  0  0  0  0
  144.3727  133.9068  149.4731 C   0  0  1  0  0  0  0  0  0  0  0  0
  143.4319  133.5706  148.4728 O   0  0  0  0  0  0  0  0  0  0  0  0
  143.9092  135.1423  150.2482 C   0  0  2  0  0  0  0  0  0  0  0  0
  144.7753  136.2382  150.0103 O   0  0  0  0  0  0  0  0  0  0  0  0
  144.3869  143.4361  155.9206 C   0  0  0  0  0  0  0  0  0  0  0  0
  144.0263  143.3636  157.3678 C   0  0  0  0  0  0  0  0  0  0  0  0
  143.9984  144.5776  155.2867 O   0  0  0  0  0  0  0  0  0  0  0  0
  142.9047  134.4523  152.0947 H   0  0  0  0  0  0  0  0  0  0  0  0
  143.4714  132.2919  150.6272 H   0  0  0  0  0  0  0  0  0  0  0  0
  145.3536  134.0706  149.0235 H   0  0  0  0  0  0  0  0  0  0  0  0
  142.8916  135.4406  149.9923 H   0  0  0  0  0  0  0  0  0  0  0  0
  144.6456  145.5681  152.1786 H   0  0  0  0  0  0  0  0  0  0  0  0
  144.3062  146.5662  153.5929 H   0  0  0  0  0  0  0  0  0  0  0  0
  143.0136  145.6214  152.8482 H   0  0  0  0  0  0  0  0  0  0  0  0
  145.4481  142.9323  152.8681 H   0  0  0  0  0  0  0  0  0  0  0  0
  146.8700  141.8757  156.9979 H   0  0  0  0  0  0  0  0  0  0  0  0
  147.6941  141.9587  155.4464 H   0  0  0  0  0  0  0  0  0  0  0  0
  147.4519  140.4027  156.2352 H   0  0  0  0  0  0  0  0  0  0  0  0
  145.1213  140.3017  153.6928 H   0  0  0  0  0  0  0  0  0  0  0  0
  144.6756  140.6192  157.1824 H   0  0  0  0  0  0  0  0  0  0  0  0
  143.6862  140.4328  155.7468 H   0  0  0  0  0  0  0  0  0  0  0  0
  145.8640  138.6094  156.5317 H   0  0  0  0  0  0  0  0  0  0  0  0
  141.1160  137.3518  155.0104 H   0  0  0  0  0  0  0  0  0  0  0  0
  146.6270  135.5612  152.2139 H   0  0  0  0  0  0  0  0  0  0  0  0
  145.5852  131.0376  151.1296 H   0  0  0  0  0  0  0  0  0  0  0  0
  145.3804  131.2063  149.3949 H   0  0  0  0  0  0  0  0  0  0  0  0
  147.4628  131.7602  149.9966 H   0  0  0  0  0  0  0  0  0  0  0  0
  142.5638  133.7128  148.8192 H   0  0  0  0  0  0  0  0  0  0  0  0
  144.2466  137.0052  149.8491 H   0  0  0  0  0  0  0  0  0  0  0  0
  143.4756  142.4479  157.5836 H   0  0  0  0  0  0  0  0  0  0  0  0
  143.4005  144.2068  157.6615 H   0  0  0  0  0  0  0  0  0  0  0  0
  144.9218  143.3771  157.9892 H   0  0  0  0  0  0  0  0  0  0  0  0
  1  2  1  0  0  0  0
  1 35  1  0  0  0  0
  1 36  1  0  0  0  0
  1 37  1  0  0  0  0
  2 30  1  0  0  0  0
  2  3  2  0  0  0  0
  3  4  1  0  0  0  0
  3 38  1  0  0  0  0
  4  5  1  0  0  0  0
  4 28  2  0  0  0  0
  5  6  1  0  0  0  0
  5  7  1  0  0  0  0
  5  8  1  0  0  0  0
  6 39  1  0  0  0  0
  6 40  1  0  0  0  0
  6 41  1  0  0  0  0
  7 42  1  0  0  0  0
  8  9  1  0  0  0  0
  8 43  1  0  0  0  0
  8 44  1  0  0  0  0
  9 10  1  0  0  0  0
  9 45  1  0  0  0  0
 10 15  1  0  0  0  0
 10 11  2  0  0  0  0
 11 12  1  0  0  0  0
 12 13  2  0  0  0  0
 12 46  1  0  0  0  0
 13 14  1  0  0  0  0
 14 18  1  0  0  0  0
 14 15  2  0  0  0  0
 15 16  1  0  0  0  0
 16 17  2  0  0  0  0
 17 18  1  0  0  0  0
 17 47  1  0  0  0  0
 18 19  1  0  0  0  0
 19 31  1  0  0  0  0
 19 26  1  0  0  0  0
 19 20  1  0  0  0  0
 20 21  1  0  0  0  0
 21 32  1  0  0  0  0
 21 22  1  0  0  0  0
 21 24  1  0  0  0  0
 22 23  1  0  0  0  0
 22 48  1  0  0  0  0
 22 49  1  0  0  0  0
 23 50  1  0  0  0  0
 24 33  1  0  0  0  0
 24 25  1  0  0  0  0
 24 26  1  0  0  0  0
 25 51  1  0  0  0  0
 26 34  1  0  0  0  0
 26 27  1  0  0  0  0
 27 52  1  0  0  0  0
 28 29  1  0  0  0  0
 28 30  1  0  0  0  0
 29 53  1  0  0  0  0
 29 54  1  0  0  0  0
 29 55  1  0  0  0  0
M  END
> <s_m_source_file>
AV-unprocessed.smi

> <i_m_source_file_index>
287

> <i_lp_mmshare_version>
43012

> <i_f3d_flags>
0

> <s_epik_input>
W0NIM11jMVtjSF1jKGMobzEpW0NIM10pW0NAQF0oW0NIM10pKFtPSF0pW0NIMl1bTkhdYyhuW2NIXW4yKWMoYzIzKW5bY0hdbjNbQ0BASF00T1tDQEhdKFtDSDJdW09IXSlbQ0BASF0oW09IXSlbQ0BIXTRbT0hd

> <s_epik_cmdline>
J2VwaWtfcHl0aG9uJywgJy1waCcsICc3LjAnLCAnLXRuJywgJzgnLCAnLW1hJywgJzIwMCcsICctbWV0YWxfYmluZGluZycsICctaW1hZScsICc8aW5maWxlLm1hZT4nLCAnLW9tYWUnLCAnPG91dGZpbGUubWFlPic=

> <r_lp_tautomer_probability>
1

> <r_epik_Ionization_Penalty>
0.000992612

> <r_epik_Ionization_Penalty_Charging>
0

> <r_epik_Ionization_Penalty_Neutral>
0.000992612

> <r_epik_State_Penalty>
-0

> <r_epik_Charging_Adjusted_Penalty>
0

> <i_epik_Tot_Q>
0

> <i_epik_Tot_abs_Q>
0

> <r_epik_Metal_State_Penalty>
-0

> <b_epik_Metal_Only>
0

> <s_epik_Chemistry_Notes>
This compound contains an acetal/aminal-like group ( X-CH(R)-Y where X, Y are N, S, or O) that may be acid/base labile, releasing an aldehyde.

> <s_lp_Force_Field>
OPLS_2005

> <r_lp_Energy>
43.2107

> <b_lp_Chiralities_Consistent>
1

> <s_lp_Variant>
AV-unprocessed.smi:287-18

> <Gold.Version>
5.8.1

> <Gold.Id.Protein>
6NUR|6NUR_protein|mol2

> <Gold.PLP.Fitness>
49.6985

> <Gold.PLP.PLP>
-38.2712

> <Gold.PLP.part.hbond>
-6.0000

> <Gold.PLP.part.metal>
0.0000

> <Gold.PLP.part.buried>
-3.3942

> <Gold.PLP.part.nonpolar>
-31.2900

> <Gold.PLP.part.repulsive>
0.5252

> <Gold.PLP.ligand.clash>
0.0000

> <Gold.PLP.ligand.torsion>
1.7271

> <Gold.PLP.Chemscore.Hbond>
3.9585

> <Gold.PLP.Chemscore.CHOScore>
0.9716

> <Gold.PLP.Chemscore.Metal>
0.0000

> <Gold.Chemscore.Hbonds>
donor molecule, donor type, donor heavy atom, donor atom, acceptor molecule, acceptor atom, score
      L1  H     7    42       P1 10175  1.00
      L1  H    23    50       P1 10747  1.00
      L1  H    25    51       P1 10186  1.00
      L1  H    27    52       P1 10171  1.00
      L1  C    17    47       P1  7948  1.00

> <Gold.PLP.Chemscore.Internal.Correction>
0.0914

> <Gold.Rescore>
     Score         DG    S(hbond)    S(metal)    S(lipo)     H(rot)  DE(clash)    DE(int)     intcor
     10.79     -14.20       3.95        0.00      77.14       5.27       1.54       1.88       ----

> <Gold.Chemscore.Fitness>
10.7862

> <Gold.Chemscore.DG>
-14.2031

> <Gold.Chemscore.ZeroCoef>
-5.4800

> <Gold.Chemscore.Hbond>
3.9466

> <Gold.Chemscore.Metal>
0.0000

> <Gold.Chemscore.Lipo>
77.1406

> <Gold.Chemscore.Internal_Hbond>
0.0000

> <Gold.Chemscore.DEClash>
1.5369

> <Gold.Chemscore.DEInternal>
1.8799

> <Gold.Chemscore.Rot>
5.2672

> <Gold.Chemscore.Internal.Correction>
   9.000000E+99

> <Gold.Chemscore.Hbonds>
donor molecule, donor type, donor heavy atom, donor atom, acceptor molecule, acceptor atom, score
      L1  H     7    42       P1 10175  0.99
      L1  H    23    50       P1 10747  0.98
      L1  H    25    51       P1 10186  1.00
      L1  H    27    52       P1 10171  0.98

> <Gold.Chemscore.Hbond.Weighted>
-13.1815

> <Gold.Chemscore.Metal.Weighted>
-0.0000

> <Gold.Chemscore.Lipo.Weighted>
-9.0255

> <Gold.Chemscore.Internal_Hbond.Weighted>
0.0000

> <Gold.Chemscore.DEClash.Weighted>
1.5369

> <Gold.Chemscore.DEInternal.Weighted>
1.8799

> <Gold.Chemscore.Rot.Weighted>
13.4839

> <Gold.Chemscore.Internal.Correction.Weighted>
   9.000000E+99

> <Gold.Protein.RotatedTorsions>
[ 6907 6896 6895 6894 ] final   26.55 input  -60.11 | X-H torsion
[ 7974 7965 7964 7962 ] final  124.40 input  175.53 | X-H torsion
[ 8008 7997 7996 7995 ] final -127.25 input   59.86 | X-H torsion
[ 10167 10162 10161 10158 ] final   81.77 input  -65.29 | X-H torsion
[ 10718 10713 10712 10709 ] final   47.95 input   66.30 | X-H torsion
[ 10763 10752 10751 10750 ] final -108.41 input  -60.55 | X-H torsion
[ 11005 11000 10999 10996 ] final  -94.08 input  -57.11 | X-H torsion

> <Gold.Protein.ActiveResidues>
 VAL166  LYS551  ARG553  GLY616  TRP617  ASP618  TYR619  PRO620  LYS621  CYS622 
 ASP623  PHE694  ASN695  SER759  ASP760  ASP761  ALA762  ILE779  LEU786  VAL792 
 PHE793  MET794  SER795  GLU796  ALA797  LYS798  CYS799  TRP800  GLU811  SER814 

> <Gold.Protein.RotatedAtoms>
  151.9891  134.9989  160.0560 H   0  0  0  0  0  0  0  0  0  0  0  0  # atno 6907 bound_to 6896
  152.1625  133.4586  159.4876 H   0  0  0  0  0  0  0  0  0  0  0  0  # atno 6908 bound_to 6896
  150.6890  134.1971  159.4350 H   0  0  0  0  0  0  0  0  0  0  0  0  # atno 6909 bound_to 6896
  145.0848  139.3630  143.4891 H   0  0  0  0  0  0  0  0  0  0  0  0  # atno 7974 bound_to 7965
  155.2431  140.0429  157.2977 H   0  0  0  0  0  0  0  0  0  0  0  0  # atno 8008 bound_to 7997
  154.5816  140.2402  155.8016 H   0  0  0  0  0  0  0  0  0  0  0  0  # atno 8009 bound_to 7997
  156.2197  140.2974  155.9930 H   0  0  0  0  0  0  0  0  0  0  0  0  # atno 8010 bound_to 7997
  139.9358  144.6122  150.8300 H   0  0  0  0  0  0  0  0  0  0  0  0  # atno 10167 bound_to 10162
  157.4637  130.8212  149.7914 H   0  0  0  0  0  0  0  0  0  0  0  0  # atno 10718 bound_to 10713
  154.8134  135.4639  154.0576 H   0  0  0  0  0  0  0  0  0  0  0  0  # atno 10763 bound_to 10752
  153.1989  135.6866  153.8263 H   0  0  0  0  0  0  0  0  0  0  0  0  # atno 10764 bound_to 10752
  153.7754  135.3264  155.3335 H   0  0  0  0  0  0  0  0  0  0  0  0  # atno 10765 bound_to 10752
  141.1480  133.7931  157.0248 H   0  0  0  0  0  0  0  0  0  0  0  0  # atno 11005 bound_to 11000
  146.3531  140.0655  142.8626 LP  0  0  0  0  0  0  0  0  0  0  0  0  # atno 17320 bound_to 7965
  145.1135  140.9420  143.4642 LP  0  0  0  0  0  0  0  0  0  0  0  0  # atno 17321 bound_to 7965
  140.7625  143.3199  151.2645 LP  0  0  0  0  0  0  0  0  0  0  0  0  # atno 17342 bound_to 10162
  139.6745  143.9962  152.2773 LP  0  0  0  0  0  0  0  0  0  0  0  0  # atno 17343 bound_to 10162
  156.0040  130.3865  150.2497 LP  0  0  0  0  0  0  0  0  0  0  0  0  # atno 17370 bound_to 10713
  157.0676  131.0108  151.3201 LP  0  0  0  0  0  0  0  0  0  0  0  0  # atno 17371 bound_to 10713
  140.0792  134.9658  157.1596 LP  0  0  0  0  0  0  0  0  0  0  0  0  # atno 17394 bound_to 11000
  140.3601  134.2504  155.7188 LP  0  0  0  0  0  0  0  0  0  0  0  0  # atno 17395 bound_to 11000

$$$$
