AV-unprocessed.smi:2523|AV-procd|sdf|9921|dock4
  -GOLD-   2272013553D 1   1.00000     0.00000
 Structure written by MMmdl.
 34 36  0  0  0  0  0  0  0  0  1 V2000
  148.5516  136.1887  158.6527 C   0  0  0  0  0  0  0  0  0  0  0  0
  149.0494  136.9679  157.5214 N   0  0  0  0  0  0  0  0  0  0  0  0
  148.7053  136.4608  156.2630 N   0  0  0  0  0  0  0  0  0  0  0  0
  149.0768  137.0554  155.1724 C   0  0  0  0  0  0  0  0  0  0  0  0
  149.8704  138.2752  155.2866 C   0  0  0  0  0  0  0  0  0  0  0  0
  150.4490  139.1917  154.3661 C   0  0  0  0  0  0  0  0  0  0  0  0
  151.0973  140.1775  154.9836 N   0  0  0  0  0  0  0  0  0  0  0  0
  150.9625  139.9325  156.3125 N   0  0  0  0  0  0  0  0  0  0  0  0
  151.5659  140.8416  157.2748 C   0  0  0  0  0  0  0  0  0  0  0  0
  151.0462  142.2872  157.1394 C   0  0  1  0  0  0  0  0  0  0  0  0
  149.6651  142.2876  156.8319 O   0  0  0  0  0  0  0  0  0  0  0  0
  151.3506  143.0989  158.3885 C   0  0  0  0  0  0  0  0  0  0  0  0
  151.1214  144.4924  158.4101 C   0  0  0  0  0  0  0  0  0  0  0  0
  151.3942  145.2390  159.5727 C   0  0  0  0  0  0  0  0  0  0  0  0
  151.8973  144.5969  160.7204 C   0  0  0  0  0  0  0  0  0  0  0  0
  152.1267  143.2074  160.7051 C   0  0  0  0  0  0  0  0  0  0  0  0
  152.7415  142.4192  162.1113 Cl  0  0  0  0  0  0  0  0  0  0  0  0
  151.8531  142.4602  159.5424 C   0  0  0  0  0  0  0  0  0  0  0  0
  150.2189  138.7832  156.4945 C   0  0  0  0  0  0  0  0  0  0  0  0
  149.7864  138.0989  157.7371 C   0  0  0  0  0  0  0  0  0  0  0  0
  150.0759  138.5297  158.8535 O   0  0  0  0  0  0  0  0  0  0  0  0
  149.3774  135.8489  159.2793 H   0  0  0  0  0  0  0  0  0  0  0  0
  147.9983  135.3056  158.3292 H   0  0  0  0  0  0  0  0  0  0  0  0
  147.8813  136.7913  159.2674 H   0  0  0  0  0  0  0  0  0  0  0  0
  148.8067  136.6598  154.1935 H   0  0  0  0  0  0  0  0  0  0  0  0
  150.4206  139.1764  153.2865 H   0  0  0  0  0  0  0  0  0  0  0  0
  151.3955  140.4594  158.2807 H   0  0  0  0  0  0  0  0  0  0  0  0
  152.6470  140.8240  157.1279 H   0  0  0  0  0  0  0  0  0  0  0  0
  151.5503  142.7576  156.2939 H   0  0  0  0  0  0  0  0  0  0  0  0
  149.4537  143.1042  156.4061 H   0  0  0  0  0  0  0  0  0  0  0  0
  150.7315  144.9916  157.5350 H   0  0  0  0  0  0  0  0  0  0  0  0
  151.2164  146.3042  159.5840 H   0  0  0  0  0  0  0  0  0  0  0  0
  152.1053  145.1712  161.6112 H   0  0  0  0  0  0  0  0  0  0  0  0
  152.0279  141.3943  159.5399 H   0  0  0  0  0  0  0  0  0  0  0  0
  1  2  1  0  0  0  0
  1 22  1  0  0  0  0
  1 23  1  0  0  0  0
  1 24  1  0  0  0  0
  2 20  1  0  0  0  0
  2  3  1  0  0  0  0
  3  4  2  0  0  0  0
  4  5  1  0  0  0  0
  4 25  1  0  0  0  0
  5 19  2  0  0  0  0
  5  6  1  0  0  0  0
  6  7  2  0  0  0  0
  6 26  1  0  0  0  0
  7  8  1  0  0  0  0
  8  9  1  0  0  0  0
  8 19  1  0  0  0  0
  9 10  1  0  0  0  0
  9 27  1  0  0  0  0
  9 28  1  0  0  0  0
 10 11  1  0  0  0  0
 10 12  1  0  0  0  0
 10 29  1  0  0  0  0
 11 30  1  0  0  0  0
 12 18  1  0  0  0  0
 12 13  2  0  0  0  0
 13 14  1  0  0  0  0
 13 31  1  0  0  0  0
 14 15  2  0  0  0  0
 14 32  1  0  0  0  0
 15 16  1  0  0  0  0
 15 33  1  0  0  0  0
 16 17  1  0  0  0  0
 16 18  2  0  0  0  0
 18 34  1  0  0  0  0
 19 20  1  0  0  0  0
 20 21  2  0  0  0  0
M  END
> <s_m_source_file>
AV-unprocessed.smi

> <i_m_source_file_index>
2523

> <i_lp_mmshare_version>
43012

> <i_f3d_flags>
0

> <s_epik_input>
W2NIXTFubihbQ0gzXSljKD1PKWMoYzEyKW4obltjSF0yKVtDSDJdW0NASF0oW09IXSljM1tjSF1bY0hdW2NIXWMoQ2wpW2NIXTM=

> <s_epik_cmdline>
J2VwaWtfcHl0aG9uJywgJy1waCcsICc3LjAnLCAnLXRuJywgJzgnLCAnLW1hJywgJzIwMCcsICctbWV0YWxfYmluZGluZycsICctaW1hZScsICc8aW5maWxlLm1hZT4nLCAnLW9tYWUnLCAnPG91dGZpbGUubWFlPic=

> <r_lp_tautomer_probability>
1

> <r_epik_Ionization_Penalty>
8.52698e-06

> <r_epik_Ionization_Penalty_Charging>
1.65421e-10

> <r_epik_Ionization_Penalty_Neutral>
8.52681e-06

> <r_epik_State_Penalty>
-0

> <r_epik_Charging_Adjusted_Penalty>
1.65421e-10

> <i_epik_Tot_Q>
0

> <i_epik_Tot_abs_Q>
0

> <r_epik_Metal_State_Penalty>
-0

> <b_epik_Metal_Only>
0

> <s_lp_Force_Field>
OPLS_2005

> <r_lp_Energy>
26.9154

> <b_lp_Chiralities_Consistent>
1

> <s_lp_Variant>
AV-unprocessed.smi:2523-2

> <Gold.Version>
5.8.1

> <Gold.Id.Protein>
6NUR|6NUR_protein|mol2

> <Gold.PLP.Fitness>
53.8037

> <Gold.PLP.PLP>
-42.6517

> <Gold.PLP.part.hbond>
-2.5467

> <Gold.PLP.part.metal>
0.0000

> <Gold.PLP.part.buried>
-6.9423

> <Gold.PLP.part.nonpolar>
-33.2246

> <Gold.PLP.part.repulsive>
0.0736

> <Gold.PLP.ligand.clash>
0.0000

> <Gold.PLP.ligand.torsion>
0.2869

> <Gold.PLP.Chemscore.Hbond>
1.9000

> <Gold.PLP.Chemscore.CHOScore>
2.0000

> <Gold.PLP.Chemscore.Metal>
0.0000

> <Gold.Chemscore.Hbonds>
donor molecule, donor type, donor heavy atom, donor atom, acceptor molecule, acceptor atom, score
      L1  H    11    30       P1  8028  1.00
      P1  H  7989  7998       L1     7  0.65
      L1  C     4    25       P1  7948  1.00
      L1  C     6    26       P1  7957  1.00

> <Gold.PLP.Chemscore.Internal.Correction>
0.0258

> <Gold.Rescore>
     Score         DG    S(hbond)    S(metal)    S(lipo)     H(rot)  DE(clash)    DE(int)     intcor
     20.15     -20.66       1.98        0.00     115.45       1.93       0.12       0.39       ----

> <Gold.Chemscore.Fitness>
20.1458

> <Gold.Chemscore.DG>
-20.6551

> <Gold.Chemscore.ZeroCoef>
-5.4800

> <Gold.Chemscore.Hbond>
1.9758

> <Gold.Chemscore.Metal>
0.0000

> <Gold.Chemscore.Lipo>
115.4488

> <Gold.Chemscore.Internal_Hbond>
0.0000

> <Gold.Chemscore.DEClash>
0.1238

> <Gold.Chemscore.DEInternal>
0.3854

> <Gold.Chemscore.Rot>
1.9265

> <Gold.Chemscore.Internal.Correction>
   9.000000E+99

> <Gold.Chemscore.Hbonds>
donor molecule, donor type, donor heavy atom, donor atom, acceptor molecule, acceptor atom, score
      L1  H    11    30       P1  8028  1.00
      P1  H  7989  7998       L1     7  0.06

> <Gold.Chemscore.Hbond.Weighted>
-6.5993

> <Gold.Chemscore.Metal.Weighted>
-0.0000

> <Gold.Chemscore.Lipo.Weighted>
-13.5075

> <Gold.Chemscore.Internal_Hbond.Weighted>
0.0000

> <Gold.Chemscore.DEClash.Weighted>
0.1238

> <Gold.Chemscore.DEInternal.Weighted>
0.3854

> <Gold.Chemscore.Rot.Weighted>
4.9317

> <Gold.Chemscore.Internal.Correction.Weighted>
   9.000000E+99

> <Gold.Protein.RotatedTorsions>
[ 6907 6896 6895 6894 ] final -107.92 input  -60.11 | X-H torsion
[ 7974 7965 7964 7962 ] final -125.76 input  175.53 | X-H torsion
[ 8008 7997 7996 7995 ] final  139.77 input   59.86 | X-H torsion
[ 10167 10162 10161 10158 ] final  -41.80 input  -65.29 | X-H torsion
[ 10718 10713 10712 10709 ] final   -9.81 input   66.30 | X-H torsion
[ 10763 10752 10751 10750 ] final  140.21 input  -60.55 | X-H torsion
[ 11005 11000 10999 10996 ] final  178.85 input  -57.11 | X-H torsion

> <Gold.Protein.ActiveResidues>
 VAL166  LYS551  ARG553  GLY616  TRP617  ASP618  TYR619  PRO620  LYS621  CYS622 
 ASP623  PHE694  ASN695  SER759  ASP760  ASP761  ALA762  ILE779  LEU786  VAL792 
 PHE793  MET794  SER795  GLU796  ALA797  LYS798  CYS799  TRP800  GLU811  SER814 

> <Gold.Protein.RotatedAtoms>
  150.7471  133.9755  159.3559 H   0  0  0  0  0  0  0  0  0  0  0  0  # atno 6907 bound_to 6896
  151.7692  135.0788  160.0366 H   0  0  0  0  0  0  0  0  0  0  0  0  # atno 6908 bound_to 6896
  152.3350  133.5965  159.5872 H   0  0  0  0  0  0  0  0  0  0  0  0  # atno 6909 bound_to 6896
  144.9943  140.7761  143.4535 H   0  0  0  0  0  0  0  0  0  0  0  0  # atno 7974 bound_to 7965
  156.2986  140.2359  156.4292 H   0  0  0  0  0  0  0  0  0  0  0  0  # atno 8008 bound_to 7997
  154.8285  140.0434  157.1481 H   0  0  0  0  0  0  0  0  0  0  0  0  # atno 8009 bound_to 7997
  154.9234  140.3007  155.5208 H   0  0  0  0  0  0  0  0  0  0  0  0  # atno 8010 bound_to 7997
  140.6991  143.3074  151.3118 H   0  0  0  0  0  0  0  0  0  0  0  0  # atno 10167 bound_to 10162
  156.6826  130.5041  149.5967 H   0  0  0  0  0  0  0  0  0  0  0  0  # atno 10718 bound_to 10713
  153.9189  135.3003  155.3448 H   0  0  0  0  0  0  0  0  0  0  0  0  # atno 10763 bound_to 10752
  154.7585  135.4945  153.9423 H   0  0  0  0  0  0  0  0  0  0  0  0  # atno 10764 bound_to 10752
  153.1152  135.6769  153.9533 H   0  0  0  0  0  0  0  0  0  0  0  0  # atno 10765 bound_to 10752
  140.3997  134.6788  157.4555 H   0  0  0  0  0  0  0  0  0  0  0  0  # atno 11005 bound_to 11000
  145.2242  139.2145  143.5077 LP  0  0  0  0  0  0  0  0  0  0  0  0  # atno 17320 bound_to 7965
  146.3438  140.2106  142.8590 LP  0  0  0  0  0  0  0  0  0  0  0  0  # atno 17321 bound_to 7965
  139.6484  144.0407  152.2608 LP  0  0  0  0  0  0  0  0  0  0  0  0  # atno 17342 bound_to 10162
  139.9936  144.6344  150.7792 LP  0  0  0  0  0  0  0  0  0  0  0  0  # atno 17343 bound_to 10162
  156.1856  130.6527  151.1002 LP  0  0  0  0  0  0  0  0  0  0  0  0  # atno 17370 bound_to 10713
  157.7038  131.0765  150.6735 LP  0  0  0  0  0  0  0  0  0  0  0  0  # atno 17371 bound_to 10713
  140.0345  134.6357  155.9061 LP  0  0  0  0  0  0  0  0  0  0  0  0  # atno 17394 bound_to 11000
  141.1861  133.6556  156.5226 LP  0  0  0  0  0  0  0  0  0  0  0  0  # atno 17395 bound_to 11000

$$$$
