AV-unprocessed.smi:438|AV-procd|sdf|2572|dock8
  -GOLD-   2262022553D 1   1.00000     0.00000
 Structure written by MMmdl.
 47 48  0  0  0  0  0  0  0  0  2 V2000
  147.6763  133.3877  158.9203 C   0  0  0  0  0  0  0  0  0  0  0  0
  148.0320  134.7244  159.5453 C   0  0  0  0  0  0  0  0  0  0  0  0
  149.2059  135.3278  159.0638 N   0  0  0  0  0  0  0  0  0  0  0  0
  149.5672  136.4644  159.5244 C   0  0  0  0  0  0  0  0  0  0  0  0
  151.0785  137.2430  158.9202 S   0  0  0  0  0  0  0  0  0  0  0  0
  150.6184  138.9767  158.6131 C   0  0  0  0  0  0  0  0  0  0  0  0
  151.8348  139.8937  158.4881 C   0  0  0  0  0  0  0  0  0  0  0  0
  152.7229  139.6280  157.6780 O   0  0  0  0  0  0  0  0  0  0  0  0
  151.8585  140.9710  159.2888 N   0  0  0  0  0  0  0  0  0  0  0  0
  152.8698  142.0298  159.2787 C   0  0  1  0  0  0  0  0  0  0  0  0
  152.1944  143.3832  158.9781 C   0  0  0  0  0  0  0  0  0  0  0  0
  151.3441  143.8847  160.1581 C   0  0  0  0  0  0  0  0  0  0  0  0
  152.1687  143.9555  161.4505 C   0  0  0  0  0  0  0  0  0  0  0  0
  152.8121  142.5974  161.7711 C   0  0  0  0  0  0  0  0  0  0  0  0
  153.6805  142.0931  160.6008 C   0  0  1  0  0  0  0  0  0  0  0  0
  154.3886  140.7735  160.9512 C   0  0  0  0  0  0  0  0  0  0  0  0
  148.8630  137.1627  160.4774 N   0  5  0  0  0  0  0  0  0  0  0  0
  147.7262  136.6338  161.0127 C   0  0  0  0  0  0  0  0  0  0  0  0
  147.0776  137.2196  161.8790 O   0  0  0  0  0  0  0  0  0  0  0  0
  147.2808  135.3198  160.5156 C   0  0  0  0  0  0  0  0  0  0  0  0
  145.9965  134.7164  161.0863 C   0  0  0  0  0  0  0  0  0  0  0  0
  146.1189  134.3225  162.5683 C   0  0  0  0  0  0  0  0  0  0  0  0
  145.0822  133.4394  162.9422 O   0  0  0  0  0  0  0  0  0  0  0  0
  147.7069  132.5944  159.6671 H   0  0  0  0  0  0  0  0  0  0  0  0
  148.3739  133.1315  158.1237 H   0  0  0  0  0  0  0  0  0  0  0  0
  146.6793  133.4198  158.4813 H   0  0  0  0  0  0  0  0  0  0  0  0
  150.0227  139.3214  159.4583 H   0  0  0  0  0  0  0  0  0  0  0  0
  149.9751  139.0471  157.7349 H   0  0  0  0  0  0  0  0  0  0  0  0
  151.0791  141.1004  159.9176 H   0  0  0  0  0  0  0  0  0  0  0  0
  153.5685  141.8366  158.4628 H   0  0  0  0  0  0  0  0  0  0  0  0
  152.9630  144.1241  158.7549 H   0  0  0  0  0  0  0  0  0  0  0  0
  151.5786  143.3066  158.0805 H   0  0  0  0  0  0  0  0  0  0  0  0
  150.9276  144.8651  159.9254 H   0  0  0  0  0  0  0  0  0  0  0  0
  150.4955  143.2187  160.3114 H   0  0  0  0  0  0  0  0  0  0  0  0
  152.9448  144.7151  161.3490 H   0  0  0  0  0  0  0  0  0  0  0  0
  151.5338  144.2706  162.2789 H   0  0  0  0  0  0  0  0  0  0  0  0
  153.4192  142.6887  162.6725 H   0  0  0  0  0  0  0  0  0  0  0  0
  152.0336  141.8680  161.9985 H   0  0  0  0  0  0  0  0  0  0  0  0
  154.4689  142.8320  160.4488 H   0  0  0  0  0  0  0  0  0  0  0  0
  153.6767  139.9839  161.1929 H   0  0  0  0  0  0  0  0  0  0  0  0
  155.0431  140.8992  161.8139 H   0  0  0  0  0  0  0  0  0  0  0  0
  155.0039  140.4269  160.1203 H   0  0  0  0  0  0  0  0  0  0  0  0
  145.6806  133.8496  160.5074 H   0  0  0  0  0  0  0  0  0  0  0  0
  145.1895  135.4405  160.9692 H   0  0  0  0  0  0  0  0  0  0  0  0
  147.0817  133.8536  162.7723 H   0  0  0  0  0  0  0  0  0  0  0  0
  146.0582  135.2113  163.1967 H   0  0  0  0  0  0  0  0  0  0  0  0
  144.7975  132.9693  162.1736 H   0  0  0  0  0  0  0  0  0  0  0  0
  1 24  1  0  0  0  0
  1 25  1  0  0  0  0
  1 26  1  0  0  0  0
  1  2  1  0  0  0  0
  2 20  2  0  0  0  0
  2  3  1  0  0  0  0
  3  4  2  0  0  0  0
  4  5  1  0  0  0  0
  4 17  1  0  0  0  0
  5  6  1  0  0  0  0
  6  7  1  0  0  0  0
  6 27  1  0  0  0  0
  6 28  1  0  0  0  0
  7  8  2  0  0  0  0
  7  9  1  0  0  0  0
  9 10  1  0  0  0  0
  9 29  1  0  0  0  0
 10 15  1  0  0  0  0
 10 11  1  0  0  0  0
 10 30  1  0  0  0  0
 11 12  1  0  0  0  0
 11 31  1  0  0  0  0
 11 32  1  0  0  0  0
 12 13  1  0  0  0  0
 12 33  1  0  0  0  0
 12 34  1  0  0  0  0
 13 14  1  0  0  0  0
 13 35  1  0  0  0  0
 13 36  1  0  0  0  0
 14 15  1  0  0  0  0
 14 37  1  0  0  0  0
 14 38  1  0  0  0  0
 15 16  1  0  0  0  0
 15 39  1  0  0  0  0
 16 40  1  0  0  0  0
 16 41  1  0  0  0  0
 16 42  1  0  0  0  0
 17 18  1  0  0  0  0
 18 19  2  0  0  0  0
 18 20  1  0  0  0  0
 20 21  1  0  0  0  0
 21 22  1  0  0  0  0
 21 43  1  0  0  0  0
 21 44  1  0  0  0  0
 22 23  1  0  0  0  0
 22 45  1  0  0  0  0
 22 46  1  0  0  0  0
 23 47  1  0  0  0  0
M  CHG  1  17  -1
M  END
> <s_m_source_file>
AV-unprocessed.smi

> <i_m_source_file_index>
438

> <i_lp_mmshare_version>
43012

> <i_f3d_flags>
0

> <s_epik_input>
W09IXVtDSDJdW0NIMl1jMWMoW09IXSluYyhuYzFbQ0gzXSlTW0NIMl1DKD1PKVtOSF1bQ0BASF0yW0NIMl1bQ0gyXVtDSDJdW0NIMl1bQ0BIXTJbQ0gzXQ==

> <s_epik_cmdline>
J2VwaWtfcHl0aG9uJywgJy1waCcsICc3LjAnLCAnLXRuJywgJzgnLCAnLW1hJywgJzIwMCcsICctbWV0YWxfYmluZGluZycsICctaW1hZScsICc8aW5maWxlLm1hZT4nLCAnLW9tYWUnLCAnPG91dGZpbGUubWFlPic=

> <r_lp_tautomer_probability>
1

> <r_epik_Ionization_Penalty>
3.69231

> <r_epik_Ionization_Penalty_Charging>
0.00434774

> <r_epik_Ionization_Penalty_Neutral>
3.68796

> <r_epik_State_Penalty>
2.13826

> <r_epik_Charging_Adjusted_Penalty>
2.14261

> <i_epik_Tot_Q>
-1

> <i_epik_Tot_abs_Q>
1

> <r_epik_Metal_State_Penalty>
0.260979

> <b_epik_Metal_Only>
0

> <s_lp_Force_Field>
OPLS_2005

> <r_lp_Energy>
18.1923

> <b_lp_Chiralities_Consistent>
1

> <s_lp_Variant>
AV-unprocessed.smi:438-10

> <Gold.Version>
5.8.1

> <Gold.Id.Protein>
6NUR|6NUR_protein|mol2

> <Gold.PLP.Fitness>
55.1884

> <Gold.PLP.PLP>
-45.6688

> <Gold.PLP.part.hbond>
-5.7838

> <Gold.PLP.part.metal>
0.0000

> <Gold.PLP.part.buried>
-4.5254

> <Gold.PLP.part.nonpolar>
-37.0105

> <Gold.PLP.part.repulsive>
0.1600

> <Gold.PLP.ligand.clash>
0.0000

> <Gold.PLP.ligand.torsion>
0.4064

> <Gold.PLP.Chemscore.Hbond>
3.4352

> <Gold.PLP.Chemscore.CHOScore>
0.0000

> <Gold.PLP.Chemscore.Metal>
0.0000

> <Gold.Chemscore.Hbonds>
donor molecule, donor type, donor heavy atom, donor atom, acceptor molecule, acceptor atom, score
      P1  H  6896  6909       L1     3  0.98
      P1  H  6931  6943       L1    17  0.72
      P1  H  6934  6947       L1    19  0.64
      P1  H  7997  8009       L1     8  1.00

> <Gold.PLP.Chemscore.Internal.Correction>
0.0269

> <Gold.Rescore>
     Score         DG    S(hbond)    S(metal)    S(lipo)     H(rot)  DE(clash)    DE(int)     intcor
     17.95     -18.62       2.30        0.00     107.66       2.79       0.08       0.59       ----

> <Gold.Chemscore.Fitness>
17.9496

> <Gold.Chemscore.DG>
-18.6207

> <Gold.Chemscore.ZeroCoef>
-5.4800

> <Gold.Chemscore.Hbond>
2.3035

> <Gold.Chemscore.Metal>
0.0000

> <Gold.Chemscore.Lipo>
107.6603

> <Gold.Chemscore.Internal_Hbond>
0.0000

> <Gold.Chemscore.DEClash>
0.0772

> <Gold.Chemscore.DEInternal>
0.5938

> <Gold.Chemscore.Rot>
2.7927

> <Gold.Chemscore.Internal.Correction>
   9.000000E+99

> <Gold.Chemscore.Hbonds>
donor molecule, donor type, donor heavy atom, donor atom, acceptor molecule, acceptor atom, score
      P1  H  6896  6909       L1     3  0.28
      P1  H  6931  6943       L1    17  0.02
      P1  H  6934  6947       L1    19  0.07
      P1  H  7997  8009       L1     8  0.98

> <Gold.Chemscore.Hbond.Weighted>
-7.6936

> <Gold.Chemscore.Metal.Weighted>
-0.0000

> <Gold.Chemscore.Lipo.Weighted>
-12.5963

> <Gold.Chemscore.Internal_Hbond.Weighted>
0.0000

> <Gold.Chemscore.DEClash.Weighted>
0.0772

> <Gold.Chemscore.DEInternal.Weighted>
0.5938

> <Gold.Chemscore.Rot.Weighted>
7.1492

> <Gold.Chemscore.Internal.Correction.Weighted>
   9.000000E+99

> <Gold.Protein.RotatedTorsions>
[ 6907 6896 6895 6894 ] final   29.51 input  -60.11 | X-H torsion
[ 7974 7965 7964 7962 ] final   63.40 input  175.53 | X-H torsion
[ 8008 7997 7996 7995 ] final  163.29 input   59.86 | X-H torsion
[ 10167 10162 10161 10158 ] final  111.33 input  -65.29 | X-H torsion
[ 10718 10713 10712 10709 ] final  -32.68 input   66.30 | X-H torsion
[ 10763 10752 10751 10750 ] final -115.39 input  -60.55 | X-H torsion
[ 11005 11000 10999 10996 ] final -160.74 input  -57.11 | X-H torsion

> <Gold.Protein.ActiveResidues>
 VAL166  LYS551  ARG553  GLY616  TRP617  ASP618  TYR619  PRO620  LYS621  CYS622 
 ASP623  PHE694  ASN695  SER759  ASP760  ASP761  ALA762  ILE779  LEU786  VAL792 
 PHE793  MET794  SER795  GLU796  ALA797  LYS798  CYS799  TRP800  GLU811  SER814 

> <Gold.Protein.RotatedAtoms>
  152.0325  134.9759  160.0572 H   0  0  0  0  0  0  0  0  0  0  0  0  # atno 6907 bound_to 6896
  152.1230  133.4359  159.4693 H   0  0  0  0  0  0  0  0  0  0  0  0  # atno 6908 bound_to 6896
  150.6850  134.2431  159.4523 H   0  0  0  0  0  0  0  0  0  0  0  0  # atno 6909 bound_to 6896
  145.8623  139.3323  143.0812 H   0  0  0  0  0  0  0  0  0  0  0  0  # atno 7974 bound_to 7965
  156.1968  140.1727  156.7981 H   0  0  0  0  0  0  0  0  0  0  0  0  # atno 8008 bound_to 7997
  154.5540  140.0712  156.8745 H   0  0  0  0  0  0  0  0  0  0  0  0  # atno 8009 bound_to 7997
  155.2974  140.3359  155.4251 H   0  0  0  0  0  0  0  0  0  0  0  0  # atno 8010 bound_to 7997
  139.6620  144.7128  151.1848 H   0  0  0  0  0  0  0  0  0  0  0  0  # atno 10167 bound_to 10162
  156.3719  130.4341  149.7538 H   0  0  0  0  0  0  0  0  0  0  0  0  # atno 10718 bound_to 10713
  154.8479  135.4383  154.1656 H   0  0  0  0  0  0  0  0  0  0  0  0  # atno 10763 bound_to 10752
  153.2782  135.6951  153.7418 H   0  0  0  0  0  0  0  0  0  0  0  0  # atno 10764 bound_to 10752
  153.6632  135.3431  155.3108 H   0  0  0  0  0  0  0  0  0  0  0  0  # atno 10765 bound_to 10752
  140.6282  134.4679  157.5228 H   0  0  0  0  0  0  0  0  0  0  0  0  # atno 11005 bound_to 11000
  145.9234  140.9099  143.0393 LP  0  0  0  0  0  0  0  0  0  0  0  0  # atno 17320 bound_to 7965
  144.6726  140.1320  143.7443 LP  0  0  0  0  0  0  0  0  0  0  0  0  # atno 17321 bound_to 7965
  140.7584  143.5980  150.8729 LP  0  0  0  0  0  0  0  0  0  0  0  0  # atno 17342 bound_to 10162
  139.9638  143.6134  152.2994 LP  0  0  0  0  0  0  0  0  0  0  0  0  # atno 17343 bound_to 10162
  156.4662  130.7975  151.2994 LP  0  0  0  0  0  0  0  0  0  0  0  0  # atno 17370 bound_to 10713
  157.7484  131.0050  150.3098 LP  0  0  0  0  0  0  0  0  0  0  0  0  # atno 17371 bound_to 10713
  139.9126  134.8312  156.1474 LP  0  0  0  0  0  0  0  0  0  0  0  0  # atno 17394 bound_to 11000
  141.0694  133.6804  156.2110 LP  0  0  0  0  0  0  0  0  0  0  0  0  # atno 17395 bound_to 11000

$$$$
