AV-unprocessed.smi:1562|AV-procd|sdf|6288|dock4
  -GOLD-   22720 6483D 1   1.00000     0.00000
 Structure written by MMmdl.
 41 42  0  0  0  0  0  0  0  0  2 V2000
  142.6294  132.4822  150.1393 N   0  0  0  0  0  0  0  0  0  0  0  0
  143.8626  132.8050  150.5368 C   0  0  0  0  0  0  0  0  0  0  0  0
  144.7264  131.9539  150.7407 O   0  0  0  0  0  0  0  0  0  0  0  0
  144.1676  134.2961  150.7318 C   0  0  0  0  0  0  0  0  0  0  0  0
  145.6686  134.5224  151.0335 C   0  0  0  0  0  0  0  0  0  0  0  0
  145.9511  135.9969  151.3742 C   0  0  0  0  0  0  0  0  0  0  0  0
  145.1049  136.3866  152.5145 N   0  0  0  0  0  0  0  0  0  0  0  0
  145.5106  136.5199  153.8028 C   0  0  0  0  0  0  0  0  0  0  0  0
  144.7451  136.7948  154.7281 O   0  0  0  0  0  0  0  0  0  0  0  0
  146.8308  136.3675  153.9951 N   0  0  0  0  0  0  0  0  0  0  0  0
  147.4946  136.4657  155.2875 C   0  0  0  0  0  0  0  0  0  0  0  0
  148.9343  135.9412  155.1995 C   0  0  0  0  0  0  0  0  0  0  0  0
  148.9847  134.4435  154.9668 C   0  0  0  0  0  0  0  0  0  0  0  0
  149.3620  133.5375  155.9817 C   0  0  0  0  0  0  0  0  0  0  0  0
  149.3925  132.1564  155.6961 C   0  0  0  0  0  0  0  0  0  0  0  0
  149.0478  131.7113  154.4030 C   0  0  0  0  0  0  0  0  0  0  0  0
  148.6799  132.6597  153.4270 C   0  0  0  0  0  0  0  0  0  0  0  0
  148.6613  133.9742  153.7398 N   0  3  0  0  0  0  0  0  0  0  0  0
  143.6835  136.3547  152.1506 C   0  0  0  0  0  0  0  0  0  0  0  0
  143.2821  134.8994  151.8479 C   0  0  0  0  0  0  0  0  0  0  0  0
  142.3871  131.5117  150.0012 H   0  0  0  0  0  0  0  0  0  0  0  0
  141.9441  133.2062  149.9802 H   0  0  0  0  0  0  0  0  0  0  0  0
  143.9345  134.8212  149.8035 H   0  0  0  0  0  0  0  0  0  0  0  0
  145.9882  133.8971  151.8691 H   0  0  0  0  0  0  0  0  0  0  0  0
  146.2712  134.2224  150.1755 H   0  0  0  0  0  0  0  0  0  0  0  0
  147.0180  136.1387  151.5456 H   0  0  0  0  0  0  0  0  0  0  0  0
  145.7117  136.6281  150.5173 H   0  0  0  0  0  0  0  0  0  0  0  0
  147.4065  136.1568  153.1928 H   0  0  0  0  0  0  0  0  0  0  0  0
  147.4961  137.5044  155.6226 H   0  0  0  0  0  0  0  0  0  0  0  0
  146.9282  135.8901  156.0211 H   0  0  0  0  0  0  0  0  0  0  0  0
  149.4669  136.4461  154.3922 H   0  0  0  0  0  0  0  0  0  0  0  0
  149.4757  136.1735  156.1178 H   0  0  0  0  0  0  0  0  0  0  0  0
  149.6263  133.8941  156.9668 H   0  0  0  0  0  0  0  0  0  0  0  0
  149.6783  131.4474  156.4594 H   0  0  0  0  0  0  0  0  0  0  0  0
  149.0657  130.6580  154.1637 H   0  0  0  0  0  0  0  0  0  0  0  0
  148.4030  132.4094  152.4131 H   0  0  0  0  0  0  0  0  0  0  0  0
  143.0412  136.7669  152.9300 H   0  0  0  0  0  0  0  0  0  0  0  0
  143.5190  136.9807  151.2726 H   0  0  0  0  0  0  0  0  0  0  0  0
  142.2325  134.8628  151.5534 H   0  0  0  0  0  0  0  0  0  0  0  0
  143.3662  134.3087  152.7619 H   0  0  0  0  0  0  0  0  0  0  0  0
  148.3939  134.6430  153.0169 H   0  0  0  0  0  0  0  0  0  0  0  0
  1  2  1  0  0  0  0
  1 21  1  0  0  0  0
  1 22  1  0  0  0  0
  2  3  2  0  0  0  0
  2  4  1  0  0  0  0
  4 20  1  0  0  0  0
  4  5  1  0  0  0  0
  4 23  1  0  0  0  0
  5  6  1  0  0  0  0
  5 24  1  0  0  0  0
  5 25  1  0  0  0  0
  6  7  1  0  0  0  0
  6 26  1  0  0  0  0
  6 27  1  0  0  0  0
  7  8  1  0  0  0  0
  7 19  1  0  0  0  0
  8  9  2  0  0  0  0
  8 10  1  0  0  0  0
 10 11  1  0  0  0  0
 10 28  1  0  0  0  0
 11 12  1  0  0  0  0
 11 29  1  0  0  0  0
 11 30  1  0  0  0  0
 12 13  1  0  0  0  0
 12 31  1  0  0  0  0
 12 32  1  0  0  0  0
 13 18  1  0  0  0  0
 13 14  2  0  0  0  0
 14 15  1  0  0  0  0
 14 33  1  0  0  0  0
 15 16  2  0  0  0  0
 15 34  1  0  0  0  0
 16 17  1  0  0  0  0
 16 35  1  0  0  0  0
 17 18  2  0  0  0  0
 17 36  1  0  0  0  0
 18 41  1  0  0  0  0
 19 20  1  0  0  0  0
 19 37  1  0  0  0  0
 19 38  1  0  0  0  0
 20 39  1  0  0  0  0
 20 40  1  0  0  0  0
M  CHG  1  18   1
M  END
> <s_m_source_file>
AV-unprocessed.smi

> <i_m_source_file_index>
1562

> <i_lp_mmshare_version>
43012

> <i_f3d_flags>
0

> <s_epik_input>
W05IMl1DKD1PKVtDSF0xW0NIMl1bQ0gyXU4oW0NIMl1bQ0gyXTEpQyg9TylbTkhdW0NIMl1bQ0gyXWMyW2NIXVtjSF1bY0hdW2NIXW4y

> <s_epik_cmdline>
J2VwaWtfcHl0aG9uJywgJy1waCcsICc3LjAnLCAnLXRuJywgJzgnLCAnLW1hJywgJzIwMCcsICctbWV0YWxfYmluZGluZycsICctaW1hZScsICc8aW5maWxlLm1hZT4nLCAnLW9tYWUnLCAnPG91dGZpbGUubWFlPic=

> <r_epik_Ionization_Penalty>
1.55599

> <r_epik_Ionization_Penalty_Charging>
1.55593

> <r_epik_Ionization_Penalty_Neutral>
5.20779e-05

> <r_epik_State_Penalty>
1.65054

> <r_epik_Charging_Adjusted_Penalty>
3.20648

> <i_epik_Tot_Q>
1

> <i_epik_Tot_abs_Q>
1

> <r_epik_Metal_State_Penalty>
1.69236

> <b_epik_Metal_Only>
0

> <s_lp_Force_Field>
OPLS_2005

> <r_lp_Energy>
33.1399

> <b_lp_Chiralities_Consistent>
1

> <s_lp_Variant>
AV-unprocessed.smi:1562-2

> <Gold.Version>
5.8.1

> <Gold.Id.Protein>
6NUR|6NUR_protein|mol2

> <Gold.PLP.Fitness>
45.0020

> <Gold.PLP.PLP>
-31.5216

> <Gold.PLP.part.hbond>
-4.0000

> <Gold.PLP.part.metal>
0.0000

> <Gold.PLP.part.buried>
-3.2339

> <Gold.PLP.part.nonpolar>
-24.8513

> <Gold.PLP.part.repulsive>
0.2458

> <Gold.PLP.ligand.clash>
0.0000

> <Gold.PLP.ligand.torsion>
0.3093

> <Gold.PLP.Chemscore.Hbond>
4.6560

> <Gold.PLP.Chemscore.CHOScore>
0.0000

> <Gold.PLP.Chemscore.Metal>
0.0000

> <Gold.Chemscore.Hbonds>
donor molecule, donor type, donor heavy atom, donor atom, acceptor molecule, acceptor atom, score
      L1  H     1    21       P1 10952  0.82
      L1  H     1    22       P1 10186  1.00
      L1  H    10    28       P1  7948  0.98
      L1  H    18    41       P1  7948  1.86

> <Gold.PLP.Chemscore.Internal.Correction>
0.1311

> <Gold.Rescore>
     Score         DG    S(hbond)    S(metal)    S(lipo)     H(rot)  DE(clash)    DE(int)     intcor
     15.79     -17.30       3.04        0.00      58.80       2.03       0.10       1.41       ----

> <Gold.Chemscore.Fitness>
15.7943

> <Gold.Chemscore.DG>
-17.3046

> <Gold.Chemscore.ZeroCoef>
-5.4800

> <Gold.Chemscore.Hbond>
3.0394

> <Gold.Chemscore.Metal>
0.0000

> <Gold.Chemscore.Lipo>
58.8015

> <Gold.Chemscore.Internal_Hbond>
0.0000

> <Gold.Chemscore.DEClash>
0.1017

> <Gold.Chemscore.DEInternal>
1.4086

> <Gold.Chemscore.Rot>
2.0339

> <Gold.Chemscore.Internal.Correction>
   9.000000E+99

> <Gold.Chemscore.Hbonds>
donor molecule, donor type, donor heavy atom, donor atom, acceptor molecule, acceptor atom, score
      L1  H     1    21       P1 10952  0.71
      L1  H     1    22       P1 10186  0.98
      L1  H    10    28       P1  7948  0.92
      L1  H    18    41       P1  7948  0.44

> <Gold.Chemscore.Hbond.Weighted>
-10.1517

> <Gold.Chemscore.Metal.Weighted>
-0.0000

> <Gold.Chemscore.Lipo.Weighted>
-6.8798

> <Gold.Chemscore.Internal_Hbond.Weighted>
0.0000

> <Gold.Chemscore.DEClash.Weighted>
0.1017

> <Gold.Chemscore.DEInternal.Weighted>
1.4086

> <Gold.Chemscore.Rot.Weighted>
5.2069

> <Gold.Chemscore.Internal.Correction.Weighted>
   9.000000E+99

> <Gold.Protein.RotatedTorsions>
[ 6907 6896 6895 6894 ] final -122.30 input  -60.11 | X-H torsion
[ 7974 7965 7964 7962 ] final  146.24 input  175.53 | X-H torsion
[ 8008 7997 7996 7995 ] final -126.57 input   59.86 | X-H torsion
[ 10167 10162 10161 10158 ] final   -1.91 input  -65.29 | X-H torsion
[ 10718 10713 10712 10709 ] final  -69.88 input   66.30 | X-H torsion
[ 10763 10752 10751 10750 ] final  122.22 input  -60.55 | X-H torsion
[ 11005 11000 10999 10996 ] final -110.11 input  -57.11 | X-H torsion

> <Gold.Protein.ActiveResidues>
 VAL166  LYS551  ARG553  GLY616  TRP617  ASP618  TYR619  PRO620  LYS621  CYS622 
 ASP623  PHE694  ASN695  SER759  ASP760  ASP761  ALA762  ILE779  LEU786  VAL792 
 PHE793  MET794  SER795  GLU796  ALA797  LYS798  CYS799  TRP800  GLU811  SER814 

> <Gold.Protein.RotatedAtoms>
  150.8564  133.7710  159.3007 H   0  0  0  0  0  0  0  0  0  0  0  0  # atno 6907 bound_to 6896
  151.5366  135.1067  159.9925 H   0  0  0  0  0  0  0  0  0  0  0  0  # atno 6908 bound_to 6896
  152.4592  133.7744  159.6872 H   0  0  0  0  0  0  0  0  0  0  0  0  # atno 6909 bound_to 6896
  144.8687  139.5881  143.5897 H   0  0  0  0  0  0  0  0  0  0  0  0  # atno 7974 bound_to 7965
  155.2319  140.0425  157.2963 H   0  0  0  0  0  0  0  0  0  0  0  0  # atno 8008 bound_to 7997
  154.5883  140.2420  155.7926 H   0  0  0  0  0  0  0  0  0  0  0  0  # atno 8009 bound_to 7997
  156.2241  140.2960  156.0033 H   0  0  0  0  0  0  0  0  0  0  0  0  # atno 8010 bound_to 7997
  140.6830  143.6719  150.8178 H   0  0  0  0  0  0  0  0  0  0  0  0  # atno 10167 bound_to 10162
  156.0434  130.4321  150.2213 H   0  0  0  0  0  0  0  0  0  0  0  0  # atno 10718 bound_to 10713
  153.6264  135.3404  155.3027 H   0  0  0  0  0  0  0  0  0  0  0  0  # atno 10763 bound_to 10752
  154.8589  135.4285  154.2153 H   0  0  0  0  0  0  0  0  0  0  0  0  # atno 10764 bound_to 10752
  153.3038  135.7026  153.7252 H   0  0  0  0  0  0  0  0  0  0  0  0  # atno 10765 bound_to 10752
  141.0810  133.9220  157.2289 H   0  0  0  0  0  0  0  0  0  0  0  0  # atno 11005 bound_to 11000
  146.2914  139.7151  142.9158 LP  0  0  0  0  0  0  0  0  0  0  0  0  # atno 17320 bound_to 7965
  145.4172  141.0403  143.2984 LP  0  0  0  0  0  0  0  0  0  0  0  0  # atno 17321 bound_to 7965
  140.0422  143.5334  152.2712 LP  0  0  0  0  0  0  0  0  0  0  0  0  # atno 17342 bound_to 10162
  139.6166  144.7620  151.2833 LP  0  0  0  0  0  0  0  0  0  0  0  0  # atno 17343 bound_to 10162
  157.0306  131.0006  151.3313 LP  0  0  0  0  0  0  0  0  0  0  0  0  # atno 17370 bound_to 10713
  157.5280  130.8040  149.7884 LP  0  0  0  0  0  0  0  0  0  0  0  0  # atno 17371 bound_to 10713
  139.9624  135.0151  156.9296 LP  0  0  0  0  0  0  0  0  0  0  0  0  # atno 17394 bound_to 11000
  140.5468  134.0666  155.7357 LP  0  0  0  0  0  0  0  0  0  0  0  0  # atno 17395 bound_to 11000

$$$$
