AV-unprocessed.smi:1621|AV-procd|sdf|6496|dock4
  -GOLD-   22720 7153D 1   1.00000     0.00000
 Structure written by MMmdl.
 40 41  0  0  0  0  0  0  0  0  3 V2000
  144.6950  138.5815  155.2552 C   0  0  0  0  0  0  0  0  0  0  0  0
  145.4175  139.5822  154.4408 N   0  3  2  0  0  0  0  0  0  0  0  0
  146.4632  138.9668  153.5864 C   0  0  0  0  0  0  0  0  0  0  0  0
  147.1242  140.0158  152.6724 C   0  0  0  0  0  0  0  0  0  0  0  0
  147.7012  141.2035  153.4673 C   0  0  2  0  0  0  0  0  0  0  0  0
  149.0004  140.8238  154.2166 C   0  0  0  0  0  0  0  0  0  0  0  0
  149.4192  141.8546  155.1629 N   0  0  0  0  0  0  0  0  0  0  0  0
  150.3420  141.7020  156.1240 C   0  0  0  0  0  0  0  0  0  0  0  0
  150.9470  140.6484  156.3199 O   0  0  0  0  0  0  0  0  0  0  0  0
  150.5087  142.8398  156.8211 N   0  0  0  0  0  0  0  0  0  0  0  0
  151.3671  143.1029  157.9251 C   0  0  0  0  0  0  0  0  0  0  0  0
  151.9820  141.9910  158.5433 C   0  0  0  0  0  0  0  0  0  0  0  0
  152.8535  142.1917  159.6330 C   0  0  0  0  0  0  0  0  0  0  0  0
  153.0996  143.4433  160.0747 N   0  3  0  0  0  0  0  0  0  0  0  0
  152.5439  144.5376  159.5125 C   0  0  0  0  0  0  0  0  0  0  0  0
  151.6650  144.3996  158.4187 C   0  0  0  0  0  0  0  0  0  0  0  0
  146.5883  141.7795  154.3690 C   0  0  0  0  0  0  0  0  0  0  0  0
  145.9492  140.6995  155.2596 C   0  0  0  0  0  0  0  0  0  0  0  0
  145.3674  138.0927  155.9615 H   0  0  0  0  0  0  0  0  0  0  0  0
  144.2504  137.8156  154.6189 H   0  0  0  0  0  0  0  0  0  0  0  0
  143.8892  139.0524  155.8192 H   0  0  0  0  0  0  0  0  0  0  0  0
  147.2105  138.4790  154.2138 H   0  0  0  0  0  0  0  0  0  0  0  0
  146.0141  138.1856  152.9719 H   0  0  0  0  0  0  0  0  0  0  0  0
  147.9034  139.5484  152.0695 H   0  0  0  0  0  0  0  0  0  0  0  0
  146.3803  140.3867  151.9658 H   0  0  0  0  0  0  0  0  0  0  0  0
  147.9712  141.9761  152.7457 H   0  0  0  0  0  0  0  0  0  0  0  0
  148.9029  139.8578  154.7130 H   0  0  0  0  0  0  0  0  0  0  0  0
  149.8104  140.7044  153.4964 H   0  0  0  0  0  0  0  0  0  0  0  0
  148.9745  142.7568  155.0714 H   0  0  0  0  0  0  0  0  0  0  0  0
  149.9735  143.6324  156.4975 H   0  0  0  0  0  0  0  0  0  0  0  0
  151.7874  140.9886  158.1897 H   0  0  0  0  0  0  0  0  0  0  0  0
  153.3585  141.3945  160.1588 H   0  0  0  0  0  0  0  0  0  0  0  0
  152.8209  145.4866  159.9479 H   0  0  0  0  0  0  0  0  0  0  0  0
  151.2502  145.2937  157.9809 H   0  0  0  0  0  0  0  0  0  0  0  0
  146.9620  142.6000  154.9808 H   0  0  0  0  0  0  0  0  0  0  0  0
  145.8128  142.2164  153.7381 H   0  0  0  0  0  0  0  0  0  0  0  0
  145.1380  141.1429  155.8384 H   0  0  0  0  0  0  0  0  0  0  0  0
  146.6740  140.3163  155.9788 H   0  0  0  0  0  0  0  0  0  0  0  0
  144.7360  139.9862  153.8140 H   0  0  0  0  0  0  0  0  0  0  0  0
  153.7350  143.5678  160.8636 H   0  0  0  0  0  0  0  0  0  0  0  0
  1  2  1  0  0  0  0
  1 19  1  0  0  0  0
  1 20  1  0  0  0  0
  1 21  1  0  0  0  0
  2 18  1  0  0  0  0
  2  3  1  0  0  0  0
  2 39  1  0  0  0  0
  3  4  1  0  0  0  0
  3 22  1  0  0  0  0
  3 23  1  0  0  0  0
  4  5  1  0  0  0  0
  4 24  1  0  0  0  0
  4 25  1  0  0  0  0
  5  6  1  0  0  0  0
  5 17  1  0  0  0  0
  5 26  1  0  0  0  0
  6  7  1  0  0  0  0
  6 27  1  0  0  0  0
  6 28  1  0  0  0  0
  7  8  1  0  0  0  0
  7 29  1  0  0  0  0
  8  9  2  0  0  0  0
  8 10  1  0  0  0  0
 10 11  1  0  0  0  0
 10 30  1  0  0  0  0
 11 16  1  0  0  0  0
 11 12  2  0  0  0  0
 12 13  1  0  0  0  0
 12 31  1  0  0  0  0
 13 14  2  0  0  0  0
 13 32  1  0  0  0  0
 14 15  1  0  0  0  0
 14 40  1  0  0  0  0
 15 16  2  0  0  0  0
 15 33  1  0  0  0  0
 16 34  1  0  0  0  0
 17 18  1  0  0  0  0
 17 35  1  0  0  0  0
 17 36  1  0  0  0  0
 18 37  1  0  0  0  0
 18 38  1  0  0  0  0
M  CHG  1   2   1
M  CHG  1  14   1
M  END
> <s_m_source_file>
AV-unprocessed.smi

> <i_m_source_file_index>
1621

> <i_lp_mmshare_version>
43012

> <i_f3d_flags>
0

> <s_epik_input>
W0NIM11OMVtDSDJdW0NIMl1bQ0hdKFtDSDJdW0NIMl0xKVtDSDJdW05IXUMoPU8pW05IXWMyW2NIXVtjSF1uW2NIXVtjSF0y

> <s_epik_cmdline>
J2VwaWtfcHl0aG9uJywgJy1waCcsICc3LjAnLCAnLXRuJywgJzgnLCAnLW1hJywgJzIwMCcsICctbWV0YWxfYmluZGluZycsICctaW1hZScsICc8aW5maWxlLm1hZT4nLCAnLW9tYWUnLCAnPG91dGZpbGUubWFlPic=

> <r_epik_Ionization_Penalty>
1.07214

> <r_epik_Ionization_Penalty_Charging>
1.07212

> <r_epik_Ionization_Penalty_Neutral>
1.90829e-05

> <r_epik_State_Penalty>
1.12559

> <r_epik_Charging_Adjusted_Penalty>
2.1977

> <i_epik_Tot_Q>
2

> <i_epik_Tot_abs_Q>
2

> <r_epik_Metal_State_Penalty>
1.21693

> <b_epik_Metal_Only>
0

> <s_lp_Force_Field>
OPLS_2005

> <r_lp_Energy>
29.8708

> <b_lp_Chiralities_Consistent>
1

> <s_lp_Variant>
AV-unprocessed.smi:1621-4

> <Gold.Version>
5.8.1

> <Gold.Id.Protein>
6NUR|6NUR_protein|mol2

> <Gold.PLP.Fitness>
47.5797

> <Gold.PLP.PLP>
-36.0432

> <Gold.PLP.part.hbond>
-3.0000

> <Gold.PLP.part.metal>
0.0000

> <Gold.PLP.part.buried>
-3.7382

> <Gold.PLP.part.nonpolar>
-29.8358

> <Gold.PLP.part.repulsive>
0.2608

> <Gold.PLP.ligand.clash>
0.0000

> <Gold.PLP.ligand.torsion>
0.1983

> <Gold.PLP.Chemscore.Hbond>
3.9760

> <Gold.PLP.Chemscore.CHOScore>
0.0000

> <Gold.PLP.Chemscore.Metal>
0.0000

> <Gold.Chemscore.Hbonds>
donor molecule, donor type, donor heavy atom, donor atom, acceptor molecule, acceptor atom, score
      L1  H     2    39       P1 10175  2.00
      L1  H     7    29       P1  8028  0.95
      L1  H    10    30       P1  8028  1.00

> <Gold.PLP.Chemscore.Internal.Correction>
0.0051

> <Gold.Rescore>
     Score         DG    S(hbond)    S(metal)    S(lipo)     H(rot)  DE(clash)    DE(int)     intcor
     21.28     -23.04       2.92        0.00      94.37       1.26       0.22       1.55       ----

> <Gold.Chemscore.Fitness>
21.2755

> <Gold.Chemscore.DG>
-23.0405

> <Gold.Chemscore.ZeroCoef>
-5.4800

> <Gold.Chemscore.Hbond>
2.9208

> <Gold.Chemscore.Metal>
0.0000

> <Gold.Chemscore.Lipo>
94.3742

> <Gold.Chemscore.Internal_Hbond>
0.0000

> <Gold.Chemscore.DEClash>
0.2156

> <Gold.Chemscore.DEInternal>
1.5494

> <Gold.Chemscore.Rot>
1.2644

> <Gold.Chemscore.Internal.Correction>
   9.000000E+99

> <Gold.Chemscore.Hbonds>
donor molecule, donor type, donor heavy atom, donor atom, acceptor molecule, acceptor atom, score
      L1  H     2    39       P1 10175  1.00
      L1  H     7    29       P1  8028  0.86
      L1  H    10    30       P1  8028  1.00

> <Gold.Chemscore.Hbond.Weighted>
-9.7556

> <Gold.Chemscore.Metal.Weighted>
-0.0000

> <Gold.Chemscore.Lipo.Weighted>
-11.0418

> <Gold.Chemscore.Internal_Hbond.Weighted>
0.0000

> <Gold.Chemscore.DEClash.Weighted>
0.2156

> <Gold.Chemscore.DEInternal.Weighted>
1.5494

> <Gold.Chemscore.Rot.Weighted>
3.2368

> <Gold.Chemscore.Internal.Correction.Weighted>
   9.000000E+99

> <Gold.Protein.RotatedTorsions>
[ 6907 6896 6895 6894 ] final   31.21 input  -60.11 | X-H torsion
[ 7974 7965 7964 7962 ] final -110.63 input  175.53 | X-H torsion
[ 8008 7997 7996 7995 ] final  -40.75 input   59.86 | X-H torsion
[ 10167 10162 10161 10158 ] final   -0.18 input  -65.29 | X-H torsion
[ 10718 10713 10712 10709 ] final  158.44 input   66.30 | X-H torsion
[ 10763 10752 10751 10750 ] final  110.17 input  -60.55 | X-H torsion
[ 11005 11000 10999 10996 ] final  -21.38 input  -57.11 | X-H torsion

> <Gold.Protein.ActiveResidues>
 VAL166  LYS551  ARG553  GLY616  TRP617  ASP618  TYR619  PRO620  LYS621  CYS622 
 ASP623  PHE694  ASN695  SER759  ASP760  ASP761  ALA762  ILE779  LEU786  VAL792 
 PHE793  MET794  SER795  GLU796  ALA797  LYS798  CYS799  TRP800  GLU811  SER814 

> <Gold.Protein.RotatedAtoms>
  152.0571  134.9617  160.0574 H   0  0  0  0  0  0  0  0  0  0  0  0  # atno 6907 bound_to 6896
  152.0996  133.4238  159.4589 H   0  0  0  0  0  0  0  0  0  0  0  0  # atno 6908 bound_to 6896
  150.6839  134.2696  159.4626 H   0  0  0  0  0  0  0  0  0  0  0  0  # atno 6909 bound_to 6896
  145.1659  140.8902  143.3563 H   0  0  0  0  0  0  0  0  0  0  0  0  # atno 7974 bound_to 7965
  154.4009  140.1517  156.3077 H   0  0  0  0  0  0  0  0  0  0  0  0  # atno 8008 bound_to 7997
  155.8643  140.3452  155.5756 H   0  0  0  0  0  0  0  0  0  0  0  0  # atno 8009 bound_to 7997
  155.7845  140.0848  157.2032 H   0  0  0  0  0  0  0  0  0  0  0  0  # atno 8010 bound_to 7997
  140.6756  143.6925  150.8016 H   0  0  0  0  0  0  0  0  0  0  0  0  # atno 10167 bound_to 10162
  157.1779  131.0625  151.2148 H   0  0  0  0  0  0  0  0  0  0  0  0  # atno 10718 bound_to 10713
  153.4451  135.3757  155.2251 H   0  0  0  0  0  0  0  0  0  0  0  0  # atno 10763 bound_to 10752
  154.8755  135.3872  154.4106 H   0  0  0  0  0  0  0  0  0  0  0  0  # atno 10764 bound_to 10752
  153.4657  135.7087  153.6087 H   0  0  0  0  0  0  0  0  0  0  0  0  # atno 10765 bound_to 10752
  140.8555  133.7825  156.0015 H   0  0  0  0  0  0  0  0  0  0  0  0  # atno 11005 bound_to 11000
  145.0283  139.3363  143.6038 LP  0  0  0  0  0  0  0  0  0  0  0  0  # atno 17320 bound_to 7965
  146.3476  139.9610  142.8717 LP  0  0  0  0  0  0  0  0  0  0  0  0  # atno 17321 bound_to 7965
  140.0618  143.5147  152.2624 LP  0  0  0  0  0  0  0  0  0  0  0  0  # atno 17342 bound_to 10162
  139.6046  144.7592  151.3091 LP  0  0  0  0  0  0  0  0  0  0  0  0  # atno 17343 bound_to 10162
  157.3981  130.7318  149.6747 LP  0  0  0  0  0  0  0  0  0  0  0  0  # atno 17370 bound_to 10713
  155.9728  130.4128  150.4051 LP  0  0  0  0  0  0  0  0  0  0  0  0  # atno 17371 bound_to 10713
  140.8742  134.2690  157.5176 LP  0  0  0  0  0  0  0  0  0  0  0  0  # atno 17394 bound_to 11000
  139.8705  134.9582  156.4294 LP  0  0  0  0  0  0  0  0  0  0  0  0  # atno 17395 bound_to 11000

$$$$
