AV-unprocessed.smi:2351|AV-procd|sdf|9376|dock9
  -GOLD-   2272013 03D 1   1.00000     0.00000
 Structure written by MMmdl.
 47 49  0  0  0  0  0  0  0  0  2 V2000
  149.4946  140.3121  156.8666 O   0  0  0  0  0  0  0  0  0  0  0  0
  149.3254  141.5011  156.5991 C   0  0  0  0  0  0  0  0  0  0  0  0
  149.9107  142.5352  157.2273 N   0  0  0  0  0  0  0  0  0  0  0  0
  150.8126  142.5197  158.3271 C   0  0  0  0  0  0  0  0  0  0  0  0
  151.7271  141.4724  158.5963 C   0  0  0  0  0  0  0  0  0  0  0  0
  152.5761  141.5891  159.7153 C   0  0  0  0  0  0  0  0  0  0  0  0
  152.5711  142.6529  160.5461 N   0  0  0  0  0  0  0  0  0  0  0  0
  151.7073  143.6550  160.2791 C   0  0  0  0  0  0  0  0  0  0  0  0
  150.8165  143.6385  159.1870 C   0  0  0  0  0  0  0  0  0  0  0  0
  149.9768  144.6805  158.9735 F   0  0  0  0  0  0  0  0  0  0  0  0
  148.4978  141.9276  155.6336 N   0  0  0  0  0  0  0  0  0  0  0  0
  147.6960  141.0665  154.7640 C   0  0  2  0  0  0  0  0  0  0  0  0
  147.3648  141.7898  153.4475 C   0  0  0  0  0  0  0  0  0  0  0  0
  146.3394  142.9208  153.6511 C   0  0  0  0  0  0  0  0  0  0  0  0
  145.1002  142.4202  154.3006 N   0  3  2  0  0  0  0  0  0  0  0  0
  144.0492  143.4670  154.3809 C   0  0  0  0  0  0  0  0  0  0  0  0
  144.6288  144.8861  154.5442 C   0  0  2  0  0  0  0  0  0  0  0  0
  144.0242  145.6854  155.6823 C   0  0  0  0  0  0  0  0  0  0  0  0
  144.3843  147.1168  155.2948 C   0  0  0  0  0  0  0  0  0  0  0  0
  144.4451  147.1327  153.8712 O   0  0  0  0  0  0  0  0  0  0  0  0
  144.3335  145.8080  153.3615 C   0  0  0  0  0  0  0  0  0  0  0  0
  145.3914  141.7742  155.6081 C   0  0  0  0  0  0  0  0  0  0  0  0
  146.3883  140.6139  155.4440 C   0  0  0  0  0  0  0  0  0  0  0  0
  149.6240  143.4553  156.9271 H   0  0  0  0  0  0  0  0  0  0  0  0
  151.8052  140.5966  157.9714 H   0  0  0  0  0  0  0  0  0  0  0  0
  153.2834  140.8062  159.9462 H   0  0  0  0  0  0  0  0  0  0  0  0
  151.7267  144.4967  160.9557 H   0  0  0  0  0  0  0  0  0  0  0  0
  148.4245  142.9230  155.4816 H   0  0  0  0  0  0  0  0  0  0  0  0
  148.2942  140.1849  154.5260 H   0  0  0  0  0  0  0  0  0  0  0  0
  148.2739  142.1845  152.9919 H   0  0  0  0  0  0  0  0  0  0  0  0
  146.9600  141.0685  152.7363 H   0  0  0  0  0  0  0  0  0  0  0  0
  146.7702  143.7211  154.2546 H   0  0  0  0  0  0  0  0  0  0  0  0
  146.0960  143.3549  152.6806 H   0  0  0  0  0  0  0  0  0  0  0  0
  143.4127  143.4146  153.4962 H   0  0  0  0  0  0  0  0  0  0  0  0
  143.4008  143.2621  155.2342 H   0  0  0  0  0  0  0  0  0  0  0  0
  145.7107  144.8485  154.6737 H   0  0  0  0  0  0  0  0  0  0  0  0
  142.9399  145.5654  155.7001 H   0  0  0  0  0  0  0  0  0  0  0  0
  144.4144  145.4025  156.6604 H   0  0  0  0  0  0  0  0  0  0  0  0
  143.6630  147.8424  155.6713 H   0  0  0  0  0  0  0  0  0  0  0  0
  145.3674  147.3821  155.6857 H   0  0  0  0  0  0  0  0  0  0  0  0
  145.0121  145.6451  152.5237 H   0  0  0  0  0  0  0  0  0  0  0  0
  143.3133  145.6651  153.0017 H   0  0  0  0  0  0  0  0  0  0  0  0
  145.7851  142.5156  156.3048 H   0  0  0  0  0  0  0  0  0  0  0  0
  144.4766  141.3834  156.0514 H   0  0  0  0  0  0  0  0  0  0  0  0
  145.9254  139.8323  154.8400 H   0  0  0  0  0  0  0  0  0  0  0  0
  146.5928  140.1578  156.4132 H   0  0  0  0  0  0  0  0  0  0  0  0
  144.7371  141.7003  153.6922 H   0  0  0  0  0  0  0  0  0  0  0  0
  1  2  2  0  0  0  0
  2  3  1  0  0  0  0
  2 11  1  0  0  0  0
  3  4  1  0  0  0  0
  3 24  1  0  0  0  0
  4  9  1  0  0  0  0
  4  5  2  0  0  0  0
  5  6  1  0  0  0  0
  5 25  1  0  0  0  0
  6  7  2  0  0  0  0
  6 26  1  0  0  0  0
  7  8  1  0  0  0  0
  8  9  2  0  0  0  0
  8 27  1  0  0  0  0
  9 10  1  0  0  0  0
 11 12  1  0  0  0  0
 11 28  1  0  0  0  0
 12 23  1  0  0  0  0
 12 13  1  0  0  0  0
 12 29  1  0  0  0  0
 13 14  1  0  0  0  0
 13 30  1  0  0  0  0
 13 31  1  0  0  0  0
 14 15  1  0  0  0  0
 14 32  1  0  0  0  0
 14 33  1  0  0  0  0
 15 16  1  0  0  0  0
 15 22  1  0  0  0  0
 15 47  1  0  0  0  0
 16 17  1  0  0  0  0
 16 34  1  0  0  0  0
 16 35  1  0  0  0  0
 17 21  1  0  0  0  0
 17 18  1  0  0  0  0
 17 36  1  0  0  0  0
 18 19  1  0  0  0  0
 18 37  1  0  0  0  0
 18 38  1  0  0  0  0
 19 20  1  0  0  0  0
 19 39  1  0  0  0  0
 19 40  1  0  0  0  0
 20 21  1  0  0  0  0
 21 41  1  0  0  0  0
 21 42  1  0  0  0  0
 22 23  1  0  0  0  0
 22 43  1  0  0  0  0
 22 44  1  0  0  0  0
 23 45  1  0  0  0  0
 23 46  1  0  0  0  0
M  CHG  1  15   1
M  END
> <s_m_source_file>
AV-unprocessed.smi

> <i_m_source_file_index>
2351

> <i_lp_mmshare_version>
43012

> <i_f3d_flags>
0

> <s_epik_input>
RmMxW2NIXW5bY0hdW2NIXWMxW05IXUMoPU8pW05IXVtDSF0yW0NIMl1bQ0gyXU4oW0NIMl1bQ0gyXTIpW0NIMl1bQ0BASF0zW0NIMl1bQ0gyXU9bQ0gyXTM=

> <s_epik_cmdline>
J2VwaWtfcHl0aG9uJywgJy1waCcsICc3LjAnLCAnLXRuJywgJzgnLCAnLW1hJywgJzIwMCcsICctbWV0YWxfYmluZGluZycsICctaW1hZScsICc8aW5maWxlLm1hZT4nLCAnLW9tYWUnLCAnPG91dGZpbGUubWFlPic=

> <r_epik_Ionization_Penalty>
0.0102464

> <r_epik_Ionization_Penalty_Charging>
0.00747775

> <r_epik_Ionization_Penalty_Neutral>
0.00276864

> <r_epik_State_Penalty>
0.00558817

> <r_epik_Charging_Adjusted_Penalty>
0.0130659

> <i_epik_Tot_Q>
1

> <i_epik_Tot_abs_Q>
1

> <r_epik_Metal_State_Penalty>
-0

> <b_epik_Metal_Only>
0

> <s_lp_Force_Field>
OPLS_2005

> <r_lp_Energy>
39.3269

> <b_lp_Chiralities_Consistent>
1

> <s_lp_Variant>
AV-unprocessed.smi:2351-3

> <Gold.Version>
5.8.1

> <Gold.Id.Protein>
6NUR|6NUR_protein|mol2

> <Gold.PLP.Fitness>
47.1119

> <Gold.PLP.PLP>
-38.6304

> <Gold.PLP.part.hbond>
-3.9916

> <Gold.PLP.part.metal>
0.0000

> <Gold.PLP.part.buried>
-7.2795

> <Gold.PLP.part.nonpolar>
-28.8311

> <Gold.PLP.part.repulsive>
0.1395

> <Gold.PLP.ligand.clash>
0.0000

> <Gold.PLP.ligand.torsion>
1.6367

> <Gold.PLP.Chemscore.Hbond>
3.9095

> <Gold.PLP.Chemscore.CHOScore>
0.0000

> <Gold.PLP.Chemscore.Metal>
0.0000

> <Gold.Chemscore.Hbonds>
donor molecule, donor type, donor heavy atom, donor atom, acceptor molecule, acceptor atom, score
      L1  H     3    24       P1  8028  1.00
      L1  H    11    28       P1  8028  1.00
      L1  H    15    47       P1 10175  1.20

> <Gold.PLP.Chemscore.Internal.Correction>
0.0264

> <Gold.Rescore>
     Score         DG    S(hbond)    S(metal)    S(lipo)     H(rot)  DE(clash)    DE(int)     intcor
     19.35     -21.61       2.62        0.00      94.77       1.45       0.69       1.58       ----

> <Gold.Chemscore.Fitness>
19.3460

> <Gold.Chemscore.DG>
-21.6103

> <Gold.Chemscore.ZeroCoef>
-5.4800

> <Gold.Chemscore.Hbond>
2.6198

> <Gold.Chemscore.Metal>
0.0000

> <Gold.Chemscore.Lipo>
94.7684

> <Gold.Chemscore.Internal_Hbond>
0.0000

> <Gold.Chemscore.DEClash>
0.6856

> <Gold.Chemscore.DEInternal>
1.5787

> <Gold.Chemscore.Rot>
1.4483

> <Gold.Chemscore.Internal.Correction>
   9.000000E+99

> <Gold.Chemscore.Hbonds>
donor molecule, donor type, donor heavy atom, donor atom, acceptor molecule, acceptor atom, score
      L1  H     3    24       P1  8028  0.96
      L1  H    11    28       P1  8028  0.99
      L1  H    15    47       P1 10175  0.04

> <Gold.Chemscore.Hbond.Weighted>
-8.7501

> <Gold.Chemscore.Metal.Weighted>
-0.0000

> <Gold.Chemscore.Lipo.Weighted>
-11.0879

> <Gold.Chemscore.Internal_Hbond.Weighted>
0.0000

> <Gold.Chemscore.DEClash.Weighted>
0.6856

> <Gold.Chemscore.DEInternal.Weighted>
1.5787

> <Gold.Chemscore.Rot.Weighted>
3.7077

> <Gold.Chemscore.Internal.Correction.Weighted>
   9.000000E+99

> <Gold.Protein.RotatedTorsions>
[ 6907 6896 6895 6894 ] final -171.74 input  -60.11 | X-H torsion
[ 7974 7965 7964 7962 ] final   44.01 input  175.53 | X-H torsion
[ 8008 7997 7996 7995 ] final  172.67 input   59.86 | X-H torsion
[ 10167 10162 10161 10158 ] final  137.02 input  -65.29 | X-H torsion
[ 10718 10713 10712 10709 ] final  -79.59 input   66.30 | X-H torsion
[ 10763 10752 10751 10750 ] final  158.90 input  -60.55 | X-H torsion
[ 11005 11000 10999 10996 ] final   74.75 input  -57.11 | X-H torsion

> <Gold.Protein.ActiveResidues>
 VAL166  LYS551  ARG553  GLY616  TRP617  ASP618  TYR619  PRO620  LYS621  CYS622 
 ASP623  PHE694  ASN695  SER759  ASP760  ASP761  ALA762  ILE779  LEU786  VAL792 
 PHE793  MET794  SER795  GLU796  ALA797  LYS798  CYS799  TRP800  GLU811  SER814 

> <Gold.Protein.RotatedAtoms>
  151.5286  133.3453  159.2913 H   0  0  0  0  0  0  0  0  0  0  0  0  # atno 6907 bound_to 6896
  150.8607  134.7961  159.7092 H   0  0  0  0  0  0  0  0  0  0  0  0  # atno 6908 bound_to 6896
  152.4627  134.5155  159.9818 H   0  0  0  0  0  0  0  0  0  0  0  0  # atno 6909 bound_to 6896
  146.0606  139.5122  142.9661 H   0  0  0  0  0  0  0  0  0  0  0  0  # atno 7974 bound_to 7965
  156.1152  140.1480  156.9283 H   0  0  0  0  0  0  0  0  0  0  0  0  # atno 8008 bound_to 7997
  154.4795  140.0884  156.7386 H   0  0  0  0  0  0  0  0  0  0  0  0  # atno 8009 bound_to 7997
  155.4526  140.3435  155.4305 H   0  0  0  0  0  0  0  0  0  0  0  0  # atno 8010 bound_to 7997
  139.5159  144.6433  151.5509 H   0  0  0  0  0  0  0  0  0  0  0  0  # atno 10167 bound_to 10162
  156.0089  130.4550  150.3671 H   0  0  0  0  0  0  0  0  0  0  0  0  # atno 10718 bound_to 10713
  154.2233  135.2781  155.2917 H   0  0  0  0  0  0  0  0  0  0  0  0  # atno 10763 bound_to 10752
  154.5684  135.5626  153.7075 H   0  0  0  0  0  0  0  0  0  0  0  0  # atno 10764 bound_to 10752
  153.0037  135.6315  154.2373 H   0  0  0  0  0  0  0  0  0  0  0  0  # atno 10765 bound_to 10752
  139.9376  134.7460  156.1187 H   0  0  0  0  0  0  0  0  0  0  0  0  # atno 11005 bound_to 11000
  145.6567  141.0250  143.1731 LP  0  0  0  0  0  0  0  0  0  0  0  0  # atno 17320 bound_to 7965
  144.7173  139.8153  143.7394 LP  0  0  0  0  0  0  0  0  0  0  0  0  # atno 17321 bound_to 7965
  140.6208  143.9262  150.6525 LP  0  0  0  0  0  0  0  0  0  0  0  0  # atno 17342 bound_to 10162
  140.2535  143.3576  152.1385 LP  0  0  0  0  0  0  0  0  0  0  0  0  # atno 17343 bound_to 10162
  157.1757  131.0380  151.2773 LP  0  0  0  0  0  0  0  0  0  0  0  0  # atno 17370 bound_to 10713
  157.4190  130.7427  149.6898 LP  0  0  0  0  0  0  0  0  0  0  0  0  # atno 17371 bound_to 10713
  141.0996  133.6682  156.2725 LP  0  0  0  0  0  0  0  0  0  0  0  0  # atno 17394 bound_to 11000
  140.6036  134.5530  157.5522 LP  0  0  0  0  0  0  0  0  0  0  0  0  # atno 17395 bound_to 11000

$$$$
