AV-unprocessed.smi:1875|AV-procd|sdf|7612|dock1
  -GOLD-   22720 9333D 1   1.00000     0.00000
 Structure written by MMmdl.
 48 50  0  0  0  0  0  0  0  0  2 V2000
  142.4787  136.5313  153.5069 C   0  0  0  0  0  0  0  0  0  0  0  0
  143.6626  136.5927  152.5641 C   0  0  0  0  0  0  0  0  0  0  0  0
  143.7240  135.6573  151.6114 N   0  0  0  0  0  0  0  0  0  0  0  0
  144.7747  135.7133  150.7645 C   0  0  0  0  0  0  0  0  0  0  0  0
  145.7644  136.7112  150.8759 C   0  0  0  0  0  0  0  0  0  0  0  0
  145.5898  137.6469  151.9170 C   0  0  0  0  0  0  0  0  0  0  0  0
  146.5907  138.7571  152.1575 C   0  0  0  0  0  0  0  0  0  0  0  0
  146.1424  139.6132  153.2711 N   0  3  0  0  0  0  0  0  0  0  0  0
  147.0653  140.7190  153.5947 C   0  0  0  0  0  0  0  0  0  0  0  0
  147.9751  140.3531  154.7785 C   0  0  2  0  0  0  0  0  0  0  0  0
  147.2286  140.4547  155.9765 O   0  0  0  0  0  0  0  0  0  0  0  0
  149.2123  141.2676  154.8630 C   0  0  0  0  0  0  0  0  0  0  0  0
  150.2402  140.7297  155.7364 N   0  0  0  0  0  0  0  0  0  0  0  0
  150.8429  139.5297  155.6324 C   0  0  0  0  0  0  0  0  0  0  0  0
  151.7626  139.2289  156.5439 N   0  0  0  0  0  0  0  0  0  0  0  0
  151.7572  140.3671  157.3319 C   0  0  0  0  0  0  0  0  0  0  0  0
  152.5121  140.6901  158.4804 C   0  0  0  0  0  0  0  0  0  0  0  0
  152.3383  141.9291  159.1372 C   0  0  0  0  0  0  0  0  0  0  0  0
  153.1699  142.2334  160.3709 C   0  0  0  0  0  0  0  0  0  0  0  0
  151.3974  142.8688  158.6444 C   0  0  0  0  0  0  0  0  0  0  0  0
  151.1951  144.2068  159.3332 C   0  0  0  0  0  0  0  0  0  0  0  0
  150.6348  142.5623  157.4979 C   0  0  0  0  0  0  0  0  0  0  0  0
  150.8164  141.3257  156.8534 C   0  0  0  0  0  0  0  0  0  0  0  0
  144.5386  137.5827  152.7639 N   0  0  0  0  0  0  0  0  0  0  0  0
  142.0576  135.5259  153.5466 H   0  0  0  0  0  0  0  0  0  0  0  0
  141.6989  137.2164  153.1736 H   0  0  0  0  0  0  0  0  0  0  0  0
  142.7732  136.8122  154.5187 H   0  0  0  0  0  0  0  0  0  0  0  0
  144.8280  134.9567  149.9956 H   0  0  0  0  0  0  0  0  0  0  0  0
  146.6045  136.7521  150.1983 H   0  0  0  0  0  0  0  0  0  0  0  0
  147.5677  138.3303  152.3881 H   0  0  0  0  0  0  0  0  0  0  0  0
  146.7023  139.3543  151.2511 H   0  0  0  0  0  0  0  0  0  0  0  0
  145.2444  140.0064  153.0259 H   0  0  0  0  0  0  0  0  0  0  0  0
  147.6736  140.9246  152.7129 H   0  0  0  0  0  0  0  0  0  0  0  0
  146.4989  141.6263  153.8107 H   0  0  0  0  0  0  0  0  0  0  0  0
  148.3073  139.3193  154.6708 H   0  0  0  0  0  0  0  0  0  0  0  0
  146.7105  141.2449  155.9468 H   0  0  0  0  0  0  0  0  0  0  0  0
  149.6478  141.4029  153.8720 H   0  0  0  0  0  0  0  0  0  0  0  0
  148.9343  142.2608  155.2178 H   0  0  0  0  0  0  0  0  0  0  0  0
  150.5904  138.8363  154.8434 H   0  0  0  0  0  0  0  0  0  0  0  0
  153.2291  139.9743  158.8551 H   0  0  0  0  0  0  0  0  0  0  0  0
  152.5251  142.4272  161.2284 H   0  0  0  0  0  0  0  0  0  0  0  0
  153.7967  143.1096  160.2026 H   0  0  0  0  0  0  0  0  0  0  0  0
  153.8231  141.3985  160.6265 H   0  0  0  0  0  0  0  0  0  0  0  0
  150.4476  144.8111  158.8183 H   0  0  0  0  0  0  0  0  0  0  0  0
  152.1273  144.7720  159.3510 H   0  0  0  0  0  0  0  0  0  0  0  0
  150.8583  144.0607  160.3596 H   0  0  0  0  0  0  0  0  0  0  0  0
  149.9141  143.2689  157.1142 H   0  0  0  0  0  0  0  0  0  0  0  0
  146.0256  139.0364  154.0918 H   0  0  0  0  0  0  0  0  0  0  0  0
  1  2  1  0  0  0  0
  1 25  1  0  0  0  0
  1 26  1  0  0  0  0
  1 27  1  0  0  0  0
  2 24  1  0  0  0  0
  2  3  2  0  0  0  0
  3  4  1  0  0  0  0
  4  5  2  0  0  0  0
  4 28  1  0  0  0  0
  5  6  1  0  0  0  0
  5 29  1  0  0  0  0
  6  7  1  0  0  0  0
  6 24  2  0  0  0  0
  7  8  1  0  0  0  0
  7 30  1  0  0  0  0
  7 31  1  0  0  0  0
  8  9  1  0  0  0  0
  8 32  1  0  0  0  0
  8 48  1  0  0  0  0
  9 10  1  0  0  0  0
  9 33  1  0  0  0  0
  9 34  1  0  0  0  0
 10 11  1  0  0  0  0
 10 12  1  0  0  0  0
 10 35  1  0  0  0  0
 11 36  1  0  0  0  0
 12 13  1  0  0  0  0
 12 37  1  0  0  0  0
 12 38  1  0  0  0  0
 13 23  1  0  0  0  0
 13 14  1  0  0  0  0
 14 15  2  0  0  0  0
 14 39  1  0  0  0  0
 15 16  1  0  0  0  0
 16 23  2  0  0  0  0
 16 17  1  0  0  0  0
 17 18  2  0  0  0  0
 17 40  1  0  0  0  0
 18 19  1  0  0  0  0
 18 20  1  0  0  0  0
 19 41  1  0  0  0  0
 19 42  1  0  0  0  0
 19 43  1  0  0  0  0
 20 21  1  0  0  0  0
 20 22  2  0  0  0  0
 21 44  1  0  0  0  0
 21 45  1  0  0  0  0
 21 46  1  0  0  0  0
 22 23  1  0  0  0  0
 22 47  1  0  0  0  0
M  CHG  1   8   1
M  END
> <s_m_source_file>
AV-unprocessed.smi

> <i_m_source_file_index>
1875

> <i_lp_mmshare_version>
43012

> <i_f3d_flags>
0

> <s_epik_input>
W0NIM11jMW5bY0hdW2NIXWMobjEpW0NIMl1bTkhdW0NIMl1bQ0BIXShbT0hdKVtDSDJdbihbY0hdbjIpYyhjMjMpW2NIXWMoW0NIM10pYyhbY0hdMylbQ0gzXQ==

> <s_epik_cmdline>
J2VwaWtfcHl0aG9uJywgJy1waCcsICc3LjAnLCAnLXRuJywgJzgnLCAnLW1hJywgJzIwMCcsICctbWV0YWxfYmluZGluZycsICctaW1hZScsICc8aW5maWxlLm1hZT4nLCAnLW9tYWUnLCAnPG91dGZpbGUubWFlPic=

> <r_lp_tautomer_probability>
1

> <r_epik_Ionization_Penalty>
0.192455

> <r_epik_Ionization_Penalty_Charging>
0.102343

> <r_epik_Ionization_Penalty_Neutral>
0.0901122

> <r_epik_State_Penalty>
0.175389

> <r_epik_Charging_Adjusted_Penalty>
0.277732

> <i_epik_Tot_Q>
1

> <i_epik_Tot_abs_Q>
1

> <r_epik_Metal_State_Penalty>
0.167659

> <b_epik_Metal_Only>
0

> <s_epik_Chemistry_Notes>
This compound contains an electron-poor aromatic ring that is susceptible to covalent hydrolysis at low pH, typically resulting in measured values for nitrogen ring protonation that are around two units higher than predicted values.

> <s_lp_Force_Field>
OPLS_2005

> <r_lp_Energy>
2.18652

> <b_lp_Chiralities_Consistent>
1

> <s_lp_Variant>
AV-unprocessed.smi:1875-1

> <Gold.Version>
5.8.1

> <Gold.Id.Protein>
6NUR|6NUR_protein|mol2

> <Gold.PLP.Fitness>
55.6236

> <Gold.PLP.PLP>
-47.3008

> <Gold.PLP.part.hbond>
-1.0000

> <Gold.PLP.part.metal>
0.0000

> <Gold.PLP.part.buried>
-0.0405

> <Gold.PLP.part.nonpolar>
-47.3421

> <Gold.PLP.part.repulsive>
0.6106

> <Gold.PLP.ligand.clash>
0.0000

> <Gold.PLP.ligand.torsion>
0.5230

> <Gold.PLP.Chemscore.Hbond>
2.0000

> <Gold.PLP.Chemscore.CHOScore>
1.0000

> <Gold.PLP.Chemscore.Metal>
0.0000

> <Gold.Chemscore.Hbonds>
donor molecule, donor type, donor heavy atom, donor atom, acceptor molecule, acceptor atom, score
      L1  H     8    32       P1 10175  2.00
      L1  C     4    28       P1  7921  0.57

> <Gold.PLP.Chemscore.Internal.Correction>
0.3690

> <Gold.Rescore>
     Score         DG    S(hbond)    S(metal)    S(lipo)     H(rot)  DE(clash)    DE(int)     intcor
     15.43     -15.95       1.00        0.00     122.28       2.80       0.04       0.47       ----

> <Gold.Chemscore.Fitness>
15.4329

> <Gold.Chemscore.DG>
-15.9464

> <Gold.Chemscore.ZeroCoef>
-5.4800

> <Gold.Chemscore.Hbond>
0.9999

> <Gold.Chemscore.Metal>
0.0000

> <Gold.Chemscore.Lipo>
122.2816

> <Gold.Chemscore.Internal_Hbond>
0.0000

> <Gold.Chemscore.DEClash>
0.0448

> <Gold.Chemscore.DEInternal>
0.4686

> <Gold.Chemscore.Rot>
2.8047

> <Gold.Chemscore.Internal.Correction>
   9.000000E+99

> <Gold.Chemscore.Hbonds>
donor molecule, donor type, donor heavy atom, donor atom, acceptor molecule, acceptor atom, score
      L1  H     8    32       P1 10175  1.00

> <Gold.Chemscore.Hbond.Weighted>
-3.3395

> <Gold.Chemscore.Metal.Weighted>
-0.0000

> <Gold.Chemscore.Lipo.Weighted>
-14.3069

> <Gold.Chemscore.Internal_Hbond.Weighted>
0.0000

> <Gold.Chemscore.DEClash.Weighted>
0.0448

> <Gold.Chemscore.DEInternal.Weighted>
0.4686

> <Gold.Chemscore.Rot.Weighted>
7.1801

> <Gold.Chemscore.Internal.Correction.Weighted>
   9.000000E+99

> <Gold.Protein.RotatedTorsions>
[ 6907 6896 6895 6894 ] final   10.66 input  -60.11 | X-H torsion
[ 7974 7965 7964 7962 ] final   82.52 input  175.53 | X-H torsion
[ 8008 7997 7996 7995 ] final -161.14 input   59.86 | X-H torsion
[ 10167 10162 10161 10158 ] final  137.93 input  -65.29 | X-H torsion
[ 10718 10713 10712 10709 ] final   -0.78 input   66.30 | X-H torsion
[ 10763 10752 10751 10750 ] final  -26.59 input  -60.55 | X-H torsion
[ 11005 11000 10999 10996 ] final  149.00 input  -57.11 | X-H torsion

> <Gold.Protein.ActiveResidues>
 VAL166  LYS551  ARG553  GLY616  TRP617  ASP618  TYR619  PRO620  LYS621  CYS622 
 ASP623  PHE694  ASN695  SER759  ASP760  ASP761  ALA762  ILE779  LEU786  VAL792 
 PHE793  MET794  SER795  GLU796  ALA797  LYS798  CYS799  TRP800  GLU811  SER814 

> <Gold.Protein.RotatedAtoms>
  151.7418  135.0852  160.0316 H   0  0  0  0  0  0  0  0  0  0  0  0  # atno 6907 bound_to 6896
  152.3474  133.6134  159.5928 H   0  0  0  0  0  0  0  0  0  0  0  0  # atno 6908 bound_to 6896
  150.7517  133.9544  159.3537 H   0  0  0  0  0  0  0  0  0  0  0  0  # atno 6909 bound_to 6896
  145.6239  139.2391  143.2122 H   0  0  0  0  0  0  0  0  0  0  0  0  # atno 7974 bound_to 7965
  155.7878  140.0874  157.2025 H   0  0  0  0  0  0  0  0  0  0  0  0  # atno 8008 bound_to 7997
  154.3987  140.1495  156.3185 H   0  0  0  0  0  0  0  0  0  0  0  0  # atno 8009 bound_to 7997
  155.8589  140.3431  155.5745 H   0  0  0  0  0  0  0  0  0  0  0  0  # atno 8010 bound_to 7997
  139.5128  144.6382  151.5640 H   0  0  0  0  0  0  0  0  0  0  0  0  # atno 10167 bound_to 10162
  156.8154  130.5438  149.5703 H   0  0  0  0  0  0  0  0  0  0  0  0  # atno 10718 bound_to 10713
  153.7185  135.6946  153.5019 H   0  0  0  0  0  0  0  0  0  0  0  0  # atno 10763 bound_to 10752
  153.2221  135.4366  155.0500 H   0  0  0  0  0  0  0  0  0  0  0  0  # atno 10764 bound_to 10752
  154.8292  135.3463  154.6719 H   0  0  0  0  0  0  0  0  0  0  0  0  # atno 10765 bound_to 10752
  140.1007  134.8985  157.1792 H   0  0  0  0  0  0  0  0  0  0  0  0  # atno 11005 bound_to 11000
  146.1409  140.7059  142.9367 LP  0  0  0  0  0  0  0  0  0  0  0  0  # atno 17320 bound_to 7965
  144.7220  140.4403  143.7001 LP  0  0  0  0  0  0  0  0  0  0  0  0  # atno 17321 bound_to 7965
  140.6139  143.9385  150.6474 LP  0  0  0  0  0  0  0  0  0  0  0  0  # atno 17342 bound_to 10162
  140.2636  143.3506  152.1300 LP  0  0  0  0  0  0  0  0  0  0  0  0  # atno 17343 bound_to 10162
  156.1020  130.5976  150.9909 LP  0  0  0  0  0  0  0  0  0  0  0  0  # atno 17370 bound_to 10713
  157.6484  131.0900  150.8103 LP  0  0  0  0  0  0  0  0  0  0  0  0  # atno 17371 bound_to 10713
  140.3223  134.2902  155.7244 LP  0  0  0  0  0  0  0  0  0  0  0  0  # atno 17394 bound_to 11000
  141.2105  133.7718  156.9928 LP  0  0  0  0  0  0  0  0  0  0  0  0  # atno 17395 bound_to 11000

$$$$
