AV-unprocessed.smi:987|AV-procd|sdf|4322|dock3
  -GOLD-   22720 2223D 1   1.00000     0.00000
 Structure written by MMmdl.
 50 52  0  0  0  0  0  0  0  0  1 V2000
  151.6467  145.0235  158.5638 C   0  0  0  0  0  0  0  0  0  0  0  0
  152.1236  143.5964  158.2737 C   0  0  2  0  0  0  0  0  0  0  0  0
  151.0304  142.7481  157.5980 C   0  0  0  0  0  0  0  0  0  0  0  0
  151.4806  141.3668  157.4397 N   0  0  0  0  0  0  0  0  0  0  0  0
  150.7224  140.5136  156.6089 C   0  0  0  0  0  0  0  0  0  0  0  0
  151.2287  140.1108  155.3508 C   0  0  0  0  0  0  0  0  0  0  0  0
  150.4541  139.2602  154.5395 C   0  0  0  0  0  0  0  0  0  0  0  0
  149.1973  138.8238  155.0006 C   0  0  0  0  0  0  0  0  0  0  0  0
  148.4283  137.9830  154.1514 N   0  0  0  0  0  0  0  0  0  0  0  0
  147.1026  138.0037  153.9311 C   0  0  0  0  0  0  0  0  0  0  0  0
  146.3002  138.7504  154.4910 O   0  0  0  0  0  0  0  0  0  0  0  0
  146.7506  137.0838  153.0220 N   0  0  0  0  0  0  0  0  0  0  0  0
  145.3952  136.8372  152.5361 C   0  0  0  0  0  0  0  0  0  0  0  0
  145.3816  135.8614  151.3510 C   0  0  0  0  0  0  0  0  0  0  0  0
  145.9023  136.5992  150.2621 O   0  0  0  0  0  0  0  0  0  0  0  0
  146.0743  134.5013  151.5506 C   0  0  0  0  0  0  0  0  0  0  0  0
  144.9440  133.8342  150.7648 C   0  0  0  0  0  0  0  0  0  0  0  0
  144.0934  135.0753  151.0394 C   0  0  0  0  0  0  0  0  0  0  0  0
  148.7654  139.2905  156.2646 C   0  0  0  0  0  0  0  0  0  0  0  0
  149.5041  140.1083  157.0438 N   0  0  0  0  0  0  0  0  0  0  0  0
  151.9679  140.7740  158.6822 C   0  0  0  0  0  0  0  0  0  0  0  0
  153.0326  141.6803  159.3290 C   0  0  2  0  0  0  0  0  0  0  0  0
  153.4828  141.1542  160.6958 C   0  0  0  0  0  0  0  0  0  0  0  0
  152.4921  142.9868  159.5080 O   0  0  0  0  0  0  0  0  0  0  0  0
  151.3595  145.5351  157.6449 H   0  0  0  0  0  0  0  0  0  0  0  0
  152.4342  145.6095  159.0378 H   0  0  0  0  0  0  0  0  0  0  0  0
  150.7839  145.0233  159.2306 H   0  0  0  0  0  0  0  0  0  0  0  0
  153.0002  143.6494  157.6255 H   0  0  0  0  0  0  0  0  0  0  0  0
  150.1181  142.7621  158.1962 H   0  0  0  0  0  0  0  0  0  0  0  0
  150.7896  143.1782  156.6249 H   0  0  0  0  0  0  0  0  0  0  0  0
  152.1877  140.4548  154.9933 H   0  0  0  0  0  0  0  0  0  0  0  0
  150.8250  138.9488  153.5739 H   0  0  0  0  0  0  0  0  0  0  0  0
  148.9442  137.2528  153.6826 H   0  0  0  0  0  0  0  0  0  0  0  0
  147.4803  136.5153  152.6178 H   0  0  0  0  0  0  0  0  0  0  0  0
  144.7970  136.4559  153.3651 H   0  0  0  0  0  0  0  0  0  0  0  0
  144.9249  137.7812  152.2563 H   0  0  0  0  0  0  0  0  0  0  0  0
  145.2370  137.2198  150.0067 H   0  0  0  0  0  0  0  0  0  0  0  0
  147.0566  134.4121  151.0850 H   0  0  0  0  0  0  0  0  0  0  0  0
  146.1009  134.1833  152.5940 H   0  0  0  0  0  0  0  0  0  0  0  0
  145.1810  133.7104  149.7070 H   0  0  0  0  0  0  0  0  0  0  0  0
  144.5625  132.9136  151.2069 H   0  0  0  0  0  0  0  0  0  0  0  0
  143.4479  134.9482  151.9094 H   0  0  0  0  0  0  0  0  0  0  0  0
  143.5317  135.4357  150.1770 H   0  0  0  0  0  0  0  0  0  0  0  0
  147.8000  139.0341  156.6715 H   0  0  0  0  0  0  0  0  0  0  0  0
  151.1237  140.6432  159.3605 H   0  0  0  0  0  0  0  0  0  0  0  0
  152.3954  139.7862  158.5162 H   0  0  0  0  0  0  0  0  0  0  0  0
  153.9064  141.7411  158.6777 H   0  0  0  0  0  0  0  0  0  0  0  0
  153.9164  140.1576  160.6086 H   0  0  0  0  0  0  0  0  0  0  0  0
  152.6457  141.0957  161.3920 H   0  0  0  0  0  0  0  0  0  0  0  0
  154.2370  141.8074  161.1349 H   0  0  0  0  0  0  0  0  0  0  0  0
  1  2  1  0  0  0  0
  1 25  1  0  0  0  0
  1 26  1  0  0  0  0
  1 27  1  0  0  0  0
  2 24  1  0  0  0  0
  2  3  1  0  0  0  0
  2 28  1  0  0  0  0
  3  4  1  0  0  0  0
  3 29  1  0  0  0  0
  3 30  1  0  0  0  0
  4  5  1  0  0  0  0
  4 21  1  0  0  0  0
  5 20  1  0  0  0  0
  5  6  2  0  0  0  0
  6  7  1  0  0  0  0
  6 31  1  0  0  0  0
  7  8  2  0  0  0  0
  7 32  1  0  0  0  0
  8  9  1  0  0  0  0
  8 19  1  0  0  0  0
  9 10  1  0  0  0  0
  9 33  1  0  0  0  0
 10 11  2  0  0  0  0
 10 12  1  0  0  0  0
 12 13  1  0  0  0  0
 12 34  1  0  0  0  0
 13 14  1  0  0  0  0
 13 35  1  0  0  0  0
 13 36  1  0  0  0  0
 14 18  1  0  0  0  0
 14 15  1  0  0  0  0
 14 16  1  0  0  0  0
 15 37  1  0  0  0  0
 16 17  1  0  0  0  0
 16 38  1  0  0  0  0
 16 39  1  0  0  0  0
 17 18  1  0  0  0  0
 17 40  1  0  0  0  0
 17 41  1  0  0  0  0
 18 42  1  0  0  0  0
 18 43  1  0  0  0  0
 19 20  2  0  0  0  0
 19 44  1  0  0  0  0
 21 22  1  0  0  0  0
 21 45  1  0  0  0  0
 21 46  1  0  0  0  0
 22 23  1  0  0  0  0
 22 24  1  0  0  0  0
 22 47  1  0  0  0  0
 23 48  1  0  0  0  0
 23 49  1  0  0  0  0
 23 50  1  0  0  0  0
M  END
> <s_m_source_file>
AV-unprocessed.smi

> <i_m_source_file_index>
987

> <i_lp_mmshare_version>
43012

> <i_f3d_flags>
0

> <s_epik_input>
W0NIM11bQ0BASF0xW0NIMl1OKFtDSDJdW0NASF0oTzEpW0NIM10pYzJbY0hdW2NIXWMoW2NIXW4yKVtOSF1DKD1PKVtOSF1bQ0gyXUMzKFtPSF0pW0NIMl1bQ0gyXVtDSDJdMw==

> <s_epik_cmdline>
J2VwaWtfcHl0aG9uJywgJy1waCcsICc3LjAnLCAnLXRuJywgJzgnLCAnLW1hJywgJzIwMCcsICctbWV0YWxfYmluZGluZycsICctaW1hZScsICc8aW5maWxlLm1hZT4nLCAnLW9tYWUnLCAnPG91dGZpbGUubWFlPic=

> <r_lp_tautomer_probability>
1

> <r_epik_Ionization_Penalty>
0.00275455

> <r_epik_Ionization_Penalty_Charging>
0

> <r_epik_Ionization_Penalty_Neutral>
0.00275455

> <r_epik_State_Penalty>
0.00189097

> <r_epik_Charging_Adjusted_Penalty>
0.00189097

> <i_epik_Tot_Q>
0

> <i_epik_Tot_abs_Q>
0

> <r_epik_Metal_State_Penalty>
-0

> <b_epik_Metal_Only>
0

> <s_lp_Force_Field>
OPLS_2005

> <r_lp_Energy>
27.7236

> <b_lp_Chiralities_Consistent>
1

> <s_lp_Variant>
AV-unprocessed.smi:987-2

> <Gold.Version>
5.8.1

> <Gold.Id.Protein>
6NUR|6NUR_protein|mol2

> <Gold.PLP.Fitness>
52.0165

> <Gold.PLP.PLP>
-44.3369

> <Gold.PLP.part.hbond>
-4.0521

> <Gold.PLP.part.metal>
0.0000

> <Gold.PLP.part.buried>
-2.9841

> <Gold.PLP.part.nonpolar>
-37.5309

> <Gold.PLP.part.repulsive>
0.1671

> <Gold.PLP.ligand.clash>
0.0000

> <Gold.PLP.ligand.torsion>
0.6672

> <Gold.PLP.Chemscore.Hbond>
2.8640

> <Gold.PLP.Chemscore.CHOScore>
0.0000

> <Gold.PLP.Chemscore.Metal>
0.0000

> <Gold.Chemscore.Hbonds>
donor molecule, donor type, donor heavy atom, donor atom, acceptor molecule, acceptor atom, score
      L1  H     9    33       P1  7948  0.72
      L1  H    12    34       P1  7948  1.00
      L1  H    15    37       P1 10171  1.00

> <Gold.PLP.Chemscore.Internal.Correction>
0.4221

> <Gold.Rescore>
     Score         DG    S(hbond)    S(metal)    S(lipo)     H(rot)  DE(clash)    DE(int)     intcor
     21.43     -22.85       2.87        0.00     108.72       1.93       0.24       1.18       ----

> <Gold.Chemscore.Fitness>
21.4295

> <Gold.Chemscore.DG>
-22.8491

> <Gold.Chemscore.ZeroCoef>
-5.4800

> <Gold.Chemscore.Hbond>
2.8741

> <Gold.Chemscore.Metal>
0.0000

> <Gold.Chemscore.Lipo>
108.7238

> <Gold.Chemscore.Internal_Hbond>
0.0000

> <Gold.Chemscore.DEClash>
0.2391

> <Gold.Chemscore.DEInternal>
1.1805

> <Gold.Chemscore.Rot>
1.9340

> <Gold.Chemscore.Internal.Correction>
   9.000000E+99

> <Gold.Chemscore.Hbonds>
donor molecule, donor type, donor heavy atom, donor atom, acceptor molecule, acceptor atom, score
      L1  H     9    33       P1  7948  0.69
      L1  H    12    34       P1  7948  0.98
      L1  H    15    37       P1 10171  1.00

> <Gold.Chemscore.Hbond.Weighted>
-9.5993

> <Gold.Chemscore.Metal.Weighted>
-0.0000

> <Gold.Chemscore.Lipo.Weighted>
-12.7207

> <Gold.Chemscore.Internal_Hbond.Weighted>
0.0000

> <Gold.Chemscore.DEClash.Weighted>
0.2391

> <Gold.Chemscore.DEInternal.Weighted>
1.1805

> <Gold.Chemscore.Rot.Weighted>
4.9509

> <Gold.Chemscore.Internal.Correction.Weighted>
   9.000000E+99

> <Gold.Protein.RotatedTorsions>
[ 6907 6896 6895 6894 ] final   71.04 input  -60.11 | X-H torsion
[ 7974 7965 7964 7962 ] final  108.65 input  175.53 | X-H torsion
[ 8008 7997 7996 7995 ] final   99.49 input   59.86 | X-H torsion
[ 10167 10162 10161 10158 ] final  169.89 input  -65.29 | X-H torsion
[ 10718 10713 10712 10709 ] final   63.87 input   66.30 | X-H torsion
[ 10763 10752 10751 10750 ] final -100.39 input  -60.55 | X-H torsion
[ 11005 11000 10999 10996 ] final   45.12 input  -57.11 | X-H torsion

> <Gold.Protein.ActiveResidues>
 VAL166  LYS551  ARG553  GLY616  TRP617  ASP618  TYR619  PRO620  LYS621  CYS622 
 ASP623  PHE694  ASN695  SER759  ASP760  ASP761  ALA762  ILE779  LEU786  VAL792 
 PHE793  MET794  SER795  GLU796  ALA797  LYS798  CYS799  TRP800  GLU811  SER814 

> <Gold.Protein.RotatedAtoms>
  152.4786  134.4780  159.9656 H   0  0  0  0  0  0  0  0  0  0  0  0  # atno 6907 bound_to 6896
  151.4791  133.3545  159.2843 H   0  0  0  0  0  0  0  0  0  0  0  0  # atno 6908 bound_to 6896
  150.8841  134.8263  159.7308 H   0  0  0  0  0  0  0  0  0  0  0  0  # atno 6909 bound_to 6896
  145.2779  139.2643  143.3931 H   0  0  0  0  0  0  0  0  0  0  0  0  # atno 7974 bound_to 7965
  156.1110  140.3228  155.8073 H   0  0  0  0  0  0  0  0  0  0  0  0  # atno 8008 bound_to 7997
  155.4672  140.0544  157.3001 H   0  0  0  0  0  0  0  0  0  0  0  0  # atno 8009 bound_to 7997
  154.4760  140.2032  155.9891 H   0  0  0  0  0  0  0  0  0  0  0  0  # atno 8010 bound_to 7997
  139.5004  144.3656  151.9779 H   0  0  0  0  0  0  0  0  0  0  0  0  # atno 10167 bound_to 10162
  157.6001  130.9129  149.9772 H   0  0  0  0  0  0  0  0  0  0  0  0  # atno 10718 bound_to 10713
  154.7575  135.4936  153.9403 H   0  0  0  0  0  0  0  0  0  0  0  0  # atno 10763 bound_to 10752
  153.1213  135.6732  153.9339 H   0  0  0  0  0  0  0  0  0  0  0  0  # atno 10764 bound_to 10752
  153.9070  135.3103  155.3427 H   0  0  0  0  0  0  0  0  0  0  0  0  # atno 10765 bound_to 10752
  140.1489  134.4487  155.8396 H   0  0  0  0  0  0  0  0  0  0  0  0  # atno 11005 bound_to 11000
  146.3226  140.3239  142.8635 LP  0  0  0  0  0  0  0  0  0  0  0  0  # atno 17320 bound_to 7965
  144.9278  140.7941  143.5708 LP  0  0  0  0  0  0  0  0  0  0  0  0  # atno 17321 bound_to 7965
  140.3092  144.3557  150.6038 LP  0  0  0  0  0  0  0  0  0  0  0  0  # atno 17342 bound_to 10162
  140.5812  143.2172  151.7425 LP  0  0  0  0  0  0  0  0  0  0  0  0  # atno 17343 bound_to 10162
  156.1072  130.3652  150.0113 LP  0  0  0  0  0  0  0  0  0  0  0  0  # atno 17370 bound_to 10713
  156.8218  130.9361  151.3641 LP  0  0  0  0  0  0  0  0  0  0  0  0  # atno 17371 bound_to 10713
  141.2196  133.6864  156.7384 LP  0  0  0  0  0  0  0  0  0  0  0  0  # atno 17394 bound_to 11000
  140.2629  134.8452  157.3776 LP  0  0  0  0  0  0  0  0  0  0  0  0  # atno 17395 bound_to 11000

$$$$
