AV-unprocessed.smi:3282|AV-procd|sdf|12565|dock1
  -GOLD-   2272018483D 1   1.00000     0.00000
 Structure written by MMmdl.
 34 35  0  0  0  0  0  0  0  0  1 V2000
  154.1554  139.6573  160.4166 C   0  0  0  0  0  0  0  0  0  0  0  0
  152.8128  140.3995  160.3163 C   0  0  0  0  0  0  0  0  0  0  0  0
  152.9557  141.9271  160.2069 C   0  0  0  0  0  0  0  0  0  0  0  0
  153.5243  142.5556  161.1011 O   0  0  0  0  0  0  0  0  0  0  0  0
  152.4439  142.5380  159.1180 N   0  0  0  0  0  0  0  0  0  0  0  0
  152.4989  143.9815  158.9032 C   0  0  0  0  0  0  0  0  0  0  0  0
  151.6043  144.2619  157.6958 C   0  0  0  0  0  0  0  0  0  0  0  0
  151.5724  142.9452  156.9249 C   0  0  2  0  0  0  0  0  0  0  0  0
  150.3170  142.7762  156.1996 N   0  0  0  0  0  0  0  0  0  0  0  0
  149.9862  141.7025  155.4668 C   0  0  0  0  0  0  0  0  0  0  0  0
  150.7514  140.7419  155.3353 O   0  0  0  0  0  0  0  0  0  0  0  0
  148.7403  141.8747  154.8873 N   0  0  0  0  0  0  0  0  0  0  0  0
  148.1722  140.8456  154.3398 C   0  0  0  0  0  0  0  0  0  0  0  0
  146.9304  140.7857  153.7279 N   0  0  0  0  0  0  0  0  0  0  0  0
  146.7398  139.5082  153.2782 C   0  0  0  0  0  0  0  0  0  0  0  0
  147.8162  138.7931  153.5926 C   0  0  0  0  0  0  0  0  0  0  0  0
  148.7141  139.5840  154.2438 O   0  0  0  0  0  0  0  0  0  0  0  0
  151.7699  141.8724  158.0049 C   0  0  0  0  0  0  0  0  0  0  0  0
  153.9945  138.5828  160.5039 H   0  0  0  0  0  0  0  0  0  0  0  0
  154.7229  139.9768  161.2916 H   0  0  0  0  0  0  0  0  0  0  0  0
  154.7718  139.8257  159.5327 H   0  0  0  0  0  0  0  0  0  0  0  0
  152.2666  140.0343  159.4460 H   0  0  0  0  0  0  0  0  0  0  0  0
  152.2110  140.1609  161.1937 H   0  0  0  0  0  0  0  0  0  0  0  0
  152.1674  144.5401  159.7800 H   0  0  0  0  0  0  0  0  0  0  0  0
  153.5296  144.2677  158.6890 H   0  0  0  0  0  0  0  0  0  0  0  0
  150.6031  144.5162  158.0480 H   0  0  0  0  0  0  0  0  0  0  0  0
  151.9633  145.0954  157.0916 H   0  0  0  0  0  0  0  0  0  0  0  0
  152.4172  142.9249  156.2339 H   0  0  0  0  0  0  0  0  0  0  0  0
  149.6516  143.5338  156.2553 H   0  0  0  0  0  0  0  0  0  0  0  0
  146.2553  141.5271  153.6086 H   0  0  0  0  0  0  0  0  0  0  0  0
  145.8279  139.2401  152.7656 H   0  0  0  0  0  0  0  0  0  0  0  0
  148.0840  137.7595  153.4301 H   0  0  0  0  0  0  0  0  0  0  0  0
  152.3478  141.0334  157.6154 H   0  0  0  0  0  0  0  0  0  0  0  0
  150.8112  141.4885  158.3583 H   0  0  0  0  0  0  0  0  0  0  0  0
  1  2  1  0  0  0  0
  1 19  1  0  0  0  0
  1 20  1  0  0  0  0
  1 21  1  0  0  0  0
  2  3  1  0  0  0  0
  2 22  1  0  0  0  0
  2 23  1  0  0  0  0
  3  4  2  0  0  0  0
  3  5  1  0  0  0  0
  5 18  1  0  0  0  0
  5  6  1  0  0  0  0
  6  7  1  0  0  0  0
  6 24  1  0  0  0  0
  6 25  1  0  0  0  0
  7  8  1  0  0  0  0
  7 26  1  0  0  0  0
  7 27  1  0  0  0  0
  8  9  1  0  0  0  0
  8 18  1  0  0  0  0
  8 28  1  0  0  0  0
  9 29  1  0  0  0  0
  9 10  1  0  0  0  0
 10 12  1  0  0  0  0
 10 11  2  0  0  0  0
 12 13  2  0  0  0  0
 13 17  1  0  0  0  0
 13 14  1  0  0  0  0
 14 30  1  0  0  0  0
 14 15  1  0  0  0  0
 15 31  1  0  0  0  0
 15 16  2  0  0  0  0
 16 32  1  0  0  0  0
 16 17  1  0  0  0  0
 18 33  1  0  0  0  0
 18 34  1  0  0  0  0
M  END
> <s_m_source_file>
AV-unprocessed.smi

> <i_m_source_file_index>
3282

> <i_lp_mmshare_version>
43012

> <i_f3d_flags>
0

> <s_epik_input>
W0NIM11bQ0gyXUMoPU8pTjFbQ0gyXVtDSDJdW0NASF0oW0NIMl0xKVtOSF1DKD1PKVtOSF1jMm5bY0hdW2NIXW8y

> <s_epik_cmdline>
J2VwaWtfcHl0aG9uJywgJy1waCcsICc3LjAnLCAnLXRuJywgJzgnLCAnLW1hJywgJzIwMCcsICctbWV0YWxfYmluZGluZycsICctaW1hZScsICc8aW5maWxlLm1hZT4nLCAnLW9tYWUnLCAnPG91dGZpbGUubWFlPic=

> <r_lp_tautomer_probability>
0.107061

> <r_epik_Ionization_Penalty>
0.434703

> <r_epik_Ionization_Penalty_Charging>
0.434345

> <r_epik_Ionization_Penalty_Neutral>
0.000358141

> <r_epik_State_Penalty>
2.49584

> <r_epik_Charging_Adjusted_Penalty>
2.93019

> <i_epik_Tot_Q>
0

> <i_epik_Tot_abs_Q>
0

> <r_epik_Metal_State_Penalty>
4.06361

> <b_epik_Metal_Only>
0

> <s_lp_Force_Field>
OPLS_2005

> <r_lp_Energy>
49.1525

> <b_lp_Chiralities_Consistent>
1

> <s_lp_Variant>
AV-unprocessed.smi:3282-6

> <Gold.Version>
5.8.1

> <Gold.Id.Protein>
6NUR|6NUR_protein|mol2

> <Gold.PLP.Fitness>
42.3607

> <Gold.PLP.PLP>
-30.9138

> <Gold.PLP.part.hbond>
-1.7844

> <Gold.PLP.part.metal>
0.0000

> <Gold.PLP.part.buried>
-3.3229

> <Gold.PLP.part.nonpolar>
-26.8697

> <Gold.PLP.part.repulsive>
1.7738

> <Gold.PLP.ligand.clash>
0.0000

> <Gold.PLP.ligand.torsion>
0.0409

> <Gold.PLP.Chemscore.Hbond>
1.8393

> <Gold.PLP.Chemscore.CHOScore>
2.0000

> <Gold.PLP.Chemscore.Metal>
0.0000

> <Gold.Chemscore.Hbonds>
donor molecule, donor type, donor heavy atom, donor atom, acceptor molecule, acceptor atom, score
      L1  H     9    29       P1  8028  1.00
      P1  H  7989  7998       L1    11  0.84
      L1  C    15    31       P1 10175  1.00
      L1  C    16    32       P1  7948  1.00

> <Gold.PLP.Chemscore.Internal.Correction>
0.0109

> <Gold.Rescore>
     Score         DG    S(hbond)    S(metal)    S(lipo)     H(rot)  DE(clash)    DE(int)     intcor
     12.81     -15.68       1.59        0.00      70.82       1.32       1.16       1.71       ----

> <Gold.Chemscore.Fitness>
12.8129

> <Gold.Chemscore.DG>
-15.6828

> <Gold.Chemscore.ZeroCoef>
-5.4800

> <Gold.Chemscore.Hbond>
1.5855

> <Gold.Chemscore.Metal>
0.0000

> <Gold.Chemscore.Lipo>
70.8230

> <Gold.Chemscore.Internal_Hbond>
0.0000

> <Gold.Chemscore.DEClash>
1.1584

> <Gold.Chemscore.DEInternal>
1.7115

> <Gold.Chemscore.Rot>
1.3199

> <Gold.Chemscore.Internal.Correction>
   9.000000E+99

> <Gold.Chemscore.Hbonds>
donor molecule, donor type, donor heavy atom, donor atom, acceptor molecule, acceptor atom, score
      L1  H     9    29       P1  8028  0.91
      P1  H  7989  7998       L1    11  0.51

> <Gold.Chemscore.Hbond.Weighted>
-5.2955

> <Gold.Chemscore.Metal.Weighted>
-0.0000

> <Gold.Chemscore.Lipo.Weighted>
-8.2863

> <Gold.Chemscore.Internal_Hbond.Weighted>
0.0000

> <Gold.Chemscore.DEClash.Weighted>
1.1584

> <Gold.Chemscore.DEInternal.Weighted>
1.7115

> <Gold.Chemscore.Rot.Weighted>
3.3789

> <Gold.Chemscore.Internal.Correction.Weighted>
   9.000000E+99

> <Gold.Protein.RotatedTorsions>
[ 6907 6896 6895 6894 ] final   71.03 input  -60.11 | X-H torsion
[ 7974 7965 7964 7962 ] final  -27.84 input  175.53 | X-H torsion
[ 8008 7997 7996 7995 ] final  174.37 input   59.86 | X-H torsion
[ 10167 10162 10161 10158 ] final  170.11 input  -65.29 | X-H torsion
[ 10718 10713 10712 10709 ] final  -98.30 input   66.30 | X-H torsion
[ 10763 10752 10751 10750 ] final   55.79 input  -60.55 | X-H torsion
[ 11005 11000 10999 10996 ] final  107.09 input  -57.11 | X-H torsion

> <Gold.Protein.ActiveResidues>
 VAL166  LYS551  ARG553  GLY616  TRP617  ASP618  TYR619  PRO620  LYS621  CYS622 
 ASP623  PHE694  ASN695  SER759  ASP760  ASP761  ALA762  ILE779  LEU786  VAL792 
 PHE793  MET794  SER795  GLU796  ALA797  LYS798  CYS799  TRP800  GLU811  SER814 

> <Gold.Protein.RotatedAtoms>
  152.4785  134.4781  159.9656 H   0  0  0  0  0  0  0  0  0  0  0  0  # atno 6907 bound_to 6896
  151.4792  133.3544  159.2843 H   0  0  0  0  0  0  0  0  0  0  0  0  # atno 6908 bound_to 6896
  150.8841  134.8262  159.7307 H   0  0  0  0  0  0  0  0  0  0  0  0  # atno 6909 bound_to 6896
  146.1330  140.5205  142.8685 H   0  0  0  0  0  0  0  0  0  0  0  0  # atno 7974 bound_to 7965
  156.0981  140.1436  156.9504 H   0  0  0  0  0  0  0  0  0  0  0  0  # atno 8008 bound_to 7997
  154.4684  140.0918  156.7127 H   0  0  0  0  0  0  0  0  0  0  0  0  # atno 8009 bound_to 7997
  155.4807  140.3445  155.4341 H   0  0  0  0  0  0  0  0  0  0  0  0  # atno 8010 bound_to 7997
  139.5010  144.3633  151.9802 H   0  0  0  0  0  0  0  0  0  0  0  0  # atno 10167 bound_to 10162
  156.0104  130.5232  150.6503 H   0  0  0  0  0  0  0  0  0  0  0  0  # atno 10718 bound_to 10713
  152.9822  135.5698  154.5124 H   0  0  0  0  0  0  0  0  0  0  0  0  # atno 10763 bound_to 10752
  154.4626  135.2782  155.1704 H   0  0  0  0  0  0  0  0  0  0  0  0  # atno 10764 bound_to 10752
  154.3285  135.6254  153.5594 H   0  0  0  0  0  0  0  0  0  0  0  0  # atno 10765 bound_to 10752
  139.8823  134.9390  156.5767 H   0  0  0  0  0  0  0  0  0  0  0  0  # atno 11005 bound_to 11000
  144.7710  140.5637  143.6670 LP  0  0  0  0  0  0  0  0  0  0  0  0  # atno 17320 bound_to 7965
  145.5219  139.1476  143.3547 LP  0  0  0  0  0  0  0  0  0  0  0  0  # atno 17321 bound_to 7965
  140.3069  144.3583  150.6044 LP  0  0  0  0  0  0  0  0  0  0  0  0  # atno 17342 bound_to 10162
  140.5829  143.2171  151.7394 LP  0  0  0  0  0  0  0  0  0  0  0  0  # atno 17343 bound_to 10162
  157.4265  131.0844  151.1080 LP  0  0  0  0  0  0  0  0  0  0  0  0  # atno 17370 bound_to 10713
  157.1666  130.6249  149.5627 LP  0  0  0  0  0  0  0  0  0  0  0  0  # atno 17371 bound_to 10713
  140.8058  133.8469  155.8766 LP  0  0  0  0  0  0  0  0  0  0  0  0  # atno 17394 bound_to 11000
  140.9551  134.1728  157.4698 LP  0  0  0  0  0  0  0  0  0  0  0  0  # atno 17395 bound_to 11000

$$$$
