AV-unprocessed.smi:1117|AV-procd|sdf|4813|dock3
  -GOLD-   22720 3363D 1   1.00000     0.00000
 Structure written by MMmdl.
 40 41  0  0  0  0  0  0  0  0  1 V2000
  150.3758  139.0646  155.3387 C   0  0  0  0  0  0  0  0  0  0  0  0
  149.9574  138.2021  156.5421 C   0  0  0  0  0  0  0  0  0  0  0  0
  148.8349  138.9294  157.3123 C   0  0  0  0  0  0  0  0  0  0  0  0
  149.4677  136.8307  156.0329 C   0  0  0  0  0  0  0  0  0  0  0  0
  151.1473  138.0443  157.3858 N   0  0  0  0  0  0  0  0  0  0  0  0
  151.2561  137.4299  158.5783 C   0  0  0  0  0  0  0  0  0  0  0  0
  150.3241  136.8650  159.1497 O   0  0  0  0  0  0  0  0  0  0  0  0
  152.6415  137.4531  159.2275 C   0  0  0  0  0  0  0  0  0  0  0  0
  153.0880  138.8684  159.4579 C   0  0  0  0  0  0  0  0  0  0  0  0
  154.2490  139.2778  160.0682 C   0  0  0  0  0  0  0  0  0  0  0  0
  154.3675  141.0142  160.1528 S   0  0  0  0  0  0  0  0  0  0  0  0
  152.8146  141.1230  159.3195 C   0  0  0  0  0  0  0  0  0  0  0  0
  152.1265  142.3322  159.0007 N   0  0  0  0  0  0  0  0  0  0  0  0
  152.5544  143.5502  159.7140 C   0  0  0  0  0  0  0  0  0  0  0  0
  152.3825  144.8040  158.8537 C   0  0  0  0  0  0  0  0  0  0  0  0
  150.9642  144.8345  158.2911 C   0  0  0  0  0  0  0  0  0  0  0  0
  150.5950  143.5294  157.7558 N   0  0  0  0  0  0  0  0  0  0  0  0
  151.0586  142.3261  158.1518 C   0  0  0  0  0  0  0  0  0  0  0  0
  150.5448  141.2997  157.7084 O   0  0  0  0  0  0  0  0  0  0  0  0
  152.2800  139.9303  159.0367 N   0  0  0  0  0  0  0  0  0  0  0  0
  149.5392  139.2303  154.6591 H   0  0  0  0  0  0  0  0  0  0  0  0
  151.1734  138.5897  154.7659 H   0  0  0  0  0  0  0  0  0  0  0  0
  150.7385  140.0431  155.6570 H   0  0  0  0  0  0  0  0  0  0  0  0
  149.1811  139.8828  157.7129 H   0  0  0  0  0  0  0  0  0  0  0  0
  148.4595  138.3379  158.1471 H   0  0  0  0  0  0  0  0  0  0  0  0
  147.9843  139.1367  156.6620 H   0  0  0  0  0  0  0  0  0  0  0  0
  148.6382  136.9452  155.3341 H   0  0  0  0  0  0  0  0  0  0  0  0
  149.1150  136.1942  156.8446 H   0  0  0  0  0  0  0  0  0  0  0  0
  150.2618  136.2930  155.5137 H   0  0  0  0  0  0  0  0  0  0  0  0
  151.9904  138.4680  157.0253 H   0  0  0  0  0  0  0  0  0  0  0  0
  152.6097  136.9051  160.1702 H   0  0  0  0  0  0  0  0  0  0  0  0
  153.3438  136.9200  158.5854 H   0  0  0  0  0  0  0  0  0  0  0  0
  155.0348  138.6631  160.4816 H   0  0  0  0  0  0  0  0  0  0  0  0
  151.9651  143.6404  160.6277 H   0  0  0  0  0  0  0  0  0  0  0  0
  153.5995  143.4752  160.0188 H   0  0  0  0  0  0  0  0  0  0  0  0
  152.5903  145.7054  159.4313 H   0  0  0  0  0  0  0  0  0  0  0  0
  153.1011  144.7817  158.0331 H   0  0  0  0  0  0  0  0  0  0  0  0
  150.2533  145.0954  159.0759 H   0  0  0  0  0  0  0  0  0  0  0  0
  150.8749  145.5907  157.5108 H   0  0  0  0  0  0  0  0  0  0  0  0
  149.8391  143.5256  157.0862 H   0  0  0  0  0  0  0  0  0  0  0  0
  1  2  1  0  0  0  0
  1 21  1  0  0  0  0
  1 22  1  0  0  0  0
  1 23  1  0  0  0  0
  2  3  1  0  0  0  0
  2  4  1  0  0  0  0
  2  5  1  0  0  0  0
  3 24  1  0  0  0  0
  3 25  1  0  0  0  0
  3 26  1  0  0  0  0
  4 27  1  0  0  0  0
  4 28  1  0  0  0  0
  4 29  1  0  0  0  0
  5  6  1  0  0  0  0
  5 30  1  0  0  0  0
  6  7  2  0  0  0  0
  6  8  1  0  0  0  0
  8  9  1  0  0  0  0
  8 31  1  0  0  0  0
  8 32  1  0  0  0  0
  9 20  1  0  0  0  0
  9 10  2  0  0  0  0
 10 11  1  0  0  0  0
 10 33  1  0  0  0  0
 11 12  1  0  0  0  0
 12 13  1  0  0  0  0
 12 20  2  0  0  0  0
 13 18  1  0  0  0  0
 13 14  1  0  0  0  0
 14 15  1  0  0  0  0
 14 34  1  0  0  0  0
 14 35  1  0  0  0  0
 15 16  1  0  0  0  0
 15 36  1  0  0  0  0
 15 37  1  0  0  0  0
 16 17  1  0  0  0  0
 16 38  1  0  0  0  0
 16 39  1  0  0  0  0
 17 18  1  0  0  0  0
 17 40  1  0  0  0  0
 18 19  2  0  0  0  0
M  END
> <s_m_source_file>
AV-unprocessed.smi

> <i_m_source_file_index>
1117

> <i_lp_mmshare_version>
43012

> <i_f3d_flags>
0

> <s_epik_input>
W0NIM11DKFtDSDNdKShbQ0gzXSlbTkhdQyg9TylbQ0gyXWMxW2NIXXNjKG4xKU4yW0NIMl1bQ0gyXVtDSDJdW05IXUMyPU8=

> <s_epik_cmdline>
J2VwaWtfcHl0aG9uJywgJy1waCcsICc3LjAnLCAnLXRuJywgJzgnLCAnLW1hJywgJzIwMCcsICctbWV0YWxfYmluZGluZycsICctaW1hZScsICc8aW5maWxlLm1hZT4nLCAnLW9tYWUnLCAnPG91dGZpbGUubWFlPic=

> <r_lp_tautomer_probability>
1

> <r_epik_Ionization_Penalty>
0.000135599

> <r_epik_Ionization_Penalty_Charging>
0

> <r_epik_Ionization_Penalty_Neutral>
0.000135599

> <r_epik_State_Penalty>
-0

> <r_epik_Charging_Adjusted_Penalty>
0

> <i_epik_Tot_Q>
0

> <i_epik_Tot_abs_Q>
0

> <r_epik_Metal_State_Penalty>
-0

> <b_epik_Metal_Only>
0

> <s_lp_Force_Field>
OPLS_2005

> <r_lp_Energy>
32.4347

> <b_lp_Chiralities_Consistent>
1

> <s_lp_Variant>
AV-unprocessed.smi:1117-1

> <Gold.Version>
5.8.1

> <Gold.Id.Protein>
6NUR|6NUR_protein|mol2

> <Gold.PLP.Fitness>
41.4873

> <Gold.PLP.PLP>
-37.0412

> <Gold.PLP.part.hbond>
-2.0000

> <Gold.PLP.part.metal>
0.0000

> <Gold.PLP.part.buried>
-6.1805

> <Gold.PLP.part.nonpolar>
-29.7520

> <Gold.PLP.part.repulsive>
0.0995

> <Gold.PLP.ligand.clash>
0.0000

> <Gold.PLP.ligand.torsion>
0.1406

> <Gold.PLP.Chemscore.Hbond>
1.5700

> <Gold.PLP.Chemscore.CHOScore>
0.0000

> <Gold.PLP.Chemscore.Metal>
0.0000

> <Gold.Chemscore.Hbonds>
donor molecule, donor type, donor heavy atom, donor atom, acceptor molecule, acceptor atom, score
      L1  H    17    40       P1  8028  0.73
      P1  H  6896  6909       L1     7  0.88

> <Gold.PLP.Chemscore.Internal.Correction>
0.0174

> <Gold.Rescore>
     Score         DG    S(hbond)    S(metal)    S(lipo)     H(rot)  DE(clash)    DE(int)     intcor
     12.25     -16.85       1.69        0.00      81.71       1.50       0.07       4.54       ----

> <Gold.Chemscore.Fitness>
12.2468

> <Gold.Chemscore.DG>
-16.8543

> <Gold.Chemscore.ZeroCoef>
-5.4800

> <Gold.Chemscore.Hbond>
1.6921

> <Gold.Chemscore.Metal>
0.0000

> <Gold.Chemscore.Lipo>
81.7098

> <Gold.Chemscore.Internal_Hbond>
0.0000

> <Gold.Chemscore.DEClash>
0.0680

> <Gold.Chemscore.DEInternal>
4.5395

> <Gold.Chemscore.Rot>
1.4990

> <Gold.Chemscore.Internal.Correction>
   9.000000E+99

> <Gold.Chemscore.Hbonds>
donor molecule, donor type, donor heavy atom, donor atom, acceptor molecule, acceptor atom, score
      L1  H    17    40       P1  8028  0.70
      P1  H  6896  6909       L1     7  0.38

> <Gold.Chemscore.Hbond.Weighted>
-5.6518

> <Gold.Chemscore.Metal.Weighted>
-0.0000

> <Gold.Chemscore.Lipo.Weighted>
-9.5601

> <Gold.Chemscore.Internal_Hbond.Weighted>
0.0000

> <Gold.Chemscore.DEClash.Weighted>
0.0680

> <Gold.Chemscore.DEInternal.Weighted>
4.5395

> <Gold.Chemscore.Rot.Weighted>
3.8375

> <Gold.Chemscore.Internal.Correction.Weighted>
   9.000000E+99

> <Gold.Protein.RotatedTorsions>
[ 6907 6896 6895 6894 ] final   95.13 input  -60.11 | X-H torsion
[ 7974 7965 7964 7962 ] final  -83.60 input  175.53 | X-H torsion
[ 8008 7997 7996 7995 ] final  112.69 input   59.86 | X-H torsion
[ 10167 10162 10161 10158 ] final  -10.46 input  -65.29 | X-H torsion
[ 10718 10713 10712 10709 ] final   75.27 input   66.30 | X-H torsion
[ 10763 10752 10751 10750 ] final  174.84 input  -60.55 | X-H torsion
[ 11005 11000 10999 10996 ] final   87.17 input  -57.11 | X-H torsion

> <Gold.Protein.ActiveResidues>
 VAL166  LYS551  ARG553  GLY616  TRP617  ASP618  TYR619  PRO620  LYS621  CYS622 
 ASP623  PHE694  ASN695  SER759  ASP760  ASP761  ALA762  ILE779  LEU786  VAL792 
 PHE793  MET794  SER795  GLU796  ALA797  LYS798  CYS799  TRP800  GLU811  SER814 

> <Gold.Protein.RotatedAtoms>
  152.5445  134.1086  159.8348 H   0  0  0  0  0  0  0  0  0  0  0  0  # atno 6907 bound_to 6896
  151.1156  133.5134  159.2611 H   0  0  0  0  0  0  0  0  0  0  0  0  # atno 6908 bound_to 6896
  151.1836  135.0381  159.8857 H   0  0  0  0  0  0  0  0  0  0  0  0  # atno 6909 bound_to 6896
  145.5178  140.9534  143.1672 H   0  0  0  0  0  0  0  0  0  0  0  0  # atno 7974 bound_to 7965
  156.2209  140.2994  155.9950 H   0  0  0  0  0  0  0  0  0  0  0  0  # atno 8008 bound_to 7997
  155.2484  140.0425  157.3001 H   0  0  0  0  0  0  0  0  0  0  0  0  # atno 8009 bound_to 7997
  154.5839  140.2383  155.8023 H   0  0  0  0  0  0  0  0  0  0  0  0  # atno 8010 bound_to 7997
  140.7114  143.5746  150.9056 H   0  0  0  0  0  0  0  0  0  0  0  0  # atno 10167 bound_to 10162
  157.6627  130.9718  150.1329 H   0  0  0  0  0  0  0  0  0  0  0  0  # atno 10718 bound_to 10713
  154.4595  135.2767  155.1723 H   0  0  0  0  0  0  0  0  0  0  0  0  # atno 10763 bound_to 10752
  154.3517  135.6148  153.5649 H   0  0  0  0  0  0  0  0  0  0  0  0  # atno 10764 bound_to 10752
  152.9853  135.5813  154.4954 H   0  0  0  0  0  0  0  0  0  0  0  0  # atno 10765 bound_to 10752
  139.8926  134.8404  156.2822 H   0  0  0  0  0  0  0  0  0  0  0  0  # atno 11005 bound_to 11000
  144.7692  139.6774  143.7202 LP  0  0  0  0  0  0  0  0  0  0  0  0  # atno 17320 bound_to 7965
  146.2125  139.5492  142.9671 LP  0  0  0  0  0  0  0  0  0  0  0  0  # atno 17321 bound_to 7965
  139.9472  143.6314  152.3038 LP  0  0  0  0  0  0  0  0  0  0  0  0  # atno 17342 bound_to 10162
  139.6820  144.7655  151.1592 LP  0  0  0  0  0  0  0  0  0  0  0  0  # atno 17343 bound_to 10162
  156.2171  130.3671  149.8600 LP  0  0  0  0  0  0  0  0  0  0  0  0  # atno 17370 bound_to 10713
  156.6463  130.8725  151.3523 LP  0  0  0  0  0  0  0  0  0  0  0  0  # atno 17371 bound_to 10713
  141.0031  133.7140  156.0992 LP  0  0  0  0  0  0  0  0  0  0  0  0  # atno 17394 bound_to 11000
  140.7471  134.4086  157.5547 LP  0  0  0  0  0  0  0  0  0  0  0  0  # atno 17395 bound_to 11000

$$$$
