AV-unprocessed.smi:998|AV-procd|sdf|4349|dock1
  -GOLD-   22720 2243D 1   1.00000     0.00000
 Structure written by MMmdl.
 44 46  0  0  0  0  0  0  0  0  1 V2000
  144.4450  135.5340  150.2679 C   0  0  0  0  0  0  0  0  0  0  0  0
  144.8860  134.9394  151.9528 S   0  0  0  0  0  0  0  0  0  0  0  0
  143.6611  134.8149  152.7574 O   0  0  0  0  0  0  0  0  0  0  0  0
  145.7840  133.7848  151.7978 O   0  0  0  0  0  0  0  0  0  0  0  0
  145.8154  136.2492  152.6038 N   0  0  0  0  0  0  0  0  0  0  0  0
  147.0273  135.9087  153.3765 C   0  0  0  0  0  0  0  0  0  0  0  0
  147.5453  137.1244  154.1634 C   0  0  0  0  0  0  0  0  0  0  0  0
  147.7539  138.2614  153.2766 N   0  0  0  0  0  0  0  0  0  0  0  0
  148.3883  139.3396  153.9100 C   0  0  0  0  0  0  0  0  0  0  0  0
  149.7073  139.1772  154.3810 C   0  0  0  0  0  0  0  0  0  0  0  0
  150.3394  140.2603  155.0219 C   0  0  0  0  0  0  0  0  0  0  0  0
  149.6308  141.4771  155.1667 C   0  0  0  0  0  0  0  0  0  0  0  0
  150.1440  142.6342  155.8129 N   0  0  0  0  0  0  0  0  0  0  0  0
  151.2266  142.7465  156.6018 C   0  0  0  0  0  0  0  0  0  0  0  0
  152.0053  141.8336  156.8759 O   0  0  0  0  0  0  0  0  0  0  0  0
  151.3688  144.0022  157.0472 N   0  0  0  0  0  0  0  0  0  0  0  0
  152.4175  144.4671  157.8966 C   0  0  0  0  0  0  0  0  0  0  0  0
  152.5848  143.7911  159.2404 C   0  0  0  0  0  0  0  0  0  0  0  0
  152.0247  145.1846  159.1701 C   0  0  0  0  0  0  0  0  0  0  0  0
  148.3115  141.5304  154.6722 C   0  0  0  0  0  0  0  0  0  0  0  0
  147.7007  140.4969  154.0561 N   0  0  0  0  0  0  0  0  0  0  0  0
  146.5262  138.6334  152.5852 C   0  0  0  0  0  0  0  0  0  0  0  0
  145.9822  137.4519  151.7629 C   0  0  0  0  0  0  0  0  0  0  0  0
  143.9221  134.7416  149.7332 H   0  0  0  0  0  0  0  0  0  0  0  0
  145.3528  135.7960  149.7250 H   0  0  0  0  0  0  0  0  0  0  0  0
  143.7946  136.4047  150.3359 H   0  0  0  0  0  0  0  0  0  0  0  0
  146.8119  135.0944  154.0666 H   0  0  0  0  0  0  0  0  0  0  0  0
  147.7955  135.5488  152.6907 H   0  0  0  0  0  0  0  0  0  0  0  0
  146.8297  137.3921  154.9426 H   0  0  0  0  0  0  0  0  0  0  0  0
  148.4809  136.8705  154.6630 H   0  0  0  0  0  0  0  0  0  0  0  0
  150.2268  138.2379  154.2589 H   0  0  0  0  0  0  0  0  0  0  0  0
  151.3414  140.1287  155.3989 H   0  0  0  0  0  0  0  0  0  0  0  0
  149.6508  143.4923  155.6142 H   0  0  0  0  0  0  0  0  0  0  0  0
  150.6810  144.6848  156.7641 H   0  0  0  0  0  0  0  0  0  0  0  0
  153.3334  144.8114  157.4183 H   0  0  0  0  0  0  0  0  0  0  0  0
  151.8977  142.9864  159.4955 H   0  0  0  0  0  0  0  0  0  0  0  0
  153.5977  143.6758  159.6211 H   0  0  0  0  0  0  0  0  0  0  0  0
  152.6633  145.9998  159.5038 H   0  0  0  0  0  0  0  0  0  0  0  0
  150.9639  145.3093  159.3794 H   0  0  0  0  0  0  0  0  0  0  0  0
  147.7253  142.4325  154.7711 H   0  0  0  0  0  0  0  0  0  0  0  0
  145.7757  138.9515  153.3105 H   0  0  0  0  0  0  0  0  0  0  0  0
  146.7169  139.4843  151.9300 H   0  0  0  0  0  0  0  0  0  0  0  0
  146.6567  137.2175  150.9383 H   0  0  0  0  0  0  0  0  0  0  0  0
  145.0258  137.7331  151.3232 H   0  0  0  0  0  0  0  0  0  0  0  0
  1  2  1  0  0  0  0
  1 24  1  0  0  0  0
  1 25  1  0  0  0  0
  1 26  1  0  0  0  0
  2  3  2  0  0  0  0
  2  4  2  0  0  0  0
  2  5  1  0  0  0  0
  5 23  1  0  0  0  0
  5  6  1  0  0  0  0
  6  7  1  0  0  0  0
  6 27  1  0  0  0  0
  6 28  1  0  0  0  0
  7  8  1  0  0  0  0
  7 29  1  0  0  0  0
  7 30  1  0  0  0  0
  8  9  1  0  0  0  0
  8 22  1  0  0  0  0
  9 21  1  0  0  0  0
  9 10  2  0  0  0  0
 10 11  1  0  0  0  0
 10 31  1  0  0  0  0
 11 12  2  0  0  0  0
 11 32  1  0  0  0  0
 12 13  1  0  0  0  0
 12 20  1  0  0  0  0
 13 14  1  0  0  0  0
 13 33  1  0  0  0  0
 14 15  2  0  0  0  0
 14 16  1  0  0  0  0
 16 17  1  0  0  0  0
 16 34  1  0  0  0  0
 17 19  1  0  0  0  0
 17 18  1  0  0  0  0
 17 35  1  0  0  0  0
 18 19  1  0  0  0  0
 18 36  1  0  0  0  0
 18 37  1  0  0  0  0
 19 38  1  0  0  0  0
 19 39  1  0  0  0  0
 20 21  2  0  0  0  0
 20 40  1  0  0  0  0
 22 23  1  0  0  0  0
 22 41  1  0  0  0  0
 22 42  1  0  0  0  0
 23 43  1  0  0  0  0
 23 44  1  0  0  0  0
M  END
> <s_m_source_file>
AV-unprocessed.smi

> <i_m_source_file_index>
998

> <i_lp_mmshare_version>
43012

> <i_f3d_flags>
0

> <s_epik_input>
W0NIM11TKD1PKSg9TylOMVtDSDJdW0NIMl1OKFtDSDJdW0NIMl0xKWMyW2NIXVtjSF1jKFtjSF1uMilbTkhdQyg9TylbTkhdW0NIXTNbQ0gyXVtDSDJdMw==

> <s_epik_cmdline>
J2VwaWtfcHl0aG9uJywgJy1waCcsICc3LjAnLCAnLXRuJywgJzgnLCAnLW1hJywgJzIwMCcsICctbWV0YWxfYmluZGluZycsICctaW1hZScsICc8aW5maWxlLm1hZT4nLCAnLW9tYWUnLCAnPG91dGZpbGUubWFlPic=

> <r_lp_tautomer_probability>
1

> <r_epik_Ionization_Penalty>
0.0538093

> <r_epik_Ionization_Penalty_Charging>
0

> <r_epik_Ionization_Penalty_Neutral>
0.0538093

> <r_epik_State_Penalty>
0.0462087

> <r_epik_Charging_Adjusted_Penalty>
0.0462087

> <i_epik_Tot_Q>
0

> <i_epik_Tot_abs_Q>
0

> <r_epik_Metal_State_Penalty>
0.0423268

> <b_epik_Metal_Only>
0

> <s_lp_Force_Field>
OPLS_2005

> <r_lp_Energy>
34.3098

> <b_lp_Chiralities_Consistent>
1

> <s_lp_Variant>
AV-unprocessed.smi:998-1

> <Gold.Version>
5.8.1

> <Gold.Id.Protein>
6NUR|6NUR_protein|mol2

> <Gold.PLP.Fitness>
43.8038

> <Gold.PLP.PLP>
-37.6785

> <Gold.PLP.part.hbond>
-1.7957

> <Gold.PLP.part.metal>
0.0000

> <Gold.PLP.part.buried>
-1.2661

> <Gold.PLP.part.nonpolar>
-36.6715

> <Gold.PLP.part.repulsive>
2.2168

> <Gold.PLP.ligand.clash>
0.0000

> <Gold.PLP.ligand.torsion>
0.6523

> <Gold.PLP.Chemscore.Hbond>
1.6354

> <Gold.PLP.Chemscore.CHOScore>
0.5862

> <Gold.PLP.Chemscore.Metal>
0.0000

> <Gold.Chemscore.Hbonds>
donor molecule, donor type, donor heavy atom, donor atom, acceptor molecule, acceptor atom, score
      L1  H    13    33       P1  8028  0.78
      L1  H    16    34       P1  8028  0.71
      L1  C    20    40       P1  8028  0.51

> <Gold.PLP.Chemscore.Internal.Correction>
0.7650

> <Gold.Rescore>
     Score         DG    S(hbond)    S(metal)    S(lipo)     H(rot)  DE(clash)    DE(int)     intcor
     15.31     -17.04       1.84        0.00      80.08       1.55       0.08       1.65       ----

> <Gold.Chemscore.Fitness>
15.3080

> <Gold.Chemscore.DG>
-17.0387

> <Gold.Chemscore.ZeroCoef>
-5.4800

> <Gold.Chemscore.Hbond>
1.8426

> <Gold.Chemscore.Metal>
0.0000

> <Gold.Chemscore.Lipo>
80.0760

> <Gold.Chemscore.Internal_Hbond>
0.0000

> <Gold.Chemscore.DEClash>
0.0805

> <Gold.Chemscore.DEInternal>
1.6502

> <Gold.Chemscore.Rot>
1.5486

> <Gold.Chemscore.Internal.Correction>
   9.000000E+99

> <Gold.Chemscore.Hbonds>
donor molecule, donor type, donor heavy atom, donor atom, acceptor molecule, acceptor atom, score
      L1  H    13    33       P1  8028  0.77
      L1  H    16    34       P1  8028  0.61

> <Gold.Chemscore.Hbond.Weighted>
-6.1542

> <Gold.Chemscore.Metal.Weighted>
-0.0000

> <Gold.Chemscore.Lipo.Weighted>
-9.3689

> <Gold.Chemscore.Internal_Hbond.Weighted>
0.0000

> <Gold.Chemscore.DEClash.Weighted>
0.0805

> <Gold.Chemscore.DEInternal.Weighted>
1.6502

> <Gold.Chemscore.Rot.Weighted>
3.9645

> <Gold.Chemscore.Internal.Correction.Weighted>
   9.000000E+99

> <Gold.Protein.RotatedTorsions>
[ 6907 6896 6895 6894 ] final  -55.91 input  -60.11 | X-H torsion
[ 7974 7965 7964 7962 ] final  134.03 input  175.53 | X-H torsion
[ 8008 7997 7996 7995 ] final  155.56 input   59.86 | X-H torsion
[ 10167 10162 10161 10158 ] final   -4.49 input  -65.29 | X-H torsion
[ 10718 10713 10712 10709 ] final   90.90 input   66.30 | X-H torsion
[ 10763 10752 10751 10750 ] final -175.13 input  -60.55 | X-H torsion
[ 11005 11000 10999 10996 ] final  119.01 input  -57.11 | X-H torsion

> <Gold.Protein.ActiveResidues>
 VAL166  LYS551  ARG553  GLY616  TRP617  ASP618  TYR619  PRO620  LYS621  CYS622 
 ASP623  PHE694  ASN695  SER759  ASP760  ASP761  ALA762  ILE779  LEU786  VAL792 
 PHE793  MET794  SER795  GLU796  ALA797  LYS798  CYS799  TRP800  GLU811  SER814 

> <Gold.Protein.RotatedAtoms>
  150.8211  134.7419  159.6772 H   0  0  0  0  0  0  0  0  0  0  0  0  # atno 6907 bound_to 6896
  152.4327  134.5744  159.9940 H   0  0  0  0  0  0  0  0  0  0  0  0  # atno 6908 bound_to 6896
  151.5928  133.3327  159.3067 H   0  0  0  0  0  0  0  0  0  0  0  0  # atno 6909 bound_to 6896
  144.9804  139.4510  143.5389 H   0  0  0  0  0  0  0  0  0  0  0  0  # atno 7974 bound_to 7965
  156.2471  140.1936  156.6820 H   0  0  0  0  0  0  0  0  0  0  0  0  # atno 8008 bound_to 7997
  154.6315  140.0595  156.9763 H   0  0  0  0  0  0  0  0  0  0  0  0  # atno 8009 bound_to 7997
  155.1704  140.3267  155.4396 H   0  0  0  0  0  0  0  0  0  0  0  0  # atno 8010 bound_to 7997
  140.6929  143.6417  150.8429 H   0  0  0  0  0  0  0  0  0  0  0  0  # atno 10167 bound_to 10162
  157.6960  131.0387  150.3647 H   0  0  0  0  0  0  0  0  0  0  0  0  # atno 10718 bound_to 10713
  154.5880  135.2842  155.0665 H   0  0  0  0  0  0  0  0  0  0  0  0  # atno 10763 bound_to 10752
  154.1976  135.6430  153.5081 H   0  0  0  0  0  0  0  0  0  0  0  0  # atno 10764 bound_to 10752
  153.0111  135.5461  154.6556 H   0  0  0  0  0  0  0  0  0  0  0  0  # atno 10765 bound_to 10752
  139.9130  134.9625  156.7590 H   0  0  0  0  0  0  0  0  0  0  0  0  # atno 11005 bound_to 11000
  146.3406  139.9074  142.8785 LP  0  0  0  0  0  0  0  0  0  0  0  0  # atno 17320 bound_to 7965
  145.2428  141.0016  143.3926 LP  0  0  0  0  0  0  0  0  0  0  0  0  # atno 17321 bound_to 7965
  140.0132  143.5620  152.2830 LP  0  0  0  0  0  0  0  0  0  0  0  0  # atno 17342 bound_to 10162
  139.6352  144.7649  151.2453 LP  0  0  0  0  0  0  0  0  0  0  0  0  # atno 17343 bound_to 10162
  156.4079  130.3928  149.6912 LP  0  0  0  0  0  0  0  0  0  0  0  0  # atno 17370 bound_to 10713
  156.4206  130.7767  151.2784 LP  0  0  0  0  0  0  0  0  0  0  0  0  # atno 17371 bound_to 10713
  140.6712  133.9557  155.7858 LP  0  0  0  0  0  0  0  0  0  0  0  0  # atno 17394 bound_to 11000
  141.0576  134.0394  157.3702 LP  0  0  0  0  0  0  0  0  0  0  0  0  # atno 17395 bound_to 11000

$$$$
