AV-unprocessed.smi:311|AV-procd|sdf|2301|dock8
  -GOLD-   2262022203D 1   1.00000     0.00000
 Structure written by MMmdl.
 44 46  0  0  0  0  0  0  0  0  2 V2000
  152.1311  138.0221  154.2367 C   0  0  0  0  0  0  0  0  0  0  0  0
  151.7293  139.1565  155.1353 C   0  0  0  0  0  0  0  0  0  0  0  0
  152.6289  139.7082  155.9320 N   0  0  0  0  0  0  0  0  0  0  0  0
  151.9540  140.7099  156.6364 O   0  0  0  0  0  0  0  0  0  0  0  0
  150.6581  140.7201  156.2326 C   0  0  0  0  0  0  0  0  0  0  0  0
  149.7610  141.7216  156.8777 C   0  0  0  0  0  0  0  0  0  0  0  0
  150.4474  139.7612  155.2802 C   0  0  0  0  0  0  0  0  0  0  0  0
  149.1690  139.4179  154.5597 C   0  0  0  0  0  0  0  0  0  0  0  0
  148.6621  138.0524  155.0262 C   0  0  0  0  0  0  0  0  0  0  0  0
  149.1109  137.5450  156.0540 O   0  0  0  0  0  0  0  0  0  0  0  0
  147.7279  137.4651  154.2617 N   0  0  0  0  0  0  0  0  0  0  0  0
  147.1589  136.1393  154.4966 C   0  0  2  0  0  0  0  0  0  0  0  0
  148.2291  135.0428  154.6525 C   0  0  0  0  0  0  0  0  0  0  0  0
  147.6401  133.8256  153.9318 C   0  0  0  0  0  0  0  0  0  0  0  0
  146.8837  134.4332  152.8309 N   0  3  1  0  0  0  0  0  0  0  0  0
  145.9686  133.5820  152.0441 C   0  0  0  0  0  0  0  0  0  0  0  0
  145.4566  134.4032  150.8411 C   0  0  0  0  0  0  0  0  0  0  0  0
  144.8587  135.7626  151.2707 C   0  0  0  0  0  0  0  0  0  0  0  0
  145.8126  136.5439  152.2008 C   0  0  0  0  0  0  0  0  0  0  0  0
  146.2225  135.6333  153.3723 C   0  0  2  0  0  0  0  0  0  0  0  0
  151.6597  138.1114  153.2580 H   0  0  0  0  0  0  0  0  0  0  0  0
  151.8318  137.0646  154.6633 H   0  0  0  0  0  0  0  0  0  0  0  0
  153.2099  137.9941  154.0808 H   0  0  0  0  0  0  0  0  0  0  0  0
  148.8552  141.2430  157.2499 H   0  0  0  0  0  0  0  0  0  0  0  0
  149.4680  142.4918  156.1644 H   0  0  0  0  0  0  0  0  0  0  0  0
  150.2542  142.2091  157.7189 H   0  0  0  0  0  0  0  0  0  0  0  0
  148.3912  140.1568  154.7550 H   0  0  0  0  0  0  0  0  0  0  0  0
  149.3160  139.4136  153.4788 H   0  0  0  0  0  0  0  0  0  0  0  0
  147.4143  137.9589  153.4384 H   0  0  0  0  0  0  0  0  0  0  0  0
  146.5854  136.1708  155.4254 H   0  0  0  0  0  0  0  0  0  0  0  0
  149.1532  135.3421  154.1547 H   0  0  0  0  0  0  0  0  0  0  0  0
  148.4695  134.8344  155.6955 H   0  0  0  0  0  0  0  0  0  0  0  0
  148.4051  133.1368  153.5718 H   0  0  0  0  0  0  0  0  0  0  0  0
  146.9614  133.2799  154.5894 H   0  0  0  0  0  0  0  0  0  0  0  0
  146.4972  132.6939  151.6957 H   0  0  0  0  0  0  0  0  0  0  0  0
  145.1393  133.2434  152.6669 H   0  0  0  0  0  0  0  0  0  0  0  0
  146.2851  134.5820  150.1544 H   0  0  0  0  0  0  0  0  0  0  0  0
  144.7167  133.8286  150.2831 H   0  0  0  0  0  0  0  0  0  0  0  0
  144.6188  136.3610  150.3914 H   0  0  0  0  0  0  0  0  0  0  0  0
  143.9152  135.5889  151.7898 H   0  0  0  0  0  0  0  0  0  0  0  0
  146.6931  136.8717  151.6464 H   0  0  0  0  0  0  0  0  0  0  0  0
  145.3124  137.4410  152.5660 H   0  0  0  0  0  0  0  0  0  0  0  0
  145.3072  135.3049  153.8699 H   0  0  0  0  0  0  0  0  0  0  0  0
  147.5825  134.7710  152.1846 H   0  0  0  0  0  0  0  0  0  0  0  0
  1  2  1  0  0  0  0
  1 21  1  0  0  0  0
  1 22  1  0  0  0  0
  1 23  1  0  0  0  0
  2  7  1  0  0  0  0
  2  3  2  0  0  0  0
  3  4  1  0  0  0  0
  4  5  1  0  0  0  0
  5  6  1  0  0  0  0
  5  7  2  0  0  0  0
  6 24  1  0  0  0  0
  6 25  1  0  0  0  0
  6 26  1  0  0  0  0
  7  8  1  0  0  0  0
  8  9  1  0  0  0  0
  8 27  1  0  0  0  0
  8 28  1  0  0  0  0
  9 10  2  0  0  0  0
  9 11  1  0  0  0  0
 11 12  1  0  0  0  0
 11 29  1  0  0  0  0
 12 20  1  0  0  0  0
 12 13  1  0  0  0  0
 12 30  1  0  0  0  0
 13 14  1  0  0  0  0
 13 31  1  0  0  0  0
 13 32  1  0  0  0  0
 14 15  1  0  0  0  0
 14 33  1  0  0  0  0
 14 34  1  0  0  0  0
 15 20  1  0  0  0  0
 15 16  1  0  0  0  0
 15 44  1  0  0  0  0
 16 17  1  0  0  0  0
 16 35  1  0  0  0  0
 16 36  1  0  0  0  0
 17 18  1  0  0  0  0
 17 37  1  0  0  0  0
 17 38  1  0  0  0  0
 18 19  1  0  0  0  0
 18 39  1  0  0  0  0
 18 40  1  0  0  0  0
 19 20  1  0  0  0  0
 19 41  1  0  0  0  0
 19 42  1  0  0  0  0
 20 43  1  0  0  0  0
M  CHG  1  15   1
M  END
> <s_m_source_file>
AV-unprocessed.smi

> <i_m_source_file_index>
311

> <i_lp_mmshare_version>
43012

> <i_f3d_flags>
0

> <s_epik_input>
W0NIM11jMW5vYyhbQ0gzXSljMVtDSDJdQyg9TylbTkhdW0NASF0oW0NIMl1bQ0gyXTIpW0NAQEhdKE4yMylbQ0gyXVtDSDJdW0NIMl1bQ0gyXTM=

> <s_epik_cmdline>
J2VwaWtfcHl0aG9uJywgJy1waCcsICc3LjAnLCAnLXRuJywgJzgnLCAnLW1hJywgJzIwMCcsICctbWV0YWxfYmluZGluZycsICctaW1hZScsICc8aW5maWxlLm1hZT4nLCAnLW9tYWUnLCAnPG91dGZpbGUubWFlPic=

> <r_epik_Ionization_Penalty>
0.00173669

> <r_epik_Ionization_Penalty_Charging>
0.0017366

> <r_epik_Ionization_Penalty_Neutral>
9.2145e-08

> <r_epik_State_Penalty>
0.00117499

> <r_epik_Charging_Adjusted_Penalty>
0.00291159

> <i_epik_Tot_Q>
1

> <i_epik_Tot_abs_Q>
1

> <r_epik_Metal_State_Penalty>
-0

> <b_epik_Metal_Only>
0

> <s_lp_Force_Field>
OPLS_2005

> <r_lp_Energy>
35.7975

> <b_lp_Chiralities_Consistent>
1

> <s_lp_Variant>
AV-unprocessed.smi:311-5

> <Gold.Version>
5.8.1

> <Gold.Id.Protein>
6NUR|6NUR_protein|mol2

> <Gold.PLP.Fitness>
35.6603

> <Gold.PLP.PLP>
-27.6656

> <Gold.PLP.part.hbond>
-3.0000

> <Gold.PLP.part.metal>
0.0000

> <Gold.PLP.part.buried>
-0.2460

> <Gold.PLP.part.nonpolar>
-23.9984

> <Gold.PLP.part.repulsive>
0.0281

> <Gold.PLP.ligand.clash>
0.0000

> <Gold.PLP.ligand.torsion>
0.3350

> <Gold.PLP.Chemscore.Hbond>
2.8880

> <Gold.PLP.Chemscore.CHOScore>
0.0000

> <Gold.PLP.Chemscore.Metal>
0.0000

> <Gold.Chemscore.Hbonds>
donor molecule, donor type, donor heavy atom, donor atom, acceptor molecule, acceptor atom, score
      L1  H    15    44       P1  7948  1.82
      P1  H  7997  8010       L1     3  1.00

> <Gold.PLP.Chemscore.Internal.Correction>
0.0006

> <Gold.Rescore>
     Score         DG    S(hbond)    S(metal)    S(lipo)     H(rot)  DE(clash)    DE(int)     intcor
     15.55     -16.38       1.94        0.00      67.58       1.36       0.07       0.76       ----

> <Gold.Chemscore.Fitness>
15.5468

> <Gold.Chemscore.DG>
-16.3791

> <Gold.Chemscore.ZeroCoef>
-5.4800

> <Gold.Chemscore.Hbond>
1.9358

> <Gold.Chemscore.Metal>
0.0000

> <Gold.Chemscore.Lipo>
67.5781

> <Gold.Chemscore.Internal_Hbond>
0.0000

> <Gold.Chemscore.DEClash>
0.0678

> <Gold.Chemscore.DEInternal>
0.7645

> <Gold.Chemscore.Rot>
1.3567

> <Gold.Chemscore.Internal.Correction>
   9.000000E+99

> <Gold.Chemscore.Hbonds>
donor molecule, donor type, donor heavy atom, donor atom, acceptor molecule, acceptor atom, score
      L1  H    15    44       P1  7948  0.72
      P1  H  7997  8010       L1     3  0.30

> <Gold.Chemscore.Hbond.Weighted>
-6.4655

> <Gold.Chemscore.Metal.Weighted>
-0.0000

> <Gold.Chemscore.Lipo.Weighted>
-7.9066

> <Gold.Chemscore.Internal_Hbond.Weighted>
0.0000

> <Gold.Chemscore.DEClash.Weighted>
0.0678

> <Gold.Chemscore.DEInternal.Weighted>
0.7645

> <Gold.Chemscore.Rot.Weighted>
3.4731

> <Gold.Chemscore.Internal.Correction.Weighted>
   9.000000E+99

> <Gold.Protein.RotatedTorsions>
[ 6907 6896 6895 6894 ] final  -48.21 input  -60.11 | X-H torsion
[ 7974 7965 7964 7962 ] final   89.92 input  175.53 | X-H torsion
[ 8008 7997 7996 7995 ] final   80.69 input   59.86 | X-H torsion
[ 10167 10162 10161 10158 ] final  160.65 input  -65.29 | X-H torsion
[ 10718 10713 10712 10709 ] final  114.52 input   66.30 | X-H torsion
[ 10763 10752 10751 10750 ] final -121.11 input  -60.55 | X-H torsion
[ 11005 11000 10999 10996 ] final  109.93 input  -57.11 | X-H torsion

> <Gold.Protein.ActiveResidues>
 VAL166  LYS551  ARG553  GLY616  TRP617  ASP618  TYR619  PRO620  LYS621  CYS622 
 ASP623  PHE694  ASN695  SER759  ASP760  ASP761  ALA762  ILE779  LEU786  VAL792 
 PHE793  MET794  SER795  GLU796  ALA797  LYS798  CYS799  TRP800  GLU811  SER814 

> <Gold.Protein.RotatedAtoms>
  150.8929  134.8334  159.7305 H   0  0  0  0  0  0  0  0  0  0  0  0  # atno 6907 bound_to 6896
  152.4847  134.4621  159.9618 H   0  0  0  0  0  0  0  0  0  0  0  0  # atno 6908 bound_to 6896
  151.4681  133.3537  159.2854 H   0  0  0  0  0  0  0  0  0  0  0  0  # atno 6909 bound_to 6896
  145.5259  139.2281  143.2646 H   0  0  0  0  0  0  0  0  0  0  0  0  # atno 7974 bound_to 7965
  155.8870  140.3441  155.5928 H   0  0  0  0  0  0  0  0  0  0  0  0  # atno 8008 bound_to 7997
  155.7655  140.0838  157.2153 H   0  0  0  0  0  0  0  0  0  0  0  0  # atno 8009 bound_to 7997
  154.4029  140.1528  156.2869 H   0  0  0  0  0  0  0  0  0  0  0  0  # atno 8010 bound_to 7997
  139.4842  144.4614  151.8700 H   0  0  0  0  0  0  0  0  0  0  0  0  # atno 10167 bound_to 10162
  157.6276  131.1000  150.7198 H   0  0  0  0  0  0  0  0  0  0  0  0  # atno 10718 bound_to 10713
  154.8660  135.4179  154.2567 H   0  0  0  0  0  0  0  0  0  0  0  0  # atno 10763 bound_to 10752
  153.3503  135.6998  153.6800 H   0  0  0  0  0  0  0  0  0  0  0  0  # atno 10764 bound_to 10752
  153.5742  135.3585  155.2822 H   0  0  0  0  0  0  0  0  0  0  0  0  # atno 10765 bound_to 10752
  139.8872  134.9471  156.6201 H   0  0  0  0  0  0  0  0  0  0  0  0  # atno 11005 bound_to 11000
  146.2076  140.6073  142.9074 LP  0  0  0  0  0  0  0  0  0  0  0  0  # atno 17320 bound_to 7965
  144.7651  140.5512  143.6708 LP  0  0  0  0  0  0  0  0  0  0  0  0  # atno 17321 bound_to 7965
  140.4076  144.2411  150.5890 LP  0  0  0  0  0  0  0  0  0  0  0  0  # atno 17342 bound_to 10162
  140.4997  143.2321  151.8697 LP  0  0  0  0  0  0  0  0  0  0  0  0  # atno 17343 bound_to 10162
  156.7543  130.4778  149.5450 LP  0  0  0  0  0  0  0  0  0  0  0  0  # atno 17370 bound_to 10713
  156.1458  130.6276  151.0530 LP  0  0  0  0  0  0  0  0  0  0  0  0  # atno 17371 bound_to 10713
  140.7745  133.8711  155.8518 LP  0  0  0  0  0  0  0  0  0  0  0  0  # atno 17394 bound_to 11000
  140.9813  134.1401  157.4491 LP  0  0  0  0  0  0  0  0  0  0  0  0  # atno 17395 bound_to 11000

$$$$
