AV-unprocessed.smi:653|AV-procd|sdf|3209|dock3
  -GOLD-   22720 0143D 1   1.00000     0.00000
 Structure written by MMmdl.
 45 46  0  0  0  0  0  0  0  0  2 V2000
  146.1884  137.8397  152.5544 C   0  0  0  0  0  0  0  0  0  0  0  0
  146.9983  138.9920  153.1104 C   0  0  0  0  0  0  0  0  0  0  0  0
  146.4144  140.2380  153.4237 C   0  0  0  0  0  0  0  0  0  0  0  0
  147.2259  141.2682  153.9425 C   0  0  0  0  0  0  0  0  0  0  0  0
  148.6046  141.0322  154.1393 C   0  0  0  0  0  0  0  0  0  0  0  0
  149.5047  142.1213  154.6945 C   0  0  0  0  0  0  0  0  0  0  0  0
  150.1839  141.6462  155.9797 C   0  0  0  0  0  0  0  0  0  0  0  0
  150.4833  140.4595  156.1116 O   0  0  0  0  0  0  0  0  0  0  0  0
  150.4206  142.5807  156.9135 N   0  0  0  0  0  0  0  0  0  0  0  0
  151.0679  142.3508  158.2018 C   0  0  0  0  0  0  0  0  0  0  0  0
  152.2648  143.3068  158.4311 C   0  0  1  0  0  0  0  0  0  0  0  0
  151.9678  144.7441  158.0263 C   0  0  0  0  0  0  0  0  0  0  0  0
  151.2783  145.3197  159.2644 C   0  0  0  0  0  0  0  0  0  0  0  0
  151.6357  144.4625  160.3456 O   0  0  0  0  0  0  0  0  0  0  0  0
  152.6221  143.5336  159.9112 C   0  0  1  0  0  0  0  0  0  0  0  0
  152.6799  142.2937  160.8328 C   0  0  0  0  0  0  0  0  0  0  0  0
  152.9304  142.7043  162.2928 C   0  0  0  0  0  0  0  0  0  0  0  0
  153.7589  141.2952  160.3793 C   0  0  0  0  0  0  0  0  0  0  0  0
  149.1325  139.7649  153.8092 C   0  0  0  0  0  0  0  0  0  0  0  0
  148.3218  138.8046  153.3138 N   0  3  0  0  0  0  0  0  0  0  0  0
  145.3004  138.2039  152.0370 H   0  0  0  0  0  0  0  0  0  0  0  0
  145.8682  137.1807  153.3619 H   0  0  0  0  0  0  0  0  0  0  0  0
  146.7771  137.2561  151.8458 H   0  0  0  0  0  0  0  0  0  0  0  0
  145.3580  140.4043  153.2693 H   0  0  0  0  0  0  0  0  0  0  0  0
  146.7937  142.2285  154.1844 H   0  0  0  0  0  0  0  0  0  0  0  0
  150.2472  142.4060  153.9472 H   0  0  0  0  0  0  0  0  0  0  0  0
  148.9163  143.0143  154.9089 H   0  0  0  0  0  0  0  0  0  0  0  0
  150.1337  143.5286  156.7164 H   0  0  0  0  0  0  0  0  0  0  0  0
  150.3537  142.4195  159.0243 H   0  0  0  0  0  0  0  0  0  0  0  0
  151.4102  141.3169  158.1898 H   0  0  0  0  0  0  0  0  0  0  0  0
  153.1292  142.9280  157.8842 H   0  0  0  0  0  0  0  0  0  0  0  0
  152.9067  145.2729  157.8553 H   0  0  0  0  0  0  0  0  0  0  0  0
  151.3718  144.8486  157.1207 H   0  0  0  0  0  0  0  0  0  0  0  0
  151.5899  146.3463  159.4587 H   0  0  0  0  0  0  0  0  0  0  0  0
  150.1938  145.3096  159.1511 H   0  0  0  0  0  0  0  0  0  0  0  0
  153.5865  144.0439  159.9573 H   0  0  0  0  0  0  0  0  0  0  0  0
  151.7143  141.7885  160.8056 H   0  0  0  0  0  0  0  0  0  0  0  0
  153.8793  143.2309  162.3999 H   0  0  0  0  0  0  0  0  0  0  0  0
  152.9587  141.8325  162.9473 H   0  0  0  0  0  0  0  0  0  0  0  0
  152.1423  143.3611  162.6617 H   0  0  0  0  0  0  0  0  0  0  0  0
  154.7499  141.7496  160.3984 H   0  0  0  0  0  0  0  0  0  0  0  0
  153.5798  140.9367  159.3661 H   0  0  0  0  0  0  0  0  0  0  0  0
  153.7825  140.4215  161.0313 H   0  0  0  0  0  0  0  0  0  0  0  0
  150.1721  139.4938  153.9225 H   0  0  0  0  0  0  0  0  0  0  0  0
  148.7271  137.8974  153.0821 H   0  0  0  0  0  0  0  0  0  0  0  0
  1  2  1  0  0  0  0
  1 21  1  0  0  0  0
  1 22  1  0  0  0  0
  1 23  1  0  0  0  0
  2 20  1  0  0  0  0
  2  3  2  0  0  0  0
  3  4  1  0  0  0  0
  3 24  1  0  0  0  0
  4  5  2  0  0  0  0
  4 25  1  0  0  0  0
  5  6  1  0  0  0  0
  5 19  1  0  0  0  0
  6  7  1  0  0  0  0
  6 26  1  0  0  0  0
  6 27  1  0  0  0  0
  7  8  2  0  0  0  0
  7  9  1  0  0  0  0
  9 10  1  0  0  0  0
  9 28  1  0  0  0  0
 10 11  1  0  0  0  0
 10 29  1  0  0  0  0
 10 30  1  0  0  0  0
 11 15  1  0  0  0  0
 11 12  1  0  0  0  0
 11 31  1  0  0  0  0
 12 13  1  0  0  0  0
 12 32  1  0  0  0  0
 12 33  1  0  0  0  0
 13 14  1  0  0  0  0
 13 34  1  0  0  0  0
 13 35  1  0  0  0  0
 14 15  1  0  0  0  0
 15 16  1  0  0  0  0
 15 36  1  0  0  0  0
 16 17  1  0  0  0  0
 16 18  1  0  0  0  0
 16 37  1  0  0  0  0
 17 38  1  0  0  0  0
 17 39  1  0  0  0  0
 17 40  1  0  0  0  0
 18 41  1  0  0  0  0
 18 42  1  0  0  0  0
 18 43  1  0  0  0  0
 19 20  2  0  0  0  0
 19 44  1  0  0  0  0
 20 45  1  0  0  0  0
M  CHG  1  20   1
M  END
> <s_m_source_file>
AV-unprocessed.smi

> <i_m_source_file_index>
653

> <i_lp_mmshare_version>
43012

> <i_f3d_flags>
0

> <s_epik_input>
W0NIM11jMVtjSF1bY0hdYyhbY0hdbjEpW0NIMl1DKD1PKVtOSF1bQ0gyXVtDQEBIXTJbQ0gyXVtDSDJdT1tDQEhdMltDSF0oW0NIM10pW0NIM10=

> <s_epik_cmdline>
J2VwaWtfcHl0aG9uJywgJy1waCcsICc3LjAnLCAnLXRuJywgJzgnLCAnLW1hJywgJzIwMCcsICctbWV0YWxfYmluZGluZycsICctaW1hZScsICc8aW5maWxlLm1hZT4nLCAnLW9tYWUnLCAnPG91dGZpbGUubWFlPic=

> <r_epik_Ionization_Penalty>
2.12486

> <r_epik_Ionization_Penalty_Charging>
2.12486

> <r_epik_Ionization_Penalty_Neutral>
9.0873e-08

> <r_epik_State_Penalty>
2.26279

> <r_epik_Charging_Adjusted_Penalty>
4.38765

> <i_epik_Tot_Q>
1

> <i_epik_Tot_abs_Q>
1

> <r_epik_Metal_State_Penalty>
2.27914

> <b_epik_Metal_Only>
0

> <s_lp_Force_Field>
OPLS_2005

> <r_lp_Energy>
28.2902

> <b_lp_Chiralities_Consistent>
1

> <s_lp_Variant>
AV-unprocessed.smi:653-6

> <Gold.Version>
5.8.1

> <Gold.Id.Protein>
6NUR|6NUR_protein|mol2

> <Gold.PLP.Fitness>
53.3116

> <Gold.PLP.PLP>
-45.6484

> <Gold.PLP.part.hbond>
-3.0000

> <Gold.PLP.part.metal>
0.0000

> <Gold.PLP.part.buried>
4.7493

> <Gold.PLP.part.nonpolar>
-46.0439

> <Gold.PLP.part.repulsive>
0.2008

> <Gold.PLP.ligand.clash>
0.0000

> <Gold.PLP.ligand.torsion>
0.5940

> <Gold.PLP.Chemscore.Hbond>
2.9357

> <Gold.PLP.Chemscore.CHOScore>
0.0000

> <Gold.PLP.Chemscore.Metal>
0.0000

> <Gold.Chemscore.Hbonds>
donor molecule, donor type, donor heavy atom, donor atom, acceptor molecule, acceptor atom, score
      L1  H     9    28       P1  8028  0.94
      L1  H    20    45       P1  7948  1.89

> <Gold.PLP.Chemscore.Internal.Correction>
0.0441

> <Gold.Rescore>
     Score         DG    S(hbond)    S(metal)    S(lipo)     H(rot)  DE(clash)    DE(int)     intcor
     18.96     -24.11       1.94        0.00     138.14       1.57       3.21       1.94       ----

> <Gold.Chemscore.Fitness>
18.9637

> <Gold.Chemscore.DG>
-24.1080

> <Gold.Chemscore.ZeroCoef>
-5.4800

> <Gold.Chemscore.Hbond>
1.9415

> <Gold.Chemscore.Metal>
0.0000

> <Gold.Chemscore.Lipo>
138.1440

> <Gold.Chemscore.Internal_Hbond>
0.0000

> <Gold.Chemscore.DEClash>
3.2063

> <Gold.Chemscore.DEInternal>
1.9380

> <Gold.Chemscore.Rot>
1.5701

> <Gold.Chemscore.Internal.Correction>
   9.000000E+99

> <Gold.Chemscore.Hbonds>
donor molecule, donor type, donor heavy atom, donor atom, acceptor molecule, acceptor atom, score
      L1  H     9    28       P1  8028  0.86
      L1  H    20    45       P1  7948  0.87

> <Gold.Chemscore.Hbond.Weighted>
-6.4847

> <Gold.Chemscore.Metal.Weighted>
-0.0000

> <Gold.Chemscore.Lipo.Weighted>
-16.1628

> <Gold.Chemscore.Internal_Hbond.Weighted>
0.0000

> <Gold.Chemscore.DEClash.Weighted>
3.2063

> <Gold.Chemscore.DEInternal.Weighted>
1.9380

> <Gold.Chemscore.Rot.Weighted>
4.0196

> <Gold.Chemscore.Internal.Correction.Weighted>
   9.000000E+99

> <Gold.Protein.RotatedTorsions>
[ 6907 6896 6895 6894 ] final  -56.58 input  -60.11 | X-H torsion
[ 7974 7965 7964 7962 ] final -163.58 input  175.53 | X-H torsion
[ 8008 7997 7996 7995 ] final -145.60 input   59.86 | X-H torsion
[ 10167 10162 10161 10158 ] final -153.48 input  -65.29 | X-H torsion
[ 10718 10713 10712 10709 ] final  126.68 input   66.30 | X-H torsion
[ 10763 10752 10751 10750 ] final   40.40 input  -60.55 | X-H torsion
[ 11005 11000 10999 10996 ] final  179.73 input  -57.11 | X-H torsion

> <Gold.Protein.ActiveResidues>
 VAL166  LYS551  ARG553  GLY616  TRP617  ASP618  TYR619  PRO620  LYS621  CYS622 
 ASP623  PHE694  ASN695  SER759  ASP760  ASP761  ALA762  ILE779  LEU786  VAL792 
 PHE793  MET794  SER795  GLU796  ALA797  LYS798  CYS799  TRP800  GLU811  SER814 

> <Gold.Protein.RotatedAtoms>
  150.8156  134.7336  159.6726 H   0  0  0  0  0  0  0  0  0  0  0  0  # atno 6907 bound_to 6896
  152.4275  134.5838  159.9965 H   0  0  0  0  0  0  0  0  0  0  0  0  # atno 6908 bound_to 6896
  151.6036  133.3316  159.3088 H   0  0  0  0  0  0  0  0  0  0  0  0  # atno 6909 bound_to 6896
  144.7322  140.3087  143.6192 H   0  0  0  0  0  0  0  0  0  0  0  0  # atno 7974 bound_to 7965
  155.5459  140.0612  157.2860 H   0  0  0  0  0  0  0  0  0  0  0  0  # atno 8008 bound_to 7997
  154.4436  140.1911  156.0682 H   0  0  0  0  0  0  0  0  0  0  0  0  # atno 8009 bound_to 7997
  156.0551  140.3279  155.7400 H   0  0  0  0  0  0  0  0  0  0  0  0  # atno 8010 bound_to 7997
  139.7093  143.9135  152.2461 H   0  0  0  0  0  0  0  0  0  0  0  0  # atno 10167 bound_to 10162
  157.5398  131.1097  150.8877 H   0  0  0  0  0  0  0  0  0  0  0  0  # atno 10718 bound_to 10713
  152.9937  135.6192  154.2620 H   0  0  0  0  0  0  0  0  0  0  0  0  # atno 10763 bound_to 10752
  154.2356  135.2790  155.2875 H   0  0  0  0  0  0  0  0  0  0  0  0  # atno 10764 bound_to 10752
  154.5412  135.5760  153.6899 H   0  0  0  0  0  0  0  0  0  0  0  0  # atno 10765 bound_to 10752
  140.4094  134.6705  157.4606 H   0  0  0  0  0  0  0  0  0  0  0  0  # atno 11005 bound_to 11000
  145.7687  139.1849  143.2225 LP  0  0  0  0  0  0  0  0  0  0  0  0  # atno 17320 bound_to 7965
  146.0928  140.7635  142.9587 LP  0  0  0  0  0  0  0  0  0  0  0  0  # atno 17321 bound_to 7965
  139.8999  144.6917  150.8676 LP  0  0  0  0  0  0  0  0  0  0  0  0  # atno 17342 bound_to 10162
  140.7729  143.3521  151.1993 LP  0  0  0  0  0  0  0  0  0  0  0  0  # atno 17343 bound_to 10162
  156.9433  130.5392  149.5280 LP  0  0  0  0  0  0  0  0  0  0  0  0  # atno 17370 bound_to 10713
  156.0488  130.5560  150.8941 LP  0  0  0  0  0  0  0  0  0  0  0  0  # atno 17371 bound_to 10713
  140.0278  134.6451  155.9148 LP  0  0  0  0  0  0  0  0  0  0  0  0  # atno 17394 bound_to 11000
  141.1827  133.6549  156.5086 LP  0  0  0  0  0  0  0  0  0  0  0  0  # atno 17395 bound_to 11000

$$$$
