AV-unprocessed.smi:3331|AV-procd|sdf|12820|dock10
  -GOLD-   2272019193D 1   1.00000     0.00000
 Structure written by MMmdl.
 47 48  0  0  0  0  0  0  0  0  2 V2000
  150.2217  140.0835  156.9794 C   0  0  0  0  0  0  0  0  0  0  0  0
  150.4639  140.4807  155.5123 C   0  0  2  0  0  0  0  0  0  0  0  0
  149.4594  141.5477  155.0220 C   0  0  0  0  0  0  0  0  0  0  0  0
  148.0646  140.9621  154.7061 C   0  0  1  0  0  0  0  0  0  0  0  0
  147.1369  142.0213  154.0945 C   0  0  0  0  0  0  0  0  0  0  0  0
  148.1980  139.7279  153.7903 C   0  0  0  0  0  0  0  0  0  0  0  0
  149.0842  138.7451  154.4299 N   0  0  0  0  0  0  0  0  0  0  0  0
  148.6330  137.5523  154.8965 C   0  0  0  0  0  0  0  0  0  0  0  0
  149.3729  136.7638  155.4869 O   0  0  0  0  0  0  0  0  0  0  0  0
  147.1514  137.1671  154.7110 C   0  0  1  0  0  0  0  0  0  0  0  0
  146.2025  138.1671  155.4046 C   0  0  0  0  0  0  0  0  0  0  0  0
  146.8441  137.0650  153.2668 N   0  3  0  0  0  0  0  0  0  0  0  0
  145.7389  136.1484  152.9213 C   0  0  0  0  0  0  0  0  0  0  0  0
  145.5139  136.1106  151.4033 C   0  0  0  0  0  0  0  0  0  0  0  0
  145.3838  134.7521  150.9137 N   0  0  0  0  0  0  0  0  0  0  0  0
  144.3159  134.1727  150.2610 C   0  0  0  0  0  0  0  0  0  0  0  0
  144.6575  132.8776  149.9957 C   0  0  0  0  0  0  0  0  0  0  0  0
  145.9718  132.7578  150.5281 C   0  0  0  0  0  0  0  0  0  0  0  0
  146.4044  133.8825  151.0754 N   0  0  0  0  0  0  0  0  0  0  0  0
  150.4533  139.2682  154.5560 C   0  0  0  0  0  0  0  0  0  0  0  0
  149.2425  139.6276  157.1243 H   0  0  0  0  0  0  0  0  0  0  0  0
  150.2790  140.9538  157.6337 H   0  0  0  0  0  0  0  0  0  0  0  0
  150.9727  139.3704  157.3198 H   0  0  0  0  0  0  0  0  0  0  0  0
  151.4590  140.9254  155.4716 H   0  0  0  0  0  0  0  0  0  0  0  0
  149.3760  142.3539  155.7519 H   0  0  0  0  0  0  0  0  0  0  0  0
  149.8591  142.0048  154.1157 H   0  0  0  0  0  0  0  0  0  0  0  0
  147.6107  140.6372  155.6434 H   0  0  0  0  0  0  0  0  0  0  0  0
  147.5307  142.3956  153.1490 H   0  0  0  0  0  0  0  0  0  0  0  0
  147.0170  142.8720  154.7659 H   0  0  0  0  0  0  0  0  0  0  0  0
  146.1449  141.6114  153.9029 H   0  0  0  0  0  0  0  0  0  0  0  0
  147.2090  139.3241  153.5699 H   0  0  0  0  0  0  0  0  0  0  0  0
  148.6166  140.0165  152.8248 H   0  0  0  0  0  0  0  0  0  0  0  0
  146.9905  136.2006  155.1878 H   0  0  0  0  0  0  0  0  0  0  0  0
  146.4658  138.2970  156.4553 H   0  0  0  0  0  0  0  0  0  0  0  0
  145.1694  137.8212  155.3804 H   0  0  0  0  0  0  0  0  0  0  0  0
  146.2324  139.1488  154.9299 H   0  0  0  0  0  0  0  0  0  0  0  0
  146.6418  137.9884  152.9107 H   0  0  0  0  0  0  0  0  0  0  0  0
  145.9767  135.1489  153.2884 H   0  0  0  0  0  0  0  0  0  0  0  0
  144.8234  136.4673  153.4201 H   0  0  0  0  0  0  0  0  0  0  0  0
  144.6105  136.6622  151.1394 H   0  0  0  0  0  0  0  0  0  0  0  0
  146.3428  136.5893  150.8794 H   0  0  0  0  0  0  0  0  0  0  0  0
  143.4119  134.7223  150.0427 H   0  0  0  0  0  0  0  0  0  0  0  0
  144.0603  132.1295  149.4954 H   0  0  0  0  0  0  0  0  0  0  0  0
  146.6196  131.8936  150.5330 H   0  0  0  0  0  0  0  0  0  0  0  0
  150.7948  139.5832  153.5687 H   0  0  0  0  0  0  0  0  0  0  0  0
  151.1858  138.5305  154.8769 H   0  0  0  0  0  0  0  0  0  0  0  0
  147.6738  136.7205  152.8051 H   0  0  0  0  0  0  0  0  0  0  0  0
  1  2  1  0  0  0  0
  1 21  1  0  0  0  0
  1 22  1  0  0  0  0
  1 23  1  0  0  0  0
  2 20  1  0  0  0  0
  2  3  1  0  0  0  0
  2 24  1  0  0  0  0
  3  4  1  0  0  0  0
  3 25  1  0  0  0  0
  3 26  1  0  0  0  0
  4  5  1  0  0  0  0
  4  6  1  0  0  0  0
  4 27  1  0  0  0  0
  5 28  1  0  0  0  0
  5 29  1  0  0  0  0
  5 30  1  0  0  0  0
  6  7  1  0  0  0  0
  6 31  1  0  0  0  0
  6 32  1  0  0  0  0
  7  8  1  0  0  0  0
  7 20  1  0  0  0  0
  8  9  2  0  0  0  0
  8 10  1  0  0  0  0
 10 11  1  0  0  0  0
 10 12  1  0  0  0  0
 10 33  1  0  0  0  0
 11 34  1  0  0  0  0
 11 35  1  0  0  0  0
 11 36  1  0  0  0  0
 12 13  1  0  0  0  0
 12 37  1  0  0  0  0
 12 47  1  0  0  0  0
 13 14  1  0  0  0  0
 13 38  1  0  0  0  0
 13 39  1  0  0  0  0
 14 15  1  0  0  0  0
 14 40  1  0  0  0  0
 14 41  1  0  0  0  0
 15 19  1  0  0  0  0
 15 16  1  0  0  0  0
 16 17  2  0  0  0  0
 16 42  1  0  0  0  0
 17 18  1  0  0  0  0
 17 43  1  0  0  0  0
 18 19  2  0  0  0  0
 18 44  1  0  0  0  0
 20 45  1  0  0  0  0
 20 46  1  0  0  0  0
M  CHG  1  12   1
M  END
> <s_m_source_file>
AV-unprocessed.smi

> <i_m_source_file_index>
3331

> <i_lp_mmshare_version>
43012

> <i_f3d_flags>
0

> <s_epik_input>
W0NIM11bQ0BASF0xW0NIMl1bQ0BASF0oW0NIM10pW0NIMl1OKFtDSDJdMSlDKD1PKVtDQEhdKFtDSDNdKVtOSF1bQ0gyXVtDSDJdbjJbY0hdW2NIXVtjSF1uMg==

> <s_epik_cmdline>
J2VwaWtfcHl0aG9uJywgJy1waCcsICc3LjAnLCAnLXRuJywgJzgnLCAnLW1hJywgJzIwMCcsICctbWV0YWxfYmluZGluZycsICctaW1hZScsICc8aW5maWxlLm1hZT4nLCAnLW9tYWUnLCAnPG91dGZpbGUubWFlPic=

> <r_lp_tautomer_probability>
1

> <r_epik_Ionization_Penalty>
0.189706

> <r_epik_Ionization_Penalty_Charging>
0.189703

> <r_epik_Ionization_Penalty_Neutral>
2.45875e-06

> <r_epik_State_Penalty>
0.179341

> <r_epik_Charging_Adjusted_Penalty>
0.369044

> <i_epik_Tot_Q>
1

> <i_epik_Tot_abs_Q>
1

> <r_epik_Metal_State_Penalty>
0.179578

> <b_epik_Metal_Only>
0

> <s_lp_Force_Field>
OPLS_2005

> <r_lp_Energy>
29.8241

> <b_lp_Chiralities_Consistent>
1

> <s_lp_Variant>
AV-unprocessed.smi:3331-4

> <Gold.Version>
5.8.1

> <Gold.Id.Protein>
6NUR|6NUR_protein|mol2

> <Gold.PLP.Fitness>
45.0470

> <Gold.PLP.PLP>
-34.2514

> <Gold.PLP.part.hbond>
-1.0000

> <Gold.PLP.part.metal>
0.0000

> <Gold.PLP.part.buried>
-2.7784

> <Gold.PLP.part.nonpolar>
-31.4759

> <Gold.PLP.part.repulsive>
0.3238

> <Gold.PLP.ligand.clash>
0.0000

> <Gold.PLP.ligand.torsion>
0.6191

> <Gold.PLP.Chemscore.Hbond>
2.0000

> <Gold.PLP.Chemscore.CHOScore>
2.0000

> <Gold.PLP.Chemscore.Metal>
0.0000

> <Gold.Chemscore.Hbonds>
donor molecule, donor type, donor heavy atom, donor atom, acceptor molecule, acceptor atom, score
      L1  H    12    47       P1  7948  2.00
      L1  C    16    42       P1 10186  1.00
      L1  C    18    44       P1 10747  0.87

> <Gold.PLP.Chemscore.Internal.Correction>
0.0339

> <Gold.Rescore>
     Score         DG    S(hbond)    S(metal)    S(lipo)     H(rot)  DE(clash)    DE(int)     intcor
     11.79     -13.75       0.97        0.00      80.59       1.73       0.19       1.76       ----

> <Gold.Chemscore.Fitness>
11.7878

> <Gold.Chemscore.DG>
-13.7455

> <Gold.Chemscore.ZeroCoef>
-5.4800

> <Gold.Chemscore.Hbond>
0.9740

> <Gold.Chemscore.Metal>
0.0000

> <Gold.Chemscore.Lipo>
80.5929

> <Gold.Chemscore.Internal_Hbond>
0.0000

> <Gold.Chemscore.DEClash>
0.1942

> <Gold.Chemscore.DEInternal>
1.7636

> <Gold.Chemscore.Rot>
1.7254

> <Gold.Chemscore.Internal.Correction>
   9.000000E+99

> <Gold.Chemscore.Hbonds>
donor molecule, donor type, donor heavy atom, donor atom, acceptor molecule, acceptor atom, score
      L1  H    12    47       P1  7948  1.00

> <Gold.Chemscore.Hbond.Weighted>
-3.2532

> <Gold.Chemscore.Metal.Weighted>
-0.0000

> <Gold.Chemscore.Lipo.Weighted>
-9.4294

> <Gold.Chemscore.Internal_Hbond.Weighted>
0.0000

> <Gold.Chemscore.DEClash.Weighted>
0.1942

> <Gold.Chemscore.DEInternal.Weighted>
1.7636

> <Gold.Chemscore.Rot.Weighted>
4.4170

> <Gold.Chemscore.Internal.Correction.Weighted>
   9.000000E+99

> <Gold.Protein.RotatedTorsions>
[ 6907 6896 6895 6894 ] final   93.29 input  -60.11 | X-H torsion
[ 7974 7965 7964 7962 ] final  -11.44 input  175.53 | X-H torsion
[ 8008 7997 7996 7995 ] final   32.49 input   59.86 | X-H torsion
[ 10167 10162 10161 10158 ] final  -34.94 input  -65.29 | X-H torsion
[ 10718 10713 10712 10709 ] final -121.64 input   66.30 | X-H torsion
[ 10763 10752 10751 10750 ] final  -68.83 input  -60.55 | X-H torsion
[ 11005 11000 10999 10996 ] final  121.34 input  -57.11 | X-H torsion

> <Gold.Protein.ActiveResidues>
 VAL166  LYS551  ARG553  GLY616  TRP617  ASP618  TYR619  PRO620  LYS621  CYS622 
 ASP623  PHE694  ASN695  SER759  ASP760  ASP761  ALA762  ILE779  LEU786  VAL792 
 PHE793  MET794  SER795  GLU796  ALA797  LYS798  CYS799  TRP800  GLU811  SER814 

> <Gold.Protein.RotatedAtoms>
  152.5452  134.1371  159.8463 H   0  0  0  0  0  0  0  0  0  0  0  0  # atno 6907 bound_to 6896
  151.1411  133.4964  159.2604 H   0  0  0  0  0  0  0  0  0  0  0  0  # atno 6908 bound_to 6896
  151.1572  135.0266  159.8749 H   0  0  0  0  0  0  0  0  0  0  0  0  # atno 6909 bound_to 6896
  146.2187  140.2912  142.8368 H   0  0  0  0  0  0  0  0  0  0  0  0  # atno 7974 bound_to 7965
  155.1233  140.3250  155.4492 H   0  0  0  0  0  0  0  0  0  0  0  0  # atno 8008 bound_to 7997
  156.2656  140.2023  156.6303 H   0  0  0  0  0  0  0  0  0  0  0  0  # atno 8009 bound_to 7997
  154.6667  140.0541  157.0108 H   0  0  0  0  0  0  0  0  0  0  0  0  # atno 8010 bound_to 7997
  140.7175  143.3512  151.2151 H   0  0  0  0  0  0  0  0  0  0  0  0  # atno 10167 bound_to 10162
  156.1354  130.6426  150.9688 H   0  0  0  0  0  0  0  0  0  0  0  0  # atno 10718 bound_to 10713
  154.3947  135.6044  153.5863 H   0  0  0  0  0  0  0  0  0  0  0  0  # atno 10763 bound_to 10752
  152.9787  135.5892  154.4255 H   0  0  0  0  0  0  0  0  0  0  0  0  # atno 10764 bound_to 10752
  154.4045  135.2843  155.2054 H   0  0  0  0  0  0  0  0  0  0  0  0  # atno 10765 bound_to 10752
  139.9222  134.9638  156.7944 H   0  0  0  0  0  0  0  0  0  0  0  0  # atno 11005 bound_to 11000
  144.9125  140.7774  143.5798 LP  0  0  0  0  0  0  0  0  0  0  0  0  # atno 17320 bound_to 7965
  145.2843  139.1906  143.4774 LP  0  0  0  0  0  0  0  0  0  0  0  0  # atno 17321 bound_to 7965
  139.7044  143.9480  152.2920 LP  0  0  0  0  0  0  0  0  0  0  0  0  # atno 17342 bound_to 10162
  139.9184  144.6814  150.8488 LP  0  0  0  0  0  0  0  0  0  0  0  0  # atno 17343 bound_to 10162
  157.6527  131.0894  150.8015 LP  0  0  0  0  0  0  0  0  0  0  0  0  # atno 17370 bound_to 10713
  156.8096  130.4948  149.5358 LP  0  0  0  0  0  0  0  0  0  0  0  0  # atno 17371 bound_to 10713
  140.6441  133.9791  155.7722 LP  0  0  0  0  0  0  0  0  0  0  0  0  # atno 17394 bound_to 11000
  141.0752  134.0146  157.3468 LP  0  0  0  0  0  0  0  0  0  0  0  0  # atno 17395 bound_to 11000

$$$$
