AV-unprocessed.smi:1720|AV-procd|sdf|6934|dock2
  -GOLD-   22720 8143D 1   1.00000     0.00000
 Structure written by MMmdl.
 32 33  0  0  0  0  0  0  0  0  1 V2000
  152.1468  140.8131  157.8200 C   0  0  0  0  0  0  0  0  0  0  0  0
  151.9461  142.2854  157.4293 C   0  0  1  0  0  0  0  0  0  0  0  0
  150.5741  142.4563  156.9557 N   0  0  0  0  0  0  0  0  0  0  0  0
  149.9899  141.7452  155.9804 C   0  0  0  0  0  0  0  0  0  0  0  0
  150.5525  140.8418  155.3614 O   0  0  0  0  0  0  0  0  0  0  0  0
  148.7259  142.1496  155.7747 N   0  0  0  0  0  0  0  0  0  0  0  0
  147.8036  141.6436  154.8240 C   0  0  0  0  0  0  0  0  0  0  0  0
  148.1498  140.8156  153.7217 C   0  0  0  0  0  0  0  0  0  0  0  0
  147.0829  140.4956  153.0033 N   0  0  0  0  0  0  0  0  0  0  0  0
  146.0591  141.1119  153.6365 N   0  0  0  0  0  0  0  0  0  0  0  0
  146.4506  141.8222  154.7498 C   0  0  0  0  0  0  0  0  0  0  0  0
  152.2199  143.2451  158.6061 C   0  0  1  0  0  0  0  0  0  0  0  0
  151.8272  144.7007  158.3493 C   0  0  0  0  0  0  0  0  0  0  0  0
  151.6015  145.2624  159.7439 C   0  0  0  0  0  0  0  0  0  0  0  0
  151.4615  144.0202  160.6278 C   0  0  0  0  0  0  0  0  0  0  0  0
  151.4077  142.9245  159.7254 O   0  0  0  0  0  0  0  0  0  0  0  0
  145.1094  141.0389  153.3005 H   0  0  0  0  0  0  0  0  0  0  0  0
  153.1762  140.6180  158.1211 H   0  0  0  0  0  0  0  0  0  0  0  0
  151.9245  140.1516  156.9821 H   0  0  0  0  0  0  0  0  0  0  0  0
  151.4980  140.5300  158.6496 H   0  0  0  0  0  0  0  0  0  0  0  0
  152.6439  142.5101  156.6207 H   0  0  0  0  0  0  0  0  0  0  0  0
  150.0305  143.1800  157.4022 H   0  0  0  0  0  0  0  0  0  0  0  0
  148.3892  142.9033  156.3555 H   0  0  0  0  0  0  0  0  0  0  0  0
  149.1194  140.4435  153.4252 H   0  0  0  0  0  0  0  0  0  0  0  0
  145.7497  142.3694  155.3628 H   0  0  0  0  0  0  0  0  0  0  0  0
  153.2685  143.1919  158.9058 H   0  0  0  0  0  0  0  0  0  0  0  0
  152.5855  145.2508  157.7911 H   0  0  0  0  0  0  0  0  0  0  0  0
  150.8951  144.7449  157.7842 H   0  0  0  0  0  0  0  0  0  0  0  0
  152.4468  145.8694  160.0697 H   0  0  0  0  0  0  0  0  0  0  0  0
  150.7077  145.8862  159.7746 H   0  0  0  0  0  0  0  0  0  0  0  0
  152.3324  143.9099  161.2754 H   0  0  0  0  0  0  0  0  0  0  0  0
  150.5717  144.0520  161.2569 H   0  0  0  0  0  0  0  0  0  0  0  0
  1  2  1  0  0  0  0
  1 18  1  0  0  0  0
  1 19  1  0  0  0  0
  1 20  1  0  0  0  0
  2  3  1  0  0  0  0
  2 12  1  0  0  0  0
  2 21  1  0  0  0  0
  3  4  1  0  0  0  0
  3 22  1  0  0  0  0
  4  5  2  0  0  0  0
  4  6  1  0  0  0  0
  6  7  1  0  0  0  0
  6 23  1  0  0  0  0
  7 11  2  0  0  0  0
  7  8  1  0  0  0  0
  8  9  2  0  0  0  0
  8 24  1  0  0  0  0
  9 10  1  0  0  0  0
 10 17  1  0  0  0  0
 10 11  1  0  0  0  0
 11 25  1  0  0  0  0
 12 16  1  0  0  0  0
 12 13  1  0  0  0  0
 12 26  1  0  0  0  0
 13 14  1  0  0  0  0
 13 27  1  0  0  0  0
 13 28  1  0  0  0  0
 14 15  1  0  0  0  0
 14 29  1  0  0  0  0
 14 30  1  0  0  0  0
 15 16  1  0  0  0  0
 15 31  1  0  0  0  0
 15 32  1  0  0  0  0
M  END
> <s_m_source_file>
AV-unprocessed.smi

> <i_m_source_file_index>
1720

> <i_lp_mmshare_version>
43012

> <i_f3d_flags>
0

> <s_epik_input>
TzFbQ0gyXVtDSDJdW0NIMl1bQ0BIXTFbQ0BIXShbQ0gzXSlbTkhdQyg9TylbTkhdYzJbY0hdbltuSF1bY0hdMg==

> <s_epik_cmdline>
J2VwaWtfcHl0aG9uJywgJy1waCcsICc3LjAnLCAnLXRuJywgJzgnLCAnLW1hJywgJzIwMCcsICctbWV0YWxfYmluZGluZycsICctaW1hZScsICc8aW5maWxlLm1hZT4nLCAnLW9tYWUnLCAnPG91dGZpbGUubWFlPic=

> <r_lp_tautomer_probability>
1

> <r_epik_Ionization_Penalty>
4.95841e-05

> <r_epik_Ionization_Penalty_Charging>
0

> <r_epik_Ionization_Penalty_Neutral>
4.95841e-05

> <r_epik_State_Penalty>
-0

> <r_epik_Charging_Adjusted_Penalty>
0

> <i_epik_Tot_Q>
0

> <i_epik_Tot_abs_Q>
0

> <r_epik_Metal_State_Penalty>
-0

> <b_epik_Metal_Only>
0

> <s_lp_Force_Field>
OPLS_2005

> <r_lp_Energy>
20.531

> <b_lp_Chiralities_Consistent>
1

> <s_lp_Variant>
AV-unprocessed.smi:1720-4

> <Gold.Version>
5.8.1

> <Gold.Id.Protein>
6NUR|6NUR_protein|mol2

> <Gold.PLP.Fitness>
39.5204

> <Gold.PLP.PLP>
-31.6508

> <Gold.PLP.part.hbond>
-3.7817

> <Gold.PLP.part.metal>
0.0000

> <Gold.PLP.part.buried>
-4.0608

> <Gold.PLP.part.nonpolar>
-24.3241

> <Gold.PLP.part.repulsive>
0.7079

> <Gold.PLP.ligand.clash>
0.0000

> <Gold.PLP.ligand.torsion>
0.1222

> <Gold.PLP.Chemscore.Hbond>
1.9194

> <Gold.PLP.Chemscore.CHOScore>
0.7776

> <Gold.PLP.Chemscore.Metal>
0.0000

> <Gold.Chemscore.Hbonds>
donor molecule, donor type, donor heavy atom, donor atom, acceptor molecule, acceptor atom, score
      L1  H     6    23       P1  8028  0.27
      L1  H    10    17       P1 10175  1.00
      P1  H  7989  7998       L1     5  0.57
      L1  C     8    24       P1  7957  0.81

> <Gold.PLP.Chemscore.Internal.Correction>
0.0229

> <Gold.Rescore>
     Score         DG    S(hbond)    S(metal)    S(lipo)     H(rot)  DE(clash)    DE(int)     intcor
     15.88     -19.27       2.42        0.00      77.29       1.31       0.08       3.31       ----

> <Gold.Chemscore.Fitness>
15.8827

> <Gold.Chemscore.DG>
-19.2727

> <Gold.Chemscore.ZeroCoef>
-5.4800

> <Gold.Chemscore.Hbond>
2.4247

> <Gold.Chemscore.Metal>
0.0000

> <Gold.Chemscore.Lipo>
77.2876

> <Gold.Chemscore.Internal_Hbond>
0.0000

> <Gold.Chemscore.DEClash>
0.0814

> <Gold.Chemscore.DEInternal>
3.3086

> <Gold.Chemscore.Rot>
1.3079

> <Gold.Chemscore.Internal.Correction>
   9.000000E+99

> <Gold.Chemscore.Hbonds>
donor molecule, donor type, donor heavy atom, donor atom, acceptor molecule, acceptor atom, score
      L1  H     6    23       P1  8028  0.23
      L1  H    10    17       P1 10175  0.45
      P1  H  7989  7998       L1     5  0.56

> <Gold.Chemscore.Hbond.Weighted>
-8.0984

> <Gold.Chemscore.Metal.Weighted>
-0.0000

> <Gold.Chemscore.Lipo.Weighted>
-9.0427

> <Gold.Chemscore.Internal_Hbond.Weighted>
0.0000

> <Gold.Chemscore.DEClash.Weighted>
0.0814

> <Gold.Chemscore.DEInternal.Weighted>
3.3086

> <Gold.Chemscore.Rot.Weighted>
3.3483

> <Gold.Chemscore.Internal.Correction.Weighted>
   9.000000E+99

> <Gold.Protein.RotatedTorsions>
[ 6907 6896 6895 6894 ] final   25.71 input  -60.11 | X-H torsion
[ 7974 7965 7964 7962 ] final   50.75 input  175.53 | X-H torsion
[ 8008 7997 7996 7995 ] final -136.04 input   59.86 | X-H torsion
[ 10167 10162 10161 10158 ] final -136.37 input  -65.29 | X-H torsion
[ 10718 10713 10712 10709 ] final  172.77 input   66.30 | X-H torsion
[ 10763 10752 10751 10750 ] final  128.50 input  -60.55 | X-H torsion
[ 11005 11000 10999 10996 ] final  -14.83 input  -57.11 | X-H torsion

> <Gold.Protein.ActiveResidues>
 VAL166  LYS551  ARG553  GLY616  TRP617  ASP618  TYR619  PRO620  LYS621  CYS622 
 ASP623  PHE694  ASN695  SER759  ASP760  ASP761  ALA762  ILE779  LEU786  VAL792 
 PHE793  MET794  SER795  GLU796  ALA797  LYS798  CYS799  TRP800  GLU811  SER814 

> <Gold.Protein.RotatedAtoms>
  151.9766  135.0050  160.0555 H   0  0  0  0  0  0  0  0  0  0  0  0  # atno 6907 bound_to 6896
  152.1734  133.4654  159.4929 H   0  0  0  0  0  0  0  0  0  0  0  0  # atno 6908 bound_to 6896
  150.6905  134.1841  159.4303 H   0  0  0  0  0  0  0  0  0  0  0  0  # atno 6909 bound_to 6896
  145.9981  139.4410  143.0032 H   0  0  0  0  0  0  0  0  0  0  0  0  # atno 7974 bound_to 7965
  155.3886  140.0498  157.3041 H   0  0  0  0  0  0  0  0  0  0  0  0  # atno 8008 bound_to 7997
  154.5047  140.2170  155.9236 H   0  0  0  0  0  0  0  0  0  0  0  0  # atno 8009 bound_to 7997
  156.1511  140.3135  155.8655 H   0  0  0  0  0  0  0  0  0  0  0  0  # atno 8010 bound_to 7997
  139.8685  143.6987  152.2642 H   0  0  0  0  0  0  0  0  0  0  0  0  # atno 10167 bound_to 10162
  156.9741  131.0099  151.2898 H   0  0  0  0  0  0  0  0  0  0  0  0  # atno 10718 bound_to 10713
  153.7265  135.3245  155.3277 H   0  0  0  0  0  0  0  0  0  0  0  0  # atno 10763 bound_to 10752
  154.8339  135.4512  154.1164 H   0  0  0  0  0  0  0  0  0  0  0  0  # atno 10764 bound_to 10752
  153.2300  135.6958  153.7982 H   0  0  0  0  0  0  0  0  0  0  0  0  # atno 10765 bound_to 10752
  140.7904  133.8292  155.9374 H   0  0  0  0  0  0  0  0  0  0  0  0  # atno 11005 bound_to 11000
  145.7528  140.9966  143.1241 LP  0  0  0  0  0  0  0  0  0  0  0  0  # atno 17320 bound_to 7965
  144.6910  139.9235  143.7469 LP  0  0  0  0  0  0  0  0  0  0  0  0  # atno 17321 bound_to 7965
  139.7306  144.7583  151.0808 LP  0  0  0  0  0  0  0  0  0  0  0  0  # atno 17342 bound_to 10162
  140.7764  143.5093  150.9673 LP  0  0  0  0  0  0  0  0  0  0  0  0  # atno 17343 bound_to 10162
  157.5572  130.8221  149.8219 LP  0  0  0  0  0  0  0  0  0  0  0  0  # atno 17370 bound_to 10713
  156.0271  130.3776  150.1793 LP  0  0  0  0  0  0  0  0  0  0  0  0  # atno 17371 bound_to 10713
  140.9395  134.1919  157.4808 LP  0  0  0  0  0  0  0  0  0  0  0  0  # atno 17394 bound_to 11000
  139.8732  134.9866  156.5331 LP  0  0  0  0  0  0  0  0  0  0  0  0  # atno 17395 bound_to 11000

$$$$
