AV-unprocessed.smi:167|AV-procd|sdf|1395|dock3
  -GOLD-   2262019133D 1   1.00000     0.00000
 Structure written by MMmdl.
 51 55  0  0  0  0  0  0  0  0  1 V2000
  150.4143  139.8707  153.9421 O   0  0  0  0  0  0  0  0  0  0  0  0
  149.6678  139.3940  155.0411 C   0  0  0  0  0  0  0  0  0  0  0  0
  148.4877  140.3413  155.3317 C   0  0  1  0  0  0  0  0  0  0  0  0
  147.5507  140.5722  154.1282 C   0  0  0  0  0  0  0  0  0  0  0  0
  146.1785  140.1970  154.7258 C   0  0  2  0  0  0  0  0  0  0  0  0
  145.7448  141.2891  155.7193 C   0  0  0  0  0  0  0  0  0  0  0  0
  146.6587  140.9852  156.9182 C   0  0  0  0  0  0  0  0  0  0  0  0
  147.4821  139.8009  156.3799 C   0  0  1  0  0  0  0  0  0  0  0  0
  146.4788  139.0804  155.6086 N   0  0  0  0  0  0  0  0  0  0  0  0
  146.7268  137.8364  155.1159 C   0  0  0  0  0  0  0  0  0  0  0  0
  147.5912  137.0255  155.7820 N   0  0  0  0  0  0  0  0  0  0  0  0
  147.8470  135.7933  155.3351 C   0  0  0  0  0  0  0  0  0  0  0  0
  147.3636  135.1821  154.2531 N   0  0  0  0  0  0  0  0  0  0  0  0
  146.5125  135.9949  153.5643 C   0  0  0  0  0  0  0  0  0  0  0  0
  146.1437  137.3247  153.9195 C   0  0  0  0  0  0  0  0  0  0  0  0
  145.2586  137.8304  152.9747 N   0  0  0  0  0  0  0  0  0  0  0  0
  145.0992  136.8541  152.1245 C   0  0  0  0  0  0  0  0  0  0  0  0
  145.8272  135.7170  152.3934 N   0  0  0  0  0  0  0  0  0  0  0  0
  145.8268  134.4923  151.6440 C   0  0  0  0  0  0  0  0  0  0  0  0
  144.8763  134.2664  150.4628 C   0  0  0  0  0  0  0  0  0  0  0  0
  144.7916  132.7677  150.8367 C   0  0  0  0  0  0  0  0  0  0  0  0
  143.4047  132.1059  150.7162 C   0  0  0  0  0  0  0  0  0  0  0  0
  142.9179  132.1027  149.3887 O   0  0  0  0  0  0  0  0  0  0  0  0
  145.7901  131.8751  150.0758 C   0  0  0  0  0  0  0  0  0  0  0  0
  146.2536  130.8087  150.8794 O   0  0  0  0  0  0  0  0  0  0  0  0
  145.2423  133.2147  152.2477 C   0  0  0  0  0  0  0  0  0  0  0  0
  149.8703  139.8310  153.1701 H   0  0  0  0  0  0  0  0  0  0  0  0
  149.3321  138.3809  154.8235 H   0  0  0  0  0  0  0  0  0  0  0  0
  150.3276  139.3360  155.9070 H   0  0  0  0  0  0  0  0  0  0  0  0
  148.8989  141.2901  155.6802 H   0  0  0  0  0  0  0  0  0  0  0  0
  147.5830  141.5984  153.7607 H   0  0  0  0  0  0  0  0  0  0  0  0
  147.8021  139.9145  153.2950 H   0  0  0  0  0  0  0  0  0  0  0  0
  145.4174  139.9951  153.9712 H   0  0  0  0  0  0  0  0  0  0  0  0
  145.8829  142.2959  155.3236 H   0  0  0  0  0  0  0  0  0  0  0  0
  144.6966  141.1726  155.9972 H   0  0  0  0  0  0  0  0  0  0  0  0
  147.2728  141.8363  157.2141 H   0  0  0  0  0  0  0  0  0  0  0  0
  146.0657  140.6822  157.7820 H   0  0  0  0  0  0  0  0  0  0  0  0
  147.9542  139.2426  157.1864 H   0  0  0  0  0  0  0  0  0  0  0  0
  148.5368  135.2139  155.9308 H   0  0  0  0  0  0  0  0  0  0  0  0
  144.4384  136.9418  151.2746 H   0  0  0  0  0  0  0  0  0  0  0  0
  146.8558  134.3219  151.3231 H   0  0  0  0  0  0  0  0  0  0  0  0
  143.9297  134.7969  150.5672 H   0  0  0  0  0  0  0  0  0  0  0  0
  145.3209  134.4678  149.4878 H   0  0  0  0  0  0  0  0  0  0  0  0
  143.4370  131.0729  151.0639 H   0  0  0  0  0  0  0  0  0  0  0  0
  142.6680  132.6218  151.3324 H   0  0  0  0  0  0  0  0  0  0  0  0
  142.2998  132.8114  149.2946 H   0  0  0  0  0  0  0  0  0  0  0  0
  145.3378  131.4622  149.1735 H   0  0  0  0  0  0  0  0  0  0  0  0
  146.6594  132.4447  149.7466 H   0  0  0  0  0  0  0  0  0  0  0  0
  147.1980  130.7955  150.8457 H   0  0  0  0  0  0  0  0  0  0  0  0
  145.9803  132.5683  152.7241 H   0  0  0  0  0  0  0  0  0  0  0  0
  144.4138  133.4201  152.9272 H   0  0  0  0  0  0  0  0  0  0  0  0
  1  2  1  0  0  0  0
  1 27  1  0  0  0  0
  2  3  1  0  0  0  0
  2 28  1  0  0  0  0
  2 29  1  0  0  0  0
  3  8  1  0  0  0  0
  3  4  1  0  0  0  0
  3 30  1  0  0  0  0
  4  5  1  0  0  0  0
  4 31  1  0  0  0  0
  4 32  1  0  0  0  0
  5  9  1  0  0  0  0
  5  6  1  0  0  0  0
  5 33  1  0  0  0  0
  6  7  1  0  0  0  0
  6 34  1  0  0  0  0
  6 35  1  0  0  0  0
  7  8  1  0  0  0  0
  7 36  1  0  0  0  0
  7 37  1  0  0  0  0
  8  9  1  0  0  0  0
  8 38  1  0  0  0  0
  9 10  1  0  0  0  0
 10 15  1  0  0  0  0
 10 11  2  0  0  0  0
 11 12  1  0  0  0  0
 12 13  2  0  0  0  0
 12 39  1  0  0  0  0
 13 14  1  0  0  0  0
 14 18  1  0  0  0  0
 14 15  2  0  0  0  0
 15 16  1  0  0  0  0
 16 17  2  0  0  0  0
 17 18  1  0  0  0  0
 17 40  1  0  0  0  0
 18 19  1  0  0  0  0
 19 26  1  0  0  0  0
 19 20  1  0  0  0  0
 19 41  1  0  0  0  0
 20 21  1  0  0  0  0
 20 42  1  0  0  0  0
 20 43  1  0  0  0  0
 21 22  1  0  0  0  0
 21 24  1  0  0  0  0
 21 26  1  0  0  0  0
 22 23  1  0  0  0  0
 22 44  1  0  0  0  0
 22 45  1  0  0  0  0
 23 46  1  0  0  0  0
 24 25  1  0  0  0  0
 24 47  1  0  0  0  0
 24 48  1  0  0  0  0
 25 49  1  0  0  0  0
 26 50  1  0  0  0  0
 26 51  1  0  0  0  0
M  END
> <s_m_source_file>
AV-unprocessed.smi

> <i_m_source_file_index>
167

> <i_lp_mmshare_version>
43012

> <i_f3d_flags>
0

> <s_epik_input>
W09IXVtDSDJdW0NASF0oW0NIMl1bQ0BASF0xMilbQ0BIXShbQ0gyXVtDSDJdMSlOMmMobltjSF1uMyljKGMzNCluW2NIXW40W0NIXShbQ0gyXTUpW0NIMl1DNShbQ0gyXVtPSF0pW0NIMl1bT0hd

> <s_epik_cmdline>
J2VwaWtfcHl0aG9uJywgJy1waCcsICc3LjAnLCAnLXRuJywgJzgnLCAnLW1hJywgJzIwMCcsICctbWV0YWxfYmluZGluZycsICctaW1hZScsICc8aW5maWxlLm1hZT4nLCAnLW9tYWUnLCAnPG91dGZpbGUubWFlPic=

> <r_lp_tautomer_probability>
1

> <r_epik_Ionization_Penalty>
0.0047903

> <r_epik_Ionization_Penalty_Charging>
0

> <r_epik_Ionization_Penalty_Neutral>
0.0047903

> <r_epik_State_Penalty>
0.00341021

> <r_epik_Charging_Adjusted_Penalty>
0.00341021

> <i_epik_Tot_Q>
0

> <i_epik_Tot_abs_Q>
0

> <r_epik_Metal_State_Penalty>
-0

> <b_epik_Metal_Only>
0

> <s_lp_Force_Field>
OPLS_2005

> <r_lp_Energy>
89.2094

> <b_lp_Chiralities_Consistent>
1

> <s_lp_Variant>
AV-unprocessed.smi:167-4

> <Gold.Version>
5.8.1

> <Gold.Id.Protein>
6NUR|6NUR_protein|mol2

> <Gold.PLP.Fitness>
44.9759

> <Gold.PLP.PLP>
-29.8268

> <Gold.PLP.part.hbond>
-5.8746

> <Gold.PLP.part.metal>
0.0000

> <Gold.PLP.part.buried>
-2.6036

> <Gold.PLP.part.nonpolar>
-22.3691

> <Gold.PLP.part.repulsive>
1.1398

> <Gold.PLP.ligand.clash>
0.0000

> <Gold.PLP.ligand.torsion>
1.3405

> <Gold.PLP.Chemscore.Hbond>
4.7875

> <Gold.PLP.Chemscore.CHOScore>
1.0000

> <Gold.PLP.Chemscore.Metal>
0.0000

> <Gold.Chemscore.Hbonds>
donor molecule, donor type, donor heavy atom, donor atom, acceptor molecule, acceptor atom, score
      L1  H     1    27       P1  7957  0.99
      L1  H    23    46       P1 10186  0.89
      L1  H    25    49       P1 10747  1.00
      P1  H  7989  7998       L1     1  1.00
      P1  H 10785 10796       L1    23  0.86
      L1  C    17    40       P1 10171  1.00

> <Gold.PLP.Chemscore.Internal.Correction>
0.4676

> <Gold.Rescore>
     Score         DG    S(hbond)    S(metal)    S(lipo)     H(rot)  DE(clash)    DE(int)     intcor
     13.24     -16.25       4.05        0.00      68.30       4.20       1.19       1.82       ----

> <Gold.Chemscore.Fitness>
13.2418

> <Gold.Chemscore.DG>
-16.2517

> <Gold.Chemscore.ZeroCoef>
-5.4800

> <Gold.Chemscore.Hbond>
4.0546

> <Gold.Chemscore.Metal>
0.0000

> <Gold.Chemscore.Lipo>
68.2998

> <Gold.Chemscore.Internal_Hbond>
0.0000

> <Gold.Chemscore.DEClash>
1.1894

> <Gold.Chemscore.DEInternal>
1.8206

> <Gold.Chemscore.Rot>
4.2038

> <Gold.Chemscore.Internal.Correction>
   9.000000E+99

> <Gold.Chemscore.Hbonds>
donor molecule, donor type, donor heavy atom, donor atom, acceptor molecule, acceptor atom, score
      L1  H     1    27       P1  7957  0.88
      L1  H    23    46       P1 10186  0.87
      L1  H    25    49       P1 10747  1.00
      P1  H  7989  7998       L1     1  0.33
      P1  H 10785 10796       L1    23  0.42

> <Gold.Chemscore.Hbond.Weighted>
-13.5423

> <Gold.Chemscore.Metal.Weighted>
-0.0000

> <Gold.Chemscore.Lipo.Weighted>
-7.9911

> <Gold.Chemscore.Internal_Hbond.Weighted>
0.0000

> <Gold.Chemscore.DEClash.Weighted>
1.1894

> <Gold.Chemscore.DEInternal.Weighted>
1.8206

> <Gold.Chemscore.Rot.Weighted>
10.7617

> <Gold.Chemscore.Internal.Correction.Weighted>
   9.000000E+99

> <Gold.Protein.RotatedTorsions>
[ 6907 6896 6895 6894 ] final  -37.95 input  -60.11 | X-H torsion
[ 7974 7965 7964 7962 ] final  -70.35 input  175.53 | X-H torsion
[ 8008 7997 7996 7995 ] final  170.49 input   59.86 | X-H torsion
[ 10167 10162 10161 10158 ] final  -54.28 input  -65.29 | X-H torsion
[ 10718 10713 10712 10709 ] final  -17.37 input   66.30 | X-H torsion
[ 10763 10752 10751 10750 ] final   16.59 input  -60.55 | X-H torsion
[ 11005 11000 10999 10996 ] final  134.87 input  -57.11 | X-H torsion

> <Gold.Protein.ActiveResidues>
 VAL166  LYS551  ARG553  GLY616  TRP617  ASP618  TYR619  PRO620  LYS621  CYS622 
 ASP623  PHE694  ASN695  SER759  ASP760  ASP761  ALA762  ILE779  LEU786  VAL792 
 PHE793  MET794  SER795  GLU796  ALA797  LYS798  CYS799  TRP800  GLU811  SER814 

> <Gold.Protein.RotatedAtoms>
  151.0084  134.9377  159.7992 H   0  0  0  0  0  0  0  0  0  0  0  0  # atno 6907 bound_to 6896
  152.5296  134.3061  159.9106 H   0  0  0  0  0  0  0  0  0  0  0  0  # atno 6908 bound_to 6896
  151.3067  133.4056  159.2678 H   0  0  0  0  0  0  0  0  0  0  0  0  # atno 6909 bound_to 6896
  145.6920  140.9149  143.0776 H   0  0  0  0  0  0  0  0  0  0  0  0  # atno 7974 bound_to 7965
  156.1361  140.1536  156.8992 H   0  0  0  0  0  0  0  0  0  0  0  0  # atno 8008 bound_to 7997
  154.4948  140.0841  156.7712 H   0  0  0  0  0  0  0  0  0  0  0  0  # atno 8009 bound_to 7997
  155.4166  140.3421  155.4270 H   0  0  0  0  0  0  0  0  0  0  0  0  # atno 8010 bound_to 7997
  140.6439  143.2523  151.4914 H   0  0  0  0  0  0  0  0  0  0  0  0  # atno 10167 bound_to 10162
  156.5745  130.4758  149.6348 H   0  0  0  0  0  0  0  0  0  0  0  0  # atno 10718 bound_to 10713
  153.1417  135.6761  153.9017 H   0  0  0  0  0  0  0  0  0  0  0  0  # atno 10763 bound_to 10752
  153.8472  135.3098  155.3431 H   0  0  0  0  0  0  0  0  0  0  0  0  # atno 10764 bound_to 10752
  154.7792  135.4897  153.9893 H   0  0  0  0  0  0  0  0  0  0  0  0  # atno 10765 bound_to 10752
  139.9943  134.9503  156.9928 H   0  0  0  0  0  0  0  0  0  0  0  0  # atno 11005 bound_to 11000
  144.6993  139.8835  143.7448 LP  0  0  0  0  0  0  0  0  0  0  0  0  # atno 17320 bound_to 7965
  146.0873  139.3862  143.0427 LP  0  0  0  0  0  0  0  0  0  0  0  0  # atno 17321 bound_to 7965
  139.5649  144.2067  152.1749 LP  0  0  0  0  0  0  0  0  0  0  0  0  # atno 17342 bound_to 10162
  140.1346  144.5257  150.6781 LP  0  0  0  0  0  0  0  0  0  0  0  0  # atno 17343 bound_to 10162
  156.2686  130.7004  151.1794 LP  0  0  0  0  0  0  0  0  0  0  0  0  # atno 17370 bound_to 10713
  157.7341  131.0585  150.5544 LP  0  0  0  0  0  0  0  0  0  0  0  0  # atno 17371 bound_to 10713
  140.4848  134.1253  155.7223 LP  0  0  0  0  0  0  0  0  0  0  0  0  # atno 17394 bound_to 11000
  141.1591  133.8826  157.1896 LP  0  0  0  0  0  0  0  0  0  0  0  0  # atno 17395 bound_to 11000

$$$$
