AV-unprocessed.smi:35|AV-procd|sdf|250|dock5
  -GOLD-   2262016 13D 1   1.00000     0.00000
 Structure written by MMmdl.
 29 30  0  0  0  0  0  0  0  0  1 V2000
  151.9474  137.0869  159.4950 O   0  0  0  0  0  0  0  0  0  0  0  0
  151.5304  137.6311  158.4750 C   0  0  0  0  0  0  0  0  0  0  0  0
  152.4200  138.0264  157.4717 N   0  0  0  0  0  0  0  0  0  0  0  0
  152.0653  138.6482  156.2729 C   0  0  0  0  0  0  0  0  0  0  0  0
  152.9347  138.9688  155.4636 O   0  0  0  0  0  0  0  0  0  0  0  0
  150.6914  138.8905  156.0517 N   0  0  0  0  0  0  0  0  0  0  0  0
  150.2746  139.5661  154.7595 C   0  0  1  0  0  0  0  0  0  0  0  0
  149.1304  138.9368  154.2543 O   0  0  0  0  0  0  0  0  0  0  0  0
  148.0322  139.8411  154.2840 C   0  0  2  0  0  0  0  0  0  0  0  0
  146.9571  139.4280  153.2631 C   0  0  0  0  0  0  0  0  0  0  0  0
  147.5200  138.8525  152.1022 O   0  0  0  0  0  0  0  0  0  0  0  0
  148.6813  141.2136  154.1013 C   0  0  1  0  0  0  0  0  0  0  0  0
  147.8491  142.2858  154.5037 O   0  0  0  0  0  0  0  0  0  0  0  0
  149.9475  141.0704  154.9398 C   0  0  1  0  0  0  0  0  0  0  0  0
  149.7392  141.4430  156.2947 O   0  0  0  0  0  0  0  0  0  0  0  0
  149.7706  138.5260  157.0266 C   0  0  0  0  0  0  0  0  0  0  0  0
  150.1316  137.9271  158.1858 C   0  0  0  0  0  0  0  0  0  0  0  0
  148.6692  137.4900  159.4485 Br  0  0  0  0  0  0  0  0  0  0  0  0
  153.4016  137.8502  157.6290 H   0  0  0  0  0  0  0  0  0  0  0  0
  151.0796  139.3825  154.0452 H   0  0  0  0  0  0  0  0  0  0  0  0
  147.5984  139.7826  155.2838 H   0  0  0  0  0  0  0  0  0  0  0  0
  146.2504  138.7303  153.7129 H   0  0  0  0  0  0  0  0  0  0  0  0
  146.3875  140.3051  152.9559 H   0  0  0  0  0  0  0  0  0  0  0  0
  148.3565  139.2613  151.9390 H   0  0  0  0  0  0  0  0  0  0  0  0
  148.9703  141.3635  153.0606 H   0  0  0  0  0  0  0  0  0  0  0  0
  148.3457  143.0879  154.4486 H   0  0  0  0  0  0  0  0  0  0  0  0
  150.7642  141.6730  154.5410 H   0  0  0  0  0  0  0  0  0  0  0  0
  150.3634  142.1165  156.5172 H   0  0  0  0  0  0  0  0  0  0  0  0
  148.7209  138.7242  156.8754 H   0  0  0  0  0  0  0  0  0  0  0  0
  1  2  2  0  0  0  0
  2 17  1  0  0  0  0
  2  3  1  0  0  0  0
  3 19  1  0  0  0  0
  3  4  1  0  0  0  0
  4  5  2  0  0  0  0
  4  6  1  0  0  0  0
  6  7  1  0  0  0  0
  6 16  1  0  0  0  0
  7 14  1  0  0  0  0
  7  8  1  0  0  0  0
  7 20  1  0  0  0  0
  8  9  1  0  0  0  0
  9 10  1  0  0  0  0
  9 12  1  0  0  0  0
  9 21  1  0  0  0  0
 10 11  1  0  0  0  0
 10 22  1  0  0  0  0
 10 23  1  0  0  0  0
 11 24  1  0  0  0  0
 12 13  1  0  0  0  0
 12 14  1  0  0  0  0
 12 25  1  0  0  0  0
 13 26  1  0  0  0  0
 14 15  1  0  0  0  0
 14 27  1  0  0  0  0
 15 28  1  0  0  0  0
 16 17  2  0  0  0  0
 16 29  1  0  0  0  0
 17 18  1  0  0  0  0
M  END
> <s_m_source_file>
AV-unprocessed.smi

> <i_m_source_file_index>
35

> <i_lp_mmshare_version>
43012

> <i_f3d_flags>
0

> <s_epik_input>
Tz1jMVtuSF1jKD1PKW4oW2NIXWMxQnIpW0NAQEhdMk9bQ0BASF0oW0NIMl1bT0hdKVtDQEBIXShbT0hdKVtDQEhdMltPSF0=

> <s_epik_cmdline>
J2VwaWtfcHl0aG9uJywgJy1waCcsICc3LjAnLCAnLXRuJywgJzgnLCAnLW1hJywgJzIwMCcsICctbWV0YWxfYmluZGluZycsICctaW1hZScsICc8aW5maWxlLm1hZT4nLCAnLW9tYWUnLCAnPG91dGZpbGUubWFlPic=

> <r_lp_tautomer_probability>
0.999537

> <r_epik_Ionization_Penalty>
0.10812

> <r_epik_Ionization_Penalty_Charging>
0.108119

> <r_epik_Ionization_Penalty_Neutral>
4.93006e-07

> <r_epik_State_Penalty>
0.0979238

> <r_epik_Charging_Adjusted_Penalty>
0.206043

> <i_epik_Tot_Q>
0

> <i_epik_Tot_abs_Q>
0

> <r_epik_Metal_State_Penalty>
3.07911

> <b_epik_Metal_Only>
0

> <s_epik_Chemistry_Notes>
This compound contains an acetal/aminal-like group ( X-CH(R)-Y where X, Y are N, S, or O) that may be acid/base labile, releasing an aldehyde.

> <s_lp_Force_Field>
OPLS_2005

> <r_lp_Energy>
39.8494

> <b_lp_Chiralities_Consistent>
1

> <s_lp_Variant>
AV-unprocessed.smi:35-4

> <Gold.Version>
5.8.1

> <Gold.Id.Protein>
6NUR|6NUR_protein|mol2

> <Gold.PLP.Fitness>
36.2081

> <Gold.PLP.PLP>
-25.7105

> <Gold.PLP.part.hbond>
-4.6853

> <Gold.PLP.part.metal>
0.0000

> <Gold.PLP.part.buried>
-3.6573

> <Gold.PLP.part.nonpolar>
-17.2301

> <Gold.PLP.part.repulsive>
0.3285

> <Gold.PLP.ligand.clash>
0.0000

> <Gold.PLP.ligand.torsion>
0.7557

> <Gold.PLP.Chemscore.Hbond>
3.9920

> <Gold.PLP.Chemscore.CHOScore>
0.0000

> <Gold.PLP.Chemscore.Metal>
0.0000

> <Gold.Chemscore.Hbonds>
donor molecule, donor type, donor heavy atom, donor atom, acceptor molecule, acceptor atom, score
      L1  H    11    24       P1  7957  1.00
      L1  H    13    26       P1  8028  0.73
      P1  H  6896  6908       L1     1  0.99
      P1  H  7997  8010       L1     5  1.00

> <Gold.PLP.Chemscore.Internal.Correction>
0.0331

> <Gold.Rescore>
     Score         DG    S(hbond)    S(metal)    S(lipo)     H(rot)  DE(clash)    DE(int)     intcor
     12.15     -13.12       3.87        0.00      35.21       3.67       0.05       0.93       ----

> <Gold.Chemscore.Fitness>
12.1511

> <Gold.Chemscore.DG>
-13.1241

> <Gold.Chemscore.ZeroCoef>
-5.4800

> <Gold.Chemscore.Hbond>
3.8682

> <Gold.Chemscore.Metal>
0.0000

> <Gold.Chemscore.Lipo>
35.2103

> <Gold.Chemscore.Internal_Hbond>
0.0000

> <Gold.Chemscore.DEClash>
0.0456

> <Gold.Chemscore.DEInternal>
0.9273

> <Gold.Chemscore.Rot>
3.6701

> <Gold.Chemscore.Internal.Correction>
   9.000000E+99

> <Gold.Chemscore.Hbonds>
donor molecule, donor type, donor heavy atom, donor atom, acceptor molecule, acceptor atom, score
      L1  H    11    24       P1  7957  0.99
      L1  H    13    26       P1  8028  0.69
      P1  H  6896  6908       L1     1  0.91
      P1  H  7997  8010       L1     5  0.92

> <Gold.Chemscore.Hbond.Weighted>
-12.9200

> <Gold.Chemscore.Metal.Weighted>
-0.0000

> <Gold.Chemscore.Lipo.Weighted>
-4.1196

> <Gold.Chemscore.Internal_Hbond.Weighted>
0.0000

> <Gold.Chemscore.DEClash.Weighted>
0.0456

> <Gold.Chemscore.DEInternal.Weighted>
0.9273

> <Gold.Chemscore.Rot.Weighted>
9.3955

> <Gold.Chemscore.Internal.Correction.Weighted>
   9.000000E+99

> <Gold.Protein.RotatedTorsions>
[ 6907 6896 6895 6894 ] final -102.98 input  -60.11 | X-H torsion
[ 7974 7965 7964 7962 ] final  -11.97 input  175.53 | X-H torsion
[ 8008 7997 7996 7995 ] final  108.77 input   59.86 | X-H torsion
[ 10167 10162 10161 10158 ] final  132.21 input  -65.29 | X-H torsion
[ 10718 10713 10712 10709 ] final  -69.08 input   66.30 | X-H torsion
[ 10763 10752 10751 10750 ] final  -17.55 input  -60.55 | X-H torsion
[ 11005 11000 10999 10996 ] final  128.06 input  -57.11 | X-H torsion

> <Gold.Protein.ActiveResidues>
 VAL166  LYS551  ARG553  GLY616  TRP617  ASP618  TYR619  PRO620  LYS621  CYS622 
 ASP623  PHE694  ASN695  SER759  ASP760  ASP761  ALA762  ILE779  LEU786  VAL792 
 PHE793  MET794  SER795  GLU796  ALA797  LYS798  CYS799  TRP800  GLU811  SER814 

> <Gold.Protein.RotatedAtoms>
  150.7220  134.0499  159.3794 H   0  0  0  0  0  0  0  0  0  0  0  0  # atno 6907 bound_to 6896
  151.8476  135.0567  160.0464 H   0  0  0  0  0  0  0  0  0  0  0  0  # atno 6908 bound_to 6896
  152.2815  133.5439  159.5537 H   0  0  0  0  0  0  0  0  0  0  0  0  # atno 6909 bound_to 6896
  146.2169  140.2988  142.8373 H   0  0  0  0  0  0  0  0  0  0  0  0  # atno 7974 bound_to 7965
  156.1929  140.3070  155.9368 H   0  0  0  0  0  0  0  0  0  0  0  0  # atno 8008 bound_to 7997
  155.3133  140.0452  157.3053 H   0  0  0  0  0  0  0  0  0  0  0  0  # atno 8009 bound_to 7997
  154.5473  140.2280  155.8551 H   0  0  0  0  0  0  0  0  0  0  0  0  # atno 8010 bound_to 7997
  139.5350  144.6672  151.4819 H   0  0  0  0  0  0  0  0  0  0  0  0  # atno 10167 bound_to 10162
  156.0473  130.4306  150.2095 H   0  0  0  0  0  0  0  0  0  0  0  0  # atno 10718 bound_to 10713
  153.5756  135.7006  153.5485 H   0  0  0  0  0  0  0  0  0  0  0  0  # atno 10763 bound_to 10752
  153.3306  135.4048  155.1492 H   0  0  0  0  0  0  0  0  0  0  0  0  # atno 10764 bound_to 10752
  154.8626  135.3718  154.5281 H   0  0  0  0  0  0  0  0  0  0  0  0  # atno 10765 bound_to 10752
  139.9540  134.9616  156.8946 H   0  0  0  0  0  0  0  0  0  0  0  0  # atno 11005 bound_to 11000
  144.9072  140.7714  143.5830 LP  0  0  0  0  0  0  0  0  0  0  0  0  # atno 17320 bound_to 7965
  145.2917  139.1881  143.4737 LP  0  0  0  0  0  0  0  0  0  0  0  0  # atno 17321 bound_to 7965
  140.6550  143.8617  150.6826 LP  0  0  0  0  0  0  0  0  0  0  0  0  # atno 17342 bound_to 10162
  140.1994  143.3972  152.1803 LP  0  0  0  0  0  0  0  0  0  0  0  0  # atno 17343 bound_to 10162
  157.0183  130.9971  151.3347 LP  0  0  0  0  0  0  0  0  0  0  0  0  # atno 17370 bound_to 10713
  157.5362  130.8090  149.7975 LP  0  0  0  0  0  0  0  0  0  0  0  0  # atno 17371 bound_to 10713
  140.5651  134.0497  155.7412 LP  0  0  0  0  0  0  0  0  0  0  0  0  # atno 17394 bound_to 11000
  141.1209  133.9463  157.2732 LP  0  0  0  0  0  0  0  0  0  0  0  0  # atno 17395 bound_to 11000

$$$$
