AV-unprocessed.smi:67|AV-procd|sdf|632|dock4
  -GOLD-   2262016523D 1   1.00000     0.00000
 Structure written by MMmdl.
 49 51  0  0  0  0  0  0  0  0  3 V2000
  146.6191  132.5798  149.8175 O   0  0  0  0  0  0  0  0  0  0  0  0
  145.4281  132.5835  150.5845 C   0  0  2  0  0  0  0  0  0  0  0  0
  145.7377  132.0792  152.0125 C   0  0  0  0  0  0  0  0  0  0  0  0
  146.5268  130.8177  152.0085 N   0  3  2  0  0  0  0  0  0  0  0  0
  145.7522  129.6493  151.5174 C   0  0  0  0  0  0  0  0  0  0  0  0
  146.6453  128.4027  151.3892 C   0  0  0  0  0  0  0  0  0  0  0  0
  147.3498  128.0653  152.7127 C   0  0  2  0  0  0  0  0  0  0  0  0
  146.3484  127.6546  153.6417 O   0  0  0  0  0  0  0  0  0  0  0  0
  146.7132  127.1262  154.8634 C   0  0  0  0  0  0  0  0  0  0  0  0
  148.0509  126.7011  154.9922 C   0  0  0  0  0  0  0  0  0  0  0  0
  148.5197  126.1516  156.1999 C   0  0  0  0  0  0  0  0  0  0  0  0
  147.6508  126.0196  157.2982 C   0  0  0  0  0  0  0  0  0  0  0  0
  146.3073  126.4379  157.1913 C   0  0  0  0  0  0  0  0  0  0  0  0
  145.3472  126.3082  158.3644 C   0  0  0  0  0  0  0  0  0  0  0  0
  144.3426  125.4964  158.0344 F   0  0  0  0  0  0  0  0  0  0  0  0
  145.9472  125.8159  159.4487 F   0  0  0  0  0  0  0  0  0  0  0  0
  144.8492  127.5082  158.6612 F   0  0  0  0  0  0  0  0  0  0  0  0
  145.8468  126.9922  155.9777 C   0  0  0  0  0  0  0  0  0  0  0  0
  148.1067  129.3111  153.2173 C   0  0  0  0  0  0  0  0  0  0  0  0
  147.1793  130.5343  153.3134 C   0  0  0  0  0  0  0  0  0  0  0  0
  144.3413  131.7851  149.8567 C   0  0  0  0  0  0  0  0  0  0  0  0
  143.8044  132.7595  148.8060 C   0  0  0  0  0  0  0  0  0  0  0  0
  144.0017  134.1125  149.3605 N   0  3  0  0  0  0  0  0  0  0  0  0
  144.8594  134.0129  150.5594 C   0  0  0  0  0  0  0  0  0  0  0  0
  147.1914  131.9004  150.1420 H   0  0  0  0  0  0  0  0  0  0  0  0
  146.2506  132.8498  152.5908 H   0  0  0  0  0  0  0  0  0  0  0  0
  144.7911  131.9152  152.5298 H   0  0  0  0  0  0  0  0  0  0  0  0
  144.9188  129.4520  152.1936 H   0  0  0  0  0  0  0  0  0  0  0  0
  145.3227  129.8797  150.5415 H   0  0  0  0  0  0  0  0  0  0  0  0
  146.0517  127.5508  151.0552 H   0  0  0  0  0  0  0  0  0  0  0  0
  147.3941  128.5751  150.6149 H   0  0  0  0  0  0  0  0  0  0  0  0
  148.0411  127.2463  152.5124 H   0  0  0  0  0  0  0  0  0  0  0  0
  148.7270  126.7981  154.1552 H   0  0  0  0  0  0  0  0  0  0  0  0
  149.5477  125.8316  156.2842 H   0  0  0  0  0  0  0  0  0  0  0  0
  148.0254  125.5976  158.2188 H   0  0  0  0  0  0  0  0  0  0  0  0
  144.8156  127.3055  155.9305 H   0  0  0  0  0  0  0  0  0  0  0  0
  148.5678  129.1247  154.1867 H   0  0  0  0  0  0  0  0  0  0  0  0
  148.9262  129.5352  152.5332 H   0  0  0  0  0  0  0  0  0  0  0  0
  147.7597  131.3987  153.6354 H   0  0  0  0  0  0  0  0  0  0  0  0
  146.4167  130.3667  154.0759 H   0  0  0  0  0  0  0  0  0  0  0  0
  144.7053  130.8531  149.4218 H   0  0  0  0  0  0  0  0  0  0  0  0
  143.5397  131.5316  150.5522 H   0  0  0  0  0  0  0  0  0  0  0  0
  144.3851  132.6779  147.8862 H   0  0  0  0  0  0  0  0  0  0  0  0
  142.7581  132.5755  148.5608 H   0  0  0  0  0  0  0  0  0  0  0  0
  144.4484  134.6928  148.6644 H   0  0  0  0  0  0  0  0  0  0  0  0
  144.2201  134.1818  151.4267 H   0  0  0  0  0  0  0  0  0  0  0  0
  145.6298  134.7852  150.5689 H   0  0  0  0  0  0  0  0  0  0  0  0
  143.1119  134.5171  149.6162 H   0  0  0  0  0  0  0  0  0  0  0  0
  147.2710  130.9570  151.3397 H   0  0  0  0  0  0  0  0  0  0  0  0
  1  2  1  0  0  0  0
  1 25  1  0  0  0  0
  2 24  1  0  0  0  0
  2  3  1  0  0  0  0
  2 21  1  0  0  0  0
  3  4  1  0  0  0  0
  3 26  1  0  0  0  0
  3 27  1  0  0  0  0
  4 20  1  0  0  0  0
  4  5  1  0  0  0  0
  4 49  1  0  0  0  0
  5  6  1  0  0  0  0
  5 28  1  0  0  0  0
  5 29  1  0  0  0  0
  6  7  1  0  0  0  0
  6 30  1  0  0  0  0
  6 31  1  0  0  0  0
  7  8  1  0  0  0  0
  7 19  1  0  0  0  0
  7 32  1  0  0  0  0
  8  9  1  0  0  0  0
  9 18  1  0  0  0  0
  9 10  2  0  0  0  0
 10 11  1  0  0  0  0
 10 33  1  0  0  0  0
 11 12  2  0  0  0  0
 11 34  1  0  0  0  0
 12 13  1  0  0  0  0
 12 35  1  0  0  0  0
 13 14  1  0  0  0  0
 13 18  2  0  0  0  0
 14 15  1  0  0  0  0
 14 16  1  0  0  0  0
 14 17  1  0  0  0  0
 18 36  1  0  0  0  0
 19 20  1  0  0  0  0
 19 37  1  0  0  0  0
 19 38  1  0  0  0  0
 20 39  1  0  0  0  0
 20 40  1  0  0  0  0
 21 22  1  0  0  0  0
 21 41  1  0  0  0  0
 21 42  1  0  0  0  0
 22 23  1  0  0  0  0
 22 43  1  0  0  0  0
 22 44  1  0  0  0  0
 23 24  1  0  0  0  0
 23 45  1  0  0  0  0
 23 48  1  0  0  0  0
 24 46  1  0  0  0  0
 24 47  1  0  0  0  0
M  CHG  1   4   1
M  CHG  1  23   1
M  END
> <s_m_source_file>
AV-unprocessed.smi

> <i_m_source_file_index>
67

> <i_lp_mmshare_version>
43012

> <i_f3d_flags>
0

> <s_epik_input>
W0NIMl0xW05IXVtDSDJdW0NIMl1bQ0BAXTEoW09IXSlbQ0gyXU4yW0NIMl1bQ0gyXVtDSF0oW0NIMl1bQ0gyXTIpT2MzW2NIXVtjSF1bY0hdYyhDKEYpKEYpRilbY0hdMw==

> <s_epik_cmdline>
J2VwaWtfcHl0aG9uJywgJy1waCcsICc3LjAnLCAnLXRuJywgJzgnLCAnLW1hJywgJzIwMCcsICctbWV0YWxfYmluZGluZycsICctaW1hZScsICc8aW5maWxlLm1hZT4nLCAnLW9tYWUnLCAnPG91dGZpbGUubWFlPic=

> <r_lp_tautomer_probability>
1

> <r_epik_Ionization_Penalty>
0.0989853

> <r_epik_Ionization_Penalty_Charging>
0.0989662

> <r_epik_Ionization_Penalty_Neutral>
1.91014e-05

> <r_epik_State_Penalty>
0.0852826

> <r_epik_Charging_Adjusted_Penalty>
0.184249

> <i_epik_Tot_Q>
2

> <i_epik_Tot_abs_Q>
2

> <r_epik_Metal_State_Penalty>
0.0849414

> <b_epik_Metal_Only>
0

> <s_lp_Force_Field>
OPLS_2005

> <r_lp_Energy>
57.0803

> <b_lp_Chiralities_Consistent>
1

> <s_lp_Variant>
AV-unprocessed.smi:67-4

> <Gold.Version>
5.8.1

> <Gold.Id.Protein>
6NUR|6NUR_protein|mol2

> <Gold.PLP.Fitness>
47.5893

> <Gold.PLP.PLP>
-34.2115

> <Gold.PLP.part.hbond>
-4.9860

> <Gold.PLP.part.metal>
0.0000

> <Gold.PLP.part.buried>
-4.7540

> <Gold.PLP.part.nonpolar>
-25.7207

> <Gold.PLP.part.repulsive>
0.1628

> <Gold.PLP.ligand.clash>
0.0904

> <Gold.PLP.ligand.torsion>
0.4747

> <Gold.PLP.Chemscore.Hbond>
4.6760

> <Gold.PLP.Chemscore.CHOScore>
0.0000

> <Gold.PLP.Chemscore.Metal>
0.0000

> <Gold.Chemscore.Hbonds>
donor molecule, donor type, donor heavy atom, donor atom, acceptor molecule, acceptor atom, score
      L1  H     1    25       P1 10747  0.93
      L1  H     4    49       P1 10747  1.00
      L1  H    23    45       P1  7921  0.82
      L1  H    23    48       P1 10186  1.62

> <Gold.PLP.Chemscore.Internal.Correction>
0.3895

> <Gold.Rescore>
     Score         DG    S(hbond)    S(metal)    S(lipo)     H(rot)  DE(clash)    DE(int)     intcor
     20.79     -22.36       3.46        0.00      94.28       2.24       0.52       1.05       ----

> <Gold.Chemscore.Fitness>
20.7852

> <Gold.Chemscore.DG>
-22.3574

> <Gold.Chemscore.ZeroCoef>
-5.4800

> <Gold.Chemscore.Hbond>
3.4635

> <Gold.Chemscore.Metal>
0.0000

> <Gold.Chemscore.Lipo>
94.2850

> <Gold.Chemscore.Internal_Hbond>
0.0000

> <Gold.Chemscore.DEClash>
0.5244

> <Gold.Chemscore.DEInternal>
1.0479

> <Gold.Chemscore.Rot>
2.2352

> <Gold.Chemscore.Internal.Correction>
   9.000000E+99

> <Gold.Chemscore.Hbonds>
donor molecule, donor type, donor heavy atom, donor atom, acceptor molecule, acceptor atom, score
      L1  H     1    25       P1 10747  0.86
      L1  H     4    49       P1 10747  0.95
      L1  H    23    45       P1  7921  0.80
      L1  H    23    48       P1 10186  0.74

> <Gold.Chemscore.Hbond.Weighted>
-11.5682

> <Gold.Chemscore.Metal.Weighted>
-0.0000

> <Gold.Chemscore.Lipo.Weighted>
-11.0313

> <Gold.Chemscore.Internal_Hbond.Weighted>
0.0000

> <Gold.Chemscore.DEClash.Weighted>
0.5244

> <Gold.Chemscore.DEInternal.Weighted>
1.0479

> <Gold.Chemscore.Rot.Weighted>
5.7221

> <Gold.Chemscore.Internal.Correction.Weighted>
   9.000000E+99

> <Gold.Protein.RotatedTorsions>
[ 6907 6896 6895 6894 ] final  179.86 input  -60.11 | X-H torsion
[ 7974 7965 7964 7962 ] final   60.06 input  175.53 | X-H torsion
[ 8008 7997 7996 7995 ] final -119.81 input   59.86 | X-H torsion
[ 10167 10162 10161 10158 ] final  -97.45 input  -65.29 | X-H torsion
[ 10718 10713 10712 10709 ] final   -0.25 input   66.30 | X-H torsion
[ 10763 10752 10751 10750 ] final  -56.14 input  -60.55 | X-H torsion
[ 11005 11000 10999 10996 ] final -164.07 input  -57.11 | X-H torsion

> <Gold.Protein.ActiveResidues>
 VAL166  LYS551  ARG553  GLY616  TRP617  ASP618  TYR619  PRO620  LYS621  CYS622 
 ASP623  PHE694  ASN695  SER759  ASP760  ASP761  ALA762  ILE779  LEU786  VAL792 
 PHE793  MET794  SER795  GLU796  ALA797  LYS798  CYS799  TRP800  GLU811  SER814 

> <Gold.Protein.RotatedAtoms>
  151.6649  133.3315  159.3182 H   0  0  0  0  0  0  0  0  0  0  0  0  # atno 6907 bound_to 6896
  150.7895  134.6912  159.6507 H   0  0  0  0  0  0  0  0  0  0  0  0  # atno 6908 bound_to 6896
  152.3972  134.6349  160.0136 H   0  0  0  0  0  0  0  0  0  0  0  0  # atno 6909 bound_to 6896
  145.9002  139.3576  143.0597 H   0  0  0  0  0  0  0  0  0  0  0  0  # atno 7974 bound_to 7965
  155.1217  140.0398  157.2751 H   0  0  0  0  0  0  0  0  0  0  0  0  # atno 8008 bound_to 7997
  154.6609  140.2590  155.7084 H   0  0  0  0  0  0  0  0  0  0  0  0  # atno 8009 bound_to 7997
  156.2618  140.2817  156.1080 H   0  0  0  0  0  0  0  0  0  0  0  0  # atno 8010 bound_to 7997
  140.2833  143.3268  152.0420 H   0  0  0  0  0  0  0  0  0  0  0  0  # atno 10167 bound_to 10162
  156.8232  130.5463  149.5695 H   0  0  0  0  0  0  0  0  0  0  0  0  # atno 10718 bound_to 10713
  154.2019  135.6409  153.5089 H   0  0  0  0  0  0  0  0  0  0  0  0  # atno 10763 bound_to 10752
  153.0010  135.5453  154.6306 H   0  0  0  0  0  0  0  0  0  0  0  0  # atno 10764 bound_to 10752
  154.5721  135.2918  155.0790 H   0  0  0  0  0  0  0  0  0  0  0  0  # atno 10765 bound_to 10752
  140.5910  134.5044  157.5193 H   0  0  0  0  0  0  0  0  0  0  0  0  # atno 11005 bound_to 11000
  145.8800  140.9368  143.0606 LP  0  0  0  0  0  0  0  0  0  0  0  0  # atno 17320 bound_to 7965
  144.6735  140.0767  143.7471 LP  0  0  0  0  0  0  0  0  0  0  0  0  # atno 17321 bound_to 7965
  139.4957  144.6576  151.6536 LP  0  0  0  0  0  0  0  0  0  0  0  0  # atno 17342 bound_to 10162
  140.5794  143.9973  150.6259 LP  0  0  0  0  0  0  0  0  0  0  0  0  # atno 17343 bound_to 10162
  156.0977  130.5945  150.9841 LP  0  0  0  0  0  0  0  0  0  0  0  0  # atno 17370 bound_to 10713
  157.6446  131.0906  150.8181 LP  0  0  0  0  0  0  0  0  0  0  0  0  # atno 17371 bound_to 10713
  139.9274  134.8029  156.1029 LP  0  0  0  0  0  0  0  0  0  0  0  0  # atno 17394 bound_to 11000
  141.0935  133.6705  156.2592 LP  0  0  0  0  0  0  0  0  0  0  0  0  # atno 17395 bound_to 11000

$$$$
