AV-unprocessed.smi:2260|AV-procd|sdf|9134|dock1
  -GOLD-   2272012343D 1   1.00000     0.00000
 Structure written by MMmdl.
 42 43  0  0  0  0  0  0  0  0  1 V2000
  151.4538  144.8246  160.0520 C   0  0  0  0  0  0  0  0  0  0  0  0
  152.2373  143.8386  160.9012 C   0  0  0  0  0  0  0  0  0  0  0  0
  152.3533  143.8766  162.2329 C   0  0  0  0  0  0  0  0  0  0  0  0
  153.3078  142.5569  162.8664 S   0  0  0  0  0  0  0  0  0  0  0  0
  153.5516  141.9199  161.2000 C   0  0  0  0  0  0  0  0  0  0  0  0
  154.1988  140.9012  160.9623 O   0  0  0  0  0  0  0  0  0  0  0  0
  152.9007  142.7615  160.2998 N   0  0  0  0  0  0  0  0  0  0  0  0
  152.9232  142.5140  158.8561 C   0  0  0  0  0  0  0  0  0  0  0  0
  151.5251  142.1438  158.3388 C   0  0  0  0  0  0  0  0  0  0  0  0
  151.5831  140.8432  157.6898 N   0  0  0  0  0  0  0  0  0  0  0  0
  150.9857  140.8459  156.3568 C   0  0  2  0  0  0  0  0  0  0  0  0
  149.5488  141.4177  156.4137 C   0  0  0  0  0  0  0  0  0  0  0  0
  148.8851  141.4102  155.0301 C   0  0  0  0  0  0  0  0  0  0  0  0
  148.8975  140.0059  154.4156 C   0  0  0  0  0  0  0  0  0  0  0  0
  150.3267  139.4409  154.3584 C   0  0  0  0  0  0  0  0  0  0  0  0
  151.0383  139.4137  155.7360 C   0  0  0  0  0  0  0  0  0  0  0  0
  152.5077  139.0048  155.4944 C   0  0  0  0  0  0  0  0  0  0  0  0
  150.3795  138.3458  156.6440 C   0  0  0  0  0  0  0  0  0  0  0  0
  150.7279  145.3588  160.6659 H   0  0  0  0  0  0  0  0  0  0  0  0
  150.9016  144.3272  159.2549 H   0  0  0  0  0  0  0  0  0  0  0  0
  152.1264  145.5586  159.6079 H   0  0  0  0  0  0  0  0  0  0  0  0
  151.9173  144.6120  162.8928 H   0  0  0  0  0  0  0  0  0  0  0  0
  153.3132  143.3825  158.3252 H   0  0  0  0  0  0  0  0  0  0  0  0
  153.6236  141.7065  158.6354 H   0  0  0  0  0  0  0  0  0  0  0  0
  150.8164  142.1241  159.1664 H   0  0  0  0  0  0  0  0  0  0  0  0
  151.1776  142.8936  157.6275 H   0  0  0  0  0  0  0  0  0  0  0  0
  151.1493  140.1360  158.2662 H   0  0  0  0  0  0  0  0  0  0  0  0
  151.5839  141.4971  155.7172 H   0  0  0  0  0  0  0  0  0  0  0  0
  148.9387  140.8487  157.1156 H   0  0  0  0  0  0  0  0  0  0  0  0
  149.5564  142.4424  156.7843 H   0  0  0  0  0  0  0  0  0  0  0  0
  147.8600  141.7743  155.1059 H   0  0  0  0  0  0  0  0  0  0  0  0
  149.4111  142.1014  154.3704 H   0  0  0  0  0  0  0  0  0  0  0  0
  148.2509  139.3433  154.9911 H   0  0  0  0  0  0  0  0  0  0  0  0
  148.4757  140.0416  153.4107 H   0  0  0  0  0  0  0  0  0  0  0  0
  150.3035  138.4397  153.9261 H   0  0  0  0  0  0  0  0  0  0  0  0
  150.9068  140.0500  153.6633 H   0  0  0  0  0  0  0  0  0  0  0  0
  152.5726  138.0384  154.9931 H   0  0  0  0  0  0  0  0  0  0  0  0
  153.0641  138.9204  156.4286 H   0  0  0  0  0  0  0  0  0  0  0  0
  153.0274  139.7324  154.8704 H   0  0  0  0  0  0  0  0  0  0  0  0
  150.3761  137.3688  156.1598 H   0  0  0  0  0  0  0  0  0  0  0  0
  149.3458  138.5858  156.8894 H   0  0  0  0  0  0  0  0  0  0  0  0
  150.9152  138.2295  157.5864 H   0  0  0  0  0  0  0  0  0  0  0  0
  1  2  1  0  0  0  0
  1 19  1  0  0  0  0
  1 20  1  0  0  0  0
  1 21  1  0  0  0  0
  2  7  1  0  0  0  0
  2  3  2  0  0  0  0
  3  4  1  0  0  0  0
  3 22  1  0  0  0  0
  4  5  1  0  0  0  0
  5  6  2  0  0  0  0
  5  7  1  0  0  0  0
  7  8  1  0  0  0  0
  8  9  1  0  0  0  0
  8 23  1  0  0  0  0
  8 24  1  0  0  0  0
  9 10  1  0  0  0  0
  9 25  1  0  0  0  0
  9 26  1  0  0  0  0
 10 11  1  0  0  0  0
 10 27  1  0  0  0  0
 11 16  1  0  0  0  0
 11 12  1  0  0  0  0
 11 28  1  0  0  0  0
 12 13  1  0  0  0  0
 12 29  1  0  0  0  0
 12 30  1  0  0  0  0
 13 14  1  0  0  0  0
 13 31  1  0  0  0  0
 13 32  1  0  0  0  0
 14 15  1  0  0  0  0
 14 33  1  0  0  0  0
 14 34  1  0  0  0  0
 15 16  1  0  0  0  0
 15 35  1  0  0  0  0
 15 36  1  0  0  0  0
 16 17  1  0  0  0  0
 16 18  1  0  0  0  0
 17 37  1  0  0  0  0
 17 38  1  0  0  0  0
 17 39  1  0  0  0  0
 18 40  1  0  0  0  0
 18 41  1  0  0  0  0
 18 42  1  0  0  0  0
M  END
> <s_m_source_file>
AV-unprocessed.smi

> <i_m_source_file_index>
2260

> <i_lp_mmshare_version>
43012

> <i_f3d_flags>
0

> <s_epik_input>
W0NIM11jMVtjSF1zYyg9TyluMVtDSDJdW0NIMl1bTkhdW0NAQEhdKEMyKFtDSDNdKVtDSDNdKVtDSDJdW0NIMl1bQ0gyXVtDSDJdMg==

> <s_epik_cmdline>
J2VwaWtfcHl0aG9uJywgJy1waCcsICc3LjAnLCAnLXRuJywgJzgnLCAnLW1hJywgJzIwMCcsICctbWV0YWxfYmluZGluZycsICctaW1hZScsICc8aW5maWxlLm1hZT4nLCAnLW9tYWUnLCAnPG91dGZpbGUubWFlPic=

> <r_epik_Ionization_Penalty>
2.34504

> <r_epik_Ionization_Penalty_Charging>
4.7617e-06

> <r_epik_Ionization_Penalty_Neutral>
2.34504

> <r_epik_State_Penalty>
2.49894

> <r_epik_Charging_Adjusted_Penalty>
2.49895

> <i_epik_Tot_Q>
0

> <i_epik_Tot_abs_Q>
0

> <r_epik_Metal_State_Penalty>
2.49894

> <b_epik_Metal_Only>
0

> <s_lp_Force_Field>
OPLS_2005

> <r_lp_Energy>
25.4326

> <b_lp_Chiralities_Consistent>
1

> <s_lp_Variant>
AV-unprocessed.smi:2260-3

> <Gold.Version>
5.8.1

> <Gold.Id.Protein>
6NUR|6NUR_protein|mol2

> <Gold.PLP.Fitness>
43.2542

> <Gold.PLP.PLP>
-44.8063

> <Gold.PLP.part.hbond>
0.0000

> <Gold.PLP.part.metal>
0.0000

> <Gold.PLP.part.buried>
-4.3288

> <Gold.PLP.part.nonpolar>
-41.0620

> <Gold.PLP.part.repulsive>
0.0000

> <Gold.PLP.ligand.clash>
0.0000

> <Gold.PLP.ligand.torsion>
0.7883

> <Gold.PLP.Chemscore.Hbond>
0.0000

> <Gold.PLP.Chemscore.CHOScore>
0.0000

> <Gold.PLP.Chemscore.Metal>
0.0000

> <Gold.PLP.Chemscore.Internal.Correction>
0.0244

> <Gold.Rescore>
     Score         DG    S(hbond)    S(metal)    S(lipo)     H(rot)  DE(clash)    DE(int)     intcor
     15.00     -15.97       0.00        0.00     120.88       1.43       0.19       0.78       ----

> <Gold.Chemscore.Fitness>
14.9952

> <Gold.Chemscore.DG>
-15.9657

> <Gold.Chemscore.ZeroCoef>
-5.4800

> <Gold.Chemscore.Hbond>
0.0000

> <Gold.Chemscore.Metal>
0.0000

> <Gold.Chemscore.Lipo>
120.8766

> <Gold.Chemscore.Internal_Hbond>
0.0000

> <Gold.Chemscore.DEClash>
0.1885

> <Gold.Chemscore.DEInternal>
0.7819

> <Gold.Chemscore.Rot>
1.4285

> <Gold.Chemscore.Internal.Correction>
   9.000000E+99

> <Gold.Chemscore.Hbond.Weighted>
-0.0000

> <Gold.Chemscore.Metal.Weighted>
-0.0000

> <Gold.Chemscore.Lipo.Weighted>
-14.1426

> <Gold.Chemscore.Internal_Hbond.Weighted>
0.0000

> <Gold.Chemscore.DEClash.Weighted>
0.1885

> <Gold.Chemscore.DEInternal.Weighted>
0.7819

> <Gold.Chemscore.Rot.Weighted>
3.6569

> <Gold.Chemscore.Internal.Correction.Weighted>
   9.000000E+99

> <Gold.Protein.RotatedTorsions>
[ 6907 6896 6895 6894 ] final  -22.68 input  -60.11 | X-H torsion
[ 7974 7965 7964 7962 ] final  166.65 input  175.53 | X-H torsion
[ 8008 7997 7996 7995 ] final  149.01 input   59.86 | X-H torsion
[ 10167 10162 10161 10158 ] final   87.15 input  -65.29 | X-H torsion
[ 10718 10713 10712 10709 ] final -119.58 input   66.30 | X-H torsion
[ 10763 10752 10751 10750 ] final -110.14 input  -60.55 | X-H torsion
[ 11005 11000 10999 10996 ] final   29.63 input  -57.11 | X-H torsion

> <Gold.Protein.ActiveResidues>
 VAL166  LYS551  ARG553  GLY616  TRP617  ASP618  TYR619  PRO620  LYS621  CYS622 
 ASP623  PHE694  ASN695  SER759  ASP760  ASP761  ALA762  ILE779  LEU786  VAL792 
 PHE793  MET794  SER795  GLU796  ALA797  LYS798  CYS799  TRP800  GLU811  SER814 

> <Gold.Protein.RotatedAtoms>
  151.2150  135.0496  159.8926 H   0  0  0  0  0  0  0  0  0  0  0  0  # atno 6907 bound_to 6896
  152.5421  134.0703  159.8201 H   0  0  0  0  0  0  0  0  0  0  0  0  # atno 6908 bound_to 6896
  151.0861  133.5304  159.2649 H   0  0  0  0  0  0  0  0  0  0  0  0  # atno 6909 bound_to 6896
  144.7454  139.8646  143.6384 H   0  0  0  0  0  0  0  0  0  0  0  0  # atno 7974 bound_to 7965
  156.2770  140.2113  156.5790 H   0  0  0  0  0  0  0  0  0  0  0  0  # atno 8008 bound_to 7997
  154.7074  140.0515  157.0540 H   0  0  0  0  0  0  0  0  0  0  0  0  # atno 8009 bound_to 7997
  155.0652  140.3171  155.4651 H   0  0  0  0  0  0  0  0  0  0  0  0  # atno 8010 bound_to 7997
  139.8803  144.6444  150.8851 H   0  0  0  0  0  0  0  0  0  0  0  0  # atno 10167 bound_to 10162
  156.1192  130.6310  150.9434 H   0  0  0  0  0  0  0  0  0  0  0  0  # atno 10718 bound_to 10713
  154.8232  135.4575  154.0840 H   0  0  0  0  0  0  0  0  0  0  0  0  # atno 10763 bound_to 10752
  153.2176  135.6890  153.8045 H   0  0  0  0  0  0  0  0  0  0  0  0  # atno 10764 bound_to 10752
  153.7473  135.3303  155.3291 H   0  0  0  0  0  0  0  0  0  0  0  0  # atno 10765 bound_to 10752
  140.3029  134.2736  155.7750 H   0  0  0  0  0  0  0  0  0  0  0  0  # atno 11005 bound_to 11000
  146.1324  139.4362  143.0160 LP  0  0  0  0  0  0  0  0  0  0  0  0  # atno 17320 bound_to 7965
  145.7143  141.0096  143.1436 LP  0  0  0  0  0  0  0  0  0  0  0  0  # atno 17321 bound_to 7965
  140.7745  143.3591  151.1863 LP  0  0  0  0  0  0  0  0  0  0  0  0  # atno 17342 bound_to 10162
  139.7202  143.9235  152.2982 LP  0  0  0  0  0  0  0  0  0  0  0  0  # atno 17343 bound_to 10162
  157.6375  131.0914  150.8318 LP  0  0  0  0  0  0  0  0  0  0  0  0  # atno 17370 bound_to 10713
  156.8417  130.5050  149.5320 LP  0  0  0  0  0  0  0  0  0  0  0  0  # atno 17371 bound_to 10713
  141.2124  133.7658  156.9793 LP  0  0  0  0  0  0  0  0  0  0  0  0  # atno 17394 bound_to 11000
  140.1093  134.9487  157.2041 LP  0  0  0  0  0  0  0  0  0  0  0  0  # atno 17395 bound_to 11000

$$$$
