AV-unprocessed.smi:221|AV-procd|sdf|1687|dock9
  -GOLD-   2262020123D 1   1.00000     0.00000
 Structure written by MMmdl.
 50 53  0  0  0  0  0  0  0  0  1 V2000
  156.6262  134.7981  160.7115 N   0  0  0  0  0  0  0  0  0  0  0  0
  155.3450  134.9235  161.0716 C   0  0  0  0  0  0  0  0  0  0  0  0
  154.4383  134.4157  160.4148 O   0  0  0  0  0  0  0  0  0  0  0  0
  155.0284  135.7430  162.3400 C   0  0  1  0  0  0  0  0  0  0  0  0
  156.2470  136.2455  163.1284 C   0  0  0  0  0  0  0  0  0  0  0  0
  155.6679  137.3508  164.0194 C   0  0  1  0  0  0  0  0  0  0  0  0
  156.4257  138.4461  163.9542 F   0  0  0  0  0  0  0  0  0  0  0  0
  154.2552  137.6188  163.4726 C   0  0  0  0  0  0  0  0  0  0  0  0
  154.1571  136.9172  162.1962 N   0  0  0  0  0  0  0  0  0  0  0  0
  154.3057  137.7669  161.1464 C   0  0  0  0  0  0  0  0  0  0  0  0
  155.4553  138.4699  160.9648 N   0  0  0  0  0  0  0  0  0  0  0  0
  155.5692  139.3157  159.9366 C   0  0  0  0  0  0  0  0  0  0  0  0
  154.6714  139.6069  158.9924 N   0  0  0  0  0  0  0  0  0  0  0  0
  153.5157  138.9064  159.1754 C   0  0  0  0  0  0  0  0  0  0  0  0
  153.2524  137.9756  160.2187 C   0  0  0  0  0  0  0  0  0  0  0  0
  151.9711  137.4563  160.0852 N   0  0  0  0  0  0  0  0  0  0  0  0
  151.5021  138.0458  159.0193 C   0  0  0  0  0  0  0  0  0  0  0  0
  152.3640  138.9285  158.4084 N   0  0  0  0  0  0  0  0  0  0  0  0
  152.0946  139.7101  157.2146 C   0  0  0  0  0  0  0  0  0  0  0  0
  151.2688  140.9883  157.5021 C   0  0  2  0  0  0  0  0  0  0  0  0
  150.3979  141.4161  156.2957 C   0  0  0  0  0  0  0  0  0  0  0  0
  149.2762  142.1693  156.7089 O   0  0  0  0  0  0  0  0  0  0  0  0
  152.1618  142.1435  158.0217 C   0  0  2  0  0  0  0  0  0  0  0  0
  152.9050  141.8433  159.3119 C   0  0  0  0  0  0  0  0  0  0  0  0
  153.2788  143.2378  159.8015 C   0  0  0  0  0  0  0  0  0  0  0  0
  152.2292  144.0934  159.3645 O   0  0  0  0  0  0  0  0  0  0  0  0
  151.3996  143.4085  158.4313 C   0  0  0  0  0  0  0  0  0  0  0  0
  154.4817  135.0544  162.9868 H   0  0  0  0  0  0  0  0  0  0  0  0
  155.6300  137.0493  165.0665 H   0  0  0  0  0  0  0  0  0  0  0  0
  156.8650  134.2680  159.8862 H   0  0  0  0  0  0  0  0  0  0  0  0
  157.3495  135.2335  161.2653 H   0  0  0  0  0  0  0  0  0  0  0  0
  156.7155  135.4519  163.7112 H   0  0  0  0  0  0  0  0  0  0  0  0
  157.0069  136.6522  162.4593 H   0  0  0  0  0  0  0  0  0  0  0  0
  153.5057  137.1996  164.1450 H   0  0  0  0  0  0  0  0  0  0  0  0
  154.0459  138.6882  163.3979 H   0  0  0  0  0  0  0  0  0  0  0  0
  156.5132  139.8348  159.8613 H   0  0  0  0  0  0  0  0  0  0  0  0
  150.5082  137.8500  158.6434 H   0  0  0  0  0  0  0  0  0  0  0  0
  153.0568  139.9652  156.7708 H   0  0  0  0  0  0  0  0  0  0  0  0
  151.5812  139.0783  156.4889 H   0  0  0  0  0  0  0  0  0  0  0  0
  150.5742  140.7381  158.3056 H   0  0  0  0  0  0  0  0  0  0  0  0
  150.9747  142.0088  155.5859 H   0  0  0  0  0  0  0  0  0  0  0  0
  150.0468  140.5458  155.7417 H   0  0  0  0  0  0  0  0  0  0  0  0
  149.2440  142.9658  156.2013 H   0  0  0  0  0  0  0  0  0  0  0  0
  152.8956  142.4114  157.2595 H   0  0  0  0  0  0  0  0  0  0  0  0
  152.2422  141.3599  160.0313 H   0  0  0  0  0  0  0  0  0  0  0  0
  153.7787  141.2067  159.1700 H   0  0  0  0  0  0  0  0  0  0  0  0
  153.4048  143.2796  160.8835 H   0  0  0  0  0  0  0  0  0  0  0  0
  154.2098  143.5666  159.3382 H   0  0  0  0  0  0  0  0  0  0  0  0
  151.1610  144.0459  157.5795 H   0  0  0  0  0  0  0  0  0  0  0  0
  150.4652  143.1522  158.9326 H   0  0  0  0  0  0  0  0  0  0  0  0
  1  2  1  0  0  0  0
  1 30  1  0  0  0  0
  1 31  1  0  0  0  0
  2  3  2  0  0  0  0
  2  4  1  0  0  0  0
  4 28  1  0  0  0  0
  4  9  1  0  0  0  0
  4  5  1  0  0  0  0
  5  6  1  0  0  0  0
  5 32  1  0  0  0  0
  5 33  1  0  0  0  0
  6 29  1  0  0  0  0
  6  7  1  0  0  0  0
  6  8  1  0  0  0  0
  8  9  1  0  0  0  0
  8 34  1  0  0  0  0
  8 35  1  0  0  0  0
  9 10  1  0  0  0  0
 10 15  1  0  0  0  0
 10 11  2  0  0  0  0
 11 12  1  0  0  0  0
 12 13  2  0  0  0  0
 12 36  1  0  0  0  0
 13 14  1  0  0  0  0
 14 18  1  0  0  0  0
 14 15  2  0  0  0  0
 15 16  1  0  0  0  0
 16 17  2  0  0  0  0
 17 18  1  0  0  0  0
 17 37  1  0  0  0  0
 18 19  1  0  0  0  0
 19 20  1  0  0  0  0
 19 38  1  0  0  0  0
 19 39  1  0  0  0  0
 20 21  1  0  0  0  0
 20 23  1  0  0  0  0
 20 40  1  0  0  0  0
 21 22  1  0  0  0  0
 21 41  1  0  0  0  0
 21 42  1  0  0  0  0
 22 43  1  0  0  0  0
 23 27  1  0  0  0  0
 23 24  1  0  0  0  0
 23 44  1  0  0  0  0
 24 25  1  0  0  0  0
 24 45  1  0  0  0  0
 24 46  1  0  0  0  0
 25 26  1  0  0  0  0
 25 47  1  0  0  0  0
 25 48  1  0  0  0  0
 26 27  1  0  0  0  0
 27 49  1  0  0  0  0
 27 50  1  0  0  0  0
M  END
> <s_m_source_file>
AV-unprocessed.smi

> <i_m_source_file_index>
221

> <i_lp_mmshare_version>
43012

> <i_f3d_flags>
0

> <s_epik_input>
W05IMl1DKD1PKVtDQEBIXTFbQ0gyXVtDQEBIXShGKVtDSDJdTjFjKG5bY0hdbjIpYyhjMjMpbltjSF1uM1tDSDJdW0NASF0oW0NIMl1bT0hdKVtDQEBIXTRbQ0gyXVtDSDJdT1tDSDJdNA==

> <s_epik_cmdline>
J2VwaWtfcHl0aG9uJywgJy1waCcsICc3LjAnLCAnLXRuJywgJzgnLCAnLW1hJywgJzIwMCcsICctbWV0YWxfYmluZGluZycsICctaW1hZScsICc8aW5maWxlLm1hZT4nLCAnLW9tYWUnLCAnPG91dGZpbGUubWFlPic=

> <r_lp_tautomer_probability>
1

> <r_epik_Ionization_Penalty>
0.000818822

> <r_epik_Ionization_Penalty_Charging>
0

> <r_epik_Ionization_Penalty_Neutral>
0.000818822

> <r_epik_State_Penalty>
0.000440551

> <r_epik_Charging_Adjusted_Penalty>
0.000440551

> <i_epik_Tot_Q>
0

> <i_epik_Tot_abs_Q>
0

> <r_epik_Metal_State_Penalty>
-0

> <b_epik_Metal_Only>
0

> <s_lp_Force_Field>
OPLS_2005

> <r_lp_Energy>
55.6777

> <b_lp_Chiralities_Consistent>
1

> <s_lp_Variant>
AV-unprocessed.smi:221-2

> <Gold.Version>
5.8.1

> <Gold.Id.Protein>
6NUR|6NUR_protein|mol2

> <Gold.PLP.Fitness>
50.6111

> <Gold.PLP.PLP>
-40.7276

> <Gold.PLP.part.hbond>
-3.9265

> <Gold.PLP.part.metal>
0.0000

> <Gold.PLP.part.buried>
-6.5835

> <Gold.PLP.part.nonpolar>
-30.3297

> <Gold.PLP.part.repulsive>
0.0217

> <Gold.PLP.ligand.clash>
0.0000

> <Gold.PLP.ligand.torsion>
0.8513

> <Gold.PLP.Chemscore.Hbond>
3.8037

> <Gold.PLP.Chemscore.CHOScore>
0.0000

> <Gold.PLP.Chemscore.Metal>
0.0000

> <Gold.Chemscore.Hbonds>
donor molecule, donor type, donor heavy atom, donor atom, acceptor molecule, acceptor atom, score
      L1  H    22    43       P1  8028  1.00
      P1  H  6896  6908       L1    16  0.13
      P1  H  6896  6909       L1     3  0.83
      P1  H  7997  8009       L1    13  1.00

> <Gold.PLP.Chemscore.Internal.Correction>
0.1750

> <Gold.Rescore>
     Score         DG    S(hbond)    S(metal)    S(lipo)     H(rot)  DE(clash)    DE(int)     intcor
     15.31     -19.12       3.82        0.00      89.04       3.72       0.15       3.66       ----

> <Gold.Chemscore.Fitness>
15.3084

> <Gold.Chemscore.DG>
-19.1186

> <Gold.Chemscore.ZeroCoef>
-5.4800

> <Gold.Chemscore.Hbond>
3.8157

> <Gold.Chemscore.Metal>
0.0000

> <Gold.Chemscore.Lipo>
89.0424

> <Gold.Chemscore.Internal_Hbond>
0.0000

> <Gold.Chemscore.DEClash>
0.1534

> <Gold.Chemscore.DEInternal>
3.6567

> <Gold.Chemscore.Rot>
3.7202

> <Gold.Chemscore.Internal.Correction>
   9.000000E+99

> <Gold.Chemscore.Hbonds>
donor molecule, donor type, donor heavy atom, donor atom, acceptor molecule, acceptor atom, score
      L1  H    22    43       P1  8028  1.00
      P1  H  6896  6908       L1    16  0.09
      P1  H  6896  6909       L1     3  0.79
      P1  H  7997  8009       L1    13  0.95

> <Gold.Chemscore.Hbond.Weighted>
-12.7444

> <Gold.Chemscore.Metal.Weighted>
-0.0000

> <Gold.Chemscore.Lipo.Weighted>
-10.4180

> <Gold.Chemscore.Internal_Hbond.Weighted>
0.0000

> <Gold.Chemscore.DEClash.Weighted>
0.1534

> <Gold.Chemscore.DEInternal.Weighted>
3.6567

> <Gold.Chemscore.Rot.Weighted>
9.5237

> <Gold.Chemscore.Internal.Correction.Weighted>
   9.000000E+99

> <Gold.Protein.RotatedTorsions>
[ 6907 6896 6895 6894 ] final -133.23 input  -60.11 | X-H torsion
[ 7974 7965 7964 7962 ] final -176.39 input  175.53 | X-H torsion
[ 8008 7997 7996 7995 ] final  117.81 input   59.86 | X-H torsion
[ 10167 10162 10161 10158 ] final   -7.96 input  -65.29 | X-H torsion
[ 10718 10713 10712 10709 ] final   46.63 input   66.30 | X-H torsion
[ 10763 10752 10751 10750 ] final   98.20 input  -60.55 | X-H torsion
[ 11005 11000 10999 10996 ] final   22.57 input  -57.11 | X-H torsion

> <Gold.Protein.ActiveResidues>
 VAL166  LYS551  ARG553  GLY616  TRP617  ASP618  TYR619  PRO620  LYS621  CYS622 
 ASP623  PHE694  ASN695  SER759  ASP760  ASP761  ALA762  ILE779  LEU786  VAL792 
 PHE793  MET794  SER795  GLU796  ALA797  LYS798  CYS799  TRP800  GLU811  SER814 

> <Gold.Protein.RotatedAtoms>
  150.9717  133.6337  159.2736 H   0  0  0  0  0  0  0  0  0  0  0  0  # atno 6907 bound_to 6896
  151.3624  135.0905  159.9448 H   0  0  0  0  0  0  0  0  0  0  0  0  # atno 6908 bound_to 6896
  152.5185  133.9287  159.7624 H   0  0  0  0  0  0  0  0  0  0  0  0  # atno 6909 bound_to 6896
  144.7127  140.1177  143.6407 H   0  0  0  0  0  0  0  0  0  0  0  0  # atno 7974 bound_to 7965
  156.2514  140.2888  156.0736 H   0  0  0  0  0  0  0  0  0  0  0  0  # atno 8008 bound_to 7997
  155.1644  140.0400  157.2867 H   0  0  0  0  0  0  0  0  0  0  0  0  # atno 8009 bound_to 7997
  154.6370  140.2513  155.7373 H   0  0  0  0  0  0  0  0  0  0  0  0  # atno 8010 bound_to 7997
  140.7045  143.6022  150.8786 H   0  0  0  0  0  0  0  0  0  0  0  0  # atno 10167 bound_to 10162
  157.4501  130.8133  149.7780 H   0  0  0  0  0  0  0  0  0  0  0  0  # atno 10718 bound_to 10713
  153.2861  135.4156  155.1124 H   0  0  0  0  0  0  0  0  0  0  0  0  # atno 10763 bound_to 10752
  154.8505  135.3507  154.6045 H   0  0  0  0  0  0  0  0  0  0  0  0  # atno 10764 bound_to 10752
  153.6466  135.7054  153.5281 H   0  0  0  0  0  0  0  0  0  0  0  0  # atno 10765 bound_to 10752
  140.3791  134.1939  155.7664 H   0  0  0  0  0  0  0  0  0  0  0  0  # atno 11005 bound_to 11000
  145.9399  139.2662  143.1275 LP  0  0  0  0  0  0  0  0  0  0  0  0  # atno 17320 bound_to 7965
  145.9435  140.8962  143.0295 LP  0  0  0  0  0  0  0  0  0  0  0  0  # atno 17321 bound_to 7965
  139.9746  143.6018  152.2962 LP  0  0  0  0  0  0  0  0  0  0  0  0  # atno 17342 bound_to 10162
  139.6617  144.7662  151.1950 LP  0  0  0  0  0  0  0  0  0  0  0  0  # atno 17343 bound_to 10162
  155.9984  130.3895  150.2705 LP  0  0  0  0  0  0  0  0  0  0  0  0  # atno 17370 bound_to 10713
  157.0876  131.0160  151.3134 LP  0  0  0  0  0  0  0  0  0  0  0  0  # atno 17371 bound_to 10713
  141.1929  133.8162  157.0820 LP  0  0  0  0  0  0  0  0  0  0  0  0  # atno 17394 bound_to 11000
  140.0492  134.9814  157.1105 LP  0  0  0  0  0  0  0  0  0  0  0  0  # atno 17395 bound_to 11000

$$$$
