AV-unprocessed.smi:3159|AV-procd|sdf|12050|dock7
  -GOLD-   2272017473D 1   1.00000     0.00000
 Structure written by MMmdl.
 35 36  0  0  0  0  0  0  0  0  1 V2000
  150.8064  142.1827  156.3513 C   0  0  0  0  0  0  0  0  0  0  0  0
  150.4964  140.9468  155.5595 C   0  0  0  0  0  0  0  0  0  0  0  0
  149.2817  140.6132  154.8935 C   0  0  0  0  0  0  0  0  0  0  0  0
  149.5627  139.3908  154.3464 C   0  0  0  0  0  0  0  0  0  0  0  0
  148.7616  138.5897  153.5942 N   0  0  0  0  0  0  0  0  0  0  0  0
  147.4207  138.5946  153.4941 C   0  0  0  0  0  0  0  0  0  0  0  0
  146.6631  139.3612  154.0891 O   0  0  0  0  0  0  0  0  0  0  0  0
  146.9962  137.6403  152.6530 N   0  0  0  0  0  0  0  0  0  0  0  0
  145.6021  137.3639  152.3191 C   0  0  0  0  0  0  0  0  0  0  0  0
  145.4610  136.1117  151.4331 C   0  0  1  0  0  0  0  0  0  0  0  0
  146.0903  134.8494  151.9910 C   0  0  0  0  0  0  0  0  0  0  0  0
  145.3839  133.7594  151.1903 C   0  0  0  0  0  0  0  0  0  0  0  0
  144.0953  134.2782  150.8724 O   0  0  0  0  0  0  0  0  0  0  0  0
  144.0165  135.6511  151.2428 C   0  0  0  0  0  0  0  0  0  0  0  0
  150.8555  139.0430  154.6769 N   0  0  0  0  0  0  0  0  0  0  0  0
  151.6215  137.8571  154.3440 C   0  0  0  0  0  0  0  0  0  0  0  0
  151.4271  140.0087  155.4275 N   0  0  0  0  0  0  0  0  0  0  0  0
  150.0154  142.9258  156.2473 H   0  0  0  0  0  0  0  0  0  0  0  0
  151.7374  142.6417  156.0178 H   0  0  0  0  0  0  0  0  0  0  0  0
  150.9080  141.9526  157.4121 H   0  0  0  0  0  0  0  0  0  0  0  0
  148.3704  141.1895  154.8396 H   0  0  0  0  0  0  0  0  0  0  0  0
  149.2453  137.8980  153.0407 H   0  0  0  0  0  0  0  0  0  0  0  0
  147.6904  137.0571  152.2089 H   0  0  0  0  0  0  0  0  0  0  0  0
  144.9966  137.2681  153.2222 H   0  0  0  0  0  0  0  0  0  0  0  0
  145.2130  138.2308  151.7847 H   0  0  0  0  0  0  0  0  0  0  0  0
  145.8918  136.3117  150.4503 H   0  0  0  0  0  0  0  0  0  0  0  0
  147.1744  134.8212  151.8774 H   0  0  0  0  0  0  0  0  0  0  0  0
  145.8557  134.7450  153.0513 H   0  0  0  0  0  0  0  0  0  0  0  0
  145.9169  133.5651  150.2590 H   0  0  0  0  0  0  0  0  0  0  0  0
  145.3110  132.8213  151.7409 H   0  0  0  0  0  0  0  0  0  0  0  0
  143.4611  135.7228  152.1791 H   0  0  0  0  0  0  0  0  0  0  0  0
  143.4865  136.2360  150.4908 H   0  0  0  0  0  0  0  0  0  0  0  0
  151.0416  137.1875  153.7091 H   0  0  0  0  0  0  0  0  0  0  0  0
  151.8940  137.3280  155.2575 H   0  0  0  0  0  0  0  0  0  0  0  0
  152.5302  138.1442  153.8139 H   0  0  0  0  0  0  0  0  0  0  0  0
  1  2  1  0  0  0  0
  1 18  1  0  0  0  0
  1 19  1  0  0  0  0
  1 20  1  0  0  0  0
  2 17  2  0  0  0  0
  2  3  1  0  0  0  0
  3  4  2  0  0  0  0
  3 21  1  0  0  0  0
  4  5  1  0  0  0  0
  4 15  1  0  0  0  0
  5  6  1  0  0  0  0
  5 22  1  0  0  0  0
  6  7  2  0  0  0  0
  6  8  1  0  0  0  0
  8  9  1  0  0  0  0
  8 23  1  0  0  0  0
  9 10  1  0  0  0  0
  9 24  1  0  0  0  0
  9 25  1  0  0  0  0
 10 14  1  0  0  0  0
 10 11  1  0  0  0  0
 10 26  1  0  0  0  0
 11 12  1  0  0  0  0
 11 27  1  0  0  0  0
 11 28  1  0  0  0  0
 12 13  1  0  0  0  0
 12 29  1  0  0  0  0
 12 30  1  0  0  0  0
 13 14  1  0  0  0  0
 14 31  1  0  0  0  0
 14 32  1  0  0  0  0
 15 16  1  0  0  0  0
 15 17  1  0  0  0  0
 16 33  1  0  0  0  0
 16 34  1  0  0  0  0
 16 35  1  0  0  0  0
M  END
> <s_m_source_file>
AV-unprocessed.smi

> <i_m_source_file_index>
3159

> <i_lp_mmshare_version>
43012

> <i_f3d_flags>
0

> <s_epik_input>
W0NIM11jMVtjSF1jKG4objEpW0NIM10pW05IXUMoPU8pW05IXVtDSDJdW0NAQEhdMltDSDJdW0NIMl1PW0NIMl0y

> <s_epik_cmdline>
J2VwaWtfcHl0aG9uJywgJy1waCcsICc3LjAnLCAnLXRuJywgJzgnLCAnLW1hJywgJzIwMCcsICctbWV0YWxfYmluZGluZycsICctaW1hZScsICc8aW5maWxlLm1hZT4nLCAnLW9tYWUnLCAnPG91dGZpbGUubWFlPic=

> <r_lp_tautomer_probability>
1

> <r_epik_Ionization_Penalty>
9.40319e-05

> <r_epik_Ionization_Penalty_Charging>
0

> <r_epik_Ionization_Penalty_Neutral>
9.40319e-05

> <r_epik_State_Penalty>
-0

> <r_epik_Charging_Adjusted_Penalty>
0

> <i_epik_Tot_Q>
0

> <i_epik_Tot_abs_Q>
0

> <r_epik_Metal_State_Penalty>
-0

> <b_epik_Metal_Only>
0

> <s_lp_Force_Field>
OPLS_2005

> <r_lp_Energy>
19.8906

> <b_lp_Chiralities_Consistent>
1

> <s_lp_Variant>
AV-unprocessed.smi:3159-2

> <Gold.Version>
5.8.1

> <Gold.Id.Protein>
6NUR|6NUR_protein|mol2

> <Gold.PLP.Fitness>
37.0654

> <Gold.PLP.PLP>
-31.6373

> <Gold.PLP.part.hbond>
-3.8757

> <Gold.PLP.part.metal>
0.0000

> <Gold.PLP.part.buried>
-3.1291

> <Gold.PLP.part.nonpolar>
-26.6263

> <Gold.PLP.part.repulsive>
0.4435

> <Gold.PLP.ligand.clash>
0.0000

> <Gold.PLP.ligand.torsion>
0.1326

> <Gold.PLP.Chemscore.Hbond>
1.8960

> <Gold.PLP.Chemscore.CHOScore>
0.0000

> <Gold.PLP.Chemscore.Metal>
0.0000

> <Gold.Chemscore.Hbonds>
donor molecule, donor type, donor heavy atom, donor atom, acceptor molecule, acceptor atom, score
      L1  H     5    22       P1  7948  0.90
      L1  H     8    23       P1  7948  1.00
      P1  H  7989  7998       L1    17  0.01

> <Gold.PLP.Chemscore.Internal.Correction>
0.0052

> <Gold.Rescore>
     Score         DG    S(hbond)    S(metal)    S(lipo)     H(rot)  DE(clash)    DE(int)     intcor
     14.04     -15.23       1.89        0.00      56.77       1.25       0.09       1.10       ----

> <Gold.Chemscore.Fitness>
14.0405

> <Gold.Chemscore.DG>
-15.2292

> <Gold.Chemscore.ZeroCoef>
-5.4800

> <Gold.Chemscore.Hbond>
1.8866

> <Gold.Chemscore.Metal>
0.0000

> <Gold.Chemscore.Lipo>
56.7728

> <Gold.Chemscore.Internal_Hbond>
0.0000

> <Gold.Chemscore.DEClash>
0.0852

> <Gold.Chemscore.DEInternal>
1.1035

> <Gold.Chemscore.Rot>
1.2478

> <Gold.Chemscore.Internal.Correction>
   9.000000E+99

> <Gold.Chemscore.Hbonds>
donor molecule, donor type, donor heavy atom, donor atom, acceptor molecule, acceptor atom, score
      L1  H     5    22       P1  7948  0.79
      L1  H     8    23       P1  7948  0.93

> <Gold.Chemscore.Hbond.Weighted>
-6.3012

> <Gold.Chemscore.Metal.Weighted>
-0.0000

> <Gold.Chemscore.Lipo.Weighted>
-6.6424

> <Gold.Chemscore.Internal_Hbond.Weighted>
0.0000

> <Gold.Chemscore.DEClash.Weighted>
0.0852

> <Gold.Chemscore.DEInternal.Weighted>
1.1035

> <Gold.Chemscore.Rot.Weighted>
3.1944

> <Gold.Chemscore.Internal.Correction.Weighted>
   9.000000E+99

> <Gold.Protein.RotatedTorsions>
[ 6907 6896 6895 6894 ] final   68.94 input  -60.11 | X-H torsion
[ 7974 7965 7964 7962 ] final  -59.18 input  175.53 | X-H torsion
[ 8008 7997 7996 7995 ] final   97.88 input   59.86 | X-H torsion
[ 10167 10162 10161 10158 ] final  -99.94 input  -65.29 | X-H torsion
[ 10718 10713 10712 10709 ] final  -62.93 input   66.30 | X-H torsion
[ 10763 10752 10751 10750 ] final    3.41 input  -60.55 | X-H torsion
[ 11005 11000 10999 10996 ] final   81.54 input  -57.11 | X-H torsion

> <Gold.Protein.ActiveResidues>
 VAL166  LYS551  ARG553  GLY616  TRP617  ASP618  TYR619  PRO620  LYS621  CYS622 
 ASP623  PHE694  ASN695  SER759  ASP760  ASP761  ALA762  ILE779  LEU786  VAL792 
 PHE793  MET794  SER795  GLU796  ALA797  LYS798  CYS799  TRP800  GLU811  SER814 

> <Gold.Protein.RotatedAtoms>
  152.4653  134.5089  159.9747 H   0  0  0  0  0  0  0  0  0  0  0  0  # atno 6907 bound_to 6896
  151.5128  133.3475  159.2896 H   0  0  0  0  0  0  0  0  0  0  0  0  # atno 6908 bound_to 6896
  150.8635  134.8021  159.7163 H   0  0  0  0  0  0  0  0  0  0  0  0  # atno 6909 bound_to 6896
  145.8306  140.8482  143.0085 H   0  0  0  0  0  0  0  0  0  0  0  0  # atno 7974 bound_to 7965
  156.0947  140.3252  155.7861 H   0  0  0  0  0  0  0  0  0  0  0  0  # atno 8008 bound_to 7997
  155.4938  140.0563  157.2967 H   0  0  0  0  0  0  0  0  0  0  0  0  # atno 8009 bound_to 7997
  154.4659  140.1989  156.0136 H   0  0  0  0  0  0  0  0  0  0  0  0  # atno 8010 bound_to 7997
  140.2572  143.3432  152.0660 H   0  0  0  0  0  0  0  0  0  0  0  0  # atno 10167 bound_to 10162
  156.0823  130.4215  150.1205 H   0  0  0  0  0  0  0  0  0  0  0  0  # atno 10718 bound_to 10713
  153.2837  135.6943  153.7361 H   0  0  0  0  0  0  0  0  0  0  0  0  # atno 10763 bound_to 10752
  153.6338  135.3405  155.3051 H   0  0  0  0  0  0  0  0  0  0  0  0  # atno 10764 bound_to 10752
  154.8503  135.4415  154.1898 H   0  0  0  0  0  0  0  0  0  0  0  0  # atno 10765 bound_to 10752
  139.9094  134.8004  156.2055 H   0  0  0  0  0  0  0  0  0  0  0  0  # atno 11005 bound_to 11000
  144.6740  140.0666  143.7474 LP  0  0  0  0  0  0  0  0  0  0  0  0  # atno 17320 bound_to 7965
  145.9575  139.2777  143.1175 LP  0  0  0  0  0  0  0  0  0  0  0  0  # atno 17321 bound_to 7965
  139.5028  144.6742  151.6169 LP  0  0  0  0  0  0  0  0  0  0  0  0  # atno 17342 bound_to 10162
  140.5994  143.9636  150.6376 LP  0  0  0  0  0  0  0  0  0  0  0  0  # atno 17343 bound_to 10162
  156.9234  130.9690  151.3545 LP  0  0  0  0  0  0  0  0  0  0  0  0  # atno 17370 bound_to 10713
  157.5945  130.8467  149.8708 LP  0  0  0  0  0  0  0  0  0  0  0  0  # atno 17371 bound_to 10713
  141.0498  133.6894  156.1751 LP  0  0  0  0  0  0  0  0  0  0  0  0  # atno 17394 bound_to 11000
  140.6828  134.4749  157.5589 LP  0  0  0  0  0  0  0  0  0  0  0  0  # atno 17395 bound_to 11000

$$$$
