AV-unprocessed.smi:232|AV-procd|sdf|1771|dock2
  -GOLD-   2262020313D 1   1.00000     0.00000
 Structure written by MMmdl.
 52 55  0  0  0  0  0  0  0  0  1 V2000
  146.3001  134.3598  162.8190 C   0  0  0  0  0  0  0  0  0  0  0  0
  147.3622  134.4388  161.7145 C   0  0  0  0  0  0  0  0  0  0  0  0
  146.8314  135.0659  160.4105 C   0  0  2  0  0  0  0  0  0  0  0  0
  145.6872  134.2354  159.7857 C   0  0  0  0  0  0  0  0  0  0  0  0
  146.2228  133.7399  158.4384 C   0  0  0  0  0  0  0  0  0  0  0  0
  147.7306  133.9439  158.5684 C   0  0  1  0  0  0  0  0  0  0  0  0
  148.4984  133.9412  157.2324 C   0  0  0  0  0  0  0  0  0  0  0  0
  147.8799  135.1435  159.3908 N   0  0  0  0  0  0  0  0  0  0  0  0
  147.9844  136.3284  158.7387 C   0  0  0  0  0  0  0  0  0  0  0  0
  146.9395  136.8242  158.0230 N   0  0  0  0  0  0  0  0  0  0  0  0
  147.0669  137.9823  157.3680 C   0  0  0  0  0  0  0  0  0  0  0  0
  148.1292  138.7876  157.2944 N   0  0  0  0  0  0  0  0  0  0  0  0
  149.1779  138.2907  158.0112 C   0  0  0  0  0  0  0  0  0  0  0  0
  149.1893  137.0789  158.7560 C   0  0  0  0  0  0  0  0  0  0  0  0
  150.4307  136.8957  159.3519 N   0  0  0  0  0  0  0  0  0  0  0  0
  151.1174  137.9413  158.9779 C   0  0  0  0  0  0  0  0  0  0  0  0
  150.4428  138.8282  158.1696 N   0  0  0  0  0  0  0  0  0  0  0  0
  150.9684  140.0613  157.6104 C   0  0  0  0  0  0  0  0  0  0  0  0
  151.9983  140.7350  158.5383 C   0  0  1  0  0  0  0  0  0  0  0  0
  153.2532  140.1008  158.3821 O   0  0  0  0  0  0  0  0  0  0  0  0
  152.1595  142.2361  158.2361 C   0  0  2  0  0  0  0  0  0  0  0  0
  153.0281  142.9991  159.2387 C   0  0  0  0  0  0  0  0  0  0  0  0
  152.5136  144.4280  159.1522 C   0  0  0  0  0  0  0  0  0  0  0  0
  151.1874  144.3020  158.3984 C   0  0  0  0  0  0  0  0  0  0  0  0
  150.9157  142.9084  158.3619 O   0  0  0  0  0  0  0  0  0  0  0  0
  146.7057  133.8854  163.7126 H   0  0  0  0  0  0  0  0  0  0  0  0
  145.4382  133.7765  162.4945 H   0  0  0  0  0  0  0  0  0  0  0  0
  145.9463  135.3512  163.1036 H   0  0  0  0  0  0  0  0  0  0  0  0
  148.2278  134.9934  162.0786 H   0  0  0  0  0  0  0  0  0  0  0  0
  147.7152  133.4283  161.5061 H   0  0  0  0  0  0  0  0  0  0  0  0
  146.4531  136.0611  160.6512 H   0  0  0  0  0  0  0  0  0  0  0  0
  145.4161  133.3921  160.4222 H   0  0  0  0  0  0  0  0  0  0  0  0
  144.7883  134.8369  159.6467 H   0  0  0  0  0  0  0  0  0  0  0  0
  145.9567  132.7028  158.2331 H   0  0  0  0  0  0  0  0  0  0  0  0
  145.8231  134.3550  157.6311 H   0  0  0  0  0  0  0  0  0  0  0  0
  148.1304  133.1222  159.1641 H   0  0  0  0  0  0  0  0  0  0  0  0
  148.3872  132.9810  156.7285 H   0  0  0  0  0  0  0  0  0  0  0  0
  149.5645  134.1065  157.3909 H   0  0  0  0  0  0  0  0  0  0  0  0
  148.1347  134.7101  156.5497 H   0  0  0  0  0  0  0  0  0  0  0  0
  146.1938  138.3092  156.8226 H   0  0  0  0  0  0  0  0  0  0  0  0
  152.1431  138.0943  159.2809 H   0  0  0  0  0  0  0  0  0  0  0  0
  151.4103  139.8470  156.6362 H   0  0  0  0  0  0  0  0  0  0  0  0
  150.1284  140.7326  157.4283 H   0  0  0  0  0  0  0  0  0  0  0  0
  151.6850  140.6083  159.5756 H   0  0  0  0  0  0  0  0  0  0  0  0
  153.5028  139.7223  159.2112 H   0  0  0  0  0  0  0  0  0  0  0  0
  152.5407  142.3849  157.2235 H   0  0  0  0  0  0  0  0  0  0  0  0
  152.8670  142.6157  160.2473 H   0  0  0  0  0  0  0  0  0  0  0  0
  154.0925  142.9186  159.0165 H   0  0  0  0  0  0  0  0  0  0  0  0
  152.3722  144.8493  160.1480 H   0  0  0  0  0  0  0  0  0  0  0  0
  153.2061  145.0726  158.6096 H   0  0  0  0  0  0  0  0  0  0  0  0
  150.3769  144.8484  158.8807 H   0  0  0  0  0  0  0  0  0  0  0  0
  151.2895  144.6738  157.3780 H   0  0  0  0  0  0  0  0  0  0  0  0
  1  2  1  0  0  0  0
  1 26  1  0  0  0  0
  1 27  1  0  0  0  0
  1 28  1  0  0  0  0
  2  3  1  0  0  0  0
  2 29  1  0  0  0  0
  2 30  1  0  0  0  0
  3  8  1  0  0  0  0
  3  4  1  0  0  0  0
  3 31  1  0  0  0  0
  4  5  1  0  0  0  0
  4 32  1  0  0  0  0
  4 33  1  0  0  0  0
  5  6  1  0  0  0  0
  5 34  1  0  0  0  0
  5 35  1  0  0  0  0
  6  7  1  0  0  0  0
  6  8  1  0  0  0  0
  6 36  1  0  0  0  0
  7 37  1  0  0  0  0
  7 38  1  0  0  0  0
  7 39  1  0  0  0  0
  8  9  1  0  0  0  0
  9 14  1  0  0  0  0
  9 10  2  0  0  0  0
 10 11  1  0  0  0  0
 11 12  2  0  0  0  0
 11 40  1  0  0  0  0
 12 13  1  0  0  0  0
 13 17  1  0  0  0  0
 13 14  2  0  0  0  0
 14 15  1  0  0  0  0
 15 16  2  0  0  0  0
 16 17  1  0  0  0  0
 16 41  1  0  0  0  0
 17 18  1  0  0  0  0
 18 19  1  0  0  0  0
 18 42  1  0  0  0  0
 18 43  1  0  0  0  0
 19 20  1  0  0  0  0
 19 21  1  0  0  0  0
 19 44  1  0  0  0  0
 20 45  1  0  0  0  0
 21 25  1  0  0  0  0
 21 22  1  0  0  0  0
 21 46  1  0  0  0  0
 22 23  1  0  0  0  0
 22 47  1  0  0  0  0
 22 48  1  0  0  0  0
 23 24  1  0  0  0  0
 23 49  1  0  0  0  0
 23 50  1  0  0  0  0
 24 25  1  0  0  0  0
 24 51  1  0  0  0  0
 24 52  1  0  0  0  0
M  END
> <s_m_source_file>
AV-unprocessed.smi

> <i_m_source_file_index>
232

> <i_lp_mmshare_version>
43012

> <i_f3d_flags>
0

> <s_epik_input>
W0NIM11bQ0gyXVtDQEBIXTFbQ0gyXVtDSDJdW0NAQEhdKFtDSDNdKU4xYyhuW2NIXW4yKWMoYzIzKW5bY0hdbjNbQ0gyXVtDQEhdKFtPSF0pW0NAQEhdNFtDSDJdW0NIMl1bQ0gyXU80

> <s_epik_cmdline>
J2VwaWtfcHl0aG9uJywgJy1waCcsICc3LjAnLCAnLXRuJywgJzgnLCAnLW1hJywgJzIwMCcsICctbWV0YWxfYmluZGluZycsICctaW1hZScsICc8aW5maWxlLm1hZT4nLCAnLW9tYWUnLCAnPG91dGZpbGUubWFlPic=

> <r_lp_tautomer_probability>
1

> <r_epik_Ionization_Penalty>
0.00258048

> <r_epik_Ionization_Penalty_Charging>
0

> <r_epik_Ionization_Penalty_Neutral>
0.00258048

> <r_epik_State_Penalty>
0.00168551

> <r_epik_Charging_Adjusted_Penalty>
0.00168551

> <i_epik_Tot_Q>
0

> <i_epik_Tot_abs_Q>
0

> <r_epik_Metal_State_Penalty>
-0

> <b_epik_Metal_Only>
0

> <s_lp_Force_Field>
OPLS_2005

> <r_lp_Energy>
56.5001

> <b_lp_Chiralities_Consistent>
1

> <s_lp_Variant>
AV-unprocessed.smi:232-5

> <Gold.Version>
5.8.1

> <Gold.Id.Protein>
6NUR|6NUR_protein|mol2

> <Gold.PLP.Fitness>
40.2883

> <Gold.PLP.PLP>
-35.6199

> <Gold.PLP.part.hbond>
-2.0000

> <Gold.PLP.part.metal>
0.0000

> <Gold.PLP.part.buried>
-4.4462

> <Gold.PLP.part.nonpolar>
-28.5212

> <Gold.PLP.part.repulsive>
0.0864

> <Gold.PLP.ligand.clash>
0.0000

> <Gold.PLP.ligand.torsion>
0.6498

> <Gold.PLP.Chemscore.Hbond>
1.9600

> <Gold.PLP.Chemscore.CHOScore>
0.0000

> <Gold.PLP.Chemscore.Metal>
0.0000

> <Gold.Chemscore.Hbonds>
donor molecule, donor type, donor heavy atom, donor atom, acceptor molecule, acceptor atom, score
      P1  H  6896  6908       L1    15  0.98
      P1  H  7997  8010       L1    20  0.99

> <Gold.PLP.Chemscore.Internal.Correction>
0.0881

> <Gold.Rescore>
     Score         DG    S(hbond)    S(metal)    S(lipo)     H(rot)  DE(clash)    DE(int)     intcor
     15.76     -16.42       1.94        0.00      91.07       2.43       0.01       0.65       ----

> <Gold.Chemscore.Fitness>
15.7642

> <Gold.Chemscore.DG>
-16.4178

> <Gold.Chemscore.ZeroCoef>
-5.4800

> <Gold.Chemscore.Hbond>
1.9439

> <Gold.Chemscore.Metal>
0.0000

> <Gold.Chemscore.Lipo>
91.0747

> <Gold.Chemscore.Internal_Hbond>
0.0000

> <Gold.Chemscore.DEClash>
0.0073

> <Gold.Chemscore.DEInternal>
0.6462

> <Gold.Chemscore.Rot>
2.4260

> <Gold.Chemscore.Internal.Correction>
   9.000000E+99

> <Gold.Chemscore.Hbonds>
donor molecule, donor type, donor heavy atom, donor atom, acceptor molecule, acceptor atom, score
      P1  H  6896  6908       L1    15  0.84
      P1  H  7997  8010       L1    20  0.77

> <Gold.Chemscore.Hbond.Weighted>
-6.4927

> <Gold.Chemscore.Metal.Weighted>
-0.0000

> <Gold.Chemscore.Lipo.Weighted>
-10.6557

> <Gold.Chemscore.Internal_Hbond.Weighted>
0.0000

> <Gold.Chemscore.DEClash.Weighted>
0.0073

> <Gold.Chemscore.DEInternal.Weighted>
0.6462

> <Gold.Chemscore.Rot.Weighted>
6.2107

> <Gold.Chemscore.Internal.Correction.Weighted>
   9.000000E+99

> <Gold.Protein.RotatedTorsions>
[ 6907 6896 6895 6894 ] final -162.89 input  -60.11 | X-H torsion
[ 7974 7965 7964 7962 ] final  128.31 input  175.53 | X-H torsion
[ 8008 7997 7996 7995 ] final   27.39 input   59.86 | X-H torsion
[ 10167 10162 10161 10158 ] final  113.92 input  -65.29 | X-H torsion
[ 10718 10713 10712 10709 ] final   81.54 input   66.30 | X-H torsion
[ 10763 10752 10751 10750 ] final -170.72 input  -60.55 | X-H torsion
[ 11005 11000 10999 10996 ] final  100.50 input  -57.11 | X-H torsion

> <Gold.Protein.ActiveResidues>
 VAL166  LYS551  ARG553  GLY616  TRP617  ASP618  TYR619  PRO620  LYS621  CYS622 
 ASP623  PHE694  ASN695  SER759  ASP760  ASP761  ALA762  ILE779  LEU786  VAL792 
 PHE793  MET794  SER795  GLU796  ALA797  LYS798  CYS799  TRP800  GLU811  SER814 

> <Gold.Protein.RotatedAtoms>
  151.3874  133.3800  159.2716 H   0  0  0  0  0  0  0  0  0  0  0  0  # atno 6907 bound_to 6896
  150.9531  134.8930  159.7695 H   0  0  0  0  0  0  0  0  0  0  0  0  # atno 6908 bound_to 6896
  152.5120  134.3830  159.9410 H   0  0  0  0  0  0  0  0  0  0  0  0  # atno 6909 bound_to 6896
  145.0410  139.3963  143.5102 H   0  0  0  0  0  0  0  0  0  0  0  0  # atno 7974 bound_to 7965
  155.0422  140.3170  155.4720 H   0  0  0  0  0  0  0  0  0  0  0  0  # atno 8008 bound_to 7997
  156.2852  140.2161  156.5489 H   0  0  0  0  0  0  0  0  0  0  0  0  # atno 8009 bound_to 7997
  154.7280  140.0484  157.0688 H   0  0  0  0  0  0  0  0  0  0  0  0  # atno 8010 bound_to 7997
  139.6426  144.7125  151.2206 H   0  0  0  0  0  0  0  0  0  0  0  0  # atno 10167 bound_to 10162
  157.6835  131.0008  150.2241 H   0  0  0  0  0  0  0  0  0  0  0  0  # atno 10718 bound_to 10713
  154.6384  135.2895  155.0132 H   0  0  0  0  0  0  0  0  0  0  0  0  # atno 10763 bound_to 10752
  154.1268  135.6539  153.4918 H   0  0  0  0  0  0  0  0  0  0  0  0  # atno 10764 bound_to 10752
  153.0314  135.5301  154.7241 H   0  0  0  0  0  0  0  0  0  0  0  0  # atno 10765 bound_to 10752
  139.8771  134.9143  156.4765 H   0  0  0  0  0  0  0  0  0  0  0  0  # atno 11005 bound_to 11000
  146.3509  140.0010  142.8676 LP  0  0  0  0  0  0  0  0  0  0  0  0  # atno 17320 bound_to 7965
  145.1648  140.9691  143.4356 LP  0  0  0  0  0  0  0  0  0  0  0  0  # atno 17321 bound_to 7965
  140.7499  143.6285  150.8445 LP  0  0  0  0  0  0  0  0  0  0  0  0  # atno 17342 bound_to 10162
  139.9924  143.5832  152.2905 LP  0  0  0  0  0  0  0  0  0  0  0  0  # atno 17343 bound_to 10162
  156.2887  130.3743  149.7863 LP  0  0  0  0  0  0  0  0  0  0  0  0  # atno 17370 bound_to 10713
  156.5529  130.8350  151.3305 LP  0  0  0  0  0  0  0  0  0  0  0  0  # atno 17371 bound_to 10713
  140.8758  133.7954  155.9413 LP  0  0  0  0  0  0  0  0  0  0  0  0  # atno 17394 bound_to 11000
  140.8906  134.2500  157.5096 LP  0  0  0  0  0  0  0  0  0  0  0  0  # atno 17395 bound_to 11000

$$$$
