AV-unprocessed.smi:255|AV-procd|sdf|1950|dock4
  -GOLD-   2262021 83D 1   1.00000     0.00000
 Structure written by MMmdl.
 44 47  0  0  0  0  0  0  0  0  1 V2000
  149.5249  143.0166  158.0182 O   0  0  0  0  0  0  0  0  0  0  0  0
  150.3753  141.9009  157.8643 C   0  0  0  0  0  0  0  0  0  0  0  0
  149.8310  140.9646  156.7698 C   0  0  1  0  0  0  0  0  0  0  0  0
  149.6678  141.6245  155.4001 C   0  0  0  0  0  0  0  0  0  0  0  0
  149.5945  140.4189  154.4643 C   0  0  2  0  0  0  0  0  0  0  0  0
  148.3339  139.9902  154.3889 F   0  0  0  0  0  0  0  0  0  0  0  0
  150.4485  139.3477  155.1581 C   0  0  0  0  0  0  0  0  0  0  0  0
  150.7187  139.8383  156.5064 N   0  0  0  0  0  0  0  0  0  0  0  0
  150.7689  138.8842  157.4614 C   0  0  0  0  0  0  0  0  0  0  0  0
  151.9452  138.5871  158.0737 N   0  0  0  0  0  0  0  0  0  0  0  0
  151.9824  137.6434  159.0195 C   0  0  0  0  0  0  0  0  0  0  0  0
  150.9837  136.8921  159.4899 N   0  0  0  0  0  0  0  0  0  0  0  0
  149.8051  137.1834  158.8668 C   0  0  0  0  0  0  0  0  0  0  0  0
  149.6122  138.1638  157.8545 C   0  0  0  0  0  0  0  0  0  0  0  0
  148.2799  138.1972  157.4665 N   0  0  0  0  0  0  0  0  0  0  0  0
  147.7136  137.2893  158.2135 C   0  0  0  0  0  0  0  0  0  0  0  0
  148.5584  136.6145  159.0680 N   0  0  0  0  0  0  0  0  0  0  0  0
  148.1912  135.5662  160.0098 C   0  0  0  0  0  0  0  0  0  0  0  0
  147.5052  136.0578  161.3115 C   0  0  1  0  0  0  0  0  0  0  0  0
  148.4698  136.8256  162.0085 O   0  0  0  0  0  0  0  0  0  0  0  0
  146.2684  136.9339  161.1092 C   0  0  0  0  0  0  0  0  0  0  0  0
  145.4372  136.6434  162.3512 C   0  0  0  0  0  0  0  0  0  0  0  0
  145.6280  135.2507  162.5246 O   0  0  0  0  0  0  0  0  0  0  0  0
  146.9949  134.9524  162.2626 C   0  0  0  0  0  0  0  0  0  0  0  0
  148.8595  140.5793  157.0854 H   0  0  0  0  0  0  0  0  0  0  0  0
  149.9262  140.6418  153.4500 H   0  0  0  0  0  0  0  0  0  0  0  0
  149.6207  143.5734  157.2611 H   0  0  0  0  0  0  0  0  0  0  0  0
  151.3828  142.2412  157.6229 H   0  0  0  0  0  0  0  0  0  0  0  0
  150.4309  141.3838  158.8228 H   0  0  0  0  0  0  0  0  0  0  0  0
  148.7920  142.2709  155.3356 H   0  0  0  0  0  0  0  0  0  0  0  0
  150.5488  142.2226  155.1617 H   0  0  0  0  0  0  0  0  0  0  0  0
  149.9542  138.3748  155.1479 H   0  0  0  0  0  0  0  0  0  0  0  0
  151.4022  139.2343  154.6420 H   0  0  0  0  0  0  0  0  0  0  0  0
  152.9508  137.4643  159.4627 H   0  0  0  0  0  0  0  0  0  0  0  0
  146.6543  137.0842  158.1582 H   0  0  0  0  0  0  0  0  0  0  0  0
  147.5378  134.8632  159.4909 H   0  0  0  0  0  0  0  0  0  0  0  0
  149.0961  135.0089  160.2564 H   0  0  0  0  0  0  0  0  0  0  0  0
  149.2428  136.2961  162.1308 H   0  0  0  0  0  0  0  0  0  0  0  0
  146.4953  137.9934  160.9833 H   0  0  0  0  0  0  0  0  0  0  0  0
  145.6940  136.6176  160.2411 H   0  0  0  0  0  0  0  0  0  0  0  0
  145.8207  137.1821  163.2193 H   0  0  0  0  0  0  0  0  0  0  0  0
  144.3838  136.8929  162.2236 H   0  0  0  0  0  0  0  0  0  0  0  0
  147.0655  133.9518  161.8431 H   0  0  0  0  0  0  0  0  0  0  0  0
  147.5450  134.9404  163.2051 H   0  0  0  0  0  0  0  0  0  0  0  0
  1  2  1  0  0  0  0
  1 27  1  0  0  0  0
  2  3  1  0  0  0  0
  2 28  1  0  0  0  0
  2 29  1  0  0  0  0
  3 25  1  0  0  0  0
  3  8  1  0  0  0  0
  3  4  1  0  0  0  0
  4  5  1  0  0  0  0
  4 30  1  0  0  0  0
  4 31  1  0  0  0  0
  5 26  1  0  0  0  0
  5  6  1  0  0  0  0
  5  7  1  0  0  0  0
  7  8  1  0  0  0  0
  7 32  1  0  0  0  0
  7 33  1  0  0  0  0
  8  9  1  0  0  0  0
  9 14  1  0  0  0  0
  9 10  2  0  0  0  0
 10 11  1  0  0  0  0
 11 12  2  0  0  0  0
 11 34  1  0  0  0  0
 12 13  1  0  0  0  0
 13 17  1  0  0  0  0
 13 14  2  0  0  0  0
 14 15  1  0  0  0  0
 15 16  2  0  0  0  0
 16 17  1  0  0  0  0
 16 35  1  0  0  0  0
 17 18  1  0  0  0  0
 18 19  1  0  0  0  0
 18 36  1  0  0  0  0
 18 37  1  0  0  0  0
 19 24  1  0  0  0  0
 19 20  1  0  0  0  0
 19 21  1  0  0  0  0
 20 38  1  0  0  0  0
 21 22  1  0  0  0  0
 21 39  1  0  0  0  0
 21 40  1  0  0  0  0
 22 23  1  0  0  0  0
 22 41  1  0  0  0  0
 22 42  1  0  0  0  0
 23 24  1  0  0  0  0
 24 43  1  0  0  0  0
 24 44  1  0  0  0  0
M  END
> <s_m_source_file>
AV-unprocessed.smi

> <i_m_source_file_index>
255

> <i_lp_mmshare_version>
43012

> <i_f3d_flags>
0

> <s_epik_input>
W09IXVtDSDJdW0NAQEhdMVtDSDJdW0NASF0oRilbQ0gyXU4xYyhuW2NIXW4yKWMoYzIzKW5bY0hdbjNbQ0gyXVtDQEBdNChbT0hdKVtDSDJdW0NIMl1PW0NIMl00

> <s_epik_cmdline>
J2VwaWtfcHl0aG9uJywgJy1waCcsICc3LjAnLCAnLXRuJywgJzgnLCAnLW1hJywgJzIwMCcsICctbWV0YWxfYmluZGluZycsICctaW1hZScsICc8aW5maWxlLm1hZT4nLCAnLW9tYWUnLCAnPG91dGZpbGUubWFlPic=

> <r_lp_tautomer_probability>
1

> <r_epik_Ionization_Penalty>
0.0058098

> <r_epik_Ionization_Penalty_Charging>
0

> <r_epik_Ionization_Penalty_Neutral>
0.0058098

> <r_epik_State_Penalty>
0.00411166

> <r_epik_Charging_Adjusted_Penalty>
0.00411166

> <i_epik_Tot_Q>
0

> <i_epik_Tot_abs_Q>
0

> <r_epik_Metal_State_Penalty>
-0

> <b_epik_Metal_Only>
0

> <s_lp_Force_Field>
OPLS_2005

> <r_lp_Energy>
51.0345

> <b_lp_Chiralities_Consistent>
1

> <s_lp_Variant>
AV-unprocessed.smi:255-2

> <Gold.Version>
5.8.1

> <Gold.Id.Protein>
6NUR|6NUR_protein|mol2

> <Gold.PLP.Fitness>
43.5930

> <Gold.PLP.PLP>
-35.6275

> <Gold.PLP.part.hbond>
-2.8184

> <Gold.PLP.part.metal>
0.0000

> <Gold.PLP.part.buried>
-4.7401

> <Gold.PLP.part.nonpolar>
-28.3275

> <Gold.PLP.part.repulsive>
0.0000

> <Gold.PLP.ligand.clash>
0.0000

> <Gold.PLP.ligand.torsion>
0.3446

> <Gold.PLP.Chemscore.Hbond>
2.8613

> <Gold.PLP.Chemscore.CHOScore>
0.0000

> <Gold.PLP.Chemscore.Metal>
0.0000

> <Gold.Chemscore.Hbonds>
donor molecule, donor type, donor heavy atom, donor atom, acceptor molecule, acceptor atom, score
      L1  H     1    27       P1  8028  0.86
      P1  H  6896  6909       L1    12  1.00
      P1  H  6931  6943       L1    20  0.99

> <Gold.PLP.Chemscore.Internal.Correction>
0.0709

> <Gold.Rescore>
     Score         DG    S(hbond)    S(metal)    S(lipo)     H(rot)  DE(clash)    DE(int)     intcor
     12.62     -13.63       2.58        0.00      68.83       3.33       0.63       0.38       ----

> <Gold.Chemscore.Fitness>
12.6183

> <Gold.Chemscore.DG>
-13.6295

> <Gold.Chemscore.ZeroCoef>
-5.4800

> <Gold.Chemscore.Hbond>
2.5791

> <Gold.Chemscore.Metal>
0.0000

> <Gold.Chemscore.Lipo>
68.8304

> <Gold.Chemscore.Internal_Hbond>
0.0000

> <Gold.Chemscore.DEClash>
0.6268

> <Gold.Chemscore.DEInternal>
0.3844

> <Gold.Chemscore.Rot>
3.3273

> <Gold.Chemscore.Internal.Correction>
   9.000000E+99

> <Gold.Chemscore.Hbonds>
donor molecule, donor type, donor heavy atom, donor atom, acceptor molecule, acceptor atom, score
      L1  H     1    27       P1  8028  0.70
      P1  H  6896  6909       L1    12  0.81
      P1  H  6931  6943       L1    20  0.32

> <Gold.Chemscore.Hbond.Weighted>
-8.6143

> <Gold.Chemscore.Metal.Weighted>
-0.0000

> <Gold.Chemscore.Lipo.Weighted>
-8.0532

> <Gold.Chemscore.Internal_Hbond.Weighted>
0.0000

> <Gold.Chemscore.DEClash.Weighted>
0.6268

> <Gold.Chemscore.DEInternal.Weighted>
0.3844

> <Gold.Chemscore.Rot.Weighted>
8.5179

> <Gold.Chemscore.Internal.Correction.Weighted>
   9.000000E+99

> <Gold.Protein.RotatedTorsions>
[ 6907 6896 6895 6894 ] final   91.96 input  -60.11 | X-H torsion
[ 7974 7965 7964 7962 ] final  -88.09 input  175.53 | X-H torsion
[ 8008 7997 7996 7995 ] final   29.99 input   59.86 | X-H torsion
[ 10167 10162 10161 10158 ] final  -38.02 input  -65.29 | X-H torsion
[ 10718 10713 10712 10709 ] final  129.61 input   66.30 | X-H torsion
[ 10763 10752 10751 10750 ] final -123.10 input  -60.55 | X-H torsion
[ 11005 11000 10999 10996 ] final  165.70 input  -57.11 | X-H torsion

> <Gold.Protein.ActiveResidues>
 VAL166  LYS551  ARG553  GLY616  TRP617  ASP618  TYR619  PRO620  LYS621  CYS622 
 ASP623  PHE694  ASN695  SER759  ASP760  ASP761  ALA762  ILE779  LEU786  VAL792 
 PHE793  MET794  SER795  GLU796  ALA797  LYS798  CYS799  TRP800  GLU811  SER814 

> <Gold.Protein.RotatedAtoms>
  152.5451  134.1576  159.8544 H   0  0  0  0  0  0  0  0  0  0  0  0  # atno 6907 bound_to 6896
  151.1597  133.4846  159.2602 H   0  0  0  0  0  0  0  0  0  0  0  0  # atno 6908 bound_to 6896
  151.1385  135.0178  159.8670 H   0  0  0  0  0  0  0  0  0  0  0  0  # atno 6909 bound_to 6896
  145.4578  140.9561  143.1986 H   0  0  0  0  0  0  0  0  0  0  0  0  # atno 7974 bound_to 7965
  155.0833  140.3212  155.4595 H   0  0  0  0  0  0  0  0  0  0  0  0  # atno 8008 bound_to 7997
  156.2761  140.2091  156.5907 H   0  0  0  0  0  0  0  0  0  0  0  0  # atno 8009 bound_to 7997
  154.6961  140.0511  157.0399 H   0  0  0  0  0  0  0  0  0  0  0  0  # atno 8010 bound_to 7997
  140.7103  143.3304  151.2582 H   0  0  0  0  0  0  0  0  0  0  0  0  # atno 10167 bound_to 10162
  157.5138  131.1097  150.9254 H   0  0  0  0  0  0  0  0  0  0  0  0  # atno 10718 bound_to 10713
  154.8702  135.4110  154.2889 H   0  0  0  0  0  0  0  0  0  0  0  0  # atno 10763 bound_to 10752
  153.3769  135.7010  153.6601 H   0  0  0  0  0  0  0  0  0  0  0  0  # atno 10764 bound_to 10752
  153.5439  135.3642  155.2702 H   0  0  0  0  0  0  0  0  0  0  0  0  # atno 10765 bound_to 10752
  140.2589  134.7918  157.3571 H   0  0  0  0  0  0  0  0  0  0  0  0  # atno 11005 bound_to 11000
  144.8021  139.6120  143.7067 LP  0  0  0  0  0  0  0  0  0  0  0  0  # atno 17320 bound_to 7965
  146.2468  139.6115  142.9454 LP  0  0  0  0  0  0  0  0  0  0  0  0  # atno 17321 bound_to 7965
  139.6784  143.9896  152.2794 LP  0  0  0  0  0  0  0  0  0  0  0  0  # atno 17342 bound_to 10162
  139.9518  144.6615  150.8164 LP  0  0  0  0  0  0  0  0  0  0  0  0  # atno 17343 bound_to 10162
  156.9886  130.5554  149.5301 LP  0  0  0  0  0  0  0  0  0  0  0  0  # atno 17370 bound_to 10713
  156.0307  130.5398  150.8525 LP  0  0  0  0  0  0  0  0  0  0  0  0  # atno 17371 bound_to 10713
  140.1484  134.4881  155.7979 LP  0  0  0  0  0  0  0  0  0  0  0  0  # atno 17394 bound_to 11000
  141.2193  133.6853  156.7335 LP  0  0  0  0  0  0  0  0  0  0  0  0  # atno 17395 bound_to 11000

$$$$
