AV-unprocessed.smi:2962|AV-procd|sdf|11316|dock1
  -GOLD-   2272016223D 1   1.00000     0.00000
 Structure written by MMmdl.
 36 37  0  0  0  0  0  0  0  0  1 V2000
  147.5455  141.3027  153.5703 C   0  0  0  0  0  0  0  0  0  0  0  0
  148.9405  141.2695  153.8126 O   0  0  0  0  0  0  0  0  0  0  0  0
  149.2509  141.0508  155.1790 C   0  0  0  0  0  0  0  0  0  0  0  0
  150.6748  141.5418  155.4728 C   0  0  0  0  0  0  0  0  0  0  0  0
  151.0358  141.3619  156.8719 N   0  0  0  0  0  0  0  0  0  0  0  0
  151.0053  140.2258  157.6127 C   0  0  0  0  0  0  0  0  0  0  0  0
  150.4953  138.6759  156.9478 S   0  0  0  0  0  0  0  0  0  0  0  0
  151.5689  138.6443  155.4798 C   0  0  1  0  0  0  0  0  0  0  0  0
  153.0568  138.5947  155.8728 C   0  0  0  0  0  0  0  0  0  0  0  0
  151.1748  137.4981  154.5405 C   0  0  0  0  0  0  0  0  0  0  0  0
  150.4767  137.8268  153.4500 N   0  0  0  0  0  0  0  0  0  0  0  0
  151.4889  136.3344  154.7859 O   0  0  0  0  0  0  0  0  0  0  0  0
  151.3770  140.3553  158.8860 N   0  0  0  0  0  0  0  0  0  0  0  0
  151.6832  141.6985  158.9796 C   0  0  0  0  0  0  0  0  0  0  0  0
  152.1427  142.4619  160.0765 C   0  0  0  0  0  0  0  0  0  0  0  0
  152.3877  143.8432  159.9319 C   0  0  0  0  0  0  0  0  0  0  0  0
  152.1766  144.4796  158.6915 C   0  0  0  0  0  0  0  0  0  0  0  0
  151.7195  143.7372  157.5857 C   0  0  0  0  0  0  0  0  0  0  0  0
  151.4788  142.3583  157.7352 C   0  0  0  0  0  0  0  0  0  0  0  0
  147.3625  141.4672  152.5084 H   0  0  0  0  0  0  0  0  0  0  0  0
  147.0686  142.1125  154.1239 H   0  0  0  0  0  0  0  0  0  0  0  0
  147.0736  140.3604  153.8512 H   0  0  0  0  0  0  0  0  0  0  0  0
  148.5401  141.5828  155.8128 H   0  0  0  0  0  0  0  0  0  0  0  0
  149.1669  139.9888  155.4153 H   0  0  0  0  0  0  0  0  0  0  0  0
  151.3902  141.0232  154.8359 H   0  0  0  0  0  0  0  0  0  0  0  0
  150.7620  142.6007  155.2274 H   0  0  0  0  0  0  0  0  0  0  0  0
  151.4052  139.5711  154.9287 H   0  0  0  0  0  0  0  0  0  0  0  0
  153.6980  138.5070  154.9947 H   0  0  0  0  0  0  0  0  0  0  0  0
  153.2688  137.7483  156.5272 H   0  0  0  0  0  0  0  0  0  0  0  0
  153.3561  139.5012  156.3985 H   0  0  0  0  0  0  0  0  0  0  0  0
  150.1999  137.1118  152.7932 H   0  0  0  0  0  0  0  0  0  0  0  0
  150.2368  138.7932  153.2826 H   0  0  0  0  0  0  0  0  0  0  0  0
  152.3059  141.9835  161.0309 H   0  0  0  0  0  0  0  0  0  0  0  0
  152.7380  144.4177  160.7770 H   0  0  0  0  0  0  0  0  0  0  0  0
  152.3653  145.5383  158.5897 H   0  0  0  0  0  0  0  0  0  0  0  0
  151.5559  144.2213  156.6345 H   0  0  0  0  0  0  0  0  0  0  0  0
  1  2  1  0  0  0  0
  1 20  1  0  0  0  0
  1 21  1  0  0  0  0
  1 22  1  0  0  0  0
  2  3  1  0  0  0  0
  3  4  1  0  0  0  0
  3 23  1  0  0  0  0
  3 24  1  0  0  0  0
  4  5  1  0  0  0  0
  4 25  1  0  0  0  0
  4 26  1  0  0  0  0
  5 19  1  0  0  0  0
  5  6  1  0  0  0  0
  6  7  1  0  0  0  0
  6 13  2  0  0  0  0
  7  8  1  0  0  0  0
  8  9  1  0  0  0  0
  8 10  1  0  0  0  0
  8 27  1  0  0  0  0
  9 28  1  0  0  0  0
  9 29  1  0  0  0  0
  9 30  1  0  0  0  0
 10 11  1  0  0  0  0
 10 12  2  0  0  0  0
 11 31  1  0  0  0  0
 11 32  1  0  0  0  0
 13 14  1  0  0  0  0
 14 19  2  0  0  0  0
 14 15  1  0  0  0  0
 15 16  2  0  0  0  0
 15 33  1  0  0  0  0
 16 17  1  0  0  0  0
 16 34  1  0  0  0  0
 17 18  2  0  0  0  0
 17 35  1  0  0  0  0
 18 19  1  0  0  0  0
 18 36  1  0  0  0  0
M  END
> <s_m_source_file>
AV-unprocessed.smi

> <i_m_source_file_index>
2962

> <i_lp_mmshare_version>
43012

> <i_f3d_flags>
0

> <s_epik_input>
W2NIXTFbY0hdW2NIXVtjSF1jKGMxMiluKFtDSDJdW0NIMl1PW0NIM10pYyhuMilTW0NASF0oW0NIM10pQyg9TylbTkgyXQ==

> <s_epik_cmdline>
J2VwaWtfcHl0aG9uJywgJy1waCcsICc3LjAnLCAnLXRuJywgJzgnLCAnLW1hJywgJzIwMCcsICctbWV0YWxfYmluZGluZycsICctaW1hZScsICc8aW5maWxlLm1hZT4nLCAnLW9tYWUnLCAnPG91dGZpbGUubWFlPic=

> <r_epik_Ionization_Penalty>
0.0199986

> <r_epik_Ionization_Penalty_Charging>
0

> <r_epik_Ionization_Penalty_Neutral>
0.0199986

> <r_epik_State_Penalty>
0.0160044

> <r_epik_Charging_Adjusted_Penalty>
0.0160044

> <i_epik_Tot_Q>
0

> <i_epik_Tot_abs_Q>
0

> <r_epik_Metal_State_Penalty>
0.015472

> <b_epik_Metal_Only>
0

> <s_lp_Force_Field>
OPLS_2005

> <r_lp_Energy>
4.7896

> <b_lp_Chiralities_Consistent>
1

> <s_lp_Variant>
AV-unprocessed.smi:2962-2

> <Gold.Version>
5.8.1

> <Gold.Id.Protein>
6NUR|6NUR_protein|mol2

> <Gold.PLP.Fitness>
49.4046

> <Gold.PLP.PLP>
-42.4721

> <Gold.PLP.part.hbond>
-4.8745

> <Gold.PLP.part.metal>
0.0000

> <Gold.PLP.part.buried>
-3.4965

> <Gold.PLP.part.nonpolar>
-35.3295

> <Gold.PLP.part.repulsive>
0.4498

> <Gold.PLP.ligand.clash>
0.0000

> <Gold.PLP.ligand.torsion>
0.5852

> <Gold.PLP.Chemscore.Hbond>
2.6599

> <Gold.PLP.Chemscore.CHOScore>
0.0000

> <Gold.PLP.Chemscore.Metal>
0.0000

> <Gold.Chemscore.Hbonds>
donor molecule, donor type, donor heavy atom, donor atom, acceptor molecule, acceptor atom, score
      L1  H    11    31       P1  7948  0.35
      P1  H  8011  8017       L1     2  0.78
      P1  H 10752 10763       L1    12  1.00

> <Gold.PLP.Chemscore.Internal.Correction>
0.1232

> <Gold.Rescore>
     Score         DG    S(hbond)    S(metal)    S(lipo)     H(rot)  DE(clash)    DE(int)     intcor
     16.97     -17.92       1.88        0.00     107.33       2.50       0.14       0.80       ----

> <Gold.Chemscore.Fitness>
16.9738

> <Gold.Chemscore.DG>
-17.9194

> <Gold.Chemscore.ZeroCoef>
-5.4800

> <Gold.Chemscore.Hbond>
1.8830

> <Gold.Chemscore.Metal>
0.0000

> <Gold.Chemscore.Lipo>
107.3260

> <Gold.Chemscore.Internal_Hbond>
0.0000

> <Gold.Chemscore.DEClash>
0.1450

> <Gold.Chemscore.DEInternal>
0.8005

> <Gold.Chemscore.Rot>
2.5027

> <Gold.Chemscore.Internal.Correction>
   9.000000E+99

> <Gold.Chemscore.Hbonds>
donor molecule, donor type, donor heavy atom, donor atom, acceptor molecule, acceptor atom, score
      L1  H    11    31       P1  7948  0.01
      P1  H  8011  8017       L1     2  0.41
      P1  H 10752 10763       L1    12  0.99

> <Gold.Chemscore.Hbond.Weighted>
-6.2892

> <Gold.Chemscore.Metal.Weighted>
-0.0000

> <Gold.Chemscore.Lipo.Weighted>
-12.5571

> <Gold.Chemscore.Internal_Hbond.Weighted>
0.0000

> <Gold.Chemscore.DEClash.Weighted>
0.1450

> <Gold.Chemscore.DEInternal.Weighted>
0.8005

> <Gold.Chemscore.Rot.Weighted>
6.4070

> <Gold.Chemscore.Internal.Correction.Weighted>
   9.000000E+99

> <Gold.Protein.RotatedTorsions>
[ 6907 6896 6895 6894 ] final -142.93 input  -60.11 | X-H torsion
[ 7974 7965 7964 7962 ] final -149.29 input  175.53 | X-H torsion
[ 8008 7997 7996 7995 ] final  -44.24 input   59.86 | X-H torsion
[ 10167 10162 10161 10158 ] final   92.48 input  -65.29 | X-H torsion
[ 10718 10713 10712 10709 ] final   71.42 input   66.30 | X-H torsion
[ 10763 10752 10751 10750 ] final   42.35 input  -60.55 | X-H torsion
[ 11005 11000 10999 10996 ] final   27.90 input  -57.11 | X-H torsion

> <Gold.Protein.ActiveResidues>
 VAL166  LYS551  ARG553  GLY616  TRP617  ASP618  TYR619  PRO620  LYS621  CYS622 
 ASP623  PHE694  ASN695  SER759  ASP760  ASP761  ALA762  ILE779  LEU786  VAL792 
 PHE793  MET794  SER795  GLU796  ALA797  LYS798  CYS799  TRP800  GLU811  SER814 

> <Gold.Protein.RotatedAtoms>
  151.0936  133.5297  159.2613 H   0  0  0  0  0  0  0  0  0  0  0  0  # atno 6907 bound_to 6896
  151.2154  135.0497  159.8938 H   0  0  0  0  0  0  0  0  0  0  0  0  # atno 6908 bound_to 6896
  152.5436  134.0746  159.8262 H   0  0  0  0  0  0  0  0  0  0  0  0  # atno 6909 bound_to 6896
  144.7976  140.5084  143.5729 H   0  0  0  0  0  0  0  0  0  0  0  0  # atno 7974 bound_to 7965
  154.3997  140.1427  156.3651 H   0  0  0  0  0  0  0  0  0  0  0  0  # atno 8008 bound_to 7997
  155.8145  140.3471  155.5456 H   0  0  0  0  0  0  0  0  0  0  0  0  # atno 8009 bound_to 7997
  155.8352  140.0918  157.1759 H   0  0  0  0  0  0  0  0  0  0  0  0  # atno 8010 bound_to 7997
  139.8272  144.6704  150.9444 H   0  0  0  0  0  0  0  0  0  0  0  0  # atno 10167 bound_to 10162
  157.6450  130.9527  150.0787 H   0  0  0  0  0  0  0  0  0  0  0  0  # atno 10718 bound_to 10713
  152.9885  135.6134  154.2935 H   0  0  0  0  0  0  0  0  0  0  0  0  # atno 10763 bound_to 10752
  154.2659  135.2781  155.2760 H   0  0  0  0  0  0  0  0  0  0  0  0  # atno 10764 bound_to 10752
  154.5164  135.5827  153.6703 H   0  0  0  0  0  0  0  0  0  0  0  0  # atno 10765 bound_to 10752
  140.3213  134.2540  155.7716 H   0  0  0  0  0  0  0  0  0  0  0  0  # atno 11005 bound_to 11000
  145.5633  139.1480  143.3329 LP  0  0  0  0  0  0  0  0  0  0  0  0  # atno 17320 bound_to 7965
  146.2249  140.5769  142.9001 LP  0  0  0  0  0  0  0  0  0  0  0  0  # atno 17321 bound_to 7965
  140.7809  143.4035  151.1110 LP  0  0  0  0  0  0  0  0  0  0  0  0  # atno 17342 bound_to 10162
  139.7691  143.8521  152.3117 LP  0  0  0  0  0  0  0  0  0  0  0  0  # atno 17343 bound_to 10162
  156.1769  130.3648  149.9088 LP  0  0  0  0  0  0  0  0  0  0  0  0  # atno 17370 bound_to 10713
  156.7049  130.8947  151.3603 LP  0  0  0  0  0  0  0  0  0  0  0  0  # atno 17371 bound_to 10713
  141.2086  133.7774  157.0051 LP  0  0  0  0  0  0  0  0  0  0  0  0  # atno 17394 bound_to 11000
  140.0939  134.9576  157.1819 LP  0  0  0  0  0  0  0  0  0  0  0  0  # atno 17395 bound_to 11000

$$$$
