AV-unprocessed.smi:3046|AV-procd|sdf|11619|dock5
  -GOLD-   2272017 03D 1   1.00000     0.00000
 Structure written by MMmdl.
 37 37  0  0  0  0  0  0  0  0  1 V2000
  152.0831  143.9430  158.6911 C   0  0  0  0  0  0  0  0  0  0  0  0
  152.8824  143.6503  159.7277 C   0  0  0  0  0  0  0  0  0  0  0  0
  153.1074  142.2527  160.2707 C   0  0  0  0  0  0  0  0  0  0  0  0
  152.1441  141.3088  159.7189 N   0  0  0  0  0  0  0  0  0  0  0  0
  152.4501  140.2465  158.9578 C   0  0  0  0  0  0  0  0  0  0  0  0
  153.6046  139.9415  158.6562 O   0  0  0  0  0  0  0  0  0  0  0  0
  151.2680  139.4203  158.4252 C   0  0  2  0  0  0  0  0  0  0  0  0
  151.3510  137.9684  158.9221 C   0  0  0  0  0  0  0  0  0  0  0  0
  151.1677  139.4372  156.9550 N   0  0  0  0  0  0  0  0  0  0  0  0
  149.8596  139.8111  156.4171 C   0  0  1  0  0  0  0  0  0  0  0  0
  149.4352  141.1517  157.0363 C   0  0  0  0  0  0  0  0  0  0  0  0
  149.9573  139.9053  154.8818 C   0  0  0  0  0  0  0  0  0  0  0  0
  148.7207  140.3751  154.2805 N   0  0  0  0  0  0  0  0  0  0  0  0
  148.1625  141.6342  154.3480 C   0  0  0  0  0  0  0  0  0  0  0  0
  146.9950  141.5998  153.6411 C   0  0  0  0  0  0  0  0  0  0  0  0
  146.9254  140.2592  153.1695 C   0  0  0  0  0  0  0  0  0  0  0  0
  147.9604  139.5292  153.5520 N   0  0  0  0  0  0  0  0  0  0  0  0
  151.5397  143.1717  158.1649 H   0  0  0  0  0  0  0  0  0  0  0  0
  151.9629  144.9623  158.3548 H   0  0  0  0  0  0  0  0  0  0  0  0
  153.4063  144.4507  160.2302 H   0  0  0  0  0  0  0  0  0  0  0  0
  154.1259  141.9360  160.0405 H   0  0  0  0  0  0  0  0  0  0  0  0
  153.0145  142.2537  161.3572 H   0  0  0  0  0  0  0  0  0  0  0  0
  151.1690  141.4872  159.9111 H   0  0  0  0  0  0  0  0  0  0  0  0
  150.3454  139.8462  158.8247 H   0  0  0  0  0  0  0  0  0  0  0  0
  151.4099  137.9248  160.0103 H   0  0  0  0  0  0  0  0  0  0  0  0
  152.2244  137.4530  158.5201 H   0  0  0  0  0  0  0  0  0  0  0  0
  150.4677  137.4035  158.6217 H   0  0  0  0  0  0  0  0  0  0  0  0
  151.8968  139.9918  156.5295 H   0  0  0  0  0  0  0  0  0  0  0  0
  149.1046  139.0611  156.6571 H   0  0  0  0  0  0  0  0  0  0  0  0
  148.4637  141.4662  156.6541 H   0  0  0  0  0  0  0  0  0  0  0  0
  150.1520  141.9412  156.8069 H   0  0  0  0  0  0  0  0  0  0  0  0
  149.3504  141.0836  158.1211 H   0  0  0  0  0  0  0  0  0  0  0  0
  150.7461  140.6046  154.6015 H   0  0  0  0  0  0  0  0  0  0  0  0
  150.2291  138.9413  154.4474 H   0  0  0  0  0  0  0  0  0  0  0  0
  148.6356  142.4388  154.8913 H   0  0  0  0  0  0  0  0  0  0  0  0
  146.2968  142.4085  153.4848 H   0  0  0  0  0  0  0  0  0  0  0  0
  146.1589  139.7978  152.5644 H   0  0  0  0  0  0  0  0  0  0  0  0
  1  2  2  0  0  0  0
  1 18  1  0  0  0  0
  1 19  1  0  0  0  0
  2  3  1  0  0  0  0
  2 20  1  0  0  0  0
  3  4  1  0  0  0  0
  3 21  1  0  0  0  0
  3 22  1  0  0  0  0
  4  5  1  0  0  0  0
  4 23  1  0  0  0  0
  5  6  2  0  0  0  0
  5  7  1  0  0  0  0
  7  8  1  0  0  0  0
  7  9  1  0  0  0  0
  7 24  1  0  0  0  0
  8 25  1  0  0  0  0
  8 26  1  0  0  0  0
  8 27  1  0  0  0  0
  9 10  1  0  0  0  0
  9 28  1  0  0  0  0
 10 11  1  0  0  0  0
 10 12  1  0  0  0  0
 10 29  1  0  0  0  0
 11 30  1  0  0  0  0
 11 31  1  0  0  0  0
 11 32  1  0  0  0  0
 12 13  1  0  0  0  0
 12 33  1  0  0  0  0
 12 34  1  0  0  0  0
 13 17  1  0  0  0  0
 13 14  1  0  0  0  0
 14 15  2  0  0  0  0
 14 35  1  0  0  0  0
 15 16  1  0  0  0  0
 15 36  1  0  0  0  0
 16 17  2  0  0  0  0
 16 37  1  0  0  0  0
M  END
> <s_m_source_file>
AV-unprocessed.smi

> <i_m_source_file_index>
3046

> <i_lp_mmshare_version>
43012

> <i_f3d_flags>
0

> <s_epik_input>
W0NIMl09W0NIXVtDSDJdW05IXUMoPU8pW0NASF0oW0NIM10pW05IXVtDQEhdKFtDSDNdKVtDSDJdbjFbY0hdW2NIXVtjSF1uMQ==

> <s_epik_cmdline>
J2VwaWtfcHl0aG9uJywgJy1waCcsICc3LjAnLCAnLXRuJywgJzgnLCAnLW1hJywgJzIwMCcsICctbWV0YWxfYmluZGluZycsICctaW1hZScsICc8aW5maWxlLm1hZT4nLCAnLW9tYWUnLCAnPG91dGZpbGUubWFlPic=

> <r_lp_tautomer_probability>
1

> <r_epik_Ionization_Penalty>
0.950627

> <r_epik_Ionization_Penalty_Charging>
0

> <r_epik_Ionization_Penalty_Neutral>
0.950627

> <r_epik_State_Penalty>
0.994814

> <r_epik_Charging_Adjusted_Penalty>
0.994814

> <i_epik_Tot_Q>
0

> <i_epik_Tot_abs_Q>
0

> <r_epik_Metal_State_Penalty>
0.994788

> <b_epik_Metal_Only>
0

> <s_lp_Force_Field>
OPLS_2005

> <r_lp_Energy>
6.36017

> <b_lp_Chiralities_Consistent>
1

> <s_lp_Variant>
AV-unprocessed.smi:3046-7

> <Gold.Version>
5.8.1

> <Gold.Id.Protein>
6NUR|6NUR_protein|mol2

> <Gold.PLP.Fitness>
40.7095

> <Gold.PLP.PLP>
-33.3749

> <Gold.PLP.part.hbond>
-1.0000

> <Gold.PLP.part.metal>
0.0000

> <Gold.PLP.part.buried>
-5.2887

> <Gold.PLP.part.nonpolar>
-28.9669

> <Gold.PLP.part.repulsive>
1.1890

> <Gold.PLP.ligand.clash>
0.0000

> <Gold.PLP.ligand.torsion>
0.8953

> <Gold.PLP.Chemscore.Hbond>
1.0000

> <Gold.PLP.Chemscore.CHOScore>
2.0000

> <Gold.PLP.Chemscore.Metal>
0.0000

> <Gold.Chemscore.Hbonds>
donor molecule, donor type, donor heavy atom, donor atom, acceptor molecule, acceptor atom, score
      P1  H  7997  8008       L1     6  0.99
      L1  C    14    35       P1  8028  1.00
      L1  C    16    37       P1 10175  0.85

> <Gold.PLP.Chemscore.Internal.Correction>
0.1253

> <Gold.Rescore>
     Score         DG    S(hbond)    S(metal)    S(lipo)     H(rot)  DE(clash)    DE(int)     intcor
     12.08     -13.19       0.99        0.00      85.07       2.17       0.01       1.10       ----

> <Gold.Chemscore.Fitness>
12.0772

> <Gold.Chemscore.DG>
-13.1872

> <Gold.Chemscore.ZeroCoef>
-5.4800

> <Gold.Chemscore.Hbond>
0.9936

> <Gold.Chemscore.Metal>
0.0000

> <Gold.Chemscore.Lipo>
85.0733

> <Gold.Chemscore.Internal_Hbond>
0.0000

> <Gold.Chemscore.DEClash>
0.0086

> <Gold.Chemscore.DEInternal>
1.1013

> <Gold.Chemscore.Rot>
2.1739

> <Gold.Chemscore.Internal.Correction>
   9.000000E+99

> <Gold.Chemscore.Hbonds>
donor molecule, donor type, donor heavy atom, donor atom, acceptor molecule, acceptor atom, score
      P1  H  7997  8008       L1     6  0.93

> <Gold.Chemscore.Hbond.Weighted>
-3.3187

> <Gold.Chemscore.Metal.Weighted>
-0.0000

> <Gold.Chemscore.Lipo.Weighted>
-9.9536

> <Gold.Chemscore.Internal_Hbond.Weighted>
0.0000

> <Gold.Chemscore.DEClash.Weighted>
0.0086

> <Gold.Chemscore.DEInternal.Weighted>
1.1013

> <Gold.Chemscore.Rot.Weighted>
5.5652

> <Gold.Chemscore.Internal.Correction.Weighted>
   9.000000E+99

> <Gold.Protein.RotatedTorsions>
[ 6907 6896 6895 6894 ] final  -56.75 input  -60.11 | X-H torsion
[ 7974 7965 7964 7962 ] final  135.76 input  175.53 | X-H torsion
[ 8008 7997 7996 7995 ] final  -84.72 input   59.86 | X-H torsion
[ 10167 10162 10161 10158 ] final   35.91 input  -65.29 | X-H torsion
[ 10718 10713 10712 10709 ] final  149.30 input   66.30 | X-H torsion
[ 10763 10752 10751 10750 ] final   31.44 input  -60.55 | X-H torsion
[ 11005 11000 10999 10996 ] final  162.78 input  -57.11 | X-H torsion

> <Gold.Protein.ActiveResidues>
 VAL166  LYS551  ARG553  GLY616  TRP617  ASP618  TYR619  PRO620  LYS621  CYS622 
 ASP623  PHE694  ASN695  SER759  ASP760  ASP761  ALA762  ILE779  LEU786  VAL792 
 PHE793  MET794  SER795  GLU796  ALA797  LYS798  CYS799  TRP800  GLU811  SER814 

> <Gold.Protein.RotatedAtoms>
  150.8142  134.7314  159.6714 H   0  0  0  0  0  0  0  0  0  0  0  0  # atno 6907 bound_to 6896
  152.4261  134.5862  159.9971 H   0  0  0  0  0  0  0  0  0  0  0  0  # atno 6908 bound_to 6896
  151.6063  133.3314  159.3094 H   0  0  0  0  0  0  0  0  0  0  0  0  # atno 6909 bound_to 6896
  144.9631  139.4688  143.5469 H   0  0  0  0  0  0  0  0  0  0  0  0  # atno 7974 bound_to 7965
  154.6328  140.0601  156.9753 H   0  0  0  0  0  0  0  0  0  0  0  0  # atno 8008 bound_to 7997
  155.1638  140.3285  155.4387 H   0  0  0  0  0  0  0  0  0  0  0  0  # atno 8009 bound_to 7997
  156.2492  140.1926  156.6744 H   0  0  0  0  0  0  0  0  0  0  0  0  # atno 8010 bound_to 7997
  140.4177  144.1504  150.6145 H   0  0  0  0  0  0  0  0  0  0  0  0  # atno 10167 bound_to 10162
  157.2978  131.0865  151.1413 H   0  0  0  0  0  0  0  0  0  0  0  0  # atno 10718 bound_to 10713
  153.0316  135.6439  154.1199 H   0  0  0  0  0  0  0  0  0  0  0  0  # atno 10763 bound_to 10752
  154.0921  135.2865  155.3271 H   0  0  0  0  0  0  0  0  0  0  0  0  # atno 10764 bound_to 10752
  154.6458  135.5443  153.7906 H   0  0  0  0  0  0  0  0  0  0  0  0  # atno 10765 bound_to 10752
  140.2292  134.8137  157.3300 H   0  0  0  0  0  0  0  0  0  0  0  0  # atno 11005 bound_to 11000
  146.3359  139.8794  142.8826 LP  0  0  0  0  0  0  0  0  0  0  0  0  # atno 17320 bound_to 7965
  145.2670  141.0096  143.3794 LP  0  0  0  0  0  0  0  0  0  0  0  0  # atno 17321 bound_to 7965
  140.4568  143.2464  151.9274 LP  0  0  0  0  0  0  0  0  0  0  0  0  # atno 17342 bound_to 10162
  139.4782  144.5507  151.8390 LP  0  0  0  0  0  0  0  0  0  0  0  0  # atno 17343 bound_to 10162
  157.2784  130.6738  149.6054 LP  0  0  0  0  0  0  0  0  0  0  0  0  # atno 17370 bound_to 10713
  155.9670  130.4457  150.5512 LP  0  0  0  0  0  0  0  0  0  0  0  0  # atno 17371 bound_to 10713
  140.1768  134.4539  155.7797 LP  0  0  0  0  0  0  0  0  0  0  0  0  # atno 17394 bound_to 11000
  141.2219  133.6966  156.7801 LP  0  0  0  0  0  0  0  0  0  0  0  0  # atno 17395 bound_to 11000

$$$$
