AV-unprocessed.smi:1207|AV-procd|sdf|5049|dock2
  -GOLD-   22720 4 73D 1   1.00000     0.00000
 Structure written by MMmdl.
 51 53  0  0  0  0  0  0  0  0  1 V2000
  151.2757  144.8597  159.5689 C   0  0  0  0  0  0  0  0  0  0  0  0
  151.1442  143.4189  159.1078 C   0  0  0  0  0  0  0  0  0  0  0  0
  150.2583  143.1140  158.0500 C   0  0  0  0  0  0  0  0  0  0  0  0
  150.1065  141.7869  157.5917 C   0  0  0  0  0  0  0  0  0  0  0  0
  149.3064  141.2693  156.5874 N   0  0  0  0  0  0  0  0  0  0  0  0
  149.6101  139.9759  156.6434 C   0  0  0  0  0  0  0  0  0  0  0  0
  150.5139  139.5934  157.5656 N   0  0  0  0  0  0  0  0  0  0  0  0
  150.9957  138.2446  157.8068 C   0  0  0  0  0  0  0  0  0  0  0  0
  150.1804  137.5106  158.8882 C   0  0  2  0  0  0  0  0  0  0  0  0
  150.5925  136.1589  158.9457 O   0  0  0  0  0  0  0  0  0  0  0  0
  148.6693  137.5451  158.5785 C   0  0  0  0  0  0  0  0  0  0  0  0
  147.8713  136.4842  159.1986 N   0  0  0  0  0  0  0  0  0  0  0  0
  146.4684  136.6295  158.8191 C   0  0  0  0  0  0  0  0  0  0  0  0
  148.0156  136.4518  160.6576 C   0  0  0  0  0  0  0  0  0  0  0  0
  146.9525  135.6234  161.3337 C   0  0  0  0  0  0  0  0  0  0  0  0
  145.6295  136.0120  161.6895 C   0  0  0  0  0  0  0  0  0  0  0  0
  144.9580  137.3379  161.4762 C   0  0  0  0  0  0  0  0  0  0  0  0
  144.9668  135.0292  162.2764 N   0  0  0  0  0  0  0  0  0  0  0  0
  145.8506  133.9467  162.3257 O   0  0  0  0  0  0  0  0  0  0  0  0
  147.0252  134.3260  161.7610 C   0  0  0  0  0  0  0  0  0  0  0  0
  148.1109  133.3044  161.7150 C   0  0  0  0  0  0  0  0  0  0  0  0
  150.8736  140.7648  158.2239 C   0  0  0  0  0  0  0  0  0  0  0  0
  151.7575  141.0558  159.2779 C   0  0  0  0  0  0  0  0  0  0  0  0
  151.8951  142.3865  159.7253 C   0  0  0  0  0  0  0  0  0  0  0  0
  152.8495  142.6889  160.8668 C   0  0  0  0  0  0  0  0  0  0  0  0
  150.6523  145.5271  158.9735 H   0  0  0  0  0  0  0  0  0  0  0  0
  152.3081  145.1979  159.4781 H   0  0  0  0  0  0  0  0  0  0  0  0
  150.9694  144.9561  160.6108 H   0  0  0  0  0  0  0  0  0  0  0  0
  149.6850  143.8997  157.5805 H   0  0  0  0  0  0  0  0  0  0  0  0
  149.1485  139.2631  155.9758 H   0  0  0  0  0  0  0  0  0  0  0  0
  150.9484  137.6955  156.8656 H   0  0  0  0  0  0  0  0  0  0  0  0
  152.0495  138.2929  158.0849 H   0  0  0  0  0  0  0  0  0  0  0  0
  150.3952  137.9751  159.8491 H   0  0  0  0  0  0  0  0  0  0  0  0
  150.0723  135.6641  158.3311 H   0  0  0  0  0  0  0  0  0  0  0  0
  148.2623  138.5139  158.8720 H   0  0  0  0  0  0  0  0  0  0  0  0
  148.5552  137.4956  157.4944 H   0  0  0  0  0  0  0  0  0  0  0  0
  145.8642  135.8105  159.2093 H   0  0  0  0  0  0  0  0  0  0  0  0
  146.3578  136.6209  157.7344 H   0  0  0  0  0  0  0  0  0  0  0  0
  146.0542  137.5663  159.1941 H   0  0  0  0  0  0  0  0  0  0  0  0
  148.9862  136.0420  160.9282 H   0  0  0  0  0  0  0  0  0  0  0  0
  148.0203  137.4719  161.0436 H   0  0  0  0  0  0  0  0  0  0  0  0
  145.4010  138.1045  162.1118 H   0  0  0  0  0  0  0  0  0  0  0  0
  143.8923  137.2933  161.7028 H   0  0  0  0  0  0  0  0  0  0  0  0
  145.0614  137.6641  160.4415 H   0  0  0  0  0  0  0  0  0  0  0  0
  149.0648  133.7410  162.0117 H   0  0  0  0  0  0  0  0  0  0  0  0
  148.2221  132.9081  160.7055 H   0  0  0  0  0  0  0  0  0  0  0  0
  147.8976  132.4714  162.3851 H   0  0  0  0  0  0  0  0  0  0  0  0
  152.3211  140.2589  159.7405 H   0  0  0  0  0  0  0  0  0  0  0  0
  153.3221  141.7804  161.2410 H   0  0  0  0  0  0  0  0  0  0  0  0
  152.3181  143.1547  161.6966 H   0  0  0  0  0  0  0  0  0  0  0  0
  153.6380  143.3651  160.5358 H   0  0  0  0  0  0  0  0  0  0  0  0
  1  2  1  0  0  0  0
  1 26  1  0  0  0  0
  1 27  1  0  0  0  0
  1 28  1  0  0  0  0
  2 24  1  0  0  0  0
  2  3  2  0  0  0  0
  3  4  1  0  0  0  0
  3 29  1  0  0  0  0
  4 22  2  0  0  0  0
  4  5  1  0  0  0  0
  5  6  2  0  0  0  0
  6  7  1  0  0  0  0
  6 30  1  0  0  0  0
  7  8  1  0  0  0  0
  7 22  1  0  0  0  0
  8  9  1  0  0  0  0
  8 31  1  0  0  0  0
  8 32  1  0  0  0  0
  9 10  1  0  0  0  0
  9 11  1  0  0  0  0
  9 33  1  0  0  0  0
 10 34  1  0  0  0  0
 11 12  1  0  0  0  0
 11 35  1  0  0  0  0
 11 36  1  0  0  0  0
 12 13  1  0  0  0  0
 12 14  1  0  0  0  0
 13 37  1  0  0  0  0
 13 38  1  0  0  0  0
 13 39  1  0  0  0  0
 14 15  1  0  0  0  0
 14 40  1  0  0  0  0
 14 41  1  0  0  0  0
 15 20  2  0  0  0  0
 15 16  1  0  0  0  0
 16 17  1  0  0  0  0
 16 18  2  0  0  0  0
 17 42  1  0  0  0  0
 17 43  1  0  0  0  0
 17 44  1  0  0  0  0
 18 19  1  0  0  0  0
 19 20  1  0  0  0  0
 20 21  1  0  0  0  0
 21 45  1  0  0  0  0
 21 46  1  0  0  0  0
 21 47  1  0  0  0  0
 22 23  1  0  0  0  0
 23 24  2  0  0  0  0
 23 48  1  0  0  0  0
 24 25  1  0  0  0  0
 25 49  1  0  0  0  0
 25 50  1  0  0  0  0
 25 51  1  0  0  0  0
M  END
> <s_m_source_file>
AV-unprocessed.smi

> <i_m_source_file_index>
1207

> <i_lp_mmshare_version>
43012

> <i_f3d_flags>
0

> <s_epik_input>
W0NIM11jKFtjSF0xKWMoW0NIM10pW2NIXWMoYzEyKW4oW2NIXW4yKVtDSDJdW0NASF0oW09IXSlbQ0gyXU4oW0NIM10pW0NIMl1jM2MoW0NIM10pbm9jM1tDSDNd

> <s_epik_cmdline>
J2VwaWtfcHl0aG9uJywgJy1waCcsICc3LjAnLCAnLXRuJywgJzgnLCAnLW1hJywgJzIwMCcsICctbWV0YWxfYmluZGluZycsICctaW1hZScsICc8aW5maWxlLm1hZT4nLCAnLW9tYWUnLCAnPG91dGZpbGUubWFlPic=

> <r_epik_Ionization_Penalty>
0.374039

> <r_epik_Ionization_Penalty_Charging>
0

> <r_epik_Ionization_Penalty_Neutral>
0.374039

> <r_epik_State_Penalty>
0.350767

> <r_epik_Charging_Adjusted_Penalty>
0.350767

> <i_epik_Tot_Q>
0

> <i_epik_Tot_abs_Q>
0

> <r_epik_Metal_State_Penalty>
0.343187

> <b_epik_Metal_Only>
0

> <s_lp_Force_Field>
OPLS_2005

> <r_lp_Energy>
17.2157

> <b_lp_Chiralities_Consistent>
1

> <s_lp_Variant>
AV-unprocessed.smi:1207-1

> <Gold.Version>
5.8.1

> <Gold.Id.Protein>
6NUR|6NUR_protein|mol2

> <Gold.PLP.Fitness>
45.8441

> <Gold.PLP.PLP>
-44.7164

> <Gold.PLP.part.hbond>
-0.8068

> <Gold.PLP.part.metal>
0.0000

> <Gold.PLP.part.buried>
-6.4945

> <Gold.PLP.part.nonpolar>
-36.2986

> <Gold.PLP.part.repulsive>
0.1228

> <Gold.PLP.ligand.clash>
0.0000

> <Gold.PLP.ligand.torsion>
1.1044

> <Gold.PLP.Chemscore.Hbond>
1.0000

> <Gold.PLP.Chemscore.CHOScore>
0.0000

> <Gold.PLP.Chemscore.Metal>
0.0000

> <Gold.Chemscore.Hbonds>
donor molecule, donor type, donor heavy atom, donor atom, acceptor molecule, acceptor atom, score
      P1  H  6896  6908       L1    10  0.79

> <Gold.PLP.Chemscore.Internal.Correction>
0.3366

> <Gold.Rescore>
     Score         DG    S(hbond)    S(metal)    S(lipo)     H(rot)  DE(clash)    DE(int)     intcor
     15.60     -16.63       0.81        0.00     124.07       2.38       0.17       0.86       ----

> <Gold.Chemscore.Fitness>
15.6044

> <Gold.Chemscore.DG>
-16.6331

> <Gold.Chemscore.ZeroCoef>
-5.4800

> <Gold.Chemscore.Hbond>
0.8138

> <Gold.Chemscore.Metal>
0.0000

> <Gold.Chemscore.Lipo>
124.0720

> <Gold.Chemscore.Internal_Hbond>
0.0000

> <Gold.Chemscore.DEClash>
0.1667

> <Gold.Chemscore.DEInternal>
0.8620

> <Gold.Chemscore.Rot>
2.3756

> <Gold.Chemscore.Internal.Correction>
   9.000000E+99

> <Gold.Chemscore.Hbonds>
donor molecule, donor type, donor heavy atom, donor atom, acceptor molecule, acceptor atom, score
      P1  H  6896  6908       L1    10  0.15

> <Gold.Chemscore.Hbond.Weighted>
-2.7182

> <Gold.Chemscore.Metal.Weighted>
-0.0000

> <Gold.Chemscore.Lipo.Weighted>
-14.5164

> <Gold.Chemscore.Internal_Hbond.Weighted>
0.0000

> <Gold.Chemscore.DEClash.Weighted>
0.1667

> <Gold.Chemscore.DEInternal.Weighted>
0.8620

> <Gold.Chemscore.Rot.Weighted>
6.0816

> <Gold.Chemscore.Internal.Correction.Weighted>
   9.000000E+99

> <Gold.Protein.RotatedTorsions>
[ 6907 6896 6895 6894 ] final -154.57 input  -60.11 | X-H torsion
[ 7974 7965 7964 7962 ] final -176.61 input  175.53 | X-H torsion
[ 8008 7997 7996 7995 ] final  -87.76 input   59.86 | X-H torsion
[ 10167 10162 10161 10158 ] final  -85.64 input  -65.29 | X-H torsion
[ 10718 10713 10712 10709 ] final  -81.85 input   66.30 | X-H torsion
[ 10763 10752 10751 10750 ] final  121.11 input  -60.55 | X-H torsion
[ 11005 11000 10999 10996 ] final  179.56 input  -57.11 | X-H torsion

> <Gold.Protein.ActiveResidues>
 VAL166  LYS551  ARG553  GLY616  TRP617  ASP618  TYR619  PRO620  LYS621  CYS622 
 ASP623  PHE694  ASN695  SER759  ASP760  ASP761  ALA762  ILE779  LEU786  VAL792 
 PHE793  MET794  SER795  GLU796  ALA797  LYS798  CYS799  TRP800  GLU811  SER814 

> <Gold.Protein.RotatedAtoms>
  151.2595  133.4309  159.2615 H   0  0  0  0  0  0  0  0  0  0  0  0  # atno 6907 bound_to 6896
  151.0543  134.9694  159.8238 H   0  0  0  0  0  0  0  0  0  0  0  0  # atno 6908 bound_to 6896
  152.5388  134.2548  159.8965 H   0  0  0  0  0  0  0  0  0  0  0  0  # atno 6909 bound_to 6896
  144.7127  140.1144  143.6409 H   0  0  0  0  0  0  0  0  0  0  0  0  # atno 7974 bound_to 7965
  154.6670  140.0562  157.0124 H   0  0  0  0  0  0  0  0  0  0  0  0  # atno 8008 bound_to 7997
  155.1145  140.3241  155.4494 H   0  0  0  0  0  0  0  0  0  0  0  0  # atno 8009 bound_to 7997
  156.2642  140.2008  156.6268 H   0  0  0  0  0  0  0  0  0  0  0  0  # atno 8010 bound_to 7997
  140.4018  143.2659  151.9132 H   0  0  0  0  0  0  0  0  0  0  0  0  # atno 10167 bound_to 10162
  156.0043  130.4616  150.4015 H   0  0  0  0  0  0  0  0  0  0  0  0  # atno 10718 bound_to 10713
  153.6089  135.3434  155.2972 H   0  0  0  0  0  0  0  0  0  0  0  0  # atno 10763 bound_to 10752
  154.8622  135.4245  154.2331 H   0  0  0  0  0  0  0  0  0  0  0  0  # atno 10764 bound_to 10752
  153.3177  135.7036  153.7130 H   0  0  0  0  0  0  0  0  0  0  0  0  # atno 10765 bound_to 10752
  140.4075  134.6721  157.4596 H   0  0  0  0  0  0  0  0  0  0  0  0  # atno 11005 bound_to 11000
  145.9427  139.2679  143.1259 LP  0  0  0  0  0  0  0  0  0  0  0  0  # atno 17320 bound_to 7965
  145.9407  140.8981  143.0309 LP  0  0  0  0  0  0  0  0  0  0  0  0  # atno 17321 bound_to 7965
  139.4784  144.5626  151.8215 LP  0  0  0  0  0  0  0  0  0  0  0  0  # atno 17342 bound_to 10162
  140.4732  144.1557  150.5921 LP  0  0  0  0  0  0  0  0  0  0  0  0  # atno 17343 bound_to 10162
  157.2084  131.0454  151.2613 LP  0  0  0  0  0  0  0  0  0  0  0  0  # atno 17370 bound_to 10713
  157.3911  130.7283  149.6698 LP  0  0  0  0  0  0  0  0  0  0  0  0  # atno 17371 bound_to 10713
  140.0291  134.6433  155.9131 LP  0  0  0  0  0  0  0  0  0  0  0  0  # atno 17394 bound_to 11000
  141.1833  133.6550  156.5113 LP  0  0  0  0  0  0  0  0  0  0  0  0  # atno 17395 bound_to 11000

$$$$
