AV-unprocessed.smi:1799|AV-procd|sdf|7262|dock8
  -GOLD-   22720 8513D 1   1.00000     0.00000
 Structure written by MMmdl.
 40 41  0  0  0  0  0  0  0  0  3 V2000
  147.4179  136.6603  155.0508 C   0  0  0  0  0  0  0  0  0  0  0  0
  148.0662  138.0294  154.7476 C   0  0  0  0  0  0  0  0  0  0  0  0
  147.1783  138.7092  153.6873 C   0  0  0  0  0  0  0  0  0  0  0  0
  148.1110  138.9529  155.9937 C   0  0  0  0  0  0  0  0  0  0  0  0
  149.2515  138.6627  156.9819 C   0  0  0  0  0  0  0  0  0  0  0  0
  148.9774  137.4801  157.7947 N   0  0  0  0  0  0  0  0  0  0  0  0
  149.4945  137.2000  158.9991 C   0  0  0  0  0  0  0  0  0  0  0  0
  150.2562  138.0006  159.5456 O   0  0  0  0  0  0  0  0  0  0  0  0
  149.1056  136.0005  159.4861 N   0  5  0  0  0  0  0  0  0  0  0  0
  148.2007  135.9411  160.4770 C   0  0  0  0  0  0  0  0  0  0  0  0
  147.6596  137.0407  161.0255 N   0  0  0  0  0  0  0  0  0  0  0  0
  146.7453  136.7556  162.0306 N   0  0  0  0  0  0  0  0  0  0  0  0
  146.6137  135.4414  162.2094 C   0  0  0  0  0  0  0  0  0  0  0  0
  147.5924  134.4329  161.1649 S   0  0  0  0  0  0  0  0  0  0  0  0
  150.5935  138.5949  156.2275 C   0  0  0  0  0  0  0  0  0  0  0  0
  150.6088  137.6491  155.0012 C   0  0  0  0  0  0  0  0  0  0  0  0
  151.8462  137.9978  154.1513 C   0  0  0  0  0  0  0  0  0  0  0  0
  150.7557  136.1638  155.4001 C   0  0  0  0  0  0  0  0  0  0  0  0
  149.4163  137.8704  154.1354 N   0  3  0  0  0  0  0  0  0  0  0  0
  146.3754  136.7826  155.3470 H   0  0  0  0  0  0  0  0  0  0  0  0
  147.8970  136.1161  155.8580 H   0  0  0  0  0  0  0  0  0  0  0  0
  147.4291  136.0140  154.1724 H   0  0  0  0  0  0  0  0  0  0  0  0
  146.1694  138.8837  154.0636 H   0  0  0  0  0  0  0  0  0  0  0  0
  147.0906  138.0978  152.7881 H   0  0  0  0  0  0  0  0  0  0  0  0
  147.5841  139.6751  153.3837 H   0  0  0  0  0  0  0  0  0  0  0  0
  148.2402  139.9829  155.6576 H   0  0  0  0  0  0  0  0  0  0  0  0
  147.1508  138.9390  156.5121 H   0  0  0  0  0  0  0  0  0  0  0  0
  149.2979  139.5045  157.6751 H   0  0  0  0  0  0  0  0  0  0  0  0
  148.3495  136.7948  157.4005 H   0  0  0  0  0  0  0  0  0  0  0  0
  145.9343  135.0633  162.9584 H   0  0  0  0  0  0  0  0  0  0  0  0
  150.8129  139.6079  155.8864 H   0  0  0  0  0  0  0  0  0  0  0  0
  151.4088  138.3437  156.9069 H   0  0  0  0  0  0  0  0  0  0  0  0
  152.7671  137.8866  154.7255 H   0  0  0  0  0  0  0  0  0  0  0  0
  151.8094  139.0266  153.7908 H   0  0  0  0  0  0  0  0  0  0  0  0
  151.9264  137.3505  153.2770 H   0  0  0  0  0  0  0  0  0  0  0  0
  151.7004  135.9939  155.9182 H   0  0  0  0  0  0  0  0  0  0  0  0
  150.7474  135.5157  154.5232 H   0  0  0  0  0  0  0  0  0  0  0  0
  149.9796  135.8084  156.0693 H   0  0  0  0  0  0  0  0  0  0  0  0
  149.3771  137.1402  153.4388 H   0  0  0  0  0  0  0  0  0  0  0  0
  149.5951  138.7412  153.6565 H   0  0  0  0  0  0  0  0  0  0  0  0
  1  2  1  0  0  0  0
  1 20  1  0  0  0  0
  1 21  1  0  0  0  0
  1 22  1  0  0  0  0
  2 19  1  0  0  0  0
  2  3  1  0  0  0  0
  2  4  1  0  0  0  0
  3 23  1  0  0  0  0
  3 24  1  0  0  0  0
  3 25  1  0  0  0  0
  4  5  1  0  0  0  0
  4 26  1  0  0  0  0
  4 27  1  0  0  0  0
  5  6  1  0  0  0  0
  5 15  1  0  0  0  0
  5 28  1  0  0  0  0
  6  7  1  0  0  0  0
  6 29  1  0  0  0  0
  7  8  2  0  0  0  0
  7  9  1  0  0  0  0
  9 10  1  0  0  0  0
 10 14  1  0  0  0  0
 10 11  2  0  0  0  0
 11 12  1  0  0  0  0
 12 13  2  0  0  0  0
 13 14  1  0  0  0  0
 13 30  1  0  0  0  0
 15 16  1  0  0  0  0
 15 31  1  0  0  0  0
 15 32  1  0  0  0  0
 16 17  1  0  0  0  0
 16 18  1  0  0  0  0
 16 19  1  0  0  0  0
 17 33  1  0  0  0  0
 17 34  1  0  0  0  0
 17 35  1  0  0  0  0
 18 36  1  0  0  0  0
 18 37  1  0  0  0  0
 18 38  1  0  0  0  0
 19 39  1  0  0  0  0
 19 40  1  0  0  0  0
M  CHG  1   9  -1
M  CHG  1  19   1
M  END
> <s_m_source_file>
AV-unprocessed.smi

> <i_m_source_file_index>
1799

> <i_lp_mmshare_version>
43012

> <i_f3d_flags>
0

> <s_epik_input>
W0NIM11DMShbQ0gzXSlbQ0gyXVtDSF0oW0NIMl1DKFtDSDNdKShbQ0gzXSlbTkhdMSlbTkhdQyg9TylbTkhdYzJubltjSF1zMg==

> <s_epik_cmdline>
J2VwaWtfcHl0aG9uJywgJy1waCcsICc3LjAnLCAnLXRuJywgJzgnLCAnLW1hJywgJzIwMCcsICctbWV0YWxfYmluZGluZycsICctaW1hZScsICc8aW5maWxlLm1hZT4nLCAnLW9tYWUnLCAnPG91dGZpbGUubWFlPic=

> <r_lp_tautomer_probability>
1

> <r_epik_Ionization_Penalty>
4.14205

> <r_epik_Ionization_Penalty_Charging>
4.10837

> <r_epik_Ionization_Penalty_Neutral>
0.0336815

> <r_epik_State_Penalty>
4.10769

> <r_epik_Charging_Adjusted_Penalty>
8.21606

> <i_epik_Tot_Q>
0

> <i_epik_Tot_abs_Q>
2

> <r_epik_Metal_State_Penalty>
0.655549

> <b_epik_Metal_Only>
1

> <s_lp_Force_Field>
OPLS_2005

> <r_lp_Energy>
17.9013

> <b_lp_Chiralities_Consistent>
1

> <s_lp_Variant>
AV-unprocessed.smi:1799-2

> <Gold.Version>
5.8.1

> <Gold.Id.Protein>
6NUR|6NUR_protein|mol2

> <Gold.PLP.Fitness>
39.3640

> <Gold.PLP.PLP>
-24.5771

> <Gold.PLP.part.hbond>
-5.0000

> <Gold.PLP.part.metal>
0.0000

> <Gold.PLP.part.buried>
-5.6950

> <Gold.PLP.part.nonpolar>
-15.0160

> <Gold.PLP.part.repulsive>
0.0824

> <Gold.PLP.ligand.clash>
0.0000

> <Gold.PLP.ligand.torsion>
0.9951

> <Gold.PLP.Chemscore.Hbond>
5.5866

> <Gold.PLP.Chemscore.CHOScore>
0.0000

> <Gold.PLP.Chemscore.Metal>
0.0000

> <Gold.Chemscore.Hbonds>
donor molecule, donor type, donor heavy atom, donor atom, acceptor molecule, acceptor atom, score
      L1  H    19    39       P1  7948  2.00
      P1  H  6896  6909       L1     9  1.79
      P1  H  6931  6943       L1    11  0.96
      P1  H  6934  6947       L1    11  0.68

> <Gold.PLP.Chemscore.Internal.Correction>
0.0172

> <Gold.Rescore>
     Score         DG    S(hbond)    S(metal)    S(lipo)     H(rot)  DE(clash)    DE(int)     intcor
     15.39     -16.50       2.32        0.00      49.77       1.00       0.02       1.09       ----

> <Gold.Chemscore.Fitness>
15.3867

> <Gold.Chemscore.DG>
-16.4976

> <Gold.Chemscore.ZeroCoef>
-5.4800

> <Gold.Chemscore.Hbond>
2.3219

> <Gold.Chemscore.Metal>
0.0000

> <Gold.Chemscore.Lipo>
49.7651

> <Gold.Chemscore.Internal_Hbond>
0.0000

> <Gold.Chemscore.DEClash>
0.0186

> <Gold.Chemscore.DEInternal>
1.0923

> <Gold.Chemscore.Rot>
1.0000

> <Gold.Chemscore.Internal.Correction>
   9.000000E+99

> <Gold.Chemscore.Hbonds>
donor molecule, donor type, donor heavy atom, donor atom, acceptor molecule, acceptor atom, score
      L1  H    19    39       P1  7948  0.95
      P1  H  6896  6909       L1     9  0.63
      P1  H  6931  6943       L1    11  0.37
      P1  H  6934  6947       L1    11  0.08

> <Gold.Chemscore.Hbond.Weighted>
-7.7551

> <Gold.Chemscore.Metal.Weighted>
-0.0000

> <Gold.Chemscore.Lipo.Weighted>
-5.8225

> <Gold.Chemscore.Internal_Hbond.Weighted>
0.0000

> <Gold.Chemscore.DEClash.Weighted>
0.0186

> <Gold.Chemscore.DEInternal.Weighted>
1.0923

> <Gold.Chemscore.Rot.Weighted>
2.5600

> <Gold.Chemscore.Internal.Correction.Weighted>
   9.000000E+99

> <Gold.Protein.RotatedTorsions>
[ 6907 6896 6895 6894 ] final   58.20 input  -60.11 | X-H torsion
[ 7974 7965 7964 7962 ] final    9.49 input  175.53 | X-H torsion
[ 8008 7997 7996 7995 ] final   41.12 input   59.86 | X-H torsion
[ 10167 10162 10161 10158 ] final -174.61 input  -65.29 | X-H torsion
[ 10718 10713 10712 10709 ] final  140.32 input   66.30 | X-H torsion
[ 10763 10752 10751 10750 ] final  -91.49 input  -60.55 | X-H torsion
[ 11005 11000 10999 10996 ] final   61.10 input  -57.11 | X-H torsion

> <Gold.Protein.ActiveResidues>
 VAL166  LYS551  ARG553  GLY616  TRP617  ASP618  TYR619  PRO620  LYS621  CYS622 
 ASP623  PHE694  ASN695  SER759  ASP760  ASP761  ALA762  ILE779  LEU786  VAL792 
 PHE793  MET794  SER795  GLU796  ALA797  LYS798  CYS799  TRP800  GLU811  SER814 

> <Gold.Protein.RotatedAtoms>
  152.3803  134.6601  160.0145 H   0  0  0  0  0  0  0  0  0  0  0  0  # atno 6907 bound_to 6896
  151.6866  133.3306  159.3240 H   0  0  0  0  0  0  0  0  0  0  0  0  # atno 6908 bound_to 6896
  150.7742  134.6670  159.6415 H   0  0  0  0  0  0  0  0  0  0  0  0  # atno 6909 bound_to 6896
  146.2402  139.9775  142.8440 H   0  0  0  0  0  0  0  0  0  0  0  0  # atno 7974 bound_to 7965
  155.2644  140.3361  155.4270 H   0  0  0  0  0  0  0  0  0  0  0  0  # atno 8008 bound_to 7997
  156.2161  140.1789  156.7629 H   0  0  0  0  0  0  0  0  0  0  0  0  # atno 8009 bound_to 7997
  154.5755  140.0662  156.9012 H   0  0  0  0  0  0  0  0  0  0  0  0  # atno 8010 bound_to 7997
  139.5625  144.1836  152.1260 H   0  0  0  0  0  0  0  0  0  0  0  0  # atno 10167 bound_to 10162
  157.4045  131.1021  151.0517 H   0  0  0  0  0  0  0  0  0  0  0  0  # atno 10718 bound_to 10713
  154.6765  135.5266  153.8207 H   0  0  0  0  0  0  0  0  0  0  0  0  # atno 10763 bound_to 10752
  153.0536  135.6542  154.0642 H   0  0  0  0  0  0  0  0  0  0  0  0  # atno 10764 bound_to 10752
  154.0535  135.2967  155.3316 H   0  0  0  0  0  0  0  0  0  0  0  0  # atno 10765 bound_to 10752
  140.0185  134.6188  155.9674 H   0  0  0  0  0  0  0  0  0  0  0  0  # atno 11005 bound_to 11000
  145.1623  140.9679  143.4370 LP  0  0  0  0  0  0  0  0  0  0  0  0  # atno 17320 bound_to 7965
  145.0105  139.3514  143.6122 LP  0  0  0  0  0  0  0  0  0  0  0  0  # atno 17321 bound_to 7965
  140.1352  144.5252  150.6777 LP  0  0  0  0  0  0  0  0  0  0  0  0  # atno 17342 bound_to 10162
  140.6905  143.2373  151.5142 LP  0  0  0  0  0  0  0  0  0  0  0  0  # atno 17343 bound_to 10162
  157.1504  130.6182  149.5580 LP  0  0  0  0  0  0  0  0  0  0  0  0  # atno 17370 bound_to 10713
  155.9832  130.4851  150.6924 LP  0  0  0  0  0  0  0  0  0  0  0  0  # atno 17371 bound_to 10713
  141.1758  133.6540  156.4825 LP  0  0  0  0  0  0  0  0  0  0  0  0  # atno 17394 bound_to 11000
  140.4428  134.6999  157.5000 LP  0  0  0  0  0  0  0  0  0  0  0  0  # atno 17395 bound_to 11000

$$$$
