AV-unprocessed.smi:972|AV-procd|sdf|4298|dock5
  -GOLD-   22720 2203D 1   1.00000     0.00000
 Structure written by MMmdl.
 50 52  0  0  0  0  0  0  0  0  1 V2000
  151.8994  131.2066  155.9410 C   0  0  0  0  0  0  0  0  0  0  0  0
  150.4793  131.8103  156.0515 C   0  0  0  0  0  0  0  0  0  0  0  0
  149.6698  131.2139  154.8761 C   0  0  0  0  0  0  0  0  0  0  0  0
  149.8430  131.3844  157.3874 C   0  0  0  0  0  0  0  0  0  0  0  0
  150.5204  133.3462  155.9705 C   0  0  0  0  0  0  0  0  0  0  0  0
  151.2393  133.9879  156.9010 N   0  0  0  0  0  0  0  0  0  0  0  0
  151.1773  135.3355  156.9210 C   0  0  0  0  0  0  0  0  0  0  0  0
  150.3580  136.0592  156.0320 C   0  0  0  0  0  0  0  0  0  0  0  0
  150.3515  137.4780  156.1067 N   0  0  0  0  0  0  0  0  0  0  0  0
  151.2753  138.2943  156.6418 C   0  0  0  0  0  0  0  0  0  0  0  0
  152.3286  137.9316  157.1644 O   0  0  0  0  0  0  0  0  0  0  0  0
  150.9089  139.5779  156.5184 N   0  0  0  0  0  0  0  0  0  0  0  0
  151.6775  140.7349  156.9695 C   0  0  0  0  0  0  0  0  0  0  0  0
  151.9981  140.6047  158.4670 C   0  0  0  0  0  0  0  0  0  0  0  0
  152.6612  141.8856  159.0036 C   0  0  0  0  0  0  0  0  0  0  0  0
  151.7890  143.0387  158.7783 N   0  0  0  0  0  0  0  0  0  0  0  0
  152.4217  144.2233  159.3346 C   0  0  0  0  0  0  0  0  0  0  0  0
  151.8839  144.7544  160.6438 C   0  0  0  0  0  0  0  0  0  0  0  0
  151.6135  145.5006  159.3595 C   0  0  0  0  0  0  0  0  0  0  0  0
  151.5914  143.2397  157.3427 C   0  0  0  0  0  0  0  0  0  0  0  0
  150.8751  142.0234  156.7308 C   0  0  0  0  0  0  0  0  0  0  0  0
  149.6161  135.2825  155.1101 C   0  0  0  0  0  0  0  0  0  0  0  0
  149.6898  133.9345  155.0998 N   0  0  0  0  0  0  0  0  0  0  0  0
  151.8691  130.1165  155.9499 H   0  0  0  0  0  0  0  0  0  0  0  0
  152.5384  131.5093  156.7715 H   0  0  0  0  0  0  0  0  0  0  0  0
  152.3907  131.5128  155.0166 H   0  0  0  0  0  0  0  0  0  0  0  0
  150.0812  131.5221  153.9141 H   0  0  0  0  0  0  0  0  0  0  0  0
  148.6236  131.5211  154.9016 H   0  0  0  0  0  0  0  0  0  0  0  0
  149.6773  130.1236  154.9008 H   0  0  0  0  0  0  0  0  0  0  0  0
  149.7952  130.2989  157.4778 H   0  0  0  0  0  0  0  0  0  0  0  0
  148.8264  131.7679  157.4820 H   0  0  0  0  0  0  0  0  0  0  0  0
  150.4160  131.7606  158.2358 H   0  0  0  0  0  0  0  0  0  0  0  0
  151.7812  135.8382  157.6622 H   0  0  0  0  0  0  0  0  0  0  0  0
  149.5673  137.9298  155.6593 H   0  0  0  0  0  0  0  0  0  0  0  0
  150.0255  139.7736  156.0708 H   0  0  0  0  0  0  0  0  0  0  0  0
  152.6188  140.8128  156.4223 H   0  0  0  0  0  0  0  0  0  0  0  0
  151.0842  140.4086  159.0302 H   0  0  0  0  0  0  0  0  0  0  0  0
  152.6547  139.7504  158.6354 H   0  0  0  0  0  0  0  0  0  0  0  0
  152.8507  141.7758  160.0720 H   0  0  0  0  0  0  0  0  0  0  0  0
  153.6275  142.0431  158.5214 H   0  0  0  0  0  0  0  0  0  0  0  0
  153.4921  144.3569  159.1856 H   0  0  0  0  0  0  0  0  0  0  0  0
  151.0485  144.2295  161.1037 H   0  0  0  0  0  0  0  0  0  0  0  0
  152.5985  145.1912  161.3384 H   0  0  0  0  0  0  0  0  0  0  0  0
  152.1481  146.4343  159.1971 H   0  0  0  0  0  0  0  0  0  0  0  0
  150.5987  145.4707  158.9671 H   0  0  0  0  0  0  0  0  0  0  0  0
  150.9900  144.1348  157.1796 H   0  0  0  0  0  0  0  0  0  0  0  0
  152.5505  143.4038  156.8486 H   0  0  0  0  0  0  0  0  0  0  0  0
  150.7295  142.1803  155.6615 H   0  0  0  0  0  0  0  0  0  0  0  0
  149.8797  141.9325  157.1689 H   0  0  0  0  0  0  0  0  0  0  0  0
  148.9669  135.7157  154.3657 H   0  0  0  0  0  0  0  0  0  0  0  0
  1  2  1  0  0  0  0
  1 24  1  0  0  0  0
  1 25  1  0  0  0  0
  1 26  1  0  0  0  0
  2  3  1  0  0  0  0
  2  4  1  0  0  0  0
  2  5  1  0  0  0  0
  3 27  1  0  0  0  0
  3 28  1  0  0  0  0
  3 29  1  0  0  0  0
  4 30  1  0  0  0  0
  4 31  1  0  0  0  0
  4 32  1  0  0  0  0
  5 23  1  0  0  0  0
  5  6  2  0  0  0  0
  6  7  1  0  0  0  0
  7  8  2  0  0  0  0
  7 33  1  0  0  0  0
  8  9  1  0  0  0  0
  8 22  1  0  0  0  0
  9 10  1  0  0  0  0
  9 34  1  0  0  0  0
 10 11  2  0  0  0  0
 10 12  1  0  0  0  0
 12 13  1  0  0  0  0
 12 35  1  0  0  0  0
 13 21  1  0  0  0  0
 13 14  1  0  0  0  0
 13 36  1  0  0  0  0
 14 15  1  0  0  0  0
 14 37  1  0  0  0  0
 14 38  1  0  0  0  0
 15 16  1  0  0  0  0
 15 39  1  0  0  0  0
 15 40  1  0  0  0  0
 16 17  1  0  0  0  0
 16 20  1  0  0  0  0
 17 19  1  0  0  0  0
 17 18  1  0  0  0  0
 17 41  1  0  0  0  0
 18 19  1  0  0  0  0
 18 42  1  0  0  0  0
 18 43  1  0  0  0  0
 19 44  1  0  0  0  0
 19 45  1  0  0  0  0
 20 21  1  0  0  0  0
 20 46  1  0  0  0  0
 20 47  1  0  0  0  0
 21 48  1  0  0  0  0
 21 49  1  0  0  0  0
 22 23  2  0  0  0  0
 22 50  1  0  0  0  0
M  END
> <s_m_source_file>
AV-unprocessed.smi

> <i_m_source_file_index>
972

> <i_lp_mmshare_version>
43012

> <i_f3d_flags>
0

> <s_epik_input>
W0NIM11DKFtDSDNdKShbQ0gzXSljMW5bY0hdYyhbY0hdbjEpW05IXUMoPU8pW05IXVtDSF0yW0NIMl1bQ0gyXU4oW0NIMl1bQ0gyXTIpW0NIXTNbQ0gyXVtDSDJdMw==

> <s_epik_cmdline>
J2VwaWtfcHl0aG9uJywgJy1waCcsICc3LjAnLCAnLXRuJywgJzgnLCAnLW1hJywgJzIwMCcsICctbWV0YWxfYmluZGluZycsICctaW1hZScsICc8aW5maWxlLm1hZT4nLCAnLW9tYWUnLCAnPG91dGZpbGUubWFlPic=

> <r_lp_tautomer_probability>
1

> <r_epik_Ionization_Penalty>
0.990889

> <r_epik_Ionization_Penalty_Charging>
0

> <r_epik_Ionization_Penalty_Neutral>
0.990889

> <r_epik_State_Penalty>
1.03856

> <r_epik_Charging_Adjusted_Penalty>
1.03856

> <i_epik_Tot_Q>
0

> <i_epik_Tot_abs_Q>
0

> <r_epik_Metal_State_Penalty>
1.03856

> <b_epik_Metal_Only>
0

> <s_lp_Force_Field>
OPLS_2005

> <r_lp_Energy>
19.7386

> <b_lp_Chiralities_Consistent>
1

> <s_lp_Variant>
AV-unprocessed.smi:972-3

> <Gold.Version>
5.8.1

> <Gold.Id.Protein>
6NUR|6NUR_protein|mol2

> <Gold.PLP.Fitness>
40.0343

> <Gold.PLP.PLP>
-37.6034

> <Gold.PLP.part.hbond>
-0.6156

> <Gold.PLP.part.metal>
0.0000

> <Gold.PLP.part.buried>
-6.2061

> <Gold.PLP.part.nonpolar>
-31.2319

> <Gold.PLP.part.repulsive>
0.2085

> <Gold.PLP.ligand.clash>
0.0000

> <Gold.PLP.ligand.torsion>
0.9383

> <Gold.PLP.Chemscore.Hbond>
0.0000

> <Gold.PLP.Chemscore.CHOScore>
1.0000

> <Gold.PLP.Chemscore.Metal>
0.0000

> <Gold.Chemscore.Hbonds>
donor molecule, donor type, donor heavy atom, donor atom, acceptor molecule, acceptor atom, score
      L1  C    22    50       P1  7948  0.99

> <Gold.PLP.Chemscore.Internal.Correction>
1.3075

> <Gold.Rescore>
     Score         DG    S(hbond)    S(metal)    S(lipo)     H(rot)  DE(clash)    DE(int)     intcor
     11.72     -14.95       0.00        0.00     109.27       1.30       0.04       3.20       ----

> <Gold.Chemscore.Fitness>
11.7171

> <Gold.Chemscore.DG>
-14.9539

> <Gold.Chemscore.ZeroCoef>
-5.4800

> <Gold.Chemscore.Hbond>
0.0015

> <Gold.Chemscore.Metal>
0.0000

> <Gold.Chemscore.Lipo>
109.2672

> <Gold.Chemscore.Internal_Hbond>
0.0000

> <Gold.Chemscore.DEClash>
0.0398

> <Gold.Chemscore.DEInternal>
3.1971

> <Gold.Chemscore.Rot>
1.2951

> <Gold.Chemscore.Internal.Correction>
   9.000000E+99

> <Gold.Chemscore.Hbonds>
donor molecule, donor type, donor heavy atom, donor atom, acceptor molecule, acceptor atom, score
      P1  H  6896  6908       L1     6  0.01

> <Gold.Chemscore.Hbond.Weighted>
-0.0050

> <Gold.Chemscore.Metal.Weighted>
-0.0000

> <Gold.Chemscore.Lipo.Weighted>
-12.7843

> <Gold.Chemscore.Internal_Hbond.Weighted>
0.0000

> <Gold.Chemscore.DEClash.Weighted>
0.0398

> <Gold.Chemscore.DEInternal.Weighted>
3.1971

> <Gold.Chemscore.Rot.Weighted>
3.3154

> <Gold.Chemscore.Internal.Correction.Weighted>
   9.000000E+99

> <Gold.Protein.RotatedTorsions>
[ 6907 6896 6895 6894 ] final   65.00 input  -60.11 | X-H torsion
[ 7974 7965 7964 7962 ] final  -93.95 input  175.53 | X-H torsion
[ 8008 7997 7996 7995 ] final  140.57 input   59.86 | X-H torsion
[ 10167 10162 10161 10158 ] final -150.74 input  -65.29 | X-H torsion
[ 10718 10713 10712 10709 ] final -150.10 input   66.30 | X-H torsion
[ 10763 10752 10751 10750 ] final -125.40 input  -60.55 | X-H torsion
[ 11005 11000 10999 10996 ] final -108.31 input  -57.11 | X-H torsion

> <Gold.Protein.ActiveResidues>
 VAL166  LYS551  ARG553  GLY616  TRP617  ASP618  TYR619  PRO620  LYS621  CYS622 
 ASP623  PHE694  ASN695  SER759  ASP760  ASP761  ALA762  ILE779  LEU786  VAL792 
 PHE793  MET794  SER795  GLU796  ALA797  LYS798  CYS799  TRP800  GLU811  SER814 

> <Gold.Protein.RotatedAtoms>
  152.4374  134.5658  159.9906 H   0  0  0  0  0  0  0  0  0  0  0  0  # atno 6907 bound_to 6896
  151.5765  133.3377  159.3008 H   0  0  0  0  0  0  0  0  0  0  0  0  # atno 6908 bound_to 6896
  150.8275  134.7547  159.6889 H   0  0  0  0  0  0  0  0  0  0  0  0  # atno 6909 bound_to 6896
  145.3797  140.9516  143.2400 H   0  0  0  0  0  0  0  0  0  0  0  0  # atno 7974 bound_to 7965
  156.2977  140.2338  156.4423 H   0  0  0  0  0  0  0  0  0  0  0  0  # atno 8008 bound_to 7997
  154.8175  140.0439  157.1407 H   0  0  0  0  0  0  0  0  0  0  0  0  # atno 8009 bound_to 7997
  154.9353  140.3022  155.5151 H   0  0  0  0  0  0  0  0  0  0  0  0  # atno 8010 bound_to 7997
  139.7328  143.8782  152.2540 H   0  0  0  0  0  0  0  0  0  0  0  0  # atno 10167 bound_to 10162
  156.4418  130.8125  151.2355 H   0  0  0  0  0  0  0  0  0  0  0  0  # atno 10718 bound_to 10713
  154.8735  135.4031  154.3262 H   0  0  0  0  0  0  0  0  0  0  0  0  # atno 10763 bound_to 10752
  153.4082  135.7020  153.6383 H   0  0  0  0  0  0  0  0  0  0  0  0  # atno 10764 bound_to 10752
  153.5097  135.3710  155.2551 H   0  0  0  0  0  0  0  0  0  0  0  0  # atno 10765 bound_to 10752
  141.0908  133.9058  157.2079 H   0  0  0  0  0  0  0  0  0  0  0  0  # atno 11005 bound_to 11000
  144.8516  139.5313  143.6854 LP  0  0  0  0  0  0  0  0  0  0  0  0  # atno 17320 bound_to 7965
  146.2847  139.6973  142.9204 LP  0  0  0  0  0  0  0  0  0  0  0  0  # atno 17321 bound_to 7965
  139.8710  144.7068  150.8988 LP  0  0  0  0  0  0  0  0  0  0  0  0  # atno 17342 bound_to 10162
  140.7774  143.3738  151.1600 LP  0  0  0  0  0  0  0  0  0  0  0  0  # atno 17343 bound_to 10162
  157.7506  131.0166  150.3550 LP  0  0  0  0  0  0  0  0  0  0  0  0  # atno 17370 bound_to 10713
  156.3909  130.3898  149.7030 LP  0  0  0  0  0  0  0  0  0  0  0  0  # atno 17371 bound_to 10713
  139.9734  135.0121  156.9570 LP  0  0  0  0  0  0  0  0  0  0  0  0  # atno 17394 bound_to 11000
  140.5256  134.0864  155.7302 LP  0  0  0  0  0  0  0  0  0  0  0  0  # atno 17395 bound_to 11000

$$$$
