AV-unprocessed.smi:2388|AV-procd|sdf|9471|dock7
  -GOLD-   2272013103D 1   1.00000     0.00000
 Structure written by MMmdl.
 43 44  0  0  0  0  0  0  0  0  1 V2000
  145.5895  129.4551  152.0211 C   0  0  0  0  0  0  0  0  0  0  0  0
  145.8183  130.8774  151.5549 C   0  0  0  0  0  0  0  0  0  0  0  0
  145.1631  131.3808  150.4140 C   0  0  0  0  0  0  0  0  0  0  0  0
  145.4148  132.7126  150.0389 C   0  0  0  0  0  0  0  0  0  0  0  0
  146.3051  133.4805  150.8140 C   0  0  0  0  0  0  0  0  0  0  0  0
  146.9242  132.8981  151.9429 C   0  0  0  0  0  0  0  0  0  0  0  0
  147.8058  133.7545  152.6545 N   0  0  0  0  0  0  0  0  0  0  0  0
  148.5349  133.4732  153.7490 C   0  0  0  0  0  0  0  0  0  0  0  0
  148.5617  132.3860  154.3265 O   0  0  0  0  0  0  0  0  0  0  0  0
  149.2480  134.5388  154.1401 N   0  0  0  0  0  0  0  0  0  0  0  0
  150.1530  134.5750  155.2833 C   0  0  0  0  0  0  0  0  0  0  0  0
  150.0464  135.9293  156.0078 C   0  0  0  0  0  0  0  0  0  0  0  0
  151.2404  136.8669  155.7548 C   0  0  0  0  0  0  0  0  0  0  0  0
  152.3573  136.5316  156.1532 O   0  0  0  0  0  0  0  0  0  0  0  0
  151.0291  138.0383  155.1058 N   0  0  0  0  0  0  0  0  0  0  0  0
  149.7249  138.5397  154.6505 C   0  0  0  0  0  0  0  0  0  0  0  0
  149.3085  139.7182  155.5496 C   0  0  0  0  0  0  0  0  0  0  0  0
  150.3862  140.8196  155.5460 C   0  0  0  0  0  0  0  0  0  0  0  0
  151.7887  140.2475  155.8276 C   0  0  0  0  0  0  0  0  0  0  0  0
  152.0856  139.0413  154.9174 C   0  0  0  0  0  0  0  0  0  0  0  0
  146.6732  131.6132  152.2976 N   0  0  0  0  0  0  0  0  0  0  0  0
  144.9914  128.8946  151.3021 H   0  0  0  0  0  0  0  0  0  0  0  0
  145.0658  129.4514  152.9775 H   0  0  0  0  0  0  0  0  0  0  0  0
  146.5409  128.9376  152.1481 H   0  0  0  0  0  0  0  0  0  0  0  0
  144.4849  130.7661  149.8408 H   0  0  0  0  0  0  0  0  0  0  0  0
  144.9335  133.1393  149.1713 H   0  0  0  0  0  0  0  0  0  0  0  0
  146.5091  134.5053  150.5390 H   0  0  0  0  0  0  0  0  0  0  0  0
  147.8974  134.6880  152.2827 H   0  0  0  0  0  0  0  0  0  0  0  0
  149.1643  135.3887  153.6018 H   0  0  0  0  0  0  0  0  0  0  0  0
  149.9313  133.7660  155.9821 H   0  0  0  0  0  0  0  0  0  0  0  0
  151.1680  134.4130  154.9177 H   0  0  0  0  0  0  0  0  0  0  0  0
  149.1341  136.4380  155.6935 H   0  0  0  0  0  0  0  0  0  0  0  0
  149.9643  135.7447  157.0799 H   0  0  0  0  0  0  0  0  0  0  0  0
  149.8125  138.8756  153.6164 H   0  0  0  0  0  0  0  0  0  0  0  0
  148.9423  137.7828  154.6392 H   0  0  0  0  0  0  0  0  0  0  0  0
  148.3556  140.1286  155.2148 H   0  0  0  0  0  0  0  0  0  0  0  0
  149.1528  139.3615  156.5687 H   0  0  0  0  0  0  0  0  0  0  0  0
  150.3914  141.3086  154.5710 H   0  0  0  0  0  0  0  0  0  0  0  0
  150.1401  141.5913  156.2760 H   0  0  0  0  0  0  0  0  0  0  0  0
  152.5436  141.0212  155.6851 H   0  0  0  0  0  0  0  0  0  0  0  0
  151.8546  139.9389  156.8719 H   0  0  0  0  0  0  0  0  0  0  0  0
  153.0827  138.6532  155.1286 H   0  0  0  0  0  0  0  0  0  0  0  0
  152.1056  139.3553  153.8728 H   0  0  0  0  0  0  0  0  0  0  0  0
  1  2  1  0  0  0  0
  1 22  1  0  0  0  0
  1 23  1  0  0  0  0
  1 24  1  0  0  0  0
  2 21  1  0  0  0  0
  2  3  2  0  0  0  0
  3  4  1  0  0  0  0
  3 25  1  0  0  0  0
  4  5  2  0  0  0  0
  4 26  1  0  0  0  0
  5  6  1  0  0  0  0
  5 27  1  0  0  0  0
  6  7  1  0  0  0  0
  6 21  2  0  0  0  0
  7  8  1  0  0  0  0
  7 28  1  0  0  0  0
  8  9  2  0  0  0  0
  8 10  1  0  0  0  0
 10 11  1  0  0  0  0
 10 29  1  0  0  0  0
 11 12  1  0  0  0  0
 11 30  1  0  0  0  0
 11 31  1  0  0  0  0
 12 13  1  0  0  0  0
 12 32  1  0  0  0  0
 12 33  1  0  0  0  0
 13 14  2  0  0  0  0
 13 15  1  0  0  0  0
 15 20  1  0  0  0  0
 15 16  1  0  0  0  0
 16 17  1  0  0  0  0
 16 34  1  0  0  0  0
 16 35  1  0  0  0  0
 17 18  1  0  0  0  0
 17 36  1  0  0  0  0
 17 37  1  0  0  0  0
 18 19  1  0  0  0  0
 18 38  1  0  0  0  0
 18 39  1  0  0  0  0
 19 20  1  0  0  0  0
 19 40  1  0  0  0  0
 19 41  1  0  0  0  0
 20 42  1  0  0  0  0
 20 43  1  0  0  0  0
M  END
> <s_m_source_file>
AV-unprocessed.smi

> <i_m_source_file_index>
2388

> <i_lp_mmshare_version>
43012

> <i_f3d_flags>
0

> <s_epik_input>
W0NIM11jMVtjSF1bY0hdW2NIXWMobjEpW05IXUMoPU8pW05IXVtDSDJdW0NIMl1DKD1PKU4yW0NIMl1bQ0gyXVtDSDJdW0NIMl1bQ0gyXTI=

> <s_epik_cmdline>
J2VwaWtfcHl0aG9uJywgJy1waCcsICc3LjAnLCAnLXRuJywgJzgnLCAnLW1hJywgJzIwMCcsICctbWV0YWxfYmluZGluZycsICctaW1hZScsICc8aW5maWxlLm1hZT4nLCAnLW9tYWUnLCAnPG91dGZpbGUubWFlPic=

> <r_lp_tautomer_probability>
1

> <r_epik_Ionization_Penalty>
7.16628e-05

> <r_epik_Ionization_Penalty_Charging>
0

> <r_epik_Ionization_Penalty_Neutral>
7.16628e-05

> <r_epik_State_Penalty>
-0

> <r_epik_Charging_Adjusted_Penalty>
0

> <i_epik_Tot_Q>
0

> <i_epik_Tot_abs_Q>
0

> <r_epik_Metal_State_Penalty>
-0

> <b_epik_Metal_Only>
0

> <s_lp_Force_Field>
OPLS_2005

> <r_lp_Energy>
26.3076

> <b_lp_Chiralities_Consistent>
1

> <s_lp_Variant>
AV-unprocessed.smi:2388-1

> <Gold.Version>
5.8.1

> <Gold.Id.Protein>
6NUR|6NUR_protein|mol2

> <Gold.PLP.Fitness>
48.6410

> <Gold.PLP.PLP>
-40.7371

> <Gold.PLP.part.hbond>
-3.0000

> <Gold.PLP.part.metal>
0.0000

> <Gold.PLP.part.buried>
-5.1207

> <Gold.PLP.part.nonpolar>
-33.0913

> <Gold.PLP.part.repulsive>
0.2484

> <Gold.PLP.ligand.clash>
0.0000

> <Gold.PLP.ligand.torsion>
0.5006

> <Gold.PLP.Chemscore.Hbond>
2.9600

> <Gold.PLP.Chemscore.CHOScore>
0.0000

> <Gold.PLP.Chemscore.Metal>
0.0000

> <Gold.Chemscore.Hbonds>
donor molecule, donor type, donor heavy atom, donor atom, acceptor molecule, acceptor atom, score
      L1  H     7    28       P1  7948  1.00
      L1  H    10    29       P1  7948  0.94
      P1  H 10752 10765       L1    14  1.00

> <Gold.PLP.Chemscore.Internal.Correction>
0.0251

> <Gold.Rescore>
     Score         DG    S(hbond)    S(metal)    S(lipo)     H(rot)  DE(clash)    DE(int)     intcor
     17.17     -18.97       2.18        0.00      86.22       1.51       0.01       1.78       ----

> <Gold.Chemscore.Fitness>
17.1700

> <Gold.Chemscore.DG>
-18.9651

> <Gold.Chemscore.ZeroCoef>
-5.4800

> <Gold.Chemscore.Hbond>
2.1768

> <Gold.Chemscore.Metal>
0.0000

> <Gold.Chemscore.Lipo>
86.2213

> <Gold.Chemscore.Internal_Hbond>
0.0000

> <Gold.Chemscore.DEClash>
0.0144

> <Gold.Chemscore.DEInternal>
1.7806

> <Gold.Chemscore.Rot>
1.5131

> <Gold.Chemscore.Internal.Correction>
   9.000000E+99

> <Gold.Chemscore.Hbonds>
donor molecule, donor type, donor heavy atom, donor atom, acceptor molecule, acceptor atom, score
      L1  H     7    28       P1  7948  0.52
      L1  H    10    29       P1  7948  0.45
      P1  H 10752 10765       L1    14  0.94

> <Gold.Chemscore.Hbond.Weighted>
-7.2706

> <Gold.Chemscore.Metal.Weighted>
-0.0000

> <Gold.Chemscore.Lipo.Weighted>
-10.0879

> <Gold.Chemscore.Internal_Hbond.Weighted>
0.0000

> <Gold.Chemscore.DEClash.Weighted>
0.0144

> <Gold.Chemscore.DEInternal.Weighted>
1.7806

> <Gold.Chemscore.Rot.Weighted>
3.8735

> <Gold.Chemscore.Internal.Correction.Weighted>
   9.000000E+99

> <Gold.Protein.RotatedTorsions>
[ 6907 6896 6895 6894 ] final  -33.12 input  -60.11 | X-H torsion
[ 7974 7965 7964 7962 ] final    3.35 input  175.53 | X-H torsion
[ 8008 7997 7996 7995 ] final   20.87 input   59.86 | X-H torsion
[ 10167 10162 10161 10158 ] final  -92.70 input  -65.29 | X-H torsion
[ 10718 10713 10712 10709 ] final   23.33 input   66.30 | X-H torsion
[ 10763 10752 10751 10750 ] final -134.19 input  -60.55 | X-H torsion
[ 11005 11000 10999 10996 ] final    5.98 input  -57.11 | X-H torsion

> <Gold.Protein.ActiveResidues>
 VAL166  LYS551  ARG553  GLY616  TRP617  ASP618  TYR619  PRO620  LYS621  CYS622 
 ASP623  PHE694  ASN695  SER759  ASP760  ASP761  ALA762  ILE779  LEU786  VAL792 
 PHE793  MET794  SER795  GLU796  ALA797  LYS798  CYS799  TRP800  GLU811  SER814 

> <Gold.Protein.RotatedAtoms>
  151.0697  134.9791  159.8302 H   0  0  0  0  0  0  0  0  0  0  0  0  # atno 6907 bound_to 6896
  152.5407  134.2314  159.8836 H   0  0  0  0  0  0  0  0  0  0  0  0  # atno 6908 bound_to 6896
  151.2338  133.4393  159.2638 H   0  0  0  0  0  0  0  0  0  0  0  0  # atno 6909 bound_to 6896
  146.2445  140.0698  142.8363 H   0  0  0  0  0  0  0  0  0  0  0  0  # atno 7974 bound_to 7965
  154.9421  140.3054  155.5116 H   0  0  0  0  0  0  0  0  0  0  0  0  # atno 8008 bound_to 7997
  156.2995  140.2334  156.4428 H   0  0  0  0  0  0  0  0  0  0  0  0  # atno 8009 bound_to 7997
  154.8135  140.0427  157.1348 H   0  0  0  0  0  0  0  0  0  0  0  0  # atno 8010 bound_to 7997
  140.3321  143.2989  151.9930 H   0  0  0  0  0  0  0  0  0  0  0  0  # atno 10167 bound_to 10162
  157.1645  130.6732  149.6056 H   0  0  0  0  0  0  0  0  0  0  0  0  # atno 10718 bound_to 10713
  154.8722  135.3742  154.4696 H   0  0  0  0  0  0  0  0  0  0  0  0  # atno 10763 bound_to 10752
  153.5357  135.7027  153.5666 H   0  0  0  0  0  0  0  0  0  0  0  0  # atno 10764 bound_to 10752
  153.3850  135.3987  155.1848 H   0  0  0  0  0  0  0  0  0  0  0  0  # atno 10765 bound_to 10752
  140.5646  134.0160  155.7985 H   0  0  0  0  0  0  0  0  0  0  0  0  # atno 11005 bound_to 11000
  145.0826  140.9231  143.4816 LP  0  0  0  0  0  0  0  0  0  0  0  0  # atno 17320 bound_to 7965
  145.0854  139.2929  143.5762 LP  0  0  0  0  0  0  0  0  0  0  0  0  # atno 17321 bound_to 7965
  139.4854  144.6226  151.7226 LP  0  0  0  0  0  0  0  0  0  0  0  0  # atno 17342 bound_to 10162
  140.5387  144.0614  150.6080 LP  0  0  0  0  0  0  0  0  0  0  0  0  # atno 17343 bound_to 10162
  155.9748  130.4700  150.6415 LP  0  0  0  0  0  0  0  0  0  0  0  0  # atno 17370 bound_to 10713
  157.4101  131.0822  151.1229 LP  0  0  0  0  0  0  0  0  0  0  0  0  # atno 17371 bound_to 10713
  141.1093  133.9642  157.2939 LP  0  0  0  0  0  0  0  0  0  0  0  0  # atno 17394 bound_to 11000
  139.9391  135.0193  156.8651 LP  0  0  0  0  0  0  0  0  0  0  0  0  # atno 17395 bound_to 11000

$$$$
