AV-unprocessed.smi:837|AV-procd|sdf|3895|dock4
  -GOLD-   22720 1353D 1   1.00000     0.00000
 Structure written by MMmdl.
 49 51  0  0  0  0  0  0  0  0  1 V2000
  146.6522  133.5989  153.5708 C   0  0  0  0  0  0  0  0  0  0  0  0
  145.8925  133.3928  152.2427 C   0  0  1  0  0  0  0  0  0  0  0  0
  145.6519  131.8874  151.9963 C   0  0  0  0  0  0  0  0  0  0  0  0
  144.9570  131.6282  150.6504 C   0  0  0  0  0  0  0  0  0  0  0  0
  143.6346  132.4006  150.5474 C   0  0  0  0  0  0  0  0  0  0  0  0
  143.8594  133.9041  150.7735 C   0  0  0  0  0  0  0  0  0  0  0  0
  144.5557  134.1894  152.1260 C   0  0  1  0  0  0  0  0  0  0  0  0
  143.6572  133.9280  153.2387 N   0  0  0  0  0  0  0  0  0  0  0  0
  143.3501  135.0315  153.9326 C   0  0  0  0  0  0  0  0  0  0  0  0
  142.5982  135.0699  154.9052 O   0  0  0  0  0  0  0  0  0  0  0  0
  144.0015  136.0720  153.3820 N   0  0  0  0  0  0  0  0  0  0  0  0
  143.8938  137.4617  153.8428 C   0  0  0  0  0  0  0  0  0  0  0  0
  145.1311  137.9182  154.6269 C   0  0  0  0  0  0  0  0  0  0  0  0
  145.5405  137.2681  155.5896 O   0  0  0  0  0  0  0  0  0  0  0  0
  145.7220  139.0417  154.1948 N   0  0  0  0  0  0  0  0  0  0  0  0
  146.8859  139.6714  154.8116 C   0  0  0  0  0  0  0  0  0  0  0  0
  148.0540  139.8778  153.8253 C   0  0  0  0  0  0  0  0  0  0  0  0
  149.4239  139.7274  154.4649 C   0  0  0  0  0  0  0  0  0  0  0  0
  149.9264  140.7113  155.3418 C   0  0  0  0  0  0  0  0  0  0  0  0
  151.2071  140.5334  155.8985 C   0  0  0  0  0  0  0  0  0  0  0  0
  151.9326  139.3755  155.5546 C   0  0  0  0  0  0  0  0  0  0  0  0
  151.4609  138.4254  154.7184 N   0  0  0  0  0  0  0  0  0  0  0  0
  150.2314  138.6039  154.1890 C   0  0  0  0  0  0  0  0  0  0  0  0
  144.7313  135.6893  152.3251 C   0  0  0  0  0  0  0  0  0  0  0  0
  145.4357  136.4027  151.6104 O   0  0  0  0  0  0  0  0  0  0  0  0
  146.0655  133.2651  154.4270 H   0  0  0  0  0  0  0  0  0  0  0  0
  146.9132  134.6449  153.7323 H   0  0  0  0  0  0  0  0  0  0  0  0
  147.5849  133.0347  153.5754 H   0  0  0  0  0  0  0  0  0  0  0  0
  146.5520  133.7434  151.4467 H   0  0  0  0  0  0  0  0  0  0  0  0
  146.6012  131.3510  152.0184 H   0  0  0  0  0  0  0  0  0  0  0  0
  145.0478  131.4708  152.8034 H   0  0  0  0  0  0  0  0  0  0  0  0
  145.6177  131.9248  149.8349 H   0  0  0  0  0  0  0  0  0  0  0  0
  144.7739  130.5605  150.5266 H   0  0  0  0  0  0  0  0  0  0  0  0
  143.1847  132.2363  149.5679 H   0  0  0  0  0  0  0  0  0  0  0  0
  142.9250  132.0160  151.2809 H   0  0  0  0  0  0  0  0  0  0  0  0
  144.4689  134.2947  149.9569 H   0  0  0  0  0  0  0  0  0  0  0  0
  142.9043  134.4291  150.7144 H   0  0  0  0  0  0  0  0  0  0  0  0
  143.2981  133.0073  153.4459 H   0  0  0  0  0  0  0  0  0  0  0  0
  143.7530  138.1353  152.9962 H   0  0  0  0  0  0  0  0  0  0  0  0
  143.0017  137.5732  154.4625 H   0  0  0  0  0  0  0  0  0  0  0  0
  145.3218  139.5101  153.3949 H   0  0  0  0  0  0  0  0  0  0  0  0
  146.6031  140.6187  155.2727 H   0  0  0  0  0  0  0  0  0  0  0  0
  147.2107  139.0194  155.6227 H   0  0  0  0  0  0  0  0  0  0  0  0
  147.9695  139.1681  153.0012 H   0  0  0  0  0  0  0  0  0  0  0  0
  147.9827  140.8682  153.3745 H   0  0  0  0  0  0  0  0  0  0  0  0
  149.3472  141.5924  155.5776 H   0  0  0  0  0  0  0  0  0  0  0  0
  151.6252  141.2700  156.5683 H   0  0  0  0  0  0  0  0  0  0  0  0
  152.9192  139.2087  155.9611 H   0  0  0  0  0  0  0  0  0  0  0  0
  149.8841  137.8297  153.5205 H   0  0  0  0  0  0  0  0  0  0  0  0
  1  2  1  0  0  0  0
  1 26  1  0  0  0  0
  1 27  1  0  0  0  0
  1 28  1  0  0  0  0
  2  7  1  0  0  0  0
  2  3  1  0  0  0  0
  2 29  1  0  0  0  0
  3  4  1  0  0  0  0
  3 30  1  0  0  0  0
  3 31  1  0  0  0  0
  4  5  1  0  0  0  0
  4 32  1  0  0  0  0
  4 33  1  0  0  0  0
  5  6  1  0  0  0  0
  5 34  1  0  0  0  0
  5 35  1  0  0  0  0
  6  7  1  0  0  0  0
  6 36  1  0  0  0  0
  6 37  1  0  0  0  0
  7 24  1  0  0  0  0
  7  8  1  0  0  0  0
  8  9  1  0  0  0  0
  8 38  1  0  0  0  0
  9 10  2  0  0  0  0
  9 11  1  0  0  0  0
 11 12  1  0  0  0  0
 11 24  1  0  0  0  0
 12 13  1  0  0  0  0
 12 39  1  0  0  0  0
 12 40  1  0  0  0  0
 13 14  2  0  0  0  0
 13 15  1  0  0  0  0
 15 16  1  0  0  0  0
 15 41  1  0  0  0  0
 16 17  1  0  0  0  0
 16 42  1  0  0  0  0
 16 43  1  0  0  0  0
 17 18  1  0  0  0  0
 17 44  1  0  0  0  0
 17 45  1  0  0  0  0
 18 23  1  0  0  0  0
 18 19  2  0  0  0  0
 19 20  1  0  0  0  0
 19 46  1  0  0  0  0
 20 21  2  0  0  0  0
 20 47  1  0  0  0  0
 21 22  1  0  0  0  0
 21 48  1  0  0  0  0
 22 23  2  0  0  0  0
 23 49  1  0  0  0  0
 24 25  2  0  0  0  0
M  END
> <s_m_source_file>
AV-unprocessed.smi

> <i_m_source_file_index>
837

> <i_lp_mmshare_version>
43012

> <i_f3d_flags>
0

> <s_epik_input>
W0NIMl0xW0NIMl1bQ0gyXVtDSDJdW0NAQEhdKFtDSDNdKVtDQEBdMTJbTkhdQyg9TylOKEMyPU8pW0NIMl1DKD1PKVtOSF1bQ0gyXVtDSDJdYzNbY0hdW2NIXVtjSF1uW2NIXTM=

> <s_epik_cmdline>
J2VwaWtfcHl0aG9uJywgJy1waCcsICc3LjAnLCAnLXRuJywgJzgnLCAnLW1hJywgJzIwMCcsICctbWV0YWxfYmluZGluZycsICctaW1hZScsICc8aW5maWxlLm1hZT4nLCAnLW9tYWUnLCAnPG91dGZpbGUubWFlPic=

> <r_lp_tautomer_probability>
1

> <r_epik_Ionization_Penalty>
0.0127837

> <r_epik_Ionization_Penalty_Charging>
0

> <r_epik_Ionization_Penalty_Neutral>
0.0127837

> <r_epik_State_Penalty>
0.00987657

> <r_epik_Charging_Adjusted_Penalty>
0.00987657

> <i_epik_Tot_Q>
0

> <i_epik_Tot_abs_Q>
0

> <r_epik_Metal_State_Penalty>
0.0309865

> <b_epik_Metal_Only>
0

> <s_lp_Force_Field>
OPLS_2005

> <r_lp_Energy>
22.8196

> <b_lp_Chiralities_Consistent>
1

> <s_lp_Variant>
AV-unprocessed.smi:837-4

> <Gold.Version>
5.8.1

> <Gold.Id.Protein>
6NUR|6NUR_protein|mol2

> <Gold.PLP.Fitness>
46.9149

> <Gold.PLP.PLP>
-38.8511

> <Gold.PLP.part.hbond>
-3.0000

> <Gold.PLP.part.metal>
0.0000

> <Gold.PLP.part.buried>
-4.0016

> <Gold.PLP.part.nonpolar>
-32.7165

> <Gold.PLP.part.repulsive>
0.4574

> <Gold.PLP.ligand.clash>
0.0000

> <Gold.PLP.ligand.torsion>
0.6256

> <Gold.PLP.Chemscore.Hbond>
2.0932

> <Gold.PLP.Chemscore.CHOScore>
1.0000

> <Gold.PLP.Chemscore.Metal>
0.0000

> <Gold.Chemscore.Hbonds>
donor molecule, donor type, donor heavy atom, donor atom, acceptor molecule, acceptor atom, score
      L1  H     8    38       P1 10957  0.98
      L1  H    15    41       P1 10175  0.79
      P1  H 11000 11005       L1    10  0.09
      L1  C    23    49       P1  7948  1.00

> <Gold.PLP.Chemscore.Internal.Correction>
0.0353

> <Gold.Rescore>
     Score         DG    S(hbond)    S(metal)    S(lipo)     H(rot)  DE(clash)    DE(int)     intcor
     17.85     -18.35       2.17        0.00      88.71       1.86       0.04       0.46       ----

> <Gold.Chemscore.Fitness>
17.8532

> <Gold.Chemscore.DG>
-18.3531

> <Gold.Chemscore.ZeroCoef>
-5.4800

> <Gold.Chemscore.Hbond>
2.1686

> <Gold.Chemscore.Metal>
0.0000

> <Gold.Chemscore.Lipo>
88.7149

> <Gold.Chemscore.Internal_Hbond>
0.0000

> <Gold.Chemscore.DEClash>
0.0356

> <Gold.Chemscore.DEInternal>
0.4643

> <Gold.Chemscore.Rot>
1.8553

> <Gold.Chemscore.Internal.Correction>
   9.000000E+99

> <Gold.Chemscore.Hbonds>
donor molecule, donor type, donor heavy atom, donor atom, acceptor molecule, acceptor atom, score
      L1  H     8    38       P1 10957  0.79
      L1  H    15    41       P1 10175  0.74
      P1  H 11000 11005       L1    10  0.10

> <Gold.Chemscore.Hbond.Weighted>
-7.2432

> <Gold.Chemscore.Metal.Weighted>
-0.0000

> <Gold.Chemscore.Lipo.Weighted>
-10.3796

> <Gold.Chemscore.Internal_Hbond.Weighted>
0.0000

> <Gold.Chemscore.DEClash.Weighted>
0.0356

> <Gold.Chemscore.DEInternal.Weighted>
0.4643

> <Gold.Chemscore.Rot.Weighted>
4.7497

> <Gold.Chemscore.Internal.Correction.Weighted>
   9.000000E+99

> <Gold.Protein.RotatedTorsions>
[ 6907 6896 6895 6894 ] final   47.16 input  -60.11 | X-H torsion
[ 7974 7965 7964 7962 ] final   67.85 input  175.53 | X-H torsion
[ 8008 7997 7996 7995 ] final   80.73 input   59.86 | X-H torsion
[ 10167 10162 10161 10158 ] final  -22.97 input  -65.29 | X-H torsion
[ 10718 10713 10712 10709 ] final   -3.37 input   66.30 | X-H torsion
[ 10763 10752 10751 10750 ] final -165.67 input  -60.55 | X-H torsion
[ 11005 11000 10999 10996 ] final  -21.64 input  -57.11 | X-H torsion

> <Gold.Protein.ActiveResidues>
 VAL166  LYS551  ARG553  GLY616  TRP617  ASP618  TYR619  PRO620  LYS621  CYS622 
 ASP623  PHE694  ASN695  SER759  ASP760  ASP761  ALA762  ILE779  LEU786  VAL792 
 PHE793  MET794  SER795  GLU796  ALA797  LYS798  CYS799  TRP800  GLU811  SER814 

> <Gold.Protein.RotatedAtoms>
  152.2648  134.7996  160.0424 H   0  0  0  0  0  0  0  0  0  0  0  0  # atno 6907 bound_to 6896
  151.8629  133.3455  159.3718 H   0  0  0  0  0  0  0  0  0  0  0  0  # atno 6908 bound_to 6896
  150.7130  134.5115  159.5654 H   0  0  0  0  0  0  0  0  0  0  0  0  # atno 6909 bound_to 6896
  145.8097  139.3025  143.1106 H   0  0  0  0  0  0  0  0  0  0  0  0  # atno 7974 bound_to 7965
  155.8875  140.3440  155.5932 H   0  0  0  0  0  0  0  0  0  0  0  0  # atno 8008 bound_to 7997
  155.7649  140.0837  157.2156 H   0  0  0  0  0  0  0  0  0  0  0  0  # atno 8009 bound_to 7997
  154.4030  140.1529  156.2862 H   0  0  0  0  0  0  0  0  0  0  0  0  # atno 8010 bound_to 7997
  140.7287  143.4486  151.0550 H   0  0  0  0  0  0  0  0  0  0  0  0  # atno 10167 bound_to 10162
  156.7770  130.5318  149.5757 H   0  0  0  0  0  0  0  0  0  0  0  0  # atno 10718 bound_to 10713
  154.6909  135.2970  154.9481 H   0  0  0  0  0  0  0  0  0  0  0  0  # atno 10763 bound_to 10752
  154.0444  135.6653  153.4797 H   0  0  0  0  0  0  0  0  0  0  0  0  # atno 10764 bound_to 10752
  153.0611  135.5115  154.8001 H   0  0  0  0  0  0  0  0  0  0  0  0  # atno 10765 bound_to 10752
  140.8580  133.7808  156.0042 H   0  0  0  0  0  0  0  0  0  0  0  0  # atno 11005 bound_to 11000
  145.9791  140.8698  143.0124 LP  0  0  0  0  0  0  0  0  0  0  0  0  # atno 17320 bound_to 7965
  144.6759  140.2054  143.7382 LP  0  0  0  0  0  0  0  0  0  0  0  0  # atno 17321 bound_to 7965
  139.8160  143.7886  152.3174 LP  0  0  0  0  0  0  0  0  0  0  0  0  # atno 17342 bound_to 10162
  139.7951  144.7395  150.9901 LP  0  0  0  0  0  0  0  0  0  0  0  0  # atno 17343 bound_to 10162
  156.1241  130.6131  151.0238 LP  0  0  0  0  0  0  0  0  0  0  0  0  # atno 17370 bound_to 10713
  157.6664  131.0871  150.7718 LP  0  0  0  0  0  0  0  0  0  0  0  0  # atno 17371 bound_to 10713
  140.8715  134.2721  157.5188 LP  0  0  0  0  0  0  0  0  0  0  0  0  # atno 17394 bound_to 11000
  139.8706  134.9569  156.4253 LP  0  0  0  0  0  0  0  0  0  0  0  0  # atno 17395 bound_to 11000

$$$$
