AV-unprocessed.smi:919|AV-procd|sdf|4167|dock2
  -GOLD-   22720 2 73D 1   1.00000     0.00000
 Structure written by MMmdl.
 43 45  0  0  0  0  0  0  0  0  1 V2000
  153.9498  137.6200  156.8967 C   0  0  0  0  0  0  0  0  0  0  0  0
  152.9683  138.4501  156.1203 C   0  0  0  0  0  0  0  0  0  0  0  0
  153.4039  139.4480  155.3695 N   0  0  0  0  0  0  0  0  0  0  0  0
  152.2651  140.0154  154.7892 O   0  0  0  0  0  0  0  0  0  0  0  0
  151.1759  139.3279  155.2177 C   0  0  0  0  0  0  0  0  0  0  0  0
  149.8534  139.7896  154.7065 C   0  0  0  0  0  0  0  0  0  0  0  0
  151.5515  138.3193  156.0617 C   0  0  0  0  0  0  0  0  0  0  0  0
  150.6909  137.3100  156.7709 C   0  0  0  0  0  0  0  0  0  0  0  0
  151.1532  137.1007  158.2214 C   0  0  0  0  0  0  0  0  0  0  0  0
  150.0641  137.3188  159.1651 N   0  0  0  0  0  0  0  0  0  0  0  0
  149.0802  136.4405  159.4230 C   0  0  0  0  0  0  0  0  0  0  0  0
  149.0019  135.3346  158.8909 O   0  0  0  0  0  0  0  0  0  0  0  0
  148.1699  136.8642  160.3176 N   0  0  0  0  0  0  0  0  0  0  0  0
  146.9894  136.1484  160.8064 C   0  0  1  0  0  0  0  0  0  0  0  0
  147.2865  134.6780  161.1859 C   0  0  0  0  0  0  0  0  0  0  0  0
  146.8648  134.6133  162.6654 C   0  0  2  0  0  0  0  0  0  0  0  0
  145.3322  134.7356  162.7708 C   0  0  0  0  0  0  0  0  0  0  0  0
  145.0831  136.2190  162.4334 C   0  0  0  0  0  0  0  0  0  0  0  0
  146.5036  136.7409  162.1472 C   0  0  1  0  0  0  0  0  0  0  0  0
  147.3254  135.9711  163.1771 C   0  0  0  0  0  0  0  0  0  0  0  0
  153.5418  137.3364  157.8674 H   0  0  0  0  0  0  0  0  0  0  0  0
  154.8801  138.1599  157.0764 H   0  0  0  0  0  0  0  0  0  0  0  0
  154.1943  136.7037  156.3594 H   0  0  0  0  0  0  0  0  0  0  0  0
  149.0368  139.3553  155.2835 H   0  0  0  0  0  0  0  0  0  0  0  0
  149.7217  139.5018  153.6634 H   0  0  0  0  0  0  0  0  0  0  0  0
  149.7705  140.8746  154.7720 H   0  0  0  0  0  0  0  0  0  0  0  0
  149.6466  137.6247  156.7665 H   0  0  0  0  0  0  0  0  0  0  0  0
  150.7107  136.3576  156.2399 H   0  0  0  0  0  0  0  0  0  0  0  0
  151.5652  136.0984  158.3519 H   0  0  0  0  0  0  0  0  0  0  0  0
  151.9556  137.7991  158.4609 H   0  0  0  0  0  0  0  0  0  0  0  0
  150.0497  138.2038  159.6507 H   0  0  0  0  0  0  0  0  0  0  0  0
  148.3197  137.7818  160.7118 H   0  0  0  0  0  0  0  0  0  0  0  0
  146.1960  136.2145  160.0596 H   0  0  0  0  0  0  0  0  0  0  0  0
  146.7317  133.9715  160.5672 H   0  0  0  0  0  0  0  0  0  0  0  0
  148.3472  134.4428  161.0847 H   0  0  0  0  0  0  0  0  0  0  0  0
  147.2747  133.7558  163.2000 H   0  0  0  0  0  0  0  0  0  0  0  0
  144.8169  134.0603  162.0867 H   0  0  0  0  0  0  0  0  0  0  0  0
  144.9919  134.5110  163.7826 H   0  0  0  0  0  0  0  0  0  0  0  0
  144.4098  136.3477  161.5851 H   0  0  0  0  0  0  0  0  0  0  0  0
  144.6457  136.7372  163.2877 H   0  0  0  0  0  0  0  0  0  0  0  0
  146.5838  137.8269  162.2098 H   0  0  0  0  0  0  0  0  0  0  0  0
  147.0262  136.1705  164.2077 H   0  0  0  0  0  0  0  0  0  0  0  0
  148.4012  136.1282  163.0805 H   0  0  0  0  0  0  0  0  0  0  0  0
  1  2  1  0  0  0  0
  1 21  1  0  0  0  0
  1 22  1  0  0  0  0
  1 23  1  0  0  0  0
  2  7  1  0  0  0  0
  2  3  2  0  0  0  0
  3  4  1  0  0  0  0
  4  5  1  0  0  0  0
  5  6  1  0  0  0  0
  5  7  2  0  0  0  0
  6 24  1  0  0  0  0
  6 25  1  0  0  0  0
  6 26  1  0  0  0  0
  7  8  1  0  0  0  0
  8  9  1  0  0  0  0
  8 27  1  0  0  0  0
  8 28  1  0  0  0  0
  9 10  1  0  0  0  0
  9 29  1  0  0  0  0
  9 30  1  0  0  0  0
 10 11  1  0  0  0  0
 10 31  1  0  0  0  0
 11 12  2  0  0  0  0
 11 13  1  0  0  0  0
 13 14  1  0  0  0  0
 13 32  1  0  0  0  0
 14 19  1  0  0  0  0
 14 15  1  0  0  0  0
 14 33  1  0  0  0  0
 15 16  1  0  0  0  0
 15 34  1  0  0  0  0
 15 35  1  0  0  0  0
 16 20  1  0  0  0  0
 16 17  1  0  0  0  0
 16 36  1  0  0  0  0
 17 18  1  0  0  0  0
 17 37  1  0  0  0  0
 17 38  1  0  0  0  0
 18 19  1  0  0  0  0
 18 39  1  0  0  0  0
 18 40  1  0  0  0  0
 19 20  1  0  0  0  0
 19 41  1  0  0  0  0
 20 42  1  0  0  0  0
 20 43  1  0  0  0  0
M  END
> <s_m_source_file>
AV-unprocessed.smi

> <i_m_source_file_index>
919

> <i_lp_mmshare_version>
43012

> <i_f3d_flags>
0

> <s_epik_input>
W0NIM11jMW5vYyhbQ0gzXSljMVtDSDJdW0NIMl1bTkhdQyg9TylbTkhdW0NASF0oW0NIMl1bQ0BASF0yMylbQ0BASF0oW0NIMl0zKVtDSDJdW0NIMl0y

> <s_epik_cmdline>
J2VwaWtfcHl0aG9uJywgJy1waCcsICc3LjAnLCAnLXRuJywgJzgnLCAnLW1hJywgJzIwMCcsICctbWV0YWxfYmluZGluZycsICctaW1hZScsICc8aW5maWxlLm1hZT4nLCAnLW9tYWUnLCAnPG91dGZpbGUubWFlPic=

> <r_lp_tautomer_probability>
1

> <r_epik_Ionization_Penalty>
6.40771e-05

> <r_epik_Ionization_Penalty_Charging>
0

> <r_epik_Ionization_Penalty_Neutral>
6.40771e-05

> <r_epik_State_Penalty>
-0

> <r_epik_Charging_Adjusted_Penalty>
0

> <i_epik_Tot_Q>
0

> <i_epik_Tot_abs_Q>
0

> <r_epik_Metal_State_Penalty>
-0

> <b_epik_Metal_Only>
0

> <s_lp_Force_Field>
OPLS_2005

> <r_lp_Energy>
47.296

> <b_lp_Chiralities_Consistent>
1

> <s_lp_Variant>
AV-unprocessed.smi:919-4

> <Gold.Version>
5.8.1

> <Gold.Id.Protein>
6NUR|6NUR_protein|mol2

> <Gold.PLP.Fitness>
40.1764

> <Gold.PLP.PLP>
-33.9614

> <Gold.PLP.part.hbond>
-2.5878

> <Gold.PLP.part.metal>
0.0000

> <Gold.PLP.part.buried>
-4.4679

> <Gold.PLP.part.nonpolar>
-28.2613

> <Gold.PLP.part.repulsive>
0.4865

> <Gold.PLP.ligand.clash>
0.0000

> <Gold.PLP.ligand.torsion>
0.9601

> <Gold.PLP.Chemscore.Hbond>
2.7040

> <Gold.PLP.Chemscore.CHOScore>
0.0000

> <Gold.PLP.Chemscore.Metal>
0.0000

> <Gold.Chemscore.Hbonds>
donor molecule, donor type, donor heavy atom, donor atom, acceptor molecule, acceptor atom, score
      P1  H  6896  6907       L1    12  0.97
      P1  H  7989  7998       L1     4  0.67
      P1  H  7997  8008       L1     3  0.71

> <Gold.PLP.Chemscore.Internal.Correction>
0.0232

> <Gold.Rescore>
     Score         DG    S(hbond)    S(metal)    S(lipo)     H(rot)  DE(clash)    DE(int)     intcor
     18.65     -19.49       2.54        0.00      80.56       1.52       0.05       0.79       ----

> <Gold.Chemscore.Fitness>
18.6516

> <Gold.Chemscore.DG>
-19.4949

> <Gold.Chemscore.ZeroCoef>
-5.4800

> <Gold.Chemscore.Hbond>
2.5360

> <Gold.Chemscore.Metal>
0.0000

> <Gold.Chemscore.Lipo>
80.5642

> <Gold.Chemscore.Internal_Hbond>
0.0000

> <Gold.Chemscore.DEClash>
0.0485

> <Gold.Chemscore.DEInternal>
0.7947

> <Gold.Chemscore.Rot>
1.5161

> <Gold.Chemscore.Internal.Correction>
   9.000000E+99

> <Gold.Chemscore.Hbonds>
donor molecule, donor type, donor heavy atom, donor atom, acceptor molecule, acceptor atom, score
      P1  H  6896  6907       L1    12  0.61
      P1  H  7989  7998       L1     4  0.27
      P1  H  7997  8008       L1     3  0.38

> <Gold.Chemscore.Hbond.Weighted>
-8.4701

> <Gold.Chemscore.Metal.Weighted>
-0.0000

> <Gold.Chemscore.Lipo.Weighted>
-9.4260

> <Gold.Chemscore.Internal_Hbond.Weighted>
0.0000

> <Gold.Chemscore.DEClash.Weighted>
0.0485

> <Gold.Chemscore.DEInternal.Weighted>
0.7947

> <Gold.Chemscore.Rot.Weighted>
3.8813

> <Gold.Chemscore.Internal.Correction.Weighted>
   9.000000E+99

> <Gold.Protein.RotatedTorsions>
[ 6907 6896 6895 6894 ] final  -93.30 input  -60.11 | X-H torsion
[ 7974 7965 7964 7962 ] final -127.35 input  175.53 | X-H torsion
[ 8008 7997 7996 7995 ] final  -32.92 input   59.86 | X-H torsion
[ 10167 10162 10161 10158 ] final  -95.27 input  -65.29 | X-H torsion
[ 10718 10713 10712 10709 ] final   89.34 input   66.30 | X-H torsion
[ 10763 10752 10751 10750 ] final   42.71 input  -60.55 | X-H torsion
[ 11005 11000 10999 10996 ] final -141.09 input  -57.11 | X-H torsion

> <Gold.Protein.ActiveResidues>
 VAL166  LYS551  ARG553  GLY616  TRP617  ASP618  TYR619  PRO620  LYS621  CYS622 
 ASP623  PHE694  ASN695  SER759  ASP760  ASP761  ALA762  ILE779  LEU786  VAL792 
 PHE793  MET794  SER795  GLU796  ALA797  LYS798  CYS799  TRP800  GLU811  SER814 

> <Gold.Protein.RotatedAtoms>
  150.6920  134.1988  159.4313 H   0  0  0  0  0  0  0  0  0  0  0  0  # atno 6907 bound_to 6896
  151.9955  134.9954  160.0572 H   0  0  0  0  0  0  0  0  0  0  0  0  # atno 6908 bound_to 6896
  152.1627  133.4557  159.4906 H   0  0  0  0  0  0  0  0  0  0  0  0  # atno 6909 bound_to 6896
  144.9780  140.7612  143.4630 H   0  0  0  0  0  0  0  0  0  0  0  0  # atno 7974 bound_to 7965
  154.4165  140.1724  156.1805 H   0  0  0  0  0  0  0  0  0  0  0  0  # atno 8008 bound_to 7997
  155.9686  140.3387  155.6531 H   0  0  0  0  0  0  0  0  0  0  0  0  # atno 8009 bound_to 7997
  155.6655  140.0705  157.2529 H   0  0  0  0  0  0  0  0  0  0  0  0  # atno 8010 bound_to 7997
  140.3059  143.3134  152.0200 H   0  0  0  0  0  0  0  0  0  0  0  0  # atno 10167 bound_to 10162
  157.6954  131.0329  150.3411 H   0  0  0  0  0  0  0  0  0  0  0  0  # atno 10718 bound_to 10713
  152.9877  135.6123  154.2994 H   0  0  0  0  0  0  0  0  0  0  0  0  # atno 10763 bound_to 10752
  154.2715  135.2779  155.2738 H   0  0  0  0  0  0  0  0  0  0  0  0  # atno 10764 bound_to 10752
  154.5118  135.5839  153.6668 H   0  0  0  0  0  0  0  0  0  0  0  0  # atno 10765 bound_to 10752
  140.8358  134.2461  157.4834 H   0  0  0  0  0  0  0  0  0  0  0  0  # atno 11005 bound_to 11000
  145.2462  139.2051  143.4966 LP  0  0  0  0  0  0  0  0  0  0  0  0  # atno 17320 bound_to 7965
  146.3400  140.2367  142.8594 LP  0  0  0  0  0  0  0  0  0  0  0  0  # atno 17321 bound_to 7965
  139.4904  144.6421  151.6854 LP  0  0  0  0  0  0  0  0  0  0  0  0  # atno 17342 bound_to 10162
  140.5611  144.0267  150.6170 LP  0  0  0  0  0  0  0  0  0  0  0  0  # atno 17343 bound_to 10162
  156.3872  130.3891  149.7057 LP  0  0  0  0  0  0  0  0  0  0  0  0  # atno 17370 bound_to 10713
  156.4419  130.7865  151.2886 LP  0  0  0  0  0  0  0  0  0  0  0  0  # atno 17371 bound_to 10713
  139.8704  134.9610  156.4382 LP  0  0  0  0  0  0  0  0  0  0  0  0  # atno 17394 bound_to 11000
  140.8949  133.7821  155.9613 LP  0  0  0  0  0  0  0  0  0  0  0  0  # atno 17395 bound_to 11000

$$$$
