AV-unprocessed.smi:2095|AV-procd|sdf|8558|dock1
  -GOLD-   2272011283D 1   1.00000     0.00000
 Structure written by MMmdl.
 42 43  0  0  0  0  0  0  0  0  2 V2000
  144.4320  136.2791  151.6849 C   0  0  0  0  0  0  0  0  0  0  0  0
  145.6133  135.3030  151.5919 C   0  0  2  0  0  0  0  0  0  0  0  0
  145.2247  134.0278  150.8299 C   0  0  0  0  0  0  0  0  0  0  0  0
  146.4184  133.0704  150.7711 C   0  0  0  0  0  0  0  0  0  0  0  0
  146.9590  132.7640  152.1777 C   0  0  0  0  0  0  0  0  0  0  0  0
  147.3256  134.0134  152.9064 N   0  3  2  0  0  0  0  0  0  0  0  0
  147.9910  133.8331  154.2394 C   0  0  1  0  0  0  0  0  0  0  0  0
  147.6907  132.4741  154.9189 C   0  0  0  0  0  0  0  0  0  0  0  0
  149.5183  134.0335  154.0884 C   0  0  0  0  0  0  0  0  0  0  0  0
  149.9145  135.4221  154.2910 N   0  0  0  0  0  0  0  0  0  0  0  0
  150.8753  135.8217  155.1368 C   0  0  0  0  0  0  0  0  0  0  0  0
  151.5284  135.0463  155.8342 O   0  0  0  0  0  0  0  0  0  0  0  0
  151.1433  137.3251  155.2054 C   0  0  0  0  0  0  0  0  0  0  0  0
  152.5340  137.6159  154.9145 N   0  0  0  0  0  0  0  0  0  0  0  0
  153.1224  138.7247  154.4614 C   0  0  0  0  0  0  0  0  0  0  0  0
  154.4328  138.5704  154.3476 N   0  0  0  0  0  0  0  0  0  0  0  0
  154.6343  137.2660  154.7670 N   0  0  0  0  0  0  0  0  0  0  0  0
  153.5113  136.6945  155.1056 N   0  0  0  0  0  0  0  0  0  0  0  0
  146.1579  134.9381  152.9869 C   0  0  0  0  0  0  0  0  0  0  0  0
  143.5965  135.8408  152.2315 H   0  0  0  0  0  0  0  0  0  0  0  0
  144.0722  136.5547  150.6931 H   0  0  0  0  0  0  0  0  0  0  0  0
  144.7196  137.1978  152.1968 H   0  0  0  0  0  0  0  0  0  0  0  0
  146.4089  135.8029  151.0373 H   0  0  0  0  0  0  0  0  0  0  0  0
  144.3840  133.5375  151.3230 H   0  0  0  0  0  0  0  0  0  0  0  0
  144.8951  134.2739  149.8198 H   0  0  0  0  0  0  0  0  0  0  0  0
  146.1273  132.1443  150.2744 H   0  0  0  0  0  0  0  0  0  0  0  0
  147.2099  133.5104  150.1627 H   0  0  0  0  0  0  0  0  0  0  0  0
  146.2203  132.2048  152.7542 H   0  0  0  0  0  0  0  0  0  0  0  0
  147.8274  132.1192  152.0474 H   0  0  0  0  0  0  0  0  0  0  0  0
  147.6051  134.6029  154.9102 H   0  0  0  0  0  0  0  0  0  0  0  0
  148.1943  132.3844  155.8812 H   0  0  0  0  0  0  0  0  0  0  0  0
  148.0205  131.6371  154.3023 H   0  0  0  0  0  0  0  0  0  0  0  0
  146.6286  132.3486  155.1305 H   0  0  0  0  0  0  0  0  0  0  0  0
  150.0423  133.4005  154.8070 H   0  0  0  0  0  0  0  0  0  0  0  0
  149.8641  133.7334  153.0996 H   0  0  0  0  0  0  0  0  0  0  0  0
  149.4305  136.1252  153.7512 H   0  0  0  0  0  0  0  0  0  0  0  0
  150.5051  137.8588  154.4993 H   0  0  0  0  0  0  0  0  0  0  0  0
  150.9068  137.7010  156.2016 H   0  0  0  0  0  0  0  0  0  0  0  0
  152.5961  139.6369  154.2218 H   0  0  0  0  0  0  0  0  0  0  0  0
  146.4339  135.8559  153.5043 H   0  0  0  0  0  0  0  0  0  0  0  0
  145.3717  134.4730  153.5844 H   0  0  0  0  0  0  0  0  0  0  0  0
  148.0125  134.4674  152.3216 H   0  0  0  0  0  0  0  0  0  0  0  0
  1  2  1  0  0  0  0
  1 20  1  0  0  0  0
  1 21  1  0  0  0  0
  1 22  1  0  0  0  0
  2 19  1  0  0  0  0
  2  3  1  0  0  0  0
  2 23  1  0  0  0  0
  3  4  1  0  0  0  0
  3 24  1  0  0  0  0
  3 25  1  0  0  0  0
  4  5  1  0  0  0  0
  4 26  1  0  0  0  0
  4 27  1  0  0  0  0
  5  6  1  0  0  0  0
  5 28  1  0  0  0  0
  5 29  1  0  0  0  0
  6  7  1  0  0  0  0
  6 19  1  0  0  0  0
  6 42  1  0  0  0  0
  7  8  1  0  0  0  0
  7  9  1  0  0  0  0
  7 30  1  0  0  0  0
  8 31  1  0  0  0  0
  8 32  1  0  0  0  0
  8 33  1  0  0  0  0
  9 10  1  0  0  0  0
  9 34  1  0  0  0  0
  9 35  1  0  0  0  0
 10 11  1  0  0  0  0
 10 36  1  0  0  0  0
 11 12  2  0  0  0  0
 11 13  1  0  0  0  0
 13 14  1  0  0  0  0
 13 37  1  0  0  0  0
 13 38  1  0  0  0  0
 14 18  1  0  0  0  0
 14 15  1  0  0  0  0
 15 16  2  0  0  0  0
 15 39  1  0  0  0  0
 16 17  1  0  0  0  0
 17 18  2  0  0  0  0
 19 40  1  0  0  0  0
 19 41  1  0  0  0  0
M  CHG  1   6   1
M  END
> <s_m_source_file>
AV-unprocessed.smi

> <i_m_source_file_index>
2095

> <i_lp_mmshare_version>
43012

> <i_f3d_flags>
0

> <s_epik_input>
W0NIM11bQ0BASF0xW0NIMl1bQ0gyXVtDSDJdTihbQ0gyXTEpW0NASF0oW0NIM10pW0NIMl1bTkhdQyg9TylbQ0gyXW4yW2NIXW5ubjI=

> <s_epik_cmdline>
J2VwaWtfcHl0aG9uJywgJy1waCcsICc3LjAnLCAnLXRuJywgJzgnLCAnLW1hJywgJzIwMCcsICctbWV0YWxfYmluZGluZycsICctaW1hZScsICc8aW5maWxlLm1hZT4nLCAnLW9tYWUnLCAnPG91dGZpbGUubWFlPic=

> <r_lp_tautomer_probability>
1

> <r_epik_Ionization_Penalty>
0.00268321

> <r_epik_Ionization_Penalty_Charging>
0.00267875

> <r_epik_Ionization_Penalty_Neutral>
4.46125e-06

> <r_epik_State_Penalty>
0.00186642

> <r_epik_Charging_Adjusted_Penalty>
0.00454517

> <i_epik_Tot_Q>
1

> <i_epik_Tot_abs_Q>
1

> <r_epik_Metal_State_Penalty>
-0

> <b_epik_Metal_Only>
0

> <s_lp_Force_Field>
OPLS_2005

> <r_lp_Energy>
25.5327

> <b_lp_Chiralities_Consistent>
1

> <s_lp_Variant>
AV-unprocessed.smi:2095-5

> <Gold.Version>
5.8.1

> <Gold.Id.Protein>
6NUR|6NUR_protein|mol2

> <Gold.PLP.Fitness>
40.0389

> <Gold.PLP.PLP>
-30.7079

> <Gold.PLP.part.hbond>
-6.7533

> <Gold.PLP.part.metal>
0.0000

> <Gold.PLP.part.buried>
-1.1593

> <Gold.PLP.part.nonpolar>
-22.7894

> <Gold.PLP.part.repulsive>
0.1131

> <Gold.PLP.ligand.clash>
0.0000

> <Gold.PLP.ligand.torsion>
2.0227

> <Gold.PLP.Chemscore.Hbond>
4.4160

> <Gold.PLP.Chemscore.CHOScore>
0.0000

> <Gold.PLP.Chemscore.Metal>
0.0000

> <Gold.Chemscore.Hbonds>
donor molecule, donor type, donor heavy atom, donor atom, acceptor molecule, acceptor atom, score
      L1  H     6    42       P1  7948  1.92
      L1  H    10    36       P1  7948  0.62
      P1  H  7997  8008       L1    16  0.41
      P1  H 10752 10763       L1    12  0.59

> <Gold.PLP.Chemscore.Internal.Correction>
0.1283

> <Gold.Rescore>
     Score         DG    S(hbond)    S(metal)    S(lipo)     H(rot)  DE(clash)    DE(int)     intcor
      8.57     -11.98       2.26        0.00      48.97       2.64       0.23       3.18       ----

> <Gold.Chemscore.Fitness>
8.5706

> <Gold.Chemscore.DG>
-11.9790

> <Gold.Chemscore.ZeroCoef>
-5.4800

> <Gold.Chemscore.Hbond>
2.2568

> <Gold.Chemscore.Metal>
0.0000

> <Gold.Chemscore.Lipo>
48.9709

> <Gold.Chemscore.Internal_Hbond>
0.0000

> <Gold.Chemscore.DEClash>
0.2295

> <Gold.Chemscore.DEInternal>
3.1788

> <Gold.Chemscore.Rot>
2.6439

> <Gold.Chemscore.Internal.Correction>
   9.000000E+99

> <Gold.Chemscore.Hbonds>
donor molecule, donor type, donor heavy atom, donor atom, acceptor molecule, acceptor atom, score
      L1  H     6    42       P1  7948  0.27
      L1  H    10    36       P1  7948  0.43
      P1  H  7997  8008       L1    16  0.03
      P1  H 10752 10763       L1    12  0.04

> <Gold.Chemscore.Hbond.Weighted>
-7.5378

> <Gold.Chemscore.Metal.Weighted>
-0.0000

> <Gold.Chemscore.Lipo.Weighted>
-5.7296

> <Gold.Chemscore.Internal_Hbond.Weighted>
0.0000

> <Gold.Chemscore.DEClash.Weighted>
0.2295

> <Gold.Chemscore.DEInternal.Weighted>
3.1788

> <Gold.Chemscore.Rot.Weighted>
6.7685

> <Gold.Chemscore.Internal.Correction.Weighted>
   9.000000E+99

> <Gold.Protein.RotatedTorsions>
[ 6907 6896 6895 6894 ] final   55.51 input  -60.11 | X-H torsion
[ 7974 7965 7964 7962 ] final -136.65 input  175.53 | X-H torsion
[ 8008 7997 7996 7995 ] final   12.53 input   59.86 | X-H torsion
[ 10167 10162 10161 10158 ] final  156.45 input  -65.29 | X-H torsion
[ 10718 10713 10712 10709 ] final   27.36 input   66.30 | X-H torsion
[ 10763 10752 10751 10750 ] final   82.46 input  -60.55 | X-H torsion
[ 11005 11000 10999 10996 ] final  132.59 input  -57.11 | X-H torsion

> <Gold.Protein.ActiveResidues>
 VAL166  LYS551  ARG553  GLY616  TRP617  ASP618  TYR619  PRO620  LYS621  CYS622 
 ASP623  PHE694  ASN695  SER759  ASP760  ASP761  ALA762  ILE779  LEU786  VAL792 
 PHE793  MET794  SER795  GLU796  ALA797  LYS798  CYS799  TRP800  GLU811  SER814 

> <Gold.Protein.RotatedAtoms>
  152.3546  134.6958  160.0225 H   0  0  0  0  0  0  0  0  0  0  0  0  # atno 6907 bound_to 6896
  151.7301  133.3312  159.3346 H   0  0  0  0  0  0  0  0  0  0  0  0  # atno 6908 bound_to 6896
  150.7563  134.6304  159.6228 H   0  0  0  0  0  0  0  0  0  0  0  0  # atno 6909 bound_to 6896
  144.8908  140.6640  143.5146 H   0  0  0  0  0  0  0  0  0  0  0  0  # atno 7974 bound_to 7965
  154.8218  140.2885  155.5781 H   0  0  0  0  0  0  0  0  0  0  0  0  # atno 8008 bound_to 7997
  156.2998  140.2548  156.3057 H   0  0  0  0  0  0  0  0  0  0  0  0  # atno 8009 bound_to 7997
  154.9330  140.0383  157.2047 H   0  0  0  0  0  0  0  0  0  0  0  0  # atno 8010 bound_to 7997
  139.4821  144.5008  151.8171 H   0  0  0  0  0  0  0  0  0  0  0  0  # atno 10167 bound_to 10162
  157.2192  130.6970  149.6262 H   0  0  0  0  0  0  0  0  0  0  0  0  # atno 10718 bound_to 10713
  153.1205  135.4727  154.9187 H   0  0  0  0  0  0  0  0  0  0  0  0  # atno 10763 bound_to 10752
  154.7570  135.3121  154.8453 H   0  0  0  0  0  0  0  0  0  0  0  0  # atno 10764 bound_to 10752
  153.9018  135.6874  153.4808 H   0  0  0  0  0  0  0  0  0  0  0  0  # atno 10765 bound_to 10752
  139.9799  134.9551  156.9603 H   0  0  0  0  0  0  0  0  0  0  0  0  # atno 11005 bound_to 11000
  145.3786  139.1642  143.4293 LP  0  0  0  0  0  0  0  0  0  0  0  0  # atno 17320 bound_to 7965
  146.3053  140.3864  142.8689 LP  0  0  0  0  0  0  0  0  0  0  0  0  # atno 17321 bound_to 7965
  140.4501  144.1867  150.5897 LP  0  0  0  0  0  0  0  0  0  0  0  0  # atno 17342 bound_to 10162
  140.4594  143.2455  151.9241 LP  0  0  0  0  0  0  0  0  0  0  0  0  # atno 17343 bound_to 10162
  155.9684  130.4525  150.5778 LP  0  0  0  0  0  0  0  0  0  0  0  0  # atno 17370 bound_to 10713
  157.3593  131.0747  151.1649 LP  0  0  0  0  0  0  0  0  0  0  0  0  # atno 17371 bound_to 10713
  140.5118  134.0995  155.7272 LP  0  0  0  0  0  0  0  0  0  0  0  0  # atno 17394 bound_to 11000
  141.1472  133.9033  157.2186 LP  0  0  0  0  0  0  0  0  0  0  0  0  # atno 17395 bound_to 11000

$$$$
