AV-unprocessed.smi:937|AV-procd|sdf|4214|dock5
  -GOLD-   22720 2123D 1   1.00000     0.00000
 Structure written by MMmdl.
 46 47  0  0  0  0  0  0  0  0  2 V2000
  148.1221  131.2252  153.1805 C   0  0  0  0  0  0  0  0  0  0  0  0
  148.8893  132.2634  153.9715 C   0  0  0  0  0  0  0  0  0  0  0  0
  149.0740  133.5814  153.5007 C   0  0  0  0  0  0  0  0  0  0  0  0
  149.7955  134.5006  154.2908 C   0  0  0  0  0  0  0  0  0  0  0  0
  150.3160  134.0837  155.5355 C   0  0  0  0  0  0  0  0  0  0  0  0
  151.0962  135.0443  156.4106 C   0  0  0  0  0  0  0  0  0  0  0  0
  150.2200  136.1928  156.9361 C   0  0  0  0  0  0  0  0  0  0  0  0
  151.0014  137.4062  157.1397 N   0  0  0  0  0  0  0  0  0  0  0  0
  150.9782  138.1550  158.2556 C   0  0  0  0  0  0  0  0  0  0  0  0
  150.2952  137.8779  159.2401 O   0  0  0  0  0  0  0  0  0  0  0  0
  151.7610  139.2484  158.2204 N   0  0  0  0  0  0  0  0  0  0  0  0
  151.9598  140.2605  159.2595 C   0  0  1  0  0  0  0  0  0  0  0  0
  153.3352  140.0862  159.9360 C   0  0  0  0  0  0  0  0  0  0  0  0
  153.5947  141.1944  160.9668 C   0  0  0  0  0  0  0  0  0  0  0  0
  153.4662  142.5881  160.3327 C   0  0  0  0  0  0  0  0  0  0  0  0
  152.0890  142.7835  159.6641 C   0  0  1  0  0  0  0  0  0  0  0  0
  151.9429  144.1869  159.0401 C   0  0  0  0  0  0  0  0  0  0  0  0
  152.9249  144.4241  158.1698 F   0  0  0  0  0  0  0  0  0  0  0  0
  150.7736  144.2859  158.4076 F   0  0  0  0  0  0  0  0  0  0  0  0
  151.9787  145.1170  159.9943 F   0  0  0  0  0  0  0  0  0  0  0  0
  151.8386  141.6626  158.6322 C   0  0  0  0  0  0  0  0  0  0  0  0
  150.1009  132.7532  155.9544 C   0  0  0  0  0  0  0  0  0  0  0  0
  149.4044  131.9034  155.1685 N   0  3  0  0  0  0  0  0  0  0  0  0
  148.1431  131.4563  152.1151 H   0  0  0  0  0  0  0  0  0  0  0  0
  147.0818  131.1976  153.5049 H   0  0  0  0  0  0  0  0  0  0  0  0
  148.5530  130.2330  153.3198 H   0  0  0  0  0  0  0  0  0  0  0  0
  148.6680  133.8866  152.5472 H   0  0  0  0  0  0  0  0  0  0  0  0
  149.9464  135.5125  153.9439 H   0  0  0  0  0  0  0  0  0  0  0  0
  151.5329  134.4947  157.2459 H   0  0  0  0  0  0  0  0  0  0  0  0
  151.9330  135.4395  155.8330 H   0  0  0  0  0  0  0  0  0  0  0  0
  149.3974  136.3938  156.2474 H   0  0  0  0  0  0  0  0  0  0  0  0
  149.7668  135.9125  157.8874 H   0  0  0  0  0  0  0  0  0  0  0  0
  151.5941  137.7049  156.3787 H   0  0  0  0  0  0  0  0  0  0  0  0
  152.2881  139.3904  157.3706 H   0  0  0  0  0  0  0  0  0  0  0  0
  151.1756  140.1670  160.0130 H   0  0  0  0  0  0  0  0  0  0  0  0
  153.3996  139.1139  160.4252 H   0  0  0  0  0  0  0  0  0  0  0  0
  154.1228  140.1036  159.1814 H   0  0  0  0  0  0  0  0  0  0  0  0
  152.8865  141.1008  161.7909 H   0  0  0  0  0  0  0  0  0  0  0  0
  154.5888  141.0738  161.3983 H   0  0  0  0  0  0  0  0  0  0  0  0
  153.6238  143.3483  161.0983 H   0  0  0  0  0  0  0  0  0  0  0  0
  154.2579  142.7252  159.5953 H   0  0  0  0  0  0  0  0  0  0  0  0
  151.3281  142.6935  160.4411 H   0  0  0  0  0  0  0  0  0  0  0  0
  152.5497  141.7594  157.8102 H   0  0  0  0  0  0  0  0  0  0  0  0
  150.8466  141.7790  158.1943 H   0  0  0  0  0  0  0  0  0  0  0  0
  150.4629  132.3455  156.8874 H   0  0  0  0  0  0  0  0  0  0  0  0
  149.2608  130.9471  155.4937 H   0  0  0  0  0  0  0  0  0  0  0  0
  1  2  1  0  0  0  0
  1 24  1  0  0  0  0
  1 25  1  0  0  0  0
  1 26  1  0  0  0  0
  2 23  1  0  0  0  0
  2  3  2  0  0  0  0
  3  4  1  0  0  0  0
  3 27  1  0  0  0  0
  4  5  2  0  0  0  0
  4 28  1  0  0  0  0
  5  6  1  0  0  0  0
  5 22  1  0  0  0  0
  6  7  1  0  0  0  0
  6 29  1  0  0  0  0
  6 30  1  0  0  0  0
  7  8  1  0  0  0  0
  7 31  1  0  0  0  0
  7 32  1  0  0  0  0
  8  9  1  0  0  0  0
  8 33  1  0  0  0  0
  9 10  2  0  0  0  0
  9 11  1  0  0  0  0
 11 12  1  0  0  0  0
 11 34  1  0  0  0  0
 12 21  1  0  0  0  0
 12 13  1  0  0  0  0
 12 35  1  0  0  0  0
 13 14  1  0  0  0  0
 13 36  1  0  0  0  0
 13 37  1  0  0  0  0
 14 15  1  0  0  0  0
 14 38  1  0  0  0  0
 14 39  1  0  0  0  0
 15 16  1  0  0  0  0
 15 40  1  0  0  0  0
 15 41  1  0  0  0  0
 16 17  1  0  0  0  0
 16 21  1  0  0  0  0
 16 42  1  0  0  0  0
 17 18  1  0  0  0  0
 17 19  1  0  0  0  0
 17 20  1  0  0  0  0
 21 43  1  0  0  0  0
 21 44  1  0  0  0  0
 22 23  2  0  0  0  0
 22 45  1  0  0  0  0
 23 46  1  0  0  0  0
M  CHG  1  23   1
M  END
> <s_m_source_file>
AV-unprocessed.smi

> <i_m_source_file_index>
937

> <i_lp_mmshare_version>
43012

> <i_f3d_flags>
0

> <s_epik_input>
W0NIM11jMVtjSF1bY0hdYyhbY0hdbjEpW0NIMl1bQ0gyXVtOSF1DKD1PKVtOSF1bQ0BASF0yW0NIMl1bQ0gyXVtDSDJdW0NAQEhdKEMoRikoRilGKVtDSDJdMg==

> <s_epik_cmdline>
J2VwaWtfcHl0aG9uJywgJy1waCcsICc3LjAnLCAnLXRuJywgJzgnLCAnLW1hJywgJzIwMCcsICctbWV0YWxfYmluZGluZycsICctaW1hZScsICc8aW5maWxlLm1hZT4nLCAnLW9tYWUnLCAnPG91dGZpbGUubWFlPic=

> <r_epik_Ionization_Penalty>
1.4226

> <r_epik_Ionization_Penalty_Charging>
1.42255

> <r_epik_Ionization_Penalty_Neutral>
5.16456e-05

> <r_epik_State_Penalty>
1.50646

> <r_epik_Charging_Adjusted_Penalty>
2.92901

> <i_epik_Tot_Q>
1

> <i_epik_Tot_abs_Q>
1

> <r_epik_Metal_State_Penalty>
1.55846

> <b_epik_Metal_Only>
0

> <s_lp_Force_Field>
OPLS_2005

> <r_lp_Energy>
24.5693

> <b_lp_Chiralities_Consistent>
1

> <s_lp_Variant>
AV-unprocessed.smi:937-6

> <Gold.Version>
5.8.1

> <Gold.Id.Protein>
6NUR|6NUR_protein|mol2

> <Gold.PLP.Fitness>
49.0185

> <Gold.PLP.PLP>
-50.0006

> <Gold.PLP.part.hbond>
-0.8247

> <Gold.PLP.part.metal>
0.0000

> <Gold.PLP.part.buried>
-5.6744

> <Gold.PLP.part.nonpolar>
-44.6425

> <Gold.PLP.part.repulsive>
0.1397

> <Gold.PLP.ligand.clash>
0.0000

> <Gold.PLP.ligand.torsion>
0.5051

> <Gold.PLP.Chemscore.Hbond>
0.0000

> <Gold.PLP.Chemscore.CHOScore>
0.0000

> <Gold.PLP.Chemscore.Metal>
0.0000

> <Gold.PLP.Chemscore.Internal.Correction>
0.0280

> <Gold.Rescore>
     Score         DG    S(hbond)    S(metal)    S(lipo)     H(rot)  DE(clash)    DE(int)     intcor
     13.13     -13.71       0.00        0.00     106.61       1.66       0.02       0.56       ----

> <Gold.Chemscore.Fitness>
13.1274

> <Gold.Chemscore.DG>
-13.7077

> <Gold.Chemscore.ZeroCoef>
-5.4800

> <Gold.Chemscore.Hbond>
0.0000

> <Gold.Chemscore.Metal>
0.0000

> <Gold.Chemscore.Lipo>
106.6103

> <Gold.Chemscore.Internal_Hbond>
0.0000

> <Gold.Chemscore.DEClash>
0.0194

> <Gold.Chemscore.DEInternal>
0.5609

> <Gold.Chemscore.Rot>
1.6585

> <Gold.Chemscore.Internal.Correction>
   9.000000E+99

> <Gold.Chemscore.Hbond.Weighted>
-0.0000

> <Gold.Chemscore.Metal.Weighted>
-0.0000

> <Gold.Chemscore.Lipo.Weighted>
-12.4734

> <Gold.Chemscore.Internal_Hbond.Weighted>
0.0000

> <Gold.Chemscore.DEClash.Weighted>
0.0194

> <Gold.Chemscore.DEInternal.Weighted>
0.5609

> <Gold.Chemscore.Rot.Weighted>
4.2457

> <Gold.Chemscore.Internal.Correction.Weighted>
   9.000000E+99

> <Gold.Protein.RotatedTorsions>
[ 6907 6896 6895 6894 ] final  -42.20 input  -60.11 | X-H torsion
[ 7974 7965 7964 7962 ] final  109.12 input  175.53 | X-H torsion
[ 8008 7997 7996 7995 ] final  159.60 input   59.86 | X-H torsion
[ 10167 10162 10161 10158 ] final -133.94 input  -65.29 | X-H torsion
[ 10718 10713 10712 10709 ] final  176.76 input   66.30 | X-H torsion
[ 10763 10752 10751 10750 ] final  -81.55 input  -60.55 | X-H torsion
[ 11005 11000 10999 10996 ] final  123.09 input  -57.11 | X-H torsion

> <Gold.Protein.ActiveResidues>
 VAL166  LYS551  ARG553  GLY616  TRP617  ASP618  TYR619  PRO620  LYS621  CYS622 
 ASP623  PHE694  ASN695  SER759  ASP760  ASP761  ALA762  ILE779  LEU786  VAL792 
 PHE793  MET794  SER795  GLU796  ALA797  LYS798  CYS799  TRP800  GLU811  SER814 

> <Gold.Protein.RotatedAtoms>
  150.9579  134.8971  159.7712 H   0  0  0  0  0  0  0  0  0  0  0  0  # atno 6907 bound_to 6896
  152.5145  134.3714  159.9329 H   0  0  0  0  0  0  0  0  0  0  0  0  # atno 6908 bound_to 6896
  151.3727  133.3808  159.2736 H   0  0  0  0  0  0  0  0  0  0  0  0  # atno 6909 bound_to 6896
  145.2719  139.2664  143.3962 H   0  0  0  0  0  0  0  0  0  0  0  0  # atno 7974 bound_to 7965
  156.2228  140.1827  156.7436 H   0  0  0  0  0  0  0  0  0  0  0  0  # atno 8008 bound_to 7997
  154.5892  140.0653  156.9243 H   0  0  0  0  0  0  0  0  0  0  0  0  # atno 8009 bound_to 7997
  155.2366  140.3319  155.4299 H   0  0  0  0  0  0  0  0  0  0  0  0  # atno 8010 bound_to 7997
  139.8931  143.6698  152.2608 H   0  0  0  0  0  0  0  0  0  0  0  0  # atno 10167 bound_to 10162
  156.9154  130.9923  151.3014 H   0  0  0  0  0  0  0  0  0  0  0  0  # atno 10718 bound_to 10713
  154.5650  135.5622  153.7042 H   0  0  0  0  0  0  0  0  0  0  0  0  # atno 10763 bound_to 10752
  153.0030  135.6283  154.2193 H   0  0  0  0  0  0  0  0  0  0  0  0  # atno 10764 bound_to 10752
  154.2131  135.2873  155.2931 H   0  0  0  0  0  0  0  0  0  0  0  0  # atno 10765 bound_to 10752
  139.9297  134.9641  156.8207 H   0  0  0  0  0  0  0  0  0  0  0  0  # atno 11005 bound_to 11000
  146.3244  140.3163  142.8630 LP  0  0  0  0  0  0  0  0  0  0  0  0  # atno 17320 bound_to 7965
  144.9328  140.7993  143.5679 LP  0  0  0  0  0  0  0  0  0  0  0  0  # atno 17321 bound_to 7965
  139.7092  144.7623  151.1142 LP  0  0  0  0  0  0  0  0  0  0  0  0  # atno 17342 bound_to 10162
  140.7722  143.5354  150.9374 LP  0  0  0  0  0  0  0  0  0  0  0  0  # atno 17343 bound_to 10162
  157.5941  130.8465  149.8703 LP  0  0  0  0  0  0  0  0  0  0  0  0  # atno 17370 bound_to 10713
  156.0516  130.3716  150.1188 LP  0  0  0  0  0  0  0  0  0  0  0  0  # atno 17371 bound_to 10713
  140.6236  133.9970  155.7630 LP  0  0  0  0  0  0  0  0  0  0  0  0  # atno 17394 bound_to 11000
  141.0878  133.9964  157.3286 LP  0  0  0  0  0  0  0  0  0  0  0  0  # atno 17395 bound_to 11000

$$$$
