AV-unprocessed.smi:99|AV-procd|sdf|884|dock3
  -GOLD-   2262017363D 1   1.00000     0.00000
 Structure written by MMmdl.
 52 55  0  0  0  0  0  0  0  0  2 V2000
  147.7472  133.3398  154.2622 O   0  0  0  0  0  0  0  0  0  0  0  0
  146.7250  133.7679  153.7227 C   0  0  0  0  0  0  0  0  0  0  0  0
  146.0165  134.8131  154.1895 O   0  0  0  0  0  0  0  0  0  0  0  0
  146.2241  135.2883  155.5103 C   0  0  0  0  0  0  0  0  0  0  0  0
  147.6835  135.7508  155.6662 C   0  0  1  0  0  0  0  0  0  0  0  0
  147.9459  136.7198  154.6496 O   0  0  0  0  0  0  0  0  0  0  0  0
  148.1608  137.9949  155.1929 C   0  0  2  0  0  0  0  0  0  0  0  0
  149.6235  138.3676  155.0529 N   0  0  0  0  0  0  0  0  0  0  0  0
  150.5386  137.4940  154.4875 C   0  0  0  0  0  0  0  0  0  0  0  0
  151.8419  137.8204  154.3693 C   0  0  0  0  0  0  0  0  0  0  0  0
  152.3013  139.1211  154.8469 C   0  0  0  0  0  0  0  0  0  0  0  0
  153.4896  139.4129  154.7282 O   0  0  0  0  0  0  0  0  0  0  0  0
  151.3838  139.9600  155.4083 N   0  5  0  0  0  0  0  0  0  0  0  0
  150.0652  139.6306  155.5341 C   0  0  0  0  0  0  0  0  0  0  0  0
  149.2323  140.3743  156.0528 O   0  0  0  0  0  0  0  0  0  0  0  0
  147.7695  137.9398  156.6751 C   0  0  1  0  0  0  0  0  0  0  0  0
  146.4195  138.3294  156.8425 O   0  0  0  0  0  0  0  0  0  0  0  0
  148.0106  136.4708  156.9804 C   0  0  1  0  0  0  0  0  0  0  0  0
  147.3024  136.0068  158.1254 O   0  0  0  0  0  0  0  0  0  0  0  0
  147.3768  136.6515  159.3075 C   0  0  0  0  0  0  0  0  0  0  0  0
  147.5592  137.8653  159.4187 O   0  0  0  0  0  0  0  0  0  0  0  0
  147.2378  135.7296  160.4710 C   0  0  0  0  0  0  0  0  0  0  0  0
  147.3283  136.2475  161.7837 C   0  0  0  0  0  0  0  0  0  0  0  0
  147.2221  135.3945  162.8996 C   0  0  0  0  0  0  0  0  0  0  0  0
  147.0218  134.0137  162.7160 C   0  0  0  0  0  0  0  0  0  0  0  0
  146.9206  133.4878  161.4150 C   0  0  0  0  0  0  0  0  0  0  0  0
  147.0232  134.3403  160.2988 C   0  0  0  0  0  0  0  0  0  0  0  0
  146.1567  133.2024  152.4651 C   0  0  0  0  0  0  0  0  0  0  0  0
  145.1405  133.9113  151.7832 C   0  0  0  0  0  0  0  0  0  0  0  0
  144.5650  133.3877  150.6092 C   0  0  0  0  0  0  0  0  0  0  0  0
  144.9992  132.1492  150.1023 C   0  0  0  0  0  0  0  0  0  0  0  0
  146.0119  131.4357  150.7693 C   0  0  0  0  0  0  0  0  0  0  0  0
  146.5892  131.9580  151.9430 C   0  0  0  0  0  0  0  0  0  0  0  0
  145.5470  136.1241  155.6897 H   0  0  0  0  0  0  0  0  0  0  0  0
  145.9876  134.5160  156.2428 H   0  0  0  0  0  0  0  0  0  0  0  0
  148.3475  134.8970  155.5256 H   0  0  0  0  0  0  0  0  0  0  0  0
  147.6147  138.7369  154.6077 H   0  0  0  0  0  0  0  0  0  0  0  0
  150.2209  136.5258  154.1324 H   0  0  0  0  0  0  0  0  0  0  0  0
  152.5409  137.1257  153.9274 H   0  0  0  0  0  0  0  0  0  0  0  0
  148.3971  138.5946  157.2812 H   0  0  0  0  0  0  0  0  0  0  0  0
  145.8689  137.5796  156.6781 H   0  0  0  0  0  0  0  0  0  0  0  0
  149.0824  136.3385  157.1372 H   0  0  0  0  0  0  0  0  0  0  0  0
  147.4882  137.3034  161.9485 H   0  0  0  0  0  0  0  0  0  0  0  0
  147.2973  135.8002  163.8976 H   0  0  0  0  0  0  0  0  0  0  0  0
  146.9437  133.3594  163.5717 H   0  0  0  0  0  0  0  0  0  0  0  0
  146.7658  132.4286  161.2711 H   0  0  0  0  0  0  0  0  0  0  0  0
  146.9361  133.9055  159.3142 H   0  0  0  0  0  0  0  0  0  0  0  0
  144.7857  134.8610  152.1572 H   0  0  0  0  0  0  0  0  0  0  0  0
  143.7865  133.9358  150.0993 H   0  0  0  0  0  0  0  0  0  0  0  0
  144.5552  131.7465  149.2038 H   0  0  0  0  0  0  0  0  0  0  0  0
  146.3444  130.4836  150.3828 H   0  0  0  0  0  0  0  0  0  0  0  0
  147.3582  131.3800  152.4343 H   0  0  0  0  0  0  0  0  0  0  0  0
  1  2  2  0  0  0  0
  2  3  1  0  0  0  0
  2 28  1  0  0  0  0
  3  4  1  0  0  0  0
  4  5  1  0  0  0  0
  4 34  1  0  0  0  0
  4 35  1  0  0  0  0
  5 18  1  0  0  0  0
  5  6  1  0  0  0  0
  5 36  1  0  0  0  0
  6  7  1  0  0  0  0
  7  8  1  0  0  0  0
  7 16  1  0  0  0  0
  7 37  1  0  0  0  0
  8 14  1  0  0  0  0
  8  9  1  0  0  0  0
  9 10  2  0  0  0  0
  9 38  1  0  0  0  0
 10 11  1  0  0  0  0
 10 39  1  0  0  0  0
 11 12  2  0  0  0  0
 11 13  1  0  0  0  0
 13 14  1  0  0  0  0
 14 15  2  0  0  0  0
 16 17  1  0  0  0  0
 16 18  1  0  0  0  0
 16 40  1  0  0  0  0
 17 41  1  0  0  0  0
 18 19  1  0  0  0  0
 18 42  1  0  0  0  0
 19 20  1  0  0  0  0
 20 21  2  0  0  0  0
 20 22  1  0  0  0  0
 22 27  1  0  0  0  0
 22 23  2  0  0  0  0
 23 24  1  0  0  0  0
 23 43  1  0  0  0  0
 24 25  2  0  0  0  0
 24 44  1  0  0  0  0
 25 26  1  0  0  0  0
 25 45  1  0  0  0  0
 26 27  2  0  0  0  0
 26 46  1  0  0  0  0
 27 47  1  0  0  0  0
 28 33  1  0  0  0  0
 28 29  2  0  0  0  0
 29 30  1  0  0  0  0
 29 48  1  0  0  0  0
 30 31  2  0  0  0  0
 30 49  1  0  0  0  0
 31 32  1  0  0  0  0
 31 50  1  0  0  0  0
 32 33  2  0  0  0  0
 32 51  1  0  0  0  0
 33 52  1  0  0  0  0
M  CHG  1  13  -1
M  END
> <s_m_source_file>
AV-unprocessed.smi

> <i_m_source_file_index>
99

> <i_lp_mmshare_version>
43012

> <i_f3d_flags>
0

> <s_epik_input>
W2NIXTFbY0hdW2NIXVtjSF1bY0hdYzFDKD1PKU9bQ0gyXVtDQEBIXTJPW0NAQEhdKG4zW2NIXVtjSF1jKD1PKVtuSF1jMz1PKVtDQEBIXShbT0hdKVtDQEhdMk9DKD1PKWM0W2NIXVtjSF1bY0hdW2NIXVtjSF00

> <s_epik_cmdline>
J2VwaWtfcHl0aG9uJywgJy1waCcsICc3LjAnLCAnLXRuJywgJzgnLCAnLW1hJywgJzIwMCcsICctbWV0YWxfYmluZGluZycsICctaW1hZScsICc8aW5maWxlLm1hZT4nLCAnLW9tYWUnLCAnPG91dGZpbGUubWFlPic=

> <r_lp_tautomer_probability>
1

> <r_epik_Ionization_Penalty>
2.89159

> <r_epik_Ionization_Penalty_Charging>
2.1077e-08

> <r_epik_Ionization_Penalty_Neutral>
2.89159

> <r_epik_State_Penalty>
2.88671

> <r_epik_Charging_Adjusted_Penalty>
2.88671

> <i_epik_Tot_Q>
-1

> <i_epik_Tot_abs_Q>
1

> <r_epik_Metal_State_Penalty>
0.0727308

> <b_epik_Metal_Only>
1

> <s_epik_Chemistry_Notes>
This compound has an ester and may undergo hydrolysis at high or low pH. This compound contains an acetal/aminal-like group ( X-CH(R)-Y where X, Y are N, S, or O) that may be acid/base labile, releasing an aldehyde.

> <s_lp_Force_Field>
OPLS_2005

> <r_lp_Energy>
47.9834

> <b_lp_Chiralities_Consistent>
1

> <s_lp_Variant>
AV-unprocessed.smi:99-20

> <Gold.Version>
5.8.1

> <Gold.Id.Protein>
6NUR|6NUR_protein|mol2

> <Gold.PLP.Fitness>
54.0579

> <Gold.PLP.PLP>
-47.7342

> <Gold.PLP.part.hbond>
-3.9511

> <Gold.PLP.part.metal>
0.0000

> <Gold.PLP.part.buried>
-5.4611

> <Gold.PLP.part.nonpolar>
-40.3688

> <Gold.PLP.part.repulsive>
1.1014

> <Gold.PLP.ligand.clash>
0.0000

> <Gold.PLP.ligand.torsion>
0.6832

> <Gold.PLP.Chemscore.Hbond>
1.4960

> <Gold.PLP.Chemscore.CHOScore>
1.0121

> <Gold.PLP.Chemscore.Metal>
0.0000

> <Gold.Chemscore.Hbonds>
donor molecule, donor type, donor heavy atom, donor atom, acceptor molecule, acceptor atom, score
      P1  H  6934  6947       L1    21  0.56
      P1  H  7997  8010       L1    12  1.00
      L1  C     9    38       P1  7948  0.67
      L1  C     9    38       P1  7949  0.03

> <Gold.PLP.Chemscore.Internal.Correction>
0.1660

> <Gold.Rescore>
     Score         DG    S(hbond)    S(metal)    S(lipo)     H(rot)  DE(clash)    DE(int)     intcor
     10.90     -14.69       1.59        0.00     101.89       3.13       0.03       3.75       ----

> <Gold.Chemscore.Fitness>
10.9043

> <Gold.Chemscore.DG>
-14.6930

> <Gold.Chemscore.ZeroCoef>
-5.4800

> <Gold.Chemscore.Hbond>
1.5917

> <Gold.Chemscore.Metal>
0.0000

> <Gold.Chemscore.Lipo>
101.8926

> <Gold.Chemscore.Internal_Hbond>
0.0000

> <Gold.Chemscore.DEClash>
0.0340

> <Gold.Chemscore.DEInternal>
3.7547

> <Gold.Chemscore.Rot>
3.1346

> <Gold.Chemscore.Internal.Correction>
   9.000000E+99

> <Gold.Chemscore.Hbonds>
donor molecule, donor type, donor heavy atom, donor atom, acceptor molecule, acceptor atom, score
      P1  H  6934  6947       L1    21  0.56
      P1  H  7997  8010       L1    12  0.95

> <Gold.Chemscore.Hbond.Weighted>
-5.3162

> <Gold.Chemscore.Metal.Weighted>
-0.0000

> <Gold.Chemscore.Lipo.Weighted>
-11.9214

> <Gold.Chemscore.Internal_Hbond.Weighted>
0.0000

> <Gold.Chemscore.DEClash.Weighted>
0.0340

> <Gold.Chemscore.DEInternal.Weighted>
3.7547

> <Gold.Chemscore.Rot.Weighted>
8.0246

> <Gold.Chemscore.Internal.Correction.Weighted>
   9.000000E+99

> <Gold.Protein.RotatedTorsions>
[ 6907 6896 6895 6894 ] final  -94.12 input  -60.11 | X-H torsion
[ 7974 7965 7964 7962 ] final   77.18 input  175.53 | X-H torsion
[ 8008 7997 7996 7995 ] final  133.25 input   59.86 | X-H torsion
[ 10167 10162 10161 10158 ] final  -31.47 input  -65.29 | X-H torsion
[ 10718 10713 10712 10709 ] final  -80.81 input   66.30 | X-H torsion
[ 10763 10752 10751 10750 ] final -114.62 input  -60.55 | X-H torsion
[ 11005 11000 10999 10996 ] final -142.56 input  -57.11 | X-H torsion

> <Gold.Protein.ActiveResidues>
 VAL166  LYS551  ARG553  GLY616  TRP617  ASP618  TYR619  PRO620  LYS621  CYS622 
 ASP623  PHE694  ASN695  SER759  ASP760  ASP761  ALA762  ILE779  LEU786  VAL792 
 PHE793  MET794  SER795  GLU796  ALA797  LYS798  CYS799  TRP800  GLU811  SER814 

> <Gold.Protein.RotatedAtoms>
  150.6935  134.1862  159.4267 H   0  0  0  0  0  0  0  0  0  0  0  0  # atno 6907 bound_to 6896
  151.9834  135.0014  160.0567 H   0  0  0  0  0  0  0  0  0  0  0  0  # atno 6908 bound_to 6896
  152.1734  133.4624  159.4957 H   0  0  0  0  0  0  0  0  0  0  0  0  # atno 6909 bound_to 6896
  145.6933  139.2559  143.1747 H   0  0  0  0  0  0  0  0  0  0  0  0  # atno 7974 bound_to 7965
  156.2990  140.2526  156.3223 H   0  0  0  0  0  0  0  0  0  0  0  0  # atno 8008 bound_to 7997
  154.9224  140.0400  157.2024 H   0  0  0  0  0  0  0  0  0  0  0  0  # atno 8009 bound_to 7997
  154.8298  140.2874  155.5734 H   0  0  0  0  0  0  0  0  0  0  0  0  # atno 8010 bound_to 7997
  140.7236  143.3768  151.1674 H   0  0  0  0  0  0  0  0  0  0  0  0  # atno 10167 bound_to 10162
  156.0062  130.4585  150.3857 H   0  0  0  0  0  0  0  0  0  0  0  0  # atno 10718 bound_to 10713
  154.8448  135.4411  154.1535 H   0  0  0  0  0  0  0  0  0  0  0  0  # atno 10763 bound_to 10752
  153.2689  135.6943  153.7507 H   0  0  0  0  0  0  0  0  0  0  0  0  # atno 10764 bound_to 10752
  153.6755  135.3412  155.3140 H   0  0  0  0  0  0  0  0  0  0  0  0  # atno 10765 bound_to 10752
  140.8213  134.2628  157.4899 H   0  0  0  0  0  0  0  0  0  0  0  0  # atno 11005 bound_to 11000
  146.0863  140.7707  142.9617 LP  0  0  0  0  0  0  0  0  0  0  0  0  # atno 17320 bound_to 7965
  144.6990  140.3567  143.7171 LP  0  0  0  0  0  0  0  0  0  0  0  0  # atno 17321 bound_to 7965
  139.7350  143.9013  152.3032 LP  0  0  0  0  0  0  0  0  0  0  0  0  # atno 17342 bound_to 10162
  139.8815  144.7015  150.8873 LP  0  0  0  0  0  0  0  0  0  0  0  0  # atno 17343 bound_to 10162
  157.1934  131.0421  151.2688 LP  0  0  0  0  0  0  0  0  0  0  0  0  # atno 17370 bound_to 10713
  157.4040  130.7349  149.6789 LP  0  0  0  0  0  0  0  0  0  0  0  0  # atno 17371 bound_to 10713
  139.8708  134.9536  156.4152 LP  0  0  0  0  0  0  0  0  0  0  0  0  # atno 17394 bound_to 11000
  140.9096  133.7721  155.9776 LP  0  0  0  0  0  0  0  0  0  0  0  0  # atno 17395 bound_to 11000

$$$$
