AV-unprocessed.smi:1247|AV-procd|sdf|5249|dock7
  -GOLD-   22720 4363D 1   1.00000     0.00000
 Structure written by MMmdl.
 47 48  0  0  0  0  0  0  0  0  2 V2000
  143.7337  132.5460  148.7498 C   0  0  0  0  0  0  0  0  0  0  0  0
  144.4650  132.6709  150.0539 C   0  0  0  0  0  0  0  0  0  0  0  0
  144.8889  133.8618  150.7124 C   0  0  0  0  0  0  0  0  0  0  0  0
  145.4934  133.3818  151.8419 C   0  0  0  0  0  0  0  0  0  0  0  0
  146.0984  134.0730  152.8441 N   0  0  0  0  0  0  0  0  0  0  0  0
  146.0179  135.3862  153.1197 C   0  0  0  0  0  0  0  0  0  0  0  0
  145.3440  136.2070  152.4966 O   0  0  0  0  0  0  0  0  0  0  0  0
  146.7607  135.7063  154.1894 N   0  0  0  0  0  0  0  0  0  0  0  0
  146.8646  137.0452  154.7590 C   0  0  0  0  0  0  0  0  0  0  0  0
  148.3159  137.3714  155.1600 C   0  0  0  0  0  0  0  0  0  0  0  0
  149.1171  137.8997  154.0239 N   0  3  1  0  0  0  0  0  0  0  0  0
  148.6292  139.2046  153.5137 C   0  0  0  0  0  0  0  0  0  0  0  0
  149.0551  140.3619  154.4399 C   0  0  2  0  0  0  0  0  0  0  0  0
  148.6305  141.7283  153.8913 C   0  0  0  0  0  0  0  0  0  0  0  0
  150.4736  140.3551  154.5600 O   0  0  0  0  0  0  0  0  0  0  0  0
  150.9747  139.1576  155.1450 C   0  0  2  0  0  0  0  0  0  0  0  0
  152.4946  139.2989  155.2829 C   0  0  0  0  0  0  0  0  0  0  0  0
  150.5828  137.9541  154.2603 C   0  0  0  0  0  0  0  0  0  0  0  0
  145.4314  132.0063  151.8305 N   0  0  0  0  0  0  0  0  0  0  0  0
  145.9335  131.0537  152.8012 C   0  0  0  0  0  0  0  0  0  0  0  0
  144.7902  131.5711  150.7243 N   0  0  0  0  0  0  0  0  0  0  0  0
  143.5025  133.5258  148.3320 H   0  0  0  0  0  0  0  0  0  0  0  0
  142.7930  132.0096  148.8763 H   0  0  0  0  0  0  0  0  0  0  0  0
  144.3312  132.0051  148.0154 H   0  0  0  0  0  0  0  0  0  0  0  0
  144.7650  134.8849  150.3907 H   0  0  0  0  0  0  0  0  0  0  0  0
  146.6572  133.5164  153.4742 H   0  0  0  0  0  0  0  0  0  0  0  0
  147.2864  134.9732  154.6430 H   0  0  0  0  0  0  0  0  0  0  0  0
  146.5020  137.7445  154.0068 H   0  0  0  0  0  0  0  0  0  0  0  0
  146.1982  137.1399  155.6184 H   0  0  0  0  0  0  0  0  0  0  0  0
  148.2897  138.1272  155.9460 H   0  0  0  0  0  0  0  0  0  0  0  0
  148.7956  136.4960  155.5978 H   0  0  0  0  0  0  0  0  0  0  0  0
  149.0502  139.3606  152.5192 H   0  0  0  0  0  0  0  0  0  0  0  0
  147.5462  139.1854  153.3857 H   0  0  0  0  0  0  0  0  0  0  0  0
  148.6086  140.2371  155.4277 H   0  0  0  0  0  0  0  0  0  0  0  0
  147.5468  141.7916  153.7905 H   0  0  0  0  0  0  0  0  0  0  0  0
  149.0703  141.9160  152.9112 H   0  0  0  0  0  0  0  0  0  0  0  0
  148.9483  142.5304  154.5580 H   0  0  0  0  0  0  0  0  0  0  0  0
  150.5529  139.0440  156.1445 H   0  0  0  0  0  0  0  0  0  0  0  0
  152.9328  138.4084  155.7339 H   0  0  0  0  0  0  0  0  0  0  0  0
  152.7504  140.1503  155.9138 H   0  0  0  0  0  0  0  0  0  0  0  0
  152.9679  139.4503  154.3124 H   0  0  0  0  0  0  0  0  0  0  0  0
  150.9473  137.0229  154.6921 H   0  0  0  0  0  0  0  0  0  0  0  0
  151.0728  138.0467  153.2899 H   0  0  0  0  0  0  0  0  0  0  0  0
  145.4746  131.2441  153.7716 H   0  0  0  0  0  0  0  0  0  0  0  0
  147.0149  131.1576  152.8908 H   0  0  0  0  0  0  0  0  0  0  0  0
  145.7007  130.0330  152.4948 H   0  0  0  0  0  0  0  0  0  0  0  0
  148.9704  137.2408  153.2722 H   0  0  0  0  0  0  0  0  0  0  0  0
  1  2  1  0  0  0  0
  1 22  1  0  0  0  0
  1 23  1  0  0  0  0
  1 24  1  0  0  0  0
  2 21  2  0  0  0  0
  2  3  1  0  0  0  0
  3  4  2  0  0  0  0
  3 25  1  0  0  0  0
  4  5  1  0  0  0  0
  4 19  1  0  0  0  0
  5  6  1  0  0  0  0
  5 26  1  0  0  0  0
  6  7  2  0  0  0  0
  6  8  1  0  0  0  0
  8  9  1  0  0  0  0
  8 27  1  0  0  0  0
  9 10  1  0  0  0  0
  9 28  1  0  0  0  0
  9 29  1  0  0  0  0
 10 11  1  0  0  0  0
 10 30  1  0  0  0  0
 10 31  1  0  0  0  0
 11 18  1  0  0  0  0
 11 12  1  0  0  0  0
 11 47  1  0  0  0  0
 12 13  1  0  0  0  0
 12 32  1  0  0  0  0
 12 33  1  0  0  0  0
 13 14  1  0  0  0  0
 13 15  1  0  0  0  0
 13 34  1  0  0  0  0
 14 35  1  0  0  0  0
 14 36  1  0  0  0  0
 14 37  1  0  0  0  0
 15 16  1  0  0  0  0
 16 17  1  0  0  0  0
 16 18  1  0  0  0  0
 16 38  1  0  0  0  0
 17 39  1  0  0  0  0
 17 40  1  0  0  0  0
 17 41  1  0  0  0  0
 18 42  1  0  0  0  0
 18 43  1  0  0  0  0
 19 20  1  0  0  0  0
 19 21  1  0  0  0  0
 20 44  1  0  0  0  0
 20 45  1  0  0  0  0
 20 46  1  0  0  0  0
M  CHG  1  11   1
M  END
> <s_m_source_file>
AV-unprocessed.smi

> <i_m_source_file_index>
1247

> <i_lp_mmshare_version>
43012

> <i_f3d_flags>
0

> <s_epik_input>
W0NIM11jMVtjSF1jKG4objEpW0NIM10pW05IXUMoPU8pW05IXVtDSDJdW0NIMl1OMltDSDJdW0NAQEhdKFtDSDNdKU9bQ0BASF0oW0NIM10pW0NIMl0y

> <s_epik_cmdline>
J2VwaWtfcHl0aG9uJywgJy1waCcsICc3LjAnLCAnLXRuJywgJzgnLCAnLW1hJywgJzIwMCcsICctbWV0YWxfYmluZGluZycsICctaW1hZScsICc8aW5maWxlLm1hZT4nLCAnLW9tYWUnLCAnPG91dGZpbGUubWFlPic=

> <r_lp_tautomer_probability>
1

> <r_epik_Ionization_Penalty>
0.663902

> <r_epik_Ionization_Penalty_Charging>
0.663826

> <r_epik_Ionization_Penalty_Neutral>
7.65444e-05

> <r_epik_State_Penalty>
0.683414

> <r_epik_Charging_Adjusted_Penalty>
1.34724

> <i_epik_Tot_Q>
1

> <i_epik_Tot_abs_Q>
1

> <r_epik_Metal_State_Penalty>
0.683419

> <b_epik_Metal_Only>
0

> <s_lp_Force_Field>
OPLS_2005

> <r_lp_Energy>
18.7227

> <b_lp_Chiralities_Consistent>
1

> <s_lp_Variant>
AV-unprocessed.smi:1247-7

> <Gold.Version>
5.8.1

> <Gold.Id.Protein>
6NUR|6NUR_protein|mol2

> <Gold.PLP.Fitness>
44.0579

> <Gold.PLP.PLP>
-35.7485

> <Gold.PLP.part.hbond>
-2.7052

> <Gold.PLP.part.metal>
0.0000

> <Gold.PLP.part.buried>
-2.2020

> <Gold.PLP.part.nonpolar>
-31.3072

> <Gold.PLP.part.repulsive>
0.3344

> <Gold.PLP.ligand.clash>
0.0000

> <Gold.PLP.ligand.torsion>
0.3582

> <Gold.PLP.Chemscore.Hbond>
3.0000

> <Gold.PLP.Chemscore.CHOScore>
0.0000

> <Gold.PLP.Chemscore.Metal>
0.0000

> <Gold.Chemscore.Hbonds>
donor molecule, donor type, donor heavy atom, donor atom, acceptor molecule, acceptor atom, score
      L1  H    11    47       P1  7948  2.00
      P1  H  7989  7998       L1    15  1.00

> <Gold.PLP.Chemscore.Internal.Correction>
0.0259

> <Gold.Rescore>
     Score         DG    S(hbond)    S(metal)    S(lipo)     H(rot)  DE(clash)    DE(int)     intcor
     15.35     -17.48       1.87        0.00      82.62       1.52       0.69       1.44       ----

> <Gold.Chemscore.Fitness>
15.3518

> <Gold.Chemscore.DG>
-17.4838

> <Gold.Chemscore.ZeroCoef>
-5.4800

> <Gold.Chemscore.Hbond>
1.8665

> <Gold.Chemscore.Metal>
0.0000

> <Gold.Chemscore.Lipo>
82.6189

> <Gold.Chemscore.Internal_Hbond>
0.0000

> <Gold.Chemscore.DEClash>
0.6927

> <Gold.Chemscore.DEInternal>
1.4393

> <Gold.Chemscore.Rot>
1.5221

> <Gold.Chemscore.Internal.Correction>
   9.000000E+99

> <Gold.Chemscore.Hbonds>
donor molecule, donor type, donor heavy atom, donor atom, acceptor molecule, acceptor atom, score
      L1  H    11    47       P1  7948  1.00
      P1  H  7989  7998       L1    15  0.59

> <Gold.Chemscore.Hbond.Weighted>
-6.2341

> <Gold.Chemscore.Metal.Weighted>
-0.0000

> <Gold.Chemscore.Lipo.Weighted>
-9.6664

> <Gold.Chemscore.Internal_Hbond.Weighted>
0.0000

> <Gold.Chemscore.DEClash.Weighted>
0.6927

> <Gold.Chemscore.DEInternal.Weighted>
1.4393

> <Gold.Chemscore.Rot.Weighted>
3.8967

> <Gold.Chemscore.Internal.Correction.Weighted>
   9.000000E+99

> <Gold.Protein.RotatedTorsions>
[ 6907 6896 6895 6894 ] final -169.66 input  -60.11 | X-H torsion
[ 7974 7965 7964 7962 ] final   15.90 input  175.53 | X-H torsion
[ 8008 7997 7996 7995 ] final   82.34 input   59.86 | X-H torsion
[ 10167 10162 10161 10158 ] final  135.82 input  -65.29 | X-H torsion
[ 10718 10713 10712 10709 ] final  136.19 input   66.30 | X-H torsion
[ 10763 10752 10751 10750 ] final  -76.02 input  -60.55 | X-H torsion
[ 11005 11000 10999 10996 ] final   82.86 input  -57.11 | X-H torsion

> <Gold.Protein.ActiveResidues>
 VAL166  LYS551  ARG553  GLY616  TRP617  ASP618  TYR619  PRO620  LYS621  CYS622 
 ASP623  PHE694  ASN695  SER759  ASP760  ASP761  ALA762  ILE779  LEU786  VAL792 
 PHE793  MET794  SER795  GLU796  ALA797  LYS798  CYS799  TRP800  GLU811  SER814 

> <Gold.Protein.RotatedAtoms>
  151.4952  133.3516  159.2859 H   0  0  0  0  0  0  0  0  0  0  0  0  # atno 6907 bound_to 6896
  150.8809  134.8201  159.7235 H   0  0  0  0  0  0  0  0  0  0  0  0  # atno 6908 bound_to 6896
  152.4762  134.4849  159.9729 H   0  0  0  0  0  0  0  0  0  0  0  0  # atno 6909 bound_to 6896
  146.2265  139.8827  142.8568 H   0  0  0  0  0  0  0  0  0  0  0  0  # atno 7974 bound_to 7965
  155.9093  140.3428  155.6086 H   0  0  0  0  0  0  0  0  0  0  0  0  # atno 8008 bound_to 7997
  155.7406  140.0807  157.2266 H   0  0  0  0  0  0  0  0  0  0  0  0  # atno 8009 bound_to 7997
  154.4053  140.1571  156.2599 H   0  0  0  0  0  0  0  0  0  0  0  0  # atno 8010 bound_to 7997
  139.5202  144.6497  151.5339 H   0  0  0  0  0  0  0  0  0  0  0  0  # atno 10167 bound_to 10162
  157.4492  131.1064  151.0053 H   0  0  0  0  0  0  0  0  0  0  0  0  # atno 10718 bound_to 10713
  154.4943  135.5811  153.6483 H   0  0  0  0  0  0  0  0  0  0  0  0  # atno 10763 bound_to 10752
  152.9867  135.6120  154.3084 H   0  0  0  0  0  0  0  0  0  0  0  0  # atno 10764 bound_to 10752
  154.2987  135.2847  155.2601 H   0  0  0  0  0  0  0  0  0  0  0  0  # atno 10765 bound_to 10752
  139.9050  134.8102  156.2231 H   0  0  0  0  0  0  0  0  0  0  0  0  # atno 11005 bound_to 11000
  145.2496  141.0039  143.3888 LP  0  0  0  0  0  0  0  0  0  0  0  0  # atno 17320 bound_to 7965
  144.9385  139.4216  143.6460 LP  0  0  0  0  0  0  0  0  0  0  0  0  # atno 17321 bound_to 7965
  140.6296  143.9101  150.6594 LP  0  0  0  0  0  0  0  0  0  0  0  0  # atno 17342 bound_to 10162
  140.2401  143.3670  152.1493 LP  0  0  0  0  0  0  0  0  0  0  0  0  # atno 17343 bound_to 10162
  157.0889  130.5934  149.5435 LP  0  0  0  0  0  0  0  0  0  0  0  0  # atno 17370 bound_to 10713
  155.9980  130.5053  150.7555 LP  0  0  0  0  0  0  0  0  0  0  0  0  # atno 17371 bound_to 10713
  141.0393  133.6946  156.1569 LP  0  0  0  0  0  0  0  0  0  0  0  0  # atno 17394 bound_to 11000
  140.6979  134.4595  157.5587 LP  0  0  0  0  0  0  0  0  0  0  0  0  # atno 17395 bound_to 11000

$$$$
