AV-unprocessed.smi:888|AV-procd|sdf|4054|dock2
  -GOLD-   22720 1543D 1   1.00000     0.00000
 Structure written by MMmdl.
 45 46  0  0  0  0  0  0  0  0  1 V2000
  150.3037  141.8271  156.6601 C   0  0  0  0  0  0  0  0  0  0  0  0
  149.5668  141.5257  155.3493 C   0  0  0  0  0  0  0  0  0  0  0  0
  149.8532  140.1489  154.8271 C   0  0  0  0  0  0  0  0  0  0  0  0
  151.0996  139.7105  154.6077 N   0  0  0  0  0  0  0  0  0  0  0  0
  150.9690  138.4199  154.1402 N   0  0  0  0  0  0  0  0  0  0  0  0
  149.6562  138.1997  154.1347 C   0  0  0  0  0  0  0  0  0  0  0  0
  148.9011  139.2265  154.5549 N   0  0  0  0  0  0  0  0  0  0  0  0
  147.4514  139.2593  154.6749 C   0  0  0  0  0  0  0  0  0  0  0  0
  146.7362  138.9518  153.3450 C   0  0  0  0  0  0  0  0  0  0  0  0
  146.9022  137.5627  152.9168 N   0  0  0  0  0  0  0  0  0  0  0  0
  145.9841  136.5799  152.9206 C   0  0  0  0  0  0  0  0  0  0  0  0
  144.8380  136.7645  153.3249 O   0  0  0  0  0  0  0  0  0  0  0  0
  146.4295  135.3969  152.4659 N   0  0  0  0  0  0  0  0  0  0  0  0
  145.6472  134.1636  152.3994 C   0  0  2  0  0  0  0  0  0  0  0  0
  146.5041  133.0254  151.8110 C   0  0  0  0  0  0  0  0  0  0  0  0
  145.8286  132.6077  150.5077 C   0  0  0  0  0  0  0  0  0  0  0  0
  144.3586  132.9475  150.7281 C   0  0  0  0  0  0  0  0  0  0  0  0
  144.3627  134.2696  151.5180 C   0  0  0  0  0  0  0  0  0  0  0  0
  143.0980  134.3886  152.3891 C   0  0  0  0  0  0  0  0  0  0  0  0
  144.3894  135.4531  150.5199 C   0  0  0  0  0  0  0  0  0  0  0  0
  150.0971  142.8432  156.9965 H   0  0  0  0  0  0  0  0  0  0  0  0
  151.3823  141.7275  156.5424 H   0  0  0  0  0  0  0  0  0  0  0  0
  149.9933  141.1458  157.4527 H   0  0  0  0  0  0  0  0  0  0  0  0
  148.4916  141.6156  155.5066 H   0  0  0  0  0  0  0  0  0  0  0  0
  149.8269  142.2801  154.6098 H   0  0  0  0  0  0  0  0  0  0  0  0
  149.2319  137.2573  153.8203 H   0  0  0  0  0  0  0  0  0  0  0  0
  147.1671  138.5051  155.4097 H   0  0  0  0  0  0  0  0  0  0  0  0
  147.1317  140.2106  155.0972 H   0  0  0  0  0  0  0  0  0  0  0  0
  145.6687  139.1505  153.4445 H   0  0  0  0  0  0  0  0  0  0  0  0
  147.0922  139.6250  152.5635 H   0  0  0  0  0  0  0  0  0  0  0  0
  147.8286  137.3096  152.6037 H   0  0  0  0  0  0  0  0  0  0  0  0
  147.3870  135.3435  152.1505 H   0  0  0  0  0  0  0  0  0  0  0  0
  145.3783  133.8642  153.4145 H   0  0  0  0  0  0  0  0  0  0  0  0
  147.5461  133.3056  151.6499 H   0  0  0  0  0  0  0  0  0  0  0  0
  146.5059  132.1820  152.5029 H   0  0  0  0  0  0  0  0  0  0  0  0
  146.2260  133.1939  149.6784 H   0  0  0  0  0  0  0  0  0  0  0  0
  145.9848  131.5542  150.2743 H   0  0  0  0  0  0  0  0  0  0  0  0
  143.8009  133.0062  149.7927 H   0  0  0  0  0  0  0  0  0  0  0  0
  143.9023  132.1545  151.3227 H   0  0  0  0  0  0  0  0  0  0  0  0
  142.1955  134.3907  151.7772 H   0  0  0  0  0  0  0  0  0  0  0  0
  143.1050  135.3107  152.9708 H   0  0  0  0  0  0  0  0  0  0  0  0
  143.0154  133.5589  153.0923 H   0  0  0  0  0  0  0  0  0  0  0  0
  143.5255  135.4255  149.8548 H   0  0  0  0  0  0  0  0  0  0  0  0
  145.2818  135.4376  149.8938 H   0  0  0  0  0  0  0  0  0  0  0  0
  144.3615  136.4148  151.0334 H   0  0  0  0  0  0  0  0  0  0  0  0
  1  2  1  0  0  0  0
  1 21  1  0  0  0  0
  1 22  1  0  0  0  0
  1 23  1  0  0  0  0
  2  3  1  0  0  0  0
  2 24  1  0  0  0  0
  2 25  1  0  0  0  0
  3  7  1  0  0  0  0
  3  4  2  0  0  0  0
  4  5  1  0  0  0  0
  5  6  2  0  0  0  0
  6  7  1  0  0  0  0
  6 26  1  0  0  0  0
  7  8  1  0  0  0  0
  8  9  1  0  0  0  0
  8 27  1  0  0  0  0
  8 28  1  0  0  0  0
  9 10  1  0  0  0  0
  9 29  1  0  0  0  0
  9 30  1  0  0  0  0
 10 11  1  0  0  0  0
 10 31  1  0  0  0  0
 11 12  2  0  0  0  0
 11 13  1  0  0  0  0
 13 14  1  0  0  0  0
 13 32  1  0  0  0  0
 14 18  1  0  0  0  0
 14 15  1  0  0  0  0
 14 33  1  0  0  0  0
 15 16  1  0  0  0  0
 15 34  1  0  0  0  0
 15 35  1  0  0  0  0
 16 17  1  0  0  0  0
 16 36  1  0  0  0  0
 16 37  1  0  0  0  0
 17 18  1  0  0  0  0
 17 38  1  0  0  0  0
 17 39  1  0  0  0  0
 18 19  1  0  0  0  0
 18 20  1  0  0  0  0
 19 40  1  0  0  0  0
 19 41  1  0  0  0  0
 19 42  1  0  0  0  0
 20 43  1  0  0  0  0
 20 44  1  0  0  0  0
 20 45  1  0  0  0  0
M  END
> <s_m_source_file>
AV-unprocessed.smi

> <i_m_source_file_index>
888

> <i_lp_mmshare_version>
43012

> <i_f3d_flags>
0

> <s_epik_input>
W0NIM11bQ0gyXWMxbm5bY0hdbjFbQ0gyXVtDSDJdW05IXUMoPU8pW05IXVtDQEBIXShDMihbQ0gzXSlbQ0gzXSlbQ0gyXVtDSDJdW0NIMl0y

> <s_epik_cmdline>
J2VwaWtfcHl0aG9uJywgJy1waCcsICc3LjAnLCAnLXRuJywgJzgnLCAnLW1hJywgJzIwMCcsICctbWV0YWxfYmluZGluZycsICctaW1hZScsICc8aW5maWxlLm1hZT4nLCAnLW9tYWUnLCAnPG91dGZpbGUubWFlPic=

> <r_lp_tautomer_probability>
1

> <r_epik_Ionization_Penalty>
0.000379534

> <r_epik_Ionization_Penalty_Charging>
0

> <r_epik_Ionization_Penalty_Neutral>
0.000379534

> <r_epik_State_Penalty>
-0

> <r_epik_Charging_Adjusted_Penalty>
0

> <i_epik_Tot_Q>
0

> <i_epik_Tot_abs_Q>
0

> <r_epik_Metal_State_Penalty>
-0

> <b_epik_Metal_Only>
0

> <s_lp_Force_Field>
OPLS_2005

> <r_lp_Energy>
31.9266

> <b_lp_Chiralities_Consistent>
1

> <s_lp_Variant>
AV-unprocessed.smi:888-1

> <Gold.Version>
5.8.1

> <Gold.Id.Protein>
6NUR|6NUR_protein|mol2

> <Gold.PLP.Fitness>
44.4470

> <Gold.PLP.PLP>
-32.7997

> <Gold.PLP.part.hbond>
-3.0000

> <Gold.PLP.part.metal>
0.0000

> <Gold.PLP.part.buried>
-1.9501

> <Gold.PLP.part.nonpolar>
-28.4530

> <Gold.PLP.part.repulsive>
0.5008

> <Gold.PLP.ligand.clash>
0.0000

> <Gold.PLP.ligand.torsion>
0.1191

> <Gold.PLP.Chemscore.Hbond>
2.9440

> <Gold.PLP.Chemscore.CHOScore>
1.0000

> <Gold.PLP.Chemscore.Metal>
0.0000

> <Gold.Chemscore.Hbonds>
donor molecule, donor type, donor heavy atom, donor atom, acceptor molecule, acceptor atom, score
      L1  H    10    31       P1  7948  1.00
      L1  H    13    32       P1  7948  0.98
      P1  H  7989  7998       L1     4  1.00
      L1  C     6    26       P1  7948  1.00

> <Gold.PLP.Chemscore.Internal.Correction>
0.0535

> <Gold.Rescore>
     Score         DG    S(hbond)    S(metal)    S(lipo)     H(rot)  DE(clash)    DE(int)     intcor
     16.08     -16.50       2.54        0.00      66.15       2.03       0.26       0.16       ----

> <Gold.Chemscore.Fitness>
16.0750

> <Gold.Chemscore.DG>
-16.4953

> <Gold.Chemscore.ZeroCoef>
-5.4800

> <Gold.Chemscore.Hbond>
2.5360

> <Gold.Chemscore.Metal>
0.0000

> <Gold.Chemscore.Lipo>
66.1541

> <Gold.Chemscore.Internal_Hbond>
0.0000

> <Gold.Chemscore.DEClash>
0.2596

> <Gold.Chemscore.DEInternal>
0.1606

> <Gold.Chemscore.Rot>
2.0293

> <Gold.Chemscore.Internal.Correction>
   9.000000E+99

> <Gold.Chemscore.Hbonds>
donor molecule, donor type, donor heavy atom, donor atom, acceptor molecule, acceptor atom, score
      L1  H    10    31       P1  7948  0.97
      L1  H    13    32       P1  7948  0.92
      P1  H  7989  7998       L1     4  0.28

> <Gold.Chemscore.Hbond.Weighted>
-8.4703

> <Gold.Chemscore.Metal.Weighted>
-0.0000

> <Gold.Chemscore.Lipo.Weighted>
-7.7400

> <Gold.Chemscore.Internal_Hbond.Weighted>
0.0000

> <Gold.Chemscore.DEClash.Weighted>
0.2596

> <Gold.Chemscore.DEInternal.Weighted>
0.1606

> <Gold.Chemscore.Rot.Weighted>
5.1950

> <Gold.Chemscore.Internal.Correction.Weighted>
   9.000000E+99

> <Gold.Protein.RotatedTorsions>
[ 6907 6896 6895 6894 ] final  -51.35 input  -60.11 | X-H torsion
[ 7974 7965 7964 7962 ] final  -93.63 input  175.53 | X-H torsion
[ 8008 7997 7996 7995 ] final   97.95 input   59.86 | X-H torsion
[ 10167 10162 10161 10158 ] final   -4.12 input  -65.29 | X-H torsion
[ 10718 10713 10712 10709 ] final -152.35 input   66.30 | X-H torsion
[ 10763 10752 10751 10750 ] final  159.21 input  -60.55 | X-H torsion
[ 11005 11000 10999 10996 ] final   -1.14 input  -57.11 | X-H torsion

> <Gold.Protein.ActiveResidues>
 VAL166  LYS551  ARG553  GLY616  TRP617  ASP618  TYR619  PRO620  LYS621  CYS622 
 ASP623  PHE694  ASN695  SER759  ASP760  ASP761  ALA762  ILE779  LEU786  VAL792 
 PHE793  MET794  SER795  GLU796  ALA797  LYS798  CYS799  TRP800  GLU811  SER814 

> <Gold.Protein.RotatedAtoms>
  150.8620  134.7974  159.7089 H   0  0  0  0  0  0  0  0  0  0  0  0  # atno 6907 bound_to 6896
  152.4654  134.5084  159.9756 H   0  0  0  0  0  0  0  0  0  0  0  0  # atno 6908 bound_to 6896
  151.5187  133.3432  159.2933 H   0  0  0  0  0  0  0  0  0  0  0  0  # atno 6909 bound_to 6896
  145.3840  140.9521  143.2378 H   0  0  0  0  0  0  0  0  0  0  0  0  # atno 7974 bound_to 7965
  156.0954  140.3251  155.7871 H   0  0  0  0  0  0  0  0  0  0  0  0  # atno 8008 bound_to 7997
  155.4926  140.0562  157.2968 H   0  0  0  0  0  0  0  0  0  0  0  0  # atno 8009 bound_to 7997
  154.4663  140.1991  156.0124 H   0  0  0  0  0  0  0  0  0  0  0  0  # atno 8010 bound_to 7997
  140.6916  143.6460  150.8393 H   0  0  0  0  0  0  0  0  0  0  0  0  # atno 10167 bound_to 10162
  156.4713  130.8259  151.2489 H   0  0  0  0  0  0  0  0  0  0  0  0  # atno 10718 bound_to 10713
  154.2281  135.2779  155.2900 H   0  0  0  0  0  0  0  0  0  0  0  0  # atno 10763 bound_to 10752
  154.5646  135.5637  153.7042 H   0  0  0  0  0  0  0  0  0  0  0  0  # atno 10764 bound_to 10752
  153.0026  135.6306  154.2423 H   0  0  0  0  0  0  0  0  0  0  0  0  # atno 10765 bound_to 10752
  140.6440  133.9463  155.8342 H   0  0  0  0  0  0  0  0  0  0  0  0  # atno 11005 bound_to 11000
  144.8487  139.5356  143.6866 LP  0  0  0  0  0  0  0  0  0  0  0  0  # atno 17320 bound_to 7965
  146.2829  139.6924  142.9216 LP  0  0  0  0  0  0  0  0  0  0  0  0  # atno 17321 bound_to 7965
  140.0173  143.5579  152.2815 LP  0  0  0  0  0  0  0  0  0  0  0  0  # atno 17342 bound_to 10162
  139.6324  144.7646  151.2507 LP  0  0  0  0  0  0  0  0  0  0  0  0  # atno 17343 bound_to 10162
  157.7491  131.0075  150.3193 LP  0  0  0  0  0  0  0  0  0  0  0  0  # atno 17370 bound_to 10713
  156.3616  130.3848  149.7247 LP  0  0  0  0  0  0  0  0  0  0  0  0  # atno 17371 bound_to 10713
  141.0585  134.0380  157.3690 LP  0  0  0  0  0  0  0  0  0  0  0  0  # atno 17394 bound_to 11000
  139.9069  135.0182  156.7527 LP  0  0  0  0  0  0  0  0  0  0  0  0  # atno 17395 bound_to 11000

$$$$
