AV-unprocessed.smi:2243|AV-procd|sdf|9071|dock1
  -GOLD-   2272012273D 1   1.00000     0.00000
 Structure written by MMmdl.
 33 34  0  0  0  0  0  0  0  0  2 V2000
  152.2263  137.4016  158.5953 C   0  0  0  0  0  0  0  0  0  0  0  0
  150.8131  137.1426  158.0451 C   0  0  1  0  0  0  0  0  0  0  0  0
  149.8609  137.3770  159.1330 N   0  0  0  0  0  0  0  0  0  0  0  0
  148.9724  136.5029  159.6312 C   0  0  0  0  0  0  0  0  0  0  0  0
  148.8847  135.3688  159.1552 O   0  0  0  0  0  0  0  0  0  0  0  0
  148.2336  137.0020  160.6477 N   0  5  0  0  0  0  0  0  0  0  0  0
  147.4544  136.1829  161.3724 C   0  0  0  0  0  0  0  0  0  0  0  0
  147.6204  134.8687  161.5321 N   0  0  0  0  0  0  0  0  0  0  0  0
  146.5864  134.4536  162.3569 C   0  0  0  0  0  0  0  0  0  0  0  0
  145.8338  135.5518  162.6719 C   0  0  0  0  0  0  0  0  0  0  0  0
  146.3739  136.6493  162.0605 O   0  0  0  0  0  0  0  0  0  0  0  0
  150.4663  138.0191  156.8109 C   0  0  0  0  0  0  0  0  0  0  0  0
  151.2008  137.5674  155.5305 C   0  0  0  0  0  0  0  0  0  0  0  0
  150.8884  138.4976  154.3478 C   0  0  0  0  0  0  0  0  0  0  0  0
  151.2381  139.8368  154.6752 O   0  0  0  0  0  0  0  0  0  0  0  0
  150.4922  140.3426  155.7751 C   0  0  0  0  0  0  0  0  0  0  0  0
  150.7798  139.5125  157.0370 C   0  0  0  0  0  0  0  0  0  0  0  0
  152.9983  137.1107  157.8837 H   0  0  0  0  0  0  0  0  0  0  0  0
  152.4017  136.8247  159.5039 H   0  0  0  0  0  0  0  0  0  0  0  0
  152.3713  138.4546  158.8386 H   0  0  0  0  0  0  0  0  0  0  0  0
  150.7751  136.0955  157.7403 H   0  0  0  0  0  0  0  0  0  0  0  0
  149.8853  138.2915  159.5598 H   0  0  0  0  0  0  0  0  0  0  0  0
  146.4698  133.4214  162.6520 H   0  0  0  0  0  0  0  0  0  0  0  0
  144.9516  135.7134  163.2725 H   0  0  0  0  0  0  0  0  0  0  0  0
  149.3946  137.9282  156.6256 H   0  0  0  0  0  0  0  0  0  0  0  0
  152.2772  137.5552  155.7074 H   0  0  0  0  0  0  0  0  0  0  0  0
  150.9191  136.5499  155.2595 H   0  0  0  0  0  0  0  0  0  0  0  0
  151.4577  138.1906  153.4703 H   0  0  0  0  0  0  0  0  0  0  0  0
  149.8330  138.4407  154.0769 H   0  0  0  0  0  0  0  0  0  0  0  0
  150.7737  141.3827  155.9402 H   0  0  0  0  0  0  0  0  0  0  0  0
  149.4267  140.3362  155.5403 H   0  0  0  0  0  0  0  0  0  0  0  0
  150.1872  139.9125  157.8591 H   0  0  0  0  0  0  0  0  0  0  0  0
  151.8270  139.6321  157.3180 H   0  0  0  0  0  0  0  0  0  0  0  0
  1  2  1  0  0  0  0
  1 18  1  0  0  0  0
  1 19  1  0  0  0  0
  1 20  1  0  0  0  0
  2  3  1  0  0  0  0
  2 12  1  0  0  0  0
  2 21  1  0  0  0  0
  3 22  1  0  0  0  0
  3  4  1  0  0  0  0
  4  6  1  0  0  0  0
  4  5  2  0  0  0  0
  6  7  1  0  0  0  0
  7 11  1  0  0  0  0
  7  8  2  0  0  0  0
  8  9  1  0  0  0  0
  9 23  1  0  0  0  0
  9 10  2  0  0  0  0
 10 24  1  0  0  0  0
 10 11  1  0  0  0  0
 12 17  1  0  0  0  0
 12 13  1  0  0  0  0
 12 25  1  0  0  0  0
 13 14  1  0  0  0  0
 13 26  1  0  0  0  0
 13 27  1  0  0  0  0
 14 15  1  0  0  0  0
 14 28  1  0  0  0  0
 14 29  1  0  0  0  0
 15 16  1  0  0  0  0
 16 17  1  0  0  0  0
 16 30  1  0  0  0  0
 16 31  1  0  0  0  0
 17 32  1  0  0  0  0
 17 33  1  0  0  0  0
M  CHG  1   6  -1
M  END
> <s_m_source_file>
AV-unprocessed.smi

> <i_m_source_file_index>
2243

> <i_lp_mmshare_version>
43012

> <i_f3d_flags>
0

> <s_epik_input>
W0NIMl0xW0NIMl1PW0NIMl1bQ0gyXVtDSF0xW0NASF0oW0NIM10pW05IXUMoPU8pW05IXWMybltjSF1bY0hdbzI=

> <s_epik_cmdline>
J2VwaWtfcHl0aG9uJywgJy1waCcsICc3LjAnLCAnLXRuJywgJzgnLCAnLW1hJywgJzIwMCcsICctbWV0YWxfYmluZGluZycsICctaW1hZScsICc8aW5maWxlLm1hZT4nLCAnLW9tYWUnLCAnPG91dGZpbGUubWFlPic=

> <r_lp_tautomer_probability>
0.107061

> <r_epik_Ionization_Penalty>
11.1403

> <r_epik_Ionization_Penalty_Charging>
7.81312

> <r_epik_Ionization_Penalty_Neutral>
3.32719

> <r_epik_State_Penalty>
5.94317

> <r_epik_Charging_Adjusted_Penalty>
13.7563

> <i_epik_Tot_Q>
-1

> <i_epik_Tot_abs_Q>
1

> <r_epik_Metal_State_Penalty>
1.86619

> <b_epik_Metal_Only>
1

> <s_lp_Force_Field>
OPLS_2005

> <r_lp_Energy>
6.4903

> <b_lp_Chiralities_Consistent>
1

> <s_lp_Variant>
AV-unprocessed.smi:2243-10

> <Gold.Version>
5.8.1

> <Gold.Id.Protein>
6NUR|6NUR_protein|mol2

> <Gold.PLP.Fitness>
40.7006

> <Gold.PLP.PLP>
-26.1004

> <Gold.PLP.part.hbond>
-4.0000

> <Gold.PLP.part.metal>
0.0000

> <Gold.PLP.part.buried>
-5.4825

> <Gold.PLP.part.nonpolar>
-17.6706

> <Gold.PLP.part.repulsive>
0.3173

> <Gold.PLP.ligand.clash>
0.0000

> <Gold.PLP.ligand.torsion>
0.3241

> <Gold.PLP.Chemscore.Hbond>
5.0720

> <Gold.PLP.Chemscore.CHOScore>
0.0000

> <Gold.PLP.Chemscore.Metal>
0.0000

> <Gold.Chemscore.Hbonds>
donor molecule, donor type, donor heavy atom, donor atom, acceptor molecule, acceptor atom, score
      P1  H  6896  6909       L1     5  1.00
      P1  H  6931  6943       L1     6  1.79
      P1  H  6934  6947       L1     6  0.49
      P1  H  7989  7998       L1    15  1.00

> <Gold.PLP.Chemscore.Internal.Correction>
0.0325

> <Gold.Rescore>
     Score         DG    S(hbond)    S(metal)    S(lipo)     H(rot)  DE(clash)    DE(int)     intcor
     15.18     -16.97       2.69        0.00      50.08       1.31       0.01       1.79       ----

> <Gold.Chemscore.Fitness>
15.1794

> <Gold.Chemscore.DG>
-16.9716

> <Gold.Chemscore.ZeroCoef>
-5.4800

> <Gold.Chemscore.Hbond>
2.6876

> <Gold.Chemscore.Metal>
0.0000

> <Gold.Chemscore.Lipo>
50.0794

> <Gold.Chemscore.Internal_Hbond>
0.0000

> <Gold.Chemscore.DEClash>
0.0058

> <Gold.Chemscore.DEInternal>
1.7864

> <Gold.Chemscore.Rot>
1.3063

> <Gold.Chemscore.Internal.Correction>
   9.000000E+99

> <Gold.Chemscore.Hbonds>
donor molecule, donor type, donor heavy atom, donor atom, acceptor molecule, acceptor atom, score
      P1  H  6896  6909       L1     5  0.38
      P1  H  6931  6943       L1     6  0.50
      P1  H  6934  6947       L1     6  0.09
      P1  H  7989  7998       L1    15  0.92

> <Gold.Chemscore.Hbond.Weighted>
-8.9766

> <Gold.Chemscore.Metal.Weighted>
-0.0000

> <Gold.Chemscore.Lipo.Weighted>
-5.8593

> <Gold.Chemscore.Internal_Hbond.Weighted>
0.0000

> <Gold.Chemscore.DEClash.Weighted>
0.0058

> <Gold.Chemscore.DEInternal.Weighted>
1.7864

> <Gold.Chemscore.Rot.Weighted>
3.3443

> <Gold.Chemscore.Internal.Correction.Weighted>
   9.000000E+99

> <Gold.Protein.RotatedTorsions>
[ 6907 6896 6895 6894 ] final   48.51 input  -60.11 | X-H torsion
[ 7974 7965 7964 7962 ] final  -93.56 input  175.53 | X-H torsion
[ 8008 7997 7996 7995 ] final  171.90 input   59.86 | X-H torsion
[ 10167 10162 10161 10158 ] final   -9.91 input  -65.29 | X-H torsion
[ 10718 10713 10712 10709 ] final   24.87 input   66.30 | X-H torsion
[ 10763 10752 10751 10750 ] final  -63.36 input  -60.55 | X-H torsion
[ 11005 11000 10999 10996 ] final -125.41 input  -57.11 | X-H torsion

> <Gold.Protein.ActiveResidues>
 VAL166  LYS551  ARG553  GLY616  TRP617  ASP618  TYR619  PRO620  LYS621  CYS622 
 ASP623  PHE694  ASN695  SER759  ASP760  ASP761  ALA762  ILE779  LEU786  VAL792 
 PHE793  MET794  SER795  GLU796  ALA797  LYS798  CYS799  TRP800  GLU811  SER814 

> <Gold.Protein.RotatedAtoms>
  152.2803  134.7836  160.0397 H   0  0  0  0  0  0  0  0  0  0  0  0  # atno 6907 bound_to 6896
  151.8418  133.3419  159.3653 H   0  0  0  0  0  0  0  0  0  0  0  0  # atno 6908 bound_to 6896
  150.7187  134.5312  159.5746 H   0  0  0  0  0  0  0  0  0  0  0  0  # atno 6909 bound_to 6896
  145.3849  140.9522  143.2373 H   0  0  0  0  0  0  0  0  0  0  0  0  # atno 7974 bound_to 7965
  156.1226  140.1500  156.9182 H   0  0  0  0  0  0  0  0  0  0  0  0  # atno 8008 bound_to 7997
  154.4847  140.0868  156.7501 H   0  0  0  0  0  0  0  0  0  0  0  0  # atno 8009 bound_to 7997
  155.4400  140.3430  155.4291 H   0  0  0  0  0  0  0  0  0  0  0  0  # atno 8010 bound_to 7997
  140.7100  143.5805  150.8997 H   0  0  0  0  0  0  0  0  0  0  0  0  # atno 10167 bound_to 10162
  157.1856  130.6822  149.6130 H   0  0  0  0  0  0  0  0  0  0  0  0  # atno 10718 bound_to 10713
  154.3139  135.6210  153.5477 H   0  0  0  0  0  0  0  0  0  0  0  0  # atno 10763 bound_to 10752
  152.9827  135.5707  154.5147 H   0  0  0  0  0  0  0  0  0  0  0  0  # atno 10764 bound_to 10752
  154.4801  135.2863  155.1553 H   0  0  0  0  0  0  0  0  0  0  0  0  # atno 10765 bound_to 10752
  140.9764  134.0734  157.3813 H   0  0  0  0  0  0  0  0  0  0  0  0  # atno 11005 bound_to 11000
  144.8481  139.5365  143.6869 LP  0  0  0  0  0  0  0  0  0  0  0  0  # atno 17320 bound_to 7965
  146.2825  139.6914  142.9219 LP  0  0  0  0  0  0  0  0  0  0  0  0  # atno 17321 bound_to 7965
  139.9531  143.6249  152.3023 LP  0  0  0  0  0  0  0  0  0  0  0  0  # atno 17342 bound_to 10162
  139.6775  144.7658  151.1670 LP  0  0  0  0  0  0  0  0  0  0  0  0  # atno 17343 bound_to 10162
  155.9718  130.4632  150.6173 LP  0  0  0  0  0  0  0  0  0  0  0  0  # atno 17370 bound_to 10713
  157.3910  131.0795  151.1393 LP  0  0  0  0  0  0  0  0  0  0  0  0  # atno 17371 bound_to 10713
  139.8932  135.0129  156.6888 LP  0  0  0  0  0  0  0  0  0  0  0  0  # atno 17394 bound_to 11000
  140.7252  133.9106  155.8174 LP  0  0  0  0  0  0  0  0  0  0  0  0  # atno 17395 bound_to 11000

$$$$
