AV-unprocessed.smi:1230|AV-procd|sdf|5156|dock5
  -GOLD-   22720 4233D 1   1.00000     0.00000
 Structure written by MMmdl.
 39 40  0  0  0  0  0  0  0  0  1 V2000
  153.3947  141.4937  160.3001 C   0  0  0  0  0  0  0  0  0  0  0  0
  152.8443  142.6000  159.3849 C   0  0  2  0  0  0  0  0  0  0  0  0
  152.7660  143.9413  160.1421 C   0  0  0  0  0  0  0  0  0  0  0  0
  152.2104  145.0655  159.2554 C   0  0  0  0  0  0  0  0  0  0  0  0
  150.8369  144.6878  158.6846 C   0  0  0  0  0  0  0  0  0  0  0  0
  150.9061  143.3601  157.9162 C   0  0  0  0  0  0  0  0  0  0  0  0
  151.4656  142.2222  158.7969 C   0  0  1  0  0  0  0  0  0  0  0  0
  151.6345  141.0486  158.0107 O   0  0  0  0  0  0  0  0  0  0  0  0
  150.5034  140.6947  157.2300 C   0  0  0  0  0  0  0  0  0  0  0  0
  150.9392  140.5999  155.7602 C   0  0  0  0  0  0  0  0  0  0  0  0
  149.8378  140.3512  154.8641 N   0  0  0  0  0  0  0  0  0  0  0  0
  148.7810  141.2372  154.7213 C   0  0  0  0  0  0  0  0  0  0  0  0
  147.7517  141.0190  153.8691 C   0  0  0  0  0  0  0  0  0  0  0  0
  146.6722  141.9399  153.7324 C   0  0  0  0  0  0  0  0  0  0  0  0
  145.8076  142.7034  153.6378 N   0  0  0  0  0  0  0  0  0  0  0  0
  147.7091  139.8146  153.0416 C   0  0  0  0  0  0  0  0  0  0  0  0
  146.8208  139.5246  152.2423 O   0  0  0  0  0  0  0  0  0  0  0  0
  148.8005  138.9572  153.2155 N   0  0  0  0  0  0  0  0  0  0  0  0
  149.8706  139.1690  154.0874 C   0  0  0  0  0  0  0  0  0  0  0  0
  150.7841  138.3460  154.1485 O   0  0  0  0  0  0  0  0  0  0  0  0
  148.8175  138.1137  152.6608 H   0  0  0  0  0  0  0  0  0  0  0  0
  152.7265  141.3068  161.1412 H   0  0  0  0  0  0  0  0  0  0  0  0
  154.3696  141.7678  160.7039 H   0  0  0  0  0  0  0  0  0  0  0  0
  153.5188  140.5550  159.7596 H   0  0  0  0  0  0  0  0  0  0  0  0
  153.5442  142.7240  158.5569 H   0  0  0  0  0  0  0  0  0  0  0  0
  152.1334  143.8302  161.0237 H   0  0  0  0  0  0  0  0  0  0  0  0
  153.7547  144.2218  160.5071 H   0  0  0  0  0  0  0  0  0  0  0  0
  152.1333  145.9888  159.8301 H   0  0  0  0  0  0  0  0  0  0  0  0
  152.9049  145.2658  158.4386 H   0  0  0  0  0  0  0  0  0  0  0  0
  150.1127  144.6042  159.4959 H   0  0  0  0  0  0  0  0  0  0  0  0
  150.4765  145.4797  158.0277 H   0  0  0  0  0  0  0  0  0  0  0  0
  149.9117  143.1088  157.5484 H   0  0  0  0  0  0  0  0  0  0  0  0
  151.5375  143.4838  157.0353 H   0  0  0  0  0  0  0  0  0  0  0  0
  150.7800  142.0281  159.6242 H   0  0  0  0  0  0  0  0  0  0  0  0
  150.1089  139.7334  157.5626 H   0  0  0  0  0  0  0  0  0  0  0  0
  149.7109  141.4336  157.3458 H   0  0  0  0  0  0  0  0  0  0  0  0
  151.4533  141.4998  155.4154 H   0  0  0  0  0  0  0  0  0  0  0  0
  151.6392  139.7749  155.6194 H   0  0  0  0  0  0  0  0  0  0  0  0
  148.7743  142.1432  155.3109 H   0  0  0  0  0  0  0  0  0  0  0  0
  1  2  1  0  0  0  0
  1 22  1  0  0  0  0
  1 23  1  0  0  0  0
  1 24  1  0  0  0  0
  2  7  1  0  0  0  0
  2  3  1  0  0  0  0
  2 25  1  0  0  0  0
  3  4  1  0  0  0  0
  3 26  1  0  0  0  0
  3 27  1  0  0  0  0
  4  5  1  0  0  0  0
  4 28  1  0  0  0  0
  4 29  1  0  0  0  0
  5  6  1  0  0  0  0
  5 30  1  0  0  0  0
  5 31  1  0  0  0  0
  6  7  1  0  0  0  0
  6 32  1  0  0  0  0
  6 33  1  0  0  0  0
  7  8  1  0  0  0  0
  7 34  1  0  0  0  0
  8  9  1  0  0  0  0
  9 10  1  0  0  0  0
  9 35  1  0  0  0  0
  9 36  1  0  0  0  0
 10 11  1  0  0  0  0
 10 37  1  0  0  0  0
 10 38  1  0  0  0  0
 11 19  1  0  0  0  0
 11 12  1  0  0  0  0
 12 13  2  0  0  0  0
 12 39  1  0  0  0  0
 13 14  1  0  0  0  0
 13 16  1  0  0  0  0
 14 15  3  0  0  0  0
 16 17  2  0  0  0  0
 16 18  1  0  0  0  0
 18 21  1  0  0  0  0
 18 19  1  0  0  0  0
 19 20  2  0  0  0  0
M  END
> <s_m_source_file>
AV-unprocessed.smi

> <i_m_source_file_index>
1230

> <i_lp_mmshare_version>
43012

> <i_f3d_flags>
0

> <s_epik_input>
W0NIM11bQ0BASF0xW0NIMl1bQ0gyXVtDSDJdW0NIMl1bQ0BIXTFPW0NIMl1bQ0gyXW4yW2NIXWMoQyNOKWMoPU8pW25IXWMyPU8=

> <s_epik_cmdline>
J2VwaWtfcHl0aG9uJywgJy1waCcsICc3LjAnLCAnLXRuJywgJzgnLCAnLW1hJywgJzIwMCcsICctbWV0YWxfYmluZGluZycsICctaW1hZScsICc8aW5maWxlLm1hZT4nLCAnLW9tYWUnLCAnPG91dGZpbGUubWFlPic=

> <r_epik_Ionization_Penalty>
0.421541

> <r_epik_Ionization_Penalty_Charging>
0.421541

> <r_epik_Ionization_Penalty_Neutral>
2.29267e-11

> <r_epik_State_Penalty>
0.422277

> <r_epik_Charging_Adjusted_Penalty>
0.843818

> <i_epik_Tot_Q>
0

> <i_epik_Tot_abs_Q>
0

> <r_epik_Metal_State_Penalty>
4.11629

> <b_epik_Metal_Only>
0

> <s_lp_Force_Field>
OPLS_2005

> <r_lp_Energy>
13.3679

> <b_lp_Chiralities_Consistent>
1

> <s_lp_Variant>
AV-unprocessed.smi:1230-5

> <Gold.Version>
5.8.1

> <Gold.Id.Protein>
6NUR|6NUR_protein|mol2

> <Gold.PLP.Fitness>
49.0056

> <Gold.PLP.PLP>
-44.1569

> <Gold.PLP.part.hbond>
-1.7790

> <Gold.PLP.part.metal>
0.0000

> <Gold.PLP.part.buried>
-3.3552

> <Gold.PLP.part.nonpolar>
-39.2300

> <Gold.PLP.part.repulsive>
1.6402

> <Gold.PLP.ligand.clash>
0.0000

> <Gold.PLP.ligand.torsion>
0.4309

> <Gold.PLP.Chemscore.Hbond>
0.9425

> <Gold.PLP.Chemscore.CHOScore>
0.9564

> <Gold.PLP.Chemscore.Metal>
0.0000

> <Gold.Chemscore.Hbonds>
donor molecule, donor type, donor heavy atom, donor atom, acceptor molecule, acceptor atom, score
      L1  H    18    21       P1  7948  1.00
      L1  C    12    39       P1  8028  0.84

> <Gold.PLP.Chemscore.Internal.Correction>
0.0138

> <Gold.Rescore>
     Score         DG    S(hbond)    S(metal)    S(lipo)     H(rot)  DE(clash)    DE(int)     intcor
     14.67     -15.72       0.96        0.00     102.48       1.94       0.56       0.49       ----

> <Gold.Chemscore.Fitness>
14.6696

> <Gold.Chemscore.DG>
-15.7159

> <Gold.Chemscore.ZeroCoef>
-5.4800

> <Gold.Chemscore.Hbond>
0.9604

> <Gold.Chemscore.Metal>
0.0000

> <Gold.Chemscore.Lipo>
102.4837

> <Gold.Chemscore.Internal_Hbond>
0.0000

> <Gold.Chemscore.DEClash>
0.5564

> <Gold.Chemscore.DEInternal>
0.4900

> <Gold.Chemscore.Rot>
1.9385

> <Gold.Chemscore.Internal.Correction>
   9.000000E+99

> <Gold.Chemscore.Hbonds>
donor molecule, donor type, donor heavy atom, donor atom, acceptor molecule, acceptor atom, score
      L1  H    18    21       P1  7948  0.94

> <Gold.Chemscore.Hbond.Weighted>
-3.2079

> <Gold.Chemscore.Metal.Weighted>
-0.0000

> <Gold.Chemscore.Lipo.Weighted>
-11.9906

> <Gold.Chemscore.Internal_Hbond.Weighted>
0.0000

> <Gold.Chemscore.DEClash.Weighted>
0.5564

> <Gold.Chemscore.DEInternal.Weighted>
0.4900

> <Gold.Chemscore.Rot.Weighted>
4.9625

> <Gold.Chemscore.Internal.Correction.Weighted>
   9.000000E+99

> <Gold.Protein.RotatedTorsions>
[ 6907 6896 6895 6894 ] final -169.03 input  -60.11 | X-H torsion
[ 7974 7965 7964 7962 ] final   36.97 input  175.53 | X-H torsion
[ 8008 7997 7996 7995 ] final   10.63 input   59.86 | X-H torsion
[ 10167 10162 10161 10158 ] final -166.93 input  -65.29 | X-H torsion
[ 10718 10713 10712 10709 ] final  -85.00 input   66.30 | X-H torsion
[ 10763 10752 10751 10750 ] final   20.62 input  -60.55 | X-H torsion
[ 11005 11000 10999 10996 ] final  -91.16 input  -57.11 | X-H torsion

> <Gold.Protein.ActiveResidues>
 VAL166  LYS551  ARG553  GLY616  TRP617  ASP618  TYR619  PRO620  LYS621  CYS622 
 ASP623  PHE694  ASN695  SER759  ASP760  ASP761  ALA762  ILE779  LEU786  VAL792 
 PHE793  MET794  SER795  GLU796  ALA797  LYS798  CYS799  TRP800  GLU811  SER814 

> <Gold.Protein.RotatedAtoms>
  151.4851  133.3537  159.2844 H   0  0  0  0  0  0  0  0  0  0  0  0  # atno 6907 bound_to 6896
  150.8871  134.8273  159.7278 H   0  0  0  0  0  0  0  0  0  0  0  0  # atno 6908 bound_to 6896
  152.4800  134.4756  159.9701 H   0  0  0  0  0  0  0  0  0  0  0  0  # atno 6909 bound_to 6896
  146.1172  139.5952  142.9313 H   0  0  0  0  0  0  0  0  0  0  0  0  # atno 7974 bound_to 7965
  154.7960  140.2844  155.5956 H   0  0  0  0  0  0  0  0  0  0  0  0  # atno 8008 bound_to 7997
  156.2971  140.2595  156.2747 H   0  0  0  0  0  0  0  0  0  0  0  0  # atno 8009 bound_to 7997
  154.9614  140.0377  157.2181 H   0  0  0  0  0  0  0  0  0  0  0  0  # atno 8010 bound_to 7997
  139.6083  144.0868  152.1815 H   0  0  0  0  0  0  0  0  0  0  0  0  # atno 10167 bound_to 10162
  156.0001  130.4716  150.4495 H   0  0  0  0  0  0  0  0  0  0  0  0  # atno 10718 bound_to 10713
  153.1063  135.6685  153.9581 H   0  0  0  0  0  0  0  0  0  0  0  0  # atno 10763 bound_to 10752
  153.9138  135.3022  155.3450 H   0  0  0  0  0  0  0  0  0  0  0  0  # atno 10764 bound_to 10752
  154.7483  135.5047  153.9320 H   0  0  0  0  0  0  0  0  0  0  0  0  # atno 10765 bound_to 10752
  141.1551  133.7737  156.9839 H   0  0  0  0  0  0  0  0  0  0  0  0  # atno 11005 bound_to 11000
  145.5541  141.0410  143.2262 LP  0  0  0  0  0  0  0  0  0  0  0  0  # atno 17320 bound_to 7965
  144.7564  139.7064  143.7252 LP  0  0  0  0  0  0  0  0  0  0  0  0  # atno 17321 bound_to 7965
  140.0480  144.5955  150.7358 LP  0  0  0  0  0  0  0  0  0  0  0  0  # atno 17342 bound_to 10162
  140.7300  143.2679  151.3984 LP  0  0  0  0  0  0  0  0  0  0  0  0  # atno 17343 bound_to 10162
  157.2529  131.0550  151.2368 LP  0  0  0  0  0  0  0  0  0  0  0  0  # atno 17370 bound_to 10713
  157.3510  130.7082  149.6441 LP  0  0  0  0  0  0  0  0  0  0  0  0  # atno 17371 bound_to 10713
  140.1047  134.9514  157.1976 LP  0  0  0  0  0  0  0  0  0  0  0  0  # atno 17394 bound_to 11000
  140.3272  134.2851  155.7235 LP  0  0  0  0  0  0  0  0  0  0  0  0  # atno 17395 bound_to 11000

$$$$
