AV-unprocessed.smi:2306|AV-procd|sdf|9248|dock2
  -GOLD-   2272012463D 1   1.00000     0.00000
 Structure written by MMmdl.
 41 42  0  0  0  0  0  0  0  0  1 V2000
  152.6701  143.1416  161.5112 C   0  0  0  0  0  0  0  0  0  0  0  0
  152.2660  142.7551  160.0995 C   0  0  0  0  0  0  0  0  0  0  0  0
  151.3897  143.6367  159.4594 N   0  0  0  0  0  0  0  0  0  0  0  0
  150.9813  143.3822  158.2594 C   0  0  0  0  0  0  0  0  0  0  0  0
  151.3954  142.2323  157.5685 N   0  0  0  0  0  0  0  0  0  0  0  0
  150.8569  142.0588  156.2102 C   0  0  0  0  0  0  0  0  0  0  0  0
  150.1402  140.6990  156.0412 C   0  0  2  0  0  0  0  0  0  0  0  0
  150.0952  140.3731  154.6666 O   0  0  0  0  0  0  0  0  0  0  0  0
  148.6916  140.7379  156.5506 C   0  0  0  0  0  0  0  0  0  0  0  0
  147.9445  141.5983  155.7074 O   0  0  0  0  0  0  0  0  0  0  0  0
  146.5447  141.3902  155.7928 C   0  0  0  0  0  0  0  0  0  0  0  0
  145.7556  142.5749  155.2656 C   0  0  0  0  0  0  0  0  0  0  0  0
  144.8008  143.2248  156.0782 C   0  0  0  0  0  0  0  0  0  0  0  0
  144.0638  144.3137  155.5728 C   0  0  0  0  0  0  0  0  0  0  0  0
  144.2723  144.7539  154.2515 C   0  0  0  0  0  0  0  0  0  0  0  0
  145.2166  144.1029  153.4346 C   0  0  0  0  0  0  0  0  0  0  0  0
  145.9544  143.0142  153.9396 C   0  0  0  0  0  0  0  0  0  0  0  0
  152.2646  141.3305  158.1105 C   0  0  0  0  0  0  0  0  0  0  0  0
  152.6423  140.3381  157.4840 O   0  0  0  0  0  0  0  0  0  0  0  0
  152.7140  141.6289  159.4800 C   0  0  0  0  0  0  0  0  0  0  0  0
  153.6650  140.6309  160.1287 C   0  0  0  0  0  0  0  0  0  0  0  0
  153.7489  143.2862  161.5733 H   0  0  0  0  0  0  0  0  0  0  0  0
  152.3804  142.3636  162.2179 H   0  0  0  0  0  0  0  0  0  0  0  0
  152.1903  144.0706  161.8222 H   0  0  0  0  0  0  0  0  0  0  0  0
  150.3007  144.0386  157.7145 H   0  0  0  0  0  0  0  0  0  0  0  0
  150.1552  142.8728  156.0190 H   0  0  0  0  0  0  0  0  0  0  0  0
  151.6214  142.1935  155.4417 H   0  0  0  0  0  0  0  0  0  0  0  0
  150.6717  139.9032  156.5653 H   0  0  0  0  0  0  0  0  0  0  0  0
  149.4860  139.6609  154.5458 H   0  0  0  0  0  0  0  0  0  0  0  0
  148.2582  139.7364  156.5609 H   0  0  0  0  0  0  0  0  0  0  0  0
  148.6619  141.1214  157.5720 H   0  0  0  0  0  0  0  0  0  0  0  0
  146.2732  140.4991  155.2242 H   0  0  0  0  0  0  0  0  0  0  0  0
  146.2560  141.2173  156.8305 H   0  0  0  0  0  0  0  0  0  0  0  0
  144.6276  142.8939  157.0919 H   0  0  0  0  0  0  0  0  0  0  0  0
  143.3369  144.8098  156.1990 H   0  0  0  0  0  0  0  0  0  0  0  0
  143.7062  145.5882  153.8643 H   0  0  0  0  0  0  0  0  0  0  0  0
  145.3742  144.4377  152.4199 H   0  0  0  0  0  0  0  0  0  0  0  0
  146.6744  142.5177  153.3057 H   0  0  0  0  0  0  0  0  0  0  0  0
  153.1806  139.6584  160.2213 H   0  0  0  0  0  0  0  0  0  0  0  0
  153.9910  140.9315  161.1229 H   0  0  0  0  0  0  0  0  0  0  0  0
  154.5583  140.5072  159.5156 H   0  0  0  0  0  0  0  0  0  0  0  0
  1  2  1  0  0  0  0
  1 22  1  0  0  0  0
  1 23  1  0  0  0  0
  1 24  1  0  0  0  0
  2 20  2  0  0  0  0
  2  3  1  0  0  0  0
  3  4  2  0  0  0  0
  4  5  1  0  0  0  0
  4 25  1  0  0  0  0
  5  6  1  0  0  0  0
  5 18  1  0  0  0  0
  6  7  1  0  0  0  0
  6 26  1  0  0  0  0
  6 27  1  0  0  0  0
  7  8  1  0  0  0  0
  7  9  1  0  0  0  0
  7 28  1  0  0  0  0
  8 29  1  0  0  0  0
  9 10  1  0  0  0  0
  9 30  1  0  0  0  0
  9 31  1  0  0  0  0
 10 11  1  0  0  0  0
 11 12  1  0  0  0  0
 11 32  1  0  0  0  0
 11 33  1  0  0  0  0
 12 17  1  0  0  0  0
 12 13  2  0  0  0  0
 13 14  1  0  0  0  0
 13 34  1  0  0  0  0
 14 15  2  0  0  0  0
 14 35  1  0  0  0  0
 15 16  1  0  0  0  0
 15 36  1  0  0  0  0
 16 17  2  0  0  0  0
 16 37  1  0  0  0  0
 17 38  1  0  0  0  0
 18 19  2  0  0  0  0
 18 20  1  0  0  0  0
 20 21  1  0  0  0  0
 21 39  1  0  0  0  0
 21 40  1  0  0  0  0
 21 41  1  0  0  0  0
M  END
> <s_m_source_file>
AV-unprocessed.smi

> <i_m_source_file_index>
2306

> <i_lp_mmshare_version>
43012

> <i_f3d_flags>
0

> <s_epik_input>
W0NIM11jMW5bY0hdbihjKD1PKWMxW0NIM10pW0NIMl1bQ0BIXShbT0hdKVtDSDJdT1tDSDJdYzJbY0hdW2NIXVtjSF1bY0hdW2NIXTI=

> <s_epik_cmdline>
J2VwaWtfcHl0aG9uJywgJy1waCcsICc3LjAnLCAnLXRuJywgJzgnLCAnLW1hJywgJzIwMCcsICctbWV0YWxfYmluZGluZycsICctaW1hZScsICc8aW5maWxlLm1hZT4nLCAnLW9tYWUnLCAnPG91dGZpbGUubWFlPic=

> <r_lp_tautomer_probability>
1

> <r_epik_Ionization_Penalty>
5.35985e-05

> <r_epik_Ionization_Penalty_Charging>
1.17753e-07

> <r_epik_Ionization_Penalty_Neutral>
5.34808e-05

> <r_epik_State_Penalty>
-0

> <r_epik_Charging_Adjusted_Penalty>
1.17753e-07

> <i_epik_Tot_Q>
0

> <i_epik_Tot_abs_Q>
0

> <r_epik_Metal_State_Penalty>
-0

> <b_epik_Metal_Only>
0

> <s_lp_Force_Field>
OPLS_2005

> <r_lp_Energy>
22.2439

> <b_lp_Chiralities_Consistent>
1

> <s_lp_Variant>
AV-unprocessed.smi:2306-1

> <Gold.Version>
5.8.1

> <Gold.Id.Protein>
6NUR|6NUR_protein|mol2

> <Gold.PLP.Fitness>
51.3657

> <Gold.PLP.PLP>
-43.2790

> <Gold.PLP.part.hbond>
-2.0000

> <Gold.PLP.part.metal>
0.0000

> <Gold.PLP.part.buried>
-7.7917

> <Gold.PLP.part.nonpolar>
-34.4517

> <Gold.PLP.part.repulsive>
0.1589

> <Gold.PLP.ligand.clash>
0.0000

> <Gold.PLP.ligand.torsion>
0.4538

> <Gold.PLP.Chemscore.Hbond>
1.9520

> <Gold.PLP.Chemscore.CHOScore>
1.0000

> <Gold.PLP.Chemscore.Metal>
0.0000

> <Gold.Chemscore.Hbonds>
donor molecule, donor type, donor heavy atom, donor atom, acceptor molecule, acceptor atom, score
      P1  H  7989  7998       L1     8  0.98
      P1  H  7997  8009       L1    19  0.94
      L1  C     4    25       P1  8028  0.93

> <Gold.PLP.Chemscore.Internal.Correction>
0.1382

> <Gold.Rescore>
     Score         DG    S(hbond)    S(metal)    S(lipo)     H(rot)  DE(clash)    DE(int)     intcor
     15.19     -16.83       1.85        0.00      99.42       2.52       0.04       1.60       ----

> <Gold.Chemscore.Fitness>
15.1912

> <Gold.Chemscore.DG>
-16.8336

> <Gold.Chemscore.ZeroCoef>
-5.4800

> <Gold.Chemscore.Hbond>
1.8451

> <Gold.Chemscore.Metal>
0.0000

> <Gold.Chemscore.Lipo>
99.4222

> <Gold.Chemscore.Internal_Hbond>
0.0000

> <Gold.Chemscore.DEClash>
0.0383

> <Gold.Chemscore.DEInternal>
1.6041

> <Gold.Chemscore.Rot>
2.5162

> <Gold.Chemscore.Internal.Correction>
   9.000000E+99

> <Gold.Chemscore.Hbonds>
donor molecule, donor type, donor heavy atom, donor atom, acceptor molecule, acceptor atom, score
      P1  H  7989  7998       L1     8  0.89
      P1  H  7997  8009       L1    19  0.90

> <Gold.Chemscore.Hbond.Weighted>
-6.1626

> <Gold.Chemscore.Metal.Weighted>
-0.0000

> <Gold.Chemscore.Lipo.Weighted>
-11.6324

> <Gold.Chemscore.Internal_Hbond.Weighted>
0.0000

> <Gold.Chemscore.DEClash.Weighted>
0.0383

> <Gold.Chemscore.DEInternal.Weighted>
1.6041

> <Gold.Chemscore.Rot.Weighted>
6.4414

> <Gold.Chemscore.Internal.Correction.Weighted>
   9.000000E+99

> <Gold.Protein.RotatedTorsions>
[ 6907 6896 6895 6894 ] final  -50.61 input  -60.11 | X-H torsion
[ 7974 7965 7964 7962 ] final  -10.56 input  175.53 | X-H torsion
[ 8008 7997 7996 7995 ] final  174.55 input   59.86 | X-H torsion
[ 10167 10162 10161 10158 ] final   29.17 input  -65.29 | X-H torsion
[ 10718 10713 10712 10709 ] final  147.51 input   66.30 | X-H torsion
[ 10763 10752 10751 10750 ] final   32.65 input  -60.55 | X-H torsion
[ 11005 11000 10999 10996 ] final   32.35 input  -57.11 | X-H torsion

> <Gold.Protein.ActiveResidues>
 VAL166  LYS551  ARG553  GLY616  TRP617  ASP618  TYR619  PRO620  LYS621  CYS622 
 ASP623  PHE694  ASN695  SER759  ASP760  ASP761  ALA762  ILE779  LEU786  VAL792 
 PHE793  MET794  SER795  GLU796  ALA797  LYS798  CYS799  TRP800  GLU811  SER814 

> <Gold.Protein.RotatedAtoms>
  150.8691  134.8061  159.7140 H   0  0  0  0  0  0  0  0  0  0  0  0  # atno 6907 bound_to 6896
  152.4702  134.4976  159.9724 H   0  0  0  0  0  0  0  0  0  0  0  0  # atno 6908 bound_to 6896
  151.5067  133.3455  159.2913 H   0  0  0  0  0  0  0  0  0  0  0  0  # atno 6909 bound_to 6896
  146.2216  140.2782  142.8360 H   0  0  0  0  0  0  0  0  0  0  0  0  # atno 7974 bound_to 7965
  156.0963  140.1431  156.9527 H   0  0  0  0  0  0  0  0  0  0  0  0  # atno 8008 bound_to 7997
  154.4673  140.0922  156.7100 H   0  0  0  0  0  0  0  0  0  0  0  0  # atno 8009 bound_to 7997
  155.4836  140.3446  155.4346 H   0  0  0  0  0  0  0  0  0  0  0  0  # atno 8010 bound_to 7997
  140.4789  144.0647  150.6259 H   0  0  0  0  0  0  0  0  0  0  0  0  # atno 10167 bound_to 10162
  157.3201  131.0903  151.1247 H   0  0  0  0  0  0  0  0  0  0  0  0  # atno 10718 bound_to 10713
  153.0252  135.6408  154.1388 H   0  0  0  0  0  0  0  0  0  0  0  0  # atno 10763 bound_to 10752
  154.1118  135.2852  155.3230 H   0  0  0  0  0  0  0  0  0  0  0  0  # atno 10764 bound_to 10752
  154.6326  135.5487  153.7761 H   0  0  0  0  0  0  0  0  0  0  0  0  # atno 10765 bound_to 10752
  140.2744  134.3045  155.7818 H   0  0  0  0  0  0  0  0  0  0  0  0  # atno 11005 bound_to 11000
  144.9217  140.7875  143.5744 LP  0  0  0  0  0  0  0  0  0  0  0  0  # atno 17320 bound_to 7965
  145.2719  139.1951  143.4837 LP  0  0  0  0  0  0  0  0  0  0  0  0  # atno 17321 bound_to 7965
  140.3883  143.2766  152.0090 LP  0  0  0  0  0  0  0  0  0  0  0  0  # atno 17342 bound_to 10162
  139.4830  144.6098  151.7454 LP  0  0  0  0  0  0  0  0  0  0  0  0  # atno 17343 bound_to 10162
  157.2535  130.6625  149.5942 LP  0  0  0  0  0  0  0  0  0  0  0  0  # atno 17370 bound_to 10713
  155.9685  130.4531  150.5798 LP  0  0  0  0  0  0  0  0  0  0  0  0  # atno 17371 bound_to 10713
  141.2172  133.7486  156.9384 LP  0  0  0  0  0  0  0  0  0  0  0  0  # atno 17394 bound_to 11000
  140.1343  134.9335  157.2380 LP  0  0  0  0  0  0  0  0  0  0  0  0  # atno 17395 bound_to 11000

$$$$
