AV-unprocessed.smi:1016|AV-procd|sdf|4437|dock4
  -GOLD-   22720 2393D 1   1.00000     0.00000
 Structure written by MMmdl.
 39 40  0  0  0  0  0  0  0  0  2 V2000
  152.0154  144.1022  161.5643 C   0  0  0  0  0  0  0  0  0  0  0  0
  152.5789  142.8873  160.8888 C   0  0  0  0  0  0  0  0  0  0  0  0
  153.5655  142.0252  161.5109 C   0  0  0  0  0  0  0  0  0  0  0  0
  154.0214  140.9476  160.8370 C   0  0  0  0  0  0  0  0  0  0  0  0
  153.5510  140.6273  159.4912 C   0  0  0  0  0  0  0  0  0  0  0  0
  153.9509  139.6563  158.8498 O   0  0  0  0  0  0  0  0  0  0  0  0
  152.6306  141.5130  159.0059 N   0  0  0  0  0  0  0  0  0  0  0  0
  152.0856  141.3785  157.6446 C   0  0  0  0  0  0  0  0  0  0  0  0
  151.1762  140.1547  157.4320 C   0  0  0  0  0  0  0  0  0  0  0  0
  150.0108  140.3470  157.0902 O   0  0  0  0  0  0  0  0  0  0  0  0
  151.7230  138.9395  157.6379 N   0  0  0  0  0  0  0  0  0  0  0  0
  151.1853  137.5739  157.5493 C   0  0  0  0  0  0  0  0  0  0  0  0
  152.3765  136.6549  157.9246 C   0  0  0  0  0  0  0  0  0  0  0  0
  152.8338  136.7288  159.0870 O   0  0  0  0  0  0  0  0  0  0  0  0
  152.8500  135.9198  157.0286 O   0  5  0  0  0  0  0  0  0  0  0  0
  149.9444  137.2977  158.4574 C   0  0  0  0  0  0  0  0  0  0  0  0
  149.3055  135.9167  158.2114 C   0  0  0  0  0  0  0  0  0  0  0  0
  148.9126  135.7423  156.7376 C   0  0  0  0  0  0  0  0  0  0  0  0
  150.1148  135.9786  155.8127 C   0  0  0  0  0  0  0  0  0  0  0  0
  150.7542  137.3572  156.0702 C   0  0  0  0  0  0  0  0  0  0  0  0
  152.1531  142.6133  159.6997 N   0  0  0  0  0  0  0  0  0  0  0  0
  152.4487  144.2395  162.5553 H   0  0  0  0  0  0  0  0  0  0  0  0
  150.9348  144.0154  161.6812 H   0  0  0  0  0  0  0  0  0  0  0  0
  152.2225  145.0005  160.9821 H   0  0  0  0  0  0  0  0  0  0  0  0
  153.9268  142.2499  162.5034 H   0  0  0  0  0  0  0  0  0  0  0  0
  154.7569  140.3068  161.3008 H   0  0  0  0  0  0  0  0  0  0  0  0
  151.5335  142.2772  157.3644 H   0  0  0  0  0  0  0  0  0  0  0  0
  152.9057  141.3124  156.9275 H   0  0  0  0  0  0  0  0  0  0  0  0
  152.6887  138.9633  157.9323 H   0  0  0  0  0  0  0  0  0  0  0  0
  150.1963  137.3971  159.5142 H   0  0  0  0  0  0  0  0  0  0  0  0
  149.1769  138.0469  158.2598 H   0  0  0  0  0  0  0  0  0  0  0  0
  149.9931  135.1232  158.5057 H   0  0  0  0  0  0  0  0  0  0  0  0
  148.4236  135.8027  158.8421 H   0  0  0  0  0  0  0  0  0  0  0  0
  148.5069  134.7435  156.5747 H   0  0  0  0  0  0  0  0  0  0  0  0
  148.1168  136.4448  156.4870 H   0  0  0  0  0  0  0  0  0  0  0  0
  150.8522  135.1887  155.9591 H   0  0  0  0  0  0  0  0  0  0  0  0
  149.7975  135.9087  154.7721 H   0  0  0  0  0  0  0  0  0  0  0  0
  150.0327  138.1283  155.7953 H   0  0  0  0  0  0  0  0  0  0  0  0
  151.5957  137.4997  155.3904 H   0  0  0  0  0  0  0  0  0  0  0  0
  1  2  1  0  0  0  0
  1 22  1  0  0  0  0
  1 23  1  0  0  0  0
  1 24  1  0  0  0  0
  2 21  2  0  0  0  0
  2  3  1  0  0  0  0
  3  4  2  0  0  0  0
  3 25  1  0  0  0  0
  4  5  1  0  0  0  0
  4 26  1  0  0  0  0
  5  6  2  0  0  0  0
  5  7  1  0  0  0  0
  7  8  1  0  0  0  0
  7 21  1  0  0  0  0
  8  9  1  0  0  0  0
  8 27  1  0  0  0  0
  8 28  1  0  0  0  0
  9 10  2  0  0  0  0
  9 11  1  0  0  0  0
 11 12  1  0  0  0  0
 11 29  1  0  0  0  0
 12 20  1  0  0  0  0
 12 13  1  0  0  0  0
 12 16  1  0  0  0  0
 13 14  2  0  0  0  0
 13 15  1  0  0  0  0
 16 17  1  0  0  0  0
 16 30  1  0  0  0  0
 16 31  1  0  0  0  0
 17 18  1  0  0  0  0
 17 32  1  0  0  0  0
 17 33  1  0  0  0  0
 18 19  1  0  0  0  0
 18 34  1  0  0  0  0
 18 35  1  0  0  0  0
 19 20  1  0  0  0  0
 19 36  1  0  0  0  0
 19 37  1  0  0  0  0
 20 38  1  0  0  0  0
 20 39  1  0  0  0  0
M  CHG  1  15  -1
M  END
> <s_m_source_file>
AV-unprocessed.smi

> <i_m_source_file_index>
1016

> <i_lp_mmshare_version>
43012

> <i_f3d_flags>
0

> <s_epik_input>
W0NIM11jMVtjSF1bY0hdYyg9TyluKG4xKVtDSDJdQyg9TylbTkhdQzIoQyg9TylbT0hdKVtDSDJdW0NIMl1bQ0gyXVtDSDJdW0NIMl0y

> <s_epik_cmdline>
J2VwaWtfcHl0aG9uJywgJy1waCcsICc3LjAnLCAnLXRuJywgJzgnLCAnLW1hJywgJzIwMCcsICctbWV0YWxfYmluZGluZycsICctaW1hZScsICc8aW5maWxlLm1hZT4nLCAnLW9tYWUnLCAnPG91dGZpbGUubWFlPic=

> <r_lp_tautomer_probability>
1

> <r_epik_Ionization_Penalty>
0.000398047

> <r_epik_Ionization_Penalty_Charging>
0.000398029

> <r_epik_Ionization_Penalty_Neutral>
1.87077e-08

> <r_epik_State_Penalty>
0.000243291

> <r_epik_Charging_Adjusted_Penalty>
0.00064132

> <i_epik_Tot_Q>
-1

> <i_epik_Tot_abs_Q>
1

> <r_epik_Metal_State_Penalty>
-0

> <b_epik_Metal_Only>
0

> <s_lp_Force_Field>
OPLS_2005

> <r_lp_Energy>
18.8649

> <b_lp_Chiralities_Consistent>
1

> <s_lp_Variant>
AV-unprocessed.smi:1016-1

> <Gold.Version>
5.8.1

> <Gold.Id.Protein>
6NUR|6NUR_protein|mol2

> <Gold.PLP.Fitness>
45.1074

> <Gold.PLP.PLP>
-30.7886

> <Gold.PLP.part.hbond>
-3.0000

> <Gold.PLP.part.metal>
0.0000

> <Gold.PLP.part.buried>
-5.3827

> <Gold.PLP.part.nonpolar>
-22.4305

> <Gold.PLP.part.repulsive>
0.0611

> <Gold.PLP.ligand.clash>
0.0000

> <Gold.PLP.ligand.torsion>
0.1051

> <Gold.PLP.Chemscore.Hbond>
4.8240

> <Gold.PLP.Chemscore.CHOScore>
0.0000

> <Gold.PLP.Chemscore.Metal>
0.0000

> <Gold.Chemscore.Hbonds>
donor molecule, donor type, donor heavy atom, donor atom, acceptor molecule, acceptor atom, score
      P1  H  6896  6909       L1    14  1.60
      P1  H  7997  8008       L1     6  1.00
      P1  H 10752 10763       L1    15  1.92

> <Gold.PLP.Chemscore.Internal.Correction>
0.0570

> <Gold.Rescore>
     Score         DG    S(hbond)    S(metal)    S(lipo)     H(rot)  DE(clash)    DE(int)     intcor
     17.06     -17.69       2.82        0.00      69.59       2.09       0.02       0.61       ----

> <Gold.Chemscore.Fitness>
17.0575

> <Gold.Chemscore.DG>
-17.6870

> <Gold.Chemscore.ZeroCoef>
-5.4800

> <Gold.Chemscore.Hbond>
2.8205

> <Gold.Chemscore.Metal>
0.0000

> <Gold.Chemscore.Lipo>
69.5861

> <Gold.Chemscore.Internal_Hbond>
0.0000

> <Gold.Chemscore.DEClash>
0.0222

> <Gold.Chemscore.DEInternal>
0.6072

> <Gold.Chemscore.Rot>
2.0918

> <Gold.Chemscore.Internal.Correction>
   9.000000E+99

> <Gold.Chemscore.Hbonds>
donor molecule, donor type, donor heavy atom, donor atom, acceptor molecule, acceptor atom, score
      P1  H  6896  6909       L1    14  0.26
      P1  H  7997  8008       L1     6  0.94
      P1  H 10752 10763       L1    15  0.89

> <Gold.Chemscore.Hbond.Weighted>
-9.4203

> <Gold.Chemscore.Metal.Weighted>
-0.0000

> <Gold.Chemscore.Lipo.Weighted>
-8.1416

> <Gold.Chemscore.Internal_Hbond.Weighted>
0.0000

> <Gold.Chemscore.DEClash.Weighted>
0.0222

> <Gold.Chemscore.DEInternal.Weighted>
0.6072

> <Gold.Chemscore.Rot.Weighted>
5.3549

> <Gold.Chemscore.Internal.Correction.Weighted>
   9.000000E+99

> <Gold.Protein.RotatedTorsions>
[ 6907 6896 6895 6894 ] final  140.60 input  -60.11 | X-H torsion
[ 7974 7965 7964 7962 ] final  107.08 input  175.53 | X-H torsion
[ 8008 7997 7996 7995 ] final -107.00 input   59.86 | X-H torsion
[ 10167 10162 10161 10158 ] final  -76.82 input  -65.29 | X-H torsion
[ 10718 10713 10712 10709 ] final  -32.36 input   66.30 | X-H torsion
[ 10763 10752 10751 10750 ] final   92.73 input  -60.55 | X-H torsion
[ 11005 11000 10999 10996 ] final  167.80 input  -57.11 | X-H torsion

> <Gold.Protein.ActiveResidues>
 VAL166  LYS551  ARG553  GLY616  TRP617  ASP618  TYR619  PRO620  LYS621  CYS622 
 ASP623  PHE694  ASN695  SER759  ASP760  ASP761  ALA762  ILE779  LEU786  VAL792 
 PHE793  MET794  SER795  GLU796  ALA797  LYS798  CYS799  TRP800  GLU811  SER814 

> <Gold.Protein.RotatedAtoms>
  152.2411  133.5136  159.5270 H   0  0  0  0  0  0  0  0  0  0  0  0  # atno 6907 bound_to 6896
  150.7064  134.1088  159.4001 H   0  0  0  0  0  0  0  0  0  0  0  0  # atno 6908 bound_to 6896
  151.9009  135.0378  160.0557 H   0  0  0  0  0  0  0  0  0  0  0  0  # atno 6909 bound_to 6896
  145.2983  139.2578  143.3827 H   0  0  0  0  0  0  0  0  0  0  0  0  # atno 7974 bound_to 7965
  154.9228  140.0407  157.2007 H   0  0  0  0  0  0  0  0  0  0  0  0  # atno 8008 bound_to 7997
  154.8236  140.2888  155.5748 H   0  0  0  0  0  0  0  0  0  0  0  0  # atno 8009 bound_to 7997
  156.2982  140.2514  156.3148 H   0  0  0  0  0  0  0  0  0  0  0  0  # atno 8010 bound_to 7997
  140.4824  143.2399  151.8037 H   0  0  0  0  0  0  0  0  0  0  0  0  # atno 10167 bound_to 10162
  156.3758  130.4347  149.7508 H   0  0  0  0  0  0  0  0  0  0  0  0  # atno 10718 bound_to 10713
  153.2224  135.4351  155.0504 H   0  0  0  0  0  0  0  0  0  0  0  0  # atno 10763 bound_to 10752
  154.8257  135.3359  154.6907 H   0  0  0  0  0  0  0  0  0  0  0  0  # atno 10764 bound_to 10752
  153.7338  135.7009  153.5039 H   0  0  0  0  0  0  0  0  0  0  0  0  # atno 10765 bound_to 10752
  140.2806  134.7753  157.3755 H   0  0  0  0  0  0  0  0  0  0  0  0  # atno 11005 bound_to 11000
  146.3161  140.3491  142.8654 LP  0  0  0  0  0  0  0  0  0  0  0  0  # atno 17320 bound_to 7965
  144.9115  140.7762  143.5805 LP  0  0  0  0  0  0  0  0  0  0  0  0  # atno 17321 bound_to 7965
  139.4836  144.4755  151.9372 LP  0  0  0  0  0  0  0  0  0  0  0  0  # atno 17342 bound_to 10162
  140.3841  144.2699  150.5905 LP  0  0  0  0  0  0  0  0  0  0  0  0  # atno 17343 bound_to 10162
  156.4618  130.7955  151.2975 LP  0  0  0  0  0  0  0  0  0  0  0  0  # atno 17370 bound_to 10713
  157.7488  131.0063  150.3147 LP  0  0  0  0  0  0  0  0  0  0  0  0  # atno 17371 bound_to 10713
  140.1287  134.5124  155.8123 LP  0  0  0  0  0  0  0  0  0  0  0  0  # atno 17394 bound_to 11000
  141.2163  133.6782  156.6999 LP  0  0  0  0  0  0  0  0  0  0  0  0  # atno 17395 bound_to 11000

$$$$
