AV-unprocessed.smi:1795|AV-procd|sdf|7237|dock6
  -GOLD-   22720 8483D 1   1.00000     0.00000
 Structure written by MMmdl.
 47 48  0  0  0  0  0  0  0  0  1 V2000
  149.7113  141.0624  156.9462 C   0  0  0  0  0  0  0  0  0  0  0  0
  150.0844  141.1931  155.4593 C   0  0  2  0  0  0  0  0  0  0  0  0
  148.9325  140.8190  154.5053 C   0  0  0  0  0  0  0  0  0  0  0  0
  148.6720  139.3764  154.4326 N   0  0  0  0  0  0  0  0  0  0  0  0
  147.5760  139.0437  153.4918 C   0  0  2  0  0  0  0  0  0  0  0  0
  146.4501  140.1098  153.4795 C   0  0  0  0  0  0  0  0  0  0  0  0
  146.9421  137.6461  153.7583 C   0  0  0  0  0  0  0  0  0  0  0  0
  146.6568  136.8925  152.5406 N   0  0  0  0  0  0  0  0  0  0  0  0
  145.4402  136.4786  152.1562 C   0  0  0  0  0  0  0  0  0  0  0  0
  144.4127  136.7246  152.7892 O   0  0  0  0  0  0  0  0  0  0  0  0
  145.3835  135.6794  150.8470 C   0  0  0  0  0  0  0  0  0  0  0  0
  145.2184  134.2321  151.0602 N   0  0  0  0  0  0  0  0  0  0  0  0
  144.1606  133.5977  150.3784 C   0  0  0  0  0  0  0  0  0  0  0  0
  143.9239  132.2821  150.5024 C   0  0  0  0  0  0  0  0  0  0  0  0
  144.7890  131.5112  151.3635 C   0  0  0  0  0  0  0  0  0  0  0  0
  145.8012  132.1086  152.0235 C   0  0  0  0  0  0  0  0  0  0  0  0
  146.0627  133.5468  151.8923 C   0  0  0  0  0  0  0  0  0  0  0  0
  146.9840  134.1015  152.4926 O   0  0  0  0  0  0  0  0  0  0  0  0
  149.9329  138.7093  154.0938 C   0  0  0  0  0  0  0  0  0  0  0  0
  151.0695  139.0394  155.0783 C   0  0  1  0  0  0  0  0  0  0  0  0
  152.3979  138.4019  154.6572 C   0  0  0  0  0  0  0  0  0  0  0  0
  151.2570  140.4492  155.1372 O   0  0  0  0  0  0  0  0  0  0  0  0
  148.8898  141.7331  157.1996 H   0  0  0  0  0  0  0  0  0  0  0  0
  150.5570  141.3209  157.5833 H   0  0  0  0  0  0  0  0  0  0  0  0
  149.3948  140.0517  157.2031 H   0  0  0  0  0  0  0  0  0  0  0  0
  150.3327  142.2407  155.2870 H   0  0  0  0  0  0  0  0  0  0  0  0
  148.0485  141.3575  154.8420 H   0  0  0  0  0  0  0  0  0  0  0  0
  149.1647  141.1940  153.5074 H   0  0  0  0  0  0  0  0  0  0  0  0
  147.9979  139.0194  152.4858 H   0  0  0  0  0  0  0  0  0  0  0  0
  145.6239  139.8373  152.8237 H   0  0  0  0  0  0  0  0  0  0  0  0
  146.7958  141.0726  153.1064 H   0  0  0  0  0  0  0  0  0  0  0  0
  146.0396  140.2613  154.4783 H   0  0  0  0  0  0  0  0  0  0  0  0
  147.5841  137.0141  154.3701 H   0  0  0  0  0  0  0  0  0  0  0  0
  146.0085  137.7625  154.3098 H   0  0  0  0  0  0  0  0  0  0  0  0
  147.4465  136.6525  151.9588 H   0  0  0  0  0  0  0  0  0  0  0  0
  144.5660  136.0765  150.2436 H   0  0  0  0  0  0  0  0  0  0  0  0
  146.2866  135.8671  150.2628 H   0  0  0  0  0  0  0  0  0  0  0  0
  143.5564  134.2453  149.7599 H   0  0  0  0  0  0  0  0  0  0  0  0
  143.1060  131.8136  149.9750 H   0  0  0  0  0  0  0  0  0  0  0  0
  144.6228  130.4505  151.4812 H   0  0  0  0  0  0  0  0  0  0  0  0
  146.4368  131.5158  152.6648 H   0  0  0  0  0  0  0  0  0  0  0  0
  149.8141  137.6283  154.1093 H   0  0  0  0  0  0  0  0  0  0  0  0
  150.2327  138.9814  153.0804 H   0  0  0  0  0  0  0  0  0  0  0  0
  150.8119  138.6652  156.0695 H   0  0  0  0  0  0  0  0  0  0  0  0
  152.3150  137.3157  154.6087 H   0  0  0  0  0  0  0  0  0  0  0  0
  153.1881  138.6430  155.3685 H   0  0  0  0  0  0  0  0  0  0  0  0
  152.7132  138.7581  153.6760 H   0  0  0  0  0  0  0  0  0  0  0  0
  1  2  1  0  0  0  0
  1 23  1  0  0  0  0
  1 24  1  0  0  0  0
  1 25  1  0  0  0  0
  2 22  1  0  0  0  0
  2  3  1  0  0  0  0
  2 26  1  0  0  0  0
  3  4  1  0  0  0  0
  3 27  1  0  0  0  0
  3 28  1  0  0  0  0
  4  5  1  0  0  0  0
  4 19  1  0  0  0  0
  5  6  1  0  0  0  0
  5  7  1  0  0  0  0
  5 29  1  0  0  0  0
  6 30  1  0  0  0  0
  6 31  1  0  0  0  0
  6 32  1  0  0  0  0
  7  8  1  0  0  0  0
  7 33  1  0  0  0  0
  7 34  1  0  0  0  0
  8  9  1  0  0  0  0
  8 35  1  0  0  0  0
  9 10  2  0  0  0  0
  9 11  1  0  0  0  0
 11 12  1  0  0  0  0
 11 36  1  0  0  0  0
 11 37  1  0  0  0  0
 12 17  1  0  0  0  0
 12 13  1  0  0  0  0
 13 14  2  0  0  0  0
 13 38  1  0  0  0  0
 14 15  1  0  0  0  0
 14 39  1  0  0  0  0
 15 16  2  0  0  0  0
 15 40  1  0  0  0  0
 16 17  1  0  0  0  0
 16 41  1  0  0  0  0
 17 18  2  0  0  0  0
 19 20  1  0  0  0  0
 19 42  1  0  0  0  0
 19 43  1  0  0  0  0
 20 21  1  0  0  0  0
 20 22  1  0  0  0  0
 20 44  1  0  0  0  0
 21 45  1  0  0  0  0
 21 46  1  0  0  0  0
 21 47  1  0  0  0  0
M  END
> <s_m_source_file>
AV-unprocessed.smi

> <i_m_source_file_index>
1795

> <i_lp_mmshare_version>
43012

> <i_f3d_flags>
0

> <s_epik_input>
W0NIM11bQ0BASF0xW0NIMl1OKFtDSDJdW0NASF0oTzEpW0NIM10pW0NASF0oW0NIM10pW0NIMl1bTkhdQyg9TylbQ0gyXW4yW2NIXVtjSF1bY0hdW2NIXWMyPU8=

> <s_epik_cmdline>
J2VwaWtfcHl0aG9uJywgJy1waCcsICc3LjAnLCAnLXRuJywgJzgnLCAnLW1hJywgJzIwMCcsICctbWV0YWxfYmluZGluZycsICctaW1hZScsICc8aW5maWxlLm1hZT4nLCAnLW9tYWUnLCAnPG91dGZpbGUubWFlPic=

> <r_lp_tautomer_probability>
1

> <r_epik_Ionization_Penalty>
0.237383

> <r_epik_Ionization_Penalty_Charging>
3.58805e-07

> <r_epik_Ionization_Penalty_Neutral>
0.237382

> <r_epik_State_Penalty>
0.228245

> <r_epik_Charging_Adjusted_Penalty>
0.228245

> <i_epik_Tot_Q>
0

> <i_epik_Tot_abs_Q>
0

> <r_epik_Metal_State_Penalty>
0.228221

> <b_epik_Metal_Only>
0

> <s_lp_Force_Field>
OPLS_2005

> <r_lp_Energy>
40.3044

> <b_lp_Chiralities_Consistent>
1

> <s_lp_Variant>
AV-unprocessed.smi:1795-1

> <Gold.Version>
5.8.1

> <Gold.Id.Protein>
6NUR|6NUR_protein|mol2

> <Gold.PLP.Fitness>
45.8209

> <Gold.PLP.PLP>
-39.2952

> <Gold.PLP.part.hbond>
-1.9056

> <Gold.PLP.part.metal>
0.0000

> <Gold.PLP.part.buried>
-3.8800

> <Gold.PLP.part.nonpolar>
-35.1266

> <Gold.PLP.part.repulsive>
1.4990

> <Gold.PLP.ligand.clash>
0.0000

> <Gold.PLP.ligand.torsion>
1.2408

> <Gold.PLP.Chemscore.Hbond>
1.9920

> <Gold.PLP.Chemscore.CHOScore>
0.9939

> <Gold.PLP.Chemscore.Metal>
0.0000

> <Gold.Chemscore.Hbonds>
donor molecule, donor type, donor heavy atom, donor atom, acceptor molecule, acceptor atom, score
      L1  H     8    35       P1  7948  1.00
      P1  H  7989  7998       L1    22  0.98
      L1  C    13    38       P1 10186  0.93

> <Gold.PLP.Chemscore.Internal.Correction>
0.0495

> <Gold.Rescore>
     Score         DG    S(hbond)    S(metal)    S(lipo)     H(rot)  DE(clash)    DE(int)     intcor
     13.78     -15.76       1.11        0.00      96.16       1.83       0.76       1.23       ----

> <Gold.Chemscore.Fitness>
13.7753

> <Gold.Chemscore.DG>
-15.7611

> <Gold.Chemscore.ZeroCoef>
-5.4800

> <Gold.Chemscore.Hbond>
1.1086

> <Gold.Chemscore.Metal>
0.0000

> <Gold.Chemscore.Lipo>
96.1604

> <Gold.Chemscore.Internal_Hbond>
0.0000

> <Gold.Chemscore.DEClash>
0.7567

> <Gold.Chemscore.DEInternal>
1.2291

> <Gold.Chemscore.Rot>
1.8251

> <Gold.Chemscore.Internal.Correction>
   9.000000E+99

> <Gold.Chemscore.Hbonds>
donor molecule, donor type, donor heavy atom, donor atom, acceptor molecule, acceptor atom, score
      L1  H     8    35       P1  7948  0.90
      P1  H  7989  7998       L1    22  0.21

> <Gold.Chemscore.Hbond.Weighted>
-3.7027

> <Gold.Chemscore.Metal.Weighted>
-0.0000

> <Gold.Chemscore.Lipo.Weighted>
-11.2508

> <Gold.Chemscore.Internal_Hbond.Weighted>
0.0000

> <Gold.Chemscore.DEClash.Weighted>
0.7567

> <Gold.Chemscore.DEInternal.Weighted>
1.2291

> <Gold.Chemscore.Rot.Weighted>
4.6724

> <Gold.Chemscore.Internal.Correction.Weighted>
   9.000000E+99

> <Gold.Protein.RotatedTorsions>
[ 6907 6896 6895 6894 ] final   -1.23 input  -60.11 | X-H torsion
[ 7974 7965 7964 7962 ] final  100.10 input  175.53 | X-H torsion
[ 8008 7997 7996 7995 ] final  -64.47 input   59.86 | X-H torsion
[ 10167 10162 10161 10158 ] final   29.94 input  -65.29 | X-H torsion
[ 10718 10713 10712 10709 ] final    8.34 input   66.30 | X-H torsion
[ 10763 10752 10751 10750 ] final    5.73 input  -60.55 | X-H torsion
[ 11005 11000 10999 10996 ] final   39.03 input  -57.11 | X-H torsion

> <Gold.Protein.ActiveResidues>
 VAL166  LYS551  ARG553  GLY616  TRP617  ASP618  TYR619  PRO620  LYS621  CYS622 
 ASP623  PHE694  ASN695  SER759  ASP760  ASP761  ALA762  ILE779  LEU786  VAL792 
 PHE793  MET794  SER795  GLU796  ALA797  LYS798  CYS799  TRP800  GLU811  SER814 

> <Gold.Protein.RotatedAtoms>
  151.5494  135.1067  159.9945 H   0  0  0  0  0  0  0  0  0  0  0  0  # atno 6907 bound_to 6896
  152.4498  133.7603  159.6754 H   0  0  0  0  0  0  0  0  0  0  0  0  # atno 6908 bound_to 6896
  150.8424  133.7849  159.3080 H   0  0  0  0  0  0  0  0  0  0  0  0  # atno 6909 bound_to 6896
  145.3901  139.2364  143.3357 H   0  0  0  0  0  0  0  0  0  0  0  0  # atno 7974 bound_to 7965
  154.4613  140.0953  156.6901 H   0  0  0  0  0  0  0  0  0  0  0  0  # atno 8008 bound_to 7997
  155.4985  140.3473  155.4348 H   0  0  0  0  0  0  0  0  0  0  0  0  # atno 8009 bound_to 7997
  156.0876  140.1389  156.9622 H   0  0  0  0  0  0  0  0  0  0  0  0  # atno 8010 bound_to 7997
  140.4721  144.0746  150.6240 H   0  0  0  0  0  0  0  0  0  0  0  0  # atno 10167 bound_to 10162
  156.9502  130.5894  149.5656 H   0  0  0  0  0  0  0  0  0  0  0  0  # atno 10718 bound_to 10713
  153.2560  135.6918  153.7629 H   0  0  0  0  0  0  0  0  0  0  0  0  # atno 10763 bound_to 10752
  153.6706  135.3345  155.3153 H   0  0  0  0  0  0  0  0  0  0  0  0  # atno 10764 bound_to 10752
  154.8412  135.4499  154.1533 H   0  0  0  0  0  0  0  0  0  0  0  0  # atno 10765 bound_to 10752
  140.2068  134.3803  155.8068 H   0  0  0  0  0  0  0  0  0  0  0  0  # atno 11005 bound_to 11000
  146.2802  140.4582  142.8779 LP  0  0  0  0  0  0  0  0  0  0  0  0  # atno 17320 bound_to 7965
  144.8446  140.6910  143.6207 LP  0  0  0  0  0  0  0  0  0  0  0  0  # atno 17321 bound_to 7965
  140.3964  143.2726  152.0000 LP  0  0  0  0  0  0  0  0  0  0  0  0  # atno 17342 bound_to 10162
  139.4820  144.6035  151.7564 LP  0  0  0  0  0  0  0  0  0  0  0  0  # atno 17343 bound_to 10162
  156.0366  130.5453  150.8669 LP  0  0  0  0  0  0  0  0  0  0  0  0  # atno 17370 bound_to 10713
  157.5727  131.0946  150.9393 LP  0  0  0  0  0  0  0  0  0  0  0  0  # atno 17371 bound_to 10713
  141.2227  133.7122  156.8351 LP  0  0  0  0  0  0  0  0  0  0  0  0  # atno 17394 bound_to 11000
  140.1994  134.8908  157.3152 LP  0  0  0  0  0  0  0  0  0  0  0  0  # atno 17395 bound_to 11000

$$$$
