AV-unprocessed.smi:1922|AV-procd|sdf|7788|dock7
  -GOLD-   22720 9533D 1   1.00000     0.00000
 Structure written by MMmdl.
 35 36  0  0  0  0  0  0  0  0  1 V2000
  155.5512  140.3524  160.9262 O   0  0  0  0  0  0  0  0  0  0  0  0
  154.3811  140.0418  160.7070 C   0  0  0  0  0  0  0  0  0  0  0  0
  154.0429  138.5820  160.3552 C   0  0  0  0  0  0  0  0  0  0  0  0
  154.3709  137.6023  161.4046 N   0  0  0  0  0  0  0  0  0  0  0  0
  154.6913  138.1697  162.6289 N   0  0  0  0  0  0  0  0  0  0  0  0
  155.0184  137.4157  163.6235 C   0  0  0  0  0  0  0  0  0  0  0  0
  155.3317  138.0190  164.8167 O   0  0  0  0  0  0  0  0  0  0  0  0
  155.0562  135.9758  163.4905 C   0  0  0  0  0  0  0  0  0  0  0  0
  154.7397  135.4321  162.2950 C   0  0  0  0  0  0  0  0  0  0  0  0
  154.3672  136.2582  161.1454 C   0  0  0  0  0  0  0  0  0  0  0  0
  154.0872  135.7902  160.0423 O   0  0  0  0  0  0  0  0  0  0  0  0
  153.3723  140.9249  160.7675 N   0  0  0  0  0  0  0  0  0  0  0  0
  153.5067  142.3297  161.1219 C   0  0  0  0  0  0  0  0  0  0  0  0
  152.4607  143.1753  160.3767 C   0  0  0  0  0  0  0  0  0  0  0  0
  152.8671  143.5413  158.9486 C   0  0  0  0  0  0  0  0  0  0  0  0
  151.9572  144.7156  158.5745 C   0  0  0  0  0  0  0  0  0  0  0  0
  151.5563  145.3867  159.8976 C   0  0  0  0  0  0  0  0  0  0  0  0
  152.1690  144.5368  161.0175 C   0  0  0  0  0  0  0  0  0  0  0  0
  155.8790  137.4010  165.2761 H   0  0  0  0  0  0  0  0  0  0  0  0
  152.9773  138.5332  160.1242 H   0  0  0  0  0  0  0  0  0  0  0  0
  154.5498  138.3202  159.4246 H   0  0  0  0  0  0  0  0  0  0  0  0
  155.3304  135.3572  164.3324 H   0  0  0  0  0  0  0  0  0  0  0  0
  154.7629  134.3582  162.1814 H   0  0  0  0  0  0  0  0  0  0  0  0
  152.4397  140.5911  160.5715 H   0  0  0  0  0  0  0  0  0  0  0  0
  153.3871  142.4401  162.2009 H   0  0  0  0  0  0  0  0  0  0  0  0
  154.5111  142.6747  160.8721 H   0  0  0  0  0  0  0  0  0  0  0  0
  151.5251  142.6153  160.3283 H   0  0  0  0  0  0  0  0  0  0  0  0
  153.9078  143.8684  158.9300 H   0  0  0  0  0  0  0  0  0  0  0  0
  152.7719  142.7033  158.2575 H   0  0  0  0  0  0  0  0  0  0  0  0
  152.4544  145.4086  157.8951 H   0  0  0  0  0  0  0  0  0  0  0  0
  151.0651  144.3462  158.0671 H   0  0  0  0  0  0  0  0  0  0  0  0
  151.9072  146.4181  159.9510 H   0  0  0  0  0  0  0  0  0  0  0  0
  150.4693  145.4082  159.9877 H   0  0  0  0  0  0  0  0  0  0  0  0
  151.5123  144.4591  161.8849 H   0  0  0  0  0  0  0  0  0  0  0  0
  153.1008  144.9956  161.3519 H   0  0  0  0  0  0  0  0  0  0  0  0
  1  2  2  0  0  0  0
  2  3  1  0  0  0  0
  2 12  1  0  0  0  0
  3 20  1  0  0  0  0
  3 21  1  0  0  0  0
  3  4  1  0  0  0  0
  4  5  1  0  0  0  0
  4 10  1  0  0  0  0
  5  6  2  0  0  0  0
  6  7  1  0  0  0  0
  6  8  1  0  0  0  0
  7 19  1  0  0  0  0
  8 22  1  0  0  0  0
  8  9  2  0  0  0  0
  9 23  1  0  0  0  0
  9 10  1  0  0  0  0
 10 11  2  0  0  0  0
 12 13  1  0  0  0  0
 12 24  1  0  0  0  0
 13 14  1  0  0  0  0
 13 25  1  0  0  0  0
 13 26  1  0  0  0  0
 14 18  1  0  0  0  0
 14 15  1  0  0  0  0
 14 27  1  0  0  0  0
 15 16  1  0  0  0  0
 15 28  1  0  0  0  0
 15 29  1  0  0  0  0
 16 17  1  0  0  0  0
 16 30  1  0  0  0  0
 16 31  1  0  0  0  0
 17 18  1  0  0  0  0
 17 32  1  0  0  0  0
 17 33  1  0  0  0  0
 18 34  1  0  0  0  0
 18 35  1  0  0  0  0
M  END
> <s_m_source_file>
AV-unprocessed.smi

> <i_m_source_file_index>
1922

> <i_lp_mmshare_version>
43012

> <i_f3d_flags>
0

> <s_epik_input>
W0NIMl0xW0NIMl1bQ0gyXVtDSDJdW0NIXTFbQ0gyXVtOSF1DKD1PKVtDSDJdbjJbbkhdYyg9TylbY0hdW2NIXWMyPU8=

> <s_epik_cmdline>
J2VwaWtfcHl0aG9uJywgJy1waCcsICc3LjAnLCAnLXRuJywgJzgnLCAnLW1hJywgJzIwMCcsICctbWV0YWxfYmluZGluZycsICctaW1hZScsICc8aW5maWxlLm1hZT4nLCAnLW9tYWUnLCAnPG91dGZpbGUubWFlPic=

> <r_lp_tautomer_probability>
0.9996

> <r_epik_Ionization_Penalty>
2.12182

> <r_epik_Ionization_Penalty_Charging>
3.68417e-08

> <r_epik_Ionization_Penalty_Neutral>
2.12182

> <r_epik_State_Penalty>
1.69868

> <r_epik_Charging_Adjusted_Penalty>
1.69868

> <i_epik_Tot_Q>
0

> <i_epik_Tot_abs_Q>
0

> <r_epik_Metal_State_Penalty>
1.69868

> <b_epik_Metal_Only>
0

> <s_lp_Force_Field>
OPLS_2005

> <r_lp_Energy>
31.2069

> <b_lp_Chiralities_Consistent>
1

> <s_lp_Variant>
AV-unprocessed.smi:1922-2

> <Gold.Version>
5.8.1

> <Gold.Id.Protein>
6NUR|6NUR_protein|mol2

> <Gold.PLP.Fitness>
43.5182

> <Gold.PLP.PLP>
-41.5829

> <Gold.PLP.part.hbond>
-1.3268

> <Gold.PLP.part.metal>
0.0000

> <Gold.PLP.part.buried>
-5.9497

> <Gold.PLP.part.nonpolar>
-33.8330

> <Gold.PLP.part.repulsive>
0.0747

> <Gold.PLP.ligand.clash>
0.0000

> <Gold.PLP.ligand.torsion>
0.5362

> <Gold.PLP.Chemscore.Hbond>
1.0000

> <Gold.PLP.Chemscore.CHOScore>
0.0000

> <Gold.PLP.Chemscore.Metal>
0.0000

> <Gold.Chemscore.Hbonds>
donor molecule, donor type, donor heavy atom, donor atom, acceptor molecule, acceptor atom, score
      P1  H  6896  6907       L1    11  1.00

> <Gold.PLP.Chemscore.Internal.Correction>
0.0076

> <Gold.Rescore>
     Score         DG    S(hbond)    S(metal)    S(lipo)     H(rot)  DE(clash)    DE(int)     intcor
     11.51     -13.29       0.99        0.00      94.37       2.56       0.06       1.72       ----

> <Gold.Chemscore.Fitness>
11.5115

> <Gold.Chemscore.DG>
-13.2881

> <Gold.Chemscore.ZeroCoef>
-5.4800

> <Gold.Chemscore.Hbond>
0.9945

> <Gold.Chemscore.Metal>
0.0000

> <Gold.Chemscore.Lipo>
94.3705

> <Gold.Chemscore.Internal_Hbond>
0.0000

> <Gold.Chemscore.DEClash>
0.0588

> <Gold.Chemscore.DEInternal>
1.7178

> <Gold.Chemscore.Rot>
2.5605

> <Gold.Chemscore.Internal.Correction>
   9.000000E+99

> <Gold.Chemscore.Hbonds>
donor molecule, donor type, donor heavy atom, donor atom, acceptor molecule, acceptor atom, score
      P1  H  6896  6907       L1    11  0.90

> <Gold.Chemscore.Hbond.Weighted>
-3.3216

> <Gold.Chemscore.Metal.Weighted>
-0.0000

> <Gold.Chemscore.Lipo.Weighted>
-11.0413

> <Gold.Chemscore.Internal_Hbond.Weighted>
0.0000

> <Gold.Chemscore.DEClash.Weighted>
0.0588

> <Gold.Chemscore.DEInternal.Weighted>
1.7178

> <Gold.Chemscore.Rot.Weighted>
6.5548

> <Gold.Chemscore.Internal.Correction.Weighted>
   9.000000E+99

> <Gold.Protein.RotatedTorsions>
[ 6907 6896 6895 6894 ] final   65.89 input  -60.11 | X-H torsion
[ 7974 7965 7964 7962 ] final   61.61 input  175.53 | X-H torsion
[ 8008 7997 7996 7995 ] final   76.61 input   59.86 | X-H torsion
[ 10167 10162 10161 10158 ] final  -90.09 input  -65.29 | X-H torsion
[ 10718 10713 10712 10709 ] final  150.94 input   66.30 | X-H torsion
[ 10763 10752 10751 10750 ] final  102.32 input  -60.55 | X-H torsion
[ 11005 11000 10999 10996 ] final    4.66 input  -57.11 | X-H torsion

> <Gold.Protein.ActiveResidues>
 VAL166  LYS551  ARG553  GLY616  TRP617  ASP618  TYR619  PRO620  LYS621  CYS622 
 ASP623  PHE694  ASN695  SER759  ASP760  ASP761  ALA762  ILE779  LEU786  VAL792 
 PHE793  MET794  SER795  GLU796  ALA797  LYS798  CYS799  TRP800  GLU811  SER814 

> <Gold.Protein.RotatedAtoms>
  152.4441  134.5532  159.9872 H   0  0  0  0  0  0  0  0  0  0  0  0  # atno 6907 bound_to 6896
  151.5621  133.3396  159.2981 H   0  0  0  0  0  0  0  0  0  0  0  0  # atno 6908 bound_to 6896
  150.8353  134.7656  159.6951 H   0  0  0  0  0  0  0  0  0  0  0  0  # atno 6909 bound_to 6896
  145.8828  139.3455  143.0695 H   0  0  0  0  0  0  0  0  0  0  0  0  # atno 7974 bound_to 7965
  155.8298  140.3466  155.5565 H   0  0  0  0  0  0  0  0  0  0  0  0  # atno 8008 bound_to 7997
  155.8254  140.0919  157.1844 H   0  0  0  0  0  0  0  0  0  0  0  0  # atno 8009 bound_to 7997
  154.4004  140.1422  156.3538 H   0  0  0  0  0  0  0  0  0  0  0  0  # atno 8010 bound_to 7997
  140.3584  143.2855  151.9644 H   0  0  0  0  0  0  0  0  0  0  0  0  # atno 10167 bound_to 10162
  157.2771  131.0828  151.1558 H   0  0  0  0  0  0  0  0  0  0  0  0  # atno 10718 bound_to 10713
  153.3381  135.4014  155.1550 H   0  0  0  0  0  0  0  0  0  0  0  0  # atno 10763 bound_to 10752
  154.8638  135.3627  154.5382 H   0  0  0  0  0  0  0  0  0  0  0  0  # atno 10764 bound_to 10752
  153.5825  135.7076  153.5517 H   0  0  0  0  0  0  0  0  0  0  0  0  # atno 10765 bound_to 10752
  140.5794  134.0027  155.8041 H   0  0  0  0  0  0  0  0  0  0  0  0  # atno 11005 bound_to 11000
  145.9002  140.9247  143.0506 LP  0  0  0  0  0  0  0  0  0  0  0  0  # atno 17320 bound_to 7965
  144.6727  140.1023  143.7460 LP  0  0  0  0  0  0  0  0  0  0  0  0  # atno 17321 bound_to 7965
  139.4817  144.6015  151.7597 LP  0  0  0  0  0  0  0  0  0  0  0  0  # atno 17342 bound_to 10162
  140.5151  144.0965  150.6006 LP  0  0  0  0  0  0  0  0  0  0  0  0  # atno 17343 bound_to 10162
  157.3007  130.6841  149.6163 LP  0  0  0  0  0  0  0  0  0  0  0  0  # atno 17370 bound_to 10713
  155.9664  130.4393  150.5252 LP  0  0  0  0  0  0  0  0  0  0  0  0  # atno 17371 bound_to 10713
  141.1005  133.9775  157.3086 LP  0  0  0  0  0  0  0  0  0  0  0  0  # atno 17394 bound_to 11000
  139.9324  135.0199  156.8444 LP  0  0  0  0  0  0  0  0  0  0  0  0  # atno 17395 bound_to 11000

$$$$
