AV-unprocessed.smi:1849|AV-procd|sdf|7520|dock10
  -GOLD-   22720 9233D 1   1.00000     0.00000
 Structure written by MMmdl.
 41 42  0  0  0  0  0  0  0  0  2 V2000
  148.7784  141.5107  154.9754 C   0  0  0  0  0  0  0  0  0  0  0  0
  149.2568  140.2023  154.5232 N   0  0  0  0  0  0  0  0  0  0  0  0
  150.4581  139.6188  154.8352 C   0  0  0  0  0  0  0  0  0  0  0  0
  150.4837  138.4063  154.1966 C   0  0  0  0  0  0  0  0  0  0  0  0
  149.2977  138.2994  153.5222 N   0  3  0  0  0  0  0  0  0  0  0  0
  148.5476  139.3893  153.7228 C   0  0  0  0  0  0  0  0  0  0  0  0
  147.1934  139.6334  153.1351 C   0  0  0  0  0  0  0  0  0  0  0  0
  146.2043  138.4931  153.4281 C   0  0  0  0  0  0  0  0  0  0  0  0
  146.5110  137.3030  152.6442 N   0  0  0  0  0  0  0  0  0  0  0  0
  145.5947  136.4637  152.1416 C   0  0  0  0  0  0  0  0  0  0  0  0
  144.3802  136.6041  152.2878 O   0  0  0  0  0  0  0  0  0  0  0  0
  146.1614  135.4519  151.4696 N   0  0  0  0  0  0  0  0  0  0  0  0
  145.4383  134.3637  150.8184 C   0  0  0  0  0  0  0  0  0  0  0  0
  144.2969  133.8527  151.7228 C   0  0  0  0  0  0  0  0  0  0  0  0
  143.5754  132.6499  151.0940 C   0  0  0  0  0  0  0  0  0  0  0  0
  144.5612  131.5196  150.7593 C   0  0  0  0  0  0  0  0  0  0  0  0
  145.6926  132.0239  149.8502 C   0  0  0  0  0  0  0  0  0  0  0  0
  146.4186  133.2248  150.4780 C   0  0  0  0  0  0  0  0  0  0  0  0
  149.5616  142.0076  155.5486 H   0  0  0  0  0  0  0  0  0  0  0  0
  147.8998  141.3748  155.6068 H   0  0  0  0  0  0  0  0  0  0  0  0
  148.5216  142.1243  154.1114 H   0  0  0  0  0  0  0  0  0  0  0  0
  151.1882  140.0977  155.4715 H   0  0  0  0  0  0  0  0  0  0  0  0
  151.2374  137.6326  154.1716 H   0  0  0  0  0  0  0  0  0  0  0  0
  146.8311  140.5756  153.5484 H   0  0  0  0  0  0  0  0  0  0  0  0
  147.3271  139.7832  152.0634 H   0  0  0  0  0  0  0  0  0  0  0  0
  146.2059  138.2432  154.4902 H   0  0  0  0  0  0  0  0  0  0  0  0
  145.1893  138.8092  153.1858 H   0  0  0  0  0  0  0  0  0  0  0  0
  147.4860  137.1058  152.4707 H   0  0  0  0  0  0  0  0  0  0  0  0
  147.1688  135.4270  151.4069 H   0  0  0  0  0  0  0  0  0  0  0  0
  145.0097  134.7313  149.8838 H   0  0  0  0  0  0  0  0  0  0  0  0
  144.6976  133.5647  152.6959 H   0  0  0  0  0  0  0  0  0  0  0  0
  143.5774  134.6507  151.9100 H   0  0  0  0  0  0  0  0  0  0  0  0
  142.8050  132.2825  151.7725 H   0  0  0  0  0  0  0  0  0  0  0  0
  143.0617  132.9672  150.1856 H   0  0  0  0  0  0  0  0  0  0  0  0
  144.9840  131.1176  151.6810 H   0  0  0  0  0  0  0  0  0  0  0  0
  144.0336  130.6970  150.2759 H   0  0  0  0  0  0  0  0  0  0  0  0
  146.4029  131.2188  149.6595 H   0  0  0  0  0  0  0  0  0  0  0  0
  145.2822  132.3102  148.8810 H   0  0  0  0  0  0  0  0  0  0  0  0
  147.1883  133.5850  149.7944 H   0  0  0  0  0  0  0  0  0  0  0  0
  146.9360  132.8989  151.3817 H   0  0  0  0  0  0  0  0  0  0  0  0
  149.0232  137.5087  152.9529 H   0  0  0  0  0  0  0  0  0  0  0  0
  1  2  1  0  0  0  0
  1 19  1  0  0  0  0
  1 20  1  0  0  0  0
  1 21  1  0  0  0  0
  2  6  1  0  0  0  0
  2  3  1  0  0  0  0
  3  4  2  0  0  0  0
  3 22  1  0  0  0  0
  4  5  1  0  0  0  0
  4 23  1  0  0  0  0
  5  6  2  0  0  0  0
  5 41  1  0  0  0  0
  6  7  1  0  0  0  0
  7  8  1  0  0  0  0
  7 24  1  0  0  0  0
  7 25  1  0  0  0  0
  8  9  1  0  0  0  0
  8 26  1  0  0  0  0
  8 27  1  0  0  0  0
  9 10  1  0  0  0  0
  9 28  1  0  0  0  0
 10 11  2  0  0  0  0
 10 12  1  0  0  0  0
 12 13  1  0  0  0  0
 12 29  1  0  0  0  0
 13 18  1  0  0  0  0
 13 14  1  0  0  0  0
 13 30  1  0  0  0  0
 14 15  1  0  0  0  0
 14 31  1  0  0  0  0
 14 32  1  0  0  0  0
 15 16  1  0  0  0  0
 15 33  1  0  0  0  0
 15 34  1  0  0  0  0
 16 17  1  0  0  0  0
 16 35  1  0  0  0  0
 16 36  1  0  0  0  0
 17 18  1  0  0  0  0
 17 37  1  0  0  0  0
 17 38  1  0  0  0  0
 18 39  1  0  0  0  0
 18 40  1  0  0  0  0
M  CHG  1   5   1
M  END
> <s_m_source_file>
AV-unprocessed.smi

> <i_m_source_file_index>
1849

> <i_lp_mmshare_version>
43012

> <i_f3d_flags>
0

> <s_epik_input>
W0NIM11uMVtjSF1bY0hdbmMxW0NIMl1bQ0gyXVtOSF1DKD1PKVtOSF1bQ0hdMltDSDJdW0NIMl1bQ0gyXVtDSDJdW0NIMl0y

> <s_epik_cmdline>
J2VwaWtfcHl0aG9uJywgJy1waCcsICc3LjAnLCAnLXRuJywgJzgnLCAnLW1hJywgJzIwMCcsICctbWV0YWxfYmluZGluZycsICctaW1hZScsICc8aW5maWxlLm1hZT4nLCAnLW9tYWUnLCAnPG91dGZpbGUubWFlPic=

> <r_lp_tautomer_probability>
1

> <r_epik_Ionization_Penalty>
0.0507041

> <r_epik_Ionization_Penalty_Charging>
0

> <r_epik_Ionization_Penalty_Neutral>
0.0507041

> <r_epik_State_Penalty>
0.0433397

> <r_epik_Charging_Adjusted_Penalty>
0.0433397

> <i_epik_Tot_Q>
1

> <i_epik_Tot_abs_Q>
1

> <r_epik_Metal_State_Penalty>
0.385258

> <b_epik_Metal_Only>
0

> <s_lp_Force_Field>
OPLS_2005

> <r_lp_Energy>
7.33452

> <b_lp_Chiralities_Consistent>
1

> <s_lp_Variant>
AV-unprocessed.smi:1849-1

> <Gold.Version>
5.8.1

> <Gold.Id.Protein>
6NUR|6NUR_protein|mol2

> <Gold.PLP.Fitness>
49.5992

> <Gold.PLP.PLP>
-38.5012

> <Gold.PLP.part.hbond>
-4.0000

> <Gold.PLP.part.metal>
0.0000

> <Gold.PLP.part.buried>
0.3529

> <Gold.PLP.part.nonpolar>
-33.8573

> <Gold.PLP.part.repulsive>
0.3704

> <Gold.PLP.ligand.clash>
0.0000

> <Gold.PLP.ligand.torsion>
0.4553

> <Gold.PLP.Chemscore.Hbond>
4.0000

> <Gold.PLP.Chemscore.CHOScore>
0.0000

> <Gold.PLP.Chemscore.Metal>
0.0000

> <Gold.Chemscore.Hbonds>
donor molecule, donor type, donor heavy atom, donor atom, acceptor molecule, acceptor atom, score
      L1  H     5    41       P1  7948  2.00
      L1  H     9    28       P1  7948  1.00
      L1  H    12    29       P1  7948  1.00

> <Gold.PLP.Chemscore.Internal.Correction>
0.0085

> <Gold.Rescore>
     Score         DG    S(hbond)    S(metal)    S(lipo)     H(rot)  DE(clash)    DE(int)     intcor
     18.21     -20.26       2.92        0.00      80.81       1.73       0.10       1.95       ----

> <Gold.Chemscore.Fitness>
18.2050

> <Gold.Chemscore.DG>
-20.2566

> <Gold.Chemscore.ZeroCoef>
-5.4800

> <Gold.Chemscore.Hbond>
2.9167

> <Gold.Chemscore.Metal>
0.0000

> <Gold.Chemscore.Lipo>
80.8096

> <Gold.Chemscore.Internal_Hbond>
0.0000

> <Gold.Chemscore.DEClash>
0.1022

> <Gold.Chemscore.DEInternal>
1.9494

> <Gold.Chemscore.Rot>
1.7265

> <Gold.Chemscore.Internal.Correction>
   9.000000E+99

> <Gold.Chemscore.Hbonds>
donor molecule, donor type, donor heavy atom, donor atom, acceptor molecule, acceptor atom, score
      L1  H     5    41       P1  7948  1.00
      L1  H     9    28       P1  7948  0.99
      L1  H    12    29       P1  7948  0.89

> <Gold.Chemscore.Hbond.Weighted>
-9.7418

> <Gold.Chemscore.Metal.Weighted>
-0.0000

> <Gold.Chemscore.Lipo.Weighted>
-9.4547

> <Gold.Chemscore.Internal_Hbond.Weighted>
0.0000

> <Gold.Chemscore.DEClash.Weighted>
0.1022

> <Gold.Chemscore.DEInternal.Weighted>
1.9494

> <Gold.Chemscore.Rot.Weighted>
4.4199

> <Gold.Chemscore.Internal.Correction.Weighted>
   9.000000E+99

> <Gold.Protein.RotatedTorsions>
[ 6907 6896 6895 6894 ] final -131.29 input  -60.11 | X-H torsion
[ 7974 7965 7964 7962 ] final  -34.56 input  175.53 | X-H torsion
[ 8008 7997 7996 7995 ] final -137.89 input   59.86 | X-H torsion
[ 10167 10162 10161 10158 ] final   87.11 input  -65.29 | X-H torsion
[ 10718 10713 10712 10709 ] final   95.86 input   66.30 | X-H torsion
[ 10763 10752 10751 10750 ] final  122.29 input  -60.55 | X-H torsion
[ 11005 11000 10999 10996 ] final -125.83 input  -57.11 | X-H torsion

> <Gold.Protein.ActiveResidues>
 VAL166  LYS551  ARG553  GLY616  TRP617  ASP618  TYR619  PRO620  LYS621  CYS622 
 ASP623  PHE694  ASN695  SER759  ASP760  ASP761  ALA762  ILE779  LEU786  VAL792 
 PHE793  MET794  SER795  GLU796  ALA797  LYS798  CYS799  TRP800  GLU811  SER814 

> <Gold.Protein.RotatedAtoms>
  150.9493  133.6568  159.2774 H   0  0  0  0  0  0  0  0  0  0  0  0  # atno 6907 bound_to 6896
  151.3930  135.0958  159.9541 H   0  0  0  0  0  0  0  0  0  0  0  0  # atno 6908 bound_to 6896
  152.5103  133.9003  159.7492 H   0  0  0  0  0  0  0  0  0  0  0  0  # atno 6909 bound_to 6896
  146.0819  140.6054  142.8904 H   0  0  0  0  0  0  0  0  0  0  0  0  # atno 7974 bound_to 7965
  155.4193  140.0517  157.3026 H   0  0  0  0  0  0  0  0  0  0  0  0  # atno 8008 bound_to 7997
  154.4910  140.2120  155.9508 H   0  0  0  0  0  0  0  0  0  0  0  0  # atno 8009 bound_to 7997
  156.1342  140.3166  155.8400 H   0  0  0  0  0  0  0  0  0  0  0  0  # atno 8010 bound_to 7997
  139.8807  144.6442  150.8846 H   0  0  0  0  0  0  0  0  0  0  0  0  # atno 10167 bound_to 10162
  157.6934  131.0559  150.4404 H   0  0  0  0  0  0  0  0  0  0  0  0  # atno 10718 bound_to 10713
  153.6275  135.3402  155.3031 H   0  0  0  0  0  0  0  0  0  0  0  0  # atno 10763 bound_to 10752
  154.8587  135.4287  154.2141 H   0  0  0  0  0  0  0  0  0  0  0  0  # atno 10764 bound_to 10752
  153.3029  135.7026  153.7260 H   0  0  0  0  0  0  0  0  0  0  0  0  # atno 10765 bound_to 10752
  140.9730  134.0779  157.3849 H   0  0  0  0  0  0  0  0  0  0  0  0  # atno 11005 bound_to 11000
  144.7299  140.4639  143.6945 LP  0  0  0  0  0  0  0  0  0  0  0  0  # atno 17320 bound_to 7965
  145.6202  139.1523  143.3027 LP  0  0  0  0  0  0  0  0  0  0  0  0  # atno 17321 bound_to 7965
  140.7745  143.3588  151.1868 LP  0  0  0  0  0  0  0  0  0  0  0  0  # atno 17342 bound_to 10162
  139.7199  143.9240  152.2981 LP  0  0  0  0  0  0  0  0  0  0  0  0  # atno 17343 bound_to 10162
  156.4763  130.4064  149.6488 LP  0  0  0  0  0  0  0  0  0  0  0  0  # atno 17370 bound_to 10713
  156.3550  130.7452  151.2416 LP  0  0  0  0  0  0  0  0  0  0  0  0  # atno 17371 bound_to 10713
  139.8919  135.0121  156.6819 LP  0  0  0  0  0  0  0  0  0  0  0  0  # atno 17394 bound_to 11000
  140.7301  133.9066  155.8205 LP  0  0  0  0  0  0  0  0  0  0  0  0  # atno 17395 bound_to 11000

$$$$
