AV-unprocessed.smi:528|AV-procd|sdf|2837|dock2
  -GOLD-   2262023323D 1   1.00000     0.00000
 Structure written by MMmdl.
 45 47  0  0  0  0  0  0  0  0  1 V2000
  154.3742  141.6395  160.8241 C   0  0  0  0  0  0  0  0  0  0  0  0
  152.9374  141.6895  160.2825 C   0  0  2  0  0  0  0  0  0  0  0  0
  152.5142  140.3283  159.9557 N   0  0  0  0  0  0  0  0  0  0  0  0
  153.2357  139.4117  159.2915 C   0  0  0  0  0  0  0  0  0  0  0  0
  154.3622  139.6305  158.8436 O   0  0  0  0  0  0  0  0  0  0  0  0
  152.5691  138.0397  159.1172 C   0  0  0  0  0  0  0  0  0  0  0  0
  151.2179  138.1219  158.5387 N   0  0  0  0  0  0  0  0  0  0  0  0
  151.0727  138.9071  157.3782 C   0  0  0  0  0  0  0  0  0  0  0  0
  149.8903  139.0923  156.7611 C   0  0  0  0  0  0  0  0  0  0  0  0
  149.7755  139.9128  155.4860 C   0  0  0  0  0  0  0  0  0  0  0  0
  148.5079  140.0000  155.0821 F   0  0  0  0  0  0  0  0  0  0  0  0
  150.2293  141.1471  155.6995 F   0  0  0  0  0  0  0  0  0  0  0  0
  150.4931  139.3722  154.5004 F   0  0  0  0  0  0  0  0  0  0  0  0
  148.7500  138.4025  157.3320 C   0  0  0  0  0  0  0  0  0  0  0  0
  148.8725  137.6443  158.4392 C   0  0  0  0  0  0  0  0  0  0  0  0
  150.1602  137.4785  159.1174 C   0  0  0  0  0  0  0  0  0  0  0  0
  150.2794  136.8041  160.1405 O   0  0  0  0  0  0  0  0  0  0  0  0
  152.8091  142.5915  159.0296 C   0  0  1  0  0  0  0  0  0  0  0  0
  151.3923  142.6656  158.4124 C   0  0  0  0  0  0  0  0  0  0  0  0
  151.1668  144.1785  158.2379 C   0  0  1  0  0  0  0  0  0  0  0  0
  150.9007  144.8074  159.6177 C   0  0  0  0  0  0  0  0  0  0  0  0
  152.2906  144.7697  160.2784 C   0  0  0  0  0  0  0  0  0  0  0  0
  153.1639  144.0895  159.2035 C   0  0  2  0  0  0  0  0  0  0  0  0
  152.5719  144.6811  157.9278 C   0  0  0  0  0  0  0  0  0  0  0  0
  154.7082  142.6229  161.1553 H   0  0  0  0  0  0  0  0  0  0  0  0
  155.0740  141.2873  160.0654 H   0  0  0  0  0  0  0  0  0  0  0  0
  154.4464  140.9686  161.6808 H   0  0  0  0  0  0  0  0  0  0  0  0
  152.3011  142.0823  161.0757 H   0  0  0  0  0  0  0  0  0  0  0  0
  151.5971  140.0553  160.2781 H   0  0  0  0  0  0  0  0  0  0  0  0
  153.2011  137.4181  158.4804 H   0  0  0  0  0  0  0  0  0  0  0  0
  152.5563  137.5329  160.0834 H   0  0  0  0  0  0  0  0  0  0  0  0
  151.9889  139.3586  157.0256 H   0  0  0  0  0  0  0  0  0  0  0  0
  147.7797  138.4983  156.8673 H   0  0  0  0  0  0  0  0  0  0  0  0
  148.0006  137.1471  158.8385 H   0  0  0  0  0  0  0  0  0  0  0  0
  153.4813  142.1890  158.2690 H   0  0  0  0  0  0  0  0  0  0  0  0
  151.3666  142.1497  157.4519 H   0  0  0  0  0  0  0  0  0  0  0  0
  150.6231  142.2217  159.0447 H   0  0  0  0  0  0  0  0  0  0  0  0
  150.4107  144.4250  157.4921 H   0  0  0  0  0  0  0  0  0  0  0  0
  150.5517  145.8359  159.5177 H   0  0  0  0  0  0  0  0  0  0  0  0
  150.1537  144.2542  160.1882 H   0  0  0  0  0  0  0  0  0  0  0  0
  152.6444  145.7844  160.4658 H   0  0  0  0  0  0  0  0  0  0  0  0
  152.2912  144.2488  161.2349 H   0  0  0  0  0  0  0  0  0  0  0  0
  154.2313  144.2737  159.3287 H   0  0  0  0  0  0  0  0  0  0  0  0
  152.9920  144.2566  157.0142 H   0  0  0  0  0  0  0  0  0  0  0  0
  152.6414  145.7694  157.8803 H   0  0  0  0  0  0  0  0  0  0  0  0
  1  2  1  0  0  0  0
  1 25  1  0  0  0  0
  1 26  1  0  0  0  0
  1 27  1  0  0  0  0
  2  3  1  0  0  0  0
  2 18  1  0  0  0  0
  2 28  1  0  0  0  0
  3  4  1  0  0  0  0
  3 29  1  0  0  0  0
  4  5  2  0  0  0  0
  4  6  1  0  0  0  0
  6  7  1  0  0  0  0
  6 30  1  0  0  0  0
  6 31  1  0  0  0  0
  7 16  1  0  0  0  0
  7  8  1  0  0  0  0
  8  9  2  0  0  0  0
  8 32  1  0  0  0  0
  9 10  1  0  0  0  0
  9 14  1  0  0  0  0
 10 11  1  0  0  0  0
 10 12  1  0  0  0  0
 10 13  1  0  0  0  0
 14 15  2  0  0  0  0
 14 33  1  0  0  0  0
 15 16  1  0  0  0  0
 15 34  1  0  0  0  0
 16 17  2  0  0  0  0
 18 23  1  0  0  0  0
 18 19  1  0  0  0  0
 18 35  1  0  0  0  0
 19 20  1  0  0  0  0
 19 36  1  0  0  0  0
 19 37  1  0  0  0  0
 20 24  1  0  0  0  0
 20 21  1  0  0  0  0
 20 38  1  0  0  0  0
 21 22  1  0  0  0  0
 21 39  1  0  0  0  0
 21 40  1  0  0  0  0
 22 23  1  0  0  0  0
 22 41  1  0  0  0  0
 22 42  1  0  0  0  0
 23 24  1  0  0  0  0
 23 43  1  0  0  0  0
 24 44  1  0  0  0  0
 24 45  1  0  0  0  0
M  END
> <s_m_source_file>
AV-unprocessed.smi

> <i_m_source_file_index>
528

> <i_lp_mmshare_version>
43012

> <i_f3d_flags>
0

> <s_epik_input>
W0NIMl0xW0NIMl1bQ0BASF0oW0NIMl0yKVtDQEBIXShbQ0gyXVtDQEhdMTIpW0NASF0oW0NIM10pW05IXUMoPU8pW0NIMl1uM1tjSF1jKEMoRikoRilGKVtjSF1bY0hdYzM9Tw==

> <s_epik_cmdline>
J2VwaWtfcHl0aG9uJywgJy1waCcsICc3LjAnLCAnLXRuJywgJzgnLCAnLW1hJywgJzIwMCcsICctbWV0YWxfYmluZGluZycsICctaW1hZScsICc8aW5maWxlLm1hZT4nLCAnLW9tYWUnLCAnPG91dGZpbGUubWFlPic=

> <r_lp_tautomer_probability>
1

> <r_epik_Ionization_Penalty>
4.09479e-08

> <r_epik_Ionization_Penalty_Charging>
1.9321e-08

> <r_epik_Ionization_Penalty_Neutral>
2.16269e-08

> <r_epik_State_Penalty>
-0

> <r_epik_Charging_Adjusted_Penalty>
1.9321e-08

> <i_epik_Tot_Q>
0

> <i_epik_Tot_abs_Q>
0

> <r_epik_Metal_State_Penalty>
-0

> <b_epik_Metal_Only>
0

> <s_lp_Force_Field>
OPLS_2005

> <r_lp_Energy>
63.2054

> <b_lp_Chiralities_Consistent>
1

> <s_lp_Variant>
AV-unprocessed.smi:528-7

> <Gold.Version>
5.8.1

> <Gold.Id.Protein>
6NUR|6NUR_protein|mol2

> <Gold.PLP.Fitness>
50.8409

> <Gold.PLP.PLP>
-45.6504

> <Gold.PLP.part.hbond>
-2.5048

> <Gold.PLP.part.metal>
0.0000

> <Gold.PLP.part.buried>
-3.5878

> <Gold.PLP.part.nonpolar>
-39.5287

> <Gold.PLP.part.repulsive>
0.1501

> <Gold.PLP.ligand.clash>
0.0000

> <Gold.PLP.ligand.torsion>
0.4323

> <Gold.PLP.Chemscore.Hbond>
2.0000

> <Gold.PLP.Chemscore.CHOScore>
0.0000

> <Gold.PLP.Chemscore.Metal>
0.0000

> <Gold.Chemscore.Hbonds>
donor molecule, donor type, donor heavy atom, donor atom, acceptor molecule, acceptor atom, score
      P1  H  6896  6909       L1    17  1.00
      P1  H  7997  8010       L1     5  1.00

> <Gold.PLP.Chemscore.Internal.Correction>
0.0551

> <Gold.Rescore>
     Score         DG    S(hbond)    S(metal)    S(lipo)     H(rot)  DE(clash)    DE(int)     intcor
     20.61     -22.02       2.00        0.00     121.81       1.71       0.35       1.06       ----

> <Gold.Chemscore.Fitness>
20.6136

> <Gold.Chemscore.DG>
-22.0155

> <Gold.Chemscore.ZeroCoef>
-5.4800

> <Gold.Chemscore.Hbond>
1.9963

> <Gold.Chemscore.Metal>
0.0000

> <Gold.Chemscore.Lipo>
121.8117

> <Gold.Chemscore.Internal_Hbond>
0.0000

> <Gold.Chemscore.DEClash>
0.3466

> <Gold.Chemscore.DEInternal>
1.0553

> <Gold.Chemscore.Rot>
1.7125

> <Gold.Chemscore.Internal.Correction>
   9.000000E+99

> <Gold.Chemscore.Hbonds>
donor molecule, donor type, donor heavy atom, donor atom, acceptor molecule, acceptor atom, score
      P1  H  6896  6909       L1    17  0.82
      P1  H  7997  8010       L1     5  0.98

> <Gold.Chemscore.Hbond.Weighted>
-6.6675

> <Gold.Chemscore.Metal.Weighted>
-0.0000

> <Gold.Chemscore.Lipo.Weighted>
-14.2520

> <Gold.Chemscore.Internal_Hbond.Weighted>
0.0000

> <Gold.Chemscore.DEClash.Weighted>
0.3466

> <Gold.Chemscore.DEInternal.Weighted>
1.0553

> <Gold.Chemscore.Rot.Weighted>
4.3840

> <Gold.Chemscore.Internal.Correction.Weighted>
   9.000000E+99

> <Gold.Protein.RotatedTorsions>
[ 6907 6896 6895 6894 ] final   79.20 input  -60.11 | X-H torsion
[ 7974 7965 7964 7962 ] final -169.91 input  175.53 | X-H torsion
[ 8008 7997 7996 7995 ] final   20.19 input   59.86 | X-H torsion
[ 10167 10162 10161 10158 ] final  -57.99 input  -65.29 | X-H torsion
[ 10718 10713 10712 10709 ] final -145.26 input   66.30 | X-H torsion
[ 10763 10752 10751 10750 ] final  128.53 input  -60.55 | X-H torsion
[ 11005 11000 10999 10996 ] final  -44.63 input  -57.11 | X-H torsion

> <Gold.Protein.ActiveResidues>
 VAL166  LYS551  ARG553  GLY616  TRP617  ASP618  TYR619  PRO620  LYS621  CYS622 
 ASP623  PHE694  ASN695  SER759  ASP760  ASP761  ALA762  ILE779  LEU786  VAL792 
 PHE793  MET794  SER795  GLU796  ALA797  LYS798  CYS799  TRP800  GLU811  SER814 

> <Gold.Protein.RotatedAtoms>
  152.5189  134.3548  159.9263 H   0  0  0  0  0  0  0  0  0  0  0  0  # atno 6907 bound_to 6896
  151.3499  133.3923  159.2687 H   0  0  0  0  0  0  0  0  0  0  0  0  # atno 6908 bound_to 6896
  150.9735  134.9122  159.7860 H   0  0  0  0  0  0  0  0  0  0  0  0  # atno 6909 bound_to 6896
  144.7178  140.2150  143.6323 H   0  0  0  0  0  0  0  0  0  0  0  0  # atno 7974 bound_to 7965
  154.9320  140.3041  155.5163 H   0  0  0  0  0  0  0  0  0  0  0  0  # atno 8008 bound_to 7997
  156.3003  140.2352  156.4317 H   0  0  0  0  0  0  0  0  0  0  0  0  # atno 8009 bound_to 7997
  154.8229  140.0422  157.1412 H   0  0  0  0  0  0  0  0  0  0  0  0  # atno 8010 bound_to 7997
  140.6225  143.2425  151.5446 H   0  0  0  0  0  0  0  0  0  0  0  0  # atno 10167 bound_to 10162
  156.3802  130.7833  151.2024 H   0  0  0  0  0  0  0  0  0  0  0  0  # atno 10718 bound_to 10713
  153.7270  135.3244  155.3278 H   0  0  0  0  0  0  0  0  0  0  0  0  # atno 10763 bound_to 10752
  154.8338  135.4513  154.1160 H   0  0  0  0  0  0  0  0  0  0  0  0  # atno 10764 bound_to 10752
  153.2296  135.6958  153.7985 H   0  0  0  0  0  0  0  0  0  0  0  0  # atno 10765 bound_to 10752
  141.0463  133.6760  156.2900 H   0  0  0  0  0  0  0  0  0  0  0  0  # atno 11005 bound_to 11000
  145.8555  139.2196  143.1747 LP  0  0  0  0  0  0  0  0  0  0  0  0  # atno 17320 bound_to 7965
  146.0221  140.8338  142.9918 LP  0  0  0  0  0  0  0  0  0  0  0  0  # atno 17321 bound_to 7965
  139.5451  144.2544  152.1426 LP  0  0  0  0  0  0  0  0  0  0  0  0  # atno 17342 bound_to 10162
  140.1767  144.4883  150.6550 LP  0  0  0  0  0  0  0  0  0  0  0  0  # atno 17343 bound_to 10162
  157.7492  131.0346  150.4325 LP  0  0  0  0  0  0  0  0  0  0  0  0  # atno 17370 bound_to 10713
  156.4568  130.4023  149.6601 LP  0  0  0  0  0  0  0  0  0  0  0  0  # atno 17371 bound_to 10713
  140.6140  134.5429  157.5538 LP  0  0  0  0  0  0  0  0  0  0  0  0  # atno 17394 bound_to 11000
  139.9314  134.7956  156.0919 LP  0  0  0  0  0  0  0  0  0  0  0  0  # atno 17395 bound_to 11000

$$$$
