AV-unprocessed.smi:1605|AV-procd|sdf|6457|dock2
  -GOLD-   22720 7113D 1   1.00000     0.00000
 Structure written by MMmdl.
 52 54  0  0  0  0  0  0  0  0  3 V2000
  143.5434  133.2278  151.2859 C   0  0  0  0  0  0  0  0  0  0  0  0
  144.3805  133.5033  152.3984 O   0  0  0  0  0  0  0  0  0  0  0  0
  145.7525  133.6925  152.0706 C   0  0  2  0  0  0  0  0  0  0  0  0
  146.5183  133.9569  153.3760 C   0  0  0  0  0  0  0  0  0  0  0  0
  146.1265  135.3073  154.0018 C   0  0  0  0  0  0  0  0  0  0  0  0
  146.3274  136.4254  153.0446 N   0  3  2  0  0  0  0  0  0  0  0  0
  146.0797  137.7519  153.6665 C   0  0  0  0  0  0  0  0  0  0  0  0
  147.1078  138.8129  153.2260 C   0  0  2  0  0  0  0  0  0  0  0  0
  147.4267  138.5936  151.8657 O   0  0  0  0  0  0  0  0  0  0  0  0
  148.3938  138.7495  154.0733 C   0  0  0  0  0  0  0  0  0  0  0  0
  148.6607  140.0009  154.7986 N   0  0  0  0  0  0  0  0  0  0  0  0
  148.1885  141.2558  154.5643 C   0  0  0  0  0  0  0  0  0  0  0  0
  148.7221  142.0791  155.5083 N   0  3  0  0  0  0  0  0  0  0  0  0
  149.5450  141.3401  156.3607 C   0  0  0  0  0  0  0  0  0  0  0  0
  150.2994  141.7307  157.4606 C   0  0  0  0  0  0  0  0  0  0  0  0
  151.0376  140.7264  158.1263 C   0  0  0  0  0  0  0  0  0  0  0  0
  151.8740  141.1200  159.3321 C   0  0  0  0  0  0  0  0  0  0  0  0
  151.0015  139.3792  157.6824 C   0  0  0  0  0  0  0  0  0  0  0  0
  151.7930  138.3058  158.4102 C   0  0  0  0  0  0  0  0  0  0  0  0
  150.2315  139.0030  156.5586 C   0  0  0  0  0  0  0  0  0  0  0  0
  149.5086  140.0045  155.9139 C   0  0  0  0  0  0  0  0  0  0  0  0
  145.5605  136.2138  151.7878 C   0  0  0  0  0  0  0  0  0  0  0  0
  145.9488  134.8856  151.1160 C   0  0  0  0  0  0  0  0  0  0  0  0
  142.5247  133.0580  151.6339 H   0  0  0  0  0  0  0  0  0  0  0  0
  143.8685  132.3298  150.7595 H   0  0  0  0  0  0  0  0  0  0  0  0
  143.5169  134.0577  150.5804 H   0  0  0  0  0  0  0  0  0  0  0  0
  146.1483  132.7822  151.6171 H   0  0  0  0  0  0  0  0  0  0  0  0
  146.3361  133.1493  154.0856 H   0  0  0  0  0  0  0  0  0  0  0  0
  147.5904  133.9506  153.1747 H   0  0  0  0  0  0  0  0  0  0  0  0
  145.0849  135.2874  154.3264 H   0  0  0  0  0  0  0  0  0  0  0  0
  146.7324  135.4730  154.8934 H   0  0  0  0  0  0  0  0  0  0  0  0
  145.0654  138.0760  153.4276 H   0  0  0  0  0  0  0  0  0  0  0  0
  146.1195  137.6662  154.7539 H   0  0  0  0  0  0  0  0  0  0  0  0
  146.6863  139.8137  153.3175 H   0  0  0  0  0  0  0  0  0  0  0  0
  148.0701  139.2337  151.6008 H   0  0  0  0  0  0  0  0  0  0  0  0
  148.3041  137.9612  154.8218 H   0  0  0  0  0  0  0  0  0  0  0  0
  149.2600  138.4910  153.4640 H   0  0  0  0  0  0  0  0  0  0  0  0
  147.5126  141.5470  153.7732 H   0  0  0  0  0  0  0  0  0  0  0  0
  150.3211  142.7582  157.7939 H   0  0  0  0  0  0  0  0  0  0  0  0
  151.5190  140.6092  160.2272 H   0  0  0  0  0  0  0  0  0  0  0  0
  151.8251  142.1931  159.5185 H   0  0  0  0  0  0  0  0  0  0  0  0
  152.9206  140.8582  159.1761 H   0  0  0  0  0  0  0  0  0  0  0  0
  151.6396  137.3236  157.9620 H   0  0  0  0  0  0  0  0  0  0  0  0
  151.4857  138.2452  159.4545 H   0  0  0  0  0  0  0  0  0  0  0  0
  152.8604  138.5251  158.3741 H   0  0  0  0  0  0  0  0  0  0  0  0
  150.2118  137.9775  156.2206 H   0  0  0  0  0  0  0  0  0  0  0  0
  144.4913  136.2237  152.0056 H   0  0  0  0  0  0  0  0  0  0  0  0
  145.7448  137.0286  151.0887 H   0  0  0  0  0  0  0  0  0  0  0  0
  146.9951  134.9325  150.8113 H   0  0  0  0  0  0  0  0  0  0  0  0
  145.3788  134.7500  150.1975 H   0  0  0  0  0  0  0  0  0  0  0  0
  147.3078  136.4100  152.8004 H   0  0  0  0  0  0  0  0  0  0  0  0
  148.5350  143.0722  155.5661 H   0  0  0  0  0  0  0  0  0  0  0  0
  1  2  1  0  0  0  0
  1 24  1  0  0  0  0
  1 25  1  0  0  0  0
  1 26  1  0  0  0  0
  2  3  1  0  0  0  0
  3 23  1  0  0  0  0
  3  4  1  0  0  0  0
  3 27  1  0  0  0  0
  4  5  1  0  0  0  0
  4 28  1  0  0  0  0
  4 29  1  0  0  0  0
  5  6  1  0  0  0  0
  5 30  1  0  0  0  0
  5 31  1  0  0  0  0
  6  7  1  0  0  0  0
  6 22  1  0  0  0  0
  6 51  1  0  0  0  0
  7  8  1  0  0  0  0
  7 32  1  0  0  0  0
  7 33  1  0  0  0  0
  8  9  1  0  0  0  0
  8 10  1  0  0  0  0
  8 34  1  0  0  0  0
  9 35  1  0  0  0  0
 10 11  1  0  0  0  0
 10 36  1  0  0  0  0
 10 37  1  0  0  0  0
 11 21  1  0  0  0  0
 11 12  1  0  0  0  0
 12 13  2  0  0  0  0
 12 38  1  0  0  0  0
 13 14  1  0  0  0  0
 13 52  1  0  0  0  0
 14 21  2  0  0  0  0
 14 15  1  0  0  0  0
 15 16  2  0  0  0  0
 15 39  1  0  0  0  0
 16 17  1  0  0  0  0
 16 18  1  0  0  0  0
 17 40  1  0  0  0  0
 17 41  1  0  0  0  0
 17 42  1  0  0  0  0
 18 19  1  0  0  0  0
 18 20  2  0  0  0  0
 19 43  1  0  0  0  0
 19 44  1  0  0  0  0
 19 45  1  0  0  0  0
 20 21  1  0  0  0  0
 20 46  1  0  0  0  0
 22 23  1  0  0  0  0
 22 47  1  0  0  0  0
 22 48  1  0  0  0  0
 23 49  1  0  0  0  0
 23 50  1  0  0  0  0
M  CHG  1   6   1
M  CHG  1  13   1
M  END
> <s_m_source_file>
AV-unprocessed.smi

> <i_m_source_file_index>
1605

> <i_lp_mmshare_version>
43012

> <i_f3d_flags>
0

> <s_epik_input>
W0NIM11PW0NIXTFbQ0gyXVtDSDJdTihbQ0gyXVtDSDJdMSlbQ0gyXVtDQEhdKFtPSF0pW0NIMl1uKFtjSF1uMiljKGMyMylbY0hdYyhbQ0gzXSljKFtjSF0zKVtDSDNd

> <s_epik_cmdline>
J2VwaWtfcHl0aG9uJywgJy1waCcsICc3LjAnLCAnLXRuJywgJzgnLCAnLW1hJywgJzIwMCcsICctbWV0YWxfYmluZGluZycsICctaW1hZScsICc8aW5maWxlLm1hZT4nLCAnLW9tYWUnLCAnPG91dGZpbGUubWFlPic=

> <r_epik_Ionization_Penalty>
1.19848

> <r_epik_Ionization_Penalty_Charging>
1.19848

> <r_epik_Ionization_Penalty_Neutral>
1.67134e-06

> <r_epik_State_Penalty>
1.2782

> <r_epik_Charging_Adjusted_Penalty>
2.47668

> <i_epik_Tot_Q>
2

> <i_epik_Tot_abs_Q>
2

> <r_epik_Metal_State_Penalty>
5.29544

> <b_epik_Metal_Only>
0

> <s_lp_Force_Field>
OPLS_2005

> <r_lp_Energy>
31.9375

> <b_lp_Chiralities_Consistent>
1

> <s_lp_Variant>
AV-unprocessed.smi:1605-7

> <Gold.Version>
5.8.1

> <Gold.Id.Protein>
6NUR|6NUR_protein|mol2

> <Gold.PLP.Fitness>
51.3711

> <Gold.PLP.PLP>
-39.8451

> <Gold.PLP.part.hbond>
-4.8715

> <Gold.PLP.part.metal>
0.0000

> <Gold.PLP.part.buried>
-3.0423

> <Gold.PLP.part.nonpolar>
-32.2867

> <Gold.PLP.part.repulsive>
0.3399

> <Gold.PLP.ligand.clash>
0.0000

> <Gold.PLP.ligand.torsion>
1.7932

> <Gold.PLP.Chemscore.Hbond>
5.0000

> <Gold.PLP.Chemscore.CHOScore>
0.0000

> <Gold.PLP.Chemscore.Metal>
0.0000

> <Gold.Chemscore.Hbonds>
donor molecule, donor type, donor heavy atom, donor atom, acceptor molecule, acceptor atom, score
      L1  H     6    51       P1  7948  2.00
      L1  H     9    35       P1  7957  1.00
      L1  H    13    52       P1  8028  2.00

> <Gold.PLP.Chemscore.Internal.Correction>
0.1123

> <Gold.Rescore>
     Score         DG    S(hbond)    S(metal)    S(lipo)     H(rot)  DE(clash)    DE(int)     intcor
     17.28     -19.14       2.93        0.00      83.02       2.28       0.01       1.85       ----

> <Gold.Chemscore.Fitness>
17.2780

> <Gold.Chemscore.DG>
-19.1401

> <Gold.Chemscore.ZeroCoef>
-5.4800

> <Gold.Chemscore.Hbond>
2.9320

> <Gold.Chemscore.Metal>
0.0000

> <Gold.Chemscore.Lipo>
83.0249

> <Gold.Chemscore.Internal_Hbond>
0.0000

> <Gold.Chemscore.DEClash>
0.0135

> <Gold.Chemscore.DEInternal>
1.8486

> <Gold.Chemscore.Rot>
2.2839

> <Gold.Chemscore.Internal.Correction>
   9.000000E+99

> <Gold.Chemscore.Hbonds>
donor molecule, donor type, donor heavy atom, donor atom, acceptor molecule, acceptor atom, score
      L1  H     6    51       P1  7948  1.00
      L1  H     9    35       P1  7957  0.96
      L1  H    13    52       P1  8028  0.99

> <Gold.Chemscore.Hbond.Weighted>
-9.7930

> <Gold.Chemscore.Metal.Weighted>
-0.0000

> <Gold.Chemscore.Lipo.Weighted>
-9.7139

> <Gold.Chemscore.Internal_Hbond.Weighted>
0.0000

> <Gold.Chemscore.DEClash.Weighted>
0.0135

> <Gold.Chemscore.DEInternal.Weighted>
1.8486

> <Gold.Chemscore.Rot.Weighted>
5.8469

> <Gold.Chemscore.Internal.Correction.Weighted>
   9.000000E+99

> <Gold.Protein.RotatedTorsions>
[ 6907 6896 6895 6894 ] final  177.81 input  -60.11 | X-H torsion
[ 7974 7965 7964 7962 ] final  -94.61 input  175.53 | X-H torsion
[ 8008 7997 7996 7995 ] final  114.24 input   59.86 | X-H torsion
[ 10167 10162 10161 10158 ] final  -34.66 input  -65.29 | X-H torsion
[ 10718 10713 10712 10709 ] final   23.72 input   66.30 | X-H torsion
[ 10763 10752 10751 10750 ] final   82.78 input  -60.55 | X-H torsion
[ 11005 11000 10999 10996 ] final  173.29 input  -57.11 | X-H torsion

> <Gold.Protein.ActiveResidues>
 VAL166  LYS551  ARG553  GLY616  TRP617  ASP618  TYR619  PRO620  LYS621  CYS622 
 ASP623  PHE694  ASN695  SER759  ASP760  ASP761  ALA762  ILE779  LEU786  VAL792 
 PHE793  MET794  SER795  GLU796  ALA797  LYS798  CYS799  TRP800  GLU811  SER814 

> <Gold.Protein.RotatedAtoms>
  151.6980  133.3311  159.3259 H   0  0  0  0  0  0  0  0  0  0  0  0  # atno 6907 bound_to 6896
  150.7749  134.6641  159.6365 H   0  0  0  0  0  0  0  0  0  0  0  0  # atno 6908 bound_to 6896
  152.3787  134.6626  160.0202 H   0  0  0  0  0  0  0  0  0  0  0  0  # atno 6909 bound_to 6896
  145.3710  140.9505  143.2447 H   0  0  0  0  0  0  0  0  0  0  0  0  # atno 7974 bound_to 7965
  156.2309  140.2963  156.0185 H   0  0  0  0  0  0  0  0  0  0  0  0  # atno 8008 bound_to 7997
  155.2228  140.0416  157.2968 H   0  0  0  0  0  0  0  0  0  0  0  0  # atno 8009 bound_to 7997
  154.5994  140.2423  155.7821 H   0  0  0  0  0  0  0  0  0  0  0  0  # atno 8010 bound_to 7997
  140.7181  143.3532  151.2113 H   0  0  0  0  0  0  0  0  0  0  0  0  # atno 10167 bound_to 10162
  157.1700  130.6755  149.6074 H   0  0  0  0  0  0  0  0  0  0  0  0  # atno 10718 bound_to 10713
  153.1233  135.4715  154.9231 H   0  0  0  0  0  0  0  0  0  0  0  0  # atno 10763 bound_to 10752
  154.7596  135.3128  154.8406 H   0  0  0  0  0  0  0  0  0  0  0  0  # atno 10764 bound_to 10752
  153.8965  135.6879  153.4811 H   0  0  0  0  0  0  0  0  0  0  0  0  # atno 10765 bound_to 10752
  140.3388  134.7294  157.4188 H   0  0  0  0  0  0  0  0  0  0  0  0  # atno 11005 bound_to 11000
  144.8576  139.5225  143.6827 LP  0  0  0  0  0  0  0  0  0  0  0  0  # atno 17320 bound_to 7965
  146.2885  139.7072  142.9178 LP  0  0  0  0  0  0  0  0  0  0  0  0  # atno 17321 bound_to 7965
  139.7067  143.9443  152.2930 LP  0  0  0  0  0  0  0  0  0  0  0  0  # atno 17342 bound_to 10162
  139.9155  144.6831  150.8517 LP  0  0  0  0  0  0  0  0  0  0  0  0  # atno 17343 bound_to 10162
  155.9740  130.4682  150.6353 LP  0  0  0  0  0  0  0  0  0  0  0  0  # atno 17370 bound_to 10713
  157.4052  131.0816  151.1271 LP  0  0  0  0  0  0  0  0  0  0  0  0  # atno 17371 bound_to 10713
  140.0798  134.5747  155.8552 LP  0  0  0  0  0  0  0  0  0  0  0  0  # atno 17394 bound_to 11000
  141.2044  133.6639  156.6118 LP  0  0  0  0  0  0  0  0  0  0  0  0  # atno 17395 bound_to 11000

$$$$
