AV-unprocessed.smi:1550|AV-procd|sdf|6225|dock1
  -GOLD-   22720 6403D 1   1.00000     0.00000
 Structure written by MMmdl.
 43 44  0  0  0  0  0  0  0  0  1 V2000
  151.4511  137.4619  156.3653 C   0  0  0  0  0  0  0  0  0  0  0  0
  151.2557  138.2558  157.6655 C   0  0  1  0  0  0  0  0  0  0  0  0
  150.6438  139.4961  157.3228 O   0  0  0  0  0  0  0  0  0  0  0  0
  151.5279  140.6063  157.2139 C   0  0  0  0  0  0  0  0  0  0  0  0
  151.9879  141.0062  158.6217 C   0  0  2  0  0  0  0  0  0  0  0  0
  152.0847  142.5358  158.7848 C   0  0  0  0  0  0  0  0  0  0  0  0
  152.6298  142.8966  160.1716 C   0  0  0  0  0  0  0  0  0  0  0  0
  153.9484  142.1557  160.4174 C   0  0  0  0  0  0  0  0  0  0  0  0
  153.7711  140.6508  160.1620 C   0  0  0  0  0  0  0  0  0  0  0  0
  153.2774  140.4381  158.8431 O   0  0  0  0  0  0  0  0  0  0  0  0
  150.3771  137.4857  158.6648 C   0  0  0  0  0  0  0  0  0  0  0  0
  150.7841  137.3000  159.8116 O   0  0  0  0  0  0  0  0  0  0  0  0
  149.1879  137.0681  158.1877 N   0  0  0  0  0  0  0  0  0  0  0  0
  148.1886  136.3169  158.8280 C   0  0  0  0  0  0  0  0  0  0  0  0
  147.9715  136.3020  160.1691 C   0  0  0  0  0  0  0  0  0  0  0  0
  146.9271  135.4915  160.7725 C   0  0  0  0  0  0  0  0  0  0  0  0
  146.6403  135.5476  162.2649 C   0  0  0  0  0  0  0  0  0  0  0  0
  145.3547  135.8128  162.5022 F   0  0  0  0  0  0  0  0  0  0  0  0
  146.9329  134.3751  162.8259 F   0  0  0  0  0  0  0  0  0  0  0  0
  147.3779  136.4865  162.8580 F   0  0  0  0  0  0  0  0  0  0  0  0
  146.1760  134.7570  159.9311 C   0  0  0  0  0  0  0  0  0  0  0  0
  146.4088  134.7475  158.5539 N   0  0  0  0  0  0  0  0  0  0  0  0
  147.3686  135.4756  157.9406 C   0  0  0  0  0  0  0  0  0  0  0  0
  147.5125  135.4107  156.7202 O   0  0  0  0  0  0  0  0  0  0  0  0
  145.8143  134.1552  157.9919 H   0  0  0  0  0  0  0  0  0  0  0  0
  151.9003  136.4874  156.5596 H   0  0  0  0  0  0  0  0  0  0  0  0
  152.1103  137.9976  155.6818 H   0  0  0  0  0  0  0  0  0  0  0  0
  150.5051  137.2987  155.8473 H   0  0  0  0  0  0  0  0  0  0  0  0
  152.2387  138.4451  158.1016 H   0  0  0  0  0  0  0  0  0  0  0  0
  152.3919  140.3823  156.5870 H   0  0  0  0  0  0  0  0  0  0  0  0
  150.9939  141.4370  156.7500 H   0  0  0  0  0  0  0  0  0  0  0  0
  151.2799  140.6094  159.3518 H   0  0  0  0  0  0  0  0  0  0  0  0
  152.7406  142.9475  158.0164 H   0  0  0  0  0  0  0  0  0  0  0  0
  151.1062  142.9950  158.6401 H   0  0  0  0  0  0  0  0  0  0  0  0
  152.7761  143.9736  160.2563 H   0  0  0  0  0  0  0  0  0  0  0  0
  151.9037  142.6171  160.9360 H   0  0  0  0  0  0  0  0  0  0  0  0
  154.7192  142.5486  159.7532 H   0  0  0  0  0  0  0  0  0  0  0  0
  154.2945  142.3281  161.4369 H   0  0  0  0  0  0  0  0  0  0  0  0
  154.7272  140.1381  160.2675 H   0  0  0  0  0  0  0  0  0  0  0  0
  153.0910  140.2089  160.8919 H   0  0  0  0  0  0  0  0  0  0  0  0
  148.9560  137.3625  157.2498 H   0  0  0  0  0  0  0  0  0  0  0  0
  148.5892  136.8800  160.8370 H   0  0  0  0  0  0  0  0  0  0  0  0
  145.3493  134.1339  160.2393 H   0  0  0  0  0  0  0  0  0  0  0  0
  1  2  1  0  0  0  0
  1 26  1  0  0  0  0
  1 27  1  0  0  0  0
  1 28  1  0  0  0  0
  2  3  1  0  0  0  0
  2 11  1  0  0  0  0
  2 29  1  0  0  0  0
  3  4  1  0  0  0  0
  4  5  1  0  0  0  0
  4 30  1  0  0  0  0
  4 31  1  0  0  0  0
  5 10  1  0  0  0  0
  5  6  1  0  0  0  0
  5 32  1  0  0  0  0
  6  7  1  0  0  0  0
  6 33  1  0  0  0  0
  6 34  1  0  0  0  0
  7  8  1  0  0  0  0
  7 35  1  0  0  0  0
  7 36  1  0  0  0  0
  8  9  1  0  0  0  0
  8 37  1  0  0  0  0
  8 38  1  0  0  0  0
  9 10  1  0  0  0  0
  9 39  1  0  0  0  0
  9 40  1  0  0  0  0
 11 12  2  0  0  0  0
 11 13  1  0  0  0  0
 13 14  1  0  0  0  0
 13 41  1  0  0  0  0
 14 23  1  0  0  0  0
 14 15  2  0  0  0  0
 15 16  1  0  0  0  0
 15 42  1  0  0  0  0
 16 17  1  0  0  0  0
 16 21  2  0  0  0  0
 17 18  1  0  0  0  0
 17 19  1  0  0  0  0
 17 20  1  0  0  0  0
 21 22  1  0  0  0  0
 21 43  1  0  0  0  0
 22 25  1  0  0  0  0
 22 23  1  0  0  0  0
 23 24  2  0  0  0  0
M  END
> <s_m_source_file>
AV-unprocessed.smi

> <i_m_source_file_index>
1550

> <i_lp_mmshare_version>
43012

> <i_f3d_flags>
0

> <s_epik_input>
TzFbQ0gyXVtDSDJdW0NIMl1bQ0gyXVtDQEhdMVtDSDJdT1tDQEBIXShbQ0gzXSlDKD1PKVtOSF1jMltjSF1jKEMoRikoRilGKVtjSF1bbkhdYzI9Tw==

> <s_epik_cmdline>
J2VwaWtfcHl0aG9uJywgJy1waCcsICc3LjAnLCAnLXRuJywgJzgnLCAnLW1hJywgJzIwMCcsICctbWV0YWxfYmluZGluZycsICctaW1hZScsICc8aW5maWxlLm1hZT4nLCAnLW9tYWUnLCAnPG91dGZpbGUubWFlPic=

> <r_lp_tautomer_probability>
0.999

> <r_epik_Ionization_Penalty>
0.00891333

> <r_epik_Ionization_Penalty_Charging>
0.00891323

> <r_epik_Ionization_Penalty_Neutral>
1.00146e-07

> <r_epik_State_Penalty>
0.00674197

> <r_epik_Charging_Adjusted_Penalty>
0.0156552

> <i_epik_Tot_Q>
0

> <i_epik_Tot_abs_Q>
0

> <r_epik_Metal_State_Penalty>
0.321024

> <b_epik_Metal_Only>
0

> <s_lp_Force_Field>
OPLS_2005

> <r_lp_Energy>
24.7831

> <b_lp_Chiralities_Consistent>
1

> <s_lp_Variant>
AV-unprocessed.smi:1550-2

> <Gold.Version>
5.8.1

> <Gold.Id.Protein>
6NUR|6NUR_protein|mol2

> <Gold.PLP.Fitness>
43.0878

> <Gold.PLP.PLP>
-40.2392

> <Gold.PLP.part.hbond>
-2.0000

> <Gold.PLP.part.metal>
0.0000

> <Gold.PLP.part.buried>
-5.0253

> <Gold.PLP.part.nonpolar>
-32.5138

> <Gold.PLP.part.repulsive>
0.0879

> <Gold.PLP.ligand.clash>
0.0000

> <Gold.PLP.ligand.torsion>
1.5667

> <Gold.PLP.Chemscore.Hbond>
1.9600

> <Gold.PLP.Chemscore.CHOScore>
0.0000

> <Gold.PLP.Chemscore.Metal>
0.0000

> <Gold.Chemscore.Hbonds>
donor molecule, donor type, donor heavy atom, donor atom, acceptor molecule, acceptor atom, score
      P1  H  6896  6908       L1    12  0.47
      P1  H  7997  8010       L1    10  0.37

> <Gold.PLP.Chemscore.Internal.Correction>
0.1020

> <Gold.Rescore>
     Score         DG    S(hbond)    S(metal)    S(lipo)     H(rot)  DE(clash)    DE(int)     intcor
     14.53     -16.74       1.86        0.00      83.64       1.86       0.01       2.19       ----

> <Gold.Chemscore.Fitness>
14.5290

> <Gold.Chemscore.DG>
-16.7360

> <Gold.Chemscore.ZeroCoef>
-5.4800

> <Gold.Chemscore.Hbond>
1.8635

> <Gold.Chemscore.Metal>
0.0000

> <Gold.Chemscore.Lipo>
83.6414

> <Gold.Chemscore.Internal_Hbond>
0.0000

> <Gold.Chemscore.DEClash>
0.0149

> <Gold.Chemscore.DEInternal>
2.1922

> <Gold.Chemscore.Rot>
1.8571

> <Gold.Chemscore.Internal.Correction>
   9.000000E+99

> <Gold.Chemscore.Hbonds>
donor molecule, donor type, donor heavy atom, donor atom, acceptor molecule, acceptor atom, score
      P1  H  6896  6908       L1    12  0.30
      P1  H  7997  8010       L1    10  0.35

> <Gold.Chemscore.Hbond.Weighted>
-6.2240

> <Gold.Chemscore.Metal.Weighted>
-0.0000

> <Gold.Chemscore.Lipo.Weighted>
-9.7860

> <Gold.Chemscore.Internal_Hbond.Weighted>
0.0000

> <Gold.Chemscore.DEClash.Weighted>
0.0149

> <Gold.Chemscore.DEInternal.Weighted>
2.1922

> <Gold.Chemscore.Rot.Weighted>
4.7541

> <Gold.Chemscore.Internal.Correction.Weighted>
   9.000000E+99

> <Gold.Protein.RotatedTorsions>
[ 6907 6896 6895 6894 ] final -124.58 input  -60.11 | X-H torsion
[ 7974 7965 7964 7962 ] final   63.59 input  175.53 | X-H torsion
[ 8008 7997 7996 7995 ] final   25.05 input   59.86 | X-H torsion
[ 10167 10162 10161 10158 ] final   62.18 input  -65.29 | X-H torsion
[ 10718 10713 10712 10709 ] final  -69.59 input   66.30 | X-H torsion
[ 10763 10752 10751 10750 ] final -170.14 input  -60.55 | X-H torsion
[ 11005 11000 10999 10996 ] final  -51.26 input  -57.11 | X-H torsion

> <Gold.Protein.ActiveResidues>
 VAL166  LYS551  ARG553  GLY616  TRP617  ASP618  TYR619  PRO620  LYS621  CYS622 
 ASP623  PHE694  ASN695  SER759  ASP760  ASP761  ALA762  ILE779  LEU786  VAL792 
 PHE793  MET794  SER795  GLU796  ALA797  LYS798  CYS799  TRP800  GLU811  SER814 

> <Gold.Protein.RotatedAtoms>
  150.8782  133.7409  159.2939 H   0  0  0  0  0  0  0  0  0  0  0  0  # atno 6907 bound_to 6896
  151.4999  135.1060  159.9835 H   0  0  0  0  0  0  0  0  0  0  0  0  # atno 6908 bound_to 6896
  152.4742  133.8054  159.7030 H   0  0  0  0  0  0  0  0  0  0  0  0  # atno 6909 bound_to 6896
  145.8600  139.3309  143.0824 H   0  0  0  0  0  0  0  0  0  0  0  0  # atno 7974 bound_to 7965
  155.0057  140.3130  155.4850 H   0  0  0  0  0  0  0  0  0  0  0  0  # atno 8008 bound_to 7997
  156.2918  140.2224  156.5110 H   0  0  0  0  0  0  0  0  0  0  0  0  # atno 8009 bound_to 7997
  154.7579  140.0461  157.0937 H   0  0  0  0  0  0  0  0  0  0  0  0  # atno 8010 bound_to 7997
  140.1467  144.4502  150.6781 H   0  0  0  0  0  0  0  0  0  0  0  0  # atno 10167 bound_to 10162
  156.0448  130.4315  150.2171 H   0  0  0  0  0  0  0  0  0  0  0  0  # atno 10718 bound_to 10713
  154.6447  135.2903  155.0060 H   0  0  0  0  0  0  0  0  0  0  0  0  # atno 10763 bound_to 10752
  154.1174  135.6553  153.4900 H   0  0  0  0  0  0  0  0  0  0  0  0  # atno 10764 bound_to 10752
  153.0345  135.5279  154.7329 H   0  0  0  0  0  0  0  0  0  0  0  0  # atno 10765 bound_to 10752
  141.0861  133.6642  156.3851 H   0  0  0  0  0  0  0  0  0  0  0  0  # atno 11005 bound_to 11000
  145.9259  140.9083  143.0381 LP  0  0  0  0  0  0  0  0  0  0  0  0  # atno 17320 bound_to 7965
  144.6727  140.1352  143.7441 LP  0  0  0  0  0  0  0  0  0  0  0  0  # atno 17321 bound_to 7965
  140.6727  143.2292  151.5584 LP  0  0  0  0  0  0  0  0  0  0  0  0  # atno 17342 bound_to 10162
  139.5445  144.2557  152.1416 LP  0  0  0  0  0  0  0  0  0  0  0  0  # atno 17343 bound_to 10162
  157.0262  130.9994  151.3325 LP  0  0  0  0  0  0  0  0  0  0  0  0  # atno 17370 bound_to 10713
  157.5310  130.8058  149.7916 LP  0  0  0  0  0  0  0  0  0  0  0  0  # atno 17371 bound_to 10713
  140.5359  134.6167  157.5365 LP  0  0  0  0  0  0  0  0  0  0  0  0  # atno 17394 bound_to 11000
  139.9680  134.7341  156.0099 LP  0  0  0  0  0  0  0  0  0  0  0  0  # atno 17395 bound_to 11000

$$$$
