AV-unprocessed.smi:3243|AV-procd|sdf|12394|dock5
  -GOLD-   2272018263D 1   1.00000     0.00000
 Structure written by MMmdl.
 37 38  0  0  0  0  0  0  0  0  1 V2000
  153.5896  141.0658  160.8626 C   0  0  0  0  0  0  0  0  0  0  0  0
  153.3037  142.5737  160.9048 C   0  0  0  0  0  0  0  0  0  0  0  0
  152.6390  143.0251  162.2132 C   0  0  0  0  0  0  0  0  0  0  0  0
  152.5465  143.0374  159.7002 C   0  0  0  0  0  0  0  0  0  0  0  0
  152.1732  142.2306  158.7018 N   0  0  0  0  0  0  0  0  0  0  0  0
  151.4749  142.9035  157.6949 C   0  0  0  0  0  0  0  0  0  0  0  0
  150.9687  142.1503  156.5026 C   0  0  0  0  0  0  0  0  0  0  0  0
  149.5564  141.5867  156.7321 C   0  0  0  0  0  0  0  0  0  0  0  0
  148.8492  141.3714  155.4748 N   0  0  0  0  0  0  0  0  0  0  0  0
  149.3367  140.6968  154.4223 C   0  0  0  0  0  0  0  0  0  0  0  0
  150.4527  140.1743  154.4188 O   0  0  0  0  0  0  0  0  0  0  0  0
  148.4050  140.6364  153.2560 C   0  0  2  0  0  0  0  0  0  0  0  0
  147.0052  141.1838  153.4481 C   0  0  0  0  0  0  0  0  0  0  0  0
  147.2198  139.6932  153.3472 C   0  0  1  0  0  0  0  0  0  0  0  0
  146.7596  138.9225  152.1288 C   0  0  0  0  0  0  0  0  0  0  0  0
  151.3250  144.2447  157.9444 C   0  0  0  0  0  0  0  0  0  0  0  0
  152.0552  144.7101  159.4559 S   0  0  0  0  0  0  0  0  0  0  0  0
  154.1370  140.7958  159.9590 H   0  0  0  0  0  0  0  0  0  0  0  0
  152.6660  140.4863  160.8790 H   0  0  0  0  0  0  0  0  0  0  0  0
  154.1912  140.7564  161.7176 H   0  0  0  0  0  0  0  0  0  0  0  0
  154.2737  143.0708  160.8667 H   0  0  0  0  0  0  0  0  0  0  0  0
  152.5279  144.1095  162.2426 H   0  0  0  0  0  0  0  0  0  0  0  0
  153.2336  142.7305  163.0782 H   0  0  0  0  0  0  0  0  0  0  0  0
  151.6476  142.5853  162.3266 H   0  0  0  0  0  0  0  0  0  0  0  0
  150.9667  142.8044  155.6297 H   0  0  0  0  0  0  0  0  0  0  0  0
  151.6517  141.3347  156.2618 H   0  0  0  0  0  0  0  0  0  0  0  0
  149.6175  140.6303  157.2524 H   0  0  0  0  0  0  0  0  0  0  0  0
  148.9793  142.2533  157.3755 H   0  0  0  0  0  0  0  0  0  0  0  0
  147.9245  141.7695  155.3972 H   0  0  0  0  0  0  0  0  0  0  0  0
  148.8507  140.7750  152.2719 H   0  0  0  0  0  0  0  0  0  0  0  0
  146.7317  141.5841  154.4227 H   0  0  0  0  0  0  0  0  0  0  0  0
  146.5581  141.6987  152.6003 H   0  0  0  0  0  0  0  0  0  0  0  0
  147.1027  139.1350  154.2747 H   0  0  0  0  0  0  0  0  0  0  0  0
  146.8807  139.5187  151.2240 H   0  0  0  0  0  0  0  0  0  0  0  0
  145.7078  138.6554  152.2305 H   0  0  0  0  0  0  0  0  0  0  0  0
  147.3429  138.0079  152.0231 H   0  0  0  0  0  0  0  0  0  0  0  0
  150.8279  144.9840  157.3338 H   0  0  0  0  0  0  0  0  0  0  0  0
  1  2  1  0  0  0  0
  1 18  1  0  0  0  0
  1 19  1  0  0  0  0
  1 20  1  0  0  0  0
  2  3  1  0  0  0  0
  2  4  1  0  0  0  0
  2 21  1  0  0  0  0
  3 22  1  0  0  0  0
  3 23  1  0  0  0  0
  3 24  1  0  0  0  0
  4 17  1  0  0  0  0
  4  5  2  0  0  0  0
  5  6  1  0  0  0  0
  6  7  1  0  0  0  0
  6 16  2  0  0  0  0
  7  8  1  0  0  0  0
  7 25  1  0  0  0  0
  7 26  1  0  0  0  0
  8  9  1  0  0  0  0
  8 27  1  0  0  0  0
  8 28  1  0  0  0  0
  9 10  1  0  0  0  0
  9 29  1  0  0  0  0
 10 11  2  0  0  0  0
 10 12  1  0  0  0  0
 12 14  1  0  0  0  0
 12 13  1  0  0  0  0
 12 30  1  0  0  0  0
 13 14  1  0  0  0  0
 13 31  1  0  0  0  0
 13 32  1  0  0  0  0
 14 15  1  0  0  0  0
 14 33  1  0  0  0  0
 15 34  1  0  0  0  0
 15 35  1  0  0  0  0
 15 36  1  0  0  0  0
 16 17  1  0  0  0  0
 16 37  1  0  0  0  0
M  END
> <s_m_source_file>
AV-unprocessed.smi

> <i_m_source_file_index>
3243

> <i_lp_mmshare_version>
43012

> <i_f3d_flags>
0

> <s_epik_input>
W0NIM11bQ0hdKFtDSDNdKWMxbmMoW2NIXXMxKVtDSDJdW0NIMl1bTkhdQyg9TylbQ0BASF0yW0NIMl1bQ0BIXTJbQ0gzXQ==

> <s_epik_cmdline>
J2VwaWtfcHl0aG9uJywgJy1waCcsICc3LjAnLCAnLXRuJywgJzgnLCAnLW1hJywgJzIwMCcsICctbWV0YWxfYmluZGluZycsICctaW1hZScsICc8aW5maWxlLm1hZT4nLCAnLW9tYWUnLCAnPG91dGZpbGUubWFlPic=

> <r_epik_Ionization_Penalty>
0.00084212

> <r_epik_Ionization_Penalty_Charging>
0

> <r_epik_Ionization_Penalty_Neutral>
0.00084212

> <r_epik_State_Penalty>
0.000542609

> <r_epik_Charging_Adjusted_Penalty>
0.000542609

> <i_epik_Tot_Q>
0

> <i_epik_Tot_abs_Q>
0

> <r_epik_Metal_State_Penalty>
-0

> <b_epik_Metal_Only>
0

> <s_lp_Force_Field>
OPLS_2005

> <r_lp_Energy>
-2.76955

> <b_lp_Chiralities_Consistent>
1

> <s_lp_Variant>
AV-unprocessed.smi:3243-1

> <Gold.Version>
5.8.1

> <Gold.Id.Protein>
6NUR|6NUR_protein|mol2

> <Gold.PLP.Fitness>
49.0839

> <Gold.PLP.PLP>
-44.8909

> <Gold.PLP.part.hbond>
-1.2298

> <Gold.PLP.part.metal>
0.0000

> <Gold.PLP.part.buried>
-0.3029

> <Gold.PLP.part.nonpolar>
-42.4126

> <Gold.PLP.part.repulsive>
0.2111

> <Gold.PLP.ligand.clash>
0.1270

> <Gold.PLP.ligand.torsion>
0.8610

> <Gold.PLP.Chemscore.Hbond>
1.0000

> <Gold.PLP.Chemscore.CHOScore>
0.9549

> <Gold.PLP.Chemscore.Metal>
0.0000

> <Gold.Chemscore.Hbonds>
donor molecule, donor type, donor heavy atom, donor atom, acceptor molecule, acceptor atom, score
      P1  H  7989  7998       L1    11  1.00
      L1  C    16    37       P1  8028  1.00

> <Gold.PLP.Chemscore.Internal.Correction>
0.1771

> <Gold.Rescore>
     Score         DG    S(hbond)    S(metal)    S(lipo)     H(rot)  DE(clash)    DE(int)     intcor
     16.84     -19.98       0.97        0.00     128.88       1.49       1.40       1.74       ----

> <Gold.Chemscore.Fitness>
16.8407

> <Gold.Chemscore.DG>
-19.9817

> <Gold.Chemscore.ZeroCoef>
-5.4800

> <Gold.Chemscore.Hbond>
0.9668

> <Gold.Chemscore.Metal>
0.0000

> <Gold.Chemscore.Lipo>
128.8834

> <Gold.Chemscore.Internal_Hbond>
0.0000

> <Gold.Chemscore.DEClash>
1.4028

> <Gold.Chemscore.DEInternal>
1.7383

> <Gold.Chemscore.Rot>
1.4870

> <Gold.Chemscore.Internal.Correction>
   9.000000E+99

> <Gold.Chemscore.Hbonds>
donor molecule, donor type, donor heavy atom, donor atom, acceptor molecule, acceptor atom, score
      P1  H  7989  7998       L1    11  0.93

> <Gold.Chemscore.Hbond.Weighted>
-3.2290

> <Gold.Chemscore.Metal.Weighted>
-0.0000

> <Gold.Chemscore.Lipo.Weighted>
-15.0794

> <Gold.Chemscore.Internal_Hbond.Weighted>
0.0000

> <Gold.Chemscore.DEClash.Weighted>
1.4028

> <Gold.Chemscore.DEInternal.Weighted>
1.7383

> <Gold.Chemscore.Rot.Weighted>
3.8067

> <Gold.Chemscore.Internal.Correction.Weighted>
   9.000000E+99

> <Gold.Protein.RotatedTorsions>
[ 6907 6896 6895 6894 ] final -148.35 input  -60.11 | X-H torsion
[ 7974 7965 7964 7962 ] final  -44.99 input  175.53 | X-H torsion
[ 8008 7997 7996 7995 ] final  -78.92 input   59.86 | X-H torsion
[ 10167 10162 10161 10158 ] final   86.05 input  -65.29 | X-H torsion
[ 10718 10713 10712 10709 ] final  -92.43 input   66.30 | X-H torsion
[ 10763 10752 10751 10750 ] final  -22.84 input  -60.55 | X-H torsion
[ 11005 11000 10999 10996 ] final -179.45 input  -57.11 | X-H torsion

> <Gold.Protein.ActiveResidues>
 VAL166  LYS551  ARG553  GLY616  TRP617  ASP618  TYR619  PRO620  LYS621  CYS622 
 ASP623  PHE694  ASN695  SER759  ASP760  ASP761  ALA762  ILE779  LEU786  VAL792 
 PHE793  MET794  SER795  GLU796  ALA797  LYS798  CYS799  TRP800  GLU811  SER814 

> <Gold.Protein.RotatedAtoms>
  151.1686  133.4798  159.2593 H   0  0  0  0  0  0  0  0  0  0  0  0  # atno 6907 bound_to 6896
  151.1379  135.0164  159.8622 H   0  0  0  0  0  0  0  0  0  0  0  0  # atno 6908 bound_to 6896
  152.5462  134.1583  159.8600 H   0  0  0  0  0  0  0  0  0  0  0  0  # atno 6909 bound_to 6896
  145.9865  140.7227  142.9338 H   0  0  0  0  0  0  0  0  0  0  0  0  # atno 7974 bound_to 7965
  154.5736  140.0686  156.9000 H   0  0  0  0  0  0  0  0  0  0  0  0  # atno 8008 bound_to 7997
  155.2590  140.3357  155.4257 H   0  0  0  0  0  0  0  0  0  0  0  0  # atno 8009 bound_to 7997
  156.2137  140.1769  156.7623 H   0  0  0  0  0  0  0  0  0  0  0  0  # atno 8010 bound_to 7997
  139.8915  144.6383  150.8734 H   0  0  0  0  0  0  0  0  0  0  0  0  # atno 10167 bound_to 10162
  156.0002  130.4987  150.5625 H   0  0  0  0  0  0  0  0  0  0  0  0  # atno 10718 bound_to 10713
  153.6583  135.6977  153.5186 H   0  0  0  0  0  0  0  0  0  0  0  0  # atno 10763 bound_to 10752
  153.2652  135.4232  155.0933 H   0  0  0  0  0  0  0  0  0  0  0  0  # atno 10764 bound_to 10752
  154.8459  135.3565  154.6127 H   0  0  0  0  0  0  0  0  0  0  0  0  # atno 10765 bound_to 10752
  140.4185  134.6627  157.4651 H   0  0  0  0  0  0  0  0  0  0  0  0  # atno 11005 bound_to 11000
  144.6876  140.2997  143.7265 LP  0  0  0  0  0  0  0  0  0  0  0  0  # atno 17320 bound_to 7965
  145.7693  139.1851  143.2221 LP  0  0  0  0  0  0  0  0  0  0  0  0  # atno 17321 bound_to 7965
  140.7725  143.3506  151.2021 LP  0  0  0  0  0  0  0  0  0  0  0  0  # atno 17342 bound_to 10162
  139.7105  143.9384  152.2945 LP  0  0  0  0  0  0  0  0  0  0  0  0  # atno 17343 bound_to 10162
  157.3532  131.0737  151.1696 LP  0  0  0  0  0  0  0  0  0  0  0  0  # atno 17370 bound_to 10713
  157.2506  130.6612  149.5929 LP  0  0  0  0  0  0  0  0  0  0  0  0  # atno 17371 bound_to 10713
  140.0217  134.6537  155.9230 LP  0  0  0  0  0  0  0  0  0  0  0  0  # atno 17394 bound_to 11000
  141.1793  133.6544  156.4956 LP  0  0  0  0  0  0  0  0  0  0  0  0  # atno 17395 bound_to 11000

$$$$
