AV-unprocessed.smi:2285|AV-procd|sdf|9203|dock4
  -GOLD-   2272012423D 1   1.00000     0.00000
 Structure written by MMmdl.
 36 37  0  0  0  0  0  0  0  0  1 V2000
  147.5943  138.1646  154.5930 C   0  0  0  0  0  0  0  0  0  0  0  0
  147.0851  139.5481  155.0201 C   0  0  0  0  0  0  0  0  0  0  0  0
  147.5103  140.6762  154.0825 C   0  0  0  0  0  0  0  0  0  0  0  0
  149.0129  140.9519  154.1291 C   0  0  0  0  0  0  0  0  0  0  0  0
  149.4669  141.9092  155.1324 N   0  0  0  0  0  0  0  0  0  0  0  0
  150.3538  141.6442  156.1020 C   0  0  0  0  0  0  0  0  0  0  0  0
  150.9004  140.5477  156.2342 O   0  0  0  0  0  0  0  0  0  0  0  0
  150.5452  142.7243  156.8853 N   0  0  0  0  0  0  0  0  0  0  0  0
  151.3838  142.8462  158.0010 C   0  0  0  0  0  0  0  0  0  0  0  0
  152.1821  141.8969  158.4034 N   0  0  0  0  0  0  0  0  0  0  0  0
  153.0053  142.0530  159.5185 C   0  0  0  0  0  0  0  0  0  0  0  0
  153.0022  143.1988  160.2231 C   0  0  0  0  0  0  0  0  0  0  0  0
  152.1702  144.2646  159.8525 N   0  0  0  0  0  0  0  0  0  0  0  0
  152.2072  145.4891  160.6528 C   0  0  0  0  0  0  0  0  0  0  0  0
  151.3489  144.1693  158.7718 C   0  0  0  0  0  0  0  0  0  0  0  0
  150.6037  145.0803  158.4053 O   0  0  0  0  0  0  0  0  0  0  0  0
  146.7754  140.8573  152.7704 C   0  0  0  0  0  0  0  0  0  0  0  0
  146.5713  141.8478  153.8897 C   0  0  0  0  0  0  0  0  0  0  0  0
  147.3271  137.4108  155.3337 H   0  0  0  0  0  0  0  0  0  0  0  0
  148.6799  138.1587  154.4911 H   0  0  0  0  0  0  0  0  0  0  0  0
  147.1641  137.8534  153.6411 H   0  0  0  0  0  0  0  0  0  0  0  0
  145.9989  139.5373  155.1140 H   0  0  0  0  0  0  0  0  0  0  0  0
  147.4653  139.7636  156.0193 H   0  0  0  0  0  0  0  0  0  0  0  0
  149.5493  140.0109  154.2642 H   0  0  0  0  0  0  0  0  0  0  0  0
  149.3258  141.3246  153.1539 H   0  0  0  0  0  0  0  0  0  0  0  0
  149.0653  142.8346  155.0920 H   0  0  0  0  0  0  0  0  0  0  0  0
  150.0097  143.5431  156.6371 H   0  0  0  0  0  0  0  0  0  0  0  0
  153.6348  141.2148  159.7790 H   0  0  0  0  0  0  0  0  0  0  0  0
  153.6219  143.3665  161.0920 H   0  0  0  0  0  0  0  0  0  0  0  0
  151.2121  145.7338  161.0279 H   0  0  0  0  0  0  0  0  0  0  0  0
  152.5597  146.3274  160.0501 H   0  0  0  0  0  0  0  0  0  0  0  0
  152.8684  145.4034  161.5157 H   0  0  0  0  0  0  0  0  0  0  0  0
  147.3478  141.1896  151.9066 H   0  0  0  0  0  0  0  0  0  0  0  0
  145.9574  140.1753  152.5476 H   0  0  0  0  0  0  0  0  0  0  0  0
  145.6161  141.8247  154.4108 H   0  0  0  0  0  0  0  0  0  0  0  0
  147.0105  142.8363  153.7705 H   0  0  0  0  0  0  0  0  0  0  0  0
  1  2  1  0  0  0  0
  1 19  1  0  0  0  0
  1 20  1  0  0  0  0
  1 21  1  0  0  0  0
  2  3  1  0  0  0  0
  2 22  1  0  0  0  0
  2 23  1  0  0  0  0
  3 18  1  0  0  0  0
  3  4  1  0  0  0  0
  3 17  1  0  0  0  0
  4  5  1  0  0  0  0
  4 24  1  0  0  0  0
  4 25  1  0  0  0  0
  5  6  1  0  0  0  0
  5 26  1  0  0  0  0
  6  7  2  0  0  0  0
  6  8  1  0  0  0  0
  8  9  1  0  0  0  0
  8 27  1  0  0  0  0
  9 15  1  0  0  0  0
  9 10  2  0  0  0  0
 10 11  1  0  0  0  0
 11 12  2  0  0  0  0
 11 28  1  0  0  0  0
 12 13  1  0  0  0  0
 12 29  1  0  0  0  0
 13 14  1  0  0  0  0
 13 15  1  0  0  0  0
 14 30  1  0  0  0  0
 14 31  1  0  0  0  0
 14 32  1  0  0  0  0
 15 16  2  0  0  0  0
 17 18  1  0  0  0  0
 17 33  1  0  0  0  0
 17 34  1  0  0  0  0
 18 35  1  0  0  0  0
 18 36  1  0  0  0  0
M  END
> <s_m_source_file>
AV-unprocessed.smi

> <i_m_source_file_index>
2285

> <i_lp_mmshare_version>
43012

> <i_f3d_flags>
0

> <s_epik_input>
W0NIM11bQ0gyXUMxKFtDSDJdW0NIMl0xKVtDSDJdW05IXUMoPU8pW05IXWMybltjSF1bY0hdbihbQ0gzXSljMj1P

> <s_epik_cmdline>
J2VwaWtfcHl0aG9uJywgJy1waCcsICc3LjAnLCAnLXRuJywgJzgnLCAnLW1hJywgJzIwMCcsICctbWV0YWxfYmluZGluZycsICctaW1hZScsICc8aW5maWxlLm1hZT4nLCAnLW9tYWUnLCAnPG91dGZpbGUubWFlPic=

> <r_lp_tautomer_probability>
1

> <r_epik_Ionization_Penalty>
0.000603256

> <r_epik_Ionization_Penalty_Charging>
1.64466e-07

> <r_epik_Ionization_Penalty_Neutral>
0.000603092

> <r_epik_State_Penalty>
-0

> <r_epik_Charging_Adjusted_Penalty>
1.64466e-07

> <i_epik_Tot_Q>
0

> <i_epik_Tot_abs_Q>
0

> <r_epik_Metal_State_Penalty>
-0

> <b_epik_Metal_Only>
0

> <s_lp_Force_Field>
OPLS_2005

> <r_lp_Energy>
32.2968

> <b_lp_Chiralities_Consistent>
1

> <s_lp_Variant>
AV-unprocessed.smi:2285-1

> <Gold.Version>
5.8.1

> <Gold.Id.Protein>
6NUR|6NUR_protein|mol2

> <Gold.PLP.Fitness>
39.9206

> <Gold.PLP.PLP>
-34.4557

> <Gold.PLP.part.hbond>
-2.0000

> <Gold.PLP.part.metal>
0.0000

> <Gold.PLP.part.buried>
-4.3784

> <Gold.PLP.part.nonpolar>
-28.9987

> <Gold.PLP.part.repulsive>
0.8014

> <Gold.PLP.ligand.clash>
0.0000

> <Gold.PLP.ligand.torsion>
0.8555

> <Gold.PLP.Chemscore.Hbond>
2.0000

> <Gold.PLP.Chemscore.CHOScore>
0.0000

> <Gold.PLP.Chemscore.Metal>
0.0000

> <Gold.Chemscore.Hbonds>
donor molecule, donor type, donor heavy atom, donor atom, acceptor molecule, acceptor atom, score
      L1  H     5    26       P1  8028  1.00
      L1  H     8    27       P1  8028  1.00

> <Gold.PLP.Chemscore.Internal.Correction>
1.1759

> <Gold.Rescore>
     Score         DG    S(hbond)    S(metal)    S(lipo)     H(rot)  DE(clash)    DE(int)     intcor
     13.94     -16.43       1.97        0.00      69.95       1.49       0.37       2.13       ----

> <Gold.Chemscore.Fitness>
13.9362

> <Gold.Chemscore.DG>
-16.4338

> <Gold.Chemscore.ZeroCoef>
-5.4800

> <Gold.Chemscore.Hbond>
1.9682

> <Gold.Chemscore.Metal>
0.0000

> <Gold.Chemscore.Lipo>
69.9525

> <Gold.Chemscore.Internal_Hbond>
0.0000

> <Gold.Chemscore.DEClash>
0.3668

> <Gold.Chemscore.DEInternal>
2.1307

> <Gold.Chemscore.Rot>
1.4861

> <Gold.Chemscore.Internal.Correction>
   9.000000E+99

> <Gold.Chemscore.Hbonds>
donor molecule, donor type, donor heavy atom, donor atom, acceptor molecule, acceptor atom, score
      L1  H     5    26       P1  8028  0.96
      L1  H     8    27       P1  8028  1.00

> <Gold.Chemscore.Hbond.Weighted>
-6.5737

> <Gold.Chemscore.Metal.Weighted>
-0.0000

> <Gold.Chemscore.Lipo.Weighted>
-8.1844

> <Gold.Chemscore.Internal_Hbond.Weighted>
0.0000

> <Gold.Chemscore.DEClash.Weighted>
0.3668

> <Gold.Chemscore.DEInternal.Weighted>
2.1307

> <Gold.Chemscore.Rot.Weighted>
3.8044

> <Gold.Chemscore.Internal.Correction.Weighted>
   9.000000E+99

> <Gold.Protein.RotatedTorsions>
[ 6907 6896 6895 6894 ] final -148.60 input  -60.11 | X-H torsion
[ 7974 7965 7964 7962 ] final   21.91 input  175.53 | X-H torsion
[ 8008 7997 7996 7995 ] final  103.84 input   59.86 | X-H torsion
[ 10167 10162 10161 10158 ] final  -66.55 input  -65.29 | X-H torsion
[ 10718 10713 10712 10709 ] final -135.68 input   66.30 | X-H torsion
[ 10763 10752 10751 10750 ] final  125.07 input  -60.55 | X-H torsion
[ 11005 11000 10999 10996 ] final  -14.92 input  -57.11 | X-H torsion

> <Gold.Protein.ActiveResidues>
 VAL166  LYS551  ARG553  GLY616  TRP617  ASP618  TYR619  PRO620  LYS621  CYS622 
 ASP623  PHE694  ASN695  SER759  ASP760  ASP761  ALA762  ILE779  LEU786  VAL792 
 PHE793  MET794  SER795  GLU796  ALA797  LYS798  CYS799  TRP800  GLU811  SER814 

> <Gold.Protein.RotatedAtoms>
  151.1721  133.4778  159.2593 H   0  0  0  0  0  0  0  0  0  0  0  0  # atno 6907 bound_to 6896
  151.1345  135.0147  159.8608 H   0  0  0  0  0  0  0  0  0  0  0  0  # atno 6908 bound_to 6896
  152.5461  134.1621  159.8615 H   0  0  0  0  0  0  0  0  0  0  0  0  # atno 6909 bound_to 6896
  146.2051  139.7960  142.8732 H   0  0  0  0  0  0  0  0  0  0  0  0  # atno 7974 bound_to 7965
  156.1520  140.3158  155.8664 H   0  0  0  0  0  0  0  0  0  0  0  0  # atno 8008 bound_to 7997
  155.3952  140.0496  157.3056 H   0  0  0  0  0  0  0  0  0  0  0  0  # atno 8009 bound_to 7997
  154.5067  140.2149  155.9249 H   0  0  0  0  0  0  0  0  0  0  0  0  # atno 8010 bound_to 7997
  140.5649  143.2314  151.6655 H   0  0  0  0  0  0  0  0  0  0  0  0  # atno 10167 bound_to 10162
  156.2688  130.7253  151.1213 H   0  0  0  0  0  0  0  0  0  0  0  0  # atno 10718 bound_to 10713
  153.6714  135.3329  155.3154 H   0  0  0  0  0  0  0  0  0  0  0  0  # atno 10763 bound_to 10752
  154.8490  135.4387  154.1701 H   0  0  0  0  0  0  0  0  0  0  0  0  # atno 10764 bound_to 10752
  153.2693  135.6999  153.7573 H   0  0  0  0  0  0  0  0  0  0  0  0  # atno 10765 bound_to 10752
  140.7913  133.8285  155.9382 H   0  0  0  0  0  0  0  0  0  0  0  0  # atno 11005 bound_to 11000
  145.3347  141.0274  143.3426 LP  0  0  0  0  0  0  0  0  0  0  0  0  # atno 17320 bound_to 7965
  144.8774  139.4952  143.6739 LP  0  0  0  0  0  0  0  0  0  0  0  0  # atno 17321 bound_to 7965
  139.5088  144.3599  152.0572 LP  0  0  0  0  0  0  0  0  0  0  0  0  # atno 17342 bound_to 10162
  140.2730  144.3943  150.6145 LP  0  0  0  0  0  0  0  0  0  0  0  0  # atno 17343 bound_to 10162
  157.7277  131.0637  150.5855 LP  0  0  0  0  0  0  0  0  0  0  0  0  # atno 17370 bound_to 10713
  156.5949  130.4339  149.5921 LP  0  0  0  0  0  0  0  0  0  0  0  0  # atno 17371 bound_to 10713
  140.9386  134.1930  157.4813 LP  0  0  0  0  0  0  0  0  0  0  0  0  # atno 17394 bound_to 11000
  139.8731  134.9862  156.5317 LP  0  0  0  0  0  0  0  0  0  0  0  0  # atno 17395 bound_to 11000

$$$$
