AV-unprocessed.smi:604|AV-procd|sdf|3038|dock3
  -GOLD-   2262023553D 1   1.00000     0.00000
 Structure written by MMmdl.
 49 51  0  0  0  0  0  0  0  0  2 V2000
  149.1529  136.4469  158.0515 O   0  0  0  0  0  0  0  0  0  0  0  0
  148.8589  135.2527  158.0944 C   0  0  0  0  0  0  0  0  0  0  0  0
  148.3057  134.6244  159.1460 N   0  0  0  0  0  0  0  0  0  0  0  0
  147.9332  135.1703  160.4044 C   0  0  0  0  0  0  0  0  0  0  0  0
  147.6416  134.3968  161.5542 C   0  0  0  0  0  0  0  0  0  0  0  0
  147.3002  135.0583  162.7497 C   0  0  0  0  0  0  0  0  0  0  0  0
  147.2693  136.4662  162.7549 C   0  0  0  0  0  0  0  0  0  0  0  0
  147.5587  137.2163  161.6708 N   0  0  0  0  0  0  0  0  0  0  0  0
  147.8869  136.5754  160.5288 C   0  0  0  0  0  0  0  0  0  0  0  0
  149.0818  134.4018  157.0821 N   0  0  0  0  0  0  0  0  0  0  0  0
  149.6892  134.7564  155.7992 C   0  0  2  0  0  0  0  0  0  0  0  0
  149.1423  136.1042  155.2969 C   0  0  0  0  0  0  0  0  0  0  0  0
  147.6819  135.9979  154.8175 C   0  0  0  0  0  0  0  0  0  0  0  0
  147.5270  134.9421  153.7830 N   0  3  2  0  0  0  0  0  0  0  0  0
  146.1626  134.9052  153.1945 C   0  0  0  0  0  0  0  0  0  0  0  0
  146.1319  134.1568  151.8474 C   0  0  0  0  0  0  0  0  0  0  0  0
  144.7715  134.2346  151.1487 C   0  0  0  0  0  0  0  0  0  0  0  0
  144.7785  133.0931  150.1268 C   0  0  0  0  0  0  0  0  0  0  0  0
  145.8010  132.0680  150.6376 C   0  0  0  0  0  0  0  0  0  0  0  0
  146.3800  132.6471  151.9326 C   0  0  0  0  0  0  0  0  0  0  0  0
  147.9796  133.6188  154.2862 C   0  0  0  0  0  0  0  0  0  0  0  0
  149.4512  133.6708  154.7306 C   0  0  0  0  0  0  0  0  0  0  0  0
  148.1951  133.6247  159.0603 H   0  0  0  0  0  0  0  0  0  0  0  0
  147.6860  133.3190  161.5488 H   0  0  0  0  0  0  0  0  0  0  0  0
  147.0713  134.4984  163.6445 H   0  0  0  0  0  0  0  0  0  0  0  0
  147.0115  137.0041  163.6552 H   0  0  0  0  0  0  0  0  0  0  0  0
  148.1147  137.2078  159.6829 H   0  0  0  0  0  0  0  0  0  0  0  0
  148.8046  133.4388  157.2056 H   0  0  0  0  0  0  0  0  0  0  0  0
  150.7638  134.8654  155.9577 H   0  0  0  0  0  0  0  0  0  0  0  0
  149.2274  136.8620  156.0770 H   0  0  0  0  0  0  0  0  0  0  0  0
  149.7614  136.4531  154.4693 H   0  0  0  0  0  0  0  0  0  0  0  0
  147.0190  135.7862  155.6580 H   0  0  0  0  0  0  0  0  0  0  0  0
  147.3747  136.9606  154.4064 H   0  0  0  0  0  0  0  0  0  0  0  0
  145.4466  134.4804  153.9000 H   0  0  0  0  0  0  0  0  0  0  0  0
  145.8199  135.9245  153.0092 H   0  0  0  0  0  0  0  0  0  0  0  0
  146.8754  134.5942  151.1784 H   0  0  0  0  0  0  0  0  0  0  0  0
  143.9726  134.0657  151.8724 H   0  0  0  0  0  0  0  0  0  0  0  0
  144.5940  135.2051  150.6842 H   0  0  0  0  0  0  0  0  0  0  0  0
  143.7858  132.6575  150.0091 H   0  0  0  0  0  0  0  0  0  0  0  0
  145.0884  133.4655  149.1498 H   0  0  0  0  0  0  0  0  0  0  0  0
  145.3482  131.0910  150.8089 H   0  0  0  0  0  0  0  0  0  0  0  0
  146.5910  131.9351  149.8975 H   0  0  0  0  0  0  0  0  0  0  0  0
  147.4356  132.4017  152.0530 H   0  0  0  0  0  0  0  0  0  0  0  0
  145.8417  132.2296  152.7850 H   0  0  0  0  0  0  0  0  0  0  0  0
  147.3458  133.3066  155.1177 H   0  0  0  0  0  0  0  0  0  0  0  0
  147.8689  132.8611  153.5121 H   0  0  0  0  0  0  0  0  0  0  0  0
  150.0768  133.8806  153.8620 H   0  0  0  0  0  0  0  0  0  0  0  0
  149.7664  132.6927  155.0958 H   0  0  0  0  0  0  0  0  0  0  0  0
  148.1497  135.1987  153.0300 H   0  0  0  0  0  0  0  0  0  0  0  0
  1  2  2  0  0  0  0
  2  3  1  0  0  0  0
  2 10  1  0  0  0  0
  3  4  1  0  0  0  0
  3 23  1  0  0  0  0
  4  9  1  0  0  0  0
  4  5  2  0  0  0  0
  5  6  1  0  0  0  0
  5 24  1  0  0  0  0
  6  7  2  0  0  0  0
  6 25  1  0  0  0  0
  7  8  1  0  0  0  0
  7 26  1  0  0  0  0
  8  9  2  0  0  0  0
  9 27  1  0  0  0  0
 10 11  1  0  0  0  0
 10 28  1  0  0  0  0
 11 22  1  0  0  0  0
 11 12  1  0  0  0  0
 11 29  1  0  0  0  0
 12 13  1  0  0  0  0
 12 30  1  0  0  0  0
 12 31  1  0  0  0  0
 13 14  1  0  0  0  0
 13 32  1  0  0  0  0
 13 33  1  0  0  0  0
 14 15  1  0  0  0  0
 14 21  1  0  0  0  0
 14 49  1  0  0  0  0
 15 16  1  0  0  0  0
 15 34  1  0  0  0  0
 15 35  1  0  0  0  0
 16 20  1  0  0  0  0
 16 17  1  0  0  0  0
 16 36  1  0  0  0  0
 17 18  1  0  0  0  0
 17 37  1  0  0  0  0
 17 38  1  0  0  0  0
 18 19  1  0  0  0  0
 18 39  1  0  0  0  0
 18 40  1  0  0  0  0
 19 20  1  0  0  0  0
 19 41  1  0  0  0  0
 19 42  1  0  0  0  0
 20 43  1  0  0  0  0
 20 44  1  0  0  0  0
 21 22  1  0  0  0  0
 21 45  1  0  0  0  0
 21 46  1  0  0  0  0
 22 47  1  0  0  0  0
 22 48  1  0  0  0  0
M  CHG  1  14   1
M  END
> <s_m_source_file>
AV-unprocessed.smi

> <i_m_source_file_index>
604

> <i_lp_mmshare_version>
43012

> <i_f3d_flags>
0

> <s_epik_input>
W2NIXTFuW2NIXVtjSF1bY0hdYzFbTkhdQyg9TylbTkhdW0NIXTJbQ0gyXVtDSDJdTihbQ0gyXVtDSDJdMilbQ0gyXVtDSF0zW0NIMl1bQ0gyXVtDSDJdW0NIMl0z

> <s_epik_cmdline>
J2VwaWtfcHl0aG9uJywgJy1waCcsICc3LjAnLCAnLXRuJywgJzgnLCAnLW1hJywgJzIwMCcsICctbWV0YWxfYmluZGluZycsICctaW1hZScsICc8aW5maWxlLm1hZT4nLCAnLW9tYWUnLCAnPG91dGZpbGUubWFlPic=

> <r_lp_tautomer_probability>
1

> <r_epik_Ionization_Penalty>
0.00608112

> <r_epik_Ionization_Penalty_Charging>
0.00207989

> <r_epik_Ionization_Penalty_Neutral>
0.00400122

> <r_epik_State_Penalty>
-0

> <r_epik_Charging_Adjusted_Penalty>
0.00207989

> <i_epik_Tot_Q>
1

> <i_epik_Tot_abs_Q>
1

> <r_epik_Metal_State_Penalty>
-0

> <b_epik_Metal_Only>
0

> <s_lp_Force_Field>
OPLS_2005

> <r_lp_Energy>
40.9588

> <b_lp_Chiralities_Consistent>
1

> <s_lp_Variant>
AV-unprocessed.smi:604-2

> <Gold.Version>
5.8.1

> <Gold.Id.Protein>
6NUR|6NUR_protein|mol2

> <Gold.PLP.Fitness>
49.3699

> <Gold.PLP.PLP>
-38.9290

> <Gold.PLP.part.hbond>
-3.0000

> <Gold.PLP.part.metal>
0.0000

> <Gold.PLP.part.buried>
-4.9056

> <Gold.PLP.part.nonpolar>
-31.0004

> <Gold.PLP.part.repulsive>
0.1602

> <Gold.PLP.ligand.clash>
0.0000

> <Gold.PLP.ligand.torsion>
0.4141

> <Gold.PLP.Chemscore.Hbond>
3.7440

> <Gold.PLP.Chemscore.CHOScore>
0.0000

> <Gold.PLP.Chemscore.Metal>
0.0000

> <Gold.Chemscore.Hbonds>
donor molecule, donor type, donor heavy atom, donor atom, acceptor molecule, acceptor atom, score
      L1  H    14    49       P1  7948  2.00
      P1  H  6931  6943       L1     8  0.96
      P1  H  6934  6947       L1     8  0.77

> <Gold.PLP.Chemscore.Internal.Correction>
0.0371

> <Gold.Rescore>
     Score         DG    S(hbond)    S(metal)    S(lipo)     H(rot)  DE(clash)    DE(int)     intcor
     15.06     -19.32       1.88        0.00      94.18       1.35       0.02       4.25       ----

> <Gold.Chemscore.Fitness>
15.0577

> <Gold.Chemscore.DG>
-19.3200

> <Gold.Chemscore.ZeroCoef>
-5.4800

> <Gold.Chemscore.Hbond>
1.8757

> <Gold.Chemscore.Metal>
0.0000

> <Gold.Chemscore.Lipo>
94.1835

> <Gold.Chemscore.Internal_Hbond>
0.0000

> <Gold.Chemscore.DEClash>
0.0158

> <Gold.Chemscore.DEInternal>
4.2465

> <Gold.Chemscore.Rot>
1.3455

> <Gold.Chemscore.Internal.Correction>
   9.000000E+99

> <Gold.Chemscore.Hbonds>
donor molecule, donor type, donor heavy atom, donor atom, acceptor molecule, acceptor atom, score
      L1  H    14    49       P1  7948  0.98
      P1  H  6931  6943       L1     8  0.24
      P1  H  6934  6947       L1     8  0.19

> <Gold.Chemscore.Hbond.Weighted>
-6.2650

> <Gold.Chemscore.Metal.Weighted>
-0.0000

> <Gold.Chemscore.Lipo.Weighted>
-11.0195

> <Gold.Chemscore.Internal_Hbond.Weighted>
0.0000

> <Gold.Chemscore.DEClash.Weighted>
0.0158

> <Gold.Chemscore.DEInternal.Weighted>
4.2465

> <Gold.Chemscore.Rot.Weighted>
3.4445

> <Gold.Chemscore.Internal.Correction.Weighted>
   9.000000E+99

> <Gold.Protein.RotatedTorsions>
[ 6907 6896 6895 6894 ] final  -51.63 input  -60.11 | X-H torsion
[ 7974 7965 7964 7962 ] final  122.21 input  175.53 | X-H torsion
[ 8008 7997 7996 7995 ] final  -43.35 input   59.86 | X-H torsion
[ 10167 10162 10161 10158 ] final -109.72 input  -65.29 | X-H torsion
[ 10718 10713 10712 10709 ] final  106.89 input   66.30 | X-H torsion
[ 10763 10752 10751 10750 ] final -155.92 input  -60.55 | X-H torsion
[ 11005 11000 10999 10996 ] final  162.45 input  -57.11 | X-H torsion

> <Gold.Protein.ActiveResidues>
 VAL166  LYS551  ARG553  GLY616  TRP617  ASP618  TYR619  PRO620  LYS621  CYS622 
 ASP623  PHE694  ASN695  SER759  ASP760  ASP761  ALA762  ILE779  LEU786  VAL792 
 PHE793  MET794  SER795  GLU796  ALA797  LYS798  CYS799  TRP800  GLU811  SER814 

> <Gold.Protein.RotatedAtoms>
  150.8593  134.7941  159.7070 H   0  0  0  0  0  0  0  0  0  0  0  0  # atno 6907 bound_to 6896
  152.4635  134.5126  159.9768 H   0  0  0  0  0  0  0  0  0  0  0  0  # atno 6908 bound_to 6896
  151.5232  133.3424  159.2940 H   0  0  0  0  0  0  0  0  0  0  0  0  # atno 6909 bound_to 6896
  145.1102  139.3458  143.4767 H   0  0  0  0  0  0  0  0  0  0  0  0  # atno 7974 bound_to 7965
  154.3997  140.1450  156.3504 H   0  0  0  0  0  0  0  0  0  0  0  0  # atno 8008 bound_to 7997
  155.8274  140.3467  155.5530 H   0  0  0  0  0  0  0  0  0  0  0  0  # atno 8009 bound_to 7997
  155.8224  140.0900  157.1831 H   0  0  0  0  0  0  0  0  0  0  0  0  # atno 8010 bound_to 7997
  140.1522  143.4189  152.1486 H   0  0  0  0  0  0  0  0  0  0  0  0  # atno 10167 bound_to 10162
  157.6650  131.0861  150.6074 H   0  0  0  0  0  0  0  0  0  0  0  0  # atno 10718 bound_to 10713
  154.7752  135.3157  154.8107 H   0  0  0  0  0  0  0  0  0  0  0  0  # atno 10763 bound_to 10752
  153.8833  135.6833  153.4769 H   0  0  0  0  0  0  0  0  0  0  0  0  # atno 10764 bound_to 10752
  153.1374  135.4754  154.9379 H   0  0  0  0  0  0  0  0  0  0  0  0  # atno 10765 bound_to 10752
  140.2259  134.8161  157.3268 H   0  0  0  0  0  0  0  0  0  0  0  0  # atno 11005 bound_to 11000
  146.3526  140.1017  142.8607 LP  0  0  0  0  0  0  0  0  0  0  0  0  # atno 17320 bound_to 7965
  145.0856  140.9250  143.4799 LP  0  0  0  0  0  0  0  0  0  0  0  0  # atno 17321 bound_to 7965
  139.5420  144.7265  151.4703 LP  0  0  0  0  0  0  0  0  0  0  0  0  # atno 17342 bound_to 10162
  140.6695  143.8325  150.6982 LP  0  0  0  0  0  0  0  0  0  0  0  0  # atno 17343 bound_to 10162
  156.6376  130.4449  149.5764 LP  0  0  0  0  0  0  0  0  0  0  0  0  # atno 17370 bound_to 10713
  156.2234  130.6751  151.1391 LP  0  0  0  0  0  0  0  0  0  0  0  0  # atno 17371 bound_to 10713
  140.1801  134.4500  155.7777 LP  0  0  0  0  0  0  0  0  0  0  0  0  # atno 17394 bound_to 11000
  141.2220  133.6980  156.7854 LP  0  0  0  0  0  0  0  0  0  0  0  0  # atno 17395 bound_to 11000

$$$$
