AV-unprocessed.smi:3181|AV-procd|sdf|12147|dock3
  -GOLD-   2272017583D 1   1.00000     0.00000
 Structure written by MMmdl.
 42 43  0  0  0  0  0  0  0  0  2 V2000
  149.5026  139.9334  157.5663 C   0  0  0  0  0  0  0  0  0  0  0  0
  149.8977  141.0495  156.5848 C   0  0  2  0  0  0  0  0  0  0  0  0
  151.2748  140.7937  155.9303 C   0  0  0  0  0  0  0  0  0  0  0  0
  151.4192  139.4386  155.4316 N   0  0  0  0  0  0  0  0  0  0  0  0
  152.4263  138.5710  155.5469 C   0  0  0  0  0  0  0  0  0  0  0  0
  152.2029  137.4106  154.9464 N   0  0  0  0  0  0  0  0  0  0  0  0
  150.9570  137.6510  154.4389 C   0  0  0  0  0  0  0  0  0  0  0  0
  150.4423  138.8529  154.7001 N   0  0  0  0  0  0  0  0  0  0  0  0
  149.8849  142.3496  157.2946 N   0  3  0  0  0  0  0  0  0  0  0  0
  151.1619  142.7720  157.9156 C   0  0  2  0  0  0  0  0  0  0  0  0
  151.5785  141.7494  158.9875 C   0  0  0  0  0  0  0  0  0  0  0  0
  152.8797  142.1682  159.6928 C   0  0  0  0  0  0  0  0  0  0  0  0
  152.7807  143.5749  160.3175 C   0  0  2  0  0  0  0  0  0  0  0  0
  151.8965  143.5751  161.5810 C   0  0  0  0  0  0  0  0  0  0  0  0
  152.3509  144.6045  159.2413 C   0  0  2  0  0  0  0  0  0  0  0  0
  152.2691  146.0444  159.7749 C   0  0  0  0  0  0  0  0  0  0  0  0
  151.0471  144.1820  158.5337 C   0  0  0  0  0  0  0  0  0  0  0  0
  149.4136  138.9698  157.0642 H   0  0  0  0  0  0  0  0  0  0  0  0
  148.5379  140.1431  158.0298 H   0  0  0  0  0  0  0  0  0  0  0  0
  150.2384  139.8263  158.3641 H   0  0  0  0  0  0  0  0  0  0  0  0
  149.1369  141.0717  155.8047 H   0  0  0  0  0  0  0  0  0  0  0  0
  151.4463  141.4729  155.0951 H   0  0  0  0  0  0  0  0  0  0  0  0
  152.0736  140.9803  156.6495 H   0  0  0  0  0  0  0  0  0  0  0  0
  153.3385  138.7900  156.0828 H   0  0  0  0  0  0  0  0  0  0  0  0
  150.4132  136.9187  153.8601 H   0  0  0  0  0  0  0  0  0  0  0  0
  149.6152  143.0699  156.6398 H   0  0  0  0  0  0  0  0  0  0  0  0
  151.9411  142.7854  157.1533 H   0  0  0  0  0  0  0  0  0  0  0  0
  150.7815  141.6324  159.7229 H   0  0  0  0  0  0  0  0  0  0  0  0
  151.7158  140.7688  158.5303 H   0  0  0  0  0  0  0  0  0  0  0  0
  153.1436  141.4336  160.4545 H   0  0  0  0  0  0  0  0  0  0  0  0
  153.6955  142.1547  158.9688 H   0  0  0  0  0  0  0  0  0  0  0  0
  153.7847  143.8462  160.6471 H   0  0  0  0  0  0  0  0  0  0  0  0
  150.8495  143.3785  161.3524 H   0  0  0  0  0  0  0  0  0  0  0  0
  151.9474  144.5300  162.1038 H   0  0  0  0  0  0  0  0  0  0  0  0
  152.2266  142.8115  162.2858 H   0  0  0  0  0  0  0  0  0  0  0  0
  153.1349  144.6078  158.4820 H   0  0  0  0  0  0  0  0  0  0  0  0
  151.4480  146.1685  160.4811 H   0  0  0  0  0  0  0  0  0  0  0  0
  152.1071  146.7521  158.9613 H   0  0  0  0  0  0  0  0  0  0  0  0
  153.1925  146.3309  160.2791 H   0  0  0  0  0  0  0  0  0  0  0  0
  150.8140  144.9132  157.7597 H   0  0  0  0  0  0  0  0  0  0  0  0
  150.2144  144.2132  159.2373 H   0  0  0  0  0  0  0  0  0  0  0  0
  149.1787  142.2972  158.0148 H   0  0  0  0  0  0  0  0  0  0  0  0
  1  2  1  0  0  0  0
  1 18  1  0  0  0  0
  1 19  1  0  0  0  0
  1 20  1  0  0  0  0
  2  3  1  0  0  0  0
  2  9  1  0  0  0  0
  2 21  1  0  0  0  0
  3  4  1  0  0  0  0
  3 22  1  0  0  0  0
  3 23  1  0  0  0  0
  4  8  1  0  0  0  0
  4  5  1  0  0  0  0
  5  6  2  0  0  0  0
  5 24  1  0  0  0  0
  6  7  1  0  0  0  0
  7  8  2  0  0  0  0
  7 25  1  0  0  0  0
  9 10  1  0  0  0  0
  9 26  1  0  0  0  0
  9 42  1  0  0  0  0
 10 17  1  0  0  0  0
 10 11  1  0  0  0  0
 10 27  1  0  0  0  0
 11 12  1  0  0  0  0
 11 28  1  0  0  0  0
 11 29  1  0  0  0  0
 12 13  1  0  0  0  0
 12 30  1  0  0  0  0
 12 31  1  0  0  0  0
 13 14  1  0  0  0  0
 13 15  1  0  0  0  0
 13 32  1  0  0  0  0
 14 33  1  0  0  0  0
 14 34  1  0  0  0  0
 14 35  1  0  0  0  0
 15 16  1  0  0  0  0
 15 17  1  0  0  0  0
 15 36  1  0  0  0  0
 16 37  1  0  0  0  0
 16 38  1  0  0  0  0
 16 39  1  0  0  0  0
 17 40  1  0  0  0  0
 17 41  1  0  0  0  0
M  CHG  1   9   1
M  END
> <s_m_source_file>
AV-unprocessed.smi

> <i_m_source_file_index>
3181

> <i_lp_mmshare_version>
43012

> <i_f3d_flags>
0

> <s_epik_input>
bjFbY0hdbltjSF1uMVtDSDJdW0NAQEhdKFtDSDNdKVtOSF1bQ0BASF0yW0NIMl1bQ0gyXVtDQEBIXShbQ0gzXSlbQ0BASF0oW0NIM10pW0NIMl0y

> <s_epik_cmdline>
J2VwaWtfcHl0aG9uJywgJy1waCcsICc3LjAnLCAnLXRuJywgJzgnLCAnLW1hJywgJzIwMCcsICctbWV0YWxfYmluZGluZycsICctaW1hZScsICc8aW5maWxlLm1hZT4nLCAnLW9tYWUnLCAnPG91dGZpbGUubWFlPic=

> <r_lp_tautomer_probability>
1

> <r_epik_Ionization_Penalty>
0.000617007

> <r_epik_Ionization_Penalty_Charging>
0.000616215

> <r_epik_Ionization_Penalty_Neutral>
7.92544e-07

> <r_epik_State_Penalty>
0.000388807

> <r_epik_Charging_Adjusted_Penalty>
0.00100502

> <i_epik_Tot_Q>
1

> <i_epik_Tot_abs_Q>
1

> <r_epik_Metal_State_Penalty>
-0

> <b_epik_Metal_Only>
0

> <s_lp_Force_Field>
OPLS_2005

> <r_lp_Energy>
20.1212

> <b_lp_Chiralities_Consistent>
1

> <s_lp_Variant>
AV-unprocessed.smi:3181-13

> <Gold.Version>
5.8.1

> <Gold.Id.Protein>
6NUR|6NUR_protein|mol2

> <Gold.PLP.Fitness>
49.7820

> <Gold.PLP.PLP>
-39.7135

> <Gold.PLP.part.hbond>
-2.0000

> <Gold.PLP.part.metal>
0.0000

> <Gold.PLP.part.buried>
-2.9878

> <Gold.PLP.part.nonpolar>
-34.6364

> <Gold.PLP.part.repulsive>
0.2530

> <Gold.PLP.ligand.clash>
0.0000

> <Gold.PLP.ligand.torsion>
0.5986

> <Gold.PLP.Chemscore.Hbond>
2.6115

> <Gold.PLP.Chemscore.CHOScore>
1.1340

> <Gold.PLP.Chemscore.Metal>
0.0000

> <Gold.Chemscore.Hbonds>
donor molecule, donor type, donor heavy atom, donor atom, acceptor molecule, acceptor atom, score
      L1  H     9    26       P1  8028  1.89
      P1  H 10752 10763       L1     6  0.75
      L1  C     7    25       P1  7948  0.75
      L1  C     7    25       P1  7949  0.28

> <Gold.PLP.Chemscore.Internal.Correction>
0.0290

> <Gold.Rescore>
     Score         DG    S(hbond)    S(metal)    S(lipo)     H(rot)  DE(clash)    DE(int)     intcor
     16.26     -18.34       1.83        0.00     103.81       2.11       1.60       0.49       ----

> <Gold.Chemscore.Fitness>
16.2595

> <Gold.Chemscore.DG>
-18.3450

> <Gold.Chemscore.ZeroCoef>
-5.4800

> <Gold.Chemscore.Hbond>
1.8321

> <Gold.Chemscore.Metal>
0.0000

> <Gold.Chemscore.Lipo>
103.8117

> <Gold.Chemscore.Internal_Hbond>
0.0000

> <Gold.Chemscore.DEClash>
1.5998

> <Gold.Chemscore.DEInternal>
0.4857

> <Gold.Chemscore.Rot>
2.1095

> <Gold.Chemscore.Internal.Correction>
   9.000000E+99

> <Gold.Chemscore.Hbonds>
donor molecule, donor type, donor heavy atom, donor atom, acceptor molecule, acceptor atom, score
      L1  H     9    26       P1  8028  0.90
      P1  H 10752 10763       L1     6  0.67

> <Gold.Chemscore.Hbond.Weighted>
-6.1193

> <Gold.Chemscore.Metal.Weighted>
-0.0000

> <Gold.Chemscore.Lipo.Weighted>
-12.1460

> <Gold.Chemscore.Internal_Hbond.Weighted>
0.0000

> <Gold.Chemscore.DEClash.Weighted>
1.5998

> <Gold.Chemscore.DEInternal.Weighted>
0.4857

> <Gold.Chemscore.Rot.Weighted>
5.4003

> <Gold.Chemscore.Internal.Correction.Weighted>
   9.000000E+99

> <Gold.Protein.RotatedTorsions>
[ 6907 6896 6895 6894 ] final  -95.40 input  -60.11 | X-H torsion
[ 7974 7965 7964 7962 ] final  -81.12 input  175.53 | X-H torsion
[ 8008 7997 7996 7995 ] final   51.90 input   59.86 | X-H torsion
[ 10167 10162 10161 10158 ] final  -72.55 input  -65.29 | X-H torsion
[ 10718 10713 10712 10709 ] final   75.44 input   66.30 | X-H torsion
[ 10763 10752 10751 10750 ] final   54.39 input  -60.55 | X-H torsion
[ 11005 11000 10999 10996 ] final  -52.04 input  -57.11 | X-H torsion

> <Gold.Protein.ActiveResidues>
 VAL166  LYS551  ARG553  GLY616  TRP617  ASP618  TYR619  PRO620  LYS621  CYS622 
 ASP623  PHE694  ASN695  SER759  ASP760  ASP761  ALA762  ILE779  LEU786  VAL792 
 PHE793  MET794  SER795  GLU796  ALA797  LYS798  CYS799  TRP800  GLU811  SER814 

> <Gold.Protein.RotatedAtoms>
  150.6963  134.1663  159.4195 H   0  0  0  0  0  0  0  0  0  0  0  0  # atno 6907 bound_to 6896
  151.9642  135.0106  160.0558 H   0  0  0  0  0  0  0  0  0  0  0  0  # atno 6908 bound_to 6896
  152.1899  133.4731  159.5039 H   0  0  0  0  0  0  0  0  0  0  0  0  # atno 6909 bound_to 6896
  145.5509  140.9497  143.1500 H   0  0  0  0  0  0  0  0  0  0  0  0  # atno 7974 bound_to 7965
  155.4430  140.3455  155.4292 H   0  0  0  0  0  0  0  0  0  0  0  0  # atno 8008 bound_to 7997
  156.1267  140.1502  156.9156 H   0  0  0  0  0  0  0  0  0  0  0  0  # atno 8009 bound_to 7997
  154.4863  140.0854  156.7474 H   0  0  0  0  0  0  0  0  0  0  0  0  # atno 8010 bound_to 7997
  140.5183  143.2335  151.7474 H   0  0  0  0  0  0  0  0  0  0  0  0  # atno 10167 bound_to 10162
  157.6634  130.9726  150.1353 H   0  0  0  0  0  0  0  0  0  0  0  0  # atno 10718 bound_to 10713
  152.9804  135.5746  154.4896 H   0  0  0  0  0  0  0  0  0  0  0  0  # atno 10763 bound_to 10752
  154.4432  135.2776  155.1835 H   0  0  0  0  0  0  0  0  0  0  0  0  # atno 10764 bound_to 10752
  154.3494  135.6212  153.5689 H   0  0  0  0  0  0  0  0  0  0  0  0  # atno 10765 bound_to 10752
  141.0903  133.6634  156.3965 H   0  0  0  0  0  0  0  0  0  0  0  0  # atno 11005 bound_to 11000
  144.7530  139.7146  143.7265 LP  0  0  0  0  0  0  0  0  0  0  0  0  # atno 17320 bound_to 7965
  146.1917  139.5162  142.9800 LP  0  0  0  0  0  0  0  0  0  0  0  0  # atno 17321 bound_to 7965
  139.4916  144.4291  151.9892 LP  0  0  0  0  0  0  0  0  0  0  0  0  # atno 17342 bound_to 10162
  140.3387  144.3230  150.5972 LP  0  0  0  0  0  0  0  0  0  0  0  0  # atno 17343 bound_to 10162
  156.2189  130.3672  149.8579 LP  0  0  0  0  0  0  0  0  0  0  0  0  # atno 17370 bound_to 10713
  156.6437  130.8715  151.3519 LP  0  0  0  0  0  0  0  0  0  0  0  0  # atno 17371 bound_to 10713
  140.5267  134.6251  157.5336 LP  0  0  0  0  0  0  0  0  0  0  0  0  # atno 17394 bound_to 11000
  139.9728  134.7265  156.0008 LP  0  0  0  0  0  0  0  0  0  0  0  0  # atno 17395 bound_to 11000

$$$$
