AV-unprocessed.smi:1738|AV-procd|sdf|7004|dock1
  -GOLD-   22720 8213D 1   1.00000     0.00000
 Structure written by MMmdl.
 46 48  0  0  0  0  0  0  0  0  2 V2000
  154.2747  130.9699  157.3178 C   0  0  0  0  0  0  0  0  0  0  0  0
  152.8343  131.5399  158.3089 S   0  0  0  0  0  0  0  0  0  0  0  0
  152.2383  130.3613  158.9573 O   0  0  0  0  0  0  0  0  0  0  0  0
  153.2625  132.6824  159.1310 O   0  0  0  0  0  0  0  0  0  0  0  0
  151.6858  132.1466  157.0782 C   0  0  0  0  0  0  0  0  0  0  0  0
  150.9804  131.2470  156.2546 C   0  0  0  0  0  0  0  0  0  0  0  0
  150.1201  131.7778  155.2743 C   0  0  0  0  0  0  0  0  0  0  0  0
  150.0105  133.1854  155.1461 C   0  0  0  0  0  0  0  0  0  0  0  0
  149.1786  133.8574  154.2074 N   0  0  0  0  0  0  0  0  0  0  0  0
  147.9397  133.5478  153.7865 C   0  0  0  0  0  0  0  0  0  0  0  0
  147.2818  132.5728  154.1466 O   0  0  0  0  0  0  0  0  0  0  0  0
  147.4942  134.4459  152.8961 N   0  0  0  0  0  0  0  0  0  0  0  0
  146.1808  134.4184  152.2578 C   0  0  1  0  0  0  0  0  0  0  0  0
  145.6925  135.7997  151.8379 C   0  0  0  0  0  0  0  0  0  0  0  0
  144.6101  135.4624  150.8113 C   0  0  0  0  0  0  0  0  0  0  0  0
  145.0624  134.2262  150.1321 N   0  3  2  0  0  0  0  0  0  0  0  0
  143.9701  133.2913  149.7674 C   0  0  0  0  0  0  0  0  0  0  0  0
  144.5308  132.0532  149.0434 C   0  0  0  0  0  0  0  0  0  0  0  0
  145.7215  131.4072  149.7823 C   0  0  0  0  0  0  0  0  0  0  0  0
  146.0325  132.1050  151.1154 C   0  0  0  0  0  0  0  0  0  0  0  0
  146.1712  133.6340  150.9342 C   0  0  2  0  0  0  0  0  0  0  0  0
  150.7742  133.9853  156.0239 C   0  0  0  0  0  0  0  0  0  0  0  0
  151.6024  133.4889  156.9665 N   0  0  0  0  0  0  0  0  0  0  0  0
  155.0413  130.5767  157.9851 H   0  0  0  0  0  0  0  0  0  0  0  0
  154.6815  131.8079  156.7520 H   0  0  0  0  0  0  0  0  0  0  0  0
  153.9560  130.1876  156.6291 H   0  0  0  0  0  0  0  0  0  0  0  0
  151.0883  130.1786  156.3677 H   0  0  0  0  0  0  0  0  0  0  0  0
  149.5686  131.0910  154.6533 H   0  0  0  0  0  0  0  0  0  0  0  0
  149.5899  134.6792  153.7893 H   0  0  0  0  0  0  0  0  0  0  0  0
  148.1020  135.2153  152.6550 H   0  0  0  0  0  0  0  0  0  0  0  0
  145.4393  133.9979  152.9408 H   0  0  0  0  0  0  0  0  0  0  0  0
  145.3135  136.3901  152.6729 H   0  0  0  0  0  0  0  0  0  0  0  0
  146.4971  136.3617  151.3606 H   0  0  0  0  0  0  0  0  0  0  0  0
  143.6681  135.2794  151.3311 H   0  0  0  0  0  0  0  0  0  0  0  0
  144.4444  136.2705  150.0983 H   0  0  0  0  0  0  0  0  0  0  0  0
  143.4308  132.9883  150.6665 H   0  0  0  0  0  0  0  0  0  0  0  0
  143.2502  133.8035  149.1279 H   0  0  0  0  0  0  0  0  0  0  0  0
  143.7337  131.3208  148.9106 H   0  0  0  0  0  0  0  0  0  0  0  0
  144.8473  132.3358  148.0386 H   0  0  0  0  0  0  0  0  0  0  0  0
  145.5270  130.3481  149.9546 H   0  0  0  0  0  0  0  0  0  0  0  0
  146.6045  131.4515  149.1436 H   0  0  0  0  0  0  0  0  0  0  0  0
  145.2397  131.8819  151.8309 H   0  0  0  0  0  0  0  0  0  0  0  0
  146.9472  131.6926  151.5415 H   0  0  0  0  0  0  0  0  0  0  0  0
  147.0881  133.8450  150.3813 H   0  0  0  0  0  0  0  0  0  0  0  0
  150.7237  135.0630  155.9658 H   0  0  0  0  0  0  0  0  0  0  0  0
  145.4861  134.5150  149.2617 H   0  0  0  0  0  0  0  0  0  0  0  0
  1  2  1  0  0  0  0
  1 24  1  0  0  0  0
  1 25  1  0  0  0  0
  1 26  1  0  0  0  0
  2  3  2  0  0  0  0
  2  4  2  0  0  0  0
  2  5  1  0  0  0  0
  5 23  1  0  0  0  0
  5  6  2  0  0  0  0
  6  7  1  0  0  0  0
  6 27  1  0  0  0  0
  7  8  2  0  0  0  0
  7 28  1  0  0  0  0
  8  9  1  0  0  0  0
  8 22  1  0  0  0  0
  9 10  1  0  0  0  0
  9 29  1  0  0  0  0
 10 11  2  0  0  0  0
 10 12  1  0  0  0  0
 12 13  1  0  0  0  0
 12 30  1  0  0  0  0
 13 21  1  0  0  0  0
 13 14  1  0  0  0  0
 13 31  1  0  0  0  0
 14 15  1  0  0  0  0
 14 32  1  0  0  0  0
 14 33  1  0  0  0  0
 15 16  1  0  0  0  0
 15 34  1  0  0  0  0
 15 35  1  0  0  0  0
 16 21  1  0  0  0  0
 16 17  1  0  0  0  0
 16 46  1  0  0  0  0
 17 18  1  0  0  0  0
 17 36  1  0  0  0  0
 17 37  1  0  0  0  0
 18 19  1  0  0  0  0
 18 38  1  0  0  0  0
 18 39  1  0  0  0  0
 19 20  1  0  0  0  0
 19 40  1  0  0  0  0
 19 41  1  0  0  0  0
 20 21  1  0  0  0  0
 20 42  1  0  0  0  0
 20 43  1  0  0  0  0
 21 44  1  0  0  0  0
 22 23  2  0  0  0  0
 22 45  1  0  0  0  0
M  CHG  1  16   1
M  END
> <s_m_source_file>
AV-unprocessed.smi

> <i_m_source_file_index>
1738

> <i_lp_mmshare_version>
43012

> <i_f3d_flags>
0

> <s_epik_input>
W0NIM11TKD1PKSg9TyljMVtjSF1bY0hdYyhbY0hdbjEpW05IXUMoPU8pW05IXVtDQEhdKFtDSDJdW0NIMl0yKVtDQEBIXShOMjMpW0NIMl1bQ0gyXVtDSDJdW0NIMl0z

> <s_epik_cmdline>
J2VwaWtfcHl0aG9uJywgJy1waCcsICc3LjAnLCAnLXRuJywgJzgnLCAnLW1hJywgJzIwMCcsICctbWV0YWxfYmluZGluZycsICctaW1hZScsICc8aW5maWxlLm1hZT4nLCAnLW9tYWUnLCAnPG91dGZpbGUubWFlPic=

> <r_epik_Ionization_Penalty>
0.00100042

> <r_epik_Ionization_Penalty_Charging>
0.000974069

> <r_epik_Ionization_Penalty_Neutral>
2.63543e-05

> <r_epik_State_Penalty>
0.000633842

> <r_epik_Charging_Adjusted_Penalty>
0.00160791

> <i_epik_Tot_Q>
1

> <i_epik_Tot_abs_Q>
1

> <r_epik_Metal_State_Penalty>
-0

> <b_epik_Metal_Only>
0

> <s_lp_Force_Field>
OPLS_2005

> <r_lp_Energy>
42.7986

> <b_lp_Chiralities_Consistent>
1

> <s_lp_Variant>
AV-unprocessed.smi:1738-8

> <Gold.Version>
5.8.1

> <Gold.Id.Protein>
6NUR|6NUR_protein|mol2

> <Gold.PLP.Fitness>
44.0814

> <Gold.PLP.PLP>
-36.4315

> <Gold.PLP.part.hbond>
-3.4218

> <Gold.PLP.part.metal>
0.0000

> <Gold.PLP.part.buried>
-1.2285

> <Gold.PLP.part.nonpolar>
-30.6923

> <Gold.PLP.part.repulsive>
0.1395

> <Gold.PLP.ligand.clash>
0.0000

> <Gold.PLP.ligand.torsion>
1.6898

> <Gold.PLP.Chemscore.Hbond>
3.0000

> <Gold.PLP.Chemscore.CHOScore>
0.0000

> <Gold.PLP.Chemscore.Metal>
0.0000

> <Gold.Chemscore.Hbonds>
donor molecule, donor type, donor heavy atom, donor atom, acceptor molecule, acceptor atom, score
      L1  H    12    30       P1  7948  0.96
      L1  H    16    46       P1  7921  1.00
      P1  H  6896  6907       L1     4  0.50

> <Gold.PLP.Chemscore.Internal.Correction>
2.0294

> <Gold.Rescore>
     Score         DG    S(hbond)    S(metal)    S(lipo)     H(rot)  DE(clash)    DE(int)     intcor
     21.74     -23.58       2.95        0.00      92.44       1.00       0.17       1.67       ----

> <Gold.Chemscore.Fitness>
21.7445

> <Gold.Chemscore.DG>
-23.5847

> <Gold.Chemscore.ZeroCoef>
-5.4800

> <Gold.Chemscore.Hbond>
2.9490

> <Gold.Chemscore.Metal>
0.0000

> <Gold.Chemscore.Lipo>
92.4358

> <Gold.Chemscore.Internal_Hbond>
0.0000

> <Gold.Chemscore.DEClash>
0.1676

> <Gold.Chemscore.DEInternal>
1.6726

> <Gold.Chemscore.Rot>
1.0000

> <Gold.Chemscore.Internal.Correction>
   9.000000E+99

> <Gold.Chemscore.Hbonds>
donor molecule, donor type, donor heavy atom, donor atom, acceptor molecule, acceptor atom, score
      L1  H    12    30       P1  7948  0.88
      L1  H    16    46       P1  7921  0.97
      P1  H  6896  6907       L1     4  0.35

> <Gold.Chemscore.Hbond.Weighted>
-9.8498

> <Gold.Chemscore.Metal.Weighted>
-0.0000

> <Gold.Chemscore.Lipo.Weighted>
-10.8150

> <Gold.Chemscore.Internal_Hbond.Weighted>
0.0000

> <Gold.Chemscore.DEClash.Weighted>
0.1676

> <Gold.Chemscore.DEInternal.Weighted>
1.6726

> <Gold.Chemscore.Rot.Weighted>
2.5600

> <Gold.Chemscore.Internal.Correction.Weighted>
   9.000000E+99

> <Gold.Protein.RotatedTorsions>
[ 6907 6896 6895 6894 ] final  148.76 input  -60.11 | X-H torsion
[ 7974 7965 7964 7962 ] final  130.30 input  175.53 | X-H torsion
[ 8008 7997 7996 7995 ] final  147.24 input   59.86 | X-H torsion
[ 10167 10162 10161 10158 ] final   55.63 input  -65.29 | X-H torsion
[ 10718 10713 10712 10709 ] final  -44.67 input   66.30 | X-H torsion
[ 10763 10752 10751 10750 ] final  167.86 input  -60.55 | X-H torsion
[ 11005 11000 10999 10996 ] final  -83.98 input  -57.11 | X-H torsion

> <Gold.Protein.ActiveResidues>
 VAL166  LYS551  ARG553  GLY616  TRP617  ASP618  TYR619  PRO620  LYS621  CYS622 
 ASP623  PHE694  ASN695  SER759  ASP760  ASP761  ALA762  ILE779  LEU786  VAL792 
 PHE793  MET794  SER795  GLU796  ALA797  LYS798  CYS799  TRP800  GLU811  SER814 

> <Gold.Protein.RotatedAtoms>
  152.1371  133.4442  159.4748 H   0  0  0  0  0  0  0  0  0  0  0  0  # atno 6907 bound_to 6896
  150.6883  134.2350  159.4459 H   0  0  0  0  0  0  0  0  0  0  0  0  # atno 6908 bound_to 6896
  152.0238  134.9807  160.0622 H   0  0  0  0  0  0  0  0  0  0  0  0  # atno 6909 bound_to 6896
  145.0194  139.4146  143.5205 H   0  0  0  0  0  0  0  0  0  0  0  0  # atno 7974 bound_to 7965
  156.2831  140.2161  156.5506 H   0  0  0  0  0  0  0  0  0  0  0  0  # atno 8008 bound_to 7997
  154.7294  140.0496  157.0735 H   0  0  0  0  0  0  0  0  0  0  0  0  # atno 8009 bound_to 7997
  155.0373  140.3142  155.4740 H   0  0  0  0  0  0  0  0  0  0  0  0  # atno 8010 bound_to 7997
  140.2173  144.3825  150.6464 H   0  0  0  0  0  0  0  0  0  0  0  0  # atno 10167 bound_to 10162
  156.2362  130.4176  149.8815 H   0  0  0  0  0  0  0  0  0  0  0  0  # atno 10718 bound_to 10713
  154.3601  135.2753  155.2324 H   0  0  0  0  0  0  0  0  0  0  0  0  # atno 10763 bound_to 10752
  154.4516  135.5929  153.6199 H   0  0  0  0  0  0  0  0  0  0  0  0  # atno 10764 bound_to 10752
  152.9844  135.6043  154.3821 H   0  0  0  0  0  0  0  0  0  0  0  0  # atno 10765 bound_to 10752
  141.1654  133.7322  156.8800 H   0  0  0  0  0  0  0  0  0  0  0  0  # atno 11005 bound_to 11000
  146.3483  139.9683  142.8709 LP  0  0  0  0  0  0  0  0  0  0  0  0  # atno 17320 bound_to 7965
  145.1916  140.9814  143.4208 LP  0  0  0  0  0  0  0  0  0  0  0  0  # atno 17321 bound_to 7965
  140.6280  143.2184  151.6555 LP  0  0  0  0  0  0  0  0  0  0  0  0  # atno 17342 bound_to 10162
  139.5157  144.3370  152.0775 LP  0  0  0  0  0  0  0  0  0  0  0  0  # atno 17343 bound_to 10162
  156.6413  130.8706  151.3514 LP  0  0  0  0  0  0  0  0  0  0  0  0  # atno 17370 bound_to 10713
  157.7155  130.9492  150.1240 LP  0  0  0  0  0  0  0  0  0  0  0  0  # atno 17371 bound_to 10713
  140.1722  134.9092  157.2847 LP  0  0  0  0  0  0  0  0  0  0  0  0  # atno 17394 bound_to 11000
  140.2489  134.3706  155.7450 LP  0  0  0  0  0  0  0  0  0  0  0  0  # atno 17395 bound_to 11000

$$$$
