AV-unprocessed.smi:1211|AV-procd|sdf|5081|dock10
  -GOLD-   22720 4133D 1   1.00000     0.00000
 Structure written by MMmdl.
 48 50  0  0  0  0  0  0  0  0  2 V2000
  145.3803  135.6422  150.9867 C   0  0  0  0  0  0  0  0  0  0  0  0
  145.3965  134.1230  150.9278 C   0  0  0  0  0  0  0  0  0  0  0  0
  144.4351  133.4522  150.1421 C   0  0  0  0  0  0  0  0  0  0  0  0
  144.4507  132.0479  150.0897 C   0  0  0  0  0  0  0  0  0  0  0  0
  145.4338  131.3690  150.8296 C   0  0  0  0  0  0  0  0  0  0  0  0
  146.3567  132.0019  151.5823 N   0  0  0  0  0  0  0  0  0  0  0  0
  146.3541  133.3572  151.6456 C   0  0  0  0  0  0  0  0  0  0  0  0
  147.2976  134.0914  152.4185 N   0  0  0  0  0  0  0  0  0  0  0  0
  147.7298  133.8414  153.6670 C   0  0  0  0  0  0  0  0  0  0  0  0
  147.3495  132.9147  154.3821 O   0  0  0  0  0  0  0  0  0  0  0  0
  148.6475  134.7406  154.0507 N   0  0  0  0  0  0  0  0  0  0  0  0
  149.3101  134.7713  155.3545 C   0  0  0  0  0  0  0  0  0  0  0  0
  149.1011  136.1120  156.1301 C   0  0  2  0  0  0  0  0  0  0  0  0
  149.7113  137.2362  155.3273 N   0  3  0  0  0  0  0  0  0  0  0  0
  149.2939  138.5987  155.7634 C   0  0  0  0  0  0  0  0  0  0  0  0
  149.8020  139.6678  154.7851 C   0  0  0  0  0  0  0  0  0  0  0  0
  151.2176  139.5950  154.7113 O   0  0  0  0  0  0  0  0  0  0  0  0
  151.6469  138.3427  154.1980 C   0  0  0  0  0  0  0  0  0  0  0  0
  151.1865  137.1992  155.1199 C   0  0  0  0  0  0  0  0  0  0  0  0
  149.6836  135.9932  157.5671 C   0  0  0  0  0  0  0  0  0  0  0  0
  148.7993  135.0386  158.3746 C   0  0  0  0  0  0  0  0  0  0  0  0
  147.1010  135.2850  157.8008 S   0  0  0  0  0  0  0  0  0  0  0  0
  147.5926  136.3256  156.3977 C   0  0  0  0  0  0  0  0  0  0  0  0
  144.5813  136.0553  150.3702 H   0  0  0  0  0  0  0  0  0  0  0  0
  146.3256  136.0486  150.6261 H   0  0  0  0  0  0  0  0  0  0  0  0
  145.2231  135.9825  152.0107 H   0  0  0  0  0  0  0  0  0  0  0  0
  143.6923  134.0044  149.5852 H   0  0  0  0  0  0  0  0  0  0  0  0
  143.7281  131.5051  149.4985 H   0  0  0  0  0  0  0  0  0  0  0  0
  145.4814  130.2900  150.8174 H   0  0  0  0  0  0  0  0  0  0  0  0
  147.6893  134.9012  151.9616 H   0  0  0  0  0  0  0  0  0  0  0  0
  148.8836  135.4785  153.4037 H   0  0  0  0  0  0  0  0  0  0  0  0
  148.9060  133.9375  155.9270 H   0  0  0  0  0  0  0  0  0  0  0  0
  150.3656  134.5228  155.2450 H   0  0  0  0  0  0  0  0  0  0  0  0
  148.2101  138.6755  155.8277 H   0  0  0  0  0  0  0  0  0  0  0  0
  149.6883  138.8130  156.7575 H   0  0  0  0  0  0  0  0  0  0  0  0
  149.3593  139.5387  153.7960 H   0  0  0  0  0  0  0  0  0  0  0  0
  149.5187  140.6612  155.1340 H   0  0  0  0  0  0  0  0  0  0  0  0
  151.2619  138.2028  153.1865 H   0  0  0  0  0  0  0  0  0  0  0  0
  152.7345  138.3472  154.1233 H   0  0  0  0  0  0  0  0  0  0  0  0
  151.7006  137.2592  156.0799 H   0  0  0  0  0  0  0  0  0  0  0  0
  151.4898  136.2719  154.6364 H   0  0  0  0  0  0  0  0  0  0  0  0
  150.7313  135.6952  157.5839 H   0  0  0  0  0  0  0  0  0  0  0  0
  149.6214  136.9448  158.0933 H   0  0  0  0  0  0  0  0  0  0  0  0
  149.0855  134.0008  158.2037 H   0  0  0  0  0  0  0  0  0  0  0  0
  148.8755  135.2237  159.4463 H   0  0  0  0  0  0  0  0  0  0  0  0
  147.3966  137.3593  156.6839 H   0  0  0  0  0  0  0  0  0  0  0  0
  146.9711  136.1065  155.5290 H   0  0  0  0  0  0  0  0  0  0  0  0
  149.3272  137.1181  154.4007 H   0  0  0  0  0  0  0  0  0  0  0  0
  1  2  1  0  0  0  0
  1 24  1  0  0  0  0
  1 25  1  0  0  0  0
  1 26  1  0  0  0  0
  2  7  1  0  0  0  0
  2  3  2  0  0  0  0
  3  4  1  0  0  0  0
  3 27  1  0  0  0  0
  4  5  2  0  0  0  0
  4 28  1  0  0  0  0
  5  6  1  0  0  0  0
  5 29  1  0  0  0  0
  6  7  2  0  0  0  0
  7  8  1  0  0  0  0
  8  9  1  0  0  0  0
  8 30  1  0  0  0  0
  9 10  2  0  0  0  0
  9 11  1  0  0  0  0
 11 12  1  0  0  0  0
 11 31  1  0  0  0  0
 12 13  1  0  0  0  0
 12 32  1  0  0  0  0
 12 33  1  0  0  0  0
 13 23  1  0  0  0  0
 13 14  1  0  0  0  0
 13 20  1  0  0  0  0
 14 19  1  0  0  0  0
 14 15  1  0  0  0  0
 14 48  1  0  0  0  0
 15 16  1  0  0  0  0
 15 34  1  0  0  0  0
 15 35  1  0  0  0  0
 16 17  1  0  0  0  0
 16 36  1  0  0  0  0
 16 37  1  0  0  0  0
 17 18  1  0  0  0  0
 18 19  1  0  0  0  0
 18 38  1  0  0  0  0
 18 39  1  0  0  0  0
 19 40  1  0  0  0  0
 19 41  1  0  0  0  0
 20 21  1  0  0  0  0
 20 42  1  0  0  0  0
 20 43  1  0  0  0  0
 21 22  1  0  0  0  0
 21 44  1  0  0  0  0
 21 45  1  0  0  0  0
 22 23  1  0  0  0  0
 23 46  1  0  0  0  0
 23 47  1  0  0  0  0
M  CHG  1  14   1
M  END
> <s_m_source_file>
AV-unprocessed.smi

> <i_m_source_file_index>
1211

> <i_lp_mmshare_version>
43012

> <i_f3d_flags>
0

> <s_epik_input>
W0NIM11jMVtjSF1bY0hdW2NIXW5jMVtOSF1DKD1PKVtOSF1bQ0gyXVtDQF0yKFtDSDJdW0NIMl1TW0NIMl0yKU4zW0NIMl1bQ0gyXU9bQ0gyXVtDSDJdMw==

> <s_epik_cmdline>
J2VwaWtfcHl0aG9uJywgJy1waCcsICc3LjAnLCAnLXRuJywgJzgnLCAnLW1hJywgJzIwMCcsICctbWV0YWxfYmluZGluZycsICctaW1hZScsICc8aW5maWxlLm1hZT4nLCAnLW9tYWUnLCAnPG91dGZpbGUubWFlPic=

> <r_epik_Ionization_Penalty>
2.03223

> <r_epik_Ionization_Penalty_Charging>
2.03219

> <r_epik_Ionization_Penalty_Neutral>
4.05816e-05

> <r_epik_State_Penalty>
2.16328

> <r_epik_Charging_Adjusted_Penalty>
4.19546

> <i_epik_Tot_Q>
1

> <i_epik_Tot_abs_Q>
1

> <r_epik_Metal_State_Penalty>
2.16328

> <b_epik_Metal_Only>
0

> <s_lp_Force_Field>
OPLS_2005

> <r_lp_Energy>
45.9337

> <b_lp_Chiralities_Consistent>
1

> <s_lp_Variant>
AV-unprocessed.smi:1211-4

> <Gold.Version>
5.8.1

> <Gold.Id.Protein>
6NUR|6NUR_protein|mol2

> <Gold.PLP.Fitness>
41.2351

> <Gold.PLP.PLP>
-33.1826

> <Gold.PLP.part.hbond>
-3.0000

> <Gold.PLP.part.metal>
0.0000

> <Gold.PLP.part.buried>
-6.9550

> <Gold.PLP.part.nonpolar>
-23.7587

> <Gold.PLP.part.repulsive>
0.2440

> <Gold.PLP.ligand.clash>
0.0000

> <Gold.PLP.ligand.torsion>
0.5362

> <Gold.PLP.Chemscore.Hbond>
3.0000

> <Gold.PLP.Chemscore.CHOScore>
0.0000

> <Gold.PLP.Chemscore.Metal>
0.0000

> <Gold.Chemscore.Hbonds>
donor molecule, donor type, donor heavy atom, donor atom, acceptor molecule, acceptor atom, score
      L1  H     8    30       P1  7948  1.00
      L1  H    11    31       P1  7948  1.00
      P1  H  7989  7998       L1    17  1.00

> <Gold.PLP.Chemscore.Internal.Correction>
0.1249

> <Gold.Rescore>
     Score         DG    S(hbond)    S(metal)    S(lipo)     H(rot)  DE(clash)    DE(int)     intcor
     17.31     -17.90       2.20        0.00      75.60       1.48       0.01       0.57       ----

> <Gold.Chemscore.Fitness>
17.3130

> <Gold.Chemscore.DG>
-17.8957

> <Gold.Chemscore.ZeroCoef>
-5.4800

> <Gold.Chemscore.Hbond>
2.2049

> <Gold.Chemscore.Metal>
0.0000

> <Gold.Chemscore.Lipo>
75.6015

> <Gold.Chemscore.Internal_Hbond>
0.0000

> <Gold.Chemscore.DEClash>
0.0126

> <Gold.Chemscore.DEInternal>
0.5701

> <Gold.Chemscore.Rot>
1.4820

> <Gold.Chemscore.Internal.Correction>
   9.000000E+99

> <Gold.Chemscore.Hbonds>
donor molecule, donor type, donor heavy atom, donor atom, acceptor molecule, acceptor atom, score
      L1  H     8    30       P1  7948  0.67
      L1  H    11    31       P1  7948  0.80
      P1  H  7989  7998       L1    17  0.27

> <Gold.Chemscore.Hbond.Weighted>
-7.3642

> <Gold.Chemscore.Metal.Weighted>
-0.0000

> <Gold.Chemscore.Lipo.Weighted>
-8.8454

> <Gold.Chemscore.Internal_Hbond.Weighted>
0.0000

> <Gold.Chemscore.DEClash.Weighted>
0.0126

> <Gold.Chemscore.DEInternal.Weighted>
0.5701

> <Gold.Chemscore.Rot.Weighted>
3.7939

> <Gold.Chemscore.Internal.Correction.Weighted>
   9.000000E+99

> <Gold.Protein.RotatedTorsions>
[ 6907 6896 6895 6894 ] final  -88.91 input  -60.11 | X-H torsion
[ 7974 7965 7964 7962 ] final  -22.65 input  175.53 | X-H torsion
[ 8008 7997 7996 7995 ] final  171.14 input   59.86 | X-H torsion
[ 10167 10162 10161 10158 ] final  -97.59 input  -65.29 | X-H torsion
[ 10718 10713 10712 10709 ] final  -41.46 input   66.30 | X-H torsion
[ 10763 10752 10751 10750 ] final  157.71 input  -60.55 | X-H torsion
[ 11005 11000 10999 10996 ] final  106.86 input  -57.11 | X-H torsion

> <Gold.Protein.ActiveResidues>
 VAL166  LYS551  ARG553  GLY616  TRP617  ASP618  TYR619  PRO620  LYS621  CYS622 
 ASP623  PHE694  ASN695  SER759  ASP760  ASP761  ALA762  ILE779  LEU786  VAL792 
 PHE793  MET794  SER795  GLU796  ALA797  LYS798  CYS799  TRP800  GLU811  SER814 

> <Gold.Protein.RotatedAtoms>
  150.6871  134.2669  159.4571 H   0  0  0  0  0  0  0  0  0  0  0  0  # atno 6907 bound_to 6896
  152.0594  134.9601  160.0584 H   0  0  0  0  0  0  0  0  0  0  0  0  # atno 6908 bound_to 6896
  152.1034  133.4227  159.4634 H   0  0  0  0  0  0  0  0  0  0  0  0  # atno 6909 bound_to 6896
  146.1663  140.4508  142.8550 H   0  0  0  0  0  0  0  0  0  0  0  0  # atno 7974 bound_to 7965
  156.1300  140.1520  156.9080 H   0  0  0  0  0  0  0  0  0  0  0  0  # atno 8008 bound_to 7997
  154.4901  140.0854  156.7616 H   0  0  0  0  0  0  0  0  0  0  0  0  # atno 8009 bound_to 7997
  155.4274  140.3425  155.4279 H   0  0  0  0  0  0  0  0  0  0  0  0  # atno 8010 bound_to 7997
  140.2819  143.3277  152.0433 H   0  0  0  0  0  0  0  0  0  0  0  0  # atno 10167 bound_to 10162
  156.2702  130.4206  149.8446 H   0  0  0  0  0  0  0  0  0  0  0  0  # atno 10718 bound_to 10713
  154.2045  135.2789  155.2979 H   0  0  0  0  0  0  0  0  0  0  0  0  # atno 10763 bound_to 10752
  154.5828  135.5584  153.7205 H   0  0  0  0  0  0  0  0  0  0  0  0  # atno 10764 bound_to 10752
  153.0079  135.6349  154.2183 H   0  0  0  0  0  0  0  0  0  0  0  0  # atno 10765 bound_to 10752
  139.8820  134.9383  156.5731 H   0  0  0  0  0  0  0  0  0  0  0  0  # atno 11005 bound_to 11000
  144.8097  140.6364  143.6423 LP  0  0  0  0  0  0  0  0  0  0  0  0  # atno 17320 bound_to 7965
  145.4458  139.1530  143.3945 LP  0  0  0  0  0  0  0  0  0  0  0  0  # atno 17321 bound_to 7965
  139.4960  144.6586  151.6516 LP  0  0  0  0  0  0  0  0  0  0  0  0  # atno 17342 bound_to 10162
  140.5805  143.9954  150.6265 LP  0  0  0  0  0  0  0  0  0  0  0  0  # atno 17343 bound_to 10162
  156.5931  130.8514  151.3413 LP  0  0  0  0  0  0  0  0  0  0  0  0  # atno 17370 bound_to 10713
  157.7281  130.9652  150.1728 LP  0  0  0  0  0  0  0  0  0  0  0  0  # atno 17371 bound_to 10713
  140.8083  133.8449  155.8787 LP  0  0  0  0  0  0  0  0  0  0  0  0  # atno 17394 bound_to 11000
  140.9529  134.1755  157.4714 LP  0  0  0  0  0  0  0  0  0  0  0  0  # atno 17395 bound_to 11000

$$$$
