AV-unprocessed.smi:2558|AV-procd|sdf|10032|dock8
  -GOLD-   2272014 73D 1   1.00000     0.00000
 Structure written by MMmdl.
 43 44  0  0  0  0  0  0  0  0  1 V2000
  154.1252  137.7803  157.4742 C   0  0  0  0  0  0  0  0  0  0  0  0
  152.6928  138.1801  156.3900 S   0  0  0  0  0  0  0  0  0  0  0  0
  152.8837  139.5372  155.8538 O   0  0  0  0  0  0  0  0  0  0  0  0
  152.4949  137.0621  155.4542 O   0  0  0  0  0  0  0  0  0  0  0  0
  151.3552  138.1917  157.5239 N   0  0  0  0  0  0  0  0  0  0  0  0
  150.6123  137.0335  157.8670 C   0  0  0  0  0  0  0  0  0  0  0  0
  150.8759  135.9374  157.3671 O   0  0  0  0  0  0  0  0  0  0  0  0
  149.6989  137.2115  158.8450 N   0  0  0  0  0  0  0  0  0  0  0  0
  148.8979  136.2902  159.4142 C   0  0  0  0  0  0  0  0  0  0  0  0
  148.8955  135.0882  159.1434 O   0  0  0  0  0  0  0  0  0  0  0  0
  148.1109  136.8693  160.3386 N   0  0  0  0  0  0  0  0  0  0  0  0
  147.1329  136.2729  161.1803 C   0  0  0  0  0  0  0  0  0  0  0  0
  147.4425  135.0271  161.7640 C   0  0  0  0  0  0  0  0  0  0  0  0
  146.5030  134.4134  162.6136 C   0  0  0  0  0  0  0  0  0  0  0  0
  145.2851  135.0776  162.8549 C   0  0  0  0  0  0  0  0  0  0  0  0
  144.9778  136.2768  162.3178 N   0  0  0  0  0  0  0  0  0  0  0  0
  145.8834  136.8597  161.5028 C   0  0  0  0  0  0  0  0  0  0  0  0
  150.9207  139.5317  158.0115 C   0  0  0  0  0  0  0  0  0  0  0  0
  149.8900  140.1952  157.0731 C   0  0  0  0  0  0  0  0  0  0  0  0
  149.3943  141.5260  157.6627 C   0  0  0  0  0  0  0  0  0  0  0  0
  150.5670  142.4677  157.9867 C   0  0  0  0  0  0  0  0  0  0  0  0
  151.5807  141.8007  158.9325 C   0  0  0  0  0  0  0  0  0  0  0  0
  152.0984  140.4756  158.3501 C   0  0  0  0  0  0  0  0  0  0  0  0
  155.0331  137.7371  156.8730 H   0  0  0  0  0  0  0  0  0  0  0  0
  153.9629  136.8139  157.9512 H   0  0  0  0  0  0  0  0  0  0  0  0
  154.2347  138.5480  158.2396 H   0  0  0  0  0  0  0  0  0  0  0  0
  149.5937  138.1572  159.1811 H   0  0  0  0  0  0  0  0  0  0  0  0
  148.2677  137.8540  160.4958 H   0  0  0  0  0  0  0  0  0  0  0  0
  148.3870  134.5429  161.5617 H   0  0  0  0  0  0  0  0  0  0  0  0
  146.7108  133.4567  163.0693 H   0  0  0  0  0  0  0  0  0  0  0  0
  144.5405  134.6362  163.5006 H   0  0  0  0  0  0  0  0  0  0  0  0
  145.5880  137.8261  161.1266 H   0  0  0  0  0  0  0  0  0  0  0  0
  150.4055  139.3832  158.9601 H   0  0  0  0  0  0  0  0  0  0  0  0
  150.3212  140.3865  156.0911 H   0  0  0  0  0  0  0  0  0  0  0  0
  149.0440  139.5257  156.9146 H   0  0  0  0  0  0  0  0  0  0  0  0
  148.7114  142.0096  156.9638 H   0  0  0  0  0  0  0  0  0  0  0  0
  148.8206  141.3324  158.5699 H   0  0  0  0  0  0  0  0  0  0  0  0
  151.0671  142.7587  157.0620 H   0  0  0  0  0  0  0  0  0  0  0  0
  150.1903  143.3868  158.4363 H   0  0  0  0  0  0  0  0  0  0  0  0
  152.4165  142.4758  159.1182 H   0  0  0  0  0  0  0  0  0  0  0  0
  151.1115  141.6177  159.9002 H   0  0  0  0  0  0  0  0  0  0  0  0
  152.7701  139.9968  159.0634 H   0  0  0  0  0  0  0  0  0  0  0  0
  152.6930  140.6988  157.4645 H   0  0  0  0  0  0  0  0  0  0  0  0
  1  2  1  0  0  0  0
  1 24  1  0  0  0  0
  1 25  1  0  0  0  0
  1 26  1  0  0  0  0
  2  3  2  0  0  0  0
  2  4  2  0  0  0  0
  2  5  1  0  0  0  0
  5  6  1  0  0  0  0
  5 18  1  0  0  0  0
  6  7  2  0  0  0  0
  6  8  1  0  0  0  0
  8  9  1  0  0  0  0
  8 27  1  0  0  0  0
  9 10  2  0  0  0  0
  9 11  1  0  0  0  0
 11 12  1  0  0  0  0
 11 28  1  0  0  0  0
 12 17  1  0  0  0  0
 12 13  2  0  0  0  0
 13 14  1  0  0  0  0
 13 29  1  0  0  0  0
 14 15  2  0  0  0  0
 14 30  1  0  0  0  0
 15 16  1  0  0  0  0
 15 31  1  0  0  0  0
 16 17  2  0  0  0  0
 17 32  1  0  0  0  0
 18 23  1  0  0  0  0
 18 19  1  0  0  0  0
 18 33  1  0  0  0  0
 19 20  1  0  0  0  0
 19 34  1  0  0  0  0
 19 35  1  0  0  0  0
 20 21  1  0  0  0  0
 20 36  1  0  0  0  0
 20 37  1  0  0  0  0
 21 22  1  0  0  0  0
 21 38  1  0  0  0  0
 21 39  1  0  0  0  0
 22 23  1  0  0  0  0
 22 40  1  0  0  0  0
 22 41  1  0  0  0  0
 23 42  1  0  0  0  0
 23 43  1  0  0  0  0
M  END
> <s_m_source_file>
AV-unprocessed.smi

> <i_m_source_file_index>
2558

> <i_lp_mmshare_version>
43012

> <i_f3d_flags>
0

> <s_epik_input>
W0NIMl0xW0NIMl1bQ0gyXVtDSDJdW0NIMl1bQ0hdMU4oUyg9TykoPU8pW0NIM10pQyg9TylbTkhdQyg9TylbTkhdYzJbY0hdW2NIXVtjSF1uW2NIXTI=

> <s_epik_cmdline>
J2VwaWtfcHl0aG9uJywgJy1waCcsICc3LjAnLCAnLXRuJywgJzgnLCAnLW1hJywgJzIwMCcsICctbWV0YWxfYmluZGluZycsICctaW1hZScsICc8aW5maWxlLm1hZT4nLCAnLW9tYWUnLCAnPG91dGZpbGUubWFlPic=

> <r_epik_Ionization_Penalty>
0.00647128

> <r_epik_Ionization_Penalty_Charging>
0

> <r_epik_Ionization_Penalty_Neutral>
0.00647128

> <r_epik_State_Penalty>
0.00476147

> <r_epik_Charging_Adjusted_Penalty>
0.00476147

> <i_epik_Tot_Q>
0

> <i_epik_Tot_abs_Q>
0

> <r_epik_Metal_State_Penalty>
0.0176635

> <b_epik_Metal_Only>
0

> <s_lp_Force_Field>
OPLS_2005

> <r_lp_Energy>
21.3267

> <b_lp_Chiralities_Consistent>
1

> <s_lp_Variant>
AV-unprocessed.smi:2558-1

> <Gold.Version>
5.8.1

> <Gold.Id.Protein>
6NUR|6NUR_protein|mol2

> <Gold.PLP.Fitness>
38.0105

> <Gold.PLP.PLP>
-31.7875

> <Gold.PLP.part.hbond>
-3.5865

> <Gold.PLP.part.metal>
0.0000

> <Gold.PLP.part.buried>
-5.8393

> <Gold.PLP.part.nonpolar>
-22.3799

> <Gold.PLP.part.repulsive>
0.4429

> <Gold.PLP.ligand.clash>
0.0000

> <Gold.PLP.ligand.torsion>
2.0090

> <Gold.PLP.Chemscore.Hbond>
2.6960

> <Gold.PLP.Chemscore.CHOScore>
0.0000

> <Gold.PLP.Chemscore.Metal>
0.0000

> <Gold.Chemscore.Hbonds>
donor molecule, donor type, donor heavy atom, donor atom, acceptor molecule, acceptor atom, score
      P1  H  6896  6909       L1    10  0.99
      P1  H  7997  8009       L1     3  1.00
      P1  H 10752 10763       L1     4  0.70

> <Gold.PLP.Chemscore.Internal.Correction>
2.1529

> <Gold.Rescore>
     Score         DG    S(hbond)    S(metal)    S(lipo)     H(rot)  DE(clash)    DE(int)     intcor
     13.48     -19.61       2.51        0.00      70.86       1.00       0.13       6.00       ----

> <Gold.Chemscore.Fitness>
13.4843

> <Gold.Chemscore.DG>
-19.6101

> <Gold.Chemscore.ZeroCoef>
-5.4800

> <Gold.Chemscore.Hbond>
2.5147

> <Gold.Chemscore.Metal>
0.0000

> <Gold.Chemscore.Lipo>
70.8625

> <Gold.Chemscore.Internal_Hbond>
0.0000

> <Gold.Chemscore.DEClash>
0.1288

> <Gold.Chemscore.DEInternal>
5.9970

> <Gold.Chemscore.Rot>
1.0000

> <Gold.Chemscore.Internal.Correction>
   9.000000E+99

> <Gold.Chemscore.Hbonds>
donor molecule, donor type, donor heavy atom, donor atom, acceptor molecule, acceptor atom, score
      P1  H  6896  6909       L1    10  0.79
      P1  H  7997  8009       L1     3  0.87
      P1  H 10752 10763       L1     4  0.70

> <Gold.Chemscore.Hbond.Weighted>
-8.3992

> <Gold.Chemscore.Metal.Weighted>
-0.0000

> <Gold.Chemscore.Lipo.Weighted>
-8.2909

> <Gold.Chemscore.Internal_Hbond.Weighted>
0.0000

> <Gold.Chemscore.DEClash.Weighted>
0.1288

> <Gold.Chemscore.DEInternal.Weighted>
5.9970

> <Gold.Chemscore.Rot.Weighted>
2.5600

> <Gold.Chemscore.Internal.Correction.Weighted>
   9.000000E+99

> <Gold.Protein.RotatedTorsions>
[ 6907 6896 6895 6894 ] final   26.27 input  -60.11 | X-H torsion
[ 7974 7965 7964 7962 ] final  129.64 input  175.53 | X-H torsion
[ 8008 7997 7996 7995 ] final -151.37 input   59.86 | X-H torsion
[ 10167 10162 10161 10158 ] final -172.95 input  -65.29 | X-H torsion
[ 10718 10713 10712 10709 ] final -175.85 input   66.30 | X-H torsion
[ 10763 10752 10751 10750 ] final   81.94 input  -60.55 | X-H torsion
[ 11005 11000 10999 10996 ] final  -80.39 input  -57.11 | X-H torsion

> <Gold.Protein.ActiveResidues>
 VAL166  LYS551  ARG553  GLY616  TRP617  ASP618  TYR619  PRO620  LYS621  CYS622 
 ASP623  PHE694  ASN695  SER759  ASP760  ASP761  ALA762  ILE779  LEU786  VAL792 
 PHE793  MET794  SER795  GLU796  ALA797  LYS798  CYS799  TRP800  GLU811  SER814 

> <Gold.Protein.RotatedAtoms>
  151.9850  135.0009  160.0558 H   0  0  0  0  0  0  0  0  0  0  0  0  # atno 6907 bound_to 6896
  152.1661  133.4608  159.4894 H   0  0  0  0  0  0  0  0  0  0  0  0  # atno 6908 bound_to 6896
  150.6894  134.1929  159.4335 H   0  0  0  0  0  0  0  0  0  0  0  0  # atno 6909 bound_to 6896
  145.0264  139.4085  143.5171 H   0  0  0  0  0  0  0  0  0  0  0  0  # atno 7974 bound_to 7965
  155.6383  140.0699  157.2627 H   0  0  0  0  0  0  0  0  0  0  0  0  # atno 8008 bound_to 7997
  154.4189  140.1755  156.1595 H   0  0  0  0  0  0  0  0  0  0  0  0  # atno 8009 bound_to 7997
  155.9876  140.3348  155.6726 H   0  0  0  0  0  0  0  0  0  0  0  0  # atno 8010 bound_to 7997
  139.5716  144.1629  152.1391 H   0  0  0  0  0  0  0  0  0  0  0  0  # atno 10167 bound_to 10162
  156.8059  130.9569  151.3117 H   0  0  0  0  0  0  0  0  0  0  0  0  # atno 10718 bound_to 10713
  153.1160  135.4746  154.9116 H   0  0  0  0  0  0  0  0  0  0  0  0  # atno 10763 bound_to 10752
  154.7529  135.3110  154.8527 H   0  0  0  0  0  0  0  0  0  0  0  0  # atno 10764 bound_to 10752
  153.9103  135.6866  153.4805 H   0  0  0  0  0  0  0  0  0  0  0  0  # atno 10765 bound_to 10752
  141.1668  133.7148  156.8266 H   0  0  0  0  0  0  0  0  0  0  0  0  # atno 11005 bound_to 11000
  146.3493  139.9790  142.8698 LP  0  0  0  0  0  0  0  0  0  0  0  0  # atno 17320 bound_to 7965
  145.1827  140.9775  143.4256 LP  0  0  0  0  0  0  0  0  0  0  0  0  # atno 17321 bound_to 7965
  140.1163  144.5413  150.6892 LP  0  0  0  0  0  0  0  0  0  0  0  0  # atno 17342 bound_to 10162
  140.7000  143.2428  151.4892 LP  0  0  0  0  0  0  0  0  0  0  0  0  # atno 17343 bound_to 10162
  157.6530  130.8901  149.9672 LP  0  0  0  0  0  0  0  0  0  0  0  0  # atno 17370 bound_to 10713
  156.1073  130.3652  150.0111 LP  0  0  0  0  0  0  0  0  0  0  0  0  # atno 17371 bound_to 10713
  140.2081  134.8848  157.3244 LP  0  0  0  0  0  0  0  0  0  0  0  0  # atno 17394 bound_to 11000
  140.2116  134.4132  155.7610 LP  0  0  0  0  0  0  0  0  0  0  0  0  # atno 17395 bound_to 11000

$$$$
