AV-unprocessed.smi:254|AV-procd|sdf|1947|dock10
  -GOLD-   2262021 83D 1   1.00000     0.00000
 Structure written by MMmdl.
 50 53  0  0  0  0  0  0  0  0  1 V2000
  152.7605  139.7505  157.8276 O   0  0  0  0  0  0  0  0  0  0  0  0
  151.9282  140.4839  157.2967 C   0  0  0  0  0  0  0  0  0  0  0  0
  151.3974  140.2610  155.8945 C   0  0  0  0  0  0  0  0  0  0  0  0
  150.4533  141.3642  155.7273 N   0  0  0  0  0  0  0  0  0  0  0  0
  149.2753  141.0127  155.1660 C   0  0  0  0  0  0  0  0  0  0  0  0
  148.9439  141.4742  153.9313 N   0  0  0  0  0  0  0  0  0  0  0  0
  147.7720  141.1342  153.3858 C   0  0  0  0  0  0  0  0  0  0  0  0
  146.8064  140.3644  153.8936 N   0  0  0  0  0  0  0  0  0  0  0  0
  147.1365  139.9092  155.1366 C   0  0  0  0  0  0  0  0  0  0  0  0
  148.3407  140.1859  155.8411 C   0  0  0  0  0  0  0  0  0  0  0  0
  148.3280  139.5548  157.0780 N   0  0  0  0  0  0  0  0  0  0  0  0
  147.1800  138.9338  157.1027 C   0  0  0  0  0  0  0  0  0  0  0  0
  146.3941  139.1052  155.9842 N   0  0  0  0  0  0  0  0  0  0  0  0
  145.0865  138.5207  155.7429 C   0  0  0  0  0  0  0  0  0  0  0  0
  145.1031  137.2305  154.8821 C   0  0  2  0  0  0  0  0  0  0  0  0
  146.1380  137.4295  153.7476 C   0  0  0  0  0  0  0  0  0  0  0  0
  146.5650  136.2003  153.1981 O   0  0  0  0  0  0  0  0  0  0  0  0
  143.6933  136.8489  154.3337 C   0  0  1  0  0  0  0  0  0  0  0  0
  143.6360  135.5779  153.5006 C   0  0  0  0  0  0  0  0  0  0  0  0
  142.1501  135.2530  153.5065 C   0  0  0  0  0  0  0  0  0  0  0  0
  141.7254  135.5816  154.8195 O   0  0  0  0  0  0  0  0  0  0  0  0
  142.6216  136.5310  155.3903 C   0  0  0  0  0  0  0  0  0  0  0  0
  150.3880  142.1734  156.9457 C   0  0  0  0  0  0  0  0  0  0  0  0
  151.3567  141.5610  157.8387 N   0  0  0  0  0  0  0  0  0  0  0  0
  151.5846  142.0926  159.1808 C   0  0  0  0  0  0  0  0  0  0  0  0
  151.8919  143.6006  159.1715 C   0  0  0  0  0  0  0  0  0  0  0  0
  150.7467  144.2748  159.0762 F   0  0  0  0  0  0  0  0  0  0  0  0
  152.5099  143.9744  160.2916 F   0  0  0  0  0  0  0  0  0  0  0  0
  152.6561  143.9116  158.1244 F   0  0  0  0  0  0  0  0  0  0  0  0
  152.2026  140.3333  155.1633 H   0  0  0  0  0  0  0  0  0  0  0  0
  150.9342  139.2756  155.8151 H   0  0  0  0  0  0  0  0  0  0  0  0
  147.5798  141.5373  152.4025 H   0  0  0  0  0  0  0  0  0  0  0  0
  146.8693  138.3348  157.9465 H   0  0  0  0  0  0  0  0  0  0  0  0
  144.6020  138.3237  156.7000 H   0  0  0  0  0  0  0  0  0  0  0  0
  144.4889  139.2909  155.2540 H   0  0  0  0  0  0  0  0  0  0  0  0
  145.4643  136.4172  155.5134 H   0  0  0  0  0  0  0  0  0  0  0  0
  145.7357  138.0671  152.9599 H   0  0  0  0  0  0  0  0  0  0  0  0
  147.0347  137.9239  154.1221 H   0  0  0  0  0  0  0  0  0  0  0  0
  147.2539  136.3726  152.5746 H   0  0  0  0  0  0  0  0  0  0  0  0
  143.3260  137.6664  153.7110 H   0  0  0  0  0  0  0  0  0  0  0  0
  144.0258  135.7066  152.4906 H   0  0  0  0  0  0  0  0  0  0  0  0
  144.1920  134.7748  153.9863 H   0  0  0  0  0  0  0  0  0  0  0  0
  141.6169  135.8821  152.7923 H   0  0  0  0  0  0  0  0  0  0  0  0
  141.9440  134.2100  153.2657 H   0  0  0  0  0  0  0  0  0  0  0  0
  143.0636  136.0817  156.2800 H   0  0  0  0  0  0  0  0  0  0  0  0
  142.0712  137.4199  155.6956 H   0  0  0  0  0  0  0  0  0  0  0  0
  150.6781  143.2003  156.7212 H   0  0  0  0  0  0  0  0  0  0  0  0
  149.4008  142.1928  157.4102 H   0  0  0  0  0  0  0  0  0  0  0  0
  150.7009  141.9033  159.7918 H   0  0  0  0  0  0  0  0  0  0  0  0
  152.4025  141.5474  159.6545 H   0  0  0  0  0  0  0  0  0  0  0  0
  1  2  2  0  0  0  0
  2 24  1  0  0  0  0
  2  3  1  0  0  0  0
  3  4  1  0  0  0  0
  3 30  1  0  0  0  0
  3 31  1  0  0  0  0
  4  5  1  0  0  0  0
  4 23  1  0  0  0  0
  5 10  1  0  0  0  0
  5  6  2  0  0  0  0
  6  7  1  0  0  0  0
  7  8  2  0  0  0  0
  7 32  1  0  0  0  0
  8  9  1  0  0  0  0
  9 13  1  0  0  0  0
  9 10  2  0  0  0  0
 10 11  1  0  0  0  0
 11 12  2  0  0  0  0
 12 13  1  0  0  0  0
 12 33  1  0  0  0  0
 13 14  1  0  0  0  0
 14 15  1  0  0  0  0
 14 34  1  0  0  0  0
 14 35  1  0  0  0  0
 15 16  1  0  0  0  0
 15 18  1  0  0  0  0
 15 36  1  0  0  0  0
 16 17  1  0  0  0  0
 16 37  1  0  0  0  0
 16 38  1  0  0  0  0
 17 39  1  0  0  0  0
 18 22  1  0  0  0  0
 18 19  1  0  0  0  0
 18 40  1  0  0  0  0
 19 20  1  0  0  0  0
 19 41  1  0  0  0  0
 19 42  1  0  0  0  0
 20 21  1  0  0  0  0
 20 43  1  0  0  0  0
 20 44  1  0  0  0  0
 21 22  1  0  0  0  0
 22 45  1  0  0  0  0
 22 46  1  0  0  0  0
 23 24  1  0  0  0  0
 23 47  1  0  0  0  0
 23 48  1  0  0  0  0
 24 25  1  0  0  0  0
 25 26  1  0  0  0  0
 25 49  1  0  0  0  0
 25 50  1  0  0  0  0
 26 27  1  0  0  0  0
 26 28  1  0  0  0  0
 26 29  1  0  0  0  0
M  END
> <s_m_source_file>
AV-unprocessed.smi

> <i_m_source_file_index>
254

> <i_lp_mmshare_version>
43012

> <i_f3d_flags>
0

> <s_epik_input>
RkMoRikoRilbQ0gyXU4xW0NIMl1OKFtDSDJdQzE9TyljKG5bY0hdbjIpYyhjMjMpbltjSF1uM1tDSDJdW0NASF0oW0NIMl1bT0hdKVtDQEBIXTRbQ0gyXVtDSDJdT1tDSDJdNA==

> <s_epik_cmdline>
J2VwaWtfcHl0aG9uJywgJy1waCcsICc3LjAnLCAnLXRuJywgJzgnLCAnLW1hJywgJzIwMCcsICctbWV0YWxfYmluZGluZycsICctaW1hZScsICc8aW5maWxlLm1hZT4nLCAnLW9tYWUnLCAnPG91dGZpbGUubWFlPic=

> <r_lp_tautomer_probability>
1

> <r_epik_Ionization_Penalty>
0.000292924

> <r_epik_Ionization_Penalty_Charging>
0

> <r_epik_Ionization_Penalty_Neutral>
0.000292924

> <r_epik_State_Penalty>
-0

> <r_epik_Charging_Adjusted_Penalty>
0

> <i_epik_Tot_Q>
0

> <i_epik_Tot_abs_Q>
0

> <r_epik_Metal_State_Penalty>
-0

> <b_epik_Metal_Only>
0

> <s_epik_Chemistry_Notes>
This compound contains an acetal/aminal-like group ( X-CH(R)-Y where X, Y are N, S, or O) that may be acid/base labile, releasing an aldehyde.

> <s_lp_Force_Field>
OPLS_2005

> <r_lp_Energy>
43.3232

> <b_lp_Chiralities_Consistent>
1

> <s_lp_Variant>
AV-unprocessed.smi:254-3

> <Gold.Version>
5.8.1

> <Gold.Id.Protein>
6NUR|6NUR_protein|mol2

> <Gold.PLP.Fitness>
47.8156

> <Gold.PLP.PLP>
-39.9268

> <Gold.PLP.part.hbond>
-4.4324

> <Gold.PLP.part.metal>
0.0000

> <Gold.PLP.part.buried>
-7.0194

> <Gold.PLP.part.nonpolar>
-29.4258

> <Gold.PLP.part.repulsive>
0.4768

> <Gold.PLP.ligand.clash>
0.0000

> <Gold.PLP.ligand.torsion>
1.0591

> <Gold.PLP.Chemscore.Hbond>
3.1097

> <Gold.PLP.Chemscore.CHOScore>
0.0640

> <Gold.PLP.Chemscore.Metal>
0.0000

> <Gold.Chemscore.Hbonds>
donor molecule, donor type, donor heavy atom, donor atom, acceptor molecule, acceptor atom, score
      L1  H    17    39       P1  7948  1.00
      P1  H  7997  8009       L1     1  1.00
      P1  H  8011  8017       L1     6  0.65
      P1  H 11000 11005       L1    21  0.34
      L1  C     7    32       P1  7957  0.11

> <Gold.PLP.Chemscore.Internal.Correction>
0.4860

> <Gold.Rescore>
     Score         DG    S(hbond)    S(metal)    S(lipo)     H(rot)  DE(clash)    DE(int)     intcor
      6.80     -11.10       3.01        0.00      44.74       3.78       1.21       3.08       ----

> <Gold.Chemscore.Fitness>
6.8004

> <Gold.Chemscore.DG>
-11.0965

> <Gold.Chemscore.ZeroCoef>
-5.4800

> <Gold.Chemscore.Hbond>
3.0147

> <Gold.Chemscore.Metal>
0.0000

> <Gold.Chemscore.Lipo>
44.7396

> <Gold.Chemscore.Internal_Hbond>
0.0000

> <Gold.Chemscore.DEClash>
1.2127

> <Gold.Chemscore.DEInternal>
3.0834

> <Gold.Chemscore.Rot>
3.7840

> <Gold.Chemscore.Internal.Correction>
   9.000000E+99

> <Gold.Chemscore.Hbonds>
donor molecule, donor type, donor heavy atom, donor atom, acceptor molecule, acceptor atom, score
      L1  H    17    39       P1  7948  0.99
      P1  H  7997  8009       L1     1  0.27
      P1  H  8011  8017       L1     6  0.14
      P1  H 11000 11005       L1    21  0.30

> <Gold.Chemscore.Hbond.Weighted>
-10.0690

> <Gold.Chemscore.Metal.Weighted>
-0.0000

> <Gold.Chemscore.Lipo.Weighted>
-5.2345

> <Gold.Chemscore.Internal_Hbond.Weighted>
0.0000

> <Gold.Chemscore.DEClash.Weighted>
1.2127

> <Gold.Chemscore.DEInternal.Weighted>
3.0834

> <Gold.Chemscore.Rot.Weighted>
9.6871

> <Gold.Chemscore.Internal.Correction.Weighted>
   9.000000E+99

> <Gold.Protein.RotatedTorsions>
[ 6907 6896 6895 6894 ] final  -15.17 input  -60.11 | X-H torsion
[ 7974 7965 7964 7962 ] final  109.99 input  175.53 | X-H torsion
[ 8008 7997 7996 7995 ] final  179.81 input   59.86 | X-H torsion
[ 10167 10162 10161 10158 ] final  134.98 input  -65.29 | X-H torsion
[ 10718 10713 10712 10709 ] final  134.14 input   66.30 | X-H torsion
[ 10763 10752 10751 10750 ] final  147.26 input  -60.55 | X-H torsion
[ 11005 11000 10999 10996 ] final    8.50 input  -57.11 | X-H torsion

> <Gold.Protein.ActiveResidues>
 VAL166  LYS551  ARG553  GLY616  TRP617  ASP618  TYR619  PRO620  LYS621  CYS622 
 ASP623  PHE694  ASN695  SER759  ASP760  ASP761  ALA762  ILE779  LEU786  VAL792 
 PHE793  MET794  SER795  GLU796  ALA797  LYS798  CYS799  TRP800  GLU811  SER814 

> <Gold.Protein.RotatedAtoms>
  151.3280  135.0835  159.9328 H   0  0  0  0  0  0  0  0  0  0  0  0  # atno 6907 bound_to 6896
  152.5241  133.9571  159.7710 H   0  0  0  0  0  0  0  0  0  0  0  0  # atno 6908 bound_to 6896
  150.9904  133.6102  159.2739 H   0  0  0  0  0  0  0  0  0  0  0  0  # atno 6909 bound_to 6896
  145.2608  139.2703  143.4018 H   0  0  0  0  0  0  0  0  0  0  0  0  # atno 7974 bound_to 7965
  156.0391  140.1299  157.0175 H   0  0  0  0  0  0  0  0  0  0  0  0  # atno 8008 bound_to 7997
  154.4383  140.1034  156.6282 H   0  0  0  0  0  0  0  0  0  0  0  0  # atno 8009 bound_to 7997
  155.5693  140.3466  155.4513 H   0  0  0  0  0  0  0  0  0  0  0  0  # atno 8010 bound_to 7997
  139.5235  144.6540  151.5218 H   0  0  0  0  0  0  0  0  0  0  0  0  # atno 10167 bound_to 10162
  157.4703  131.1079  150.9811 H   0  0  0  0  0  0  0  0  0  0  0  0  # atno 10718 bound_to 10713
  154.0354  135.2894  155.3362 H   0  0  0  0  0  0  0  0  0  0  0  0  # atno 10763 bound_to 10752
  154.6962  135.5206  153.8465 H   0  0  0  0  0  0  0  0  0  0  0  0  # atno 10764 bound_to 10752
  153.0622  135.6618  154.0563 H   0  0  0  0  0  0  0  0  0  0  0  0  # atno 10765 bound_to 10752
  140.5362  134.0418  155.7889 H   0  0  0  0  0  0  0  0  0  0  0  0  # atno 11005 bound_to 11000
  146.3276  140.3024  142.8621 LP  0  0  0  0  0  0  0  0  0  0  0  0  # atno 17320 bound_to 7965
  144.9420  140.8089  143.5624 LP  0  0  0  0  0  0  0  0  0  0  0  0  # atno 17321 bound_to 7965
  140.6357  143.8989  150.6645 LP  0  0  0  0  0  0  0  0  0  0  0  0  # atno 17342 bound_to 10162
  140.2307  143.3738  152.1568 LP  0  0  0  0  0  0  0  0  0  0  0  0  # atno 17343 bound_to 10162
  157.0579  130.5813  149.5381 LP  0  0  0  0  0  0  0  0  0  0  0  0  # atno 17370 bound_to 10713
  156.0070  130.5158  150.7862 LP  0  0  0  0  0  0  0  0  0  0  0  0  # atno 17371 bound_to 10713
  141.1253  133.9393  157.2648 LP  0  0  0  0  0  0  0  0  0  0  0  0  # atno 17394 bound_to 11000
  139.9528  135.0172  156.9042 LP  0  0  0  0  0  0  0  0  0  0  0  0  # atno 17395 bound_to 11000

$$$$
