AV-unprocessed.smi:1033|AV-procd|sdf|4512|dock7
  -GOLD-   22720 2523D 1   1.00000     0.00000
 Structure written by MMmdl.
 57 59  0  0  0  0  0  0  0  0  3 V2000
  151.4763  144.5141  161.8550 C   0  0  0  0  0  0  0  0  0  0  0  0
  152.4585  143.3844  161.5998 C   0  0  0  0  0  0  0  0  0  0  0  0
  153.2283  142.8879  162.6754 C   0  0  0  0  0  0  0  0  0  0  0  0
  154.1504  141.8369  162.4813 C   0  0  0  0  0  0  0  0  0  0  0  0
  154.9949  141.2055  163.3777 N   0  0  0  0  0  0  0  0  0  0  0  0
  155.5991  140.3155  162.5966 C   0  0  0  0  0  0  0  0  0  0  0  0
  155.2578  140.3068  161.2933 N   0  0  0  0  0  0  0  0  0  0  0  0
  155.7892  139.4420  160.2554 C   0  0  0  0  0  0  0  0  0  0  0  0
  154.8110  138.3170  159.8600 C   0  0  2  0  0  0  0  0  0  0  0  0
  153.8719  138.8583  158.9536 O   0  0  0  0  0  0  0  0  0  0  0  0
  154.0511  137.7108  161.0617 C   0  0  0  0  0  0  0  0  0  0  0  0
  154.9451  136.9991  162.0117 N   0  3  2  0  0  0  0  0  0  0  0  0
  155.4851  135.7416  161.4373 C   0  0  0  0  0  0  0  0  0  0  0  0
  156.4883  135.0776  162.3990 C   0  0  0  0  0  0  0  0  0  0  0  0
  155.8880  134.8214  163.7320 N   0  3  2  0  0  0  0  0  0  0  0  0
  154.9725  133.6485  163.7569 C   0  0  0  0  0  0  0  0  0  0  0  0
  154.7696  133.0810  165.1764 C   0  0  1  0  0  0  0  0  0  0  0  0
  154.1736  131.6678  165.1442 C   0  0  0  0  0  0  0  0  0  0  0  0
  156.0171  133.0078  165.8367 O   0  0  0  0  0  0  0  0  0  0  0  0
  155.3159  136.0678  164.3068 C   0  0  0  0  0  0  0  0  0  0  0  0
  154.3293  136.7614  163.3436 C   0  0  0  0  0  0  0  0  0  0  0  0
  154.2861  141.2942  161.1698 C   0  0  0  0  0  0  0  0  0  0  0  0
  153.5238  141.7780  160.0918 C   0  0  0  0  0  0  0  0  0  0  0  0
  152.6053  142.8272  160.3040 C   0  0  0  0  0  0  0  0  0  0  0  0
  151.7843  143.3417  159.1349 C   0  0  0  0  0  0  0  0  0  0  0  0
  151.4917  144.8268  162.8995 H   0  0  0  0  0  0  0  0  0  0  0  0
  150.4605  144.1988  161.6159 H   0  0  0  0  0  0  0  0  0  0  0  0
  151.7235  145.3816  161.2429 H   0  0  0  0  0  0  0  0  0  0  0  0
  153.1150  143.3108  163.6630 H   0  0  0  0  0  0  0  0  0  0  0  0
  156.3411  139.6379  162.9933 H   0  0  0  0  0  0  0  0  0  0  0  0
  156.0311  140.0559  159.3863 H   0  0  0  0  0  0  0  0  0  0  0  0
  156.7306  139.0211  160.6119 H   0  0  0  0  0  0  0  0  0  0  0  0
  155.3726  137.5441  159.3376 H   0  0  0  0  0  0  0  0  0  0  0  0
  153.3296  139.4805  159.4158 H   0  0  0  0  0  0  0  0  0  0  0  0
  153.5029  138.4787  161.6092 H   0  0  0  0  0  0  0  0  0  0  0  0
  153.3000  137.0190  160.6766 H   0  0  0  0  0  0  0  0  0  0  0  0
  154.6640  135.0593  161.2114 H   0  0  0  0  0  0  0  0  0  0  0  0
  155.9854  135.9553  160.4921 H   0  0  0  0  0  0  0  0  0  0  0  0
  156.8787  134.1530  161.9719 H   0  0  0  0  0  0  0  0  0  0  0  0
  157.3491  135.7344  162.5321 H   0  0  0  0  0  0  0  0  0  0  0  0
  154.0121  133.9209  163.3191 H   0  0  0  0  0  0  0  0  0  0  0  0
  155.3712  132.8536  163.1243 H   0  0  0  0  0  0  0  0  0  0  0  0
  154.1068  133.7173  165.7616 H   0  0  0  0  0  0  0  0  0  0  0  0
  153.1944  131.6671  164.6650 H   0  0  0  0  0  0  0  0  0  0  0  0
  154.0454  131.2716  166.1521 H   0  0  0  0  0  0  0  0  0  0  0  0
  154.8137  130.9764  164.5950 H   0  0  0  0  0  0  0  0  0  0  0  0
  155.8819  132.7211  166.7267 H   0  0  0  0  0  0  0  0  0  0  0  0
  154.8345  135.8716  165.2643 H   0  0  0  0  0  0  0  0  0  0  0  0
  156.1414  136.7480  164.5213 H   0  0  0  0  0  0  0  0  0  0  0  0
  154.0161  137.7048  163.7889 H   0  0  0  0  0  0  0  0  0  0  0  0
  153.4250  136.1630  163.2261 H   0  0  0  0  0  0  0  0  0  0  0  0
  153.6409  141.3436  159.1102 H   0  0  0  0  0  0  0  0  0  0  0  0
  152.0163  142.8014  158.2167 H   0  0  0  0  0  0  0  0  0  0  0  0
  151.9868  144.3988  158.9619 H   0  0  0  0  0  0  0  0  0  0  0  0
  150.7192  143.2209  159.3334 H   0  0  0  0  0  0  0  0  0  0  0  0
  156.6599  134.5566  164.3279 H   0  0  0  0  0  0  0  0  0  0  0  0
  155.7389  137.6079  162.1546 H   0  0  0  0  0  0  0  0  0  0  0  0
  1  2  1  0  0  0  0
  1 26  1  0  0  0  0
  1 27  1  0  0  0  0
  1 28  1  0  0  0  0
  2 24  1  0  0  0  0
  2  3  2  0  0  0  0
  3  4  1  0  0  0  0
  3 29  1  0  0  0  0
  4 22  2  0  0  0  0
  4  5  1  0  0  0  0
  5  6  2  0  0  0  0
  6  7  1  0  0  0  0
  6 30  1  0  0  0  0
  7  8  1  0  0  0  0
  7 22  1  0  0  0  0
  8  9  1  0  0  0  0
  8 31  1  0  0  0  0
  8 32  1  0  0  0  0
  9 10  1  0  0  0  0
  9 11  1  0  0  0  0
  9 33  1  0  0  0  0
 10 34  1  0  0  0  0
 11 12  1  0  0  0  0
 11 35  1  0  0  0  0
 11 36  1  0  0  0  0
 12 21  1  0  0  0  0
 12 13  1  0  0  0  0
 12 57  1  0  0  0  0
 13 14  1  0  0  0  0
 13 37  1  0  0  0  0
 13 38  1  0  0  0  0
 14 15  1  0  0  0  0
 14 39  1  0  0  0  0
 14 40  1  0  0  0  0
 15 16  1  0  0  0  0
 15 20  1  0  0  0  0
 15 56  1  0  0  0  0
 16 17  1  0  0  0  0
 16 41  1  0  0  0  0
 16 42  1  0  0  0  0
 17 18  1  0  0  0  0
 17 19  1  0  0  0  0
 17 43  1  0  0  0  0
 18 44  1  0  0  0  0
 18 45  1  0  0  0  0
 18 46  1  0  0  0  0
 19 47  1  0  0  0  0
 20 21  1  0  0  0  0
 20 48  1  0  0  0  0
 20 49  1  0  0  0  0
 21 50  1  0  0  0  0
 21 51  1  0  0  0  0
 22 23  1  0  0  0  0
 23 24  2  0  0  0  0
 23 52  1  0  0  0  0
 24 25  1  0  0  0  0
 25 53  1  0  0  0  0
 25 54  1  0  0  0  0
 25 55  1  0  0  0  0
M  CHG  1  12   1
M  CHG  1  15   1
M  END
> <s_m_source_file>
AV-unprocessed.smi

> <i_m_source_file_index>
1033

> <i_lp_mmshare_version>
43012

> <i_f3d_flags>
0

> <s_epik_input>
W0NIM11jKFtjSF0xKWMoW0NIM10pW2NIXWMoYzEyKW4oW2NIXW4yKVtDSDJdW0NASF0oW09IXSlbQ0gyXU4zW0NIMl1bQ0gyXU4oW0NIMl1bQ0gyXTMpW0NIMl1bQ0BIXShbQ0gzXSlbT0hd

> <s_epik_cmdline>
J2VwaWtfcHl0aG9uJywgJy1waCcsICc3LjAnLCAnLXRuJywgJzgnLCAnLW1hJywgJzIwMCcsICctbWV0YWxfYmluZGluZycsICctaW1hZScsICc8aW5maWxlLm1hZT4nLCAnLW9tYWUnLCAnPG91dGZpbGUubWFlPic=

> <r_epik_Ionization_Penalty>
3.16016

> <r_epik_Ionization_Penalty_Charging>
3.07679

> <r_epik_Ionization_Penalty_Neutral>
0.083365

> <r_epik_State_Penalty>
2.09701

> <r_epik_Charging_Adjusted_Penalty>
5.1738

> <i_epik_Tot_Q>
2

> <i_epik_Tot_abs_Q>
2

> <r_epik_Metal_State_Penalty>
2.02534

> <b_epik_Metal_Only>
0

> <s_lp_Force_Field>
OPLS_2005

> <r_lp_Energy>
31.6916

> <b_lp_Chiralities_Consistent>
1

> <s_lp_Variant>
AV-unprocessed.smi:1033-23

> <Gold.Version>
5.8.1

> <Gold.Id.Protein>
6NUR|6NUR_protein|mol2

> <Gold.PLP.Fitness>
57.2785

> <Gold.PLP.PLP>
-55.7587

> <Gold.PLP.part.hbond>
-3.0000

> <Gold.PLP.part.metal>
0.0000

> <Gold.PLP.part.buried>
-3.5361

> <Gold.PLP.part.nonpolar>
-48.9767

> <Gold.PLP.part.repulsive>
0.0177

> <Gold.PLP.ligand.clash>
0.0000

> <Gold.PLP.ligand.torsion>
0.7776

> <Gold.PLP.Chemscore.Hbond>
1.0000

> <Gold.PLP.Chemscore.CHOScore>
0.0000

> <Gold.PLP.Chemscore.Metal>
0.0000

> <Gold.Chemscore.Hbonds>
donor molecule, donor type, donor heavy atom, donor atom, acceptor molecule, acceptor atom, score
      P1  H  7997  8008       L1    10  0.21

> <Gold.PLP.Chemscore.Internal.Correction>
0.0751

> <Gold.Rescore>
     Score         DG    S(hbond)    S(metal)    S(lipo)     H(rot)  DE(clash)    DE(int)     intcor
     15.34     -17.26       0.69        0.00     149.54       3.14       0.35       1.57       ----

> <Gold.Chemscore.Fitness>
15.3398

> <Gold.Chemscore.DG>
-17.2641

> <Gold.Chemscore.ZeroCoef>
-5.4800

> <Gold.Chemscore.Hbond>
0.6949

> <Gold.Chemscore.Metal>
0.0000

> <Gold.Chemscore.Lipo>
149.5419

> <Gold.Chemscore.Internal_Hbond>
0.0000

> <Gold.Chemscore.DEClash>
0.3526

> <Gold.Chemscore.DEInternal>
1.5717

> <Gold.Chemscore.Rot>
3.1380

> <Gold.Chemscore.Internal.Correction>
   9.000000E+99

> <Gold.Chemscore.Hbonds>
donor molecule, donor type, donor heavy atom, donor atom, acceptor molecule, acceptor atom, score
      P1  H  7997  8008       L1    10  0.09

> <Gold.Chemscore.Hbond.Weighted>
-2.3209

> <Gold.Chemscore.Metal.Weighted>
-0.0000

> <Gold.Chemscore.Lipo.Weighted>
-17.4964

> <Gold.Chemscore.Internal_Hbond.Weighted>
0.0000

> <Gold.Chemscore.DEClash.Weighted>
0.3526

> <Gold.Chemscore.DEInternal.Weighted>
1.5717

> <Gold.Chemscore.Rot.Weighted>
8.0332

> <Gold.Chemscore.Internal.Correction.Weighted>
   9.000000E+99

> <Gold.Protein.RotatedTorsions>
[ 6907 6896 6895 6894 ] final -136.40 input  -60.11 | X-H torsion
[ 7974 7965 7964 7962 ] final   57.10 input  175.53 | X-H torsion
[ 8008 7997 7996 7995 ] final -121.48 input   59.86 | X-H torsion
[ 10167 10162 10161 10158 ] final  -30.22 input  -65.29 | X-H torsion
[ 10718 10713 10712 10709 ] final   57.15 input   66.30 | X-H torsion
[ 10763 10752 10751 10750 ] final  -59.81 input  -60.55 | X-H torsion
[ 11005 11000 10999 10996 ] final  140.95 input  -57.11 | X-H torsion

> <Gold.Protein.ActiveResidues>
 VAL166  LYS551  ARG553  GLY616  TRP617  ASP618  TYR619  PRO620  LYS621  CYS622 
 ASP623  PHE694  ASN695  SER759  ASP760  ASP761  ALA762  ILE779  LEU786  VAL792 
 PHE793  MET794  SER795  GLU796  ALA797  LYS798  CYS799  TRP800  GLU811  SER814 

> <Gold.Protein.RotatedAtoms>
  151.0096  133.5978  159.2684 H   0  0  0  0  0  0  0  0  0  0  0  0  # atno 6907 bound_to 6896
  151.3134  135.0799  159.9290 H   0  0  0  0  0  0  0  0  0  0  0  0  # atno 6908 bound_to 6896
  152.5296  133.9757  159.7837 H   0  0  0  0  0  0  0  0  0  0  0  0  # atno 6909 bound_to 6896
  145.9327  139.3821  143.0411 H   0  0  0  0  0  0  0  0  0  0  0  0  # atno 7974 bound_to 7965
  155.1487  140.0403  157.2816 H   0  0  0  0  0  0  0  0  0  0  0  0  # atno 8008 bound_to 7997
  154.6420  140.2549  155.7285 H   0  0  0  0  0  0  0  0  0  0  0  0  # atno 8009 bound_to 7997
  156.2537  140.2854  156.0817 H   0  0  0  0  0  0  0  0  0  0  0  0  # atno 8010 bound_to 7997
  140.7252  143.3866  151.1505 H   0  0  0  0  0  0  0  0  0  0  0  0  # atno 10167 bound_to 10162
  157.5490  130.8752  149.8935 H   0  0  0  0  0  0  0  0  0  0  0  0  # atno 10718 bound_to 10713
  154.2594  135.6311  153.5269 H   0  0  0  0  0  0  0  0  0  0  0  0  # atno 10763 bound_to 10752
  152.9898  135.5584  154.5720 H   0  0  0  0  0  0  0  0  0  0  0  0  # atno 10764 bound_to 10752
  154.5266  135.2885  155.1192 H   0  0  0  0  0  0  0  0  0  0  0  0  # atno 10765 bound_to 10752
  140.0365  134.9326  157.0762 H   0  0  0  0  0  0  0  0  0  0  0  0  # atno 11005 bound_to 11000
  145.8405  140.9583  143.0802 LP  0  0  0  0  0  0  0  0  0  0  0  0  # atno 17320 bound_to 7965
  144.6767  140.0278  143.7483 LP  0  0  0  0  0  0  0  0  0  0  0  0  # atno 17321 bound_to 7965
  139.7464  143.8846  152.3064 LP  0  0  0  0  0  0  0  0  0  0  0  0  # atno 17342 bound_to 10162
  139.8684  144.7081  150.9016 LP  0  0  0  0  0  0  0  0  0  0  0  0  # atno 17343 bound_to 10162
  156.0560  130.3708  150.1089 LP  0  0  0  0  0  0  0  0  0  0  0  0  # atno 17370 bound_to 10713
  156.9264  130.9699  151.3540 LP  0  0  0  0  0  0  0  0  0  0  0  0  # atno 17371 bound_to 10713
  140.4139  134.1952  155.7163 LP  0  0  0  0  0  0  0  0  0  0  0  0  # atno 17394 bound_to 11000
  141.1860  133.8312  157.1084 LP  0  0  0  0  0  0  0  0  0  0  0  0  # atno 17395 bound_to 11000

$$$$
