AV-unprocessed.smi:3237|AV-procd|sdf|12366|dock8
  -GOLD-   2272018223D 1   1.00000     0.00000
 Structure written by MMmdl.
 37 39  0  0  0  0  0  0  0  0  2 V2000
  146.1531  129.5479  152.6673 C   0  0  0  0  0  0  0  0  0  0  0  0
  146.1914  130.9830  152.2677 C   0  0  0  0  0  0  0  0  0  0  0  0
  146.6764  132.1057  152.8772 C   0  0  0  0  0  0  0  0  0  0  0  0
  146.3774  133.1336  151.9361 C   0  0  0  0  0  0  0  0  0  0  0  0
  146.6792  134.5125  152.0758 N   0  0  0  0  0  0  0  0  0  0  0  0
  145.8728  135.5030  152.4924 C   0  0  0  0  0  0  0  0  0  0  0  0
  144.6983  135.3717  152.8368 O   0  0  0  0  0  0  0  0  0  0  0  0
  146.5057  136.6848  152.4768 N   0  0  0  0  0  0  0  0  0  0  0  0
  145.8971  137.9587  152.8465 C   0  0  1  0  0  0  0  0  0  0  0  0
  145.8481  138.1970  154.3555 C   0  0  0  0  0  0  0  0  0  0  0  0
  145.9081  139.7272  154.5066 C   0  0  0  0  0  0  0  0  0  0  0  0
  146.2136  140.2823  153.1667 N   0  3  1  0  0  0  0  0  0  0  0  0
  147.1182  141.4511  153.1831 C   0  0  0  0  0  0  0  0  0  0  0  0
  147.1156  142.1994  154.4947 C   0  0  0  0  0  0  0  0  0  0  0  0
  146.3953  142.7721  153.2933 C   0  0  0  0  0  0  0  0  0  0  0  0
  146.6976  139.1601  152.3445 C   0  0  0  0  0  0  0  0  0  0  0  0
  145.7787  132.6742  150.8531 N   0  0  0  0  0  0  0  0  0  0  0  0
  145.6494  131.2959  151.0600 O   0  0  0  0  0  0  0  0  0  0  0  0
  146.6586  129.3949  153.6210 H   0  0  0  0  0  0  0  0  0  0  0  0
  146.6459  128.9256  151.9201 H   0  0  0  0  0  0  0  0  0  0  0  0
  145.1241  129.2035  152.7708 H   0  0  0  0  0  0  0  0  0  0  0  0
  147.1645  132.1631  153.8384 H   0  0  0  0  0  0  0  0  0  0  0  0
  147.6123  134.7784  151.7975 H   0  0  0  0  0  0  0  0  0  0  0  0
  147.4717  136.7053  152.1831 H   0  0  0  0  0  0  0  0  0  0  0  0
  144.8806  138.0104  152.4502 H   0  0  0  0  0  0  0  0  0  0  0  0
  144.9567  137.7664  154.8133 H   0  0  0  0  0  0  0  0  0  0  0  0
  146.7177  137.7505  154.8403 H   0  0  0  0  0  0  0  0  0  0  0  0
  144.9573  140.1328  154.8541 H   0  0  0  0  0  0  0  0  0  0  0  0
  146.6722  140.0032  155.2352 H   0  0  0  0  0  0  0  0  0  0  0  0
  148.0313  141.3678  152.5960 H   0  0  0  0  0  0  0  0  0  0  0  0
  146.5056  141.8112  155.3083 H   0  0  0  0  0  0  0  0  0  0  0  0
  148.0415  142.6835  154.7982 H   0  0  0  0  0  0  0  0  0  0  0  0
  146.8472  143.6344  152.8072 H   0  0  0  0  0  0  0  0  0  0  0  0
  145.3069  142.7645  153.3090 H   0  0  0  0  0  0  0  0  0  0  0  0
  147.7650  139.0079  152.5171 H   0  0  0  0  0  0  0  0  0  0  0  0
  146.5483  139.3522  151.2814 H   0  0  0  0  0  0  0  0  0  0  0  0
  145.3334  140.5748  152.7666 H   0  0  0  0  0  0  0  0  0  0  0  0
  1  2  1  0  0  0  0
  1 19  1  0  0  0  0
  1 20  1  0  0  0  0
  1 21  1  0  0  0  0
  2 18  1  0  0  0  0
  2  3  2  0  0  0  0
  3  4  1  0  0  0  0
  3 22  1  0  0  0  0
  4  5  1  0  0  0  0
  4 17  2  0  0  0  0
  5  6  1  0  0  0  0
  5 23  1  0  0  0  0
  6  7  2  0  0  0  0
  6  8  1  0  0  0  0
  8  9  1  0  0  0  0
  8 24  1  0  0  0  0
  9 16  1  0  0  0  0
  9 10  1  0  0  0  0
  9 25  1  0  0  0  0
 10 11  1  0  0  0  0
 10 26  1  0  0  0  0
 10 27  1  0  0  0  0
 11 12  1  0  0  0  0
 11 28  1  0  0  0  0
 11 29  1  0  0  0  0
 12 13  1  0  0  0  0
 12 16  1  0  0  0  0
 12 37  1  0  0  0  0
 13 15  1  0  0  0  0
 13 14  1  0  0  0  0
 13 30  1  0  0  0  0
 14 15  1  0  0  0  0
 14 31  1  0  0  0  0
 14 32  1  0  0  0  0
 15 33  1  0  0  0  0
 15 34  1  0  0  0  0
 16 35  1  0  0  0  0
 16 36  1  0  0  0  0
 17 18  1  0  0  0  0
M  CHG  1  12   1
M  END
> <s_m_source_file>
AV-unprocessed.smi

> <i_m_source_file_index>
3237

> <i_lp_mmshare_version>
43012

> <i_f3d_flags>
0

> <s_epik_input>
W0NIM11jMVtjSF1jKG5vMSlbTkhdQyg9TylbTkhdW0NAQEhdMltDSDJdW0NIMl1OKFtDSDJdMilbQ0hdM1tDSDJdW0NIMl0z

> <s_epik_cmdline>
J2VwaWtfcHl0aG9uJywgJy1waCcsICc3LjAnLCAnLXRuJywgJzgnLCAnLW1hJywgJzIwMCcsICctbWV0YWxfYmluZGluZycsICctaW1hZScsICc8aW5maWxlLm1hZT4nLCAnLW9tYWUnLCAnPG91dGZpbGUubWFlPic=

> <r_epik_Ionization_Penalty>
0.000720579

> <r_epik_Ionization_Penalty_Charging>
0.000680516

> <r_epik_Ionization_Penalty_Neutral>
4.00628e-05

> <r_epik_State_Penalty>
0.000432256

> <r_epik_Charging_Adjusted_Penalty>
0.00111277

> <i_epik_Tot_Q>
1

> <i_epik_Tot_abs_Q>
1

> <r_epik_Metal_State_Penalty>
0.0255091

> <b_epik_Metal_Only>
0

> <s_lp_Force_Field>
OPLS_2005

> <r_lp_Energy>
35.1178

> <b_lp_Chiralities_Consistent>
1

> <s_lp_Variant>
AV-unprocessed.smi:3237-4

> <Gold.Version>
5.8.1

> <Gold.Id.Protein>
6NUR|6NUR_protein|mol2

> <Gold.PLP.Fitness>
38.3192

> <Gold.PLP.PLP>
-29.0194

> <Gold.PLP.part.hbond>
-3.0000

> <Gold.PLP.part.metal>
0.0000

> <Gold.PLP.part.buried>
-4.9072

> <Gold.PLP.part.nonpolar>
-21.0477

> <Gold.PLP.part.repulsive>
0.4246

> <Gold.PLP.ligand.clash>
0.0000

> <Gold.PLP.ligand.torsion>
1.8736

> <Gold.PLP.Chemscore.Hbond>
3.9280

> <Gold.PLP.Chemscore.CHOScore>
0.0000

> <Gold.PLP.Chemscore.Metal>
0.0000

> <Gold.Chemscore.Hbonds>
donor molecule, donor type, donor heavy atom, donor atom, acceptor molecule, acceptor atom, score
      L1  H     5    23       P1  7948  0.93
      L1  H     8    24       P1  7948  1.00
      L1  H    12    37       P1 10175  2.00

> <Gold.PLP.Chemscore.Internal.Correction>
1.2630

> <Gold.Rescore>
     Score         DG    S(hbond)    S(metal)    S(lipo)     H(rot)  DE(clash)    DE(int)     intcor
     16.28     -18.16       2.69        0.00      59.14       1.26       0.01       1.88       ----

> <Gold.Chemscore.Fitness>
16.2764

> <Gold.Chemscore.DG>
-18.1643

> <Gold.Chemscore.ZeroCoef>
-5.4800

> <Gold.Chemscore.Hbond>
2.6911

> <Gold.Chemscore.Metal>
0.0000

> <Gold.Chemscore.Lipo>
59.1434

> <Gold.Chemscore.Internal_Hbond>
0.0000

> <Gold.Chemscore.DEClash>
0.0120

> <Gold.Chemscore.DEInternal>
1.8760

> <Gold.Chemscore.Rot>
1.2593

> <Gold.Chemscore.Internal.Correction>
   9.000000E+99

> <Gold.Chemscore.Hbonds>
donor molecule, donor type, donor heavy atom, donor atom, acceptor molecule, acceptor atom, score
      L1  H     5    23       P1  7948  0.49
      L1  H     8    24       P1  7948  0.97
      L1  H    12    37       P1 10175  0.64

> <Gold.Chemscore.Hbond.Weighted>
-8.9882

> <Gold.Chemscore.Metal.Weighted>
-0.0000

> <Gold.Chemscore.Lipo.Weighted>
-6.9198

> <Gold.Chemscore.Internal_Hbond.Weighted>
0.0000

> <Gold.Chemscore.DEClash.Weighted>
0.0120

> <Gold.Chemscore.DEInternal.Weighted>
1.8760

> <Gold.Chemscore.Rot.Weighted>
3.2237

> <Gold.Chemscore.Internal.Correction.Weighted>
   9.000000E+99

> <Gold.Protein.RotatedTorsions>
[ 6907 6896 6895 6894 ] final  124.51 input  -60.11 | X-H torsion
[ 7974 7965 7964 7962 ] final  130.25 input  175.53 | X-H torsion
[ 8008 7997 7996 7995 ] final  104.44 input   59.86 | X-H torsion
[ 10167 10162 10161 10158 ] final -174.20 input  -65.29 | X-H torsion
[ 10718 10713 10712 10709 ] final  154.21 input   66.30 | X-H torsion
[ 10763 10752 10751 10750 ] final   88.34 input  -60.55 | X-H torsion
[ 11005 11000 10999 10996 ] final   12.79 input  -57.11 | X-H torsion

> <Gold.Protein.ActiveResidues>
 VAL166  LYS551  ARG553  GLY616  TRP617  ASP618  TYR619  PRO620  LYS621  CYS622 
 ASP623  PHE694  ASN695  SER759  ASP760  ASP761  ALA762  ILE779  LEU786  VAL792 
 PHE793  MET794  SER795  GLU796  ALA797  LYS798  CYS799  TRP800  GLU811  SER814 

> <Gold.Protein.RotatedAtoms>
  152.4072  133.6907  159.6366 H   0  0  0  0  0  0  0  0  0  0  0  0  # atno 6907 bound_to 6896
  150.7956  133.8688  159.3261 H   0  0  0  0  0  0  0  0  0  0  0  0  # atno 6908 bound_to 6896
  151.6439  135.1011  160.0198 H   0  0  0  0  0  0  0  0  0  0  0  0  # atno 6909 bound_to 6896
  145.0199  139.4141  143.5202 H   0  0  0  0  0  0  0  0  0  0  0  0  # atno 7974 bound_to 7965
  156.1573  140.3147  155.8748 H   0  0  0  0  0  0  0  0  0  0  0  0  # atno 8008 bound_to 7997
  155.3852  140.0490  157.3059 H   0  0  0  0  0  0  0  0  0  0  0  0  # atno 8009 bound_to 7997
  154.5113  140.2165  155.9161 H   0  0  0  0  0  0  0  0  0  0  0  0  # atno 8010 bound_to 7997
  139.5647  144.1785  152.1293 H   0  0  0  0  0  0  0  0  0  0  0  0  # atno 10167 bound_to 10162
  157.2346  131.0746  151.1831 H   0  0  0  0  0  0  0  0  0  0  0  0  # atno 10718 bound_to 10713
  153.1759  135.4510  154.9964 H   0  0  0  0  0  0  0  0  0  0  0  0  # atno 10763 bound_to 10752
  154.7997  135.3251  154.7582 H   0  0  0  0  0  0  0  0  0  0  0  0  # atno 10764 bound_to 10752
  153.8052  135.6959  153.4904 H   0  0  0  0  0  0  0  0  0  0  0  0  # atno 10765 bound_to 10752
  140.4880  134.0869  155.7765 H   0  0  0  0  0  0  0  0  0  0  0  0  # atno 11005 bound_to 11000
  146.3484  139.9691  142.8708 LP  0  0  0  0  0  0  0  0  0  0  0  0  # atno 17320 bound_to 7965
  145.1909  140.9811  143.4211 LP  0  0  0  0  0  0  0  0  0  0  0  0  # atno 17321 bound_to 7965
  140.1305  144.5292  150.6805 LP  0  0  0  0  0  0  0  0  0  0  0  0  # atno 17342 bound_to 10162
  140.6929  143.2387  151.5080 LP  0  0  0  0  0  0  0  0  0  0  0  0  # atno 17343 bound_to 10162
  157.3442  130.7049  149.6400 LP  0  0  0  0  0  0  0  0  0  0  0  0  # atno 17370 bound_to 10713
  155.9673  130.4271  150.4728 LP  0  0  0  0  0  0  0  0  0  0  0  0  # atno 17371 bound_to 10713
  141.1498  133.8989  157.2125 LP  0  0  0  0  0  0  0  0  0  0  0  0  # atno 17394 bound_to 11000
  139.9786  135.0105  156.9694 LP  0  0  0  0  0  0  0  0  0  0  0  0  # atno 17395 bound_to 11000

$$$$
