AV-unprocessed.smi:1016|AV-procd|sdf|4437|dock1
  -GOLD-   22720 2393D 1   1.00000     0.00000
 Structure written by MMmdl.
 39 40  0  0  0  0  0  0  0  0  2 V2000
  151.8854  143.1888  159.9595 C   0  0  0  0  0  0  0  0  0  0  0  0
  151.6946  142.3950  158.7013 C   0  0  0  0  0  0  0  0  0  0  0  0
  151.2618  142.9898  157.4513 C   0  0  0  0  0  0  0  0  0  0  0  0
  151.1164  142.2065  156.3611 C   0  0  0  0  0  0  0  0  0  0  0  0
  151.3786  140.7697  156.4068 C   0  0  0  0  0  0  0  0  0  0  0  0
  151.2502  140.0290  155.4326 O   0  0  0  0  0  0  0  0  0  0  0  0
  151.7716  140.3221  157.6365 N   0  0  0  0  0  0  0  0  0  0  0  0
  152.0275  138.8931  157.8827 C   0  0  0  0  0  0  0  0  0  0  0  0
  153.2644  138.5996  158.7510 C   0  0  0  0  0  0  0  0  0  0  0  0
  154.3581  139.0074  158.3643 O   0  0  0  0  0  0  0  0  0  0  0  0
  153.0650  137.9065  159.8904 N   0  0  0  0  0  0  0  0  0  0  0  0
  153.9742  137.4365  160.9460 C   0  0  0  0  0  0  0  0  0  0  0  0
  154.8091  136.3138  160.2776 C   0  0  0  0  0  0  0  0  0  0  0  0
  154.1971  135.3482  159.7689 O   0  0  0  0  0  0  0  0  0  0  0  0
  156.0566  136.4093  160.3240 O   0  5  0  0  0  0  0  0  0  0  0  0
  154.8927  138.5411  161.5598 C   0  0  0  0  0  0  0  0  0  0  0  0
  155.7048  138.0513  162.7750 C   0  0  0  0  0  0  0  0  0  0  0  0
  154.7841  137.4845  163.8650 C   0  0  0  0  0  0  0  0  0  0  0  0
  153.8833  136.3743  163.3061 C   0  0  0  0  0  0  0  0  0  0  0  0
  153.0811  136.8680  162.0861 C   0  0  0  0  0  0  0  0  0  0  0  0
  151.9320  141.1256  158.7539 N   0  0  0  0  0  0  0  0  0  0  0  0
  151.6513  144.2418  159.8012 H   0  0  0  0  0  0  0  0  0  0  0  0
  152.9171  143.1244  160.3065 H   0  0  0  0  0  0  0  0  0  0  0  0
  151.2367  142.8183  160.7537 H   0  0  0  0  0  0  0  0  0  0  0  0
  151.0598  144.0495  157.4013 H   0  0  0  0  0  0  0  0  0  0  0  0
  150.7930  142.6503  155.4311 H   0  0  0  0  0  0  0  0  0  0  0  0
  151.1571  138.4237  158.3443 H   0  0  0  0  0  0  0  0  0  0  0  0
  152.1590  138.3760  156.9306 H   0  0  0  0  0  0  0  0  0  0  0  0
  152.1056  137.6334  160.0476 H   0  0  0  0  0  0  0  0  0  0  0  0
  155.5724  138.9524  160.8121 H   0  0  0  0  0  0  0  0  0  0  0  0
  154.2784  139.3759  161.8990 H   0  0  0  0  0  0  0  0  0  0  0  0
  156.4242  137.2913  162.4686 H   0  0  0  0  0  0  0  0  0  0  0  0
  156.2902  138.8762  163.1817 H   0  0  0  0  0  0  0  0  0  0  0  0
  155.3790  137.1007  164.6941 H   0  0  0  0  0  0  0  0  0  0  0  0
  154.1654  138.2851  164.2720 H   0  0  0  0  0  0  0  0  0  0  0  0
  154.4905  135.5108  163.0326 H   0  0  0  0  0  0  0  0  0  0  0  0
  153.1988  136.0307  164.0819 H   0  0  0  0  0  0  0  0  0  0  0  0
  152.3931  137.6470  162.4186 H   0  0  0  0  0  0  0  0  0  0  0  0
  152.4429  136.0618  161.7209 H   0  0  0  0  0  0  0  0  0  0  0  0
  1  2  1  0  0  0  0
  1 22  1  0  0  0  0
  1 23  1  0  0  0  0
  1 24  1  0  0  0  0
  2 21  2  0  0  0  0
  2  3  1  0  0  0  0
  3  4  2  0  0  0  0
  3 25  1  0  0  0  0
  4  5  1  0  0  0  0
  4 26  1  0  0  0  0
  5  6  2  0  0  0  0
  5  7  1  0  0  0  0
  7  8  1  0  0  0  0
  7 21  1  0  0  0  0
  8  9  1  0  0  0  0
  8 27  1  0  0  0  0
  8 28  1  0  0  0  0
  9 10  2  0  0  0  0
  9 11  1  0  0  0  0
 11 12  1  0  0  0  0
 11 29  1  0  0  0  0
 12 20  1  0  0  0  0
 12 13  1  0  0  0  0
 12 16  1  0  0  0  0
 13 14  2  0  0  0  0
 13 15  1  0  0  0  0
 16 17  1  0  0  0  0
 16 30  1  0  0  0  0
 16 31  1  0  0  0  0
 17 18  1  0  0  0  0
 17 32  1  0  0  0  0
 17 33  1  0  0  0  0
 18 19  1  0  0  0  0
 18 34  1  0  0  0  0
 18 35  1  0  0  0  0
 19 20  1  0  0  0  0
 19 36  1  0  0  0  0
 19 37  1  0  0  0  0
 20 38  1  0  0  0  0
 20 39  1  0  0  0  0
M  CHG  1  15  -1
M  END
> <s_m_source_file>
AV-unprocessed.smi

> <i_m_source_file_index>
1016

> <i_lp_mmshare_version>
43012

> <i_f3d_flags>
0

> <s_epik_input>
W0NIM11jMVtjSF1bY0hdYyg9TyluKG4xKVtDSDJdQyg9TylbTkhdQzIoQyg9TylbT0hdKVtDSDJdW0NIMl1bQ0gyXVtDSDJdW0NIMl0y

> <s_epik_cmdline>
J2VwaWtfcHl0aG9uJywgJy1waCcsICc3LjAnLCAnLXRuJywgJzgnLCAnLW1hJywgJzIwMCcsICctbWV0YWxfYmluZGluZycsICctaW1hZScsICc8aW5maWxlLm1hZT4nLCAnLW9tYWUnLCAnPG91dGZpbGUubWFlPic=

> <r_lp_tautomer_probability>
1

> <r_epik_Ionization_Penalty>
0.000398047

> <r_epik_Ionization_Penalty_Charging>
0.000398029

> <r_epik_Ionization_Penalty_Neutral>
1.87077e-08

> <r_epik_State_Penalty>
0.000243291

> <r_epik_Charging_Adjusted_Penalty>
0.00064132

> <i_epik_Tot_Q>
-1

> <i_epik_Tot_abs_Q>
1

> <r_epik_Metal_State_Penalty>
-0

> <b_epik_Metal_Only>
0

> <s_lp_Force_Field>
OPLS_2005

> <r_lp_Energy>
18.8649

> <b_lp_Chiralities_Consistent>
1

> <s_lp_Variant>
AV-unprocessed.smi:1016-1

> <Gold.Version>
5.8.1

> <Gold.Id.Protein>
6NUR|6NUR_protein|mol2

> <Gold.PLP.Fitness>
41.4646

> <Gold.PLP.PLP>
-30.8417

> <Gold.PLP.part.hbond>
-2.6472

> <Gold.PLP.part.metal>
0.0000

> <Gold.PLP.part.buried>
-4.6917

> <Gold.PLP.part.nonpolar>
-23.2107

> <Gold.PLP.part.repulsive>
0.1071

> <Gold.PLP.ligand.clash>
0.0000

> <Gold.PLP.ligand.torsion>
0.3739

> <Gold.PLP.Chemscore.Hbond>
3.7713

> <Gold.PLP.Chemscore.CHOScore>
0.0000

> <Gold.PLP.Chemscore.Metal>
0.0000

> <Gold.Chemscore.Hbonds>
donor molecule, donor type, donor heavy atom, donor atom, acceptor molecule, acceptor atom, score
      P1  H  6896  6908       L1    14  2.00
      P1  H  7989  7998       L1     6  0.73
      P1  H  7997  8009       L1    10  1.00

> <Gold.PLP.Chemscore.Internal.Correction>
0.0570

> <Gold.Rescore>
     Score         DG    S(hbond)    S(metal)    S(lipo)     H(rot)  DE(clash)    DE(int)     intcor
     17.27     -18.99       2.87        0.00      79.18       2.09       0.13       1.58       ----

> <Gold.Chemscore.Fitness>
17.2675

> <Gold.Chemscore.DG>
-18.9871

> <Gold.Chemscore.ZeroCoef>
-5.4800

> <Gold.Chemscore.Hbond>
2.8735

> <Gold.Chemscore.Metal>
0.0000

> <Gold.Chemscore.Lipo>
79.1845

> <Gold.Chemscore.Internal_Hbond>
0.0000

> <Gold.Chemscore.DEClash>
0.1349

> <Gold.Chemscore.DEInternal>
1.5848

> <Gold.Chemscore.Rot>
2.0918

> <Gold.Chemscore.Internal.Correction>
   9.000000E+99

> <Gold.Chemscore.Hbonds>
donor molecule, donor type, donor heavy atom, donor atom, acceptor molecule, acceptor atom, score
      P1  H  6896  6908       L1    14  1.00
      P1  H  7989  7998       L1     6  0.67
      P1  H  7997  8009       L1    10  0.95

> <Gold.Chemscore.Hbond.Weighted>
-9.5975

> <Gold.Chemscore.Metal.Weighted>
-0.0000

> <Gold.Chemscore.Lipo.Weighted>
-9.2646

> <Gold.Chemscore.Internal_Hbond.Weighted>
0.0000

> <Gold.Chemscore.DEClash.Weighted>
0.1349

> <Gold.Chemscore.DEInternal.Weighted>
1.5848

> <Gold.Chemscore.Rot.Weighted>
5.3549

> <Gold.Chemscore.Internal.Correction.Weighted>
   9.000000E+99

> <Gold.Protein.RotatedTorsions>
[ 6907 6896 6895 6894 ] final  -50.21 input  -60.11 | X-H torsion
[ 7974 7965 7964 7962 ] final -177.62 input  175.53 | X-H torsion
[ 8008 7997 7996 7995 ] final  113.67 input   59.86 | X-H torsion
[ 10167 10162 10161 10158 ] final -148.32 input  -65.29 | X-H torsion
[ 10718 10713 10712 10709 ] final  154.58 input   66.30 | X-H torsion
[ 10763 10752 10751 10750 ] final  165.34 input  -60.55 | X-H torsion
[ 11005 11000 10999 10996 ] final  -20.68 input  -57.11 | X-H torsion

> <Gold.Protein.ActiveResidues>
 VAL166  LYS551  ARG553  GLY616  TRP617  ASP618  TYR619  PRO620  LYS621  CYS622 
 ASP623  PHE694  ASN695  SER759  ASP760  ASP761  ALA762  ILE779  LEU786  VAL792 
 PHE793  MET794  SER795  GLU796  ALA797  LYS798  CYS799  TRP800  GLU811  SER814 

> <Gold.Protein.RotatedAtoms>
  150.8729  134.8106  159.7167 H   0  0  0  0  0  0  0  0  0  0  0  0  # atno 6907 bound_to 6896
  152.4727  134.4918  159.9707 H   0  0  0  0  0  0  0  0  0  0  0  0  # atno 6908 bound_to 6896
  151.5004  133.3467  159.2903 H   0  0  0  0  0  0  0  0  0  0  0  0  # atno 6909 bound_to 6896
  144.7128  140.0992  143.6417 H   0  0  0  0  0  0  0  0  0  0  0  0  # atno 7974 bound_to 7965
  156.2273  140.2975  156.0098 H   0  0  0  0  0  0  0  0  0  0  0  0  # atno 8008 bound_to 7997
  155.2323  140.0419  157.2981 H   0  0  0  0  0  0  0  0  0  0  0  0  # atno 8009 bound_to 7997
  154.5936  140.2408  155.7895 H   0  0  0  0  0  0  0  0  0  0  0  0  # atno 8010 bound_to 7997
  139.7542  143.8473  152.2593 H   0  0  0  0  0  0  0  0  0  0  0  0  # atno 10167 bound_to 10162
  157.2298  131.0736  151.1860 H   0  0  0  0  0  0  0  0  0  0  0  0  # atno 10718 bound_to 10713
  154.3225  135.2755  155.2512 H   0  0  0  0  0  0  0  0  0  0  0  0  # atno 10763 bound_to 10752
  154.4860  135.5846  153.6427 H   0  0  0  0  0  0  0  0  0  0  0  0  # atno 10764 bound_to 10752
  152.9875  135.6123  154.3411 H   0  0  0  0  0  0  0  0  0  0  0  0  # atno 10765 bound_to 10752
  140.8488  133.7872  155.9943 H   0  0  0  0  0  0  0  0  0  0  0  0  # atno 11005 bound_to 11000
  145.9552  139.2762  143.1188 LP  0  0  0  0  0  0  0  0  0  0  0  0  # atno 17320 bound_to 7965
  145.9280  140.9069  143.0371 LP  0  0  0  0  0  0  0  0  0  0  0  0  # atno 17321 bound_to 7965
  139.8460  144.7187  150.9272 LP  0  0  0  0  0  0  0  0  0  0  0  0  # atno 17342 bound_to 10162
  140.7801  143.3941  151.1260 LP  0  0  0  0  0  0  0  0  0  0  0  0  # atno 17343 bound_to 10162
  157.3490  130.7072  149.6429 LP  0  0  0  0  0  0  0  0  0  0  0  0  # atno 17370 bound_to 10713
  155.9676  130.4258  150.4669 LP  0  0  0  0  0  0  0  0  0  0  0  0  # atno 17371 bound_to 10713
  140.8813  134.2608  157.5142 LP  0  0  0  0  0  0  0  0  0  0  0  0  # atno 17394 bound_to 11000
  139.8704  134.9616  156.4403 LP  0  0  0  0  0  0  0  0  0  0  0  0  # atno 17395 bound_to 11000

$$$$
