AV-unprocessed.smi:239|AV-procd|sdf|1821|dock9
  -GOLD-   2262020413D 1   1.00000     0.00000
 Structure written by MMmdl.
 54 58  0  0  0  0  0  0  0  0  1 V2000
  151.5694  144.8463  158.3247 C   0  0  0  0  0  0  0  0  0  0  0  0
  151.3129  143.3405  158.4450 C   0  0  1  0  0  0  0  0  0  0  0  0
  151.2004  142.6620  157.0679 C   0  0  0  0  0  0  0  0  0  0  0  0
  151.0690  141.2160  157.2267 N   0  0  0  0  0  0  0  0  0  0  0  0
  150.7133  140.4839  156.1398 C   0  0  0  0  0  0  0  0  0  0  0  0
  151.5943  139.5989  155.6001 N   0  0  0  0  0  0  0  0  0  0  0  0
  151.2526  138.8674  154.5356 C   0  0  0  0  0  0  0  0  0  0  0  0
  150.1028  138.8646  153.8596 N   0  0  0  0  0  0  0  0  0  0  0  0
  149.2176  139.7578  154.3866 C   0  0  0  0  0  0  0  0  0  0  0  0
  149.4376  140.5967  155.5161 C   0  0  0  0  0  0  0  0  0  0  0  0
  148.3096  141.3748  155.7510 N   0  0  0  0  0  0  0  0  0  0  0  0
  147.4685  141.0078  154.8233 C   0  0  0  0  0  0  0  0  0  0  0  0
  147.9357  140.0490  153.9531 N   0  0  0  0  0  0  0  0  0  0  0  0
  147.2180  139.4671  152.8285 C   0  0  0  0  0  0  0  0  0  0  0  0
  146.5280  138.1172  153.1489 C   0  0  0  0  0  0  0  0  0  0  0  0
  147.5199  137.2260  153.6280 O   0  0  0  0  0  0  0  0  0  0  0  0
  145.4693  138.3052  154.2544 C   0  0  0  0  0  0  0  0  0  0  0  0
  144.6389  137.0303  154.4870 C   0  0  0  0  0  0  0  0  0  0  0  0
  144.0416  136.6106  153.2664 O   0  0  0  0  0  0  0  0  0  0  0  0
  145.0013  136.2577  152.2780 C   0  0  0  0  0  0  0  0  0  0  0  0
  145.8592  137.4815  151.9104 C   0  0  0  0  0  0  0  0  0  0  0  0
  152.1267  140.6331  158.0459 C   0  0  0  0  0  0  0  0  0  0  0  0
  152.2168  141.3624  159.3989 C   0  0  1  0  0  0  0  0  0  0  0  0
  153.3486  140.8145  160.2522 C   0  0  0  0  0  0  0  0  0  0  0  0
  154.0559  141.6822  161.2715 C   0  0  0  0  0  0  0  0  0  0  0  0
  154.7824  141.2439  160.0259 C   0  0  0  0  0  0  0  0  0  0  0  0
  152.3973  142.7583  159.1623 O   0  0  0  0  0  0  0  0  0  0  0  0
  150.7591  145.3407  157.7886 H   0  0  0  0  0  0  0  0  0  0  0  0
  152.4971  145.0469  157.7879 H   0  0  0  0  0  0  0  0  0  0  0  0
  151.6474  145.3083  159.3093 H   0  0  0  0  0  0  0  0  0  0  0  0
  150.3894  143.1883  159.0065 H   0  0  0  0  0  0  0  0  0  0  0  0
  150.3366  143.0596  156.5330 H   0  0  0  0  0  0  0  0  0  0  0  0
  152.0856  142.8812  156.4687 H   0  0  0  0  0  0  0  0  0  0  0  0
  152.0090  138.1865  154.1741 H   0  0  0  0  0  0  0  0  0  0  0  0
  146.4805  141.4368  154.7410 H   0  0  0  0  0  0  0  0  0  0  0  0
  146.4830  140.1935  152.4787 H   0  0  0  0  0  0  0  0  0  0  0  0
  147.9272  139.3381  152.0098 H   0  0  0  0  0  0  0  0  0  0  0  0
  148.2114  137.1723  152.9863 H   0  0  0  0  0  0  0  0  0  0  0  0
  145.9399  138.6203  155.1866 H   0  0  0  0  0  0  0  0  0  0  0  0
  144.7899  139.1098  153.9697 H   0  0  0  0  0  0  0  0  0  0  0  0
  145.2523  136.2286  154.9006 H   0  0  0  0  0  0  0  0  0  0  0  0
  143.8499  137.2281  155.2127 H   0  0  0  0  0  0  0  0  0  0  0  0
  145.6228  135.4350  152.6352 H   0  0  0  0  0  0  0  0  0  0  0  0
  144.4763  135.8933  151.3949 H   0  0  0  0  0  0  0  0  0  0  0  0
  145.2186  138.2215  151.4292 H   0  0  0  0  0  0  0  0  0  0  0  0
  146.6051  137.1923  151.1693 H   0  0  0  0  0  0  0  0  0  0  0  0
  151.9583  139.5708  158.2180 H   0  0  0  0  0  0  0  0  0  0  0  0
  153.0735  140.7193  157.5109 H   0  0  0  0  0  0  0  0  0  0  0  0
  151.2896  141.2151  159.9557 H   0  0  0  0  0  0  0  0  0  0  0  0
  153.2081  139.7739  160.5390 H   0  0  0  0  0  0  0  0  0  0  0  0
  153.7691  142.7296  161.3424 H   0  0  0  0  0  0  0  0  0  0  0  0
  154.3436  141.2158  162.2115 H   0  0  0  0  0  0  0  0  0  0  0  0
  155.5543  140.4848  160.1342 H   0  0  0  0  0  0  0  0  0  0  0  0
  154.9771  141.9979  159.2659 H   0  0  0  0  0  0  0  0  0  0  0  0
  1  2  1  0  0  0  0
  1 28  1  0  0  0  0
  1 29  1  0  0  0  0
  1 30  1  0  0  0  0
  2 27  1  0  0  0  0
  2  3  1  0  0  0  0
  2 31  1  0  0  0  0
  3  4  1  0  0  0  0
  3 32  1  0  0  0  0
  3 33  1  0  0  0  0
  4  5  1  0  0  0  0
  4 22  1  0  0  0  0
  5 10  1  0  0  0  0
  5  6  2  0  0  0  0
  6  7  1  0  0  0  0
  7  8  2  0  0  0  0
  7 34  1  0  0  0  0
  8  9  1  0  0  0  0
  9 13  1  0  0  0  0
  9 10  2  0  0  0  0
 10 11  1  0  0  0  0
 11 12  2  0  0  0  0
 12 13  1  0  0  0  0
 12 35  1  0  0  0  0
 13 14  1  0  0  0  0
 14 15  1  0  0  0  0
 14 36  1  0  0  0  0
 14 37  1  0  0  0  0
 15 21  1  0  0  0  0
 15 16  1  0  0  0  0
 15 17  1  0  0  0  0
 16 38  1  0  0  0  0
 17 18  1  0  0  0  0
 17 39  1  0  0  0  0
 17 40  1  0  0  0  0
 18 19  1  0  0  0  0
 18 41  1  0  0  0  0
 18 42  1  0  0  0  0
 19 20  1  0  0  0  0
 20 21  1  0  0  0  0
 20 43  1  0  0  0  0
 20 44  1  0  0  0  0
 21 45  1  0  0  0  0
 21 46  1  0  0  0  0
 22 23  1  0  0  0  0
 22 47  1  0  0  0  0
 22 48  1  0  0  0  0
 23 24  1  0  0  0  0
 23 27  1  0  0  0  0
 23 49  1  0  0  0  0
 24 26  1  0  0  0  0
 24 25  1  0  0  0  0
 24 50  1  0  0  0  0
 25 26  1  0  0  0  0
 25 51  1  0  0  0  0
 25 52  1  0  0  0  0
 26 53  1  0  0  0  0
 26 54  1  0  0  0  0
M  END
> <s_m_source_file>
AV-unprocessed.smi

> <i_m_source_file_index>
239

> <i_lp_mmshare_version>
43012

> <i_f3d_flags>
0

> <s_epik_input>
W0NIMl0xW0NIMl1bQ0hdMVtDQEBIXShPMilbQ0gyXU4oW0NIMl1bQ0BIXTJbQ0gzXSljKG5bY0hdbjMpYyhjMzQpbltjSF1uNFtDSDJdQzUoW09IXSlbQ0gyXVtDSDJdT1tDSDJdW0NIMl01

> <s_epik_cmdline>
J2VwaWtfcHl0aG9uJywgJy1waCcsICc3LjAnLCAnLXRuJywgJzgnLCAnLW1hJywgJzIwMCcsICctbWV0YWxfYmluZGluZycsICctaW1hZScsICc8aW5maWxlLm1hZT4nLCAnLW9tYWUnLCAnPG91dGZpbGUubWFlPic=

> <r_lp_tautomer_probability>
1

> <r_epik_Ionization_Penalty>
9.13091e-05

> <r_epik_Ionization_Penalty_Charging>
0

> <r_epik_Ionization_Penalty_Neutral>
9.13091e-05

> <r_epik_State_Penalty>
-0

> <r_epik_Charging_Adjusted_Penalty>
0

> <i_epik_Tot_Q>
0

> <i_epik_Tot_abs_Q>
0

> <r_epik_Metal_State_Penalty>
-0

> <b_epik_Metal_Only>
0

> <s_lp_Force_Field>
OPLS_2005

> <r_lp_Energy>
35.8814

> <b_lp_Chiralities_Consistent>
1

> <s_lp_Variant>
AV-unprocessed.smi:239-2

> <Gold.Version>
5.8.1

> <Gold.Id.Protein>
6NUR|6NUR_protein|mol2

> <Gold.PLP.Fitness>
45.3839

> <Gold.PLP.PLP>
-43.5239

> <Gold.PLP.part.hbond>
-1.0000

> <Gold.PLP.part.metal>
0.0000

> <Gold.PLP.part.buried>
-4.6500

> <Gold.PLP.part.nonpolar>
-39.4137

> <Gold.PLP.part.repulsive>
1.0950

> <Gold.PLP.ligand.clash>
0.0000

> <Gold.PLP.ligand.torsion>
1.2509

> <Gold.PLP.Chemscore.Hbond>
0.9920

> <Gold.PLP.Chemscore.CHOScore>
0.0000

> <Gold.PLP.Chemscore.Metal>
0.0000

> <Gold.Chemscore.Hbonds>
donor molecule, donor type, donor heavy atom, donor atom, acceptor molecule, acceptor atom, score
      L1  H    16    38       P1  7948  0.93

> <Gold.PLP.Chemscore.Internal.Correction>
1.3858

> <Gold.Rescore>
     Score         DG    S(hbond)    S(metal)    S(lipo)     H(rot)  DE(clash)    DE(int)     intcor
     13.93     -15.17       1.00        0.00     103.37       2.24       0.03       1.21       ----

> <Gold.Chemscore.Fitness>
13.9287

> <Gold.Chemscore.DG>
-15.1674

> <Gold.Chemscore.ZeroCoef>
-5.4800

> <Gold.Chemscore.Hbond>
0.9954

> <Gold.Chemscore.Metal>
0.0000

> <Gold.Chemscore.Lipo>
103.3657

> <Gold.Chemscore.Internal_Hbond>
0.0000

> <Gold.Chemscore.DEClash>
0.0266

> <Gold.Chemscore.DEInternal>
1.2120

> <Gold.Chemscore.Rot>
2.2387

> <Gold.Chemscore.Internal.Correction>
   9.000000E+99

> <Gold.Chemscore.Hbonds>
donor molecule, donor type, donor heavy atom, donor atom, acceptor molecule, acceptor atom, score
      L1  H    16    38       P1  7948  0.91

> <Gold.Chemscore.Hbond.Weighted>
-3.3247

> <Gold.Chemscore.Metal.Weighted>
-0.0000

> <Gold.Chemscore.Lipo.Weighted>
-12.0938

> <Gold.Chemscore.Internal_Hbond.Weighted>
0.0000

> <Gold.Chemscore.DEClash.Weighted>
0.0266

> <Gold.Chemscore.DEInternal.Weighted>
1.2120

> <Gold.Chemscore.Rot.Weighted>
5.7311

> <Gold.Chemscore.Internal.Correction.Weighted>
   9.000000E+99

> <Gold.Protein.RotatedTorsions>
[ 6907 6896 6895 6894 ] final  -45.31 input  -60.11 | X-H torsion
[ 7974 7965 7964 7962 ] final  133.26 input  175.53 | X-H torsion
[ 8008 7997 7996 7995 ] final -116.32 input   59.86 | X-H torsion
[ 10167 10162 10161 10158 ] final -168.79 input  -65.29 | X-H torsion
[ 10718 10713 10712 10709 ] final  177.55 input   66.30 | X-H torsion
[ 10763 10752 10751 10750 ] final  -74.46 input  -60.55 | X-H torsion
[ 11005 11000 10999 10996 ] final  -34.29 input  -57.11 | X-H torsion

> <Gold.Protein.ActiveResidues>
 VAL166  LYS551  ARG553  GLY616  TRP617  ASP618  TYR619  PRO620  LYS621  CYS622 
 ASP623  PHE694  ASN695  SER759  ASP760  ASP761  ALA762  ILE779  LEU786  VAL792 
 PHE793  MET794  SER795  GLU796  ALA797  LYS798  CYS799  TRP800  GLU811  SER814 

> <Gold.Protein.RotatedAtoms>
  150.9233  134.8651  159.7503 H   0  0  0  0  0  0  0  0  0  0  0  0  # atno 6907 bound_to 6896
  152.5003  134.4185  159.9482 H   0  0  0  0  0  0  0  0  0  0  0  0  # atno 6908 bound_to 6896
  151.4218  133.3656  159.2792 H   0  0  0  0  0  0  0  0  0  0  0  0  # atno 6909 bound_to 6896
  144.9883  139.4432  143.5352 H   0  0  0  0  0  0  0  0  0  0  0  0  # atno 7974 bound_to 7965
  155.0660  140.0393  157.2592 H   0  0  0  0  0  0  0  0  0  0  0  0  # atno 8008 bound_to 7997
  154.7021  140.2675  155.6685 H   0  0  0  0  0  0  0  0  0  0  0  0  # atno 8009 bound_to 7997
  156.2763  140.2738  156.1635 H   0  0  0  0  0  0  0  0  0  0  0  0  # atno 8010 bound_to 7997
  139.5963  144.1106  152.1692 H   0  0  0  0  0  0  0  0  0  0  0  0  # atno 10167 bound_to 10162
  156.9037  130.9887  151.3031 H   0  0  0  0  0  0  0  0  0  0  0  0  # atno 10718 bound_to 10713
  154.4733  135.5864  153.6337 H   0  0  0  0  0  0  0  0  0  0  0  0  # atno 10763 bound_to 10752
  152.9837  135.6072  154.3339 H   0  0  0  0  0  0  0  0  0  0  0  0  # atno 10764 bound_to 10752
  154.3223  135.2843  155.2493 H   0  0  0  0  0  0  0  0  0  0  0  0  # atno 10765 bound_to 10752
  140.9704  133.7112  156.1515 H   0  0  0  0  0  0  0  0  0  0  0  0  # atno 11005 bound_to 11000
  146.3425  139.9199  142.8768 LP  0  0  0  0  0  0  0  0  0  0  0  0  # atno 17320 bound_to 7965
  145.2322  140.9977  143.3984 LP  0  0  0  0  0  0  0  0  0  0  0  0  # atno 17321 bound_to 7965
  140.0692  144.5793  150.7205 LP  0  0  0  0  0  0  0  0  0  0  0  0  # atno 17342 bound_to 10162
  140.7214  143.2593  151.4265 LP  0  0  0  0  0  0  0  0  0  0  0  0  # atno 17343 bound_to 10162
  157.6010  130.8512  149.8802 LP  0  0  0  0  0  0  0  0  0  0  0  0  # atno 17370 bound_to 10713
  156.0569  130.3707  150.1070 LP  0  0  0  0  0  0  0  0  0  0  0  0  # atno 17371 bound_to 10713
  140.7337  134.4227  157.5563 LP  0  0  0  0  0  0  0  0  0  0  0  0  # atno 17394 bound_to 11000
  139.8910  134.8790  156.2340 LP  0  0  0  0  0  0  0  0  0  0  0  0  # atno 17395 bound_to 11000

$$$$
