AV-unprocessed.smi:3165|AV-procd|sdf|12092|dock6
  -GOLD-   2272017523D 1   1.00000     0.00000
 Structure written by MMmdl.
 37 38  0  0  0  0  0  0  0  0  1 V2000
  148.6249  141.7633  154.0691 C   0  0  0  0  0  0  0  0  0  0  0  0
  148.8317  141.2605  155.5067 C   0  0  1  0  0  0  0  0  0  0  0  0
  149.1009  139.7351  155.5662 C   0  0  0  0  0  0  0  0  0  0  0  0
  150.4210  139.3496  155.0921 N   0  0  0  0  0  0  0  0  0  0  0  0
  150.7453  138.4950  154.0588 C   0  0  0  0  0  0  0  0  0  0  0  0
  152.1076  138.4393  153.9881 C   0  0  0  0  0  0  0  0  0  0  0  0
  152.5352  139.3006  155.0367 C   0  0  0  0  0  0  0  0  0  0  0  0
  151.5242  139.8397  155.6983 N   0  0  0  0  0  0  0  0  0  0  0  0
  149.8810  142.0576  156.1513 N   0  0  0  0  0  0  0  0  0  0  0  0
  150.0629  141.8267  157.5844 C   0  0  0  0  0  0  0  0  0  0  0  0
  151.1435  142.7533  158.1614 C   0  0  1  0  0  0  0  0  0  0  0  0
  150.8159  144.2473  157.9580 C   0  0  0  0  0  0  0  0  0  0  0  0
  151.8772  145.1272  158.6281 C   0  0  0  0  0  0  0  0  0  0  0  0
  152.0378  144.7165  160.0953 C   0  0  0  0  0  0  0  0  0  0  0  0
  152.2892  143.2040  160.2019 C   0  0  0  0  0  0  0  0  0  0  0  0
  151.2370  142.4896  159.5595 O   0  0  0  0  0  0  0  0  0  0  0  0
  147.8463  141.1930  153.5621 H   0  0  0  0  0  0  0  0  0  0  0  0
  149.5371  141.6824  153.4768 H   0  0  0  0  0  0  0  0  0  0  0  0
  148.3214  142.8106  154.0617 H   0  0  0  0  0  0  0  0  0  0  0  0
  147.8966  141.4395  156.0390 H   0  0  0  0  0  0  0  0  0  0  0  0
  148.9548  139.3383  156.5711 H   0  0  0  0  0  0  0  0  0  0  0  0
  148.3660  139.2210  154.9455 H   0  0  0  0  0  0  0  0  0  0  0  0
  149.9875  138.0065  153.4642 H   0  0  0  0  0  0  0  0  0  0  0  0
  152.7074  137.8705  153.2935 H   0  0  0  0  0  0  0  0  0  0  0  0
  153.5431  139.5475  155.3360 H   0  0  0  0  0  0  0  0  0  0  0  0
  149.7070  143.0438  155.9870 H   0  0  0  0  0  0  0  0  0  0  0  0
  149.1237  141.9732  158.1194 H   0  0  0  0  0  0  0  0  0  0  0  0
  150.3657  140.7943  157.7578 H   0  0  0  0  0  0  0  0  0  0  0  0
  152.1023  142.5123  157.6977 H   0  0  0  0  0  0  0  0  0  0  0  0
  150.7571  144.4852  156.8954 H   0  0  0  0  0  0  0  0  0  0  0  0
  149.8364  144.4709  158.3829 H   0  0  0  0  0  0  0  0  0  0  0  0
  152.8293  145.0135  158.1083 H   0  0  0  0  0  0  0  0  0  0  0  0
  151.6021  146.1796  158.5548 H   0  0  0  0  0  0  0  0  0  0  0  0
  152.8570  145.2699  160.5553 H   0  0  0  0  0  0  0  0  0  0  0  0
  151.1345  144.9751  160.6491 H   0  0  0  0  0  0  0  0  0  0  0  0
  153.2492  142.9364  159.7580 H   0  0  0  0  0  0  0  0  0  0  0  0
  152.3296  142.9043  161.2492 H   0  0  0  0  0  0  0  0  0  0  0  0
  1  2  1  0  0  0  0
  1 17  1  0  0  0  0
  1 18  1  0  0  0  0
  1 19  1  0  0  0  0
  2  3  1  0  0  0  0
  2  9  1  0  0  0  0
  2 20  1  0  0  0  0
  3  4  1  0  0  0  0
  3 21  1  0  0  0  0
  3 22  1  0  0  0  0
  4  8  1  0  0  0  0
  4  5  1  0  0  0  0
  5  6  2  0  0  0  0
  5 23  1  0  0  0  0
  6  7  1  0  0  0  0
  6 24  1  0  0  0  0
  7  8  2  0  0  0  0
  7 25  1  0  0  0  0
  9 10  1  0  0  0  0
  9 26  1  0  0  0  0
 10 11  1  0  0  0  0
 10 27  1  0  0  0  0
 10 28  1  0  0  0  0
 11 16  1  0  0  0  0
 11 12  1  0  0  0  0
 11 29  1  0  0  0  0
 12 13  1  0  0  0  0
 12 30  1  0  0  0  0
 12 31  1  0  0  0  0
 13 14  1  0  0  0  0
 13 32  1  0  0  0  0
 13 33  1  0  0  0  0
 14 15  1  0  0  0  0
 14 34  1  0  0  0  0
 14 35  1  0  0  0  0
 15 16  1  0  0  0  0
 15 36  1  0  0  0  0
 15 37  1  0  0  0  0
M  END
> <s_m_source_file>
AV-unprocessed.smi

> <i_m_source_file_index>
3165

> <i_lp_mmshare_version>
43012

> <i_f3d_flags>
0

> <s_epik_input>
bjFbY0hdW2NIXVtjSF1uMVtDSDJdW0NAQEhdKFtDSDNdKVtOSF1bQ0gyXVtDQEBIXTJbQ0gyXVtDSDJdW0NIMl1bQ0gyXU8y

> <s_epik_cmdline>
J2VwaWtfcHl0aG9uJywgJy1waCcsICc3LjAnLCAnLXRuJywgJzgnLCAnLW1hJywgJzIwMCcsICctbWV0YWxfYmluZGluZycsICctaW1hZScsICc8aW5maWxlLm1hZT4nLCAnLW9tYWUnLCAnPG91dGZpbGUubWFlPic=

> <r_lp_tautomer_probability>
1

> <r_epik_Ionization_Penalty>
2.51982

> <r_epik_Ionization_Penalty_Charging>
0

> <r_epik_Ionization_Penalty_Neutral>
2.51982

> <r_epik_State_Penalty>
2.68614

> <r_epik_Charging_Adjusted_Penalty>
2.68614

> <i_epik_Tot_Q>
0

> <i_epik_Tot_abs_Q>
0

> <r_epik_Metal_State_Penalty>
2.6861

> <b_epik_Metal_Only>
0

> <s_lp_Force_Field>
OPLS_2005

> <r_lp_Energy>
14.4807

> <b_lp_Chiralities_Consistent>
1

> <s_lp_Variant>
AV-unprocessed.smi:3165-8

> <Gold.Version>
5.8.1

> <Gold.Id.Protein>
6NUR|6NUR_protein|mol2

> <Gold.PLP.Fitness>
42.6203

> <Gold.PLP.PLP>
-36.7833

> <Gold.PLP.part.hbond>
-1.7003

> <Gold.PLP.part.metal>
0.0000

> <Gold.PLP.part.buried>
-3.0884

> <Gold.PLP.part.nonpolar>
-32.5550

> <Gold.PLP.part.repulsive>
0.0000

> <Gold.PLP.ligand.clash>
0.0000

> <Gold.PLP.ligand.torsion>
0.0789

> <Gold.PLP.Chemscore.Hbond>
0.9913

> <Gold.PLP.Chemscore.CHOScore>
1.0000

> <Gold.PLP.Chemscore.Metal>
0.0000

> <Gold.Chemscore.Hbonds>
donor molecule, donor type, donor heavy atom, donor atom, acceptor molecule, acceptor atom, score
      L1  H     9    26       P1  8028  1.00
      L1  C     5    23       P1  7948  0.92

> <Gold.PLP.Chemscore.Internal.Correction>
0.0211

> <Gold.Rescore>
     Score         DG    S(hbond)    S(metal)    S(lipo)     H(rot)  DE(clash)    DE(int)     intcor
     16.48     -16.87       0.96        0.00     104.41       1.57       0.26       0.12       ----

> <Gold.Chemscore.Fitness>
16.4848

> <Gold.Chemscore.DG>
-16.8730

> <Gold.Chemscore.ZeroCoef>
-5.4800

> <Gold.Chemscore.Hbond>
0.9595

> <Gold.Chemscore.Metal>
0.0000

> <Gold.Chemscore.Lipo>
104.4055

> <Gold.Chemscore.Internal_Hbond>
0.0000

> <Gold.Chemscore.DEClash>
0.2646

> <Gold.Chemscore.DEInternal>
0.1236

> <Gold.Chemscore.Rot>
1.5731

> <Gold.Chemscore.Internal.Correction>
   9.000000E+99

> <Gold.Chemscore.Hbonds>
donor molecule, donor type, donor heavy atom, donor atom, acceptor molecule, acceptor atom, score
      L1  H     9    26       P1  8028  1.00

> <Gold.Chemscore.Hbond.Weighted>
-3.2049

> <Gold.Chemscore.Metal.Weighted>
-0.0000

> <Gold.Chemscore.Lipo.Weighted>
-12.2154

> <Gold.Chemscore.Internal_Hbond.Weighted>
0.0000

> <Gold.Chemscore.DEClash.Weighted>
0.2646

> <Gold.Chemscore.DEInternal.Weighted>
0.1236

> <Gold.Chemscore.Rot.Weighted>
4.0273

> <Gold.Chemscore.Internal.Correction.Weighted>
   9.000000E+99

> <Gold.Protein.RotatedTorsions>
[ 6907 6896 6895 6894 ] final  -54.01 input  -60.11 | X-H torsion
[ 7974 7965 7964 7962 ] final  -62.88 input  175.53 | X-H torsion
[ 8008 7997 7996 7995 ] final -134.87 input   59.86 | X-H torsion
[ 10167 10162 10161 10158 ] final -178.52 input  -65.29 | X-H torsion
[ 10718 10713 10712 10709 ] final -155.97 input   66.30 | X-H torsion
[ 10763 10752 10751 10750 ] final  -35.46 input  -60.55 | X-H torsion
[ 11005 11000 10999 10996 ] final   62.93 input  -57.11 | X-H torsion

> <Gold.Protein.ActiveResidues>
 VAL166  LYS551  ARG553  GLY616  TRP617  ASP618  TYR619  PRO620  LYS621  CYS622 
 ASP623  PHE694  ASN695  SER759  ASP760  ASP761  ALA762  ILE779  LEU786  VAL792 
 PHE793  MET794  SER795  GLU796  ALA797  LYS798  CYS799  TRP800  GLU811  SER814 

> <Gold.Protein.RotatedAtoms>
  150.8376  134.7655  159.6905 H   0  0  0  0  0  0  0  0  0  0  0  0  # atno 6907 bound_to 6896
  152.4470  134.5471  159.9866 H   0  0  0  0  0  0  0  0  0  0  0  0  # atno 6908 bound_to 6896
  151.5618  133.3364  159.3008 H   0  0  0  0  0  0  0  0  0  0  0  0  # atno 6909 bound_to 6896
  145.7859  140.8737  143.0306 H   0  0  0  0  0  0  0  0  0  0  0  0  # atno 7974 bound_to 7965
  155.3692  140.0487  157.3045 H   0  0  0  0  0  0  0  0  0  0  0  0  # atno 8008 bound_to 7997
  154.5139  140.2201  155.9067 H   0  0  0  0  0  0  0  0  0  0  0  0  # atno 8009 bound_to 7997
  156.1614  140.3115  155.8819 H   0  0  0  0  0  0  0  0  0  0  0  0  # atno 8010 bound_to 7997
  139.5429  144.2315  152.0930 H   0  0  0  0  0  0  0  0  0  0  0  0  # atno 10167 bound_to 10162
  156.5201  130.8474  151.2679 H   0  0  0  0  0  0  0  0  0  0  0  0  # atno 10718 bound_to 10713
  153.8636  135.6838  153.4780 H   0  0  0  0  0  0  0  0  0  0  0  0  # atno 10763 bound_to 10752
  153.1328  135.4691  154.9373 H   0  0  0  0  0  0  0  0  0  0  0  0  # atno 10764 bound_to 10752
  154.7747  135.3249  154.8066 H   0  0  0  0  0  0  0  0  0  0  0  0  # atno 10765 bound_to 10752
  140.0059  134.6371  155.9856 H   0  0  0  0  0  0  0  0  0  0  0  0  # atno 11005 bound_to 11000
  144.6789  140.0054  143.7484 LP  0  0  0  0  0  0  0  0  0  0  0  0  # atno 17320 bound_to 7965
  146.0027  139.3104  143.0918 LP  0  0  0  0  0  0  0  0  0  0  0  0  # atno 17321 bound_to 7965
  140.1796  144.4857  150.6535 LP  0  0  0  0  0  0  0  0  0  0  0  0  # atno 17342 bound_to 10162
  140.6666  143.2270  151.5729 LP  0  0  0  0  0  0  0  0  0  0  0  0  # atno 17343 bound_to 10162
  157.7438  130.9920  150.2621 LP  0  0  0  0  0  0  0  0  0  0  0  0  # atno 17370 bound_to 10713
  156.3157  130.3778  149.7620 LP  0  0  0  0  0  0  0  0  0  0  0  0  # atno 17371 bound_to 10713
  141.1676  133.6537  156.4535 LP  0  0  0  0  0  0  0  0  0  0  0  0  # atno 17394 bound_to 11000
  140.4643  134.6812  157.5100 LP  0  0  0  0  0  0  0  0  0  0  0  0  # atno 17395 bound_to 11000

$$$$
