AV-unprocessed.smi:1376|AV-procd|sdf|5593|dock6
  -GOLD-   22720 5193D 1   1.00000     0.00000
 Structure written by MMmdl.
 42 43  0  0  0  0  0  0  0  0  1 V2000
  151.4007  140.9958  157.2113 O   0  0  0  0  0  0  0  0  0  0  0  0
  150.9658  142.1003  156.8807 C   0  0  0  0  0  0  0  0  0  0  0  0
  151.6892  143.3935  157.2850 C   0  0  0  0  0  0  0  0  0  0  0  0
  151.9711  143.4867  158.7273 N   0  0  0  0  0  0  0  0  0  0  0  0
  152.5817  142.3692  159.3312 C   0  0  0  0  0  0  0  0  0  0  0  0
  152.8772  142.3422  160.6403 C   0  0  0  0  0  0  0  0  0  0  0  0
  152.5528  143.5018  161.4369 C   0  0  0  0  0  0  0  0  0  0  0  0
  151.9665  144.5751  160.8701 C   0  0  0  0  0  0  0  0  0  0  0  0
  151.6390  144.6077  159.4397 C   0  0  0  0  0  0  0  0  0  0  0  0
  151.0984  145.5815  158.9151 O   0  0  0  0  0  0  0  0  0  0  0  0
  149.8522  142.2603  156.1495 N   0  0  0  0  0  0  0  0  0  0  0  0
  149.0030  141.1781  155.6610 C   0  0  1  0  0  0  0  0  0  0  0  0
  147.8012  141.7647  154.8977 C   0  0  0  0  0  0  0  0  0  0  0  0
  146.9034  140.6561  154.3252 C   0  0  0  0  0  0  0  0  0  0  0  0
  147.7033  139.6796  153.4453 C   0  0  0  0  0  0  0  0  0  0  0  0
  148.9062  139.0853  154.1999 C   0  0  2  0  0  0  0  0  0  0  0  0
  148.3919  138.2532  155.2347 O   0  0  0  0  0  0  0  0  0  0  0  0
  149.3699  137.5833  156.0183 C   0  0  0  0  0  0  0  0  0  0  0  0
  149.0336  137.7680  157.5028 C   0  0  0  0  0  0  0  0  0  0  0  0
  149.9378  137.1272  158.2426 F   0  0  0  0  0  0  0  0  0  0  0  0
  149.0576  139.0616  157.8224 F   0  0  0  0  0  0  0  0  0  0  0  0
  147.8289  137.2634  157.7686 F   0  0  0  0  0  0  0  0  0  0  0  0
  149.7999  140.2148  154.7554 C   0  0  0  0  0  0  0  0  0  0  0  0
  152.6180  143.4609  156.7166 H   0  0  0  0  0  0  0  0  0  0  0  0
  151.0930  144.2467  156.9563 H   0  0  0  0  0  0  0  0  0  0  0  0
  152.7849  141.5417  158.6670 H   0  0  0  0  0  0  0  0  0  0  0  0
  153.3419  141.4753  161.0862 H   0  0  0  0  0  0  0  0  0  0  0  0
  152.7800  143.5081  162.4929 H   0  0  0  0  0  0  0  0  0  0  0  0
  151.7302  145.4330  161.4823 H   0  0  0  0  0  0  0  0  0  0  0  0
  149.5657  143.2016  155.9223 H   0  0  0  0  0  0  0  0  0  0  0  0
  148.6222  140.6234  156.5209 H   0  0  0  0  0  0  0  0  0  0  0  0
  147.2149  142.4055  155.5573 H   0  0  0  0  0  0  0  0  0  0  0  0
  148.1542  142.3995  154.0835 H   0  0  0  0  0  0  0  0  0  0  0  0
  146.4330  140.1101  155.1439 H   0  0  0  0  0  0  0  0  0  0  0  0
  146.0925  141.0980  153.7458 H   0  0  0  0  0  0  0  0  0  0  0  0
  147.0528  138.8796  153.0898 H   0  0  0  0  0  0  0  0  0  0  0  0
  148.0569  140.2040  152.5566 H   0  0  0  0  0  0  0  0  0  0  0  0
  149.4800  138.4728  153.5026 H   0  0  0  0  0  0  0  0  0  0  0  0
  149.3873  136.5206  155.7724 H   0  0  0  0  0  0  0  0  0  0  0  0
  150.3642  137.9834  155.8213 H   0  0  0  0  0  0  0  0  0  0  0  0
  150.2213  140.7743  153.9191 H   0  0  0  0  0  0  0  0  0  0  0  0
  150.6551  139.8018  155.2887 H   0  0  0  0  0  0  0  0  0  0  0  0
  1  2  2  0  0  0  0
  2  3  1  0  0  0  0
  2 11  1  0  0  0  0
  3  4  1  0  0  0  0
  3 24  1  0  0  0  0
  3 25  1  0  0  0  0
  4  9  1  0  0  0  0
  4  5  1  0  0  0  0
  5  6  2  0  0  0  0
  5 26  1  0  0  0  0
  6  7  1  0  0  0  0
  6 27  1  0  0  0  0
  7  8  2  0  0  0  0
  7 28  1  0  0  0  0
  8  9  1  0  0  0  0
  8 29  1  0  0  0  0
  9 10  2  0  0  0  0
 11 12  1  0  0  0  0
 11 30  1  0  0  0  0
 12 23  1  0  0  0  0
 12 13  1  0  0  0  0
 12 31  1  0  0  0  0
 13 14  1  0  0  0  0
 13 32  1  0  0  0  0
 13 33  1  0  0  0  0
 14 15  1  0  0  0  0
 14 34  1  0  0  0  0
 14 35  1  0  0  0  0
 15 16  1  0  0  0  0
 15 36  1  0  0  0  0
 15 37  1  0  0  0  0
 16 17  1  0  0  0  0
 16 23  1  0  0  0  0
 16 38  1  0  0  0  0
 17 18  1  0  0  0  0
 18 19  1  0  0  0  0
 18 39  1  0  0  0  0
 18 40  1  0  0  0  0
 19 20  1  0  0  0  0
 19 21  1  0  0  0  0
 19 22  1  0  0  0  0
 23 41  1  0  0  0  0
 23 42  1  0  0  0  0
M  END
> <s_m_source_file>
AV-unprocessed.smi

> <i_m_source_file_index>
1376

> <i_lp_mmshare_version>
43012

> <i_f3d_flags>
0

> <s_epik_input>
Tz1jMVtjSF1bY0hdW2NIXVtjSF1uMVtDSDJdQyg9TylbTkhdW0NAQEhdMltDSDJdW0NIMl1bQ0gyXVtDQEhdKFtDSDJdMilPW0NIMl1DKEYpKEYpRg==

> <s_epik_cmdline>
J2VwaWtfcHl0aG9uJywgJy1waCcsICc3LjAnLCAnLXRuJywgJzgnLCAnLW1hJywgJzIwMCcsICctbWV0YWxfYmluZGluZycsICctaW1hZScsICc8aW5maWxlLm1hZT4nLCAnLW9tYWUnLCAnPG91dGZpbGUubWFlPic=

> <r_lp_tautomer_probability>
1

> <r_epik_Ionization_Penalty>
4.08567e-07

> <r_epik_Ionization_Penalty_Charging>
3.90028e-07

> <r_epik_Ionization_Penalty_Neutral>
1.85393e-08

> <r_epik_State_Penalty>
-0

> <r_epik_Charging_Adjusted_Penalty>
3.90028e-07

> <i_epik_Tot_Q>
0

> <i_epik_Tot_abs_Q>
0

> <r_epik_Metal_State_Penalty>
-0

> <b_epik_Metal_Only>
0

> <s_lp_Force_Field>
OPLS_2005

> <r_lp_Energy>
20.214

> <b_lp_Chiralities_Consistent>
1

> <s_lp_Variant>
AV-unprocessed.smi:1376-4

> <Gold.Version>
5.8.1

> <Gold.Id.Protein>
6NUR|6NUR_protein|mol2

> <Gold.PLP.Fitness>
45.9919

> <Gold.PLP.PLP>
-43.9721

> <Gold.PLP.part.hbond>
-2.0000

> <Gold.PLP.part.metal>
0.0000

> <Gold.PLP.part.buried>
-3.6032

> <Gold.PLP.part.nonpolar>
-38.2056

> <Gold.PLP.part.repulsive>
0.3466

> <Gold.PLP.ligand.clash>
0.0000

> <Gold.PLP.ligand.torsion>
0.5051

> <Gold.PLP.Chemscore.Hbond>
1.0000

> <Gold.PLP.Chemscore.CHOScore>
0.0000

> <Gold.PLP.Chemscore.Metal>
0.0000

> <Gold.Chemscore.Hbonds>
donor molecule, donor type, donor heavy atom, donor atom, acceptor molecule, acceptor atom, score
      L1  H    11    30       P1  8028  1.00

> <Gold.PLP.Chemscore.Internal.Correction>
0.0299

> <Gold.Rescore>
     Score         DG    S(hbond)    S(metal)    S(lipo)     H(rot)  DE(clash)    DE(int)     intcor
     12.58     -14.51       1.00        0.00      96.43       2.18       0.25       1.68       ----

> <Gold.Chemscore.Fitness>
12.5841

> <Gold.Chemscore.DG>
-14.5142

> <Gold.Chemscore.ZeroCoef>
-5.4800

> <Gold.Chemscore.Hbond>
0.9975

> <Gold.Chemscore.Metal>
0.0000

> <Gold.Chemscore.Lipo>
96.4326

> <Gold.Chemscore.Internal_Hbond>
0.0000

> <Gold.Chemscore.DEClash>
0.2538

> <Gold.Chemscore.DEInternal>
1.6763

> <Gold.Chemscore.Rot>
2.1797

> <Gold.Chemscore.Internal.Correction>
   9.000000E+99

> <Gold.Chemscore.Hbonds>
donor molecule, donor type, donor heavy atom, donor atom, acceptor molecule, acceptor atom, score
      L1  H    11    30       P1  8028  1.00

> <Gold.Chemscore.Hbond.Weighted>
-3.3317

> <Gold.Chemscore.Metal.Weighted>
-0.0000

> <Gold.Chemscore.Lipo.Weighted>
-11.2826

> <Gold.Chemscore.Internal_Hbond.Weighted>
0.0000

> <Gold.Chemscore.DEClash.Weighted>
0.2538

> <Gold.Chemscore.DEInternal.Weighted>
1.6763

> <Gold.Chemscore.Rot.Weighted>
5.5802

> <Gold.Chemscore.Internal.Correction.Weighted>
   9.000000E+99

> <Gold.Protein.RotatedTorsions>
[ 6907 6896 6895 6894 ] final   71.95 input  -60.11 | X-H torsion
[ 7974 7965 7964 7962 ] final  -44.18 input  175.53 | X-H torsion
[ 8008 7997 7996 7995 ] final   23.37 input   59.86 | X-H torsion
[ 10167 10162 10161 10158 ] final  -78.37 input  -65.29 | X-H torsion
[ 10718 10713 10712 10709 ] final  -92.45 input   66.30 | X-H torsion
[ 10763 10752 10751 10750 ] final  157.60 input  -60.55 | X-H torsion
[ 11005 11000 10999 10996 ] final   21.73 input  -57.11 | X-H torsion

> <Gold.Protein.ActiveResidues>
 VAL166  LYS551  ARG553  GLY616  TRP617  ASP618  TYR619  PRO620  LYS621  CYS622 
 ASP623  PHE694  ASN695  SER759  ASP760  ASP761  ALA762  ILE779  LEU786  VAL792 
 PHE793  MET794  SER795  GLU796  ALA797  LYS798  CYS799  TRP800  GLU811  SER814 

> <Gold.Protein.RotatedAtoms>
  152.4840  134.4644  159.9615 H   0  0  0  0  0  0  0  0  0  0  0  0  # atno 6907 bound_to 6896
  151.4645  133.3578  159.2822 H   0  0  0  0  0  0  0  0  0  0  0  0  # atno 6908 bound_to 6896
  150.8934  134.8365  159.7370 H   0  0  0  0  0  0  0  0  0  0  0  0  # atno 6909 bound_to 6896
  145.9946  140.7142  142.9300 H   0  0  0  0  0  0  0  0  0  0  0  0  # atno 7974 bound_to 7965
  154.9800  140.3101  155.4951 H   0  0  0  0  0  0  0  0  0  0  0  0  # atno 8008 bound_to 7997
  156.2954  140.2268  156.4837 H   0  0  0  0  0  0  0  0  0  0  0  0  # atno 8009 bound_to 7997
  154.7798  140.0446  157.1106 H   0  0  0  0  0  0  0  0  0  0  0  0  # atno 8010 bound_to 7997
  140.4688  143.2432  151.8237 H   0  0  0  0  0  0  0  0  0  0  0  0  # atno 10167 bound_to 10162
  156.0002  130.4987  150.5627 H   0  0  0  0  0  0  0  0  0  0  0  0  # atno 10718 bound_to 10713
  154.2027  135.2789  155.2985 H   0  0  0  0  0  0  0  0  0  0  0  0  # atno 10763 bound_to 10752
  154.5841  135.5580  153.7217 H   0  0  0  0  0  0  0  0  0  0  0  0  # atno 10764 bound_to 10752
  153.0083  135.6352  154.2166 H   0  0  0  0  0  0  0  0  0  0  0  0  # atno 10765 bound_to 10752
  140.3884  134.1845  155.7663 H   0  0  0  0  0  0  0  0  0  0  0  0  # atno 11005 bound_to 11000
  144.6900  140.3129  143.7245 LP  0  0  0  0  0  0  0  0  0  0  0  0  # atno 17320 bound_to 7965
  145.7579  139.1815  143.2284 LP  0  0  0  0  0  0  0  0  0  0  0  0  # atno 17321 bound_to 7965
  139.4815  144.4918  151.9176 LP  0  0  0  0  0  0  0  0  0  0  0  0  # atno 17342 bound_to 10162
  140.4003  144.2502  150.5893 LP  0  0  0  0  0  0  0  0  0  0  0  0  # atno 17343 bound_to 10162
  157.3534  131.0737  151.1695 LP  0  0  0  0  0  0  0  0  0  0  0  0  # atno 17370 bound_to 10713
  157.2504  130.6611  149.5929 LP  0  0  0  0  0  0  0  0  0  0  0  0  # atno 17371 bound_to 10713
  141.1899  133.8228  157.0938 LP  0  0  0  0  0  0  0  0  0  0  0  0  # atno 17394 bound_to 11000
  140.0425  134.9847  157.0988 LP  0  0  0  0  0  0  0  0  0  0  0  0  # atno 17395 bound_to 11000

$$$$
