AV-unprocessed.smi:218|AV-procd|sdf|1673|dock9
  -GOLD-   2262020 93D 1   1.00000     0.00000
 Structure written by MMmdl.
 54 57  0  0  0  0  0  0  0  0  1 V2000
  150.3832  143.7398  159.1952 C   0  0  0  0  0  0  0  0  0  0  0  0
  151.6607  143.4160  158.4115 C   0  0  0  0  0  0  0  0  0  0  0  0
  152.5515  144.6613  158.2598 C   0  0  0  0  0  0  0  0  0  0  0  0
  151.2500  142.9402  157.1282 O   0  0  0  0  0  0  0  0  0  0  0  0
  150.6324  141.7102  157.0082 C   0  0  0  0  0  0  0  0  0  0  0  0
  150.1194  141.3415  155.7480 C   0  0  0  0  0  0  0  0  0  0  0  0
  149.4868  140.0882  155.6080 C   0  0  0  0  0  0  0  0  0  0  0  0
  148.9183  139.6406  154.2712 C   0  0  0  0  0  0  0  0  0  0  0  0
  147.5169  139.2338  154.2996 N   0  0  0  0  0  0  0  0  0  0  0  0
  147.1801  137.9382  154.4855 C   0  0  0  0  0  0  0  0  0  0  0  0
  147.5819  137.2597  155.5920 N   0  0  0  0  0  0  0  0  0  0  0  0
  147.2323  135.9803  155.7542 C   0  0  0  0  0  0  0  0  0  0  0  0
  146.4962  135.2087  154.9517 N   0  0  0  0  0  0  0  0  0  0  0  0
  146.0845  135.8866  153.8413 C   0  0  0  0  0  0  0  0  0  0  0  0
  146.3842  137.2441  153.5378 C   0  0  0  0  0  0  0  0  0  0  0  0
  145.8026  137.5961  152.3268 N   0  0  0  0  0  0  0  0  0  0  0  0
  145.1937  136.5068  151.9415 C   0  0  0  0  0  0  0  0  0  0  0  0
  145.3086  135.4316  152.7943 N   0  0  0  0  0  0  0  0  0  0  0  0
  144.7158  134.0706  152.6254 C   0  0  1  0  0  0  0  0  0  0  0  0
  144.1698  133.9882  151.3473 O   0  0  0  0  0  0  0  0  0  0  0  0
  144.3494  132.6690  150.8572 C   0  0  1  0  0  0  0  0  0  0  0  0
  144.1743  132.6241  149.3292 C   0  0  0  0  0  0  0  0  0  0  0  0
  142.8791  132.1718  148.9960 O   0  0  0  0  0  0  0  0  0  0  0  0
  145.7163  132.2464  151.4184 C   0  0  1  0  0  0  0  0  0  0  0  0
  146.7805  132.6415  150.5741 O   0  0  0  0  0  0  0  0  0  0  0  0
  145.7940  132.9791  152.7566 C   0  0  2  0  0  0  0  0  0  0  0  0
  145.4801  132.0807  153.8020 O   0  0  0  0  0  0  0  0  0  0  0  0
  149.3830  139.2567  156.7407 C   0  0  0  0  0  0  0  0  0  0  0  0
  149.9247  139.7118  157.9582 C   0  0  0  0  0  0  0  0  0  0  0  0
  150.5340  140.9081  158.0975 N   0  0  0  0  0  0  0  0  0  0  0  0
  143.9313  134.0068  153.3813 H   0  0  0  0  0  0  0  0  0  0  0  0
  143.5780  132.0531  151.3237 H   0  0  0  0  0  0  0  0  0  0  0  0
  145.7764  131.1625  151.5292 H   0  0  0  0  0  0  0  0  0  0  0  0
  146.7789  133.4128  152.9402 H   0  0  0  0  0  0  0  0  0  0  0  0
  150.6171  144.1056  160.1953 H   0  0  0  0  0  0  0  0  0  0  0  0
  149.7585  142.8530  159.3049 H   0  0  0  0  0  0  0  0  0  0  0  0
  149.7910  144.5031  158.6894 H   0  0  0  0  0  0  0  0  0  0  0  0
  152.1921  142.6416  158.9669 H   0  0  0  0  0  0  0  0  0  0  0  0
  152.8351  145.0589  159.2345 H   0  0  0  0  0  0  0  0  0  0  0  0
  152.0328  145.4511  157.7162 H   0  0  0  0  0  0  0  0  0  0  0  0
  153.4710  144.4381  157.7195 H   0  0  0  0  0  0  0  0  0  0  0  0
  150.2153  142.0101  154.9052 H   0  0  0  0  0  0  0  0  0  0  0  0
  149.0499  140.4296  153.5295 H   0  0  0  0  0  0  0  0  0  0  0  0
  149.5071  138.7926  153.9214 H   0  0  0  0  0  0  0  0  0  0  0  0
  146.8508  139.9357  154.0109 H   0  0  0  0  0  0  0  0  0  0  0  0
  147.5919  135.5076  156.6561 H   0  0  0  0  0  0  0  0  0  0  0  0
  144.6340  136.4588  151.0187 H   0  0  0  0  0  0  0  0  0  0  0  0
  144.3060  133.6229  148.9126 H   0  0  0  0  0  0  0  0  0  0  0  0
  144.9218  131.9854  148.8580 H   0  0  0  0  0  0  0  0  0  0  0  0
  142.2579  132.8477  149.2215 H   0  0  0  0  0  0  0  0  0  0  0  0
  147.3356  131.8915  150.4235 H   0  0  0  0  0  0  0  0  0  0  0  0
  144.5703  132.1956  154.0302 H   0  0  0  0  0  0  0  0  0  0  0  0
  148.9057  138.2896  156.6800 H   0  0  0  0  0  0  0  0  0  0  0  0
  149.8660  139.0985  158.8451 H   0  0  0  0  0  0  0  0  0  0  0  0
  1  2  1  0  0  0  0
  1 35  1  0  0  0  0
  1 36  1  0  0  0  0
  1 37  1  0  0  0  0
  2  3  1  0  0  0  0
  2  4  1  0  0  0  0
  2 38  1  0  0  0  0
  3 39  1  0  0  0  0
  3 40  1  0  0  0  0
  3 41  1  0  0  0  0
  4  5  1  0  0  0  0
  5 30  1  0  0  0  0
  5  6  2  0  0  0  0
  6  7  1  0  0  0  0
  6 42  1  0  0  0  0
  7  8  1  0  0  0  0
  7 28  2  0  0  0  0
  8  9  1  0  0  0  0
  8 43  1  0  0  0  0
  8 44  1  0  0  0  0
  9 10  1  0  0  0  0
  9 45  1  0  0  0  0
 10 15  1  0  0  0  0
 10 11  2  0  0  0  0
 11 12  1  0  0  0  0
 12 13  2  0  0  0  0
 12 46  1  0  0  0  0
 13 14  1  0  0  0  0
 14 18  1  0  0  0  0
 14 15  2  0  0  0  0
 15 16  1  0  0  0  0
 16 17  2  0  0  0  0
 17 18  1  0  0  0  0
 17 47  1  0  0  0  0
 18 19  1  0  0  0  0
 19 31  1  0  0  0  0
 19 26  1  0  0  0  0
 19 20  1  0  0  0  0
 20 21  1  0  0  0  0
 21 32  1  0  0  0  0
 21 22  1  0  0  0  0
 21 24  1  0  0  0  0
 22 23  1  0  0  0  0
 22 48  1  0  0  0  0
 22 49  1  0  0  0  0
 23 50  1  0  0  0  0
 24 33  1  0  0  0  0
 24 25  1  0  0  0  0
 24 26  1  0  0  0  0
 25 51  1  0  0  0  0
 26 34  1  0  0  0  0
 26 27  1  0  0  0  0
 27 52  1  0  0  0  0
 28 29  1  0  0  0  0
 28 53  1  0  0  0  0
 29 30  2  0  0  0  0
 29 54  1  0  0  0  0
M  END
> <s_m_source_file>
AV-unprocessed.smi

> <i_m_source_file_index>
218

> <i_lp_mmshare_version>
43012

> <i_f3d_flags>
0

> <s_epik_input>
W0NIM11bQ0hdKFtDSDNdKU9jMVtjSF1jKFtjSF1bY0hdbjEpW0NIMl1bTkhdYyhuW2NIXW4yKWMoYzIzKW5bY0hdbjNbQ0BASF00T1tDQEhdKFtDSDJdW09IXSlbQ0BASF0oW09IXSlbQ0BIXTRbT0hd

> <s_epik_cmdline>
J2VwaWtfcHl0aG9uJywgJy1waCcsICc3LjAnLCAnLXRuJywgJzgnLCAnLW1hJywgJzIwMCcsICctbWV0YWxfYmluZGluZycsICctaW1hZScsICc8aW5maWxlLm1hZT4nLCAnLW9tYWUnLCAnPG91dGZpbGUubWFlPic=

> <r_lp_tautomer_probability>
1

> <r_epik_Ionization_Penalty>
0.00457014

> <r_epik_Ionization_Penalty_Charging>
0

> <r_epik_Ionization_Penalty_Neutral>
0.00457014

> <r_epik_State_Penalty>
-0

> <r_epik_Charging_Adjusted_Penalty>
0

> <i_epik_Tot_Q>
0

> <i_epik_Tot_abs_Q>
0

> <r_epik_Metal_State_Penalty>
-0

> <b_epik_Metal_Only>
0

> <s_epik_Chemistry_Notes>
This compound contains an acetal/aminal-like group ( X-CH(R)-Y where X, Y are N, S, or O) that may be acid/base labile, releasing an aldehyde.

> <s_lp_Force_Field>
OPLS_2005

> <r_lp_Energy>
38.5835

> <b_lp_Chiralities_Consistent>
1

> <s_lp_Variant>
AV-unprocessed.smi:218-12

> <Gold.Version>
5.8.1

> <Gold.Id.Protein>
6NUR|6NUR_protein|mol2

> <Gold.PLP.Fitness>
52.5507

> <Gold.PLP.PLP>
-41.1345

> <Gold.PLP.part.hbond>
-5.0000

> <Gold.PLP.part.metal>
0.0000

> <Gold.PLP.part.buried>
-7.2764

> <Gold.PLP.part.nonpolar>
-31.0641

> <Gold.PLP.part.repulsive>
0.6394

> <Gold.PLP.ligand.clash>
0.0000

> <Gold.PLP.ligand.torsion>
1.5029

> <Gold.PLP.Chemscore.Hbond>
3.9338

> <Gold.PLP.Chemscore.CHOScore>
0.8016

> <Gold.PLP.Chemscore.Metal>
0.0000

> <Gold.Chemscore.Hbonds>
donor molecule, donor type, donor heavy atom, donor atom, acceptor molecule, acceptor atom, score
      L1  H    23    50       P1 10186  1.00
      L1  H    25    51       P1 10747  1.00
      L1  H    27    52       P1 10957  0.85
      P1  H 10785 10796       L1    23  0.91
      L1  C    17    47       P1 10171  0.78

> <Gold.PLP.Chemscore.Internal.Correction>
0.2158

> <Gold.Rescore>
     Score         DG    S(hbond)    S(metal)    S(lipo)     H(rot)  DE(clash)    DE(int)     intcor
     10.06     -13.28       2.98        0.00      88.94       4.90       0.08       3.13       ----

> <Gold.Chemscore.Fitness>
10.0600

> <Gold.Chemscore.DG>
-13.2757

> <Gold.Chemscore.ZeroCoef>
-5.4800

> <Gold.Chemscore.Hbond>
2.9766

> <Gold.Chemscore.Metal>
0.0000

> <Gold.Chemscore.Lipo>
88.9355

> <Gold.Chemscore.Internal_Hbond>
0.0000

> <Gold.Chemscore.DEClash>
0.0811

> <Gold.Chemscore.DEInternal>
3.1347

> <Gold.Chemscore.Rot>
4.9029

> <Gold.Chemscore.Internal.Correction>
   9.000000E+99

> <Gold.Chemscore.Hbonds>
donor molecule, donor type, donor heavy atom, donor atom, acceptor molecule, acceptor atom, score
      L1  H    23    50       P1 10186  0.93
      L1  H    25    51       P1 10747  0.98
      L1  H    27    52       P1 10957  0.19
      P1  H 10785 10796       L1    23  0.30

> <Gold.Chemscore.Hbond.Weighted>
-9.9418

> <Gold.Chemscore.Metal.Weighted>
-0.0000

> <Gold.Chemscore.Lipo.Weighted>
-10.4054

> <Gold.Chemscore.Internal_Hbond.Weighted>
0.0000

> <Gold.Chemscore.DEClash.Weighted>
0.0811

> <Gold.Chemscore.DEInternal.Weighted>
3.1347

> <Gold.Chemscore.Rot.Weighted>
12.5515

> <Gold.Chemscore.Internal.Correction.Weighted>
   9.000000E+99

> <Gold.Protein.RotatedTorsions>
[ 6907 6896 6895 6894 ] final  146.61 input  -60.11 | X-H torsion
[ 7974 7965 7964 7962 ] final  -74.61 input  175.53 | X-H torsion
[ 8008 7997 7996 7995 ] final    3.15 input   59.86 | X-H torsion
[ 10167 10162 10161 10158 ] final   18.23 input  -65.29 | X-H torsion
[ 10718 10713 10712 10709 ] final  -22.79 input   66.30 | X-H torsion
[ 10763 10752 10751 10750 ] final   93.94 input  -60.55 | X-H torsion
[ 11005 11000 10999 10996 ] final   27.86 input  -57.11 | X-H torsion

> <Gold.Protein.ActiveResidues>
 VAL166  LYS551  ARG553  GLY616  TRP617  ASP618  TYR619  PRO620  LYS621  CYS622 
 ASP623  PHE694  ASN695  SER759  ASP760  ASP761  ALA762  ILE779  LEU786  VAL792 
 PHE793  MET794  SER795  GLU796  ALA797  LYS798  CYS799  TRP800  GLU811  SER814 

> <Gold.Protein.RotatedAtoms>
  152.1657  133.4610  159.4883 H   0  0  0  0  0  0  0  0  0  0  0  0  # atno 6907 bound_to 6896
  150.6912  134.2016  159.4333 H   0  0  0  0  0  0  0  0  0  0  0  0  # atno 6908 bound_to 6896
  151.9921  134.9973  160.0612 H   0  0  0  0  0  0  0  0  0  0  0  0  # atno 6909 bound_to 6896
  145.6369  140.9322  143.1057 H   0  0  0  0  0  0  0  0  0  0  0  0  # atno 7974 bound_to 7965
  154.7001  140.2671  155.6728 H   0  0  0  0  0  0  0  0  0  0  0  0  # atno 8008 bound_to 7997
  156.2762  140.2774  156.1533 H   0  0  0  0  0  0  0  0  0  0  0  0  # atno 8009 bound_to 7997
  155.0776  140.0372  157.2619 H   0  0  0  0  0  0  0  0  0  0  0  0  # atno 8010 bound_to 7997
  140.5668  143.9235  150.6683 H   0  0  0  0  0  0  0  0  0  0  0  0  # atno 10167 bound_to 10162
  156.4998  130.4585  149.6708 H   0  0  0  0  0  0  0  0  0  0  0  0  # atno 10718 bound_to 10713
  153.2360  135.4307  155.0647 H   0  0  0  0  0  0  0  0  0  0  0  0  # atno 10763 bound_to 10752
  154.8319  135.3391  154.6718 H   0  0  0  0  0  0  0  0  0  0  0  0  # atno 10764 bound_to 10752
  153.7143  135.7021  153.5085 H   0  0  0  0  0  0  0  0  0  0  0  0  # atno 10765 bound_to 10752
  140.3218  134.2535  155.7716 H   0  0  0  0  0  0  0  0  0  0  0  0  # atno 11005 bound_to 11000
  144.7172  139.8155  143.7394 LP  0  0  0  0  0  0  0  0  0  0  0  0  # atno 17320 bound_to 7965
  146.1312  139.4348  143.0167 LP  0  0  0  0  0  0  0  0  0  0  0  0  # atno 17321 bound_to 7965
  140.2700  143.3463  152.1246 LP  0  0  0  0  0  0  0  0  0  0  0  0  # atno 17342 bound_to 10162
  139.5097  144.6872  151.5856 LP  0  0  0  0  0  0  0  0  0  0  0  0  # atno 17343 bound_to 10162
  156.3344  130.7349  151.2284 LP  0  0  0  0  0  0  0  0  0  0  0  0  # atno 17370 bound_to 10713
  157.7464  131.0421  150.4677 LP  0  0  0  0  0  0  0  0  0  0  0  0  # atno 17371 bound_to 10713
  141.2085  133.7777  157.0057 LP  0  0  0  0  0  0  0  0  0  0  0  0  # atno 17394 bound_to 11000
  140.0935  134.9578  157.1814 LP  0  0  0  0  0  0  0  0  0  0  0  0  # atno 17395 bound_to 11000

$$$$
