AV-unprocessed.smi:196|AV-procd|sdf|1529|dock9
  -GOLD-   2262019383D 1   1.00000     0.00000
 Structure written by MMmdl.
 47 50  0  0  0  0  0  0  0  0  1 V2000
  149.1281  137.5353  155.0283 C   0  0  0  0  0  0  0  0  0  0  0  0
  148.8832  136.2882  155.8935 C   0  0  1  0  0  0  0  0  0  0  0  0
  148.3641  135.2265  155.1062 O   0  0  0  0  0  0  0  0  0  0  0  0
  148.5283  134.0372  155.8571 C   0  0  0  0  0  0  0  0  0  0  0  0
  149.9441  134.1762  156.4036 C   0  0  0  0  0  0  0  0  0  0  0  0
  150.1096  135.6829  156.6273 C   0  0  1  0  0  0  0  0  0  0  0  0
  151.3304  136.0865  156.0282 O   0  0  0  0  0  0  0  0  0  0  0  0
  150.1646  136.0474  158.1319 C   0  0  0  0  0  0  0  0  0  0  0  0
  150.5502  137.4288  158.3793 N   0  0  0  0  0  0  0  0  0  0  0  0
  149.7061  138.4903  158.6145 C   0  0  0  0  0  0  0  0  0  0  0  0
  150.2963  139.6338  158.8278 N   0  0  0  0  0  0  0  0  0  0  0  0
  151.6518  139.3463  158.7147 C   0  0  0  0  0  0  0  0  0  0  0  0
  152.8450  140.1159  158.8373 C   0  0  0  0  0  0  0  0  0  0  0  0
  152.8498  141.4469  159.1204 N   0  0  0  0  0  0  0  0  0  0  0  0
  153.8854  141.9725  160.0039 C   0  0  0  0  0  0  0  0  0  0  0  0
  153.2049  143.0535  160.8426 C   0  0  2  0  0  0  0  0  0  0  0  0
  152.7136  142.5074  161.9562 F   0  0  0  0  0  0  0  0  0  0  0  0
  152.0568  143.5148  159.9515 C   0  0  0  0  0  0  0  0  0  0  0  0
  151.6126  142.2328  159.2282 C   0  0  1  0  0  0  0  0  0  0  0  0
  150.9342  142.5653  157.8846 C   0  0  0  0  0  0  0  0  0  0  0  0
  150.7414  143.8478  157.5585 N   0  0  0  0  0  0  0  0  0  0  0  0
  150.5871  141.6535  157.1375 O   0  0  0  0  0  0  0  0  0  0  0  0
  154.0250  139.4600  158.6777 N   0  0  0  0  0  0  0  0  0  0  0  0
  154.0443  138.1531  158.4029 C   0  0  0  0  0  0  0  0  0  0  0  0
  153.0155  137.3175  158.2552 N   0  0  0  0  0  0  0  0  0  0  0  0
  151.8266  137.9622  158.4282 C   0  0  0  0  0  0  0  0  0  0  0  0
  153.8774  143.8588  161.1398 H   0  0  0  0  0  0  0  0  0  0  0  0
  150.9015  141.7028  159.8642 H   0  0  0  0  0  0  0  0  0  0  0  0
  149.5447  138.3500  155.6207 H   0  0  0  0  0  0  0  0  0  0  0  0
  148.1946  137.8895  154.5913 H   0  0  0  0  0  0  0  0  0  0  0  0
  149.8153  137.3268  154.2081 H   0  0  0  0  0  0  0  0  0  0  0  0
  148.1069  136.5222  156.6225 H   0  0  0  0  0  0  0  0  0  0  0  0
  147.7964  134.0072  156.6659 H   0  0  0  0  0  0  0  0  0  0  0  0
  148.3995  133.1480  155.2398 H   0  0  0  0  0  0  0  0  0  0  0  0
  150.0973  133.5822  157.3052 H   0  0  0  0  0  0  0  0  0  0  0  0
  150.6465  133.8114  155.6520 H   0  0  0  0  0  0  0  0  0  0  0  0
  151.2641  137.0005  155.7981 H   0  0  0  0  0  0  0  0  0  0  0  0
  149.1916  135.8754  158.5940 H   0  0  0  0  0  0  0  0  0  0  0  0
  150.8676  135.3982  158.6556 H   0  0  0  0  0  0  0  0  0  0  0  0
  148.6309  138.3871  158.6353 H   0  0  0  0  0  0  0  0  0  0  0  0
  154.3375  141.2095  160.6397 H   0  0  0  0  0  0  0  0  0  0  0  0
  154.6727  142.4084  159.3880 H   0  0  0  0  0  0  0  0  0  0  0  0
  151.2490  143.9817  160.5162 H   0  0  0  0  0  0  0  0  0  0  0  0
  152.4317  144.2521  159.2387 H   0  0  0  0  0  0  0  0  0  0  0  0
  150.2943  144.0822  156.6840 H   0  0  0  0  0  0  0  0  0  0  0  0
  151.0397  144.5763  158.1905 H   0  0  0  0  0  0  0  0  0  0  0  0
  155.0244  137.7145  158.2866 H   0  0  0  0  0  0  0  0  0  0  0  0
  1  2  1  0  0  0  0
  1 29  1  0  0  0  0
  1 30  1  0  0  0  0
  1 31  1  0  0  0  0
  2  6  1  0  0  0  0
  2  3  1  0  0  0  0
  2 32  1  0  0  0  0
  3  4  1  0  0  0  0
  4  5  1  0  0  0  0
  4 33  1  0  0  0  0
  4 34  1  0  0  0  0
  5  6  1  0  0  0  0
  5 35  1  0  0  0  0
  5 36  1  0  0  0  0
  6  7  1  0  0  0  0
  6  8  1  0  0  0  0
  7 37  1  0  0  0  0
  8  9  1  0  0  0  0
  8 38  1  0  0  0  0
  8 39  1  0  0  0  0
  9 26  1  0  0  0  0
  9 10  1  0  0  0  0
 10 11  2  0  0  0  0
 10 40  1  0  0  0  0
 11 12  1  0  0  0  0
 12 26  2  0  0  0  0
 12 13  1  0  0  0  0
 13 14  1  0  0  0  0
 13 23  2  0  0  0  0
 14 19  1  0  0  0  0
 14 15  1  0  0  0  0
 15 16  1  0  0  0  0
 15 41  1  0  0  0  0
 15 42  1  0  0  0  0
 16 27  1  0  0  0  0
 16 17  1  0  0  0  0
 16 18  1  0  0  0  0
 18 19  1  0  0  0  0
 18 43  1  0  0  0  0
 18 44  1  0  0  0  0
 19 28  1  0  0  0  0
 19 20  1  0  0  0  0
 20 21  1  0  0  0  0
 20 22  2  0  0  0  0
 21 45  1  0  0  0  0
 21 46  1  0  0  0  0
 23 24  1  0  0  0  0
 24 25  2  0  0  0  0
 24 47  1  0  0  0  0
 25 26  1  0  0  0  0
M  END
> <s_m_source_file>
AV-unprocessed.smi

> <i_m_source_file_index>
196

> <i_lp_mmshare_version>
43012

> <i_f3d_flags>
0

> <s_epik_input>
W0NIMl0xW0NIMl1PW0NAQEhdKFtDSDNdKVtDQEBdMShbT0hdKVtDSDJdbihbY0hdbjIpYyhjMjMpbltjSF1uYzNONFtDSDJdW0NASF0oRilbQ0gyXVtDQEhdNEMoPU8pW05IMl0=

> <s_epik_cmdline>
J2VwaWtfcHl0aG9uJywgJy1waCcsICc3LjAnLCAnLXRuJywgJzgnLCAnLW1hJywgJzIwMCcsICctbWV0YWxfYmluZGluZycsICctaW1hZScsICc8aW5maWxlLm1hZT4nLCAnLW9tYWUnLCAnPG91dGZpbGUubWFlPic=

> <r_lp_tautomer_probability>
1

> <r_epik_Ionization_Penalty>
0.000857933

> <r_epik_Ionization_Penalty_Charging>
0

> <r_epik_Ionization_Penalty_Neutral>
0.000857933

> <r_epik_State_Penalty>
0.000462053

> <r_epik_Charging_Adjusted_Penalty>
0.000462053

> <i_epik_Tot_Q>
0

> <i_epik_Tot_abs_Q>
0

> <r_epik_Metal_State_Penalty>
-0

> <b_epik_Metal_Only>
0

> <s_lp_Force_Field>
OPLS_2005

> <r_lp_Energy>
42.3272

> <b_lp_Chiralities_Consistent>
1

> <s_lp_Variant>
AV-unprocessed.smi:196-2

> <Gold.Version>
5.8.1

> <Gold.Id.Protein>
6NUR|6NUR_protein|mol2

> <Gold.PLP.Fitness>
43.0230

> <Gold.PLP.PLP>
-35.9549

> <Gold.PLP.part.hbond>
-3.0000

> <Gold.PLP.part.metal>
0.0000

> <Gold.PLP.part.buried>
-5.2804

> <Gold.PLP.part.nonpolar>
-29.1491

> <Gold.PLP.part.repulsive>
1.1545

> <Gold.PLP.ligand.clash>
0.0000

> <Gold.PLP.ligand.torsion>
0.7232

> <Gold.PLP.Chemscore.Hbond>
2.7480

> <Gold.PLP.Chemscore.CHOScore>
0.0000

> <Gold.PLP.Chemscore.Metal>
0.0000

> <Gold.Chemscore.Hbonds>
donor molecule, donor type, donor heavy atom, donor atom, acceptor molecule, acceptor atom, score
      L1  H    21    45       P1  8028  1.00
      P1  H  7997  8009       L1    23  0.90
      P1  H 10752 10764       L1     7  0.58

> <Gold.PLP.Chemscore.Internal.Correction>
0.2704

> <Gold.Rescore>
     Score         DG    S(hbond)    S(metal)    S(lipo)     H(rot)  DE(clash)    DE(int)     intcor
      8.19     -13.82       2.09        0.00      68.30       2.60       0.18       5.45       ----

> <Gold.Chemscore.Fitness>
8.1897

> <Gold.Chemscore.DG>
-13.8181

> <Gold.Chemscore.ZeroCoef>
-5.4800

> <Gold.Chemscore.Hbond>
2.0943

> <Gold.Chemscore.Metal>
0.0000

> <Gold.Chemscore.Lipo>
68.2990

> <Gold.Chemscore.Internal_Hbond>
0.0000

> <Gold.Chemscore.DEClash>
0.1806

> <Gold.Chemscore.DEInternal>
5.4478

> <Gold.Chemscore.Rot>
2.5968

> <Gold.Chemscore.Internal.Correction>
   9.000000E+99

> <Gold.Chemscore.Hbonds>
donor molecule, donor type, donor heavy atom, donor atom, acceptor molecule, acceptor atom, score
      L1  H    21    45       P1  8028  0.97
      P1  H  7997  8009       L1    23  0.16
      P1  H 10752 10764       L1     7  0.11

> <Gold.Chemscore.Hbond.Weighted>
-6.9948

> <Gold.Chemscore.Metal.Weighted>
-0.0000

> <Gold.Chemscore.Lipo.Weighted>
-7.9910

> <Gold.Chemscore.Internal_Hbond.Weighted>
0.0000

> <Gold.Chemscore.DEClash.Weighted>
0.1806

> <Gold.Chemscore.DEInternal.Weighted>
5.4478

> <Gold.Chemscore.Rot.Weighted>
6.6477

> <Gold.Chemscore.Internal.Correction.Weighted>
   9.000000E+99

> <Gold.Protein.RotatedTorsions>
[ 6907 6896 6895 6894 ] final  -27.64 input  -60.11 | X-H torsion
[ 7974 7965 7964 7962 ] final  138.17 input  175.53 | X-H torsion
[ 8008 7997 7996 7995 ] final  128.29 input   59.86 | X-H torsion
[ 10167 10162 10161 10158 ] final  -76.45 input  -65.29 | X-H torsion
[ 10718 10713 10712 10709 ] final  177.61 input   66.30 | X-H torsion
[ 10763 10752 10751 10750 ] final  -55.05 input  -60.55 | X-H torsion
[ 11005 11000 10999 10996 ] final  135.27 input  -57.11 | X-H torsion

> <Gold.Protein.ActiveResidues>
 VAL166  LYS551  ARG553  GLY616  TRP617  ASP618  TYR619  PRO620  LYS621  CYS622 
 ASP623  PHE694  ASN695  SER759  ASP760  ASP761  ALA762  ILE779  LEU786  VAL792 
 PHE793  MET794  SER795  GLU796  ALA797  LYS798  CYS799  TRP800  GLU811  SER814 

> <Gold.Protein.RotatedAtoms>
  151.1441  135.0194  159.8638 H   0  0  0  0  0  0  0  0  0  0  0  0  # atno 6907 bound_to 6896
  152.5453  134.1465  159.8510 H   0  0  0  0  0  0  0  0  0  0  0  0  # atno 6908 bound_to 6896
  151.1543  133.4841  159.2627 H   0  0  0  0  0  0  0  0  0  0  0  0  # atno 6909 bound_to 6896
  144.9398  139.4945  143.5577 H   0  0  0  0  0  0  0  0  0  0  0  0  # atno 7974 bound_to 7965
  156.2911  140.2648  156.2411 H   0  0  0  0  0  0  0  0  0  0  0  0  # atno 8008 bound_to 7997
  154.9976  140.0388  157.2364 H   0  0  0  0  0  0  0  0  0  0  0  0  # atno 8009 bound_to 7997
  154.7630  140.2764  155.6203 H   0  0  0  0  0  0  0  0  0  0  0  0  # atno 8010 bound_to 7997
  140.4856  143.2392  151.7990 H   0  0  0  0  0  0  0  0  0  0  0  0  # atno 10167 bound_to 10162
  156.9027  130.9884  151.3033 H   0  0  0  0  0  0  0  0  0  0  0  0  # atno 10718 bound_to 10713
  154.1847  135.6437  153.5043 H   0  0  0  0  0  0  0  0  0  0  0  0  # atno 10763 bound_to 10752
  153.0050  135.5414  154.6478 H   0  0  0  0  0  0  0  0  0  0  0  0  # atno 10764 bound_to 10752
  154.5851  135.2929  155.0666 H   0  0  0  0  0  0  0  0  0  0  0  0  # atno 10765 bound_to 10752
  139.9969  134.9494  156.9984 H   0  0  0  0  0  0  0  0  0  0  0  0  # atno 11005 bound_to 11000
  146.3281  139.8409  142.8890 LP  0  0  0  0  0  0  0  0  0  0  0  0  # atno 17320 bound_to 7965
  145.3009  141.0194  143.3609 LP  0  0  0  0  0  0  0  0  0  0  0  0  # atno 17321 bound_to 7965
  139.4841  144.4717  151.9417 LP  0  0  0  0  0  0  0  0  0  0  0  0  # atno 17342 bound_to 10162
  140.3803  144.2745  150.5909 LP  0  0  0  0  0  0  0  0  0  0  0  0  # atno 17343 bound_to 10162
  157.6016  130.8517  149.8811 LP  0  0  0  0  0  0  0  0  0  0  0  0  # atno 17370 bound_to 10713
  156.0574  130.3706  150.1060 LP  0  0  0  0  0  0  0  0  0  0  0  0  # atno 17371 bound_to 10713
  140.4802  134.1298  155.7216 LP  0  0  0  0  0  0  0  0  0  0  0  0  # atno 17394 bound_to 11000
  141.1611  133.8791  157.1845 LP  0  0  0  0  0  0  0  0  0  0  0  0  # atno 17395 bound_to 11000

$$$$
