AV-unprocessed.smi:2183|AV-procd|sdf|8868|dock2
  -GOLD-   2272012 63D 1   1.00000     0.00000
 Structure written by MMmdl.
 41 43  0  0  0  0  0  0  0  0  2 V2000
  149.9378  141.1872  153.5931 O   0  0  0  0  0  0  0  0  0  0  0  0
  149.2269  141.4790  154.7780 C   0  0  0  0  0  0  0  0  0  0  0  0
  150.1165  141.7172  155.9569 C   0  0  0  0  0  0  0  0  0  0  0  0
  150.2962  142.9024  156.6083 N   0  3  0  0  0  0  0  0  0  0  0  0
  151.2048  142.7364  157.6541 C   0  0  0  0  0  0  0  0  0  0  0  0
  151.6987  143.6434  158.5866 C   0  0  0  0  0  0  0  0  0  0  0  0
  152.6217  143.1429  159.5286 C   0  0  0  0  0  0  0  0  0  0  0  0
  153.0208  141.7903  159.5186 C   0  0  0  0  0  0  0  0  0  0  0  0
  152.5140  140.8807  158.5672 C   0  0  0  0  0  0  0  0  0  0  0  0
  151.6004  141.3835  157.6414 C   0  0  0  0  0  0  0  0  0  0  0  0
  150.9027  140.7936  156.5819 N   0  0  0  0  0  0  0  0  0  0  0  0
  151.1007  139.3627  156.3023 C   0  0  0  0  0  0  0  0  0  0  0  0
  151.6595  139.0955  154.8898 C   0  0  1  0  0  0  0  0  0  0  0  0
  153.0489  139.3584  154.8909 O   0  0  0  0  0  0  0  0  0  0  0  0
  151.4339  137.6405  154.4500 C   0  0  0  0  0  0  0  0  0  0  0  0
  151.4250  136.8088  155.6030 O   0  0  0  0  0  0  0  0  0  0  0  0
  151.0337  135.4949  155.4588 C   0  0  0  0  0  0  0  0  0  0  0  0
  150.1265  135.2082  154.4177 C   0  0  0  0  0  0  0  0  0  0  0  0
  149.6741  133.8931  154.1963 C   0  0  0  0  0  0  0  0  0  0  0  0
  150.1271  132.8456  155.0196 C   0  0  0  0  0  0  0  0  0  0  0  0
  149.5764  131.2328  154.7495 Cl  0  0  0  0  0  0  0  0  0  0  0  0
  151.0310  133.1173  156.0636 C   0  0  0  0  0  0  0  0  0  0  0  0
  151.4831  134.4331  156.2846 C   0  0  0  0  0  0  0  0  0  0  0  0
  149.5171  140.4579  153.1631 H   0  0  0  0  0  0  0  0  0  0  0  0
  148.6096  142.3612  154.6074 H   0  0  0  0  0  0  0  0  0  0  0  0
  148.5544  140.6505  155.0014 H   0  0  0  0  0  0  0  0  0  0  0  0
  151.3951  144.6800  158.5958 H   0  0  0  0  0  0  0  0  0  0  0  0
  153.0319  143.8097  160.2733 H   0  0  0  0  0  0  0  0  0  0  0  0
  153.7299  141.4432  160.2561 H   0  0  0  0  0  0  0  0  0  0  0  0
  152.8256  139.8465  158.5679 H   0  0  0  0  0  0  0  0  0  0  0  0
  151.7790  138.9662  157.0590 H   0  0  0  0  0  0  0  0  0  0  0  0
  150.1484  138.8511  156.4483 H   0  0  0  0  0  0  0  0  0  0  0  0
  151.1769  139.7674  154.1794 H   0  0  0  0  0  0  0  0  0  0  0  0
  153.3290  139.4934  153.9987 H   0  0  0  0  0  0  0  0  0  0  0  0
  150.5103  137.5479  153.8755 H   0  0  0  0  0  0  0  0  0  0  0  0
  152.2593  137.3268  153.8084 H   0  0  0  0  0  0  0  0  0  0  0  0
  149.7744  136.0056  153.7798 H   0  0  0  0  0  0  0  0  0  0  0  0
  148.9801  133.6897  153.3941 H   0  0  0  0  0  0  0  0  0  0  0  0
  151.3810  132.3160  156.6975 H   0  0  0  0  0  0  0  0  0  0  0  0
  152.1759  134.6012  157.0947 H   0  0  0  0  0  0  0  0  0  0  0  0
  149.8253  143.7601  156.3497 H   0  0  0  0  0  0  0  0  0  0  0  0
  1  2  1  0  0  0  0
  1 24  1  0  0  0  0
  2  3  1  0  0  0  0
  2 25  1  0  0  0  0
  2 26  1  0  0  0  0
  3 11  1  0  0  0  0
  3  4  2  0  0  0  0
  4  5  1  0  0  0  0
  4 41  1  0  0  0  0
  5 10  2  0  0  0  0
  5  6  1  0  0  0  0
  6  7  2  0  0  0  0
  6 27  1  0  0  0  0
  7  8  1  0  0  0  0
  7 28  1  0  0  0  0
  8  9  2  0  0  0  0
  8 29  1  0  0  0  0
  9 10  1  0  0  0  0
  9 30  1  0  0  0  0
 10 11  1  0  0  0  0
 11 12  1  0  0  0  0
 12 13  1  0  0  0  0
 12 31  1  0  0  0  0
 12 32  1  0  0  0  0
 13 14  1  0  0  0  0
 13 15  1  0  0  0  0
 13 33  1  0  0  0  0
 14 34  1  0  0  0  0
 15 16  1  0  0  0  0
 15 35  1  0  0  0  0
 15 36  1  0  0  0  0
 16 17  1  0  0  0  0
 17 23  1  0  0  0  0
 17 18  2  0  0  0  0
 18 19  1  0  0  0  0
 18 37  1  0  0  0  0
 19 20  2  0  0  0  0
 19 38  1  0  0  0  0
 20 21  1  0  0  0  0
 20 22  1  0  0  0  0
 22 23  2  0  0  0  0
 22 39  1  0  0  0  0
 23 40  1  0  0  0  0
M  CHG  1   4   1
M  END
> <s_m_source_file>
AV-unprocessed.smi

> <i_m_source_file_index>
2183

> <i_lp_mmshare_version>
43012

> <i_f3d_flags>
0

> <s_epik_input>
W2NIXTFbY0hdW2NIXVtjSF1jKGMxMiluKGMobjIpW0NIMl1bT0hdKVtDSDJdW0NASF0oW09IXSlbQ0gyXU9jM1tjSF1bY0hdYyhDbClbY0hdW2NIXTM=

> <s_epik_cmdline>
J2VwaWtfcHl0aG9uJywgJy1waCcsICc3LjAnLCAnLXRuJywgJzgnLCAnLW1hJywgJzIwMCcsICctbWV0YWxfYmluZGluZycsICctaW1hZScsICc8aW5maWxlLm1hZT4nLCAnLW9tYWUnLCAnPG91dGZpbGUubWFlPic=

> <r_lp_tautomer_probability>
1

> <r_epik_Ionization_Penalty>
1.40052

> <r_epik_Ionization_Penalty_Charging>
1.39966

> <r_epik_Ionization_Penalty_Neutral>
0.000858184

> <r_epik_State_Penalty>
1.4817

> <r_epik_Charging_Adjusted_Penalty>
2.88136

> <i_epik_Tot_Q>
1

> <i_epik_Tot_abs_Q>
1

> <r_epik_Metal_State_Penalty>
5.5238

> <b_epik_Metal_Only>
0

> <s_lp_Force_Field>
OPLS_2005

> <r_lp_Energy>
18.7235

> <b_lp_Chiralities_Consistent>
1

> <s_lp_Variant>
AV-unprocessed.smi:2183-4

> <Gold.Version>
5.8.1

> <Gold.Id.Protein>
6NUR|6NUR_protein|mol2

> <Gold.PLP.Fitness>
61.4279

> <Gold.PLP.PLP>
-49.7191

> <Gold.PLP.part.hbond>
-5.5961

> <Gold.PLP.part.metal>
0.0000

> <Gold.PLP.part.buried>
-3.0942

> <Gold.PLP.part.nonpolar>
-41.2684

> <Gold.PLP.part.repulsive>
0.1105

> <Gold.PLP.ligand.clash>
0.0000

> <Gold.PLP.ligand.torsion>
1.0022

> <Gold.PLP.Chemscore.Hbond>
4.4879

> <Gold.PLP.Chemscore.CHOScore>
0.0000

> <Gold.PLP.Chemscore.Metal>
0.0000

> <Gold.Chemscore.Hbonds>
donor molecule, donor type, donor heavy atom, donor atom, acceptor molecule, acceptor atom, score
      L1  H     1    24       P1  7957  0.48
      L1  H     4    41       P1  8028  1.85
      P1  H  7989  7998       L1     1  0.21
      P1  H  7997  8009       L1    14  1.00
      P1  H  8011  8017       L1     1  0.88

> <Gold.PLP.Chemscore.Internal.Correction>
0.2495

> <Gold.Rescore>
     Score         DG    S(hbond)    S(metal)    S(lipo)     H(rot)  DE(clash)    DE(int)     intcor
     19.69     -21.33       2.88        0.00     121.77       3.13       0.26       1.38       ----

> <Gold.Chemscore.Fitness>
19.6916

> <Gold.Chemscore.DG>
-21.3305

> <Gold.Chemscore.ZeroCoef>
-5.4800

> <Gold.Chemscore.Hbond>
2.8795

> <Gold.Chemscore.Metal>
0.0000

> <Gold.Chemscore.Lipo>
121.7698

> <Gold.Chemscore.Internal_Hbond>
0.0000

> <Gold.Chemscore.DEClash>
0.2601

> <Gold.Chemscore.DEInternal>
1.3788

> <Gold.Chemscore.Rot>
3.1305

> <Gold.Chemscore.Internal.Correction>
   9.000000E+99

> <Gold.Chemscore.Hbonds>
donor molecule, donor type, donor heavy atom, donor atom, acceptor molecule, acceptor atom, score
      L1  H     1    24       P1  7957  0.46
      L1  H     4    41       P1  8028  0.88
      P1  H  7989  7998       L1     1  0.11
      P1  H  7997  8009       L1    14  0.45
      P1  H  8011  8017       L1     1  0.20

> <Gold.Chemscore.Hbond.Weighted>
-9.6176

> <Gold.Chemscore.Metal.Weighted>
-0.0000

> <Gold.Chemscore.Lipo.Weighted>
-14.2471

> <Gold.Chemscore.Internal_Hbond.Weighted>
0.0000

> <Gold.Chemscore.DEClash.Weighted>
0.2601

> <Gold.Chemscore.DEInternal.Weighted>
1.3788

> <Gold.Chemscore.Rot.Weighted>
8.0141

> <Gold.Chemscore.Internal.Correction.Weighted>
   9.000000E+99

> <Gold.Protein.RotatedTorsions>
[ 6907 6896 6895 6894 ] final  -83.96 input  -60.11 | X-H torsion
[ 7974 7965 7964 7962 ] final   37.23 input  175.53 | X-H torsion
[ 8008 7997 7996 7995 ] final -139.14 input   59.86 | X-H torsion
[ 10167 10162 10161 10158 ] final  156.11 input  -65.29 | X-H torsion
[ 10718 10713 10712 10709 ] final  111.12 input   66.30 | X-H torsion
[ 10763 10752 10751 10750 ] final  -31.83 input  -60.55 | X-H torsion
[ 11005 11000 10999 10996 ] final -112.21 input  -57.11 | X-H torsion

> <Gold.Protein.ActiveResidues>
 VAL166  LYS551  ARG553  GLY616  TRP617  ASP618  TYR619  PRO620  LYS621  CYS622 
 ASP623  PHE694  ASN695  SER759  ASP760  ASP761  ALA762  ILE779  LEU786  VAL792 
 PHE793  MET794  SER795  GLU796  ALA797  LYS798  CYS799  TRP800  GLU811  SER814 

> <Gold.Protein.RotatedAtoms>
  150.6880  134.3432  159.4876 H   0  0  0  0  0  0  0  0  0  0  0  0  # atno 6907 bound_to 6896
  152.1283  134.9151  160.0569 H   0  0  0  0  0  0  0  0  0  0  0  0  # atno 6908 bound_to 6896
  152.0331  133.3911  159.4342 H   0  0  0  0  0  0  0  0  0  0  0  0  # atno 6909 bound_to 6896
  146.1153  139.5919  142.9326 H   0  0  0  0  0  0  0  0  0  0  0  0  # atno 7974 bound_to 7965
  155.4399  140.0531  157.3011 H   0  0  0  0  0  0  0  0  0  0  0  0  # atno 8008 bound_to 7997
  154.4822  140.2086  155.9693 H   0  0  0  0  0  0  0  0  0  0  0  0  # atno 8009 bound_to 7997
  156.1223  140.3186  155.8231 H   0  0  0  0  0  0  0  0  0  0  0  0  # atno 8010 bound_to 7997
  139.4821  144.5038  151.8128 H   0  0  0  0  0  0  0  0  0  0  0  0  # atno 10167 bound_to 10162
  157.6461  131.0945  150.6701 H   0  0  0  0  0  0  0  0  0  0  0  0  # atno 10718 bound_to 10713
  153.8038  135.6888  153.4851 H   0  0  0  0  0  0  0  0  0  0  0  0  # atno 10763 bound_to 10752
  153.1671  135.4557  154.9851 H   0  0  0  0  0  0  0  0  0  0  0  0  # atno 10764 bound_to 10752
  154.7995  135.3332  154.7524 H   0  0  0  0  0  0  0  0  0  0  0  0  # atno 10765 bound_to 10752
  141.0689  133.9413  157.2524 H   0  0  0  0  0  0  0  0  0  0  0  0  # atno 11005 bound_to 11000
  145.5580  141.0407  143.2242 LP  0  0  0  0  0  0  0  0  0  0  0  0  # atno 17320 bound_to 7965
  144.7547  139.7104  143.7259 LP  0  0  0  0  0  0  0  0  0  0  0  0  # atno 17321 bound_to 7965
  140.4534  144.1823  150.5899 LP  0  0  0  0  0  0  0  0  0  0  0  0  # atno 17342 bound_to 10162
  140.4560  143.2467  151.9283 LP  0  0  0  0  0  0  0  0  0  0  0  0  # atno 17343 bound_to 10162
  156.7018  130.4625  149.5571 LP  0  0  0  0  0  0  0  0  0  0  0  0  # atno 17370 bound_to 10713
  156.1790  130.6486  151.0928 LP  0  0  0  0  0  0  0  0  0  0  0  0  # atno 17371 bound_to 10713
  139.9503  135.0176  156.8975 LP  0  0  0  0  0  0  0  0  0  0  0  0  # atno 17394 bound_to 11000
  140.5715  134.0438  155.7432 LP  0  0  0  0  0  0  0  0  0  0  0  0  # atno 17395 bound_to 11000

$$$$
