AV-unprocessed.smi:1880|AV-procd|sdf|7636|dock5
  -GOLD-   22720 9363D 1   1.00000     0.00000
 Structure written by MMmdl.
 36 38  0  0  0  0  0  0  0  0  1 V2000
  151.3534  140.4171  155.2921 O   0  0  0  0  0  0  0  0  0  0  0  0
  150.2727  141.2697  155.6172 C   0  0  1  0  0  0  0  0  0  0  0  0
  149.0802  140.9039  154.7201 C   0  0  0  0  0  0  0  0  0  0  0  0
  147.9919  141.7598  155.0261 O   0  0  0  0  0  0  0  0  0  0  0  0
  146.7446  141.2232  154.6206 C   0  0  0  0  0  0  0  0  0  0  0  0
  145.8296  142.3817  154.4134 C   0  0  0  0  0  0  0  0  0  0  0  0
  145.7835  143.3914  153.4922 C   0  0  0  0  0  0  0  0  0  0  0  0
  144.6582  144.1925  153.8312 C   0  0  0  0  0  0  0  0  0  0  0  0
  144.1013  143.6110  154.9347 C   0  0  0  0  0  0  0  0  0  0  0  0
  144.8038  142.5049  155.3026 O   0  0  0  0  0  0  0  0  0  0  0  0
  149.9373  141.1090  157.1128 C   0  0  0  0  0  0  0  0  0  0  0  0
  150.8309  141.8690  157.9692 N   0  0  0  0  0  0  0  0  0  0  0  0
  150.8804  143.2085  158.1001 C   0  0  0  0  0  0  0  0  0  0  0  0
  151.7789  143.7058  158.9450 N   0  0  0  0  0  0  0  0  0  0  0  0
  152.3850  142.5544  159.4179 C   0  0  0  0  0  0  0  0  0  0  0  0
  153.4312  142.3868  160.3529 C   0  0  0  0  0  0  0  0  0  0  0  0
  153.8934  141.0962  160.6850 C   0  0  0  0  0  0  0  0  0  0  0  0
  154.8968  140.9534  161.5831 F   0  0  0  0  0  0  0  0  0  0  0  0
  153.3170  139.9553  160.0880 C   0  0  0  0  0  0  0  0  0  0  0  0
  153.7670  138.7201  160.4122 F   0  0  0  0  0  0  0  0  0  0  0  0
  152.2726  140.0976  159.1543 C   0  0  0  0  0  0  0  0  0  0  0  0
  151.8145  141.3870  158.8264 C   0  0  0  0  0  0  0  0  0  0  0  0
  151.3850  139.7202  155.9301 H   0  0  0  0  0  0  0  0  0  0  0  0
  150.5680  142.3030  155.4293 H   0  0  0  0  0  0  0  0  0  0  0  0
  149.3484  140.9602  153.6634 H   0  0  0  0  0  0  0  0  0  0  0  0
  148.7724  139.8763  154.9204 H   0  0  0  0  0  0  0  0  0  0  0  0
  146.8522  140.6524  153.6970 H   0  0  0  0  0  0  0  0  0  0  0  0
  146.3438  140.5566  155.3854 H   0  0  0  0  0  0  0  0  0  0  0  0
  146.4741  143.5346  152.6746 H   0  0  0  0  0  0  0  0  0  0  0  0
  144.3011  145.0806  153.3310 H   0  0  0  0  0  0  0  0  0  0  0  0
  143.2464  143.8416  155.5530 H   0  0  0  0  0  0  0  0  0  0  0  0
  148.9177  141.4443  157.3076 H   0  0  0  0  0  0  0  0  0  0  0  0
  149.9793  140.0589  157.4050 H   0  0  0  0  0  0  0  0  0  0  0  0
  150.2188  143.8551  157.5422 H   0  0  0  0  0  0  0  0  0  0  0  0
  153.8802  143.2529  160.8158 H   0  0  0  0  0  0  0  0  0  0  0  0
  151.8311  139.2265  158.6936 H   0  0  0  0  0  0  0  0  0  0  0  0
  1  2  1  0  0  0  0
  1 23  1  0  0  0  0
  2  3  1  0  0  0  0
  2 11  1  0  0  0  0
  2 24  1  0  0  0  0
  3  4  1  0  0  0  0
  3 25  1  0  0  0  0
  3 26  1  0  0  0  0
  4  5  1  0  0  0  0
  5  6  1  0  0  0  0
  5 27  1  0  0  0  0
  5 28  1  0  0  0  0
  6 10  1  0  0  0  0
  6  7  2  0  0  0  0
  7  8  1  0  0  0  0
  7 29  1  0  0  0  0
  8  9  2  0  0  0  0
  8 30  1  0  0  0  0
  9 10  1  0  0  0  0
  9 31  1  0  0  0  0
 11 12  1  0  0  0  0
 11 32  1  0  0  0  0
 11 33  1  0  0  0  0
 12 22  1  0  0  0  0
 12 13  1  0  0  0  0
 13 14  2  0  0  0  0
 13 34  1  0  0  0  0
 14 15  1  0  0  0  0
 15 22  2  0  0  0  0
 15 16  1  0  0  0  0
 16 17  2  0  0  0  0
 16 35  1  0  0  0  0
 17 18  1  0  0  0  0
 17 19  1  0  0  0  0
 19 20  1  0  0  0  0
 19 21  2  0  0  0  0
 21 22  1  0  0  0  0
 21 36  1  0  0  0  0
M  END
> <s_m_source_file>
AV-unprocessed.smi

> <i_m_source_file_index>
1880

> <i_lp_mmshare_version>
43012

> <i_f3d_flags>
0

> <s_epik_input>
W2NIXTFjKEYpYyhGKVtjSF1jKGMxMiluKFtjSF1uMilbQ0gyXVtDQEhdKFtPSF0pW0NIMl1PW0NIMl1jM1tjSF1bY0hdW2NIXW8z

> <s_epik_cmdline>
J2VwaWtfcHl0aG9uJywgJy1waCcsICc3LjAnLCAnLXRuJywgJzgnLCAnLW1hJywgJzIwMCcsICctbWV0YWxfYmluZGluZycsICctaW1hZScsICc8aW5maWxlLm1hZT4nLCAnLW9tYWUnLCAnPG91dGZpbGUubWFlPic=

> <r_epik_Ionization_Penalty>
0.0152348

> <r_epik_Ionization_Penalty_Charging>
0

> <r_epik_Ionization_Penalty_Neutral>
0.0152348

> <r_epik_State_Penalty>
0.0119607

> <r_epik_Charging_Adjusted_Penalty>
0.0119607

> <i_epik_Tot_Q>
0

> <i_epik_Tot_abs_Q>
0

> <r_epik_Metal_State_Penalty>
1.20821e-05

> <b_epik_Metal_Only>
0

> <s_lp_Force_Field>
OPLS_2005

> <r_lp_Energy>
7.94545

> <b_lp_Chiralities_Consistent>
1

> <s_lp_Variant>
AV-unprocessed.smi:1880-2

> <Gold.Version>
5.8.1

> <Gold.Id.Protein>
6NUR|6NUR_protein|mol2

> <Gold.PLP.Fitness>
50.2967

> <Gold.PLP.PLP>
-45.5947

> <Gold.PLP.part.hbond>
-1.0000

> <Gold.PLP.part.metal>
0.0000

> <Gold.PLP.part.buried>
-6.2523

> <Gold.PLP.part.nonpolar>
-39.2433

> <Gold.PLP.part.repulsive>
0.8389

> <Gold.PLP.ligand.clash>
0.0000

> <Gold.PLP.ligand.torsion>
0.6054

> <Gold.PLP.Chemscore.Hbond>
0.9600

> <Gold.PLP.Chemscore.CHOScore>
0.9961

> <Gold.PLP.Chemscore.Metal>
0.0000

> <Gold.Chemscore.Hbonds>
donor molecule, donor type, donor heavy atom, donor atom, acceptor molecule, acceptor atom, score
      P1  H  7989  7998       L1     1  0.93
      L1  C    13    34       P1  8028  1.00

> <Gold.PLP.Chemscore.Internal.Correction>
0.0446

> <Gold.Rescore>
     Score         DG    S(hbond)    S(metal)    S(lipo)     H(rot)  DE(clash)    DE(int)     intcor
     12.01     -12.61       0.86        0.00      98.68       2.85       0.08       0.51       ----

> <Gold.Chemscore.Fitness>
12.0145

> <Gold.Chemscore.DG>
-12.6058

> <Gold.Chemscore.ZeroCoef>
-5.4800

> <Gold.Chemscore.Hbond>
0.8625

> <Gold.Chemscore.Metal>
0.0000

> <Gold.Chemscore.Lipo>
98.6791

> <Gold.Chemscore.Internal_Hbond>
0.0000

> <Gold.Chemscore.DEClash>
0.0772

> <Gold.Chemscore.DEInternal>
0.5141

> <Gold.Chemscore.Rot>
2.8518

> <Gold.Chemscore.Internal.Correction>
   9.000000E+99

> <Gold.Chemscore.Hbonds>
donor molecule, donor type, donor heavy atom, donor atom, acceptor molecule, acceptor atom, score
      P1  H  7989  7998       L1     1  0.27

> <Gold.Chemscore.Hbond.Weighted>
-2.8808

> <Gold.Chemscore.Metal.Weighted>
-0.0000

> <Gold.Chemscore.Lipo.Weighted>
-11.5455

> <Gold.Chemscore.Internal_Hbond.Weighted>
0.0000

> <Gold.Chemscore.DEClash.Weighted>
0.0772

> <Gold.Chemscore.DEInternal.Weighted>
0.5141

> <Gold.Chemscore.Rot.Weighted>
7.3005

> <Gold.Chemscore.Internal.Correction.Weighted>
   9.000000E+99

> <Gold.Protein.RotatedTorsions>
[ 6907 6896 6895 6894 ] final   85.82 input  -60.11 | X-H torsion
[ 7974 7965 7964 7962 ] final   40.08 input  175.53 | X-H torsion
[ 8008 7997 7996 7995 ] final  137.61 input   59.86 | X-H torsion
[ 10167 10162 10161 10158 ] final   -1.63 input  -65.29 | X-H torsion
[ 10718 10713 10712 10709 ] final -138.32 input   66.30 | X-H torsion
[ 10763 10752 10751 10750 ] final -142.17 input  -60.55 | X-H torsion
[ 11005 11000 10999 10996 ] final  133.54 input  -57.11 | X-H torsion

> <Gold.Protein.ActiveResidues>
 VAL166  LYS551  ARG553  GLY616  TRP617  ASP618  TYR619  PRO620  LYS621  CYS622 
 ASP623  PHE694  ASN695  SER759  ASP760  ASP761  ALA762  ILE779  LEU786  VAL792 
 PHE793  MET794  SER795  GLU796  ALA797  LYS798  CYS799  TRP800  GLU811  SER814 

> <Gold.Protein.RotatedAtoms>
  152.5382  134.2527  159.8904 H   0  0  0  0  0  0  0  0  0  0  0  0  # atno 6907 bound_to 6896
  151.2490  133.4353  159.2618 H   0  0  0  0  0  0  0  0  0  0  0  0  # atno 6908 bound_to 6896
  151.0557  134.9717  159.8290 H   0  0  0  0  0  0  0  0  0  0  0  0  # atno 6909 bound_to 6896
  146.0933  139.5575  142.9461 H   0  0  0  0  0  0  0  0  0  0  0  0  # atno 7974 bound_to 7965
  156.3001  140.2415  156.3938 H   0  0  0  0  0  0  0  0  0  0  0  0  # atno 8008 bound_to 7997
  154.8589  140.0421  157.1672 H   0  0  0  0  0  0  0  0  0  0  0  0  # atno 8009 bound_to 7997
  154.8917  140.2964  155.5370 H   0  0  0  0  0  0  0  0  0  0  0  0  # atno 8010 bound_to 7997
  140.6818  143.6753  150.8151 H   0  0  0  0  0  0  0  0  0  0  0  0  # atno 10167 bound_to 10162
  156.2981  130.7413  151.1457 H   0  0  0  0  0  0  0  0  0  0  0  0  # atno 10718 bound_to 10713
  154.8519  135.3503  154.5985 H   0  0  0  0  0  0  0  0  0  0  0  0  # atno 10763 bound_to 10752
  153.6594  135.6990  153.5187 H   0  0  0  0  0  0  0  0  0  0  0  0  # atno 10764 bound_to 10752
  153.2830  135.4258  155.1053 H   0  0  0  0  0  0  0  0  0  0  0  0  # atno 10765 bound_to 10752
  139.9858  134.9532  156.9740 H   0  0  0  0  0  0  0  0  0  0  0  0  # atno 11005 bound_to 11000
  145.5996  141.0357  143.2025 LP  0  0  0  0  0  0  0  0  0  0  0  0  # atno 17320 bound_to 7965
  144.7377  139.7539  143.7323 LP  0  0  0  0  0  0  0  0  0  0  0  0  # atno 17321 bound_to 7965
  140.0454  143.5303  152.2698 LP  0  0  0  0  0  0  0  0  0  0  0  0  # atno 17342 bound_to 10162
  139.6146  144.7616  151.2876 LP  0  0  0  0  0  0  0  0  0  0  0  0  # atno 17343 bound_to 10162
  157.7360  131.0566  150.5435 LP  0  0  0  0  0  0  0  0  0  0  0  0  # atno 17370 bound_to 10713
  156.5559  130.4243  149.6085 LP  0  0  0  0  0  0  0  0  0  0  0  0  # atno 17371 bound_to 10713
  140.5005  134.1102  155.7249 LP  0  0  0  0  0  0  0  0  0  0  0  0  # atno 17394 bound_to 11000
  141.1523  133.8946  157.2066 LP  0  0  0  0  0  0  0  0  0  0  0  0  # atno 17395 bound_to 11000

$$$$
