AV-unprocessed.smi:1431|AV-procd|sdf|5829|dock9
  -GOLD-   22720 5493D 1   1.00000     0.00000
 Structure written by MMmdl.
 33 34  0  0  0  0  0  0  0  0  1 V2000
  144.6059  136.9201  151.6889 O   0  0  0  0  0  0  0  0  0  0  0  0
  145.8062  136.6452  151.6783 C   0  0  0  0  0  0  0  0  0  0  0  0
  146.7726  137.5558  151.8643 N   0  0  0  0  0  0  0  0  0  0  0  0
  146.5456  138.9710  152.1388 C   0  0  0  0  0  0  0  0  0  0  0  0
  147.1644  139.4068  153.4818 C   0  0  2  0  0  0  0  0  0  0  0  0
  147.4262  140.9234  153.5492 C   0  0  0  0  0  0  0  0  0  0  0  0
  148.2711  141.2175  154.7931 C   0  0  0  0  0  0  0  0  0  0  0  0
  149.3674  139.7646  155.0004 S   0  0  0  0  0  0  0  0  0  0  0  0
  150.7013  140.0743  154.4643 O   0  0  0  0  0  0  0  0  0  0  0  0
  149.2031  139.2309  156.3609 O   0  0  0  0  0  0  0  0  0  0  0  0
  148.4844  138.6883  153.8089 C   0  0  0  0  0  0  0  0  0  0  0  0
  146.3227  135.4178  151.4918 N   0  0  0  0  0  0  0  0  0  0  0  0
  145.6280  134.1936  151.3014 C   0  0  0  0  0  0  0  0  0  0  0  0
  146.4255  133.0309  151.3996 C   0  0  0  0  0  0  0  0  0  0  0  0
  145.8301  131.7661  151.2295 C   0  0  0  0  0  0  0  0  0  0  0  0
  144.4510  131.6963  150.9641 C   0  0  0  0  0  0  0  0  0  0  0  0
  143.7299  132.9017  150.8817 C   0  0  0  0  0  0  0  0  0  0  0  0
  144.2983  134.1148  151.0451 N   0  0  0  0  0  0  0  0  0  0  0  0
  147.7330  137.2459  151.8352 H   0  0  0  0  0  0  0  0  0  0  0  0
  146.9816  139.5465  151.3217 H   0  0  0  0  0  0  0  0  0  0  0  0
  145.4751  139.1828  152.1274 H   0  0  0  0  0  0  0  0  0  0  0  0
  146.4605  139.1739  154.2822 H   0  0  0  0  0  0  0  0  0  0  0  0
  147.9834  141.2319  152.6637 H   0  0  0  0  0  0  0  0  0  0  0  0
  146.4973  141.4944  153.5562 H   0  0  0  0  0  0  0  0  0  0  0  0
  148.8618  142.1294  154.7051 H   0  0  0  0  0  0  0  0  0  0  0  0
  147.6402  141.2926  155.6792 H   0  0  0  0  0  0  0  0  0  0  0  0
  148.3348  137.6975  154.2385 H   0  0  0  0  0  0  0  0  0  0  0  0
  149.1105  138.5918  152.9215 H   0  0  0  0  0  0  0  0  0  0  0  0
  147.3291  135.3471  151.5068 H   0  0  0  0  0  0  0  0  0  0  0  0
  147.4839  133.1028  151.6048 H   0  0  0  0  0  0  0  0  0  0  0  0
  146.4217  130.8654  151.3021 H   0  0  0  0  0  0  0  0  0  0  0  0
  143.9585  130.7449  150.8275 H   0  0  0  0  0  0  0  0  0  0  0  0
  142.6691  132.8924  150.6795 H   0  0  0  0  0  0  0  0  0  0  0  0
  1  2  2  0  0  0  0
  2  3  1  0  0  0  0
  2 12  1  0  0  0  0
  3  4  1  0  0  0  0
  3 19  1  0  0  0  0
  4  5  1  0  0  0  0
  4 20  1  0  0  0  0
  4 21  1  0  0  0  0
  5 11  1  0  0  0  0
  5  6  1  0  0  0  0
  5 22  1  0  0  0  0
  6  7  1  0  0  0  0
  6 23  1  0  0  0  0
  6 24  1  0  0  0  0
  7  8  1  0  0  0  0
  7 25  1  0  0  0  0
  7 26  1  0  0  0  0
  8  9  2  0  0  0  0
  8 10  2  0  0  0  0
  8 11  1  0  0  0  0
 11 27  1  0  0  0  0
 11 28  1  0  0  0  0
 12 13  1  0  0  0  0
 12 29  1  0  0  0  0
 13 18  1  0  0  0  0
 13 14  2  0  0  0  0
 14 15  1  0  0  0  0
 14 30  1  0  0  0  0
 15 16  2  0  0  0  0
 15 31  1  0  0  0  0
 16 17  1  0  0  0  0
 16 32  1  0  0  0  0
 17 18  2  0  0  0  0
 17 33  1  0  0  0  0
M  END
> <s_m_source_file>
AV-unprocessed.smi

> <i_m_source_file_index>
1431

> <i_lp_mmshare_version>
43012

> <i_f3d_flags>
0

> <s_epik_input>
bjFbY0hdW2NIXVtjSF1bY0hdYzFbTkhdQyg9TylbTkhdW0NIMl1bQ0BASF0oW0NIMl0yKVtDSDJdW0NIMl1TMig9Tyk9Tw==

> <s_epik_cmdline>
J2VwaWtfcHl0aG9uJywgJy1waCcsICc3LjAnLCAnLXRuJywgJzgnLCAnLW1hJywgJzIwMCcsICctbWV0YWxfYmluZGluZycsICctaW1hZScsICc8aW5maWxlLm1hZT4nLCAnLW9tYWUnLCAnPG91dGZpbGUubWFlPic=

> <r_lp_tautomer_probability>
1

> <r_epik_Ionization_Penalty>
4.47006e-05

> <r_epik_Ionization_Penalty_Charging>
0

> <r_epik_Ionization_Penalty_Neutral>
4.47006e-05

> <r_epik_State_Penalty>
-0

> <r_epik_Charging_Adjusted_Penalty>
0

> <i_epik_Tot_Q>
0

> <i_epik_Tot_abs_Q>
0

> <r_epik_Metal_State_Penalty>
-0

> <b_epik_Metal_Only>
0

> <s_lp_Force_Field>
OPLS_2005

> <r_lp_Energy>
3.66515

> <b_lp_Chiralities_Consistent>
1

> <s_lp_Variant>
AV-unprocessed.smi:1431-1

> <Gold.Version>
5.8.1

> <Gold.Id.Protein>
6NUR|6NUR_protein|mol2

> <Gold.PLP.Fitness>
41.0309

> <Gold.PLP.PLP>
-29.7165

> <Gold.PLP.part.hbond>
-2.9918

> <Gold.PLP.part.metal>
0.0000

> <Gold.PLP.part.buried>
-4.5968

> <Gold.PLP.part.nonpolar>
-27.0004

> <Gold.PLP.part.repulsive>
3.8556

> <Gold.PLP.ligand.clash>
0.0000

> <Gold.PLP.ligand.torsion>
0.2843

> <Gold.PLP.Chemscore.Hbond>
2.9600

> <Gold.PLP.Chemscore.CHOScore>
1.0000

> <Gold.PLP.Chemscore.Metal>
0.0000

> <Gold.Chemscore.Hbonds>
donor molecule, donor type, donor heavy atom, donor atom, acceptor molecule, acceptor atom, score
      L1  H     3    19       P1  7948  1.00
      L1  H    12    29       P1  7948  0.94
      P1  H  7989  7998       L1     9  1.00
      L1  C    17    33       P1 10186  1.00

> <Gold.PLP.Chemscore.Internal.Correction>
0.0030

> <Gold.Rescore>
     Score         DG    S(hbond)    S(metal)    S(lipo)     H(rot)  DE(clash)    DE(int)     intcor
     16.57     -19.63       2.92        0.00      66.64       1.33       1.52       1.54       ----

> <Gold.Chemscore.Fitness>
16.5651

> <Gold.Chemscore.DG>
-19.6279

> <Gold.Chemscore.ZeroCoef>
-5.4800

> <Gold.Chemscore.Hbond>
2.9193

> <Gold.Chemscore.Metal>
0.0000

> <Gold.Chemscore.Lipo>
66.6421

> <Gold.Chemscore.Internal_Hbond>
0.0000

> <Gold.Chemscore.DEClash>
1.5220

> <Gold.Chemscore.DEInternal>
1.5408

> <Gold.Chemscore.Rot>
1.3280

> <Gold.Chemscore.Internal.Correction>
   9.000000E+99

> <Gold.Chemscore.Hbonds>
donor molecule, donor type, donor heavy atom, donor atom, acceptor molecule, acceptor atom, score
      L1  H     3    19       P1  7948  0.95
      L1  H    12    29       P1  7948  0.84
      P1  H  7989  7998       L1     9  0.96

> <Gold.Chemscore.Hbond.Weighted>
-9.7503

> <Gold.Chemscore.Metal.Weighted>
-0.0000

> <Gold.Chemscore.Lipo.Weighted>
-7.7971

> <Gold.Chemscore.Internal_Hbond.Weighted>
0.0000

> <Gold.Chemscore.DEClash.Weighted>
1.5220

> <Gold.Chemscore.DEInternal.Weighted>
1.5408

> <Gold.Chemscore.Rot.Weighted>
3.3996

> <Gold.Chemscore.Internal.Correction.Weighted>
   9.000000E+99

> <Gold.Protein.RotatedTorsions>
[ 6907 6896 6895 6894 ] final  -96.53 input  -60.11 | X-H torsion
[ 7974 7965 7964 7962 ] final   33.78 input  175.53 | X-H torsion
[ 8008 7997 7996 7995 ] final  -72.11 input   59.86 | X-H torsion
[ 10167 10162 10161 10158 ] final   12.81 input  -65.29 | X-H torsion
[ 10718 10713 10712 10709 ] final   98.22 input   66.30 | X-H torsion
[ 10763 10752 10751 10750 ] final   88.14 input  -60.55 | X-H torsion
[ 11005 11000 10999 10996 ] final -152.65 input  -57.11 | X-H torsion

> <Gold.Protein.ActiveResidues>
 VAL166  LYS551  ARG553  GLY616  TRP617  ASP618  TYR619  PRO620  LYS621  CYS622 
 ASP623  PHE694  ASN695  SER759  ASP760  ASP761  ALA762  ILE779  LEU786  VAL792 
 PHE793  MET794  SER795  GLU796  ALA797  LYS798  CYS799  TRP800  GLU811  SER814 

> <Gold.Protein.RotatedAtoms>
  150.6991  134.1489  159.4132 H   0  0  0  0  0  0  0  0  0  0  0  0  # atno 6907 bound_to 6896
  151.9472  135.0183  160.0549 H   0  0  0  0  0  0  0  0  0  0  0  0  # atno 6908 bound_to 6896
  152.2042  133.4828  159.5112 H   0  0  0  0  0  0  0  0  0  0  0  0  # atno 6909 bound_to 6896
  146.1398  139.6353  142.9171 H   0  0  0  0  0  0  0  0  0  0  0  0  # atno 7974 bound_to 7965
  154.5141  140.0803  156.8046 H   0  0  0  0  0  0  0  0  0  0  0  0  # atno 8008 bound_to 7997
  155.3720  140.3423  155.4225 H   0  0  0  0  0  0  0  0  0  0  0  0  # atno 8009 bound_to 7997
  156.1607  140.1587  156.8605 H   0  0  0  0  0  0  0  0  0  0  0  0  # atno 8010 bound_to 7997
  140.6044  143.8539  150.6998 H   0  0  0  0  0  0  0  0  0  0  0  0  # atno 10167 bound_to 10162
  157.6899  131.0633  150.4763 H   0  0  0  0  0  0  0  0  0  0  0  0  # atno 10718 bound_to 10713
  153.1738  135.4518  154.9938 H   0  0  0  0  0  0  0  0  0  0  0  0  # atno 10763 bound_to 10752
  154.7984  135.3246  154.7612 H   0  0  0  0  0  0  0  0  0  0  0  0  # atno 10764 bound_to 10752
  153.8085  135.6957  153.4899 H   0  0  0  0  0  0  0  0  0  0  0  0  # atno 10765 bound_to 10752
  140.7166  134.3774  157.5190 H   0  0  0  0  0  0  0  0  0  0  0  0  # atno 11005 bound_to 11000
  145.5074  141.0436  143.2507 LP  0  0  0  0  0  0  0  0  0  0  0  0  # atno 17320 bound_to 7965
  144.7779  139.6589  143.7167 LP  0  0  0  0  0  0  0  0  0  0  0  0  # atno 17321 bound_to 7965
  140.2092  143.3897  152.1731 LP  0  0  0  0  0  0  0  0  0  0  0  0  # atno 17342 bound_to 10162
  139.5314  144.7163  151.5043 LP  0  0  0  0  0  0  0  0  0  0  0  0  # atno 17343 bound_to 10162
  156.5098  130.4136  149.6307 LP  0  0  0  0  0  0  0  0  0  0  0  0  # atno 17370 bound_to 10713
  156.3251  130.7301  151.2221 LP  0  0  0  0  0  0  0  0  0  0  0  0  # atno 17371 bound_to 10713
  139.8858  134.8926  156.2620 LP  0  0  0  0  0  0  0  0  0  0  0  0  # atno 17394 bound_to 11000
  141.0039  133.7135  156.1004 LP  0  0  0  0  0  0  0  0  0  0  0  0  # atno 17395 bound_to 11000

$$$$
