AV-unprocessed.smi:1601|AV-procd|sdf|6437|dock5
  -GOLD-   22720 7 83D 1   1.00000     0.00000
 Structure written by MMmdl.
 42 43  0  0  0  0  0  0  0  0  2 V2000
  147.3828  137.7802  154.5555 C   0  0  0  0  0  0  0  0  0  0  0  0
  146.1256  138.3524  153.8557 C   0  0  2  0  0  0  0  0  0  0  0  0
  146.1544  138.0085  152.3382 C   0  0  0  0  0  0  0  0  0  0  0  0
  146.5448  136.6276  152.0662 N   0  0  0  0  0  0  0  0  0  0  0  0
  145.7663  135.5531  152.2721 C   0  0  0  0  0  0  0  0  0  0  0  0
  144.6198  135.6330  152.7146 O   0  0  0  0  0  0  0  0  0  0  0  0
  146.3845  134.1872  151.9343 C   0  0  1  0  0  0  0  0  0  0  0  0
  146.5647  133.2958  153.1802 C   0  0  0  0  0  0  0  0  0  0  0  0
  145.6152  133.5257  150.8863 N   0  0  0  0  0  0  0  0  0  0  0  0
  145.9093  132.3443  150.2361 C   0  0  0  0  0  0  0  0  0  0  0  0
  144.9291  132.1290  149.3103 C   0  0  0  0  0  0  0  0  0  0  0  0
  144.0718  133.2541  149.4583 C   0  0  0  0  0  0  0  0  0  0  0  0
  144.4888  134.0918  150.3930 N   0  0  0  0  0  0  0  0  0  0  0  0
  145.9819  139.8233  154.1222 N   0  3  0  0  0  0  0  0  0  0  0  0
  145.7073  140.1722  155.5449 C   0  0  0  0  0  0  0  0  0  0  0  0
  145.5796  141.6927  155.7413 C   0  0  0  0  0  0  0  0  0  0  0  0
  146.7544  142.3403  155.2808 O   0  0  0  0  0  0  0  0  0  0  0  0
  146.9496  142.1217  153.8931 C   0  0  0  0  0  0  0  0  0  0  0  0
  147.1417  140.6193  153.6300 C   0  0  0  0  0  0  0  0  0  0  0  0
  147.5339  136.7250  154.3304 H   0  0  0  0  0  0  0  0  0  0  0  0
  147.3176  137.8314  155.6409 H   0  0  0  0  0  0  0  0  0  0  0  0
  148.2829  138.3121  154.2458 H   0  0  0  0  0  0  0  0  0  0  0  0
  145.2502  137.8632  154.2858 H   0  0  0  0  0  0  0  0  0  0  0  0
  145.1796  138.1537  151.8724 H   0  0  0  0  0  0  0  0  0  0  0  0
  146.8516  138.6663  151.8184 H   0  0  0  0  0  0  0  0  0  0  0  0
  147.4737  136.4777  151.6993 H   0  0  0  0  0  0  0  0  0  0  0  0
  147.3811  134.3725  151.5297 H   0  0  0  0  0  0  0  0  0  0  0  0
  147.1877  133.7874  153.9282 H   0  0  0  0  0  0  0  0  0  0  0  0
  147.0512  132.3561  152.9174 H   0  0  0  0  0  0  0  0  0  0  0  0
  145.6127  133.0525  153.6538 H   0  0  0  0  0  0  0  0  0  0  0  0
  146.7824  131.7593  150.4851 H   0  0  0  0  0  0  0  0  0  0  0  0
  144.8393  131.2963  148.6287 H   0  0  0  0  0  0  0  0  0  0  0  0
  143.1676  133.4871  148.9156 H   0  0  0  0  0  0  0  0  0  0  0  0
  144.7702  139.7316  155.8814 H   0  0  0  0  0  0  0  0  0  0  0  0
  146.5030  139.7774  156.1785 H   0  0  0  0  0  0  0  0  0  0  0  0
  144.7048  142.0815  155.2172 H   0  0  0  0  0  0  0  0  0  0  0  0
  145.4429  141.9235  156.7979 H   0  0  0  0  0  0  0  0  0  0  0  0
  146.1051  142.5138  153.3237 H   0  0  0  0  0  0  0  0  0  0  0  0
  147.8329  142.6737  153.5713 H   0  0  0  0  0  0  0  0  0  0  0  0
  148.0550  140.2727  154.1165 H   0  0  0  0  0  0  0  0  0  0  0  0
  147.2816  140.4921  152.5586 H   0  0  0  0  0  0  0  0  0  0  0  0
  145.1752  140.1313  153.5983 H   0  0  0  0  0  0  0  0  0  0  0  0
  1  2  1  0  0  0  0
  1 20  1  0  0  0  0
  1 21  1  0  0  0  0
  1 22  1  0  0  0  0
  2  3  1  0  0  0  0
  2 14  1  0  0  0  0
  2 23  1  0  0  0  0
  3  4  1  0  0  0  0
  3 24  1  0  0  0  0
  3 25  1  0  0  0  0
  4  5  1  0  0  0  0
  4 26  1  0  0  0  0
  5  6  2  0  0  0  0
  5  7  1  0  0  0  0
  7  8  1  0  0  0  0
  7  9  1  0  0  0  0
  7 27  1  0  0  0  0
  8 28  1  0  0  0  0
  8 29  1  0  0  0  0
  8 30  1  0  0  0  0
  9 13  1  0  0  0  0
  9 10  1  0  0  0  0
 10 11  2  0  0  0  0
 10 31  1  0  0  0  0
 11 12  1  0  0  0  0
 11 32  1  0  0  0  0
 12 13  2  0  0  0  0
 12 33  1  0  0  0  0
 14 19  1  0  0  0  0
 14 15  1  0  0  0  0
 14 42  1  0  0  0  0
 15 16  1  0  0  0  0
 15 34  1  0  0  0  0
 15 35  1  0  0  0  0
 16 17  1  0  0  0  0
 16 36  1  0  0  0  0
 16 37  1  0  0  0  0
 17 18  1  0  0  0  0
 18 19  1  0  0  0  0
 18 38  1  0  0  0  0
 18 39  1  0  0  0  0
 19 40  1  0  0  0  0
 19 41  1  0  0  0  0
M  CHG  1  14   1
M  END
> <s_m_source_file>
AV-unprocessed.smi

> <i_m_source_file_index>
1601

> <i_lp_mmshare_version>
43012

> <i_f3d_flags>
0

> <s_epik_input>
W0NIMl0xW0NIMl1PW0NIMl1bQ0gyXU4xW0NASF0oW0NIM10pW0NIMl1bTkhdQyg9TylbQ0BIXShbQ0gzXSluMltjSF1bY0hdW2NIXW4y

> <s_epik_cmdline>
J2VwaWtfcHl0aG9uJywgJy1waCcsICc3LjAnLCAnLXRuJywgJzgnLCAnLW1hJywgJzIwMCcsICctbWV0YWxfYmluZGluZycsICctaW1hZScsICc8aW5maWxlLm1hZT4nLCAnLW9tYWUnLCAnPG91dGZpbGUubWFlPic=

> <r_lp_tautomer_probability>
1

> <r_epik_Ionization_Penalty>
0.732551

> <r_epik_Ionization_Penalty_Charging>
0.732531

> <r_epik_Ionization_Penalty_Neutral>
2.04647e-05

> <r_epik_State_Penalty>
0.757939

> <r_epik_Charging_Adjusted_Penalty>
1.49047

> <i_epik_Tot_Q>
1

> <i_epik_Tot_abs_Q>
1

> <r_epik_Metal_State_Penalty>
0.757952

> <b_epik_Metal_Only>
0

> <s_lp_Force_Field>
OPLS_2005

> <r_lp_Energy>
24.7345

> <b_lp_Chiralities_Consistent>
1

> <s_lp_Variant>
AV-unprocessed.smi:1601-7

> <Gold.Version>
5.8.1

> <Gold.Id.Protein>
6NUR|6NUR_protein|mol2

> <Gold.PLP.Fitness>
43.4352

> <Gold.PLP.PLP>
-28.8488

> <Gold.PLP.part.hbond>
-1.8393

> <Gold.PLP.part.metal>
0.0000

> <Gold.PLP.part.buried>
-5.5034

> <Gold.PLP.part.nonpolar>
-23.3425

> <Gold.PLP.part.repulsive>
0.4879

> <Gold.PLP.ligand.clash>
0.0000

> <Gold.PLP.ligand.torsion>
0.2672

> <Gold.PLP.Chemscore.Hbond>
2.9913

> <Gold.PLP.Chemscore.CHOScore>
2.0000

> <Gold.PLP.Chemscore.Metal>
0.0000

> <Gold.Chemscore.Hbonds>
donor molecule, donor type, donor heavy atom, donor atom, acceptor molecule, acceptor atom, score
      L1  H     4    26       P1  7948  0.88
      L1  H    14    42       P1 10175  2.00
      L1  C    10    31       P1 10747  1.00
      L1  C    12    33       P1 10186  1.00

> <Gold.PLP.Chemscore.Internal.Correction>
0.1470

> <Gold.Rescore>
     Score         DG    S(hbond)    S(metal)    S(lipo)     H(rot)  DE(clash)    DE(int)     intcor
     13.59     -15.38       1.97        0.00      69.22       1.86       0.01       1.78       ----

> <Gold.Chemscore.Fitness>
13.5866

> <Gold.Chemscore.DG>
-15.3762

> <Gold.Chemscore.ZeroCoef>
-5.4800

> <Gold.Chemscore.Hbond>
1.9664

> <Gold.Chemscore.Metal>
0.0000

> <Gold.Chemscore.Lipo>
69.2151

> <Gold.Chemscore.Internal_Hbond>
0.0000

> <Gold.Chemscore.DEClash>
0.0089

> <Gold.Chemscore.DEInternal>
1.7808

> <Gold.Chemscore.Rot>
1.8631

> <Gold.Chemscore.Internal.Correction>
   9.000000E+99

> <Gold.Chemscore.Hbonds>
donor molecule, donor type, donor heavy atom, donor atom, acceptor molecule, acceptor atom, score
      L1  H     4    26       P1  7948  0.84
      L1  H    14    42       P1 10175  1.00

> <Gold.Chemscore.Hbond.Weighted>
-6.5677

> <Gold.Chemscore.Metal.Weighted>
-0.0000

> <Gold.Chemscore.Lipo.Weighted>
-8.0982

> <Gold.Chemscore.Internal_Hbond.Weighted>
0.0000

> <Gold.Chemscore.DEClash.Weighted>
0.0089

> <Gold.Chemscore.DEInternal.Weighted>
1.7808

> <Gold.Chemscore.Rot.Weighted>
4.7697

> <Gold.Chemscore.Internal.Correction.Weighted>
   9.000000E+99

> <Gold.Protein.RotatedTorsions>
[ 6907 6896 6895 6894 ] final -169.39 input  -60.11 | X-H torsion
[ 7974 7965 7964 7962 ] final -132.37 input  175.53 | X-H torsion
[ 8008 7997 7996 7995 ] final  -43.65 input   59.86 | X-H torsion
[ 10167 10162 10161 10158 ] final  135.10 input  -65.29 | X-H torsion
[ 10718 10713 10712 10709 ] final  134.96 input   66.30 | X-H torsion
[ 10763 10752 10751 10750 ] final  -12.62 input  -60.55 | X-H torsion
[ 11005 11000 10999 10996 ] final   99.27 input  -57.11 | X-H torsion

> <Gold.Protein.ActiveResidues>
 VAL166  LYS551  ARG553  GLY616  TRP617  ASP618  TYR619  PRO620  LYS621  CYS622 
 ASP623  PHE694  ASN695  SER759  ASP760  ASP761  ALA762  ILE779  LEU786  VAL792 
 PHE793  MET794  SER795  GLU796  ALA797  LYS798  CYS799  TRP800  GLU811  SER814 

> <Gold.Protein.RotatedAtoms>
  151.4908  133.3525  159.2852 H   0  0  0  0  0  0  0  0  0  0  0  0  # atno 6907 bound_to 6896
  150.8836  134.8232  159.7254 H   0  0  0  0  0  0  0  0  0  0  0  0  # atno 6908 bound_to 6896
  152.4778  134.4809  159.9717 H   0  0  0  0  0  0  0  0  0  0  0  0  # atno 6909 bound_to 6896
  144.9292  140.7107  143.4917 H   0  0  0  0  0  0  0  0  0  0  0  0  # atno 7974 bound_to 7965
  154.3997  140.1442  156.3553 H   0  0  0  0  0  0  0  0  0  0  0  0  # atno 8008 bound_to 7997
  155.8231  140.3468  155.5505 H   0  0  0  0  0  0  0  0  0  0  0  0  # atno 8009 bound_to 7997
  155.8267  140.0906  157.1807 H   0  0  0  0  0  0  0  0  0  0  0  0  # atno 8010 bound_to 7997
  139.5230  144.6534  151.5235 H   0  0  0  0  0  0  0  0  0  0  0  0  # atno 10167 bound_to 10162
  157.4619  131.1074  150.9909 H   0  0  0  0  0  0  0  0  0  0  0  0  # atno 10718 bound_to 10713
  153.5012  135.7017  153.5831 H   0  0  0  0  0  0  0  0  0  0  0  0  # atno 10763 bound_to 10752
  153.3962  135.3883  155.1957 H   0  0  0  0  0  0  0  0  0  0  0  0  # atno 10764 bound_to 10752
  154.8710  135.3870  154.4482 H   0  0  0  0  0  0  0  0  0  0  0  0  # atno 10765 bound_to 10752
  139.8771  134.9088  156.4581 H   0  0  0  0  0  0  0  0  0  0  0  0  # atno 11005 bound_to 11000
  145.3170  139.1800  143.4608 LP  0  0  0  0  0  0  0  0  0  0  0  0  # atno 17320 bound_to 7965
  146.3239  140.3182  142.8631 LP  0  0  0  0  0  0  0  0  0  0  0  0  # atno 17321 bound_to 7965
  140.6348  143.9005  150.6638 LP  0  0  0  0  0  0  0  0  0  0  0  0  # atno 17342 bound_to 10162
  140.2320  143.3728  152.1557 LP  0  0  0  0  0  0  0  0  0  0  0  0  # atno 17343 bound_to 10162
  157.0703  130.5861  149.5401 LP  0  0  0  0  0  0  0  0  0  0  0  0  # atno 17370 bound_to 10713
  156.0033  130.5115  150.7740 LP  0  0  0  0  0  0  0  0  0  0  0  0  # atno 17371 bound_to 10713
  140.8884  133.7866  155.9544 LP  0  0  0  0  0  0  0  0  0  0  0  0  # atno 17394 bound_to 11000
  140.8780  134.2646  157.5158 LP  0  0  0  0  0  0  0  0  0  0  0  0  # atno 17395 bound_to 11000

$$$$
