AV-unprocessed.smi:2107|AV-procd|sdf|8603|dock6
  -GOLD-   2272011343D 1   1.00000     0.00000
 Structure written by MMmdl.
 46 47  0  0  0  0  0  0  0  0  3 V2000
  145.3498  133.9390  162.4795 C   0  0  0  0  0  0  0  0  0  0  0  0
  146.8009  134.4376  162.4731 C   0  0  0  0  0  0  0  0  0  0  0  0
  147.2421  134.7577  161.1058 N   0  0  0  0  0  0  0  0  0  0  0  0
  147.4213  133.6216  160.1855 C   0  0  0  0  0  0  0  0  0  0  0  0
  147.8666  132.3600  160.9370 C   0  0  0  0  0  0  0  0  0  0  0  0
  147.9857  136.2937  160.7538 S   0  0  0  0  0  0  0  0  0  0  0  0
  146.9249  137.1831  160.2494 O   0  0  0  0  0  0  0  0  0  0  0  0
  148.6654  136.6899  161.9964 O   0  0  0  0  0  0  0  0  0  0  0  0
  149.0364  135.7919  159.6135 N   0  5  0  0  0  0  0  0  0  0  0  0
  149.3044  136.5837  158.4196 C   0  0  0  0  0  0  0  0  0  0  0  0
  149.0376  135.7844  157.1379 C   0  0  0  0  0  0  0  0  0  0  0  0
  148.5353  134.4642  157.2616 C   0  0  0  0  0  0  0  0  0  0  0  0
  148.2608  133.6997  156.1107 C   0  0  0  0  0  0  0  0  0  0  0  0
  148.4922  134.2644  154.8449 C   0  0  0  0  0  0  0  0  0  0  0  0
  148.9734  135.5206  154.7511 N   0  3  0  0  0  0  0  0  0  0  0  0
  149.2583  136.3048  155.8218 C   0  0  0  0  0  0  0  0  0  0  0  0
  149.7787  137.5869  155.5478 N   0  0  0  0  0  0  0  0  0  0  0  0
  151.1189  137.5556  154.9751 C   0  0  0  0  0  0  0  0  0  0  0  0
  151.6792  138.9836  154.8583 C   0  0  0  0  0  0  0  0  0  0  0  0
  150.7717  139.7971  154.1194 O   0  0  0  0  0  0  0  0  0  0  0  0
  149.4967  139.8841  154.7496 C   0  0  0  0  0  0  0  0  0  0  0  0
  148.8746  138.4806  154.8365 C   0  0  0  0  0  0  0  0  0  0  0  0
  145.0345  133.6824  163.4907 H   0  0  0  0  0  0  0  0  0  0  0  0
  145.2364  133.0489  161.8602 H   0  0  0  0  0  0  0  0  0  0  0  0
  144.6621  134.6957  162.1027 H   0  0  0  0  0  0  0  0  0  0  0  0
  146.9015  135.3243  163.0998 H   0  0  0  0  0  0  0  0  0  0  0  0
  147.4502  133.6783  162.9102 H   0  0  0  0  0  0  0  0  0  0  0  0
  146.4817  133.4182  159.6703 H   0  0  0  0  0  0  0  0  0  0  0  0
  148.1433  133.8878  159.4130 H   0  0  0  0  0  0  0  0  0  0  0  0
  147.9565  131.5160  160.2534 H   0  0  0  0  0  0  0  0  0  0  0  0
  147.1444  132.0869  161.7070 H   0  0  0  0  0  0  0  0  0  0  0  0
  148.8345  132.4987  161.4183 H   0  0  0  0  0  0  0  0  0  0  0  0
  148.7032  137.4933  158.4085 H   0  0  0  0  0  0  0  0  0  0  0  0
  150.3373  136.9281  158.3698 H   0  0  0  0  0  0  0  0  0  0  0  0
  148.3523  134.0172  158.2298 H   0  0  0  0  0  0  0  0  0  0  0  0
  147.8785  132.6936  156.2008 H   0  0  0  0  0  0  0  0  0  0  0  0
  148.3126  133.7530  153.9107 H   0  0  0  0  0  0  0  0  0  0  0  0
  151.7748  136.9485  155.6004 H   0  0  0  0  0  0  0  0  0  0  0  0
  151.0860  137.0872  153.9905 H   0  0  0  0  0  0  0  0  0  0  0  0
  151.8526  139.4180  155.8435 H   0  0  0  0  0  0  0  0  0  0  0  0
  152.6415  138.9679  154.3465 H   0  0  0  0  0  0  0  0  0  0  0  0
  149.5978  140.3279  155.7418 H   0  0  0  0  0  0  0  0  0  0  0  0
  148.8553  140.5453  154.1671 H   0  0  0  0  0  0  0  0  0  0  0  0
  148.6850  138.0980  153.8330 H   0  0  0  0  0  0  0  0  0  0  0  0
  147.9163  138.5246  155.3551 H   0  0  0  0  0  0  0  0  0  0  0  0
  149.1396  135.9023  153.8200 H   0  0  0  0  0  0  0  0  0  0  0  0
  1  2  1  0  0  0  0
  1 23  1  0  0  0  0
  1 24  1  0  0  0  0
  1 25  1  0  0  0  0
  2  3  1  0  0  0  0
  2 26  1  0  0  0  0
  2 27  1  0  0  0  0
  3  4  1  0  0  0  0
  3  6  1  0  0  0  0
  4  5  1  0  0  0  0
  4 28  1  0  0  0  0
  4 29  1  0  0  0  0
  5 30  1  0  0  0  0
  5 31  1  0  0  0  0
  5 32  1  0  0  0  0
  6  7  2  0  0  0  0
  6  8  2  0  0  0  0
  6  9  1  0  0  0  0
  9 10  1  0  0  0  0
 10 11  1  0  0  0  0
 10 33  1  0  0  0  0
 10 34  1  0  0  0  0
 11 16  1  0  0  0  0
 11 12  2  0  0  0  0
 12 13  1  0  0  0  0
 12 35  1  0  0  0  0
 13 14  2  0  0  0  0
 13 36  1  0  0  0  0
 14 15  1  0  0  0  0
 14 37  1  0  0  0  0
 15 16  2  0  0  0  0
 15 46  1  0  0  0  0
 16 17  1  0  0  0  0
 17 22  1  0  0  0  0
 17 18  1  0  0  0  0
 18 19  1  0  0  0  0
 18 38  1  0  0  0  0
 18 39  1  0  0  0  0
 19 20  1  0  0  0  0
 19 40  1  0  0  0  0
 19 41  1  0  0  0  0
 20 21  1  0  0  0  0
 21 22  1  0  0  0  0
 21 42  1  0  0  0  0
 21 43  1  0  0  0  0
 22 44  1  0  0  0  0
 22 45  1  0  0  0  0
M  CHG  1   9  -1
M  CHG  1  15   1
M  END
> <s_m_source_file>
AV-unprocessed.smi

> <i_m_source_file_index>
2107

> <i_lp_mmshare_version>
43012

> <i_f3d_flags>
0

> <s_epik_input>
W0NIM11bQ0gyXU4oW0NIMl1bQ0gzXSlTKD1PKSg9TylbTkhdW0NIMl1jMVtjSF1bY0hdW2NIXW5jMU4yW0NIMl1bQ0gyXU9bQ0gyXVtDSDJdMg==

> <s_epik_cmdline>
J2VwaWtfcHl0aG9uJywgJy1waCcsICc3LjAnLCAnLXRuJywgJzgnLCAnLW1hJywgJzIwMCcsICctbWV0YWxfYmluZGluZycsICctaW1hZScsICc8aW5maWxlLm1hZT4nLCAnLW9tYWUnLCAnPG91dGZpbGUubWFlPic=

> <r_lp_tautomer_probability>
0.999994

> <r_epik_Ionization_Penalty>
2.67026

> <r_epik_Ionization_Penalty_Charging>
2.67026

> <r_epik_Ionization_Penalty_Neutral>
4.07977e-08

> <r_epik_State_Penalty>
4.05768

> <r_epik_Charging_Adjusted_Penalty>
6.72795

> <i_epik_Tot_Q>
0

> <i_epik_Tot_abs_Q>
2

> <r_epik_Metal_State_Penalty>
2.91237

> <b_epik_Metal_Only>
1

> <s_lp_Force_Field>
OPLS_2005

> <r_lp_Energy>
19.7011

> <b_lp_Chiralities_Consistent>
1

> <s_lp_Variant>
AV-unprocessed.smi:2107-4

> <Gold.Version>
5.8.1

> <Gold.Id.Protein>
6NUR|6NUR_protein|mol2

> <Gold.PLP.Fitness>
51.7631

> <Gold.PLP.PLP>
-31.5501

> <Gold.PLP.part.hbond>
-4.9502

> <Gold.PLP.part.metal>
0.0000

> <Gold.PLP.part.buried>
-2.5504

> <Gold.PLP.part.nonpolar>
-24.4726

> <Gold.PLP.part.repulsive>
0.2931

> <Gold.PLP.ligand.clash>
0.1147

> <Gold.PLP.ligand.torsion>
2.1563

> <Gold.PLP.Chemscore.Hbond>
7.0000

> <Gold.PLP.Chemscore.CHOScore>
0.0000

> <Gold.PLP.Chemscore.Metal>
0.0000

> <Gold.Chemscore.Hbonds>
donor molecule, donor type, donor heavy atom, donor atom, acceptor molecule, acceptor atom, score
      L1  H    15    46       P1  7948  2.00
      P1  H  6896  6908       L1     9  1.90
      P1  H  6931  6943       L1     8  1.00
      P1  H  6934  6947       L1     7  1.00
      P1  H  7989  7998       L1    20  0.93

> <Gold.PLP.Chemscore.Internal.Correction>
3.6402

> <Gold.Rescore>
     Score         DG    S(hbond)    S(metal)    S(lipo)     H(rot)  DE(clash)    DE(int)     intcor
     16.94     -19.19       3.24        0.00      62.21       1.72       0.10       2.15       ----

> <Gold.Chemscore.Fitness>
16.9401

> <Gold.Chemscore.DG>
-19.1863

> <Gold.Chemscore.ZeroCoef>
-5.4800

> <Gold.Chemscore.Hbond>
3.2395

> <Gold.Chemscore.Metal>
0.0000

> <Gold.Chemscore.Lipo>
62.2119

> <Gold.Chemscore.Internal_Hbond>
0.0000

> <Gold.Chemscore.DEClash>
0.0961

> <Gold.Chemscore.DEInternal>
2.1501

> <Gold.Chemscore.Rot>
1.7159

> <Gold.Chemscore.Internal.Correction>
   9.000000E+99

> <Gold.Chemscore.Hbonds>
donor molecule, donor type, donor heavy atom, donor atom, acceptor molecule, acceptor atom, score
      L1  H    15    46       P1  7948  0.86
      P1  H  6896  6908       L1     9  0.20
      P1  H  6931  6943       L1     8  0.73
      P1  H  6934  6947       L1     7  0.77
      P1  H  7989  7998       L1    20  0.44

> <Gold.Chemscore.Hbond.Weighted>
-10.8200

> <Gold.Chemscore.Metal.Weighted>
-0.0000

> <Gold.Chemscore.Lipo.Weighted>
-7.2788

> <Gold.Chemscore.Internal_Hbond.Weighted>
0.0000

> <Gold.Chemscore.DEClash.Weighted>
0.0961

> <Gold.Chemscore.DEInternal.Weighted>
2.1501

> <Gold.Chemscore.Rot.Weighted>
4.3926

> <Gold.Chemscore.Internal.Correction.Weighted>
   9.000000E+99

> <Gold.Protein.RotatedTorsions>
[ 6907 6896 6895 6894 ] final  172.25 input  -60.11 | X-H torsion
[ 7974 7965 7964 7962 ] final -152.68 input  175.53 | X-H torsion
[ 8008 7997 7996 7995 ] final  -23.89 input   59.86 | X-H torsion
[ 10167 10162 10161 10158 ] final   -7.94 input  -65.29 | X-H torsion
[ 10718 10713 10712 10709 ] final  -43.30 input   66.30 | X-H torsion
[ 10763 10752 10751 10750 ] final  172.37 input  -60.55 | X-H torsion
[ 11005 11000 10999 10996 ] final  155.47 input  -57.11 | X-H torsion

> <Gold.Protein.ActiveResidues>
 VAL166  LYS551  ARG553  GLY616  TRP617  ASP618  TYR619  PRO620  LYS621  CYS622 
 ASP623  PHE694  ASN695  SER759  ASP760  ASP761  ALA762  ILE779  LEU786  VAL792 
 PHE793  MET794  SER795  GLU796  ALA797  LYS798  CYS799  TRP800  GLU811  SER814 

> <Gold.Protein.RotatedAtoms>
  151.7872  133.3355  159.3488 H   0  0  0  0  0  0  0  0  0  0  0  0  # atno 6907 bound_to 6896
  150.7405  134.5876  159.5980 H   0  0  0  0  0  0  0  0  0  0  0  0  # atno 6908 bound_to 6896
  152.3235  134.7352  160.0359 H   0  0  0  0  0  0  0  0  0  0  0  0  # atno 6909 bound_to 6896
  144.7781  140.4630  143.5859 H   0  0  0  0  0  0  0  0  0  0  0  0  # atno 7974 bound_to 7965
  154.4559  140.1968  156.0381 H   0  0  0  0  0  0  0  0  0  0  0  0  # atno 8008 bound_to 7997
  156.0745  140.3280  155.7589 H   0  0  0  0  0  0  0  0  0  0  0  0  # atno 8009 bound_to 7997
  155.5210  140.0570  157.2897 H   0  0  0  0  0  0  0  0  0  0  0  0  # atno 8010 bound_to 7997
  140.7044  143.6025  150.8784 H   0  0  0  0  0  0  0  0  0  0  0  0  # atno 10167 bound_to 10162
  156.2504  130.4187  149.8656 H   0  0  0  0  0  0  0  0  0  0  0  0  # atno 10718 bound_to 10713
  154.4251  135.2758  155.1950 H   0  0  0  0  0  0  0  0  0  0  0  0  # atno 10763 bound_to 10752
  154.3879  135.6073  153.5830 H   0  0  0  0  0  0  0  0  0  0  0  0  # atno 10764 bound_to 10752
  152.9834  135.5896  154.4553 H   0  0  0  0  0  0  0  0  0  0  0  0  # atno 10765 bound_to 10752
  140.1584  134.8626  157.2544 H   0  0  0  0  0  0  0  0  0  0  0  0  # atno 11005 bound_to 11000
  145.6127  139.1515  143.3066 LP  0  0  0  0  0  0  0  0  0  0  0  0  # atno 17320 bound_to 7965
  146.1973  140.6242  142.9118 LP  0  0  0  0  0  0  0  0  0  0  0  0  # atno 17321 bound_to 7965
  139.9749  143.6015  152.2962 LP  0  0  0  0  0  0  0  0  0  0  0  0  # atno 17342 bound_to 10162
  139.6615  144.7662  151.1953 LP  0  0  0  0  0  0  0  0  0  0  0  0  # atno 17343 bound_to 10162
  156.6206  130.8625  151.3474 LP  0  0  0  0  0  0  0  0  0  0  0  0  # atno 17370 bound_to 10713
  157.7212  130.9561  150.1447 LP  0  0  0  0  0  0  0  0  0  0  0  0  # atno 17371 bound_to 10713
  140.2519  134.3673  155.7439 LP  0  0  0  0  0  0  0  0  0  0  0  0  # atno 17394 bound_to 11000
  141.2207  133.7321  156.8948 LP  0  0  0  0  0  0  0  0  0  0  0  0  # atno 17395 bound_to 11000

$$$$
