AV-unprocessed.smi:1102|AV-procd|sdf|4768|dock9
  -GOLD-   22720 3303D 1   1.00000     0.00000
 Structure written by MMmdl.
 40 41  0  0  0  0  0  0  0  0  2 V2000
  151.6027  144.3199  157.5378 C   0  0  0  0  0  0  0  0  0  0  0  0
  151.6961  142.8796  157.7493 N   0  0  0  0  0  0  0  0  0  0  0  0
  152.4206  142.3497  158.8970 C   0  0  0  0  0  0  0  0  0  0  0  0
  151.0936  141.9951  156.8287 C   0  0  0  0  0  0  0  0  0  0  0  0
  151.4800  140.6397  156.6876 C   0  0  0  0  0  0  0  0  0  0  0  0
  150.8286  139.8191  155.7441 C   0  0  0  0  0  0  0  0  0  0  0  0
  149.7895  140.3476  154.9502 C   0  0  0  0  0  0  0  0  0  0  0  0
  149.1731  139.4835  154.0043 N   0  0  0  0  0  0  0  0  0  0  0  0
  147.9753  139.6089  153.4071 C   0  0  0  0  0  0  0  0  0  0  0  0
  147.1709  140.5178  153.6097 O   0  0  0  0  0  0  0  0  0  0  0  0
  147.7482  138.5935  152.5620 N   0  0  0  0  0  0  0  0  0  0  0  0
  146.5403  138.4104  151.7630 C   0  0  0  0  0  0  0  0  0  0  0  0
  145.8828  137.0445  152.0234 C   0  0  1  0  0  0  0  0  0  0  0  0
  144.4124  137.0987  152.4399 C   0  0  0  0  0  0  0  0  0  0  0  0
  143.9312  135.7268  152.0280 C   0  0  0  0  0  0  0  0  0  0  0  0
  144.6863  135.5127  150.7193 C   0  0  0  0  0  0  0  0  0  0  0  0
  145.8967  136.2577  150.8352 O   0  0  0  0  0  0  0  0  0  0  0  0
  149.4466  141.7101  155.1209 C   0  0  0  0  0  0  0  0  0  0  0  0
  150.0980  142.4606  156.0356 N   0  3  0  0  0  0  0  0  0  0  0  0
  152.0479  144.5958  156.5814 H   0  0  0  0  0  0  0  0  0  0  0  0
  152.1249  144.8714  158.3198 H   0  0  0  0  0  0  0  0  0  0  0  0
  150.5605  144.6412  157.5417 H   0  0  0  0  0  0  0  0  0  0  0  0
  153.2666  141.7442  158.5702 H   0  0  0  0  0  0  0  0  0  0  0  0
  151.7657  141.7324  159.5128 H   0  0  0  0  0  0  0  0  0  0  0  0
  152.8078  143.1516  159.5257 H   0  0  0  0  0  0  0  0  0  0  0  0
  152.2699  140.2133  157.2878 H   0  0  0  0  0  0  0  0  0  0  0  0
  151.1268  138.7862  155.6366 H   0  0  0  0  0  0  0  0  0  0  0  0
  149.6892  138.6444  153.7834 H   0  0  0  0  0  0  0  0  0  0  0  0
  148.4643  137.8888  152.4626 H   0  0  0  0  0  0  0  0  0  0  0  0
  145.8269  139.2182  151.9349 H   0  0  0  0  0  0  0  0  0  0  0  0
  146.8270  138.4781  150.7135 H   0  0  0  0  0  0  0  0  0  0  0  0
  146.4487  136.4976  152.7794 H   0  0  0  0  0  0  0  0  0  0  0  0
  144.2761  137.2998  153.5028 H   0  0  0  0  0  0  0  0  0  0  0  0
  143.8794  137.8647  151.8748 H   0  0  0  0  0  0  0  0  0  0  0  0
  144.2388  134.9851  152.7664 H   0  0  0  0  0  0  0  0  0  0  0  0
  142.8488  135.6664  151.9115 H   0  0  0  0  0  0  0  0  0  0  0  0
  144.8844  134.4586  150.5233 H   0  0  0  0  0  0  0  0  0  0  0  0
  144.1149  135.9111  149.8802 H   0  0  0  0  0  0  0  0  0  0  0  0
  148.6902  142.2387  154.5613 H   0  0  0  0  0  0  0  0  0  0  0  0
  149.8240  143.4385  156.1327 H   0  0  0  0  0  0  0  0  0  0  0  0
  1  2  1  0  0  0  0
  1 20  1  0  0  0  0
  1 21  1  0  0  0  0
  1 22  1  0  0  0  0
  2  3  1  0  0  0  0
  2  4  1  0  0  0  0
  3 23  1  0  0  0  0
  3 24  1  0  0  0  0
  3 25  1  0  0  0  0
  4 19  1  0  0  0  0
  4  5  2  0  0  0  0
  5  6  1  0  0  0  0
  5 26  1  0  0  0  0
  6  7  2  0  0  0  0
  6 27  1  0  0  0  0
  7  8  1  0  0  0  0
  7 18  1  0  0  0  0
  8  9  1  0  0  0  0
  8 28  1  0  0  0  0
  9 10  2  0  0  0  0
  9 11  1  0  0  0  0
 11 12  1  0  0  0  0
 11 29  1  0  0  0  0
 12 13  1  0  0  0  0
 12 30  1  0  0  0  0
 12 31  1  0  0  0  0
 13 17  1  0  0  0  0
 13 14  1  0  0  0  0
 13 32  1  0  0  0  0
 14 15  1  0  0  0  0
 14 33  1  0  0  0  0
 14 34  1  0  0  0  0
 15 16  1  0  0  0  0
 15 35  1  0  0  0  0
 15 36  1  0  0  0  0
 16 17  1  0  0  0  0
 16 37  1  0  0  0  0
 16 38  1  0  0  0  0
 18 19  2  0  0  0  0
 18 39  1  0  0  0  0
 19 40  1  0  0  0  0
M  CHG  1  19   1
M  END
> <s_m_source_file>
AV-unprocessed.smi

> <i_m_source_file_index>
1102

> <i_lp_mmshare_version>
43012

> <i_f3d_flags>
0

> <s_epik_input>
W0NIM11OKFtDSDNdKWMxW2NIXVtjSF1jKFtjSF1uMSlbTkhdQyg9TylbTkhdW0NIMl1bQ0BASF0yW0NIMl1bQ0gyXVtDSDJdTzI=

> <s_epik_cmdline>
J2VwaWtfcHl0aG9uJywgJy1waCcsICc3LjAnLCAnLXRuJywgJzgnLCAnLW1hJywgJzIwMCcsICctbWV0YWxfYmluZGluZycsICctaW1hZScsICc8aW5maWxlLm1hZT4nLCAnLW9tYWUnLCAnPG91dGZpbGUubWFlPic=

> <r_lp_tautomer_probability>
0.999994

> <r_epik_Ionization_Penalty>
0.265123

> <r_epik_Ionization_Penalty_Charging>
0.265104

> <r_epik_Ionization_Penalty_Neutral>
1.89079e-05

> <r_epik_State_Penalty>
0.257001

> <r_epik_Charging_Adjusted_Penalty>
0.522106

> <i_epik_Tot_Q>
1

> <i_epik_Tot_abs_Q>
1

> <r_epik_Metal_State_Penalty>
0.543599

> <b_epik_Metal_Only>
0

> <s_lp_Force_Field>
OPLS_2005

> <r_lp_Energy>
27.717

> <b_lp_Chiralities_Consistent>
1

> <s_lp_Variant>
AV-unprocessed.smi:1102-2

> <Gold.Version>
5.8.1

> <Gold.Id.Protein>
6NUR|6NUR_protein|mol2

> <Gold.PLP.Fitness>
44.8815

> <Gold.PLP.PLP>
-37.9660

> <Gold.PLP.part.hbond>
-4.0000

> <Gold.PLP.part.metal>
0.0000

> <Gold.PLP.part.buried>
-1.1897

> <Gold.PLP.part.nonpolar>
-34.5209

> <Gold.PLP.part.repulsive>
0.7009

> <Gold.PLP.ligand.clash>
0.0000

> <Gold.PLP.ligand.torsion>
1.0329

> <Gold.PLP.Chemscore.Hbond>
2.9920

> <Gold.PLP.Chemscore.CHOScore>
0.0000

> <Gold.PLP.Chemscore.Metal>
0.0000

> <Gold.Chemscore.Hbonds>
donor molecule, donor type, donor heavy atom, donor atom, acceptor molecule, acceptor atom, score
      L1  H    11    29       P1  7948  0.99
      L1  H    19    40       P1  8028  2.00

> <Gold.PLP.Chemscore.Internal.Correction>
0.0053

> <Gold.Rescore>
     Score         DG    S(hbond)    S(metal)    S(lipo)     H(rot)  DE(clash)    DE(int)     intcor
     15.69     -18.00       1.92        0.00      78.89       1.23       0.17       2.14       ----

> <Gold.Chemscore.Fitness>
15.6866

> <Gold.Chemscore.DG>
-17.9960

> <Gold.Chemscore.ZeroCoef>
-5.4800

> <Gold.Chemscore.Hbond>
1.9241

> <Gold.Chemscore.Metal>
0.0000

> <Gold.Chemscore.Lipo>
78.8886

> <Gold.Chemscore.Internal_Hbond>
0.0000

> <Gold.Chemscore.DEClash>
0.1733

> <Gold.Chemscore.DEInternal>
2.1361

> <Gold.Chemscore.Rot>
1.2268

> <Gold.Chemscore.Internal.Correction>
   9.000000E+99

> <Gold.Chemscore.Hbonds>
donor molecule, donor type, donor heavy atom, donor atom, acceptor molecule, acceptor atom, score
      L1  H    11    29       P1  7948  0.93
      L1  H    19    40       P1  8028  0.95

> <Gold.Chemscore.Hbond.Weighted>
-6.4266

> <Gold.Chemscore.Metal.Weighted>
-0.0000

> <Gold.Chemscore.Lipo.Weighted>
-9.2300

> <Gold.Chemscore.Internal_Hbond.Weighted>
0.0000

> <Gold.Chemscore.DEClash.Weighted>
0.1733

> <Gold.Chemscore.DEInternal.Weighted>
2.1361

> <Gold.Chemscore.Rot.Weighted>
3.1406

> <Gold.Chemscore.Internal.Correction.Weighted>
   9.000000E+99

> <Gold.Protein.RotatedTorsions>
[ 6907 6896 6895 6894 ] final   94.11 input  -60.11 | X-H torsion
[ 7974 7965 7964 7962 ] final   65.44 input  175.53 | X-H torsion
[ 8008 7997 7996 7995 ] final   42.10 input   59.86 | X-H torsion
[ 10167 10162 10161 10158 ] final  -94.69 input  -65.29 | X-H torsion
[ 10718 10713 10712 10709 ] final  164.80 input   66.30 | X-H torsion
[ 10763 10752 10751 10750 ] final   -3.87 input  -60.55 | X-H torsion
[ 11005 11000 10999 10996 ] final  151.22 input  -57.11 | X-H torsion

> <Gold.Protein.ActiveResidues>
 VAL166  LYS551  ARG553  GLY616  TRP617  ASP618  TYR619  PRO620  LYS621  CYS622 
 ASP623  PHE694  ASN695  SER759  ASP760  ASP761  ALA762  ILE779  LEU786  VAL792 
 PHE793  MET794  SER795  GLU796  ALA797  LYS798  CYS799  TRP800  GLU811  SER814 

> <Gold.Protein.RotatedAtoms>
  152.5450  134.1244  159.8412 H   0  0  0  0  0  0  0  0  0  0  0  0  # atno 6907 bound_to 6896
  151.1297  133.5038  159.2607 H   0  0  0  0  0  0  0  0  0  0  0  0  # atno 6908 bound_to 6896
  151.1689  135.0318  159.8797 H   0  0  0  0  0  0  0  0  0  0  0  0  # atno 6909 bound_to 6896
  145.8384  139.3181  143.0946 H   0  0  0  0  0  0  0  0  0  0  0  0  # atno 7974 bound_to 7965
  155.2806  140.3372  155.4258 H   0  0  0  0  0  0  0  0  0  0  0  0  # atno 8008 bound_to 7997
  156.2091  140.1763  156.7775 H   0  0  0  0  0  0  0  0  0  0  0  0  # atno 8009 bound_to 7997
  154.5662  140.0678  156.8879 H   0  0  0  0  0  0  0  0  0  0  0  0  # atno 8010 bound_to 7997
  140.3119  143.3100  152.0139 H   0  0  0  0  0  0  0  0  0  0  0  0  # atno 10167 bound_to 10162
  157.0892  131.0413  151.2544 H   0  0  0  0  0  0  0  0  0  0  0  0  # atno 10718 bound_to 10713
  153.3771  135.6997  153.6593 H   0  0  0  0  0  0  0  0  0  0  0  0  # atno 10763 bound_to 10752
  153.5219  135.3610  155.2636 H   0  0  0  0  0  0  0  0  0  0  0  0  # atno 10764 bound_to 10752
  154.8688  135.4160  154.3062 H   0  0  0  0  0  0  0  0  0  0  0  0  # atno 10765 bound_to 10752
  140.1200  134.8870  157.2058 H   0  0  0  0  0  0  0  0  0  0  0  0  # atno 11005 bound_to 11000
  145.9492  140.8921  143.0268 LP  0  0  0  0  0  0  0  0  0  0  0  0  # atno 17320 bound_to 7965
  144.6735  140.1656  143.7418 LP  0  0  0  0  0  0  0  0  0  0  0  0  # atno 17321 bound_to 7965
  139.4892  144.6378  151.6939 LP  0  0  0  0  0  0  0  0  0  0  0  0  # atno 17342 bound_to 10162
  140.5561  144.0346  150.6148 LP  0  0  0  0  0  0  0  0  0  0  0  0  # atno 17343 bound_to 10162
  157.4735  130.7723  149.7346 LP  0  0  0  0  0  0  0  0  0  0  0  0  # atno 17370 bound_to 10713
  155.9902  130.3946  150.3037 LP  0  0  0  0  0  0  0  0  0  0  0  0  # atno 17371 bound_to 10713
  140.2978  134.3166  155.7298 LP  0  0  0  0  0  0  0  0  0  0  0  0  # atno 17394 bound_to 11000
  141.2149  133.7573  156.9597 LP  0  0  0  0  0  0  0  0  0  0  0  0  # atno 17395 bound_to 11000

$$$$
